
     RDKit          3D

  9 10  0  0  0  0  0  0  0  0999 V2000
  312.2073 -117.9436  362.2739 C   0  0  0  0  0  0  0  0  0  0  0  0
  313.0008 -116.8577  362.6786 C   0  0  0  0  0  0  0  0  0  0  0  0
  313.1708 -116.6235  364.0449 C   0  0  0  0  0  0  0  0  0  0  0  0
  312.5576 -117.4554  364.9673 C   0  0  0  0  0  0  0  0  0  0  0  0
  311.7733 -118.5230  364.5478 C   0  0  0  0  0  0  0  0  0  0  0  0
  311.5900 -118.7805  363.1983 C   0  0  0  0  0  0  0  0  0  0  0  0
  312.2091 -117.9405  360.9177 N   0  0  0  0  0  0  0  0  0  0  0  0
  313.4328 -116.2640  361.4636 C   0  0  0  0  0  0  0  0  0  0  0  0
  312.9575 -116.9134  360.4171 N   0  0  0  0  0  0  0  0  0  0  0  0
  1  2  1  0
  1  6  2  0
  1  7  1  0
  2  3  2  0
  2  8  1  0
  3  4  1  0
  4  5  2  0
  5  6  1  0
  7  9  1  0
  8  9  2  0
M  END
$$$$
