
     RDKit          3D

  9 10  0  0  0  0  0  0  0  0999 V2000
 -242.0787 1417.1292 -828.6301 C   0  0  0  0  0  0  0  0  0  0  0  0
 -242.5477 1418.2015 -829.4064 C   0  0  0  0  0  0  0  0  0  0  0  0
 -243.8586 1418.6440 -829.2165 C   0  0  0  0  0  0  0  0  0  0  0  0
 -244.6660 1418.0223 -828.2782 C   0  0  0  0  0  0  0  0  0  0  0  0
 -244.1854 1416.9604 -827.5217 C   0  0  0  0  0  0  0  0  0  0  0  0
 -242.8878 1416.5026 -827.6872 C   0  0  0  0  0  0  0  0  0  0  0  0
 -240.7965 1416.9060 -829.0116 N   0  0  0  0  0  0  0  0  0  0  0  0
 -241.4462 1418.5477 -830.2325 C   0  0  0  0  0  0  0  0  0  0  0  0
 -240.4052 1417.7716 -829.9932 N   0  0  0  0  0  0  0  0  0  0  0  0
  1  2  1  0
  1  6  2  0
  1  7  1  0
  2  3  2  0
  2  8  1  0
  3  4  1  0
  4  5  2  0
  5  6  1  0
  7  9  1  0
  8  9  2  0
M  END
$$$$
