
     RDKit          3D

  9 10  0  0  0  0  0  0  0  0999 V2000
  231.1646  383.4711 -134.1434 C   0  0  0  0  0  0  0  0  0  0  0  0
  230.6647  383.5893 -135.4507 C   0  0  0  0  0  0  0  0  0  0  0  0
  231.4294  384.2667 -136.4027 C   0  0  0  0  0  0  0  0  0  0  0  0
  232.6533  384.8075 -136.0443 C   0  0  0  0  0  0  0  0  0  0  0  0
  233.1301  384.6834 -134.7450 C   0  0  0  0  0  0  0  0  0  0  0  0
  232.3935  384.0137 -133.7807 C   0  0  0  0  0  0  0  0  0  0  0  0
  230.2370  382.7806 -133.4348 N   0  0  0  0  0  0  0  0  0  0  0  0
  229.4112  382.9238 -135.4106 C   0  0  0  0  0  0  0  0  0  0  0  0
  229.1612  382.4442 -134.2063 N   0  0  0  0  0  0  0  0  0  0  0  0
  1  2  1  0
  1  6  2  0
  1  7  1  0
  2  3  2  0
  2  8  1  0
  3  4  1  0
  4  5  2  0
  5  6  1  0
  7  9  1  0
  8  9  2  0
M  END
$$$$
