
     RDKit          3D

  9 10  0  0  0  0  0  0  0  0999 V2000
-1300.5814 3942.0471 -457.7996 C   0  0  0  0  0  0  0  0  0  0  0  0
-1300.3457 3941.3796 -459.0131 C   0  0  0  0  0  0  0  0  0  0  0  0
-1300.3424 3939.9834 -459.0215 C   0  0  0  0  0  0  0  0  0  0  0  0
-1300.5674 3939.2881 -457.8450 C   0  0  0  0  0  0  0  0  0  0  0  0
-1300.7959 3939.9648 -456.6533 C   0  0  0  0  0  0  0  0  0  0  0  0
-1300.8070 3941.3501 -456.6165 C   0  0  0  0  0  0  0  0  0  0  0  0
-1300.5288 3943.3748 -458.0706 N   0  0  0  0  0  0  0  0  0  0  0  0
-1300.1604 3942.4231 -459.9584 C   0  0  0  0  0  0  0  0  0  0  0  0
-1300.2704 3943.6104 -459.3907 N   0  0  0  0  0  0  0  0  0  0  0  0
  1  2  1  0
  1  6  2  0
  1  7  1  0
  2  3  2  0
  2  8  1  0
  3  4  1  0
  4  5  2  0
  5  6  1  0
  7  9  1  0
  8  9  2  0
M  END
$$$$
