
     RDKit          3D

  9 10  0  0  0  0  0  0  0  0999 V2000
  387.7978 -125.1566  125.9398 C   0  0  0  0  0  0  0  0  0  0  0  0
  388.9491 -124.4089  126.2367 C   0  0  0  0  0  0  0  0  0  0  0  0
  390.1999 -125.0046  126.0604 C   0  0  0  0  0  0  0  0  0  0  0  0
  390.2823 -126.3096  125.6036 C   0  0  0  0  0  0  0  0  0  0  0  0
  389.1320 -127.0350  125.3183 C   0  0  0  0  0  0  0  0  0  0  0  0
  387.8779 -126.4679  125.4813 C   0  0  0  0  0  0  0  0  0  0  0  0
  386.7364 -124.3524  126.1969 N   0  0  0  0  0  0  0  0  0  0  0  0
  388.4514 -123.1521  126.6710 C   0  0  0  0  0  0  0  0  0  0  0  0
  387.1317 -123.1243  126.6457 N   0  0  0  0  0  0  0  0  0  0  0  0
  1  2  1  0
  1  6  2  0
  1  7  1  0
  2  3  2  0
  2  8  1  0
  3  4  1  0
  4  5  2  0
  5  6  1  0
  7  9  1  0
  8  9  2  0
M  END
$$$$
