
     RDKit          3D

  9 10  0  0  0  0  0  0  0  0999 V2000
 -261.7737   86.0235 -124.1950 C   0  0  0  0  0  0  0  0  0  0  0  0
 -261.3851   85.5678 -122.9245 C   0  0  0  0  0  0  0  0  0  0  0  0
 -260.0242   85.5269 -122.6137 C   0  0  0  0  0  0  0  0  0  0  0  0
 -259.0909   85.9292 -123.5548 C   0  0  0  0  0  0  0  0  0  0  0  0
 -259.4940   86.3740 -124.8080 C   0  0  0  0  0  0  0  0  0  0  0  0
 -260.8380   86.4277 -125.1423 C   0  0  0  0  0  0  0  0  0  0  0  0
 -263.1279   85.9602 -124.2320 N   0  0  0  0  0  0  0  0  0  0  0  0
 -262.6070   85.2524 -122.2740 C   0  0  0  0  0  0  0  0  0  0  0  0
 -263.6425   85.4879 -123.0583 N   0  0  0  0  0  0  0  0  0  0  0  0
  1  2  1  0
  1  6  2  0
  1  7  1  0
  2  3  2  0
  2  8  1  0
  3  4  1  0
  4  5  2  0
  5  6  1  0
  7  9  1  0
  8  9  2  0
M  END
$$$$
