
     RDKit          3D

  9 10  0  0  0  0  0  0  0  0999 V2000
  -39.4303  -56.1572   22.4833 C   0  0  0  0  0  0  0  0  0  0  0  0
  -38.5260  -56.9642   23.1931 C   0  0  0  0  0  0  0  0  0  0  0  0
  -38.9223  -58.2513   23.5622 C   0  0  0  0  0  0  0  0  0  0  0  0
  -40.1882  -58.7040   23.2284 C   0  0  0  0  0  0  0  0  0  0  0  0
  -41.0705  -57.8900   22.5287 C   0  0  0  0  0  0  0  0  0  0  0  0
  -40.7026  -56.6094   22.1471 C   0  0  0  0  0  0  0  0  0  0  0  0
  -38.8014  -54.9771   22.2567 N   0  0  0  0  0  0  0  0  0  0  0  0
  -37.3697  -56.1534   23.3398 C   0  0  0  0  0  0  0  0  0  0  0  0
  -37.5398  -54.9699   22.7801 N   0  0  0  0  0  0  0  0  0  0  0  0
  1  2  1  0
  1  6  2  0
  1  7  1  0
  2  3  2  0
  2  8  1  0
  3  4  1  0
  4  5  2  0
  5  6  1  0
  7  9  1  0
  8  9  2  0
M  END
$$$$
