
     RDKit          3D

  9 10  0  0  0  0  0  0  0  0999 V2000
 1875.7234-5568.0347-4001.9912 C   0  0  0  0  0  0  0  0  0  0  0  0
 1876.4471-5567.2876-4002.9343 C   0  0  0  0  0  0  0  0  0  0  0  0
 1875.8969-5567.0938-4004.2024 C   0  0  0  0  0  0  0  0  0  0  0  0
 1874.6600-5567.6396-4004.5068 C   0  0  0  0  0  0  0  0  0  0  0  0
 1873.9602-5568.3794-4003.5623 C   0  0  0  0  0  0  0  0  0  0  0  0
 1874.4822-5568.5859-4002.2942 C   0  0  0  0  0  0  0  0  0  0  0  0
 1876.4756-5568.0688-4000.8628 N   0  0  0  0  0  0  0  0  0  0  0  0
 1877.6370-5566.9175-4002.2532 C   0  0  0  0  0  0  0  0  0  0  0  0
 1877.6486-5567.3877-4001.0188 N   0  0  0  0  0  0  0  0  0  0  0  0
  1  2  1  0
  1  6  2  0
  1  7  1  0
  2  3  2  0
  2  8  1  0
  3  4  1  0
  4  5  2  0
  5  6  1  0
  7  9  1  0
  8  9  2  0
M  END
$$$$
