
     RDKit          3D

  9 10  0  0  0  0  0  0  0  0999 V2000
-2609.1868  936.7650 -475.8865 C   0  0  0  0  0  0  0  0  0  0  0  0
-2608.0659  936.8041 -476.7328 C   0  0  0  0  0  0  0  0  0  0  0  0
-2607.2405  935.6800 -476.8056 C   0  0  0  0  0  0  0  0  0  0  0  0
-2607.5359  934.5590 -476.0467 C   0  0  0  0  0  0  0  0  0  0  0  0
-2608.6470  934.5400 -475.2125 C   0  0  0  0  0  0  0  0  0  0  0  0
-2609.4846  935.6404 -475.1231 C   0  0  0  0  0  0  0  0  0  0  0  0
-2609.8025  937.9672 -476.0038 N   0  0  0  0  0  0  0  0  0  0  0  0
-2608.1096  938.0978 -477.3159 C   0  0  0  0  0  0  0  0  0  0  0  0
-2609.1467  938.7867 -476.8771 N   0  0  0  0  0  0  0  0  0  0  0  0
  1  2  1  0
  1  6  2  0
  1  7  1  0
  2  3  2  0
  2  8  1  0
  3  4  1  0
  4  5  2  0
  5  6  1  0
  7  9  1  0
  8  9  2  0
M  END
$$$$
