
     RDKit          3D

  9 10  0  0  0  0  0  0  0  0999 V2000
  503.8434-1528.5490  688.3054 C   0  0  0  0  0  0  0  0  0  0  0  0
  505.1701-1528.1405  688.0911 C   0  0  0  0  0  0  0  0  0  0  0  0
  505.8518-1528.6324  686.9758 C   0  0  0  0  0  0  0  0  0  0  0  0
  505.2154-1529.5077  686.1112 C   0  0  0  0  0  0  0  0  0  0  0  0
  503.9034-1529.9033  686.3416 C   0  0  0  0  0  0  0  0  0  0  0  0
  503.2021-1529.4285  687.4387 C   0  0  0  0  0  0  0  0  0  0  0  0
  503.4272-1527.9337  689.4399 N   0  0  0  0  0  0  0  0  0  0  0  0
  505.4506-1527.2683  689.1758 C   0  0  0  0  0  0  0  0  0  0  0  0
  504.4081-1527.1493  689.9770 N   0  0  0  0  0  0  0  0  0  0  0  0
  1  2  1  0
  1  6  2  0
  1  7  1  0
  2  3  2  0
  2  8  1  0
  3  4  1  0
  4  5  2  0
  5  6  1  0
  7  9  1  0
  8  9  2  0
M  END
$$$$
