
     RDKit          3D

  9 10  0  0  0  0  0  0  0  0999 V2000
  166.8253 3103.7476  761.3297 C   0  0  0  0  0  0  0  0  0  0  0  0
  166.9163 3102.3591  761.5208 C   0  0  0  0  0  0  0  0  0  0  0  0
  167.3440 3101.5623  760.4568 C   0  0  0  0  0  0  0  0  0  0  0  0
  167.6642 3102.1487  759.2433 C   0  0  0  0  0  0  0  0  0  0  0  0
  167.5647 3103.5227  759.0717 C   0  0  0  0  0  0  0  0  0  0  0  0
  167.1462 3104.3386  760.1112 C   0  0  0  0  0  0  0  0  0  0  0  0
  166.3915 3104.2729  762.5021 N   0  0  0  0  0  0  0  0  0  0  0  0
  166.5057 3102.1606  762.8654 C   0  0  0  0  0  0  0  0  0  0  0  0
  166.1935 3103.3044  763.4454 N   0  0  0  0  0  0  0  0  0  0  0  0
  1  2  1  0
  1  6  2  0
  1  7  1  0
  2  3  2  0
  2  8  1  0
  3  4  1  0
  4  5  2  0
  5  6  1  0
  7  9  1  0
  8  9  2  0
M  END
$$$$
