
     RDKit          3D

  9 10  0  0  0  0  0  0  0  0999 V2000
  -12.1066   35.7059  -17.4138 C   0  0  0  0  0  0  0  0  0  0  0  0
  -12.6987   36.5209  -16.4349 C   0  0  0  0  0  0  0  0  0  0  0  0
  -13.4661   37.6130  -16.8457 C   0  0  0  0  0  0  0  0  0  0  0  0
  -13.6256   37.8727  -18.1969 C   0  0  0  0  0  0  0  0  0  0  0  0
  -13.0294   37.0571  -19.1509 C   0  0  0  0  0  0  0  0  0  0  0  0
  -12.2650   35.9649  -18.7717 C   0  0  0  0  0  0  0  0  0  0  0  0
  -11.4278   34.7361  -16.7518 N   0  0  0  0  0  0  0  0  0  0  0  0
  -12.3012   35.9379  -15.2029 C   0  0  0  0  0  0  0  0  0  0  0  0
  -11.5435   34.8746  -15.3979 N   0  0  0  0  0  0  0  0  0  0  0  0
  1  2  1  0
  1  6  2  0
  1  7  1  0
  2  3  2  0
  2  8  1  0
  3  4  1  0
  4  5  2  0
  5  6  1  0
  7  9  1  0
  8  9  2  0
M  END
$$$$
