
     RDKit          3D

  9 10  0  0  0  0  0  0  0  0999 V2000
   -9.9857   47.2504   80.0223 C   0  0  0  0  0  0  0  0  0  0  0  0
  -10.6619   46.0913   79.6074 C   0  0  0  0  0  0  0  0  0  0  0  0
  -10.0273   45.2291   78.7107 C   0  0  0  0  0  0  0  0  0  0  0  0
   -8.7567   45.5303   78.2485 C   0  0  0  0  0  0  0  0  0  0  0  0
   -8.1046   46.6835   78.6677 C   0  0  0  0  0  0  0  0  0  0  0  0
   -8.7096   47.5554   79.5592 C   0  0  0  0  0  0  0  0  0  0  0  0
  -10.8159   47.8984   80.8769 N   0  0  0  0  0  0  0  0  0  0  0  0
  -11.9081   46.1481   80.2854 C   0  0  0  0  0  0  0  0  0  0  0  0
  -11.9945   47.2277   81.0403 N   0  0  0  0  0  0  0  0  0  0  0  0
  1  2  1  0
  1  6  2  0
  1  7  1  0
  2  3  2  0
  2  8  1  0
  3  4  1  0
  4  5  2  0
  5  6  1  0
  7  9  1  0
  8  9  2  0
M  END
$$$$
