
     RDKit          3D

  9 10  0  0  0  0  0  0  0  0999 V2000
 4094.1609  921.0350-3204.6357 C   0  0  0  0  0  0  0  0  0  0  0  0
 4092.8303  921.1094-3204.1931 C   0  0  0  0  0  0  0  0  0  0  0  0
 4092.1672  922.3367-3204.2617 C   0  0  0  0  0  0  0  0  0  0  0  0
 4092.8279  923.4489-3204.7576 C   0  0  0  0  0  0  0  0  0  0  0  0
 4094.1462  923.3566-3205.1882 C   0  0  0  0  0  0  0  0  0  0  0  0
 4094.8262  922.1509-3205.1331 C   0  0  0  0  0  0  0  0  0  0  0  0
 4094.5564  919.7498-3204.4583 N   0  0  0  0  0  0  0  0  0  0  0  0
 4092.5259  919.7902-3203.7644 C   0  0  0  0  0  0  0  0  0  0  0  0
 4093.5593  918.9844-3203.9246 N   0  0  0  0  0  0  0  0  0  0  0  0
  1  2  1  0
  1  6  2  0
  1  7  1  0
  2  3  2  0
  2  8  1  0
  3  4  1  0
  4  5  2  0
  5  6  1  0
  7  9  1  0
  8  9  2  0
M  END
$$$$
