
     RDKit          3D

  9 10  0  0  0  0  0  0  0  0999 V2000
  603.8096-2996.1917 1102.0731 C   0  0  0  0  0  0  0  0  0  0  0  0
  603.6053-2995.2654 1101.0380 C   0  0  0  0  0  0  0  0  0  0  0  0
  603.9105-2995.6438 1099.7290 C   0  0  0  0  0  0  0  0  0  0  0  0
  604.4069-2996.9133 1099.4775 C   0  0  0  0  0  0  0  0  0  0  0  0
  604.6055-2997.8152 1100.5157 C   0  0  0  0  0  0  0  0  0  0  0  0
  604.3085-2997.4663 1101.8239 C   0  0  0  0  0  0  0  0  0  0  0  0
  603.4401-2995.5752 1103.2236 N   0  0  0  0  0  0  0  0  0  0  0  0
  603.1046-2994.1091 1101.6925 C   0  0  0  0  0  0  0  0  0  0  0  0
  603.0086-2994.2988 1102.9950 N   0  0  0  0  0  0  0  0  0  0  0  0
  1  2  1  0
  1  6  2  0
  1  7  1  0
  2  3  2  0
  2  8  1  0
  3  4  1  0
  4  5  2  0
  5  6  1  0
  7  9  1  0
  8  9  2  0
M  END
$$$$
