
     RDKit          3D

  9 10  0  0  0  0  0  0  0  0999 V2000
 -938.6967-1587.6974 -983.9517 C   0  0  0  0  0  0  0  0  0  0  0  0
 -939.6449-1588.5574 -983.3740 C   0  0  0  0  0  0  0  0  0  0  0  0
 -939.2037-1589.7449 -982.7870 C   0  0  0  0  0  0  0  0  0  0  0  0
 -937.8530-1590.0527 -982.7874 C   0  0  0  0  0  0  0  0  0  0  0  0
 -936.9298-1589.1910 -983.3669 C   0  0  0  0  0  0  0  0  0  0  0  0
 -937.3394-1588.0039 -983.9537 C   0  0  0  0  0  0  0  0  0  0  0  0
 -939.3842-1586.6362 -984.4423 N   0  0  0  0  0  0  0  0  0  0  0  0
 -940.8877-1587.9021 -983.5804 C   0  0  0  0  0  0  0  0  0  0  0  0
 -940.7261-1586.7576 -984.2183 N   0  0  0  0  0  0  0  0  0  0  0  0
  1  2  1  0
  1  6  2  0
  1  7  1  0
  2  3  2  0
  2  8  1  0
  3  4  1  0
  4  5  2  0
  5  6  1  0
  7  9  1  0
  8  9  2  0
M  END
$$$$
