
     RDKit          3D

  9 10  0  0  0  0  0  0  0  0999 V2000
  -43.6433  192.3370  205.9736 C   0  0  0  0  0  0  0  0  0  0  0  0
  -42.7227  191.6615  206.7915 C   0  0  0  0  0  0  0  0  0  0  0  0
  -42.7933  190.2692  206.8732 C   0  0  0  0  0  0  0  0  0  0  0  0
  -43.7618  189.5860  206.1562 C   0  0  0  0  0  0  0  0  0  0  0  0
  -44.6662  190.2718  205.3547 C   0  0  0  0  0  0  0  0  0  0  0  0
  -44.6173  191.6531  205.2527 C   0  0  0  0  0  0  0  0  0  0  0  0
  -43.3567  193.6586  206.0770 N   0  0  0  0  0  0  0  0  0  0  0  0
  -41.9201  192.6931  207.3461 C   0  0  0  0  0  0  0  0  0  0  0  0
  -42.3029  193.8814  206.9170 N   0  0  0  0  0  0  0  0  0  0  0  0
  1  2  1  0
  1  6  2  0
  1  7  1  0
  2  3  2  0
  2  8  1  0
  3  4  1  0
  4  5  2  0
  5  6  1  0
  7  9  1  0
  8  9  2  0
M  END
$$$$
