
     RDKit          3D

  9 10  0  0  0  0  0  0  0  0999 V2000
  679.9976 -209.6281 -903.5961 C   0  0  0  0  0  0  0  0  0  0  0  0
  679.3755 -208.6935 -902.7522 C   0  0  0  0  0  0  0  0  0  0  0  0
  677.9886 -208.5460 -902.8217 C   0  0  0  0  0  0  0  0  0  0  0  0
  677.2586 -209.3136 -903.7142 C   0  0  0  0  0  0  0  0  0  0  0  0
  677.8920 -210.2311 -904.5436 C   0  0  0  0  0  0  0  0  0  0  0  0
  679.2668 -210.4001 -904.4937 C   0  0  0  0  0  0  0  0  0  0  0  0
  681.3260 -209.5676 -903.3288 N   0  0  0  0  0  0  0  0  0  0  0  0
  680.4431 -208.1211 -902.0117 C   0  0  0  0  0  0  0  0  0  0  0  0
  681.6035 -208.6457 -902.3599 N   0  0  0  0  0  0  0  0  0  0  0  0
  1  2  1  0
  1  6  2  0
  1  7  1  0
  2  3  2  0
  2  8  1  0
  3  4  1  0
  4  5  2  0
  5  6  1  0
  7  9  1  0
  8  9  2  0
M  END
$$$$
