
     RDKit          3D

  9 10  0  0  0  0  0  0  0  0999 V2000
 1139.2681   32.8776-3544.7297 C   0  0  0  0  0  0  0  0  0  0  0  0
 1139.5293   31.5811-3544.2563 C   0  0  0  0  0  0  0  0  0  0  0  0
 1139.3290   30.4996-3545.1157 C   0  0  0  0  0  0  0  0  0  0  0  0
 1138.8781   30.7210-3546.4065 C   0  0  0  0  0  0  0  0  0  0  0  0
 1138.6221   32.0104-3546.8567 C   0  0  0  0  0  0  0  0  0  0  0  0
 1138.8145   33.1025-3546.0256 C   0  0  0  0  0  0  0  0  0  0  0  0
 1139.5391   33.7259-3543.7068 N   0  0  0  0  0  0  0  0  0  0  0  0
 1139.9572   31.7750-3542.9160 C   0  0  0  0  0  0  0  0  0  0  0  0
 1139.9606   33.0552-3542.5945 N   0  0  0  0  0  0  0  0  0  0  0  0
  1  2  1  0
  1  6  2  0
  1  7  1  0
  2  3  2  0
  2  8  1  0
  3  4  1  0
  4  5  2  0
  5  6  1  0
  7  9  1  0
  8  9  2  0
M  END
$$$$
