
     RDKit          3D

  9 10  0  0  0  0  0  0  0  0999 V2000
  183.1482  694.3714 1072.8795 C   0  0  0  0  0  0  0  0  0  0  0  0
  182.8629  694.6625 1071.5356 C   0  0  0  0  0  0  0  0  0  0  0  0
  182.1800  695.8432 1071.2349 C   0  0  0  0  0  0  0  0  0  0  0  0
  181.7974  696.6960 1072.2571 C   0  0  0  0  0  0  0  0  0  0  0  0
  182.0858  696.3898 1073.5815 C   0  0  0  0  0  0  0  0  0  0  0  0
  182.7647  695.2263 1073.9081 C   0  0  0  0  0  0  0  0  0  0  0  0
  183.8055  693.1852 1072.8879 N   0  0  0  0  0  0  0  0  0  0  0  0
  183.4022  693.5648 1070.8145 C   0  0  0  0  0  0  0  0  0  0  0  0
  183.9624  692.6870 1071.6257 N   0  0  0  0  0  0  0  0  0  0  0  0
  1  2  1  0
  1  6  2  0
  1  7  1  0
  2  3  2  0
  2  8  1  0
  3  4  1  0
  4  5  2  0
  5  6  1  0
  7  9  1  0
  8  9  2  0
M  END
$$$$
