
     RDKit          3D

  9 10  0  0  0  0  0  0  0  0999 V2000
  449.8580 -206.8601 -160.1312 C   0  0  0  0  0  0  0  0  0  0  0  0
  450.3008 -205.9626 -159.1457 C   0  0  0  0  0  0  0  0  0  0  0  0
  450.8791 -206.4751 -157.9826 C   0  0  0  0  0  0  0  0  0  0  0  0
  451.0016 -207.8453 -157.8210 C   0  0  0  0  0  0  0  0  0  0  0  0
  450.5547 -208.7181 -158.8056 C   0  0  0  0  0  0  0  0  0  0  0  0
  449.9796 -208.2369 -159.9712 C   0  0  0  0  0  0  0  0  0  0  0  0
  449.3454 -206.1089 -161.1373 N   0  0  0  0  0  0  0  0  0  0  0  0
  449.9979 -204.6802 -159.6747 C   0  0  0  0  0  0  0  0  0  0  0  0
  449.4281 -204.7736 -160.8619 N   0  0  0  0  0  0  0  0  0  0  0  0
  1  2  1  0
  1  6  2  0
  1  7  1  0
  2  3  2  0
  2  8  1  0
  3  4  1  0
  4  5  2  0
  5  6  1  0
  7  9  1  0
  8  9  2  0
M  END
$$$$
