
     RDKit          3D

  9 10  0  0  0  0  0  0  0  0999 V2000
 2114.6245 1335.9812  122.6271 C   0  0  0  0  0  0  0  0  0  0  0  0
 2115.5854 1336.1606  121.6175 C   0  0  0  0  0  0  0  0  0  0  0  0
 2116.5176 1337.1914  121.7538 C   0  0  0  0  0  0  0  0  0  0  0  0
 2116.4780 1338.0125  122.8689 C   0  0  0  0  0  0  0  0  0  0  0  0
 2115.5183 1337.8217  123.8559 C   0  0  0  0  0  0  0  0  0  0  0  0
 2114.5828 1336.8044  123.7479 C   0  0  0  0  0  0  0  0  0  0  0  0
 2113.8569 1334.9296  122.2486 N   0  0  0  0  0  0  0  0  0  0  0  0
 2115.2922 1335.1461  120.6682 C   0  0  0  0  0  0  0  0  0  0  0  0
 2114.2615 1334.4154  121.0495 N   0  0  0  0  0  0  0  0  0  0  0  0
  1  2  1  0
  1  6  2  0
  1  7  1  0
  2  3  2  0
  2  8  1  0
  3  4  1  0
  4  5  2  0
  5  6  1  0
  7  9  1  0
  8  9  2  0
M  END
$$$$
