
     RDKit          3D

  9 10  0  0  0  0  0  0  0  0999 V2000
 -132.0937   59.2310   96.4738 C   0  0  0  0  0  0  0  0  0  0  0  0
 -132.2461   60.0344   97.6157 C   0  0  0  0  0  0  0  0  0  0  0  0
 -132.3753   59.4140   98.8602 C   0  0  0  0  0  0  0  0  0  0  0  0
 -132.3543   58.0316   98.9454 C   0  0  0  0  0  0  0  0  0  0  0  0
 -132.2060   57.2530   97.8041 C   0  0  0  0  0  0  0  0  0  0  0  0
 -132.0727   57.8422   96.5567 C   0  0  0  0  0  0  0  0  0  0  0  0
 -131.9933   60.0749   95.4168 N   0  0  0  0  0  0  0  0  0  0  0  0
 -132.2237   61.3637   97.1175 C   0  0  0  0  0  0  0  0  0  0  0  0
 -132.0732   61.3817   95.8060 N   0  0  0  0  0  0  0  0  0  0  0  0
  1  2  1  0
  1  6  2  0
  1  7  1  0
  2  3  2  0
  2  8  1  0
  3  4  1  0
  4  5  2  0
  5  6  1  0
  7  9  1  0
  8  9  2  0
M  END
$$$$
