
     RDKit          3D

  9 10  0  0  0  0  0  0  0  0999 V2000
 3072.1169 1566.2969  708.2222 C   0  0  0  0  0  0  0  0  0  0  0  0
 3071.3997 1566.4332  709.4221 C   0  0  0  0  0  0  0  0  0  0  0  0
 3071.8789 1565.7941  710.5673 C   0  0  0  0  0  0  0  0  0  0  0  0
 3073.0410 1565.0421  710.5002 C   0  0  0  0  0  0  0  0  0  0  0  0
 3073.7361 1564.9165  709.3036 C   0  0  0  0  0  0  0  0  0  0  0  0
 3073.2839 1565.5416  708.1523 C   0  0  0  0  0  0  0  0  0  0  0  0
 3071.4409 1567.0049  707.2838 N   0  0  0  0  0  0  0  0  0  0  0  0
 3070.2939 1567.2557  709.0801 C   0  0  0  0  0  0  0  0  0  0  0  0
 3070.3242 1567.5933  707.8041 N   0  0  0  0  0  0  0  0  0  0  0  0
  1  2  1  0
  1  6  2  0
  1  7  1  0
  2  3  2  0
  2  8  1  0
  3  4  1  0
  4  5  2  0
  5  6  1  0
  7  9  1  0
  8  9  2  0
M  END
$$$$
