
     RDKit          3D

 16 17  0  0  0  0  0  0  0  0999 V2000
  184.3260 -407.1044 -218.3750 C   0  0  0  0  0  0  0  0  0  0  0  0
  184.5417 -406.7926 -216.9908 O   0  0  0  0  0  0  0  0  0  0  0  0
  183.3285 -406.1205 -218.9455 C   0  0  0  0  0  0  0  0  0  0  0  0
  183.4733 -406.2243 -220.3676 O   0  0  0  0  0  0  0  0  0  0  0  0
  183.3093 -404.9968 -221.1138 C   0  0  0  0  0  0  0  0  0  0  0  0
  182.7494 -404.1831 -220.0526 N   0  0  0  0  0  0  0  0  0  0  0  0
  183.2033 -403.0728 -219.4704 C   0  0  0  0  0  0  0  0  0  0  0  0
  182.2884 -402.6510 -218.5697 N   0  0  0  0  0  0  0  0  0  0  0  0
  181.2533 -403.5148 -218.5999 C   0  0  0  0  0  0  0  0  0  0  0  0
  180.0612 -403.6037 -217.9113 C   0  0  0  0  0  0  0  0  0  0  0  0
  179.8050 -402.7016 -217.0472 O   0  0  0  0  0  0  0  0  0  0  0  0
  179.2313 -404.6435 -218.2176 N   0  0  0  0  0  0  0  0  0  0  0  0
  179.5597 -405.5801 -219.1574 C   0  0  0  0  0  0  0  0  0  0  0  0
  178.7759 -406.6231 -219.4897 N   0  0  0  0  0  0  0  0  0  0  0  0
  180.7184 -405.4985 -219.7948 N   0  0  0  0  0  0  0  0  0  0  0  0
  181.5451 -404.4669 -219.5479 C   0  0  0  0  0  0  0  0  0  0  0  0
  1  2  1  6
  1  3  1  0
  3  4  1  1
  5  4  1  6
  5  6  1  0
  6  7  1  0
  6 16  1  0
  7  8  2  0
  8  9  1  0
  9 10  1  0
  9 16  2  0
 10 11  2  0
 10 12  1  0
 12 13  1  0
 13 14  1  0
 13 15  2  0
 15 16  1  0
M  END
$$$$
