
     RDKit          3D

 16 17  0  0  0  0  0  0  0  0999 V2000
   52.6221  562.3632   82.5864 C   0  0  0  0  0  0  0  0  0  0  0  0
   53.9783  562.5394   83.0214 O   0  0  0  0  0  0  0  0  0  0  0  0
   52.2599  560.8991   82.7035 C   0  0  0  0  0  0  0  0  0  0  0  0
   51.4260  560.6289   81.5696 O   0  0  0  0  0  0  0  0  0  0  0  0
   52.1087  560.4525   80.3073 C   0  0  0  0  0  0  0  0  0  0  0  0
   51.9046  559.0251   80.1596 N   0  0  0  0  0  0  0  0  0  0  0  0
   50.9850  558.3392   79.4798 C   0  0  0  0  0  0  0  0  0  0  0  0
   51.2513  557.0199   79.6013 N   0  0  0  0  0  0  0  0  0  0  0  0
   52.3541  556.8919   80.3665 C   0  0  0  0  0  0  0  0  0  0  0  0
   53.0760  555.8120   80.8310 C   0  0  0  0  0  0  0  0  0  0  0  0
   52.6823  554.6458   80.4974 O   0  0  0  0  0  0  0  0  0  0  0  0
   54.1728  556.0701   81.6018 N   0  0  0  0  0  0  0  0  0  0  0  0
   54.5476  557.3444   81.9248 C   0  0  0  0  0  0  0  0  0  0  0  0
   55.6179  557.6468   82.6838 N   0  0  0  0  0  0  0  0  0  0  0  0
   53.8326  558.3729   81.4936 N   0  0  0  0  0  0  0  0  0  0  0  0
   52.7680  558.1598   80.6998 C   0  0  0  0  0  0  0  0  0  0  0  0
  1  2  1  6
  1  3  1  0
  3  4  1  1
  5  4  1  6
  5  6  1  0
  6  7  1  0
  6 16  1  0
  7  8  2  0
  8  9  1  0
  9 10  1  0
  9 16  2  0
 10 11  2  0
 10 12  1  0
 12 13  1  0
 13 14  1  0
 13 15  2  0
 15 16  1  0
M  END
$$$$
