
     RDKit          3D

 16 17  0  0  0  0  0  0  0  0999 V2000
   -8.5669  -91.7447   40.1275 C   0  0  0  0  0  0  0  0  0  0  0  0
   -8.0721  -92.0152   38.8078 O   0  0  0  0  0  0  0  0  0  0  0  0
   -8.7433  -93.0571   40.8592 C   0  0  0  0  0  0  0  0  0  0  0  0
  -10.1028  -93.4402   40.6162 O   0  0  0  0  0  0  0  0  0  0  0  0
  -10.8396  -93.9266   41.7612 C   0  0  0  0  0  0  0  0  0  0  0  0
  -10.8744  -92.6941   42.5234 N   0  0  0  0  0  0  0  0  0  0  0  0
  -11.3189  -92.4401   43.7547 C   0  0  0  0  0  0  0  0  0  0  0  0
  -11.0764  -91.1424   44.0433 N   0  0  0  0  0  0  0  0  0  0  0  0
  -10.4709  -90.5893   42.9729 C   0  0  0  0  0  0  0  0  0  0  0  0
  -10.0063  -89.3226   42.6854 C   0  0  0  0  0  0  0  0  0  0  0  0
  -10.1314  -88.4253   43.5828 O   0  0  0  0  0  0  0  0  0  0  0  0
   -9.4286  -89.1242   41.4644 N   0  0  0  0  0  0  0  0  0  0  0  0
   -9.3202  -90.1275   40.5425 C   0  0  0  0  0  0  0  0  0  0  0  0
   -8.7625  -89.9779   39.3261 N   0  0  0  0  0  0  0  0  0  0  0  0
   -9.7924  -91.3338   40.8202 N   0  0  0  0  0  0  0  0  0  0  0  0
  -10.3332  -91.5775   42.0272 C   0  0  0  0  0  0  0  0  0  0  0  0
  1  2  1  6
  1  3  1  0
  3  4  1  1
  5  4  1  6
  5  6  1  0
  6  7  1  0
  6 16  1  0
  7  8  2  0
  8  9  1  0
  9 10  1  0
  9 16  2  0
 10 11  2  0
 10 12  1  0
 12 13  1  0
 13 14  1  0
 13 15  2  0
 15 16  1  0
M  END
$$$$
