
     RDKit          3D

 16 17  0  0  0  0  0  0  0  0999 V2000
   20.9942  462.8269  -33.2099 C   0  0  0  0  0  0  0  0  0  0  0  0
   20.1941  462.7700  -32.0199 O   0  0  0  0  0  0  0  0  0  0  0  0
   21.4096  464.2623  -33.4480 C   0  0  0  0  0  0  0  0  0  0  0  0
   22.7407  464.3571  -32.9256 O   0  0  0  0  0  0  0  0  0  0  0  0
   23.6626  463.3255  -33.3460 C   0  0  0  0  0  0  0  0  0  0  0  0
   24.8714  463.8822  -32.7715 N   0  0  0  0  0  0  0  0  0  0  0  0
   25.0450  464.7777  -31.7987 C   0  0  0  0  0  0  0  0  0  0  0  0
   26.3700  464.9265  -31.5786 N   0  0  0  0  0  0  0  0  0  0  0  0
   27.0224  464.1076  -32.4283 C   0  0  0  0  0  0  0  0  0  0  0  0
   28.3550  463.8425  -32.6674 C   0  0  0  0  0  0  0  0  0  0  0  0
   29.2200  464.4606  -31.9632 O   0  0  0  0  0  0  0  0  0  0  0  0
   28.6524  462.9223  -33.6312 N   0  0  0  0  0  0  0  0  0  0  0  0
   27.6798  462.2892  -34.3532 C   0  0  0  0  0  0  0  0  0  0  0  0
   27.9253  461.3788  -35.3145 N   0  0  0  0  0  0  0  0  0  0  0  0
   26.4041  462.5701  -34.1320 N   0  0  0  0  0  0  0  0  0  0  0  0
   26.0707  463.4423  -33.1641 C   0  0  0  0  0  0  0  0  0  0  0  0
  1  2  1  6
  1  3  1  0
  3  4  1  1
  5  4  1  6
  5  6  1  0
  6  7  1  0
  6 16  1  0
  7  8  2  0
  8  9  1  0
  9 10  1  0
  9 16  2  0
 10 11  2  0
 10 12  1  0
 12 13  1  0
 13 14  1  0
 13 15  2  0
 15 16  1  0
M  END
$$$$
