
     RDKit          3D

 16 17  0  0  0  0  0  0  0  0999 V2000
  393.8343 -119.9016  177.0182 C   0  0  0  0  0  0  0  0  0  0  0  0
  393.9753 -119.9465  175.5907 O   0  0  0  0  0  0  0  0  0  0  0  0
  395.0340 -120.5756  177.6467 C   0  0  0  0  0  0  0  0  0  0  0  0
  394.7191 -120.6733  179.0415 O   0  0  0  0  0  0  0  0  0  0  0  0
  395.4422 -121.6796  179.7866 C   0  0  0  0  0  0  0  0  0  0  0  0
  395.7165 -122.5899  178.6923 N   0  0  0  0  0  0  0  0  0  0  0  0
  394.9023 -123.1530  177.7988 C   0  0  0  0  0  0  0  0  0  0  0  0
  395.6442 -123.8810  176.9355 N   0  0  0  0  0  0  0  0  0  0  0  0
  396.9366 -123.7622  177.3023 C   0  0  0  0  0  0  0  0  0  0  0  0
  398.1205 -124.2766  176.8151 C   0  0  0  0  0  0  0  0  0  0  0  0
  398.0632 -125.0301  175.7880 O   0  0  0  0  0  0  0  0  0  0  0  0
  399.2726 -123.9269  177.4584 N   0  0  0  0  0  0  0  0  0  0  0  0
  399.2711 -123.1114  178.5555 C   0  0  0  0  0  0  0  0  0  0  0  0
  400.3805 -122.7430  179.2237 N   0  0  0  0  0  0  0  0  0  0  0  0
  398.1258 -122.6435  179.0295 N   0  0  0  0  0  0  0  0  0  0  0  0
  396.9737 -122.9346  178.3993 C   0  0  0  0  0  0  0  0  0  0  0  0
  1  2  1  6
  1  3  1  0
  3  4  1  1
  5  4  1  6
  5  6  1  0
  6  7  1  0
  6 16  1  0
  7  8  2  0
  8  9  1  0
  9 10  1  0
  9 16  2  0
 10 11  2  0
 10 12  1  0
 12 13  1  0
 13 14  1  0
 13 15  2  0
 15 16  1  0
M  END
$$$$
