
     RDKit          3D

 16 17  0  0  0  0  0  0  0  0999 V2000
 -314.7754 -131.1146  -20.0956 C   0  0  0  0  0  0  0  0  0  0  0  0
 -314.3233 -131.4260  -18.7697 O   0  0  0  0  0  0  0  0  0  0  0  0
 -315.1213 -129.6432  -20.1584 C   0  0  0  0  0  0  0  0  0  0  0  0
 -313.9436 -129.0038  -20.6659 O   0  0  0  0  0  0  0  0  0  0  0  0
 -313.5280 -127.8013  -19.9791 C   0  0  0  0  0  0  0  0  0  0  0  0
 -313.9479 -128.1713  -18.6420 N   0  0  0  0  0  0  0  0  0  0  0  0
 -314.6024 -127.4795  -17.7085 C   0  0  0  0  0  0  0  0  0  0  0  0
 -314.8159 -128.2839  -16.6437 N   0  0  0  0  0  0  0  0  0  0  0  0
 -314.2856 -129.4908  -16.9274 C   0  0  0  0  0  0  0  0  0  0  0  0
 -314.1904 -130.6804  -16.2350 C   0  0  0  0  0  0  0  0  0  0  0  0
 -314.7016 -130.7316  -15.0679 O   0  0  0  0  0  0  0  0  0  0  0  0
 -313.5701 -131.7249  -16.8574 N   0  0  0  0  0  0  0  0  0  0  0  0
 -313.0425 -131.6104  -18.1131 C   0  0  0  0  0  0  0  0  0  0  0  0
 -312.4193 -132.6108  -18.7644 N   0  0  0  0  0  0  0  0  0  0  0  0
 -313.1178 -130.4559  -18.7588 N   0  0  0  0  0  0  0  0  0  0  0  0
 -313.7558 -129.4155  -18.1936 C   0  0  0  0  0  0  0  0  0  0  0  0
  1  2  1  6
  1  3  1  0
  3  4  1  1
  5  4  1  6
  5  6  1  0
  6  7  1  0
  6 16  1  0
  7  8  2  0
  8  9  1  0
  9 10  1  0
  9 16  2  0
 10 11  2  0
 10 12  1  0
 12 13  1  0
 13 14  1  0
 13 15  2  0
 15 16  1  0
M  END
$$$$
