
     RDKit          3D

 16 17  0  0  0  0  0  0  0  0999 V2000
  -95.8702  412.8985  -32.1925 C   0  0  0  0  0  0  0  0  0  0  0  0
  -96.4962  411.7459  -31.6099 O   0  0  0  0  0  0  0  0  0  0  0  0
  -96.9441  413.8912  -32.5803 C   0  0  0  0  0  0  0  0  0  0  0  0
  -98.1836  413.2152  -32.3352 O   0  0  0  0  0  0  0  0  0  0  0  0
  -99.2412  414.0168  -31.7611 C   0  0  0  0  0  0  0  0  0  0  0  0
 -100.0591  414.1611  -32.9491 N   0  0  0  0  0  0  0  0  0  0  0  0
 -100.2348  413.3506  -33.9933 C   0  0  0  0  0  0  0  0  0  0  0  0
 -101.1494  413.9027  -34.8209 N   0  0  0  0  0  0  0  0  0  0  0  0
 -101.5448  415.0709  -34.2758 C   0  0  0  0  0  0  0  0  0  0  0  0
 -102.4310  416.0552  -34.6621 C   0  0  0  0  0  0  0  0  0  0  0  0
 -103.0608  415.8912  -35.7587 O   0  0  0  0  0  0  0  0  0  0  0  0
 -102.5834  417.1284  -33.8322 N   0  0  0  0  0  0  0  0  0  0  0  0
 -101.8809  417.2479  -32.6658 C   0  0  0  0  0  0  0  0  0  0  0  0
 -101.9954  418.2884  -31.8187 N   0  0  0  0  0  0  0  0  0  0  0  0
 -101.0142  416.3084  -32.3173 N   0  0  0  0  0  0  0  0  0  0  0  0
 -100.8653  415.2177  -33.0898 C   0  0  0  0  0  0  0  0  0  0  0  0
  1  2  1  6
  1  3  1  0
  3  4  1  1
  5  4  1  6
  5  6  1  0
  6  7  1  0
  6 16  1  0
  7  8  2  0
  8  9  1  0
  9 10  1  0
  9 16  2  0
 10 11  2  0
 10 12  1  0
 12 13  1  0
 13 14  1  0
 13 15  2  0
 15 16  1  0
M  END
$$$$
