
     RDKit          3D

 44 48  0  0  0  0  0  0  0  0999 V2000
   94.5472   29.3413   23.0357 C   0  0  0  0  0  0  0  0  0  0  0  0
   90.0547   26.9930   24.1823 C   0  0  0  0  0  0  0  0  0  0  0  0
   90.4587   26.9081   22.6971 C   0  0  1  0  0  0  0  0  0  0  0  0
   92.1162   28.6489   22.9442 C   0  0  0  0  0  0  0  0  0  0  0  0
   88.6352   26.3951   24.4841 C   0  0  0  0  0  0  0  0  0  0  0  0
   88.3246   24.9714   23.9189 C   0  0  0  0  0  0  0  0  0  0  0  0
   89.3529   27.4523   21.8403 C   0  0  0  0  0  0  0  0  0  0  0  0
   87.7234   28.6413   21.1288 C   0  0  0  0  0  0  0  0  0  0  0  0
   82.6169   24.2339   17.5339 C   0  0  0  0  0  0  0  0  0  0  0  0
   86.5291   26.7672   19.7660 C   0  0  0  0  0  0  0  0  0  0  0  0
   96.3128   34.0153   21.7740 Cl  0  0  0  0  0  0  0  0  0  0  0  0
   95.6984   32.1793   25.2703 C   0  0  0  0  0  0  0  0  0  0  0  0
   96.0293   33.1322   24.3128 C   0  0  0  0  0  0  0  0  0  0  0  0
   95.8935   32.8218   22.9752 C   0  0  0  0  0  0  0  0  0  0  0  0
   95.4433   31.5819   22.5630 C   0  0  0  0  0  0  0  0  0  0  0  0
   95.1108   30.6098   23.5164 C   0  0  0  0  0  0  0  0  0  0  0  0
   95.2554   30.9177   24.8819 C   0  0  0  0  0  0  0  0  0  0  0  0
   94.9873   29.9378   25.8867 N   0  0  0  0  0  0  0  0  0  0  0  0
   93.8699   29.6156   26.5489 C   0  0  0  0  0  0  0  0  0  0  0  0
   94.1377   28.7104   27.4472 N   0  0  0  0  0  0  0  0  0  0  0  0
   95.4626   28.4494   27.3202 N   0  0  0  0  0  0  0  0  0  0  0  0
   95.9907   29.1836   26.3908 N   0  0  0  0  0  0  0  0  0  0  0  0
   93.4708   28.7456   23.5328 C   0  0  0  0  0  0  0  0  0  0  0  0
   91.3087   29.5878   23.0015 O   0  0  0  0  0  0  0  0  0  0  0  0
   91.7829   27.4558   22.4028 N   0  0  0  0  0  0  0  0  0  0  0  0
   88.8481   28.6693   21.9213 N   0  0  0  0  0  0  0  0  0  0  0  0
   87.5830   27.3931   20.5637 C   0  0  0  0  0  0  0  0  0  0  0  0
   88.6458   26.6664   21.0179 N   0  0  0  0  0  0  0  0  0  0  0  0
   86.0757   27.3954   18.6041 C   0  0  0  0  0  0  0  0  0  0  0  0
   85.1695   26.7647   17.7706 C   0  0  0  0  0  0  0  0  0  0  0  0
   84.6903   25.4934   18.0871 C   0  0  0  0  0  0  0  0  0  0  0  0
   85.1070   24.8762   19.2673 C   0  0  0  0  0  0  0  0  0  0  0  0
   86.0237   25.4975   20.1158 C   0  0  0  0  0  0  0  0  0  0  0  0
   83.8289   24.7676   17.2208 N   0  0  0  0  0  0  0  0  0  0  0  0
   82.2235   23.9567   18.6478 O   0  0  0  0  0  0  0  0  0  0  0  0
   81.8855   24.0786   16.4144 O   0  0  0  0  0  0  0  0  0  0  0  0
   82.6039   23.5896   15.2513 C   0  0  0  0  0  0  0  0  0  0  0  0
   86.8297   24.6233   23.7615 C   0  0  0  0  0  0  0  0  0  0  0  0
   86.1005   25.4207   22.6676 C   0  0  1  0  0  0  0  0  0  0  0  0
   86.4269   24.9205   21.3331 N   0  0  0  0  0  0  0  0  0  0  0  0
   84.5982   25.4341   22.8971 C   0  0  2  0  0  0  0  0  0  0  0  0
   83.9359   26.0750   21.9444 F   0  0  0  0  0  0  0  0  0  0  0  0
   84.2722   26.0286   24.0468 F   0  0  0  0  0  0  0  0  0  0  0  0
   84.0940   24.2110   22.9413 F   0  0  0  0  0  0  0  0  0  0  0  0
  1 16  1  0
  1 23  2  0
  2  3  1  6
  5  2  1  6
  3  7  1  0
  3 25  1  1
  4 23  1  0
  4 24  2  0
  4 25  1  0
  6  5  1  6
 38  6  1  6
  7 26  2  0
  7 28  1  0
  8 26  1  0
  8 27  2  0
  9 34  1  0
  9 35  2  0
  9 36  1  0
 10 27  1  0
 10 29  1  0
 10 33  2  0
 11 14  1  0
 12 13  2  0
 12 17  1  0
 13 14  1  0
 14 15  2  0
 15 16  1  0
 16 17  2  0
 17 18  1  0
 18 19  1  0
 18 22  1  0
 19 20  2  0
 20 21  1  0
 21 22  2  0
 27 28  1  0
 29 30  2  0
 30 31  1  0
 31 32  2  0
 31 34  1  0
 32 33  1  0
 33 40  1  0
 37 36  1  6
 38 39  1  0
 39 40  1  6
 39 41  1  0
 41 42  1  6
 41 43  1  0
 41 44  1  0
M  END
$$$$
