
     RDKit          3D

 44 48  0  0  0  0  0  0  0  0999 V2000
    5.3359   15.0797   -2.3269 C   0  0  0  0  0  0  0  0  0  0  0  0
    9.7340   16.8436   -4.2501 C   0  0  0  0  0  0  0  0  0  0  0  0
    9.1491   17.5893   -3.0343 C   0  0  1  0  0  0  0  0  0  0  0  0
    7.1167   16.3906   -3.5548 C   0  0  0  0  0  0  0  0  0  0  0  0
   11.2551   17.1398   -4.4987 C   0  0  0  0  0  0  0  0  0  0  0  0
   12.2170   17.0152   -3.2729 C   0  0  0  0  0  0  0  0  0  0  0  0
    9.4998   19.0464   -3.1181 C   0  0  0  0  0  0  0  0  0  0  0  0
    9.9065   21.0039   -3.8784 C   0  0  0  0  0  0  0  0  0  0  0  0
   15.7280   23.8130    0.2554 C   0  0  0  0  0  0  0  0  0  0  0  0
   11.6482   21.6967   -2.0668 C   0  0  0  0  0  0  0  0  0  0  0  0
    8.8509   16.4368    1.1886 Cl  0  0  0  0  0  0  0  0  0  0  0  0
    6.1343   13.5098    1.0303 C   0  0  0  0  0  0  0  0  0  0  0  0
    7.1539   14.3510    1.4629 C   0  0  0  0  0  0  0  0  0  0  0  0
    7.5689   15.3843    0.6482 C   0  0  0  0  0  0  0  0  0  0  0  0
    7.0003   15.5993   -0.5929 C   0  0  0  0  0  0  0  0  0  0  0  0
    5.9753   14.7567   -1.0444 C   0  0  0  0  0  0  0  0  0  0  0  0
    5.5538   13.6959   -0.2215 C   0  0  0  0  0  0  0  0  0  0  0  0
    4.5555   12.7753   -0.6661 N   0  0  0  0  0  0  0  0  0  0  0  0
    3.2674   12.9377   -0.9908 C   0  0  0  0  0  0  0  0  0  0  0  0
    2.7308   11.7789   -1.2503 N   0  0  0  0  0  0  0  0  0  0  0  0
    3.7283   10.8720   -1.1012 N   0  0  0  0  0  0  0  0  0  0  0  0
    4.8310   11.4533   -0.7436 N   0  0  0  0  0  0  0  0  0  0  0  0
    5.7359   16.0291   -3.1631 C   0  0  0  0  0  0  0  0  0  0  0  0
    7.6991   15.8296   -4.4945 O   0  0  0  0  0  0  0  0  0  0  0  0
    7.7333   17.3168   -2.7869 N   0  0  0  0  0  0  0  0  0  0  0  0
    9.1884   19.8539   -4.1148 N   0  0  0  0  0  0  0  0  0  0  0  0
   10.6323   20.8688   -2.7157 C   0  0  0  0  0  0  0  0  0  0  0  0
   10.3359   19.6222   -2.2445 N   0  0  0  0  0  0  0  0  0  0  0  0
   11.3766   23.0396   -1.7962 C   0  0  0  0  0  0  0  0  0  0  0  0
   12.2731   23.8076   -1.0750 C   0  0  0  0  0  0  0  0  0  0  0  0
   13.4664   23.2497   -0.6159 C   0  0  0  0  0  0  0  0  0  0  0  0
   13.7639   21.9200   -0.9174 C   0  0  0  0  0  0  0  0  0  0  0  0
   12.8681   21.1315   -1.6399 C   0  0  0  0  0  0  0  0  0  0  0  0
   14.3772   23.9698    0.2033 N   0  0  0  0  0  0  0  0  0  0  0  0
   16.3311   23.0354    0.9653 O   0  0  0  0  0  0  0  0  0  0  0  0
   16.3160   24.6385   -0.6307 O   0  0  0  0  0  0  0  0  0  0  0  0
   15.6306   25.8944   -0.8778 C   0  0  0  0  0  0  0  0  0  0  0  0
   13.5494   17.7852   -3.3844 C   0  0  0  0  0  0  0  0  0  0  0  0
   13.4063   19.3158   -3.3538 C   0  0  1  0  0  0  0  0  0  0  0  0
   13.1603   19.8033   -1.9975 N   0  0  0  0  0  0  0  0  0  0  0  0
   14.6142   19.9998   -3.9727 C   0  0  2  0  0  0  0  0  0  0  0  0
   14.2846   20.9894   -4.7906 F   0  0  0  0  0  0  0  0  0  0  0  0
   15.3578   19.1528   -4.6878 F   0  0  0  0  0  0  0  0  0  0  0  0
   15.4087   20.5263   -3.0542 F   0  0  0  0  0  0  0  0  0  0  0  0
  1 16  1  0
  1 23  2  0
  2  3  1  6
  5  2  1  6
  3  7  1  0
  3 25  1  6
  4 23  1  0
  4 24  2  0
  4 25  1  0
  6  5  1  6
 38  6  1  6
  7 26  2  0
  7 28  1  0
  8 26  1  0
  8 27  2  0
  9 34  1  0
  9 35  2  0
  9 36  1  0
 10 27  1  0
 10 29  1  0
 10 33  2  0
 11 14  1  0
 12 13  2  0
 12 17  1  0
 13 14  1  0
 14 15  2  0
 15 16  1  0
 16 17  2  0
 17 18  1  0
 18 19  1  0
 18 22  1  0
 19 20  2  0
 20 21  1  0
 21 22  2  0
 27 28  1  0
 29 30  2  0
 30 31  1  0
 31 32  2  0
 31 34  1  0
 32 33  1  0
 33 40  1  0
 37 36  1  6
 38 39  1  0
 39 40  1  1
 39 41  1  0
 41 42  1  6
 41 43  1  0
 41 44  1  0
M  END
$$$$
