
     RDKit          3D

 44 48  0  0  0  0  0  0  0  0999 V2000
   88.3983  -22.9955   72.3651 C   0  0  0  0  0  0  0  0  0  0  0  0
   88.9020  -25.7610   74.2620 C   0  0  0  0  0  0  0  0  0  0  0  0
   87.7820  -25.5859   75.3065 C   0  0  1  0  0  0  0  0  0  0  0  0
   87.5742  -23.2453   74.7433 C   0  0  0  0  0  0  0  0  0  0  0  0
   89.1440  -27.2539   73.8420 C   0  0  0  0  0  0  0  0  0  0  0  0
   87.8899  -28.0946   73.4375 C   0  0  0  0  0  0  0  0  0  0  0  0
   88.0049  -26.5319   76.4505 C   0  0  0  0  0  0  0  0  0  0  0  0
   88.9502  -27.7297   77.9495 C   0  0  0  0  0  0  0  0  0  0  0  0
   83.7307  -33.2360   79.1150 C   0  0  0  0  0  0  0  0  0  0  0  0
   87.1783  -29.6411   77.9980 C   0  0  0  0  0  0  0  0  0  0  0  0
   85.7683  -27.0588   70.5964 Cl  0  0  0  0  0  0  0  0  0  0  0  0
   86.6840  -23.5015   69.0218 C   0  0  0  0  0  0  0  0  0  0  0  0
   86.1689  -24.7814   69.1967 C   0  0  0  0  0  0  0  0  0  0  0  0
   86.4104  -25.4515   70.3785 C   0  0  0  0  0  0  0  0  0  0  0  0
   87.1598  -24.8835   71.3913 C   0  0  0  0  0  0  0  0  0  0  0  0
   87.6897  -23.5963   71.2273 C   0  0  0  0  0  0  0  0  0  0  0  0
   87.4538  -22.9115   70.0208 C   0  0  0  0  0  0  0  0  0  0  0  0
   88.0254  -21.6232   69.7853 N   0  0  0  0  0  0  0  0  0  0  0  0
   89.2886  -21.2242   69.5953 C   0  0  0  0  0  0  0  0  0  0  0  0
   89.3306  -19.9244   69.5135 N   0  0  0  0  0  0  0  0  0  0  0  0
   88.0455  -19.5082   69.6359 N   0  0  0  0  0  0  0  0  0  0  0  0
   87.2481  -20.5164   69.8067 N   0  0  0  0  0  0  0  0  0  0  0  0
   88.4588  -23.5102   73.5866 C   0  0  0  0  0  0  0  0  0  0  0  0
   86.9483  -22.1814   74.8592 O   0  0  0  0  0  0  0  0  0  0  0  0
   87.5412  -24.1982   75.7018 N   0  0  0  0  0  0  0  0  0  0  0  0
   89.0854  -26.5786   77.2074 N   0  0  0  0  0  0  0  0  0  0  0  0
   87.7632  -28.3518   77.6316 C   0  0  0  0  0  0  0  0  0  0  0  0
   87.1751  -27.5550   76.6918 N   0  0  0  0  0  0  0  0  0  0  0  0
   87.0516  -29.9852   79.3455 C   0  0  0  0  0  0  0  0  0  0  0  0
   86.3914  -31.1426   79.7174 C   0  0  0  0  0  0  0  0  0  0  0  0
   85.8505  -31.9860   78.7468 C   0  0  0  0  0  0  0  0  0  0  0  0
   86.0086  -31.6702   77.3967 C   0  0  0  0  0  0  0  0  0  0  0  0
   86.6680  -30.5045   77.0060 C   0  0  0  0  0  0  0  0  0  0  0  0
   85.0876  -33.1378   79.0795 N   0  0  0  0  0  0  0  0  0  0  0  0
   83.0878  -34.0305   79.7691 O   0  0  0  0  0  0  0  0  0  0  0  0
   83.1855  -32.2894   78.3282 O   0  0  0  0  0  0  0  0  0  0  0  0
   83.0146  -30.9819   78.9361 C   0  0  0  0  0  0  0  0  0  0  0  0
   88.0480  -29.6262   73.5377 C   0  0  0  0  0  0  0  0  0  0  0  0
   88.1760  -30.1620   74.9732 C   0  0  1  0  0  0  0  0  0  0  0  0
   86.8822  -30.1834   75.6539 N   0  0  0  0  0  0  0  0  0  0  0  0
   88.8328  -31.5323   74.9988 C   0  0  2  0  0  0  0  0  0  0  0  0
   90.1171  -31.4956   74.6728 F   0  0  0  0  0  0  0  0  0  0  0  0
   88.2531  -32.3818   74.1480 F   0  0  0  0  0  0  0  0  0  0  0  0
   88.7702  -32.0882   76.1984 F   0  0  0  0  0  0  0  0  0  0  0  0
  1 16  1  0
  1 23  2  0
  2  3  1  6
  5  2  1  6
  3  7  1  0
  3 25  1  1
  4 23  1  0
  4 24  2  0
  4 25  1  0
  6  5  1  6
 38  6  1  6
  7 26  2  0
  7 28  1  0
  8 26  1  0
  8 27  2  0
  9 34  1  0
  9 35  2  0
  9 36  1  0
 10 27  1  0
 10 29  1  0
 10 33  2  0
 11 14  1  0
 12 13  2  0
 12 17  1  0
 13 14  1  0
 14 15  2  0
 15 16  1  0
 16 17  2  0
 17 18  1  0
 18 19  1  0
 18 22  1  0
 19 20  2  0
 20 21  1  0
 21 22  2  0
 27 28  1  0
 29 30  2  0
 30 31  1  0
 31 32  2  0
 31 34  1  0
 32 33  1  0
 33 40  1  0
 37 36  1  6
 38 39  1  0
 39 40  1  6
 39 41  1  0
 41 42  1  6
 41 43  1  0
 41 44  1  0
M  END
$$$$
