
     RDKit          3D

 44 48  0  0  0  0  0  0  0  0999 V2000
   -5.2772 -103.5424   55.8205 C   0  0  0  0  0  0  0  0  0  0  0  0
    0.1486 -101.7047   56.3681 C   0  0  0  0  0  0  0  0  0  0  0  0
   -1.0997 -102.4700   56.8501 C   0  0  1  0  0  0  0  0  0  0  0  0
   -3.2592 -102.0182   55.8648 C   0  0  0  0  0  0  0  0  0  0  0  0
    1.4677 -102.5536   56.4217 C   0  0  0  0  0  0  0  0  0  0  0  0
    1.4263 -103.9795   55.7827 C   0  0  0  0  0  0  0  0  0  0  0  0
   -0.8186 -103.1105   58.1783 C   0  0  0  0  0  0  0  0  0  0  0  0
   -0.0762 -103.4665   60.1524 C   0  0  0  0  0  0  0  0  0  0  0  0
    0.5678 -110.7220   62.1807 C   0  0  0  0  0  0  0  0  0  0  0  0
    0.0834 -106.0622   59.9725 C   0  0  0  0  0  0  0  0  0  0  0  0
  -10.3568 -102.8630   56.3608 Cl  0  0  0  0  0  0  0  0  0  0  0  0
   -7.3756 -103.3721   58.9734 C   0  0  0  0  0  0  0  0  0  0  0  0
   -8.6392 -103.1873   58.4224 C   0  0  0  0  0  0  0  0  0  0  0  0
   -8.7726 -103.0994   57.0519 C   0  0  0  0  0  0  0  0  0  0  0  0
   -7.6781 -103.1829   56.2122 C   0  0  0  0  0  0  0  0  0  0  0  0
   -6.3979 -103.3640   56.7533 C   0  0  0  0  0  0  0  0  0  0  0  0
   -6.2546 -103.4457   58.1508 C   0  0  0  0  0  0  0  0  0  0  0  0
   -4.9629 -103.5684   58.7493 N   0  0  0  0  0  0  0  0  0  0  0  0
   -4.2549 -104.6338   59.1429 C   0  0  0  0  0  0  0  0  0  0  0  0
   -3.1576 -104.2406   59.7253 N   0  0  0  0  0  0  0  0  0  0  0  0
   -3.1791 -102.8855   59.6701 N   0  0  0  0  0  0  0  0  0  0  0  0
   -4.2609 -102.4642   59.0923 N   0  0  0  0  0  0  0  0  0  0  0  0
   -4.0062 -103.2756   56.0922 C   0  0  0  0  0  0  0  0  0  0  0  0
   -3.4225 -101.3349   54.8433 O   0  0  0  0  0  0  0  0  0  0  0  0
   -2.3377 -101.6924   56.7989 N   0  0  0  0  0  0  0  0  0  0  0  0
   -0.4435 -102.4743   59.2724 N   0  0  0  0  0  0  0  0  0  0  0  0
   -0.2583 -104.6995   59.5664 C   0  0  0  0  0  0  0  0  0  0  0  0
   -0.7515 -104.4406   58.3199 N   0  0  0  0  0  0  0  0  0  0  0  0
   -0.3370 -106.5394   61.2159 C   0  0  0  0  0  0  0  0  0  0  0  0
   -0.1316 -107.8611   61.5687 C   0  0  0  0  0  0  0  0  0  0  0  0
    0.5076 -108.7328   60.6870 C   0  0  0  0  0  0  0  0  0  0  0  0
    0.9672 -108.2538   59.4595 C   0  0  0  0  0  0  0  0  0  0  0  0
    0.7637 -106.9247   59.0875 C   0  0  0  0  0  0  0  0  0  0  0  0
    0.6626 -110.1177   60.9650 N   0  0  0  0  0  0  0  0  0  0  0  0
   -0.2517 -110.4744   63.0406 O   0  0  0  0  0  0  0  0  0  0  0  0
    1.5126 -111.6748   62.2899 O   0  0  0  0  0  0  0  0  0  0  0  0
    1.6611 -112.5537   61.1438 C   0  0  0  0  0  0  0  0  0  0  0  0
    2.4991 -104.9699   56.2817 C   0  0  0  0  0  0  0  0  0  0  0  0
    2.3255 -105.4158   57.7429 C   0  0  1  0  0  0  0  0  0  0  0  0
    1.2551 -106.4026   57.8778 N   0  0  0  0  0  0  0  0  0  0  0  0
    3.6296 -105.9371   58.3238 C   0  0  2  0  0  0  0  0  0  0  0  0
    4.4676 -104.9678   58.6635 F   0  0  0  0  0  0  0  0  0  0  0  0
    4.2860 -106.7167   57.4619 F   0  0  0  0  0  0  0  0  0  0  0  0
    3.4312 -106.6563   59.4172 F   0  0  0  0  0  0  0  0  0  0  0  0
  1 16  1  0
  1 23  2  0
  2  3  1  6
  5  2  1  6
  3  7  1  0
  3 25  1  1
  4 23  1  0
  4 24  2  0
  4 25  1  0
  6  5  1  6
 38  6  1  6
  7 26  2  0
  7 28  1  0
  8 26  1  0
  8 27  2  0
  9 34  1  0
  9 35  2  0
  9 36  1  0
 10 27  1  0
 10 29  1  0
 10 33  2  0
 11 14  1  0
 12 13  2  0
 12 17  1  0
 13 14  1  0
 14 15  2  0
 15 16  1  0
 16 17  2  0
 17 18  1  0
 18 19  1  0
 18 22  1  0
 19 20  2  0
 20 21  1  0
 21 22  2  0
 27 28  1  0
 29 30  2  0
 30 31  1  0
 31 32  2  0
 31 34  1  0
 32 33  1  0
 33 40  1  0
 37 36  1  6
 38 39  1  0
 39 40  1  6
 39 41  1  0
 41 42  1  1
 41 43  1  0
 41 44  1  0
M  END
$$$$
