
     RDKit          3D

 44 48  0  0  0  0  0  0  0  0999 V2000
-32009.572347100.668027622.0059 C   0  0  0  0  0  0  0  0  0  0  0  0
-32006.142647100.183627620.0156 C   0  0  0  0  0  0  0  0  0  0  0  0
-32007.148447099.921927621.1523 C   0  0  1  0  0  0  0  0  0  0  0  0
-32008.837947098.269527621.6875 C   0  0  0  0  0  0  0  0  0  0  0  0
-32005.693447101.679727619.9004 C   0  0  0  0  0  0  0  0  0  0  0  0
-32005.216847102.378927621.2129 C   0  0  0  0  0  0  0  0  0  0  0  0
-32008.275447100.910227621.0742 C   0  0  0  0  0  0  0  0  0  0  0  0
-32009.779347102.230527620.3125 C   0  0  0  0  0  0  0  0  0  0  0  0
-32011.244147108.418027624.4316 C   0  0  0  0  0  0  0  0  0  0  0  0
-32009.705147103.957027622.2637 C   0  0  0  0  0  0  0  0  0  0  0  0
-32006.335947104.429727620.5977 Cl  0  0  0  0  0  0  0  0  0  0  0  0
-32007.832047101.265627618.6777 C   0  0  0  0  0  0  0  0  0  0  0  0
-32007.115247102.414127618.9785 C   0  0  0  0  0  0  0  0  0  0  0  0
-32007.234447102.988327620.2363 C   0  0  0  0  0  0  0  0  0  0  0  0
-32008.044947102.433627621.1992 C   0  0  0  0  0  0  0  0  0  0  0  0
-32008.781247101.257827620.9160 C   0  0  0  0  0  0  0  0  0  0  0  0
-32008.671947100.687527619.6328 C   0  0  0  0  0  0  0  0  0  0  0  0
-32009.445347099.535227619.2812 N   0  0  0  0  0  0  0  0  0  0  0  0
-32010.343847099.324227618.3164 C   0  0  0  0  0  0  0  0  0  0  0  0
-32010.863347098.140627618.4473 N   0  0  0  0  0  0  0  0  0  0  0  0
-32010.250047097.585927619.5293 N   0  0  0  0  0  0  0  0  0  0  0  0
-32009.398447098.429727620.0469 N   0  0  0  0  0  0  0  0  0  0  0  0
-32009.541047099.390627622.3535 C   0  0  0  0  0  0  0  0  0  0  0  0
-32009.345747097.152327621.5781 O   0  0  0  0  0  0  0  0  0  0  0  0
-32007.574247098.527327621.2715 N   0  0  0  0  0  0  0  0  0  0  0  0
-32009.072347101.089827620.0312 N   0  0  0  0  0  0  0  0  0  0  0  0
-32009.394547102.730527621.5391 C   0  0  0  0  0  0  0  0  0  0  0  0
-32008.455147101.851627622.0059 N   0  0  0  0  0  0  0  0  0  0  0  0
-32011.041047104.324227622.4824 C   0  0  0  0  0  0  0  0  0  0  0  0
-32011.349647105.414127623.2656 C   0  0  0  0  0  0  0  0  0  0  0  0
-32010.328147106.168027623.8496 C   0  0  0  0  0  0  0  0  0  0  0  0
-32008.996147105.847727623.6016 C   0  0  0  0  0  0  0  0  0  0  0  0
-32008.668047104.746127622.8164 C   0  0  0  0  0  0  0  0  0  0  0  0
-32010.601647107.246127624.7363 N   0  0  0  0  0  0  0  0  0  0  0  0
-32012.009847109.015627625.1562 O   0  0  0  0  0  0  0  0  0  0  0  0
-32010.882847108.824227623.2031 O   0  0  0  0  0  0  0  0  0  0  0  0
-32011.531247108.168027622.0898 C   0  0  0  0  0  0  0  0  0  0  0  0
-32005.281247103.921927621.2109 C   0  0  0  0  0  0  0  0  0  0  0  0
-32006.705147104.503927621.1973 C   0  0  1  0  0  0  0  0  0  0  0  0
-32007.334047104.418027622.5156 N   0  0  0  0  0  0  0  0  0  0  0  0
-32006.716847105.929727620.6797 C   0  0  2  0  0  0  0  0  0  0  0  0
-32007.890647106.289127620.1621 F   0  0  0  0  0  0  0  0  0  0  0  0
-32005.810547106.125027619.7266 F   0  0  0  0  0  0  0  0  0  0  0  0
-32006.460947106.804727621.6387 F   0  0  0  0  0  0  0  0  0  0  0  0
  1 16  1  0
  1 23  2  0
  2  3  1  6
  5  2  1  6
  3  7  1  0
  3 25  1  6
  4 23  1  0
  4 24  2  0
  4 25  1  0
  6  5  1  6
 38  6  1  6
  7 26  2  0
  7 28  1  0
  8 26  1  0
  8 27  2  0
  9 34  1  0
  9 35  2  0
  9 36  1  0
 10 27  1  0
 10 29  1  0
 10 33  2  0
 11 14  1  0
 12 13  2  0
 12 17  1  0
 13 14  1  0
 14 15  2  0
 15 16  1  0
 16 17  2  0
 17 18  1  0
 18 19  1  0
 18 22  1  0
 19 20  2  0
 20 21  1  0
 21 22  2  0
 27 28  1  0
 29 30  2  0
 30 31  1  0
 31 32  2  0
 31 34  1  0
 32 33  1  0
 33 40  1  0
 37 36  1  6
 38 39  1  0
 39 40  1  1
 39 41  1  0
 41 42  1  6
 41 43  1  0
 41 44  1  0
M  END
$$$$
