
     RDKit          3D

 44 48  0  0  0  0  0  0  0  0999 V2000
 1045.7036  768.5869 -228.7549 C   0  0  0  0  0  0  0  0  0  0  0  0
 1050.5498  769.6220 -231.1505 C   0  0  0  0  0  0  0  0  0  0  0  0
 1049.8186  769.6042 -229.7935 C   0  0  1  0  0  0  0  0  0  0  0  0
 1048.2086  768.3248 -228.5251 C   0  0  0  0  0  0  0  0  0  0  0  0
 1051.7777  770.5983 -231.1917 C   0  0  0  0  0  0  0  0  0  0  0  0
 1052.8098  770.4984 -230.0218 C   0  0  0  0  0  0  0  0  0  0  0  0
 1049.5178  771.0104 -229.3625 C   0  0  0  0  0  0  0  0  0  0  0  0
 1048.9972  773.0848 -229.3967 C   0  0  0  0  0  0  0  0  0  0  0  0
 1052.2526  777.4953 -224.1724 C   0  0  0  0  0  0  0  0  0  0  0  0
 1050.4443  773.8127 -227.3544 C   0  0  0  0  0  0  0  0  0  0  0  0
 1042.2695  765.1318 -230.4353 Cl  0  0  0  0  0  0  0  0  0  0  0  0
 1046.0004  766.0374 -231.5451 C   0  0  0  0  0  0  0  0  0  0  0  0
 1044.7426  765.4477 -231.4793 C   0  0  0  0  0  0  0  0  0  0  0  0
 1043.8453  765.8745 -230.5213 C   0  0  0  0  0  0  0  0  0  0  0  0
 1044.1702  766.8694 -229.6190 C   0  0  0  0  0  0  0  0  0  0  0  0
 1045.4360  767.4694 -229.6700 C   0  0  0  0  0  0  0  0  0  0  0  0
 1046.3579  767.0328 -230.6393 C   0  0  0  0  0  0  0  0  0  0  0  0
 1047.6801  767.5722 -230.6891 N   0  0  0  0  0  0  0  0  0  0  0  0
 1048.6599  767.6284 -229.7793 C   0  0  0  0  0  0  0  0  0  0  0  0
 1049.6642  768.3075 -230.2573 N   0  0  0  0  0  0  0  0  0  0  0  0
 1049.2996  768.6646 -231.5139 N   0  0  0  0  0  0  0  0  0  0  0  0
 1048.1066  768.2363 -231.7876 N   0  0  0  0  0  0  0  0  0  0  0  0
 1046.8649  768.8268 -228.1603 C   0  0  0  0  0  0  0  0  0  0  0  0
 1048.8951  767.6577 -227.7368 O   0  0  0  0  0  0  0  0  0  0  0  0
 1048.6757  768.6929 -229.7391 N   0  0  0  0  0  0  0  0  0  0  0  0
 1048.8085  771.8873 -230.0482 N   0  0  0  0  0  0  0  0  0  0  0  0
 1049.8145  772.8965 -228.3041 C   0  0  0  0  0  0  0  0  0  0  0  0
 1050.1111  771.5639 -228.2970 N   0  0  0  0  0  0  0  0  0  0  0  0
 1049.6611  774.7421 -226.6666 C   0  0  0  0  0  0  0  0  0  0  0  0
 1050.2146  775.5336 -225.6763 C   0  0  0  0  0  0  0  0  0  0  0  0
 1051.5677  775.4177 -225.3582 C   0  0  0  0  0  0  0  0  0  0  0  0
 1052.3665  774.5205 -226.0689 C   0  0  0  0  0  0  0  0  0  0  0  0
 1051.8219  773.7126 -227.0674 C   0  0  0  0  0  0  0  0  0  0  0  0
 1052.1635  776.1427 -224.2908 N   0  0  0  0  0  0  0  0  0  0  0  0
 1053.1874  778.1122 -223.7056 O   0  0  0  0  0  0  0  0  0  0  0  0
 1051.1476  778.0705 -224.6827 O   0  0  0  0  0  0  0  0  0  0  0  0
 1050.4667  779.0143 -223.8145 C   0  0  0  0  0  0  0  0  0  0  0  0
 1053.6812  771.7500 -229.7868 C   0  0  0  0  0  0  0  0  0  0  0  0
 1052.9139  772.9711 -229.2541 C   0  0  1  0  0  0  0  0  0  0  0  0
 1052.6100  772.8328 -227.8306 N   0  0  0  0  0  0  0  0  0  0  0  0
 1053.6631  774.2636 -229.5326 C   0  0  2  0  0  0  0  0  0  0  0  0
 1052.8727  775.2363 -229.9648 F   0  0  0  0  0  0  0  0  0  0  0  0
 1054.6071  774.1050 -230.4630 F   0  0  0  0  0  0  0  0  0  0  0  0
 1054.2662  774.7289 -228.4499 F   0  0  0  0  0  0  0  0  0  0  0  0
  1 16  1  0
  1 23  2  0
  2  3  1  6
  5  2  1  6
  3  7  1  0
  3 25  1  6
  4 23  1  0
  4 24  2  0
  4 25  1  0
  6  5  1  6
 38  6  1  6
  7 26  2  0
  7 28  1  0
  8 26  1  0
  8 27  2  0
  9 34  1  0
  9 35  2  0
  9 36  1  0
 10 27  1  0
 10 29  1  0
 10 33  2  0
 11 14  1  0
 12 13  2  0
 12 17  1  0
 13 14  1  0
 14 15  2  0
 15 16  1  0
 16 17  2  0
 17 18  1  0
 18 19  1  0
 18 22  1  0
 19 20  2  0
 20 21  1  0
 21 22  2  0
 27 28  1  0
 29 30  2  0
 30 31  1  0
 31 32  2  0
 31 34  1  0
 32 33  1  0
 33 40  1  0
 37 36  1  6
 38 39  1  0
 39 40  1  1
 39 41  1  0
 41 42  1  6
 41 43  1  0
 41 44  1  0
M  END
$$$$
