
     RDKit          3D

 44 48  0  0  0  0  0  0  0  0999 V2000
-47799.453159698.0117-9978.3701 C   0  0  0  0  0  0  0  0  0  0  0  0
-47797.418059694.5273-9978.0293 C   0  0  0  0  0  0  0  0  0  0  0  0
-47797.738359694.5078-9976.5244 C   0  0  1  0  0  0  0  0  0  0  0  0
-47798.543059696.7773-9976.3545 C   0  0  0  0  0  0  0  0  0  0  0  0
-47796.312559693.4961-9978.4551 C   0  0  0  0  0  0  0  0  0  0  0  0
-47796.496159692.0195-9977.9629 C   0  0  0  0  0  0  0  0  0  0  0  0
-47796.468859694.5742-9975.7266 C   0  0  0  0  0  0  0  0  0  0  0  0
-47794.496159695.0781-9975.0879 C   0  0  0  0  0  0  0  0  0  0  0  0
-47790.703159689.5078-9971.5908 C   0  0  0  0  0  0  0  0  0  0  0  0
-47793.964859692.8203-9973.8828 C   0  0  0  0  0  0  0  0  0  0  0  0
-47802.144559700.5312-9981.9531 Cl  0  0  0  0  0  0  0  0  0  0  0  0
-47800.648459701.5898-9978.3994 C   0  0  0  0  0  0  0  0  0  0  0  0
-47801.308659701.6367-9979.6260 C   0  0  0  0  0  0  0  0  0  0  0  0
-47801.328159700.5000-9980.4199 C   0  0  0  0  0  0  0  0  0  0  0  0
-47800.703159699.3398-9980.0215 C   0  0  0  0  0  0  0  0  0  0  0  0
-47800.015659699.2930-9978.7920 C   0  0  0  0  0  0  0  0  0  0  0  0
-47799.996159700.4453-9977.9873 C   0  0  0  0  0  0  0  0  0  0  0  0
-47799.281259700.4609-9976.7529 N   0  0  0  0  0  0  0  0  0  0  0  0
-47798.207059701.1328-9976.3564 C   0  0  0  0  0  0  0  0  0  0  0  0
-47797.847759700.7578-9975.1631 N   0  0  0  0  0  0  0  0  0  0  0  0
-47798.738359699.8242-9974.8115 N   0  0  0  0  0  0  0  0  0  0  0  0
-47799.609459699.6289-9975.7588 N   0  0  0  0  0  0  0  0  0  0  0  0
-47799.570359697.4648-9977.1650 C   0  0  0  0  0  0  0  0  0  0  0  0
-47797.527359697.3398-9975.9658 O   0  0  0  0  0  0  0  0  0  0  0  0
-47798.765659695.4531-9976.1162 N   0  0  0  0  0  0  0  0  0  0  0  0
-47795.570359695.5352-9975.7969 N   0  0  0  0  0  0  0  0  0  0  0  0
-47794.773459693.8320-9974.5801 C   0  0  0  0  0  0  0  0  0  0  0  0
-47796.039159693.5391-9974.9883 N   0  0  0  0  0  0  0  0  0  0  0  0
-47793.261759693.1953-9972.7334 C   0  0  0  0  0  0  0  0  0  0  0  0
-47792.585959692.2344-9971.9902 C   0  0  0  0  0  0  0  0  0  0  0  0
-47792.593859690.9023-9972.3857 C   0  0  0  0  0  0  0  0  0  0  0  0
-47793.273459690.5352-9973.5596 C   0  0  0  0  0  0  0  0  0  0  0  0
-47793.949259691.4883-9974.3145 C   0  0  0  0  0  0  0  0  0  0  0  0
-47792.007859689.8711-9971.6123 N   0  0  0  0  0  0  0  0  0  0  0  0
-47790.218859688.5039-9972.0566 O   0  0  0  0  0  0  0  0  0  0  0  0
-47789.976659690.4844-9970.9990 O   0  0  0  0  0  0  0  0  0  0  0  0
-47790.308659690.7695-9969.6162 C   0  0  0  0  0  0  0  0  0  0  0  0
-47795.207059691.1641-9977.9258 C   0  0  0  0  0  0  0  0  0  0  0  0
-47794.199259691.5938-9976.8574 C   0  0  1  0  0  0  0  0  0  0  0  0
-47794.597759691.1680-9975.5215 N   0  0  0  0  0  0  0  0  0  0  0  0
-47792.785259691.0938-9977.1914 C   0  0  2  0  0  0  0  0  0  0  0  0
-47791.843859691.8789-9976.7090 F   0  0  0  0  0  0  0  0  0  0  0  0
-47792.585959691.0234-9978.5088 F   0  0  0  0  0  0  0  0  0  0  0  0
-47792.570359689.8906-9976.6982 F   0  0  0  0  0  0  0  0  0  0  0  0
  1 16  1  0
  1 23  2  0
  2  3  1  6
  5  2  1  6
  3  7  1  0
  3 25  1  1
  4 23  1  0
  4 24  2  0
  4 25  1  0
  6  5  1  6
 38  6  1  6
  7 26  2  0
  7 28  1  0
  8 26  1  0
  8 27  2  0
  9 34  1  0
  9 35  2  0
  9 36  1  0
 10 27  1  0
 10 29  1  0
 10 33  2  0
 11 14  1  0
 12 13  2  0
 12 17  1  0
 13 14  1  0
 14 15  2  0
 15 16  1  0
 16 17  2  0
 17 18  1  0
 18 19  1  0
 18 22  1  0
 19 20  2  0
 20 21  1  0
 21 22  2  0
 27 28  1  0
 29 30  2  0
 30 31  1  0
 31 32  2  0
 31 34  1  0
 32 33  1  0
 33 40  1  0
 37 36  1  6
 38 39  1  0
 39 40  1  1
 39 41  1  0
 41 42  1  1
 41 43  1  0
 41 44  1  0
M  END
$$$$
