
     RDKit          3D

 44 48  0  0  0  0  0  0  0  0999 V2000
   10.5576  117.1116    4.5011 C   0  0  0  0  0  0  0  0  0  0  0  0
   10.4304  112.3638    6.6508 C   0  0  0  0  0  0  0  0  0  0  0  0
   11.1440  113.7043    6.9154 C   0  0  1  0  0  0  0  0  0  0  0  0
   12.1274  115.5997    5.7845 C   0  0  0  0  0  0  0  0  0  0  0  0
   10.3118  111.4515    7.9225 C   0  0  0  0  0  0  0  0  0  0  0  0
    9.7577  112.1118    9.2263 C   0  0  0  0  0  0  0  0  0  0  0  0
   12.4389  113.4550    7.6325 C   0  0  0  0  0  0  0  0  0  0  0  0
   14.2824  112.5712    8.2615 C   0  0  0  0  0  0  0  0  0  0  0  0
   16.3051  113.6424   15.4757 C   0  0  0  0  0  0  0  0  0  0  0  0
   14.2053  113.3927   10.7343 C   0  0  0  0  0  0  0  0  0  0  0  0
   12.2336  121.1274    1.7408 Cl  0  0  0  0  0  0  0  0  0  0  0  0
    8.6293  120.0580    3.0963 C   0  0  0  0  0  0  0  0  0  0  0  0
    9.6567  120.7499    2.4639 C   0  0  0  0  0  0  0  0  0  0  0  0
   10.9440  120.2574    2.5301 C   0  0  0  0  0  0  0  0  0  0  0  0
   11.2389  119.0953    3.2175 C   0  0  0  0  0  0  0  0  0  0  0  0
   10.2146  118.3899    3.8640 C   0  0  0  0  0  0  0  0  0  0  0  0
    8.9012  118.8919    3.8071 C   0  0  0  0  0  0  0  0  0  0  0  0
    7.8366  118.2401    4.5022 N   0  0  0  0  0  0  0  0  0  0  0  0
    7.4328  118.2942    5.7770 C   0  0  0  0  0  0  0  0  0  0  0  0
    6.4651  117.4426    5.9674 N   0  0  0  0  0  0  0  0  0  0  0  0
    6.2499  116.8578    4.7626 N   0  0  0  0  0  0  0  0  0  0  0  0
    7.0704  117.3209    3.8716 N   0  0  0  0  0  0  0  0  0  0  0  0
   11.6622  116.8763    5.1975 C   0  0  0  0  0  0  0  0  0  0  0  0
   13.2751  115.4650    6.2336 O   0  0  0  0  0  0  0  0  0  0  0  0
   11.2553  114.5676    5.7397 N   0  0  0  0  0  0  0  0  0  0  0  0
   13.4260  112.6975    7.1917 N   0  0  0  0  0  0  0  0  0  0  0  0
   13.7940  113.2821    9.3353 C   0  0  0  0  0  0  0  0  0  0  0  0
   12.6322  113.8501    8.8975 N   0  0  0  0  0  0  0  0  0  0  0  0
   15.5219  113.7420   11.0426 C   0  0  0  0  0  0  0  0  0  0  0  0
   15.9007  113.9718   12.3531 C   0  0  0  0  0  0  0  0  0  0  0  0
   14.9708  113.8485   13.3856 C   0  0  0  0  0  0  0  0  0  0  0  0
   13.6635  113.4599   13.0900 C   0  0  0  0  0  0  0  0  0  0  0  0
   13.2651  113.2288   11.7731 C   0  0  0  0  0  0  0  0  0  0  0  0
   15.2871  114.1599   14.7355 N   0  0  0  0  0  0  0  0  0  0  0  0
   16.4012  112.4942   15.8562 O   0  0  0  0  0  0  0  0  0  0  0  0
   17.2273  114.5949   15.7091 O   0  0  0  0  0  0  0  0  0  0  0  0
   17.4607  115.5302   14.6233 C   0  0  0  0  0  0  0  0  0  0  0  0
   10.1247  111.4019   10.5462 C   0  0  0  0  0  0  0  0  0  0  0  0
   11.6146  111.4768   10.9184 C   0  0  1  0  0  0  0  0  0  0  0  0
   11.9681  112.7925   11.4493 N   0  0  0  0  0  0  0  0  0  0  0  0
   12.0023  110.3715   11.8867 C   0  0  2  0  0  0  0  0  0  0  0  0
   11.6573  109.1653   11.4586 F   0  0  0  0  0  0  0  0  0  0  0  0
   11.4254  110.5259   13.0804 F   0  0  0  0  0  0  0  0  0  0  0  0
   13.3089  110.3320   12.0944 F   0  0  0  0  0  0  0  0  0  0  0  0
  1 16  1  0
  1 23  2  0
  2  3  1  6
  5  2  1  6
  3  7  1  0
  3 25  1  6
  4 23  1  0
  4 24  2  0
  4 25  1  0
  6  5  1  6
 38  6  1  6
  7 26  2  0
  7 28  1  0
  8 26  1  0
  8 27  2  0
  9 34  1  0
  9 35  2  0
  9 36  1  0
 10 27  1  0
 10 29  1  0
 10 33  2  0
 11 14  1  0
 12 13  2  0
 12 17  1  0
 13 14  1  0
 14 15  2  0
 15 16  1  0
 16 17  2  0
 17 18  1  0
 18 19  1  0
 18 22  1  0
 19 20  2  0
 20 21  1  0
 21 22  2  0
 27 28  1  0
 29 30  2  0
 30 31  1  0
 31 32  2  0
 31 34  1  0
 32 33  1  0
 33 40  1  0
 37 36  1  6
 38 39  1  0
 39 40  1  1
 39 41  1  0
 41 42  1  6
 41 43  1  0
 41 44  1  0
M  END
$$$$
