
     RDKit          3D

 44 48  0  0  0  0  0  0  0  0999 V2000
   57.2115    2.1255    4.2518 C   0  0  0  0  0  0  0  0  0  0  0  0
   52.5776    1.9477    3.7394 C   0  0  0  0  0  0  0  0  0  0  0  0
   52.9223    3.3618    4.2470 C   0  0  1  0  0  0  0  0  0  0  0  0
   54.8876    2.3516    5.2245 C   0  0  0  0  0  0  0  0  0  0  0  0
   51.3794    1.9168    2.7260 C   0  0  0  0  0  0  0  0  0  0  0  0
   51.4275    2.9241    1.5318 C   0  0  0  0  0  0  0  0  0  0  0  0
   51.6750    4.0443    4.7282 C   0  0  0  0  0  0  0  0  0  0  0  0
   49.7605    4.4040    5.6118 C   0  0  0  0  0  0  0  0  0  0  0  0
   45.5487    9.8843    2.5246 C   0  0  0  0  0  0  0  0  0  0  0  0
   49.0386    6.3491    4.0335 C   0  0  0  0  0  0  0  0  0  0  0  0
   60.0917    0.1041    8.0166 Cl  0  0  0  0  0  0  0  0  0  0  0  0
   60.7597    0.7951    4.1374 C   0  0  0  0  0  0  0  0  0  0  0  0
   60.9206    0.3996    5.4610 C   0  0  0  0  0  0  0  0  0  0  0  0
   59.8884    0.5959    6.3553 C   0  0  0  0  0  0  0  0  0  0  0  0
   58.6991    1.1843    5.9687 C   0  0  0  0  0  0  0  0  0  0  0  0
   58.5243    1.5926    4.6393 C   0  0  0  0  0  0  0  0  0  0  0  0
   59.5768    1.4028    3.7247 C   0  0  0  0  0  0  0  0  0  0  0  0
   59.4664    1.8590    2.3752 N   0  0  0  0  0  0  0  0  0  0  0  0
   58.6219    1.5396    1.3873 C   0  0  0  0  0  0  0  0  0  0  0  0
   58.9738    2.1538    0.2933 N   0  0  0  0  0  0  0  0  0  0  0  0
   60.0609    2.8949    0.6231 N   0  0  0  0  0  0  0  0  0  0  0  0
   60.3749    2.7244    1.8698 N   0  0  0  0  0  0  0  0  0  0  0  0
   56.3280    2.6620    5.0838 C   0  0  0  0  0  0  0  0  0  0  0  0
   54.4738    1.1859    5.3068 O   0  0  0  0  0  0  0  0  0  0  0  0
   54.0421    3.4058    5.1873 N   0  0  0  0  0  0  0  0  0  0  0  0
   50.8732    3.5968    5.6766 N   0  0  0  0  0  0  0  0  0  0  0  0
   49.9266    5.3472    4.6219 C   0  0  0  0  0  0  0  0  0  0  0  0
   51.1621    5.1061    4.0933 N   0  0  0  0  0  0  0  0  0  0  0  0
   48.3845    7.2647    4.8606 C   0  0  0  0  0  0  0  0  0  0  0  0
   47.6385    8.2956    4.3180 C   0  0  0  0  0  0  0  0  0  0  0  0
   47.5238    8.4274    2.9341 C   0  0  0  0  0  0  0  0  0  0  0  0
   48.1406    7.4926    2.1014 C   0  0  0  0  0  0  0  0  0  0  0  0
   48.8998    6.4501    2.6333 C   0  0  0  0  0  0  0  0  0  0  0  0
   46.8445    9.5181    2.3274 N   0  0  0  0  0  0  0  0  0  0  0  0
   45.1628   10.8086    3.2094 O   0  0  0  0  0  0  0  0  0  0  0  0
   44.7357    9.0788    1.8157 O   0  0  0  0  0  0  0  0  0  0  0  0
   43.4084    9.6003    1.5426 C   0  0  0  0  0  0  0  0  0  0  0  0
   50.0704    3.2502    0.8739 C   0  0  0  0  0  0  0  0  0  0  0  0
   49.1092    4.0587    1.7608 C   0  0  1  0  0  0  0  0  0  0  0  0
   49.4946    5.4678    1.8217 N   0  0  0  0  0  0  0  0  0  0  0  0
   47.6678    3.9027    1.3049 C   0  0  2  0  0  0  0  0  0  0  0  0
   47.3810    2.6697    0.9118 F   0  0  0  0  0  0  0  0  0  0  0  0
   47.3783    4.7022    0.2760 F   0  0  0  0  0  0  0  0  0  0  0  0
   46.8099    4.1936    2.2699 F   0  0  0  0  0  0  0  0  0  0  0  0
  1 16  1  0
  1 23  2  0
  2  3  1  6
  5  2  1  6
  3  7  1  0
  3 25  1  1
  4 23  1  0
  4 24  2  0
  4 25  1  0
  6  5  1  6
 38  6  1  6
  7 26  2  0
  7 28  1  0
  8 26  1  0
  8 27  2  0
  9 34  1  0
  9 35  2  0
  9 36  1  0
 10 27  1  0
 10 29  1  0
 10 33  2  0
 11 14  1  0
 12 13  2  0
 12 17  1  0
 13 14  1  0
 14 15  2  0
 15 16  1  0
 16 17  2  0
 17 18  1  0
 18 19  1  0
 18 22  1  0
 19 20  2  0
 20 21  1  0
 21 22  2  0
 27 28  1  0
 29 30  2  0
 30 31  1  0
 31 32  2  0
 31 34  1  0
 32 33  1  0
 33 40  1  0
 37 36  1  6
 38 39  1  0
 39 40  1  6
 39 41  1  0
 41 42  1  6
 41 43  1  0
 41 44  1  0
M  END
$$$$
