
     RDKit          3D

 44 48  0  0  0  0  0  0  0  0999 V2000
   62.8454   28.8750  -34.9375 C   0  0  0  0  0  0  0  0  0  0  0  0
   61.6405   32.0311  -31.6006 C   0  0  0  0  0  0  0  0  0  0  0  0
   61.5684   30.9448  -32.6920 C   0  0  1  0  0  0  0  0  0  0  0  0
   61.1232   30.7236  -35.0566 C   0  0  0  0  0  0  0  0  0  0  0  0
   61.5468   31.4639  -30.1401 C   0  0  0  0  0  0  0  0  0  0  0  0
   62.4849   30.2678  -29.7765 C   0  0  0  0  0  0  0  0  0  0  0  0
   60.3885   30.0519  -32.4395 C   0  0  0  0  0  0  0  0  0  0  0  0
   58.4446   29.3515  -31.8863 C   0  0  0  0  0  0  0  0  0  0  0  0
   59.8160   21.9823  -30.2326 C   0  0  0  0  0  0  0  0  0  0  0  0
   59.1684   26.9674  -31.1195 C   0  0  0  0  0  0  0  0  0  0  0  0
   66.4030   25.1793  -34.4468 Cl  0  0  0  0  0  0  0  0  0  0  0  0
   63.3947   25.7516  -37.0148 C   0  0  0  0  0  0  0  0  0  0  0  0
   64.4878   25.2014  -36.3539 C   0  0  0  0  0  0  0  0  0  0  0  0
   65.0291   25.8668  -35.2731 C   0  0  0  0  0  0  0  0  0  0  0  0
   64.5153   27.0728  -34.8354 C   0  0  0  0  0  0  0  0  0  0  0  0
   63.4171   27.6419  -35.4946 C   0  0  0  0  0  0  0  0  0  0  0  0
   62.8662   26.9721  -36.6028 C   0  0  0  0  0  0  0  0  0  0  0  0
   61.7861   27.5446  -37.3427 N   0  0  0  0  0  0  0  0  0  0  0  0
   61.1029   28.6856  -37.1935 C   0  0  0  0  0  0  0  0  0  0  0  0
   60.1336   28.7337  -38.0632 N   0  0  0  0  0  0  0  0  0  0  0  0
   60.2358   27.5921  -38.7885 N   0  0  0  0  0  0  0  0  0  0  0  0
   61.2201   26.8622  -38.3643 N   0  0  0  0  0  0  0  0  0  0  0  0
   61.6303   29.3402  -35.1976 C   0  0  0  0  0  0  0  0  0  0  0  0
   60.2987   31.2029  -35.8487 O   0  0  0  0  0  0  0  0  0  0  0  0
   61.6615   31.4593  -34.0582 N   0  0  0  0  0  0  0  0  0  0  0  0
   59.1316   30.4468  -32.3576 N   0  0  0  0  0  0  0  0  0  0  0  0
   59.3137   28.2978  -31.7091 C   0  0  0  0  0  0  0  0  0  0  0  0
   60.5377   28.7677  -32.0897 N   0  0  0  0  0  0  0  0  0  0  0  0
   58.1565   26.1174  -31.5711 C   0  0  0  0  0  0  0  0  0  0  0  0
   58.0770   24.8136  -31.1159 C   0  0  0  0  0  0  0  0  0  0  0  0
   59.0047   24.3342  -30.1909 C   0  0  0  0  0  0  0  0  0  0  0  0
   59.9940   25.1894  -29.7037 C   0  0  0  0  0  0  0  0  0  0  0  0
   60.0899   26.5056  -30.1564 C   0  0  0  0  0  0  0  0  0  0  0  0
   59.0199   22.9800  -29.7606 N   0  0  0  0  0  0  0  0  0  0  0  0
   61.0292   21.9873  -30.2594 O   0  0  0  0  0  0  0  0  0  0  0  0
   59.0557   20.9524  -30.6491 O   0  0  0  0  0  0  0  0  0  0  0  0
   59.7364   19.9413  -31.4382 C   0  0  0  0  0  0  0  0  0  0  0  0
   62.0391   29.4057  -28.5770 C   0  0  0  0  0  0  0  0  0  0  0  0
   60.7680   28.5767  -28.8244 C   0  0  1  0  0  0  0  0  0  0  0  0
   61.0469   27.4030  -29.6505 N   0  0  0  0  0  0  0  0  0  0  0  0
   60.0982   28.1825  -27.5183 C   0  0  2  0  0  0  0  0  0  0  0  0
   59.5501   29.2116  -26.8878 F   0  0  0  0  0  0  0  0  0  0  0  0
   60.9591   27.6310  -26.6602 F   0  0  0  0  0  0  0  0  0  0  0  0
   59.1274   27.3027  -27.7065 F   0  0  0  0  0  0  0  0  0  0  0  0
  1 16  1  0
  1 23  2  0
  2  3  1  6
  5  2  1  6
  3  7  1  0
  3 25  1  6
  4 23  1  0
  4 24  2  0
  4 25  1  0
  6  5  1  6
 38  6  1  6
  7 26  2  0
  7 28  1  0
  8 26  1  0
  8 27  2  0
  9 34  1  0
  9 35  2  0
  9 36  1  0
 10 27  1  0
 10 29  1  0
 10 33  2  0
 11 14  1  0
 12 13  2  0
 12 17  1  0
 13 14  1  0
 14 15  2  0
 15 16  1  0
 16 17  2  0
 17 18  1  0
 18 19  1  0
 18 22  1  0
 19 20  2  0
 20 21  1  0
 21 22  2  0
 27 28  1  0
 29 30  2  0
 30 31  1  0
 31 32  2  0
 31 34  1  0
 32 33  1  0
 33 40  1  0
 37 36  1  6
 38 39  1  0
 39 40  1  1
 39 41  1  0
 41 42  1  1
 41 43  1  0
 41 44  1  0
M  END
$$$$
