
     RDKit          3D

 44 48  0  0  0  0  0  0  0  0999 V2000
  -11.6742  -48.0890   -0.2961 C   0  0  0  0  0  0  0  0  0  0  0  0
   -8.8546  -49.6286   -0.0768 C   0  0  0  0  0  0  0  0  0  0  0  0
   -8.9005  -48.6961    1.1498 C   0  0  1  0  0  0  0  0  0  0  0  0
  -11.0628  -49.6925    1.5619 C   0  0  0  0  0  0  0  0  0  0  0  0
   -7.5875  -49.4205   -0.9793 C   0  0  0  0  0  0  0  0  0  0  0  0
   -6.1975  -49.3967   -0.2649 C   0  0  0  0  0  0  0  0  0  0  0  0
   -8.6640  -47.2785    0.7165 C   0  0  0  0  0  0  0  0  0  0  0  0
   -8.6757  -45.4662   -0.4195 C   0  0  0  0  0  0  0  0  0  0  0  0
   -2.2909  -42.0166    2.0951 C   0  0  0  0  0  0  0  0  0  0  0  0
   -6.3589  -44.5739    0.3752 C   0  0  0  0  0  0  0  0  0  0  0  0
   -8.3799  -45.0763    2.2781 Cl  0  0  0  0  0  0  0  0  0  0  0  0
   -8.3512  -46.6367   -1.4011 C   0  0  0  0  0  0  0  0  0  0  0  0
   -7.9866  -45.9447   -0.2512 C   0  0  0  0  0  0  0  0  0  0  0  0
   -8.8348  -45.9480    0.8371 C   0  0  0  0  0  0  0  0  0  0  0  0
  -10.0438  -46.6171    0.8092 C   0  0  0  0  0  0  0  0  0  0  0  0
  -10.4269  -47.3146   -0.3445 C   0  0  0  0  0  0  0  0  0  0  0  0
   -9.5698  -47.3077   -1.4605 C   0  0  0  0  0  0  0  0  0  0  0  0
   -9.9467  -47.9532   -2.6783 N   0  0  0  0  0  0  0  0  0  0  0  0
   -9.5439  -47.7856   -3.9435 C   0  0  0  0  0  0  0  0  0  0  0  0
  -10.2478  -48.5469   -4.7327 N   0  0  0  0  0  0  0  0  0  0  0  0
  -11.1003  -49.2238   -3.9235 N   0  0  0  0  0  0  0  0  0  0  0  0
  -10.9374  -48.8741   -2.6855 N   0  0  0  0  0  0  0  0  0  0  0  0
  -11.8671  -49.1839    0.4282 C   0  0  0  0  0  0  0  0  0  0  0  0
  -11.3223  -50.7699    2.1176 O   0  0  0  0  0  0  0  0  0  0  0  0
  -10.0733  -48.8843    2.0037 N   0  0  0  0  0  0  0  0  0  0  0  0
   -9.3896  -46.6147   -0.1640 N   0  0  0  0  0  0  0  0  0  0  0  0
   -7.5260  -45.4542    0.3388 C   0  0  0  0  0  0  0  0  0  0  0  0
   -7.5579  -46.6092    1.0662 N   0  0  0  0  0  0  0  0  0  0  0  0
   -6.5351  -43.1979    0.5366 C   0  0  0  0  0  0  0  0  0  0  0  0
   -5.4442  -42.3625    0.6965 C   0  0  0  0  0  0  0  0  0  0  0  0
   -4.1511  -42.8858    0.6896 C   0  0  0  0  0  0  0  0  0  0  0  0
   -3.9647  -44.2540    0.4878 C   0  0  0  0  0  0  0  0  0  0  0  0
   -5.0549  -45.1099    0.3294 C   0  0  0  0  0  0  0  0  0  0  0  0
   -3.0046  -42.0840    0.9384 N   0  0  0  0  0  0  0  0  0  0  0  0
   -1.1611  -42.4263    2.2635 O   0  0  0  0  0  0  0  0  0  0  0  0
   -3.0167  -41.3925    3.0416 O   0  0  0  0  0  0  0  0  0  0  0  0
   -2.5939  -41.6143    4.4128 C   0  0  0  0  0  0  0  0  0  0  0  0
   -5.0595  -48.6940   -1.0343 C   0  0  0  0  0  0  0  0  0  0  0  0
   -5.2255  -47.1714   -1.1690 C   0  0  1  0  0  0  0  0  0  0  0  0
   -4.8967  -46.4846    0.0792 N   0  0  0  0  0  0  0  0  0  0  0  0
   -4.4102  -46.6235   -2.3286 C   0  0  2  0  0  0  0  0  0  0  0  0
   -5.1563  -46.2875   -3.3715 F   0  0  0  0  0  0  0  0  0  0  0  0
   -3.5167  -47.5088   -2.7754 F   0  0  0  0  0  0  0  0  0  0  0  0
   -3.7360  -45.5363   -1.9889 F   0  0  0  0  0  0  0  0  0  0  0  0
  1 16  1  0
  1 23  2  0
  2  3  1  6
  5  2  1  6
  3  7  1  0
  3 25  1  6
  4 23  1  0
  4 24  2  0
  4 25  1  0
  6  5  1  6
 38  6  1  6
  7 26  2  0
  7 28  1  0
  8 26  1  0
  8 27  2  0
  9 34  1  0
  9 35  2  0
  9 36  1  0
 10 27  1  0
 10 29  1  0
 10 33  2  0
 11 14  1  0
 12 13  2  0
 12 17  1  0
 13 14  1  0
 14 15  2  0
 15 16  1  0
 16 17  2  0
 17 18  1  0
 18 19  1  0
 18 22  1  0
 19 20  2  0
 20 21  1  0
 21 22  2  0
 27 28  1  0
 29 30  2  0
 30 31  1  0
 31 32  2  0
 31 34  1  0
 32 33  1  0
 33 40  1  0
 37 36  1  6
 38 39  1  0
 39 40  1  1
 39 41  1  0
 41 42  1  6
 41 43  1  0
 41 44  1  0
M  END
$$$$
