
     RDKit          3D

 44 48  0  0  0  0  0  0  0  0999 V2000
   56.8835   14.1157   10.3190 C   0  0  0  0  0  0  0  0  0  0  0  0
   60.0320   17.8504   10.0092 C   0  0  0  0  0  0  0  0  0  0  0  0
   59.1372   16.5987   10.1034 C   0  0  1  0  0  0  0  0  0  0  0  0
   59.1390   14.5467   11.3793 C   0  0  0  0  0  0  0  0  0  0  0  0
   59.2781   19.1262    9.4919 C   0  0  0  0  0  0  0  0  0  0  0  0
   57.9202   19.4816   10.1796 C   0  0  0  0  0  0  0  0  0  0  0  0
   58.3949   16.4094    8.8125 C   0  0  0  0  0  0  0  0  0  0  0  0
   57.9066   16.3643    6.7305 C   0  0  0  0  0  0  0  0  0  0  0  0
   50.7020   18.2608    5.1970 C   0  0  0  0  0  0  0  0  0  0  0  0
   55.3578   16.8471    6.9877 C   0  0  0  0  0  0  0  0  0  0  0  0
   53.1548   17.4806    9.1658 Cl  0  0  0  0  0  0  0  0  0  0  0  0
   55.9197   17.3488   12.0485 C   0  0  0  0  0  0  0  0  0  0  0  0
   54.8522   17.7492   11.2521 C   0  0  0  0  0  0  0  0  0  0  0  0
   54.4909   16.9763   10.1676 C   0  0  0  0  0  0  0  0  0  0  0  0
   55.1706   15.8161    9.8483 C   0  0  0  0  0  0  0  0  0  0  0  0
   56.2517   15.4028   10.6388 C   0  0  0  0  0  0  0  0  0  0  0  0
   56.6301   16.1913   11.7411 C   0  0  0  0  0  0  0  0  0  0  0  0
   57.7635   15.8419   12.5378 N   0  0  0  0  0  0  0  0  0  0  0  0
   58.7295   14.9307   12.3714 C   0  0  0  0  0  0  0  0  0  0  0  0
   59.5032   14.9148   13.4198 N   0  0  0  0  0  0  0  0  0  0  0  0
   59.0098   15.8645   14.2532 N   0  0  0  0  0  0  0  0  0  0  0  0
   57.9596   16.4273   13.7413 N   0  0  0  0  0  0  0  0  0  0  0  0
   58.0930   13.7387   10.7132 C   0  0  0  0  0  0  0  0  0  0  0  0
   59.3312   14.4890   12.6027 O   0  0  0  0  0  0  0  0  0  0  0  0
   59.8258   15.4036   10.5908 N   0  0  0  0  0  0  0  0  0  0  0  0
   58.9492   16.2653    7.6232 N   0  0  0  0  0  0  0  0  0  0  0  0
   56.7251   16.5504    7.4134 C   0  0  0  0  0  0  0  0  0  0  0  0
   57.0655   16.5530    8.7355 N   0  0  0  0  0  0  0  0  0  0  0  0
   54.7358   16.0307    6.0406 C   0  0  0  0  0  0  0  0  0  0  0  0
   53.4045   16.2187    5.7150 C   0  0  0  0  0  0  0  0  0  0  0  0
   52.6684   17.2347    6.3247 C   0  0  0  0  0  0  0  0  0  0  0  0
   53.2936   18.0807    7.2416 C   0  0  0  0  0  0  0  0  0  0  0  0
   54.6342   17.9012    7.5836 C   0  0  0  0  0  0  0  0  0  0  0  0
   51.2780   17.4120    6.0912 N   0  0  0  0  0  0  0  0  0  0  0  0
   50.9081   19.4533    5.1075 O   0  0  0  0  0  0  0  0  0  0  0  0
   49.8739   17.5748    4.3871 O   0  0  0  0  0  0  0  0  0  0  0  0
   50.1772   17.6404    2.9687 C   0  0  0  0  0  0  0  0  0  0  0  0
   56.9659   20.3743    9.3591 C   0  0  0  0  0  0  0  0  0  0  0  0
   56.3717   19.6968    8.1132 C   0  0  1  0  0  0  0  0  0  0  0  0
   55.3027   18.7650    8.4692 N   0  0  0  0  0  0  0  0  0  0  0  0
   55.8920   20.7215    7.0985 C   0  0  2  0  0  0  0  0  0  0  0  0
   55.2208   20.1777    6.0931 F   0  0  0  0  0  0  0  0  0  0  0  0
   56.9047   21.3979    6.5523 F   0  0  0  0  0  0  0  0  0  0  0  0
   55.0831   21.6161    7.6439 F   0  0  0  0  0  0  0  0  0  0  0  0
  1 16  1  0
  1 23  2  0
  2  3  1  6
  5  2  1  6
  3  7  1  0
  3 25  1  6
  4 23  1  0
  4 24  2  0
  4 25  1  0
  6  5  1  6
 38  6  1  6
  7 26  2  0
  7 28  1  0
  8 26  1  0
  8 27  2  0
  9 34  1  0
  9 35  2  0
  9 36  1  0
 10 27  1  0
 10 29  1  0
 10 33  2  0
 11 14  1  0
 12 13  2  0
 12 17  1  0
 13 14  1  0
 14 15  2  0
 15 16  1  0
 16 17  2  0
 17 18  1  0
 18 19  1  0
 18 22  1  0
 19 20  2  0
 20 21  1  0
 21 22  2  0
 27 28  1  0
 29 30  2  0
 30 31  1  0
 31 32  2  0
 31 34  1  0
 32 33  1  0
 33 40  1  0
 37 36  1  6
 38 39  1  0
 39 40  1  1
 39 41  1  0
 41 42  1  6
 41 43  1  0
 41 44  1  0
M  END
$$$$
