
     RDKit          3D

 44 48  0  0  0  0  0  0  0  0999 V2000
-96016.7969105008.8984-178202.5312 C   0  0  0  0  0  0  0  0  0  0  0  0
-96021.5625105007.3125-178203.4531 C   0  0  0  0  0  0  0  0  0  0  0  0
-96020.4531105006.3516-178203.0469 C   0  0  1  0  0  0  0  0  0  0  0  0
-96019.2422105008.3203-178202.2656 C   0  0  0  0  0  0  0  0  0  0  0  0
-96022.8828105006.5938-178203.8750 C   0  0  0  0  0  0  0  0  0  0  0  0
-96023.4609105005.5078-178202.9219 C   0  0  0  0  0  0  0  0  0  0  0  0
-96020.2500105005.2891-178204.0781 C   0  0  0  0  0  0  0  0  0  0  0  0
-96020.1562105004.2891-178205.9844 C   0  0  0  0  0  0  0  0  0  0  0  0
-96023.1328104997.3516-178204.5625 C   0  0  0  0  0  0  0  0  0  0  0  0
-96020.9766105001.9688-178205.1719 C   0  0  0  0  0  0  0  0  0  0  0  0
-96013.5391105011.3281-178205.7656 Cl  0  0  0  0  0  0  0  0  0  0  0  0
-96017.1484105009.6016-178206.3125 C   0  0  0  0  0  0  0  0  0  0  0  0
-96015.9219105010.2656-178206.5312 C   0  0  0  0  0  0  0  0  0  0  0  0
-96015.0625105010.4922-178205.4531 C   0  0  0  0  0  0  0  0  0  0  0  0
-96015.3516105010.0703-178204.1719 C   0  0  0  0  0  0  0  0  0  0  0  0
-96016.5703105009.4062-178203.9375 C   0  0  0  0  0  0  0  0  0  0  0  0
-96017.4453105009.1719-178204.9688 C   0  0  0  0  0  0  0  0  0  0  0  0
-96018.7500105008.5547-178204.7812 N   0  0  0  0  0  0  0  0  0  0  0  0
-96019.0781105007.3125-178204.4219 C   0  0  0  0  0  0  0  0  0  0  0  0
-96020.3672105007.2344-178204.4375 N   0  0  0  0  0  0  0  0  0  0  0  0
-96020.8516105008.4062-178204.7969 N   0  0  0  0  0  0  0  0  0  0  0  0
-96019.8672105009.2266-178204.9844 N   0  0  0  0  0  0  0  0  0  0  0  0
-96017.9531105008.9531-178201.9219 C   0  0  0  0  0  0  0  0  0  0  0  0
-96020.2969105008.9453-178202.2188 O   0  0  0  0  0  0  0  0  0  0  0  0
-96019.1797105007.0078-178202.5938 N   0  0  0  0  0  0  0  0  0  0  0  0
-96019.9844105005.5078-178205.3594 N   0  0  0  0  0  0  0  0  0  0  0  0
-96020.5156105003.3594-178205.0469 C   0  0  0  0  0  0  0  0  0  0  0  0
-96020.5703105004.0156-178203.8438 N   0  0  0  0  0  0  0  0  0  0  0  0
-96020.1875105001.0312-178205.8438 C   0  0  0  0  0  0  0  0  0  0  0  0
-96020.5078104999.7031-178205.8438 C   0  0  0  0  0  0  0  0  0  0  0  0
-96021.6484104999.2656-178205.1719 C   0  0  0  0  0  0  0  0  0  0  0  0
-96022.4688105000.1562-178204.5312 C   0  0  0  0  0  0  0  0  0  0  0  0
-96022.1328105001.5312-178204.5000 C   0  0  0  0  0  0  0  0  0  0  0  0
-96022.0000104997.8672-178205.0781 N   0  0  0  0  0  0  0  0  0  0  0  0
-96023.3906104996.1484-178204.4219 O   0  0  0  0  0  0  0  0  0  0  0  0
-96023.9844104998.3438-178204.2656 O   0  0  0  0  0  0  0  0  0  0  0  0
-96024.0469104999.4531-178205.1875 C   0  0  0  0  0  0  0  0  0  0  0  0
-96024.3906105004.4766-178203.5469 C   0  0  0  0  0  0  0  0  0  0  0  0
-96023.7109105003.5156-178204.5469 C   0  0  1  0  0  0  0  0  0  0  0  0
-96022.9531105002.4922-178203.8906 N   0  0  0  0  0  0  0  0  0  0  0  0
-96024.7578105002.9219-178205.5312 C   0  0  2  0  0  0  0  0  0  0  0  0
-96024.4062105001.7109-178205.9219 F   0  0  0  0  0  0  0  0  0  0  0  0
-96024.8906105003.6562-178206.6250 F   0  0  0  0  0  0  0  0  0  0  0  0
-96025.9453105002.8281-178204.9531 F   0  0  0  0  0  0  0  0  0  0  0  0
  1 16  1  0
  1 23  2  0
  2  3  1  6
  5  2  1  6
  3  7  1  0
  3 25  1  6
  4 23  1  0
  4 24  2  0
  4 25  1  0
  6  5  1  6
 38  6  1  6
  7 26  2  0
  7 28  1  0
  8 26  1  0
  8 27  2  0
  9 34  1  0
  9 35  2  0
  9 36  1  0
 10 27  1  0
 10 29  1  0
 10 33  2  0
 11 14  1  0
 12 13  2  0
 12 17  1  0
 13 14  1  0
 14 15  2  0
 15 16  1  0
 16 17  2  0
 17 18  1  0
 18 19  1  0
 18 22  1  0
 19 20  2  0
 20 21  1  0
 21 22  2  0
 27 28  1  0
 29 30  2  0
 30 31  1  0
 31 32  2  0
 31 34  1  0
 32 33  1  0
 33 40  1  0
 37 36  1  6
 38 39  1  0
 39 40  1  1
 39 41  1  0
 41 42  1  6
 41 43  1  0
 41 44  1  0
M  END
$$$$
