
     RDKit          3D

 44 48  0  0  0  0  0  0  0  0999 V2000
   15.2949  -41.0448  -12.3571 C   0  0  0  0  0  0  0  0  0  0  0  0
   13.0018  -43.7367  -13.8429 C   0  0  0  0  0  0  0  0  0  0  0  0
   14.4769  -44.1148  -14.0823 C   0  0  1  0  0  0  0  0  0  0  0  0
   14.7868  -43.4541  -11.7788 C   0  0  0  0  0  0  0  0  0  0  0  0
   12.0851  -43.9490  -15.0991 C   0  0  0  0  0  0  0  0  0  0  0  0
   12.1791  -45.3289  -15.8272 C   0  0  0  0  0  0  0  0  0  0  0  0
   14.9701  -43.4570  -15.3381 C   0  0  0  0  0  0  0  0  0  0  0  0
   15.2804  -42.0385  -16.9087 C   0  0  0  0  0  0  0  0  0  0  0  0
   17.0153  -44.8140  -23.7248 C   0  0  0  0  0  0  0  0  0  0  0  0
   15.6807  -43.7616  -18.8234 C   0  0  0  0  0  0  0  0  0  0  0  0
   17.2313  -44.3052  -15.8465 Cl  0  0  0  0  0  0  0  0  0  0  0  0
   15.8208  -40.5732  -16.0819 C   0  0  0  0  0  0  0  0  0  0  0  0
   16.3569  -41.8120  -16.4169 C   0  0  0  0  0  0  0  0  0  0  0  0
   16.5546  -42.7530  -15.4272 C   0  0  0  0  0  0  0  0  0  0  0  0
   16.2394  -42.4909  -14.1074 C   0  0  0  0  0  0  0  0  0  0  0  0
   15.7030  -41.2451  -13.7539 C   0  0  0  0  0  0  0  0  0  0  0  0
   15.5073  -40.2785  -14.7576 C   0  0  0  0  0  0  0  0  0  0  0  0
   15.0211  -38.9743  -14.4345 N   0  0  0  0  0  0  0  0  0  0  0  0
   14.1224  -38.1802  -15.0284 C   0  0  0  0  0  0  0  0  0  0  0  0
   14.0783  -37.0315  -14.4147 N   0  0  0  0  0  0  0  0  0  0  0  0
   14.9653  -37.1281  -13.3931 N   0  0  0  0  0  0  0  0  0  0  0  0
   15.5462  -38.2875  -13.3942 N   0  0  0  0  0  0  0  0  0  0  0  0
   14.9846  -42.0131  -11.5047 C   0  0  0  0  0  0  0  0  0  0  0  0
   14.2016  -44.1988  -10.9788 O   0  0  0  0  0  0  0  0  0  0  0  0
   15.3414  -43.9282  -12.9170 N   0  0  0  0  0  0  0  0  0  0  0  0
   14.9753  -42.1579  -15.5721 N   0  0  0  0  0  0  0  0  0  0  0  0
   15.4737  -43.2877  -17.4555 C   0  0  0  0  0  0  0  0  0  0  0  0
   15.2908  -44.1672  -16.4274 N   0  0  0  0  0  0  0  0  0  0  0  0
   16.7053  -43.2130  -19.5979 C   0  0  0  0  0  0  0  0  0  0  0  0
   16.9971  -43.7300  -20.8474 C   0  0  0  0  0  0  0  0  0  0  0  0
   16.2632  -44.8031  -21.3530 C   0  0  0  0  0  0  0  0  0  0  0  0
   15.2112  -45.3303  -20.6027 C   0  0  0  0  0  0  0  0  0  0  0  0
   14.9075  -44.8227  -19.3393 C   0  0  0  0  0  0  0  0  0  0  0  0
   16.5807  -45.4264  -22.5899 N   0  0  0  0  0  0  0  0  0  0  0  0
   17.2706  -43.6342  -23.8483 O   0  0  0  0  0  0  0  0  0  0  0  0
   17.1539  -45.7234  -24.7077 O   0  0  0  0  0  0  0  0  0  0  0  0
   17.7035  -45.2273  -25.9567 C   0  0  0  0  0  0  0  0  0  0  0  0
   11.7054  -45.3466  -17.2955 C   0  0  0  0  0  0  0  0  0  0  0  0
   12.6045  -44.5627  -18.2657 C   0  0  1  0  0  0  0  0  0  0  0  0
   13.8256  -45.3029  -18.5802 N   0  0  0  0  0  0  0  0  0  0  0  0
   11.8549  -44.1770  -19.5302 C   0  0  2  0  0  0  0  0  0  0  0  0
   12.4849  -44.5453  -20.6368 F   0  0  0  0  0  0  0  0  0  0  0  0
   11.6732  -42.8579  -19.6223 F   0  0  0  0  0  0  0  0  0  0  0  0
   10.6553  -44.7340  -19.5831 F   0  0  0  0  0  0  0  0  0  0  0  0
  1 16  1  0
  1 23  2  0
  2  3  1  6
  5  2  1  6
  3  7  1  0
  3 25  1  1
  4 23  1  0
  4 24  2  0
  4 25  1  0
  6  5  1  6
 38  6  1  6
  7 26  2  0
  7 28  1  0
  8 26  1  0
  8 27  2  0
  9 34  1  0
  9 35  2  0
  9 36  1  0
 10 27  1  0
 10 29  1  0
 10 33  2  0
 11 14  1  0
 12 13  2  0
 12 17  1  0
 13 14  1  0
 14 15  2  0
 15 16  1  0
 16 17  2  0
 17 18  1  0
 18 19  1  0
 18 22  1  0
 19 20  2  0
 20 21  1  0
 21 22  2  0
 27 28  1  0
 29 30  2  0
 30 31  1  0
 31 32  2  0
 31 34  1  0
 32 33  1  0
 33 40  1  0
 37 36  1  6
 38 39  1  0
 39 40  1  6
 39 41  1  0
 41 42  1  6
 41 43  1  0
 41 44  1  0
M  END
$$$$
