
     RDKit          3D

 44 48  0  0  0  0  0  0  0  0999 V2000
   95.7202   20.9136  -13.7078 C   0  0  0  0  0  0  0  0  0  0  0  0
   97.6730   20.0340  -10.7952 C   0  0  0  0  0  0  0  0  0  0  0  0
   96.8848   20.8767   -9.7731 C   0  0  1  0  0  0  0  0  0  0  0  0
   95.6951   22.1078  -11.4783 C   0  0  0  0  0  0  0  0  0  0  0  0
   98.2156   18.6816  -10.2119 C   0  0  0  0  0  0  0  0  0  0  0  0
   97.2018   17.7811   -9.4345 C   0  0  0  0  0  0  0  0  0  0  0  0
   97.6815   21.0130   -8.5083 C   0  0  0  0  0  0  0  0  0  0  0  0
   99.3112   21.2309   -7.1402 C   0  0  0  0  0  0  0  0  0  0  0  0
   98.5349   17.4060   -0.6216 C   0  0  0  0  0  0  0  0  0  0  0  0
   98.2618   19.8808   -5.1727 C   0  0  0  0  0  0  0  0  0  0  0  0
   91.3426   23.6315  -13.6329 Cl  0  0  0  0  0  0  0  0  0  0  0  0
   92.3098   20.0508  -15.1213 C   0  0  0  0  0  0  0  0  0  0  0  0
   91.5990   21.1945  -14.7736 C   0  0  0  0  0  0  0  0  0  0  0  0
   92.2352   22.1988  -14.0732 C   0  0  0  0  0  0  0  0  0  0  0  0
   93.5619   22.0920  -13.7011 C   0  0  0  0  0  0  0  0  0  0  0  0
   94.2896   20.9430  -14.0400 C   0  0  0  0  0  0  0  0  0  0  0  0
   93.6438   19.9118  -14.7469 C   0  0  0  0  0  0  0  0  0  0  0  0
   94.3283   18.6973  -15.0598 N   0  0  0  0  0  0  0  0  0  0  0  0
   94.0201   17.6779  -15.8704 C   0  0  0  0  0  0  0  0  0  0  0  0
   94.9168   16.7394  -15.7557 N   0  0  0  0  0  0  0  0  0  0  0  0
   95.8214   17.2052  -14.8588 N   0  0  0  0  0  0  0  0  0  0  0  0
   95.4795   18.3785  -14.4251 N   0  0  0  0  0  0  0  0  0  0  0  0
   96.2359   21.2073  -12.5211 C   0  0  0  0  0  0  0  0  0  0  0  0
   94.7191   22.8426  -11.6894 O   0  0  0  0  0  0  0  0  0  0  0  0
   96.3673   22.1371  -10.3058 N   0  0  0  0  0  0  0  0  0  0  0  0
   98.8933   21.5285   -8.4172 N   0  0  0  0  0  0  0  0  0  0  0  0
   98.3189   20.5476   -6.4729 C   0  0  0  0  0  0  0  0  0  0  0  0
   97.2878   20.4436   -7.3618 N   0  0  0  0  0  0  0  0  0  0  0  0
   98.6185   20.5826   -4.0191 C   0  0  0  0  0  0  0  0  0  0  0  0
   98.4554   20.0122   -2.7695 C   0  0  0  0  0  0  0  0  0  0  0  0
   97.9392   18.7220   -2.6476 C   0  0  0  0  0  0  0  0  0  0  0  0
   97.6188   17.9988   -3.7973 C   0  0  0  0  0  0  0  0  0  0  0  0
   97.7735   18.5618   -5.0643 C   0  0  0  0  0  0  0  0  0  0  0  0
   97.6696   18.1265   -1.3859 N   0  0  0  0  0  0  0  0  0  0  0  0
   98.5622   16.1973   -0.5182 O   0  0  0  0  0  0  0  0  0  0  0  0
   99.3956   18.2364   -0.0035 O   0  0  0  0  0  0  0  0  0  0  0  0
   99.1758   18.4326    1.4183 C   0  0  0  0  0  0  0  0  0  0  0  0
   97.8224   16.7659   -8.4521 C   0  0  0  0  0  0  0  0  0  0  0  0
   98.4927   17.3973   -7.2207 C   0  0  1  0  0  0  0  0  0  0  0  0
   97.5023   17.8417   -6.2413 N   0  0  0  0  0  0  0  0  0  0  0  0
   99.5021   16.4517   -6.5910 C   0  0  2  0  0  0  0  0  0  0  0  0
   99.0641   15.9027   -5.4668 F   0  0  0  0  0  0  0  0  0  0  0  0
  100.6456   17.0694   -6.2870 F   0  0  0  0  0  0  0  0  0  0  0  0
   99.8107   15.4489   -7.3980 F   0  0  0  0  0  0  0  0  0  0  0  0
  1 16  1  0
  1 23  2  0
  2  3  1  6
  5  2  1  6
  3  7  1  0
  3 25  1  6
  4 23  1  0
  4 24  2  0
  4 25  1  0
  6  5  1  6
 38  6  1  6
  7 26  2  0
  7 28  1  0
  8 26  1  0
  8 27  2  0
  9 34  1  0
  9 35  2  0
  9 36  1  0
 10 27  1  0
 10 29  1  0
 10 33  2  0
 11 14  1  0
 12 13  2  0
 12 17  1  0
 13 14  1  0
 14 15  2  0
 15 16  1  0
 16 17  2  0
 17 18  1  0
 18 19  1  0
 18 22  1  0
 19 20  2  0
 20 21  1  0
 21 22  2  0
 27 28  1  0
 29 30  2  0
 30 31  1  0
 31 32  2  0
 31 34  1  0
 32 33  1  0
 33 40  1  0
 37 36  1  6
 38 39  1  0
 39 40  1  1
 39 41  1  0
 41 42  1  1
 41 43  1  0
 41 44  1  0
M  END
$$$$
