
     RDKit          3D

 44 48  0  0  0  0  0  0  0  0999 V2000
  619.4086  357.8219   95.9623 C   0  0  0  0  0  0  0  0  0  0  0  0
  620.9298  357.3213   94.4664 C   0  0  0  0  0  0  0  0  0  0  0  0
  621.7536  358.4862   93.8829 C   0  0  1  0  0  0  0  0  0  0  0  0
  620.6985  359.9466   95.4932 C   0  0  0  0  0  0  0  0  0  0  0  0
  620.9192  356.0407   93.5589 C   0  0  0  0  0  0  0  0  0  0  0  0
  622.2988  355.5215   93.0394 C   0  0  0  0  0  0  0  0  0  0  0  0
  621.3474  358.7293   92.4585 C   0  0  0  0  0  0  0  0  0  0  0  0
  620.1789  358.9184   90.6768 C   0  0  0  0  0  0  0  0  0  0  0  0
  624.7315  358.3302   84.6163 C   0  0  0  0  0  0  0  0  0  0  0  0
  622.0427  358.2175   88.9945 C   0  0  0  0  0  0  0  0  0  0  0  0
  617.9207  352.9639   96.8232 Cl  0  0  0  0  0  0  0  0  0  0  0  0
  617.8259  356.2844   99.0451 C   0  0  0  0  0  0  0  0  0  0  0  0
  617.6915  354.9655   98.6251 C   0  0  0  0  0  0  0  0  0  0  0  0
  618.0938  354.6173   97.3519 C   0  0  0  0  0  0  0  0  0  0  0  0
  618.6202  355.5508   96.4796 C   0  0  0  0  0  0  0  0  0  0  0  0
  618.7569  356.8850   96.8872 C   0  0  0  0  0  0  0  0  0  0  0  0
  618.3408  357.2476   98.1814 C   0  0  0  0  0  0  0  0  0  0  0  0
  618.4043  358.6068   98.6180 N   0  0  0  0  0  0  0  0  0  0  0  0
  619.3520  359.5438   98.4968 C   0  0  0  0  0  0  0  0  0  0  0  0
  618.9939  360.6165   99.1439 N   0  0  0  0  0  0  0  0  0  0  0  0
  617.7723  360.3394   99.6645 N   0  0  0  0  0  0  0  0  0  0  0  0
  617.4055  359.1325   99.3636 N   0  0  0  0  0  0  0  0  0  0  0  0
  620.1974  358.8268   96.3214 C   0  0  0  0  0  0  0  0  0  0  0  0
  620.1234  361.0442   95.4585 O   0  0  0  0  0  0  0  0  0  0  0  0
  621.7778  359.6841   94.7223 N   0  0  0  0  0  0  0  0  0  0  0  0
  620.1266  359.0198   92.0482 N   0  0  0  0  0  0  0  0  0  0  0  0
  621.4551  358.5815   90.2831 C   0  0  0  0  0  0  0  0  0  0  0  0
  622.1793  358.4897   91.4368 N   0  0  0  0  0  0  0  0  0  0  0  0
  621.8766  359.0626   87.8951 C   0  0  0  0  0  0  0  0  0  0  0  0
  622.5252  358.8005   86.7015 C   0  0  0  0  0  0  0  0  0  0  0  0
  623.3478  357.6807   86.5797 C   0  0  0  0  0  0  0  0  0  0  0  0
  623.4864  356.8090   87.6606 C   0  0  0  0  0  0  0  0  0  0  0  0
  622.8428  357.0620   88.8721 C   0  0  0  0  0  0  0  0  0  0  0  0
  624.1046  357.4166   85.4062 N   0  0  0  0  0  0  0  0  0  0  0  0
  625.5665  358.0902   83.7692 O   0  0  0  0  0  0  0  0  0  0  0  0
  624.2668  359.5635   84.8902 O   0  0  0  0  0  0  0  0  0  0  0  0
  622.8566  359.7830   84.6221 C   0  0  0  0  0  0  0  0  0  0  0  0
  622.2503  354.6325   91.7793 C   0  0  0  0  0  0  0  0  0  0  0  0
  621.8327  355.3679   90.4952 C   0  0  1  0  0  0  0  0  0  0  0  0
  622.9270  356.1787   89.9630 N   0  0  0  0  0  0  0  0  0  0  0  0
  621.3054  354.4018   89.4474 C   0  0  2  0  0  0  0  0  0  0  0  0
  620.1283  353.8833   89.7688 F   0  0  0  0  0  0  0  0  0  0  0  0
  622.1305  353.3704   89.2561 F   0  0  0  0  0  0  0  0  0  0  0  0
  621.1441  354.9873   88.2714 F   0  0  0  0  0  0  0  0  0  0  0  0
  1 16  1  0
  1 23  2  0
  2  3  1  6
  5  2  1  6
  3  7  1  0
  3 25  1  1
  4 23  1  0
  4 24  2  0
  4 25  1  0
  6  5  1  6
 38  6  1  6
  7 26  2  0
  7 28  1  0
  8 26  1  0
  8 27  2  0
  9 34  1  0
  9 35  2  0
  9 36  1  0
 10 27  1  0
 10 29  1  0
 10 33  2  0
 11 14  1  0
 12 13  2  0
 12 17  1  0
 13 14  1  0
 14 15  2  0
 15 16  1  0
 16 17  2  0
 17 18  1  0
 18 19  1  0
 18 22  1  0
 19 20  2  0
 20 21  1  0
 21 22  2  0
 27 28  1  0
 29 30  2  0
 30 31  1  0
 31 32  2  0
 31 34  1  0
 32 33  1  0
 33 40  1  0
 37 36  1  6
 38 39  1  0
 39 40  1  6
 39 41  1  0
 41 42  1  1
 41 43  1  0
 41 44  1  0
M  END
$$$$
