
     RDKit          3D

 44 48  0  0  0  0  0  0  0  0999 V2000
   83.1184   -7.5622  125.1807 C   0  0  0  0  0  0  0  0  0  0  0  0
   80.0622   -7.8376  123.2630 C   0  0  0  0  0  0  0  0  0  0  0  0
   80.7264   -6.8208  122.3137 C   0  0  1  0  0  0  0  0  0  0  0  0
   82.6142   -5.8072  123.4305 C   0  0  0  0  0  0  0  0  0  0  0  0
   78.5142   -7.9825  123.0477 C   0  0  0  0  0  0  0  0  0  0  0  0
   78.0139   -8.2019  121.5833 C   0  0  0  0  0  0  0  0  0  0  0  0
   79.9643   -5.5279  122.3442 C   0  0  0  0  0  0  0  0  0  0  0  0
   78.8172   -3.8543  123.0213 C   0  0  0  0  0  0  0  0  0  0  0  0
   74.8358   -2.1820  116.6409 C   0  0  0  0  0  0  0  0  0  0  0  0
   77.5334   -3.4226  120.7940 C   0  0  0  0  0  0  0  0  0  0  0  0
   85.0124   -5.8255  129.6475 Cl  0  0  0  0  0  0  0  0  0  0  0  0
   83.3768   -9.2999  128.5402 C   0  0  0  0  0  0  0  0  0  0  0  0
   83.9610   -8.2910  129.2987 C   0  0  0  0  0  0  0  0  0  0  0  0
   84.2755   -7.0895  128.6976 C   0  0  0  0  0  0  0  0  0  0  0  0
   84.0308   -6.8667  127.3557 C   0  0  0  0  0  0  0  0  0  0  0  0
   83.4472   -7.8759  126.5776 C   0  0  0  0  0  0  0  0  0  0  0  0
   83.1322   -9.1064  127.1832 C   0  0  0  0  0  0  0  0  0  0  0  0
   82.5933  -10.1845  126.4158 N   0  0  0  0  0  0  0  0  0  0  0  0
   82.5403  -11.5033  126.6369 C   0  0  0  0  0  0  0  0  0  0  0  0
   82.0305  -12.1023  125.5979 N   0  0  0  0  0  0  0  0  0  0  0  0
   81.7390  -11.1163  124.7133 N   0  0  0  0  0  0  0  0  0  0  0  0
   82.0771   -9.9571  125.1863 N   0  0  0  0  0  0  0  0  0  0  0  0
   83.3228   -6.3911  124.5914 C   0  0  0  0  0  0  0  0  0  0  0  0
   82.3830   -4.5920  123.3477 O   0  0  0  0  0  0  0  0  0  0  0  0
   82.1707   -6.6809  122.4990 N   0  0  0  0  0  0  0  0  0  0  0  0
   79.7377   -4.7966  123.4196 N   0  0  0  0  0  0  0  0  0  0  0  0
   78.5184   -4.0297  121.6883 C   0  0  0  0  0  0  0  0  0  0  0  0
   79.2795   -5.0875  121.2809 N   0  0  0  0  0  0  0  0  0  0  0  0
   77.4737   -2.0326  120.6723 C   0  0  0  0  0  0  0  0  0  0  0  0
   76.6356   -1.4427  119.7432 C   0  0  0  0  0  0  0  0  0  0  0  0
   75.8317   -2.2320  118.9206 C   0  0  0  0  0  0  0  0  0  0  0  0
   75.8552   -3.6200  119.0642 C   0  0  0  0  0  0  0  0  0  0  0  0
   76.6982   -4.2299  119.9936 C   0  0  0  0  0  0  0  0  0  0  0  0
   75.0218   -1.6797  117.8919 N   0  0  0  0  0  0  0  0  0  0  0  0
   74.2770   -3.2227  116.3636 O   0  0  0  0  0  0  0  0  0  0  0  0
   75.3437   -1.3315  115.7293 O   0  0  0  0  0  0  0  0  0  0  0  0
   75.1921   -1.7271  114.3405 C   0  0  0  0  0  0  0  0  0  0  0  0
   76.5417   -7.8268  121.3138 C   0  0  0  0  0  0  0  0  0  0  0  0
   76.2430   -6.3204  121.3887 C   0  0  1  0  0  0  0  0  0  0  0  0
   76.7103   -5.6219  120.1923 N   0  0  0  0  0  0  0  0  0  0  0  0
   74.7667   -6.0579  121.6366 C   0  0  2  0  0  0  0  0  0  0  0  0
   74.0353   -7.1632  121.6181 F   0  0  0  0  0  0  0  0  0  0  0  0
   74.2414   -5.2441  120.7183 F   0  0  0  0  0  0  0  0  0  0  0  0
   74.5561   -5.4931  122.8151 F   0  0  0  0  0  0  0  0  0  0  0  0
  1 16  1  0
  1 23  2  0
  2  3  1  6
  5  2  1  6
  3  7  1  0
  3 25  1  1
  4 23  1  0
  4 24  2  0
  4 25  1  0
  6  5  1  6
 38  6  1  6
  7 26  2  0
  7 28  1  0
  8 26  1  0
  8 27  2  0
  9 34  1  0
  9 35  2  0
  9 36  1  0
 10 27  1  0
 10 29  1  0
 10 33  2  0
 11 14  1  0
 12 13  2  0
 12 17  1  0
 13 14  1  0
 14 15  2  0
 15 16  1  0
 16 17  2  0
 17 18  1  0
 18 19  1  0
 18 22  1  0
 19 20  2  0
 20 21  1  0
 21 22  2  0
 27 28  1  0
 29 30  2  0
 30 31  1  0
 31 32  2  0
 31 34  1  0
 32 33  1  0
 33 40  1  0
 37 36  1  6
 38 39  1  0
 39 40  1  6
 39 41  1  0
 41 42  1  1
 41 43  1  0
 41 44  1  0
M  END
$$$$
