
     RDKit          3D

 44 48  0  0  0  0  0  0  0  0999 V2000
  -11.9532  -11.7517   31.2606 C   0  0  0  0  0  0  0  0  0  0  0  0
   -7.4564  -11.6301   27.6612 C   0  0  0  0  0  0  0  0  0  0  0  0
   -8.1819  -12.6606   28.5488 C   0  0  1  0  0  0  0  0  0  0  0  0
  -10.3099  -12.8447   29.6786 C   0  0  0  0  0  0  0  0  0  0  0  0
   -5.8942  -11.7817   27.6680 C   0  0  0  0  0  0  0  0  0  0  0  0
   -5.3141  -13.2122   27.4220 C   0  0  0  0  0  0  0  0  0  0  0  0
   -7.5587  -12.6797   29.9142 C   0  0  0  0  0  0  0  0  0  0  0  0
   -6.6186  -12.0627   31.7338 C   0  0  0  0  0  0  0  0  0  0  0  0
   -1.5117  -17.3307   33.8952 C   0  0  0  0  0  0  0  0  0  0  0  0
   -5.2953  -14.2650   32.1745 C   0  0  0  0  0  0  0  0  0  0  0  0
  -15.4995   -9.9549   34.5394 Cl  0  0  0  0  0  0  0  0  0  0  0  0
  -12.1056   -8.4296   33.0808 C   0  0  0  0  0  0  0  0  0  0  0  0
  -13.2886   -8.5901   33.7942 C   0  0  0  0  0  0  0  0  0  0  0  0
  -14.0132   -9.7552   33.6481 C   0  0  0  0  0  0  0  0  0  0  0  0
  -13.5952  -10.7651   32.8024 C   0  0  0  0  0  0  0  0  0  0  0  0
  -12.4076  -10.6155   32.0731 C   0  0  0  0  0  0  0  0  0  0  0  0
  -11.6689   -9.4258   32.2115 C   0  0  0  0  0  0  0  0  0  0  0  0
  -10.4856   -9.2040   31.4420 N   0  0  0  0  0  0  0  0  0  0  0  0
   -9.4635  -10.0051   31.1185 C   0  0  0  0  0  0  0  0  0  0  0  0
   -8.5599   -9.3242   30.4720 N   0  0  0  0  0  0  0  0  0  0  0  0
   -9.0516   -8.0638   30.3744 N   0  0  0  0  0  0  0  0  0  0  0  0
  -10.2059   -7.9722   30.9582 N   0  0  0  0  0  0  0  0  0  0  0  0
  -10.9547  -11.7166   30.3874 C   0  0  0  0  0  0  0  0  0  0  0  0
  -10.3281  -13.9987   30.1311 O   0  0  0  0  0  0  0  0  0  0  0  0
   -9.6394  -12.5349   28.5463 N   0  0  0  0  0  0  0  0  0  0  0  0
   -7.4530  -11.6421   30.7234 N   0  0  0  0  0  0  0  0  0  0  0  0
   -6.2486  -13.3716   31.5176 C   0  0  0  0  0  0  0  0  0  0  0  0
   -6.8795  -13.7424   30.3650 N   0  0  0  0  0  0  0  0  0  0  0  0
   -5.3738  -14.4664   33.5543 C   0  0  0  0  0  0  0  0  0  0  0  0
   -4.5632  -15.3986   34.1768 C   0  0  0  0  0  0  0  0  0  0  0  0
   -3.6492  -16.1443   33.4322 C   0  0  0  0  0  0  0  0  0  0  0  0
   -3.5359  -15.9198   32.0595 C   0  0  0  0  0  0  0  0  0  0  0  0
   -4.3493  -14.9863   31.4165 C   0  0  0  0  0  0  0  0  0  0  0  0
   -2.8588  -17.1746   34.0090 N   0  0  0  0  0  0  0  0  0  0  0  0
   -0.9213  -18.3839   33.7742 O   0  0  0  0  0  0  0  0  0  0  0  0
   -0.9116  -16.1257   33.9067 O   0  0  0  0  0  0  0  0  0  0  0  0
   -1.7145  -15.0138   33.4299 C   0  0  0  0  0  0  0  0  0  0  0  0
   -3.8784  -13.4513   27.9342 C   0  0  0  0  0  0  0  0  0  0  0  0
   -3.7394  -13.4549   29.4655 C   0  0  1  0  0  0  0  0  0  0  0  0
   -4.2264  -14.7063   30.0440 N   0  0  0  0  0  0  0  0  0  0  0  0
   -2.3094  -13.1711   29.8948 C   0  0  2  0  0  0  0  0  0  0  0  0
   -2.0098  -11.8801   29.8715 F   0  0  0  0  0  0  0  0  0  0  0  0
   -1.4197  -13.7778   29.1062 F   0  0  0  0  0  0  0  0  0  0  0  0
   -2.0726  -13.5849   31.1295 F   0  0  0  0  0  0  0  0  0  0  0  0
  1 16  1  0
  1 23  2  0
  2  3  1  6
  5  2  1  6
  3  7  1  0
  3 25  1  1
  4 23  1  0
  4 24  2  0
  4 25  1  0
  6  5  1  6
 38  6  1  6
  7 26  2  0
  7 28  1  0
  8 26  1  0
  8 27  2  0
  9 34  1  0
  9 35  2  0
  9 36  1  0
 10 27  1  0
 10 29  1  0
 10 33  2  0
 11 14  1  0
 12 13  2  0
 12 17  1  0
 13 14  1  0
 14 15  2  0
 15 16  1  0
 16 17  2  0
 17 18  1  0
 18 19  1  0
 18 22  1  0
 19 20  2  0
 20 21  1  0
 21 22  2  0
 27 28  1  0
 29 30  2  0
 30 31  1  0
 31 32  2  0
 31 34  1  0
 32 33  1  0
 33 40  1  0
 37 36  1  6
 38 39  1  0
 39 40  1  6
 39 41  1  0
 41 42  1  1
 41 43  1  0
 41 44  1  0
M  END
$$$$
