
     RDKit          3D

 44 48  0  0  0  0  0  0  0  0999 V2000
   97.3107    4.4581   15.3536 C   0  0  0  0  0  0  0  0  0  0  0  0
  100.9241    2.0563   14.0411 C   0  0  0  0  0  0  0  0  0  0  0  0
   99.5587    2.5274   14.5794 C   0  0  1  0  0  0  0  0  0  0  0  0
   99.2192    3.5492   16.7425 C   0  0  0  0  0  0  0  0  0  0  0  0
  101.0667    2.1880   12.4835 C   0  0  0  0  0  0  0  0  0  0  0  0
  100.6764    3.5596   11.8438 C   0  0  0  0  0  0  0  0  0  0  0  0
   98.4551    1.8842   13.7911 C   0  0  0  0  0  0  0  0  0  0  0  0
   97.3077    0.4651   12.6752 C   0  0  0  0  0  0  0  0  0  0  0  0
   92.2317    4.4439    8.6093 C   0  0  0  0  0  0  0  0  0  0  0  0
   96.0579    2.1810   11.1622 C   0  0  0  0  0  0  0  0  0  0  0  0
   95.6657    9.3108   15.9026 Cl  0  0  0  0  0  0  0  0  0  0  0  0
   95.3121    6.6220   12.9670 C   0  0  0  0  0  0  0  0  0  0  0  0
   95.2200    7.7939   13.7103 C   0  0  0  0  0  0  0  0  0  0  0  0
   95.7850    7.8425   14.9683 C   0  0  0  0  0  0  0  0  0  0  0  0
   96.4343    6.7502   15.5117 C   0  0  0  0  0  0  0  0  0  0  0  0
   96.5305    5.5608   14.7764 C   0  0  0  0  0  0  0  0  0  0  0  0
   95.9489    5.5026   13.4964 C   0  0  0  0  0  0  0  0  0  0  0  0
   95.9688    4.2927   12.7365 N   0  0  0  0  0  0  0  0  0  0  0  0
   96.8712    3.7796   11.8919 C   0  0  0  0  0  0  0  0  0  0  0  0
   96.4033    2.6852   11.3614 N   0  0  0  0  0  0  0  0  0  0  0  0
   95.1778    2.5054   11.9144 N   0  0  0  0  0  0  0  0  0  0  0  0
   94.8978    3.4665   12.7387 N   0  0  0  0  0  0  0  0  0  0  0  0
   98.4046    4.5995   16.0913 C   0  0  0  0  0  0  0  0  0  0  0  0
   99.7469    3.7228   17.8509 O   0  0  0  0  0  0  0  0  0  0  0  0
   99.4148    2.4165   16.0309 N   0  0  0  0  0  0  0  0  0  0  0  0
   98.2664    0.5848   13.6553 N   0  0  0  0  0  0  0  0  0  0  0  0
   96.9201    1.7157   12.2479 C   0  0  0  0  0  0  0  0  0  0  0  0
   97.6515    2.5971   12.9911 N   0  0  0  0  0  0  0  0  0  0  0  0
   94.7551    1.6894   11.0545 C   0  0  0  0  0  0  0  0  0  0  0  0
   93.8839    2.2051   10.1119 C   0  0  0  0  0  0  0  0  0  0  0  0
   94.3009    3.2193    9.2497 C   0  0  0  0  0  0  0  0  0  0  0  0
   95.6135    3.6874    9.3236 C   0  0  0  0  0  0  0  0  0  0  0  0
   96.5027    3.1804   10.2717 C   0  0  0  0  0  0  0  0  0  0  0  0
   93.4194    3.8430    8.3261 N   0  0  0  0  0  0  0  0  0  0  0  0
   92.0847    5.5605    9.0610 O   0  0  0  0  0  0  0  0  0  0  0  0
   91.2169    3.6208    8.2852 O   0  0  0  0  0  0  0  0  0  0  0  0
   89.9462    3.8975    8.9308 C   0  0  0  0  0  0  0  0  0  0  0  0
  100.3214    3.5231   10.3426 C   0  0  0  0  0  0  0  0  0  0  0  0
   99.0129    2.7854   10.0140 C   0  0  1  0  0  0  0  0  0  0  0  0
   97.8431    3.5998   10.3399 N   0  0  0  0  0  0  0  0  0  0  0  0
   98.9795    2.3314    8.5641 C   0  0  2  0  0  0  0  0  0  0  0  0
   98.1637    1.3063    8.3625 F   0  0  0  0  0  0  0  0  0  0  0  0
  100.1820    1.9454    8.1320 F   0  0  0  0  0  0  0  0  0  0  0  0
   98.5719    3.2951    7.7535 F   0  0  0  0  0  0  0  0  0  0  0  0
  1 16  1  0
  1 23  2  0
  2  3  1  6
  5  2  1  6
  3  7  1  0
  3 25  1  1
  4 23  1  0
  4 24  2  0
  4 25  1  0
  6  5  1  6
 38  6  1  6
  7 26  2  0
  7 28  1  0
  8 26  1  0
  8 27  2  0
  9 34  1  0
  9 35  2  0
  9 36  1  0
 10 27  1  0
 10 29  1  0
 10 33  2  0
 11 14  1  0
 12 13  2  0
 12 17  1  0
 13 14  1  0
 14 15  2  0
 15 16  1  0
 16 17  2  0
 17 18  1  0
 18 19  1  0
 18 22  1  0
 19 20  2  0
 20 21  1  0
 21 22  2  0
 27 28  1  0
 29 30  2  0
 30 31  1  0
 31 32  2  0
 31 34  1  0
 32 33  1  0
 33 40  1  0
 37 36  1  6
 38 39  1  0
 39 40  1  6
 39 41  1  0
 41 42  1  1
 41 43  1  0
 41 44  1  0
M  END
$$$$
