
     RDKit          3D

 44 48  0  0  0  0  0  0  0  0999 V2000
  -64.0830   -6.1841  -46.7924 C   0  0  0  0  0  0  0  0  0  0  0  0
  -61.9867   -5.2611  -42.6923 C   0  0  0  0  0  0  0  0  0  0  0  0
  -62.5916   -6.6765  -42.7762 C   0  0  1  0  0  0  0  0  0  0  0  0
  -64.2089   -7.2184  -44.4877 C   0  0  0  0  0  0  0  0  0  0  0  0
  -61.6459   -4.8075  -41.2288 C   0  0  0  0  0  0  0  0  0  0  0  0
  -60.8235   -5.8012  -40.3460 C   0  0  0  0  0  0  0  0  0  0  0  0
  -63.7252   -6.8006  -41.8001 C   0  0  0  0  0  0  0  0  0  0  0  0
  -65.4333   -6.3522  -40.5932 C   0  0  0  0  0  0  0  0  0  0  0  0
  -64.2085   -9.9800  -33.9313 C   0  0  0  0  0  0  0  0  0  0  0  0
  -64.8407   -7.9252  -38.6007 C   0  0  0  0  0  0  0  0  0  0  0  0
  -67.0587   -2.2566  -45.2838 Cl  0  0  0  0  0  0  0  0  0  0  0  0
  -63.2595   -2.4950  -46.5009 C   0  0  0  0  0  0  0  0  0  0  0  0
  -64.4758   -2.0035  -46.0391 C   0  0  0  0  0  0  0  0  0  0  0  0
  -65.5316   -2.8735  -45.8586 C   0  0  0  0  0  0  0  0  0  0  0  0
  -65.4116   -4.2225  -46.1335 C   0  0  0  0  0  0  0  0  0  0  0  0
  -64.1935   -4.7314  -46.6043 C   0  0  0  0  0  0  0  0  0  0  0  0
  -63.1158   -3.8476  -46.7985 C   0  0  0  0  0  0  0  0  0  0  0  0
  -61.8751   -4.3110  -47.3348 N   0  0  0  0  0  0  0  0  0  0  0  0
  -61.2106   -5.4636  -47.1894 C   0  0  0  0  0  0  0  0  0  0  0  0
  -60.0635   -5.3892  -47.8032 N   0  0  0  0  0  0  0  0  0  0  0  0
  -60.0284   -4.1551  -48.3650 N   0  0  0  0  0  0  0  0  0  0  0  0
  -61.1070   -3.4908  -48.0877 N   0  0  0  0  0  0  0  0  0  0  0  0
  -64.5079   -7.1010  -45.9326 C   0  0  0  0  0  0  0  0  0  0  0  0
  -65.1062   -7.3401  -43.6410 O   0  0  0  0  0  0  0  0  0  0  0  0
  -62.9078   -7.1147  -44.1356 N   0  0  0  0  0  0  0  0  0  0  0  0
  -64.8032   -6.0392  -41.7759 N   0  0  0  0  0  0  0  0  0  0  0  0
  -64.7194   -7.3245  -39.9285 C   0  0  0  0  0  0  0  0  0  0  0  0
  -63.6508   -7.6041  -40.7311 N   0  0  0  0  0  0  0  0  0  0  0  0
  -66.0583   -8.4806  -38.2014 C   0  0  0  0  0  0  0  0  0  0  0  0
  -66.1617   -9.1613  -37.0016 C   0  0  0  0  0  0  0  0  0  0  0  0
  -65.0494   -9.2934  -36.1702 C   0  0  0  0  0  0  0  0  0  0  0  0
  -63.8396   -8.7059  -36.5427 C   0  0  0  0  0  0  0  0  0  0  0  0
  -63.7183   -8.0202  -37.7515 C   0  0  0  0  0  0  0  0  0  0  0  0
  -65.0812  -10.0575  -34.9726 N   0  0  0  0  0  0  0  0  0  0  0  0
  -64.2499  -10.6382  -32.9127 O   0  0  0  0  0  0  0  0  0  0  0  0
  -63.2535   -9.0716  -34.2050 O   0  0  0  0  0  0  0  0  0  0  0  0
  -62.5237   -9.2735  -35.4438 C   0  0  0  0  0  0  0  0  0  0  0  0
  -60.9425   -5.6001  -38.8208 C   0  0  0  0  0  0  0  0  0  0  0  0
  -62.3257   -5.9352  -38.2389 C   0  0  1  0  0  0  0  0  0  0  0  0
  -62.5257   -7.3797  -38.1320 N   0  0  0  0  0  0  0  0  0  0  0  0
  -62.5471   -5.2495  -36.9008 C   0  0  2  0  0  0  0  0  0  0  0  0
  -63.6569   -4.5254  -36.8689 F   0  0  0  0  0  0  0  0  0  0  0  0
  -61.5481   -4.4202  -36.5914 F   0  0  0  0  0  0  0  0  0  0  0  0
  -62.6436   -6.1206  -35.9089 F   0  0  0  0  0  0  0  0  0  0  0  0
  1 16  1  0
  1 23  2  0
  2  3  1  6
  5  2  1  6
  3  7  1  0
  3 25  1  6
  4 23  1  0
  4 24  2  0
  4 25  1  0
  6  5  1  6
 38  6  1  6
  7 26  2  0
  7 28  1  0
  8 26  1  0
  8 27  2  0
  9 34  1  0
  9 35  2  0
  9 36  1  0
 10 27  1  0
 10 29  1  0
 10 33  2  0
 11 14  1  0
 12 13  2  0
 12 17  1  0
 13 14  1  0
 14 15  2  0
 15 16  1  0
 16 17  2  0
 17 18  1  0
 18 19  1  0
 18 22  1  0
 19 20  2  0
 20 21  1  0
 21 22  2  0
 27 28  1  0
 29 30  2  0
 30 31  1  0
 31 32  2  0
 31 34  1  0
 32 33  1  0
 33 40  1  0
 37 36  1  6
 38 39  1  0
 39 40  1  1
 39 41  1  0
 41 42  1  6
 41 43  1  0
 41 44  1  0
M  END
$$$$
