
     RDKit          3D

 44 48  0  0  0  0  0  0  0  0999 V2000
 -154.5047 -412.9661 -192.4713 C   0  0  0  0  0  0  0  0  0  0  0  0
 -154.9020 -414.6515 -188.0687 C   0  0  0  0  0  0  0  0  0  0  0  0
 -153.7076 -413.8313 -188.5950 C   0  0  1  0  0  0  0  0  0  0  0  0
 -155.1968 -412.6207 -190.0631 C   0  0  0  0  0  0  0  0  0  0  0  0
 -154.4824 -415.9622 -187.3138 C   0  0  0  0  0  0  0  0  0  0  0  0
 -153.3867 -415.8296 -186.2070 C   0  0  0  0  0  0  0  0  0  0  0  0
 -152.7775 -414.7267 -189.3607 C   0  0  0  0  0  0  0  0  0  0  0  0
 -152.0244 -416.2751 -190.6298 C   0  0  0  0  0  0  0  0  0  0  0  0
 -145.4363 -419.3601 -188.4666 C   0  0  0  0  0  0  0  0  0  0  0  0
 -149.7776 -416.6622 -189.3657 C   0  0  0  0  0  0  0  0  0  0  0  0
 -157.7742 -411.0845 -195.9821 Cl  0  0  0  0  0  0  0  0  0  0  0  0
 -155.2706 -414.1997 -195.9733 C   0  0  0  0  0  0  0  0  0  0  0  0
 -156.2125 -413.2564 -196.3698 C   0  0  0  0  0  0  0  0  0  0  0  0
 -156.5893 -412.2654 -195.4868 C   0  0  0  0  0  0  0  0  0  0  0  0
 -156.0583 -412.1919 -194.2130 C   0  0  0  0  0  0  0  0  0  0  0  0
 -155.1118 -413.1385 -193.7977 C   0  0  0  0  0  0  0  0  0  0  0  0
 -154.7300 -414.1568 -194.6908 C   0  0  0  0  0  0  0  0  0  0  0  0
 -153.8153 -415.1785 -194.2898 N   0  0  0  0  0  0  0  0  0  0  0  0
 -152.6707 -415.6179 -194.8264 C   0  0  0  0  0  0  0  0  0  0  0  0
 -152.2338 -416.6423 -194.1501 N   0  0  0  0  0  0  0  0  0  0  0  0
 -153.1289 -416.8283 -193.1482 N   0  0  0  0  0  0  0  0  0  0  0  0
 -154.0901 -415.9608 -193.2211 N   0  0  0  0  0  0  0  0  0  0  0  0
 -155.0179 -412.2441 -191.4833 C   0  0  0  0  0  0  0  0  0  0  0  0
 -156.3136 -412.8748 -189.5885 O   0  0  0  0  0  0  0  0  0  0  0  0
 -154.0845 -412.6032 -189.2949 N   0  0  0  0  0  0  0  0  0  0  0  0
 -153.1043 -415.4492 -190.4159 N   0  0  0  0  0  0  0  0  0  0  0  0
 -151.0471 -416.0150 -189.6948 C   0  0  0  0  0  0  0  0  0  0  0  0
 -151.5467 -415.0112 -188.9158 N   0  0  0  0  0  0  0  0  0  0  0  0
 -148.8281 -416.8723 -190.3680 C   0  0  0  0  0  0  0  0  0  0  0  0
 -147.5752 -417.3696 -190.0575 C   0  0  0  0  0  0  0  0  0  0  0  0
 -147.2480 -417.6759 -188.7365 C   0  0  0  0  0  0  0  0  0  0  0  0
 -148.2050 -417.5074 -187.7349 C   0  0  0  0  0  0  0  0  0  0  0  0
 -149.4714 -417.0029 -188.0315 C   0  0  0  0  0  0  0  0  0  0  0  0
 -145.9480 -418.1040 -188.3544 N   0  0  0  0  0  0  0  0  0  0  0  0
 -144.3822 -419.6592 -188.9877 O   0  0  0  0  0  0  0  0  0  0  0  0
 -146.2664 -420.2432 -187.8806 O   0  0  0  0  0  0  0  0  0  0  0  0
 -147.6372 -419.8003 -187.6999 C   0  0  0  0  0  0  0  0  0  0  0  0
 -152.6270 -417.1258 -185.8561 C   0  0  0  0  0  0  0  0  0  0  0  0
 -151.7038 -417.6460 -186.9703 C   0  0  1  0  0  0  0  0  0  0  0  0
 -150.4704 -416.8652 -187.0515 N   0  0  0  0  0  0  0  0  0  0  0  0
 -151.4065 -419.1267 -186.8001 C   0  0  2  0  0  0  0  0  0  0  0  0
 -152.3566 -419.9051 -187.2986 F   0  0  0  0  0  0  0  0  0  0  0  0
 -151.2768 -419.4674 -185.5161 F   0  0  0  0  0  0  0  0  0  0  0  0
 -150.2832 -419.4782 -187.4055 F   0  0  0  0  0  0  0  0  0  0  0  0
  1 16  1  0
  1 23  2  0
  2  3  1  6
  5  2  1  6
  3  7  1  0
  3 25  1  6
  4 23  1  0
  4 24  2  0
  4 25  1  0
  6  5  1  6
 38  6  1  6
  7 26  2  0
  7 28  1  0
  8 26  1  0
  8 27  2  0
  9 34  1  0
  9 35  2  0
  9 36  1  0
 10 27  1  0
 10 29  1  0
 10 33  2  0
 11 14  1  0
 12 13  2  0
 12 17  1  0
 13 14  1  0
 14 15  2  0
 15 16  1  0
 16 17  2  0
 17 18  1  0
 18 19  1  0
 18 22  1  0
 19 20  2  0
 20 21  1  0
 21 22  2  0
 27 28  1  0
 29 30  2  0
 30 31  1  0
 31 32  2  0
 31 34  1  0
 32 33  1  0
 33 40  1  0
 37 36  1  6
 38 39  1  0
 39 40  1  1
 39 41  1  0
 41 42  1  6
 41 43  1  0
 41 44  1  0
M  END
$$$$
