
     RDKit          3D

 44 48  0  0  0  0  0  0  0  0999 V2000
 -165.5509  -34.2552 -611.0244 C   0  0  0  0  0  0  0  0  0  0  0  0
 -169.3546  -35.4954 -613.1591 C   0  0  0  0  0  0  0  0  0  0  0  0
 -168.3068  -34.5153 -612.5955 C   0  0  1  0  0  0  0  0  0  0  0  0
 -166.3448  -33.2413 -613.2009 C   0  0  0  0  0  0  0  0  0  0  0  0
 -170.5695  -35.7410 -612.1960 C   0  0  0  0  0  0  0  0  0  0  0  0
 -171.2737  -34.4801 -611.5983 C   0  0  0  0  0  0  0  0  0  0  0  0
 -167.9303  -34.9242 -611.2012 C   0  0  0  0  0  0  0  0  0  0  0  0
 -167.4682  -36.1053 -609.4786 C   0  0  0  0  0  0  0  0  0  0  0  0
 -170.1010  -31.5542 -603.8448 C   0  0  0  0  0  0  0  0  0  0  0  0
 -168.3691  -34.4342 -607.6922 C   0  0  0  0  0  0  0  0  0  0  0  0
 -163.6150  -37.5962 -607.6114 Cl  0  0  0  0  0  0  0  0  0  0  0  0
 -163.7214  -37.5244 -611.6060 C   0  0  0  0  0  0  0  0  0  0  0  0
 -163.4898  -37.9178 -610.2921 C   0  0  0  0  0  0  0  0  0  0  0  0
 -163.9097  -37.1051 -609.2593 C   0  0  0  0  0  0  0  0  0  0  0  0
 -164.5489  -35.9036 -609.4991 C   0  0  0  0  0  0  0  0  0  0  0  0
 -164.7849  -35.4915 -610.8178 C   0  0  0  0  0  0  0  0  0  0  0  0
 -164.3513  -36.3122 -611.8755 C   0  0  0  0  0  0  0  0  0  0  0  0
 -164.5151  -35.9037 -613.2347 N   0  0  0  0  0  0  0  0  0  0  0  0
 -165.1480  -36.4680 -614.2701 C   0  0  0  0  0  0  0  0  0  0  0  0
 -164.9417  -35.7641 -615.3472 N   0  0  0  0  0  0  0  0  0  0  0  0
 -164.1721  -34.7171 -614.9582 N   0  0  0  0  0  0  0  0  0  0  0  0
 -163.9006  -34.7889 -613.6922 N   0  0  0  0  0  0  0  0  0  0  0  0
 -165.4205  -33.4390 -612.0622 C   0  0  0  0  0  0  0  0  0  0  0  0
 -166.4034  -32.1678 -613.8182 O   0  0  0  0  0  0  0  0  0  0  0  0
 -167.1720  -34.2720 -613.4862 N   0  0  0  0  0  0  0  0  0  0  0  0
 -167.4296  -36.0953 -610.8544 N   0  0  0  0  0  0  0  0  0  0  0  0
 -167.9826  -34.9133 -609.0187 C   0  0  0  0  0  0  0  0  0  0  0  0
 -168.2465  -34.1754 -610.1368 N   0  0  0  0  0  0  0  0  0  0  0  0
 -167.4537  -34.4988 -606.6396 C   0  0  0  0  0  0  0  0  0  0  0  0
 -167.7541  -33.9406 -605.4100 C   0  0  0  0  0  0  0  0  0  0  0  0
 -168.9825  -33.3123 -605.2047 C   0  0  0  0  0  0  0  0  0  0  0  0
 -169.9189  -33.2796 -606.2389 C   0  0  0  0  0  0  0  0  0  0  0  0
 -169.6290  -33.8343 -607.4858 C   0  0  0  0  0  0  0  0  0  0  0  0
 -169.3031  -32.6469 -603.9907 N   0  0  0  0  0  0  0  0  0  0  0  0
 -169.8094  -30.4119 -604.1323 O   0  0  0  0  0  0  0  0  0  0  0  0
 -171.2973  -31.9271 -603.3528 O   0  0  0  0  0  0  0  0  0  0  0  0
 -171.3485  -33.2433 -602.7419 C   0  0  0  0  0  0  0  0  0  0  0  0
 -172.0786  -34.7121 -610.3024 C   0  0  0  0  0  0  0  0  0  0  0  0
 -171.2220  -35.0484 -609.0708 C   0  0  1  0  0  0  0  0  0  0  0  0
 -170.5688  -33.8566 -608.5316 N   0  0  0  0  0  0  0  0  0  0  0  0
 -172.0378  -35.7582 -608.0030 C   0  0  2  0  0  0  0  0  0  0  0  0
 -172.6191  -36.8637 -608.4468 F   0  0  0  0  0  0  0  0  0  0  0  0
 -173.0153  -34.9861 -607.5234 F   0  0  0  0  0  0  0  0  0  0  0  0
 -171.2929  -36.1195 -606.9703 F   0  0  0  0  0  0  0  0  0  0  0  0
  1 16  1  0
  1 23  2  0
  2  3  1  6
  5  2  1  6
  3  7  1  0
  3 25  1  6
  4 23  1  0
  4 24  2  0
  4 25  1  0
  6  5  1  6
 38  6  1  6
  7 26  2  0
  7 28  1  0
  8 26  1  0
  8 27  2  0
  9 34  1  0
  9 35  2  0
  9 36  1  0
 10 27  1  0
 10 29  1  0
 10 33  2  0
 11 14  1  0
 12 13  2  0
 12 17  1  0
 13 14  1  0
 14 15  2  0
 15 16  1  0
 16 17  2  0
 17 18  1  0
 18 19  1  0
 18 22  1  0
 19 20  2  0
 20 21  1  0
 21 22  2  0
 27 28  1  0
 29 30  2  0
 30 31  1  0
 31 32  2  0
 31 34  1  0
 32 33  1  0
 33 40  1  0
 37 36  1  6
 38 39  1  0
 39 40  1  1
 39 41  1  0
 41 42  1  6
 41 43  1  0
 41 44  1  0
M  END
$$$$
