
     RDKit          3D

 44 48  0  0  0  0  0  0  0  0999 V2000
    0.5900  -43.0930  288.5431 C   0  0  0  0  0  0  0  0  0  0  0  0
   -3.9208  -43.0207  287.8796 C   0  0  0  0  0  0  0  0  0  0  0  0
   -3.7117  -41.5323  287.5374 C   0  0  1  0  0  0  0  0  0  0  0  0
   -1.3577  -42.0348  287.3248 C   0  0  0  0  0  0  0  0  0  0  0  0
   -5.4254  -43.4670  287.8568 C   0  0  0  0  0  0  0  0  0  0  0  0
   -6.2673  -43.0770  286.5989 C   0  0  0  0  0  0  0  0  0  0  0  0
   -4.6301  -40.6876  288.3718 C   0  0  0  0  0  0  0  0  0  0  0  0
   -5.7963  -39.9484  290.0054 C   0  0  0  0  0  0  0  0  0  0  0  0
  -11.5795  -36.5607  286.2064 C   0  0  0  0  0  0  0  0  0  0  0  0
   -7.6935  -38.8666  288.5821 C   0  0  0  0  0  0  0  0  0  0  0  0
    4.5169  -39.7576  288.6411 Cl  0  0  0  0  0  0  0  0  0  0  0  0
    3.5912  -42.8176  286.2430 C   0  0  0  0  0  0  0  0  0  0  0  0
    4.2497  -41.7373  286.8204 C   0  0  0  0  0  0  0  0  0  0  0  0
    3.6935  -41.1156  287.9196 C   0  0  0  0  0  0  0  0  0  0  0  0
    2.4917  -41.5364  288.4568 C   0  0  0  0  0  0  0  0  0  0  0  0
    1.8141  -42.6207  287.8824 C   0  0  0  0  0  0  0  0  0  0  0  0
    2.3722  -43.2531  286.7561 C   0  0  0  0  0  0  0  0  0  0  0  0
    1.6868  -44.3220  286.1008 N   0  0  0  0  0  0  0  0  0  0  0  0
    0.7102  -45.1424  286.5062 C   0  0  0  0  0  0  0  0  0  0  0  0
    0.4710  -46.0299  285.5826 N   0  0  0  0  0  0  0  0  0  0  0  0
    1.3148  -45.7334  284.5628 N   0  0  0  0  0  0  0  0  0  0  0  0
    2.0579  -44.7131  284.8604 N   0  0  0  0  0  0  0  0  0  0  0  0
   -0.5848  -42.4772  288.5070 C   0  0  0  0  0  0  0  0  0  0  0  0
   -1.1014  -42.4455  286.1835 O   0  0  0  0  0  0  0  0  0  0  0  0
   -2.3128  -41.1044  287.5484 N   0  0  0  0  0  0  0  0  0  0  0  0
   -4.6653  -40.6666  289.6912 N   0  0  0  0  0  0  0  0  0  0  0  0
   -6.4180  -39.5298  288.8499 C   0  0  0  0  0  0  0  0  0  0  0  0
   -5.6410  -39.9969  287.8290 N   0  0  0  0  0  0  0  0  0  0  0  0
   -8.0028  -37.6721  289.2363 C   0  0  0  0  0  0  0  0  0  0  0  0
   -9.1458  -36.9653  288.9082 C   0  0  0  0  0  0  0  0  0  0  0  0
  -10.0096  -37.4439  287.9230 C   0  0  0  0  0  0  0  0  0  0  0  0
   -9.7290  -38.6573  287.2935 C   0  0  0  0  0  0  0  0  0  0  0  0
   -8.5781  -39.3795  287.6103 C   0  0  0  0  0  0  0  0  0  0  0  0
  -11.1473  -36.7120  287.4879 N   0  0  0  0  0  0  0  0  0  0  0  0
  -11.0738  -37.0509  285.2182 O   0  0  0  0  0  0  0  0  0  0  0  0
  -12.6886  -35.7979  286.1876 O   0  0  0  0  0  0  0  0  0  0  0  0
  -13.1454  -35.3766  284.8753 C   0  0  0  0  0  0  0  0  0  0  0  0
   -7.7969  -43.0450  286.7986 C   0  0  0  0  0  0  0  0  0  0  0  0
   -8.2973  -41.9160  287.7148 C   0  0  1  0  0  0  0  0  0  0  0  0
   -8.2925  -40.6262  287.0261 N   0  0  0  0  0  0  0  0  0  0  0  0
   -9.6710  -42.2296  288.2842 C   0  0  2  0  0  0  0  0  0  0  0  0
   -9.6185  -42.9765  289.3780 F   0  0  0  0  0  0  0  0  0  0  0  0
  -10.4353  -42.8918  287.4131 F   0  0  0  0  0  0  0  0  0  0  0  0
  -10.3311  -41.1313  288.6160 F   0  0  0  0  0  0  0  0  0  0  0  0
  1 16  1  0
  1 23  2  0
  2  3  1  6
  5  2  1  6
  3  7  1  0
  3 25  1  1
  4 23  1  0
  4 24  2  0
  4 25  1  0
  6  5  1  6
 38  6  1  6
  7 26  2  0
  7 28  1  0
  8 26  1  0
  8 27  2  0
  9 34  1  0
  9 35  2  0
  9 36  1  0
 10 27  1  0
 10 29  1  0
 10 33  2  0
 11 14  1  0
 12 13  2  0
 12 17  1  0
 13 14  1  0
 14 15  2  0
 15 16  1  0
 16 17  2  0
 17 18  1  0
 18 19  1  0
 18 22  1  0
 19 20  2  0
 20 21  1  0
 21 22  2  0
 27 28  1  0
 29 30  2  0
 30 31  1  0
 31 32  2  0
 31 34  1  0
 32 33  1  0
 33 40  1  0
 37 36  1  6
 38 39  1  0
 39 40  1  6
 39 41  1  0
 41 42  1  1
 41 43  1  0
 41 44  1  0
M  END
$$$$
