
     RDKit          3D

 44 48  0  0  0  0  0  0  0  0999 V2000
 -376.3657 1068.2279-1938.5930 C   0  0  0  0  0  0  0  0  0  0  0  0
 -374.5045 1066.5166-1938.2405 C   0  0  0  0  0  0  0  0  0  0  0  0
 -374.8881 1066.9816-1936.8215 C   0  0  1  0  0  0  0  0  0  0  0  0
 -374.4720 1069.3104-1937.3126 C   0  0  0  0  0  0  0  0  0  0  0  0
 -375.1118 1065.1229-1938.6328 C   0  0  0  0  0  0  0  0  0  0  0  0
 -376.6421 1064.9175-1938.3906 C   0  0  0  0  0  0  0  0  0  0  0  0
 -374.6188 1065.8796-1935.8386 C   0  0  0  0  0  0  0  0  0  0  0  0
 -373.7237 1064.2126-1934.8407 C   0  0  0  0  0  0  0  0  0  0  0  0
 -379.8989 1061.0330-1931.5277 C   0  0  0  0  0  0  0  0  0  0  0  0
 -375.9252 1063.1816-1933.8994 C   0  0  0  0  0  0  0  0  0  0  0  0
 -372.5936 1064.9631-1939.8848 Cl  0  0  0  0  0  0  0  0  0  0  0  0
 -376.1996 1065.7211-1941.4319 C   0  0  0  0  0  0  0  0  0  0  0  0
 -374.9409 1065.1738-1941.2083 C   0  0  0  0  0  0  0  0  0  0  0  0
 -374.1743 1065.6464-1940.1632 C   0  0  0  0  0  0  0  0  0  0  0  0
 -374.6248 1066.6581-1939.3362 C   0  0  0  0  0  0  0  0  0  0  0  0
 -375.8892 1067.2230-1939.5526 C   0  0  0  0  0  0  0  0  0  0  0  0
 -376.6719 1066.7504-1940.6221 C   0  0  0  0  0  0  0  0  0  0  0  0
 -377.9403 1067.3385-1940.9182 N   0  0  0  0  0  0  0  0  0  0  0  0
 -378.2957 1068.5869-1941.2419 C   0  0  0  0  0  0  0  0  0  0  0  0
 -379.5935 1068.6655-1941.3286 N   0  0  0  0  0  0  0  0  0  0  0  0
 -380.0540 1067.4164-1941.0695 N   0  0  0  0  0  0  0  0  0  0  0  0
 -379.0734 1066.6068-1940.8141 N   0  0  0  0  0  0  0  0  0  0  0  0
 -375.6712 1069.2802-1938.1798 C   0  0  0  0  0  0  0  0  0  0  0  0
 -373.6088 1070.1942-1937.4189 O   0  0  0  0  0  0  0  0  0  0  0  0
 -374.3342 1068.2821-1936.4458 N   0  0  0  0  0  0  0  0  0  0  0  0
 -373.4491 1065.3031-1935.6344 N   0  0  0  0  0  0  0  0  0  0  0  0
 -375.0721 1064.1664-1934.5641 C   0  0  0  0  0  0  0  0  0  0  0  0
 -375.6105 1065.2510-1935.1942 N   0  0  0  0  0  0  0  0  0  0  0  0
 -375.5992 1062.7379-1932.6165 C   0  0  0  0  0  0  0  0  0  0  0  0
 -376.4552 1061.9020-1931.9219 C   0  0  0  0  0  0  0  0  0  0  0  0
 -377.6539 1061.4849-1932.5010 C   0  0  0  0  0  0  0  0  0  0  0  0
 -377.9676 1061.8912-1933.7987 C   0  0  0  0  0  0  0  0  0  0  0  0
 -377.1166 1062.7375-1934.5101 C   0  0  0  0  0  0  0  0  0  0  0  0
 -378.6068 1060.7007-1931.7966 N   0  0  0  0  0  0  0  0  0  0  0  0
 -380.8837 1060.5599-1932.0555 O   0  0  0  0  0  0  0  0  0  0  0  0
 -379.9368 1061.9597-1930.5527 O   0  0  0  0  0  0  0  0  0  0  0  0
 -378.7156 1062.7196-1930.3534 C   0  0  0  0  0  0  0  0  0  0  0  0
 -377.1123 1063.4521-1938.2778 C   0  0  0  0  0  0  0  0  0  0  0  0
 -376.6242 1062.7205-1937.0166 C   0  0  1  0  0  0  0  0  0  0  0  0
 -377.3840 1063.1261-1935.8348 N   0  0  0  0  0  0  0  0  0  0  0  0
 -376.6580 1061.2124-1937.2003 C   0  0  2  0  0  0  0  0  0  0  0  0
 -375.4496 1060.6776-1937.3057 F   0  0  0  0  0  0  0  0  0  0  0  0
 -377.3237 1060.8564-1938.3011 F   0  0  0  0  0  0  0  0  0  0  0  0
 -377.2461 1060.6035-1936.1827 F   0  0  0  0  0  0  0  0  0  0  0  0
  1 16  1  0
  1 23  2  0
  2  3  1  6
  5  2  1  6
  3  7  1  0
  3 25  1  1
  4 23  1  0
  4 24  2  0
  4 25  1  0
  6  5  1  6
 38  6  1  6
  7 26  2  0
  7 28  1  0
  8 26  1  0
  8 27  2  0
  9 34  1  0
  9 35  2  0
  9 36  1  0
 10 27  1  0
 10 29  1  0
 10 33  2  0
 11 14  1  0
 12 13  2  0
 12 17  1  0
 13 14  1  0
 14 15  2  0
 15 16  1  0
 16 17  2  0
 17 18  1  0
 18 19  1  0
 18 22  1  0
 19 20  2  0
 20 21  1  0
 21 22  2  0
 27 28  1  0
 29 30  2  0
 30 31  1  0
 31 32  2  0
 31 34  1  0
 32 33  1  0
 33 40  1  0
 37 36  1  6
 38 39  1  0
 39 40  1  1
 39 41  1  0
 41 42  1  6
 41 43  1  0
 41 44  1  0
M  END
$$$$
