
     RDKit          3D

 44 48  0  0  0  0  0  0  0  0999 V2000
   41.9474   32.0801   22.4532 C   0  0  0  0  0  0  0  0  0  0  0  0
   43.1280   35.3752   18.5743 C   0  0  0  0  0  0  0  0  0  0  0  0
   41.7504   35.5524   19.2430 C   0  0  1  0  0  0  0  0  0  0  0  0
   42.5276   34.0319   20.9527 C   0  0  0  0  0  0  0  0  0  0  0  0
   43.2029   35.9628   17.1208 C   0  0  0  0  0  0  0  0  0  0  0  0
   42.6835   37.4222   16.9125 C   0  0  0  0  0  0  0  0  0  0  0  0
   40.6724   35.0725   18.3152 C   0  0  0  0  0  0  0  0  0  0  0  0
   39.5995   33.9437   16.8490 C   0  0  0  0  0  0  0  0  0  0  0  0
   34.1308   37.6574   13.1785 C   0  0  0  0  0  0  0  0  0  0  0  0
   38.1651   35.9102   15.9159 C   0  0  0  0  0  0  0  0  0  0  0  0
   36.8441   32.1854   23.1611 Cl  0  0  0  0  0  0  0  0  0  0  0  0
   39.2418   29.9297   20.8950 C   0  0  0  0  0  0  0  0  0  0  0  0
   38.1124   30.4752   21.4961 C   0  0  0  0  0  0  0  0  0  0  0  0
   38.2601   31.5041   22.4035 C   0  0  0  0  0  0  0  0  0  0  0  0
   39.5060   32.0013   22.7361 C   0  0  0  0  0  0  0  0  0  0  0  0
   40.6535   31.4581   22.1423 C   0  0  0  0  0  0  0  0  0  0  0  0
   40.5097   30.4028   21.2225 C   0  0  0  0  0  0  0  0  0  0  0  0
   41.6545   29.7776   20.6393 N   0  0  0  0  0  0  0  0  0  0  0  0
   42.2891   29.9747   19.4776 C   0  0  0  0  0  0  0  0  0  0  0  0
   43.2365   29.0907   19.3396 N   0  0  0  0  0  0  0  0  0  0  0  0
   43.1991   28.3353   20.4655 N   0  0  0  0  0  0  0  0  0  0  0  0
   42.2493   28.7303   21.2551 N   0  0  0  0  0  0  0  0  0  0  0  0
   42.2550   33.3531   22.2394 C   0  0  0  0  0  0  0  0  0  0  0  0
   43.5236   33.7595   20.2665 O   0  0  0  0  0  0  0  0  0  0  0  0
   41.6687   35.0150   20.6012 N   0  0  0  0  0  0  0  0  0  0  0  0
   40.5810   33.8565   17.8097 N   0  0  0  0  0  0  0  0  0  0  0  0
   39.1000   35.2266   16.8087 C   0  0  0  0  0  0  0  0  0  0  0  0
   39.7870   35.9147   17.7671 N   0  0  0  0  0  0  0  0  0  0  0  0
   36.9017   35.3613   15.6858 C   0  0  0  0  0  0  0  0  0  0  0  0
   35.9590   36.0510   14.9446 C   0  0  0  0  0  0  0  0  0  0  0  0
   36.2638   37.3028   14.4097 C   0  0  0  0  0  0  0  0  0  0  0  0
   37.5376   37.8398   14.6006 C   0  0  0  0  0  0  0  0  0  0  0  0
   38.4976   37.1585   15.3492 C   0  0  0  0  0  0  0  0  0  0  0  0
   35.3031   38.0890   13.7183 N   0  0  0  0  0  0  0  0  0  0  0  0
   34.0080   36.8078   12.3209 O   0  0  0  0  0  0  0  0  0  0  0  0
   33.0993   38.2971   13.7608 O   0  0  0  0  0  0  0  0  0  0  0  0
   32.4151   39.2771   12.9365 C   0  0  0  0  0  0  0  0  0  0  0  0
   42.2779   37.7907   15.4701 C   0  0  0  0  0  0  0  0  0  0  0  0
   41.0200   37.0705   14.9572 C   0  0  1  0  0  0  0  0  0  0  0  0
   39.8028   37.6531   15.5201 N   0  0  0  0  0  0  0  0  0  0  0  0
   40.9693   37.0535   13.4384 C   0  0  2  0  0  0  0  0  0  0  0  0
   42.1453   37.3022   12.8795 F   0  0  0  0  0  0  0  0  0  0  0  0
   40.1230   37.9656   12.9550 F   0  0  0  0  0  0  0  0  0  0  0  0
   40.5766   35.8795   12.9699 F   0  0  0  0  0  0  0  0  0  0  0  0
  1 16  1  0
  1 23  2  0
  2  3  1  6
  5  2  1  6
  3  7  1  0
  3 25  1  1
  4 23  1  0
  4 24  2  0
  4 25  1  0
  6  5  1  6
 38  6  1  6
  7 26  2  0
  7 28  1  0
  8 26  1  0
  8 27  2  0
  9 34  1  0
  9 35  2  0
  9 36  1  0
 10 27  1  0
 10 29  1  0
 10 33  2  0
 11 14  1  0
 12 13  2  0
 12 17  1  0
 13 14  1  0
 14 15  2  0
 15 16  1  0
 16 17  2  0
 17 18  1  0
 18 19  1  0
 18 22  1  0
 19 20  2  0
 20 21  1  0
 21 22  2  0
 27 28  1  0
 29 30  2  0
 30 31  1  0
 31 32  2  0
 31 34  1  0
 32 33  1  0
 33 40  1  0
 37 36  1  6
 38 39  1  0
 39 40  1  1
 39 41  1  0
 41 42  1  6
 41 43  1  0
 41 44  1  0
M  END
$$$$
