
     RDKit          3D

 44 48  0  0  0  0  0  0  0  0999 V2000
   -5.2094    7.9743   19.9170 C   0  0  0  0  0  0  0  0  0  0  0  0
   -8.7732    7.4979   22.5378 C   0  0  0  0  0  0  0  0  0  0  0  0
   -9.2173    8.6027   21.5588 C   0  0  1  0  0  0  0  0  0  0  0  0
   -7.4560    9.1337   19.9922 C   0  0  0  0  0  0  0  0  0  0  0  0
   -9.4218    7.6202   23.9619 C   0  0  0  0  0  0  0  0  0  0  0  0
  -10.9718    7.8105   24.0271 C   0  0  0  0  0  0  0  0  0  0  0  0
   -9.0591    9.9469   22.2077 C   0  0  0  0  0  0  0  0  0  0  0  0
   -8.3046   11.5643   23.3867 C   0  0  0  0  0  0  0  0  0  0  0  0
  -14.3688   15.1566   26.4126 C   0  0  0  0  0  0  0  0  0  0  0  0
  -10.6043   12.6635   23.9334 C   0  0  0  0  0  0  0  0  0  0  0  0
   -0.5800    5.7125   20.0122 Cl  0  0  0  0  0  0  0  0  0  0  0  0
   -4.1299    4.6090   18.5449 C   0  0  0  0  0  0  0  0  0  0  0  0
   -2.7871    4.6110   18.9071 C   0  0  0  0  0  0  0  0  0  0  0  0
   -2.2653    5.7078   19.5618 C   0  0  0  0  0  0  0  0  0  0  0  0
   -3.0443    6.8098   19.8598 C   0  0  0  0  0  0  0  0  0  0  0  0
   -4.3979    6.8243   19.4965 C   0  0  0  0  0  0  0  0  0  0  0  0
   -4.9336    5.7120   18.8210 C   0  0  0  0  0  0  0  0  0  0  0  0
   -6.2917    5.7083   18.3771 N   0  0  0  0  0  0  0  0  0  0  0  0
   -7.0085    6.5960   17.6776 C   0  0  0  0  0  0  0  0  0  0  0  0
   -8.2453    6.1941   17.5954 N   0  0  0  0  0  0  0  0  0  0  0  0
   -8.2884    5.0062   18.2488 N   0  0  0  0  0  0  0  0  0  0  0  0
   -7.1236    4.7021   18.7309 N   0  0  0  0  0  0  0  0  0  0  0  0
   -6.3762    8.3209   19.3889 C   0  0  0  0  0  0  0  0  0  0  0  0
   -7.2787   10.3147   20.3252 O   0  0  0  0  0  0  0  0  0  0  0  0
   -8.6254    8.4967   20.2252 N   0  0  0  0  0  0  0  0  0  0  0  0
   -7.9322   10.4386   22.6881 N   0  0  0  0  0  0  0  0  0  0  0  0
   -9.6677   11.7394   23.2951 C   0  0  0  0  0  0  0  0  0  0  0  0
  -10.1159   10.7076   22.5215 N   0  0  0  0  0  0  0  0  0  0  0  0
  -10.3759   14.0394   23.8612 C   0  0  0  0  0  0  0  0  0  0  0  0
  -11.3102   14.9346   24.3502 C   0  0  0  0  0  0  0  0  0  0  0  0
  -12.4911   14.4713   24.9307 C   0  0  0  0  0  0  0  0  0  0  0  0
  -12.7081   13.0974   25.0437 C   0  0  0  0  0  0  0  0  0  0  0  0
  -11.7774   12.1821   24.5514 C   0  0  0  0  0  0  0  0  0  0  0  0
  -13.5201   15.3491   25.3663 N   0  0  0  0  0  0  0  0  0  0  0  0
  -15.4334   14.5758   26.3725 O   0  0  0  0  0  0  0  0  0  0  0  0
  -13.8392   15.6864   27.5311 O   0  0  0  0  0  0  0  0  0  0  0  0
  -12.5171   16.2700   27.3910 C   0  0  0  0  0  0  0  0  0  0  0  0
  -11.5170    8.4359   25.3281 C   0  0  0  0  0  0  0  0  0  0  0  0
  -11.1395    9.9122   25.5334 C   0  0  1  0  0  0  0  0  0  0  0  0
  -11.9474   10.7933   24.6916 N   0  0  0  0  0  0  0  0  0  0  0  0
  -11.2339   10.3120   26.9966 C   0  0  2  0  0  0  0  0  0  0  0  0
  -10.8871    9.3349   27.8225 F   0  0  0  0  0  0  0  0  0  0  0  0
  -12.4730   10.6714   27.3389 F   0  0  0  0  0  0  0  0  0  0  0  0
  -10.4451   11.3361   27.2812 F   0  0  0  0  0  0  0  0  0  0  0  0
  1 16  1  0
  1 23  2  0
  2  3  1  6
  5  2  1  6
  3  7  1  0
  3 25  1  6
  4 23  1  0
  4 24  2  0
  4 25  1  0
  6  5  1  6
 38  6  1  6
  7 26  2  0
  7 28  1  0
  8 26  1  0
  8 27  2  0
  9 34  1  0
  9 35  2  0
  9 36  1  0
 10 27  1  0
 10 29  1  0
 10 33  2  0
 11 14  1  0
 12 13  2  0
 12 17  1  0
 13 14  1  0
 14 15  2  0
 15 16  1  0
 16 17  2  0
 17 18  1  0
 18 19  1  0
 18 22  1  0
 19 20  2  0
 20 21  1  0
 21 22  2  0
 27 28  1  0
 29 30  2  0
 30 31  1  0
 31 32  2  0
 31 34  1  0
 32 33  1  0
 33 40  1  0
 37 36  1  6
 38 39  1  0
 39 40  1  6
 39 41  1  0
 41 42  1  1
 41 43  1  0
 41 44  1  0
M  END
$$$$
