
     RDKit          3D

 44 48  0  0  0  0  0  0  0  0999 V2000
 3316.1140  840.2025 4286.4287 C   0  0  0  0  0  0  0  0  0  0  0  0
 3317.8857  836.5556 4285.2485 C   0  0  0  0  0  0  0  0  0  0  0  0
 3318.0691  838.0832 4285.1504 C   0  0  1  0  0  0  0  0  0  0  0  0
 3318.5784  839.7725 4286.8003 C   0  0  0  0  0  0  0  0  0  0  0  0
 3316.9285  835.9649 4284.1538 C   0  0  0  0  0  0  0  0  0  0  0  0
 3317.1912  836.3853 4282.6724 C   0  0  0  0  0  0  0  0  0  0  0  0
 3316.7263  838.7489 4285.0649 C   0  0  0  0  0  0  0  0  0  0  0  0
 3314.6584  839.2096 4285.3579 C   0  0  0  0  0  0  0  0  0  0  0  0
 3312.0625  843.4451 4279.6133 C   0  0  0  0  0  0  0  0  0  0  0  0
 3314.2170  840.2252 4282.9976 C   0  0  0  0  0  0  0  0  0  0  0  0
 3312.6350  838.8847 4282.8628 Cl  0  0  0  0  0  0  0  0  0  0  0  0
 3313.5398  837.4195 4286.4717 C   0  0  0  0  0  0  0  0  0  0  0  0
 3312.9478  837.6094 4285.2266 C   0  0  0  0  0  0  0  0  0  0  0  0
 3313.3801  838.6439 4284.4229 C   0  0  0  0  0  0  0  0  0  0  0  0
 3314.3850  839.5027 4284.8276 C   0  0  0  0  0  0  0  0  0  0  0  0
 3314.9878  839.3267 4286.0796 C   0  0  0  0  0  0  0  0  0  0  0  0
 3314.5444  838.2787 4286.9082 C   0  0  0  0  0  0  0  0  0  0  0  0
 3315.0876  838.0992 4288.2168 N   0  0  0  0  0  0  0  0  0  0  0  0
 3315.5154  837.0115 4288.8667 C   0  0  0  0  0  0  0  0  0  0  0  0
 3315.8391  837.3310 4290.0908 N   0  0  0  0  0  0  0  0  0  0  0  0
 3315.6230  838.6666 4290.1899 N   0  0  0  0  0  0  0  0  0  0  0  0
 3315.1643  839.1436 4289.0742 N   0  0  0  0  0  0  0  0  0  0  0  0
 3317.1501  839.8530 4287.1807 C   0  0  0  0  0  0  0  0  0  0  0  0
 3319.3633  840.7111 4287.0005 O   0  0  0  0  0  0  0  0  0  0  0  0
 3318.9646  838.6463 4286.1602 N   0  0  0  0  0  0  0  0  0  0  0  0
 3315.7593  838.6415 4285.9585 N   0  0  0  0  0  0  0  0  0  0  0  0
 3314.9961  839.6708 4284.1050 C   0  0  0  0  0  0  0  0  0  0  0  0
 3316.3218  839.3827 4283.9565 N   0  0  0  0  0  0  0  0  0  0  0  0
 3313.3740  841.3152 4283.2227 C   0  0  0  0  0  0  0  0  0  0  0  0
 3312.7236  841.9314 4282.1704 C   0  0  0  0  0  0  0  0  0  0  0  0
 3312.8970  841.4637 4280.8662 C   0  0  0  0  0  0  0  0  0  0  0  0
 3313.7056  840.3495 4280.6382 C   0  0  0  0  0  0  0  0  0  0  0  0
 3314.3716  839.7199 4281.6909 C   0  0  0  0  0  0  0  0  0  0  0  0
 3312.3237  842.1154 4279.7422 N   0  0  0  0  0  0  0  0  0  0  0  0
 3312.8547  844.3488 4279.7798 O   0  0  0  0  0  0  0  0  0  0  0  0
 3310.7817  843.6232 4279.2412 O   0  0  0  0  0  0  0  0  0  0  0  0
 3310.5688  843.9556 4277.8442 C   0  0  0  0  0  0  0  0  0  0  0  0
 3315.9922  836.2446 4281.7114 C   0  0  0  0  0  0  0  0  0  0  0  0
 3314.8396  837.2260 4281.9814 C   0  0  1  0  0  0  0  0  0  0  0  0
 3315.1558  838.5690 4281.4971 N   0  0  0  0  0  0  0  0  0  0  0  0
 3313.5315  836.7237 4281.3926 C   0  0  2  0  0  0  0  0  0  0  0  0
 3313.5713  836.6046 4280.0723 F   0  0  0  0  0  0  0  0  0  0  0  0
 3312.5120  837.5413 4281.6655 F   0  0  0  0  0  0  0  0  0  0  0  0
 3313.2031  835.5310 4281.8638 F   0  0  0  0  0  0  0  0  0  0  0  0
  1 16  1  0
  1 23  2  0
  2  3  1  6
  5  2  1  6
  3  7  1  0
  3 25  1  1
  4 23  1  0
  4 24  2  0
  4 25  1  0
  6  5  1  6
 38  6  1  6
  7 26  2  0
  7 28  1  0
  8 26  1  0
  8 27  2  0
  9 34  1  0
  9 35  2  0
  9 36  1  0
 10 27  1  0
 10 29  1  0
 10 33  2  0
 11 14  1  0
 12 13  2  0
 12 17  1  0
 13 14  1  0
 14 15  2  0
 15 16  1  0
 16 17  2  0
 17 18  1  0
 18 19  1  0
 18 22  1  0
 19 20  2  0
 20 21  1  0
 21 22  2  0
 27 28  1  0
 29 30  2  0
 30 31  1  0
 31 32  2  0
 31 34  1  0
 32 33  1  0
 33 40  1  0
 37 36  1  6
 38 39  1  0
 39 40  1  6
 39 41  1  0
 41 42  1  6
 41 43  1  0
 41 44  1  0
M  END
$$$$
