
     RDKit          3D

 44 48  0  0  0  0  0  0  0  0999 V2000
   45.7984  -47.5548   75.2041 C   0  0  0  0  0  0  0  0  0  0  0  0
   43.4426  -46.5753   71.5417 C   0  0  0  0  0  0  0  0  0  0  0  0
   43.8853  -46.7653   73.0060 C   0  0  1  0  0  0  0  0  0  0  0  0
   43.7835  -48.7961   74.3115 C   0  0  0  0  0  0  0  0  0  0  0  0
   44.2824  -45.5013   70.7640 C   0  0  0  0  0  0  0  0  0  0  0  0
   45.8391  -45.6128   70.8490 C   0  0  0  0  0  0  0  0  0  0  0  0
   43.9780  -45.4292   73.6837 C   0  0  0  0  0  0  0  0  0  0  0  0
   43.5868  -43.4089   74.2673 C   0  0  0  0  0  0  0  0  0  0  0  0
   49.5859  -39.7664   77.0988 C   0  0  0  0  0  0  0  0  0  0  0  0
   46.0546  -42.7359   74.7698 C   0  0  0  0  0  0  0  0  0  0  0  0
   46.5563  -46.5493   80.2011 Cl  0  0  0  0  0  0  0  0  0  0  0  0
   43.7547  -45.4242   77.5824 C   0  0  0  0  0  0  0  0  0  0  0  0
   44.4993  -45.5674   78.7483 C   0  0  0  0  0  0  0  0  0  0  0  0
   45.6246  -46.3658   78.7377 C   0  0  0  0  0  0  0  0  0  0  0  0
   46.0259  -47.0343   77.5966 C   0  0  0  0  0  0  0  0  0  0  0  0
   45.2826  -46.9036   76.4156 C   0  0  0  0  0  0  0  0  0  0  0  0
   44.1292  -46.0975   76.4226 C   0  0  0  0  0  0  0  0  0  0  0  0
   43.3070  -45.9841   75.2595 N   0  0  0  0  0  0  0  0  0  0  0  0
   42.7945  -44.9237   74.6240 C   0  0  0  0  0  0  0  0  0  0  0  0
   42.0219  -45.3244   73.6542 N   0  0  0  0  0  0  0  0  0  0  0  0
   42.0766  -46.6795   73.6787 N   0  0  0  0  0  0  0  0  0  0  0  0
   42.8396  -47.0933   74.6422 N   0  0  0  0  0  0  0  0  0  0  0  0
   45.2221  -48.5735   74.5790 C   0  0  0  0  0  0  0  0  0  0  0  0
   43.2360  -49.8851   74.5379 O   0  0  0  0  0  0  0  0  0  0  0  0
   43.1151  -47.7688   73.7408 N   0  0  0  0  0  0  0  0  0  0  0  0
   42.9920  -44.5596   73.8027 N   0  0  0  0  0  0  0  0  0  0  0  0
   44.9371  -43.6191   74.4385 C   0  0  0  0  0  0  0  0  0  0  0  0
   45.1513  -44.9190   74.0798 N   0  0  0  0  0  0  0  0  0  0  0  0
   45.9875  -41.9340   75.9112 C   0  0  0  0  0  0  0  0  0  0  0  0
   47.0797  -41.1845   76.3101 C   0  0  0  0  0  0  0  0  0  0  0  0
   48.2614  -41.2149   75.5694 C   0  0  0  0  0  0  0  0  0  0  0  0
   48.3229  -41.9816   74.4050 C   0  0  0  0  0  0  0  0  0  0  0  0
   47.2314  -42.7462   73.9921 C   0  0  0  0  0  0  0  0  0  0  0  0
   49.4375  -40.5345   75.9852 N   0  0  0  0  0  0  0  0  0  0  0  0
   48.9141  -39.8311   78.1072 O   0  0  0  0  0  0  0  0  0  0  0  0
   50.6234  -38.9242   76.9354 O   0  0  0  0  0  0  0  0  0  0  0  0
   50.3536  -37.7312   76.1530 C   0  0  0  0  0  0  0  0  0  0  0  0
   46.6221  -44.3178   70.5478 C   0  0  0  0  0  0  0  0  0  0  0  0
   46.4569  -43.2120   71.6032 C   0  0  1  0  0  0  0  0  0  0  0  0
   47.2484  -43.4921   72.8002 N   0  0  0  0  0  0  0  0  0  0  0  0
   46.7903  -41.8437   71.0320 C   0  0  2  0  0  0  0  0  0  0  0  0
   47.2498  -41.9005   69.7899 F   0  0  0  0  0  0  0  0  0  0  0  0
   47.7238  -41.2150   71.7496 F   0  0  0  0  0  0  0  0  0  0  0  0
   45.7317  -41.0499   71.0002 F   0  0  0  0  0  0  0  0  0  0  0  0
  1 16  1  0
  1 23  2  0
  2  3  1  6
  5  2  1  6
  3  7  1  0
  3 25  1  1
  4 23  1  0
  4 24  2  0
  4 25  1  0
  6  5  1  6
 38  6  1  6
  7 26  2  0
  7 28  1  0
  8 26  1  0
  8 27  2  0
  9 34  1  0
  9 35  2  0
  9 36  1  0
 10 27  1  0
 10 29  1  0
 10 33  2  0
 11 14  1  0
 12 13  2  0
 12 17  1  0
 13 14  1  0
 14 15  2  0
 15 16  1  0
 16 17  2  0
 17 18  1  0
 18 19  1  0
 18 22  1  0
 19 20  2  0
 20 21  1  0
 21 22  2  0
 27 28  1  0
 29 30  2  0
 30 31  1  0
 31 32  2  0
 31 34  1  0
 32 33  1  0
 33 40  1  0
 37 36  1  6
 38 39  1  0
 39 40  1  1
 39 41  1  0
 41 42  1  6
 41 43  1  0
 41 44  1  0
M  END
$$$$
