
     RDKit          3D

 44 48  0  0  0  0  0  0  0  0999 V2000
   52.4939  -25.5958  -47.0124 C   0  0  0  0  0  0  0  0  0  0  0  0
   53.2586  -25.4981  -50.0586 C   0  0  0  0  0  0  0  0  0  0  0  0
   54.0358  -26.7949  -50.3595 C   0  0  1  0  0  0  0  0  0  0  0  0
   54.4750  -26.8325  -47.9837 C   0  0  0  0  0  0  0  0  0  0  0  0
   52.5201  -24.9018  -51.3087 C   0  0  0  0  0  0  0  0  0  0  0  0
   51.6376  -25.8792  -52.1507 C   0  0  0  0  0  0  0  0  0  0  0  0
   54.9056  -26.5947  -51.5664 C   0  0  0  0  0  0  0  0  0  0  0  0
   56.2017  -25.7100  -53.0199 C   0  0  0  0  0  0  0  0  0  0  0  0
   53.7999  -28.6866  -59.6949 C   0  0  0  0  0  0  0  0  0  0  0  0
   55.3430  -27.0582  -55.0791 C   0  0  0  0  0  0  0  0  0  0  0  0
   53.9711  -20.8020  -48.1925 Cl  0  0  0  0  0  0  0  0  0  0  0  0
   54.2993  -23.0263  -44.8884 C   0  0  0  0  0  0  0  0  0  0  0  0
   54.3783  -21.9694  -45.7889 C   0  0  0  0  0  0  0  0  0  0  0  0
   53.8681  -22.1260  -47.0613 C   0  0  0  0  0  0  0  0  0  0  0  0
   53.2864  -23.3126  -47.4659 C   0  0  0  0  0  0  0  0  0  0  0  0
   53.2043  -24.3882  -46.5710 C   0  0  0  0  0  0  0  0  0  0  0  0
   53.7306  -24.2372  -45.2747 C   0  0  0  0  0  0  0  0  0  0  0  0
   53.7243  -25.3261  -44.3495 N   0  0  0  0  0  0  0  0  0  0  0  0
   53.5401  -25.3757  -43.0249 C   0  0  0  0  0  0  0  0  0  0  0  0
   53.7194  -26.5952  -42.6023 N   0  0  0  0  0  0  0  0  0  0  0  0
   54.0031  -27.3278  -43.7080 N   0  0  0  0  0  0  0  0  0  0  0  0
   54.0167  -26.5791  -44.7668 N   0  0  0  0  0  0  0  0  0  0  0  0
   53.0509  -26.6251  -47.6377 C   0  0  0  0  0  0  0  0  0  0  0  0
   55.3912  -26.4781  -47.2274 O   0  0  0  0  0  0  0  0  0  0  0  0
   54.7234  -27.3654  -49.2011 N   0  0  0  0  0  0  0  0  0  0  0  0
   55.8431  -25.6740  -51.6917 N   0  0  0  0  0  0  0  0  0  0  0  0
   55.4737  -26.6800  -53.6725 C   0  0  0  0  0  0  0  0  0  0  0  0
   54.6743  -27.2393  -52.7174 N   0  0  0  0  0  0  0  0  0  0  0  0
   56.4866  -27.3478  -55.8266 C   0  0  0  0  0  0  0  0  0  0  0  0
   56.3796  -27.8251  -57.1205 C   0  0  0  0  0  0  0  0  0  0  0  0
   55.1241  -28.0151  -57.6981 C   0  0  0  0  0  0  0  0  0  0  0  0
   53.9775  -27.6892  -56.9723 C   0  0  0  0  0  0  0  0  0  0  0  0
   54.0689  -27.2110  -55.6650 C   0  0  0  0  0  0  0  0  0  0  0  0
   54.9590  -28.5859  -58.9889 N   0  0  0  0  0  0  0  0  0  0  0  0
   53.3348  -27.8413  -60.4308 O   0  0  0  0  0  0  0  0  0  0  0  0
   53.2412  -29.8927  -59.4821 O   0  0  0  0  0  0  0  0  0  0  0  0
   52.0066  -29.8929  -58.7179 C   0  0  0  0  0  0  0  0  0  0  0  0
   51.3579  -25.4467  -53.6052 C   0  0  0  0  0  0  0  0  0  0  0  0
   52.5895  -25.4684  -54.5255 C   0  0  1  0  0  0  0  0  0  0  0  0
   52.9344  -26.8317  -54.9259 N   0  0  0  0  0  0  0  0  0  0  0  0
   52.3938  -24.5728  -55.7376 C   0  0  2  0  0  0  0  0  0  0  0  0
   53.1158  -23.4625  -55.6814 F   0  0  0  0  0  0  0  0  0  0  0  0
   51.1232  -24.1882  -55.8766 F   0  0  0  0  0  0  0  0  0  0  0  0
   52.7355  -25.1813  -56.8623 F   0  0  0  0  0  0  0  0  0  0  0  0
  1 16  1  0
  1 23  2  0
  2  3  1  6
  5  2  1  6
  3  7  1  0
  3 25  1  1
  4 23  1  0
  4 24  2  0
  4 25  1  0
  6  5  1  6
 38  6  1  6
  7 26  2  0
  7 28  1  0
  8 26  1  0
  8 27  2  0
  9 34  1  0
  9 35  2  0
  9 36  1  0
 10 27  1  0
 10 29  1  0
 10 33  2  0
 11 14  1  0
 12 13  2  0
 12 17  1  0
 13 14  1  0
 14 15  2  0
 15 16  1  0
 16 17  2  0
 17 18  1  0
 18 19  1  0
 18 22  1  0
 19 20  2  0
 20 21  1  0
 21 22  2  0
 27 28  1  0
 29 30  2  0
 30 31  1  0
 31 32  2  0
 31 34  1  0
 32 33  1  0
 33 40  1  0
 37 36  1  6
 38 39  1  0
 39 40  1  6
 39 41  1  0
 41 42  1  1
 41 43  1  0
 41 44  1  0
M  END
$$$$
