
     RDKit          3D

 44 48  0  0  0  0  0  0  0  0999 V2000
   21.5641   26.1035    5.2713 C   0  0  0  0  0  0  0  0  0  0  0  0
   20.9171   30.3528    4.0970 C   0  0  0  0  0  0  0  0  0  0  0  0
   21.7826   29.0912    4.2853 C   0  0  1  0  0  0  0  0  0  0  0  0
   20.6873   27.2380    3.1877 C   0  0  0  0  0  0  0  0  0  0  0  0
   21.0229   31.3725    5.2855 C   0  0  0  0  0  0  0  0  0  0  0  0
   22.4580   31.7666    5.7632 C   0  0  0  0  0  0  0  0  0  0  0  0
   21.5294   28.5022    5.6426 C   0  0  0  0  0  0  0  0  0  0  0  0
   20.5583   27.8686    7.4400 C   0  0  0  0  0  0  0  0  0  0  0  0
   24.8374   27.4845   13.6612 C   0  0  0  0  0  0  0  0  0  0  0  0
   22.6032   28.1609    9.0302 C   0  0  0  0  0  0  0  0  0  0  0  0
   25.9784   26.0965    7.9301 Cl  0  0  0  0  0  0  0  0  0  0  0  0
   25.1031   26.7771    4.0905 C   0  0  0  0  0  0  0  0  0  0  0  0
   25.8002   26.6076    5.2819 C   0  0  0  0  0  0  0  0  0  0  0  0
   25.1048   26.3046    6.4346 C   0  0  0  0  0  0  0  0  0  0  0  0
   23.7291   26.1730    6.4353 C   0  0  0  0  0  0  0  0  0  0  0  0
   23.0126   26.3461    5.2431 C   0  0  0  0  0  0  0  0  0  0  0  0
   23.7156   26.6636    4.0662 C   0  0  0  0  0  0  0  0  0  0  0  0
   23.0216   26.9093    2.8415 N   0  0  0  0  0  0  0  0  0  0  0  0
   22.2324   27.9147    2.4447 C   0  0  0  0  0  0  0  0  0  0  0  0
   21.7470   27.6518    1.2643 N   0  0  0  0  0  0  0  0  0  0  0  0
   22.2721   26.4521    0.9114 N   0  0  0  0  0  0  0  0  0  0  0  0
   23.0358   25.9880    1.8512 N   0  0  0  0  0  0  0  0  0  0  0  0
   20.7550   26.1820    4.2226 C   0  0  0  0  0  0  0  0  0  0  0  0
   19.7888   27.2615    2.3338 O   0  0  0  0  0  0  0  0  0  0  0  0
   21.6986   28.1351    3.1812 N   0  0  0  0  0  0  0  0  0  0  0  0
   20.3565   28.1047    6.0993 N   0  0  0  0  0  0  0  0  0  0  0  0
   21.8742   28.1154    7.7632 C   0  0  0  0  0  0  0  0  0  0  0  0
   22.4706   28.4955    6.5954 N   0  0  0  0  0  0  0  0  0  0  0  0
   22.5452   27.0707    9.9011 C   0  0  0  0  0  0  0  0  0  0  0  0
   23.3226   27.0414   11.0449 C   0  0  0  0  0  0  0  0  0  0  0  0
   24.1696   28.1079   11.3467 C   0  0  0  0  0  0  0  0  0  0  0  0
   24.2027   29.2190   10.5030 C   0  0  0  0  0  0  0  0  0  0  0  0
   23.4279   29.2616    9.3436 C   0  0  0  0  0  0  0  0  0  0  0  0
   25.0524   28.0869   12.4600 N   0  0  0  0  0  0  0  0  0  0  0  0
   25.1401   27.9292   14.7488 O   0  0  0  0  0  0  0  0  0  0  0  0
   24.2018   26.3125   13.4748 O   0  0  0  0  0  0  0  0  0  0  0  0
   22.7795   26.4007   13.1967 C   0  0  0  0  0  0  0  0  0  0  0  0
   22.5586   32.3201    7.2000 C   0  0  0  0  0  0  0  0  0  0  0  0
   22.2723   31.2878    8.3030 C   0  0  1  0  0  0  0  0  0  0  0  0
   23.4061   30.3856    8.4990 N   0  0  0  0  0  0  0  0  0  0  0  0
   21.8751   31.9619    9.6059 C   0  0  2  0  0  0  0  0  0  0  0  0
   21.9728   31.1570   10.6546 F   0  0  0  0  0  0  0  0  0  0  0  0
   20.6130   32.3955    9.5812 F   0  0  0  0  0  0  0  0  0  0  0  0
   22.6362   33.0117    9.8715 F   0  0  0  0  0  0  0  0  0  0  0  0
  1 16  1  0
  1 23  2  0
  2  3  1  6
  5  2  1  6
  3  7  1  0
  3 25  1  6
  4 23  1  0
  4 24  2  0
  4 25  1  0
  6  5  1  6
 38  6  1  6
  7 26  2  0
  7 28  1  0
  8 26  1  0
  8 27  2  0
  9 34  1  0
  9 35  2  0
  9 36  1  0
 10 27  1  0
 10 29  1  0
 10 33  2  0
 11 14  1  0
 12 13  2  0
 12 17  1  0
 13 14  1  0
 14 15  2  0
 15 16  1  0
 16 17  2  0
 17 18  1  0
 18 19  1  0
 18 22  1  0
 19 20  2  0
 20 21  1  0
 21 22  2  0
 27 28  1  0
 29 30  2  0
 30 31  1  0
 31 32  2  0
 31 34  1  0
 32 33  1  0
 33 40  1  0
 37 36  1  6
 38 39  1  0
 39 40  1  1
 39 41  1  0
 41 42  1  1
 41 43  1  0
 41 44  1  0
M  END
$$$$
