
     RDKit          3D

 44 48  0  0  0  0  0  0  0  0999 V2000
   51.8538   32.7361   59.4223 C   0  0  0  0  0  0  0  0  0  0  0  0
   53.4991   34.6593   54.8301 C   0  0  0  0  0  0  0  0  0  0  0  0
   53.6933   35.5023   56.1059 C   0  0  1  0  0  0  0  0  0  0  0  0
   53.1578   33.5395   57.4095 C   0  0  0  0  0  0  0  0  0  0  0  0
   53.3708   35.5168   53.5218 C   0  0  0  0  0  0  0  0  0  0  0  0
   54.4512   36.6207   53.2822 C   0  0  0  0  0  0  0  0  0  0  0  0
   52.6519   36.5818   56.1622 C   0  0  0  0  0  0  0  0  0  0  0  0
   50.8027   37.6408   55.9771 C   0  0  0  0  0  0  0  0  0  0  0  0
   52.0532   44.8781   53.8730 C   0  0  0  0  0  0  0  0  0  0  0  0
   51.8249   40.0074   55.5905 C   0  0  0  0  0  0  0  0  0  0  0  0
   53.2759   34.7924   63.9283 Cl  0  0  0  0  0  0  0  0  0  0  0  0
   50.6497   31.9502   62.9302 C   0  0  0  0  0  0  0  0  0  0  0  0
   51.4148   32.8503   63.6641 C   0  0  0  0  0  0  0  0  0  0  0  0
   52.3128   33.6665   63.0075 C   0  0  0  0  0  0  0  0  0  0  0  0
   52.4764   33.6057   61.6366 C   0  0  0  0  0  0  0  0  0  0  0  0
   51.7159   32.7000   60.8843 C   0  0  0  0  0  0  0  0  0  0  0  0
   50.8046   31.8589   61.5494 C   0  0  0  0  0  0  0  0  0  0  0  0
   50.0534   30.8784   60.8312 N   0  0  0  0  0  0  0  0  0  0  0  0
   50.2970   30.2205   59.6915 C   0  0  0  0  0  0  0  0  0  0  0  0
   49.2662   29.4870   59.3793 N   0  0  0  0  0  0  0  0  0  0  0  0
   48.3635   29.6826   60.3726 N   0  0  0  0  0  0  0  0  0  0  0  0
   48.8179   30.5217   61.2507 N   0  0  0  0  0  0  0  0  0  0  0  0
   52.9822   32.9746   58.7662 C   0  0  0  0  0  0  0  0  0  0  0  0
   52.7757   32.9380   56.3950 O   0  0  0  0  0  0  0  0  0  0  0  0
   53.8212   34.7150   57.3322 N   0  0  0  0  0  0  0  0  0  0  0  0
   51.3461   36.3888   56.1534 N   0  0  0  0  0  0  0  0  0  0  0  0
   51.8086   38.5784   55.9007 C   0  0  0  0  0  0  0  0  0  0  0  0
   52.9713   37.8770   56.0434 N   0  0  0  0  0  0  0  0  0  0  0  0
   51.0025   40.8800   56.3064 C   0  0  0  0  0  0  0  0  0  0  0  0
   51.0909   42.2472   56.1147 C   0  0  0  0  0  0  0  0  0  0  0  0
   51.9996   42.7707   55.1948 C   0  0  0  0  0  0  0  0  0  0  0  0
   52.7960   41.9032   54.4459 C   0  0  0  0  0  0  0  0  0  0  0  0
   52.7215   40.5224   54.6309 C   0  0  0  0  0  0  0  0  0  0  0  0
   52.1913   44.1685   55.0260 N   0  0  0  0  0  0  0  0  0  0  0  0
   52.8098   44.8563   52.9246 O   0  0  0  0  0  0  0  0  0  0  0  0
   50.9198   45.6031   53.9183 O   0  0  0  0  0  0  0  0  0  0  0  0
   50.6746   46.3183   55.1578 C   0  0  0  0  0  0  0  0  0  0  0  0
   54.0455   37.7601   52.3241 C   0  0  0  0  0  0  0  0  0  0  0  0
   52.9472   38.6894   52.8666 C   0  0  1  0  0  0  0  0  0  0  0  0
   53.4778   39.6223   53.8596 N   0  0  0  0  0  0  0  0  0  0  0  0
   52.2383   39.4275   51.7431 C   0  0  2  0  0  0  0  0  0  0  0  0
   50.9878   39.7482   52.0442 F   0  0  0  0  0  0  0  0  0  0  0  0
   52.1812   38.7016   50.6244 F   0  0  0  0  0  0  0  0  0  0  0  0
   52.8481   40.5609   51.4343 F   0  0  0  0  0  0  0  0  0  0  0  0
  1 16  1  0
  1 23  2  0
  2  3  1  6
  5  2  1  6
  3  7  1  0
  3 25  1  1
  4 23  1  0
  4 24  2  0
  4 25  1  0
  6  5  1  6
 38  6  1  6
  7 26  2  0
  7 28  1  0
  8 26  1  0
  8 27  2  0
  9 34  1  0
  9 35  2  0
  9 36  1  0
 10 27  1  0
 10 29  1  0
 10 33  2  0
 11 14  1  0
 12 13  2  0
 12 17  1  0
 13 14  1  0
 14 15  2  0
 15 16  1  0
 16 17  2  0
 17 18  1  0
 18 19  1  0
 18 22  1  0
 19 20  2  0
 20 21  1  0
 21 22  2  0
 27 28  1  0
 29 30  2  0
 30 31  1  0
 31 32  2  0
 31 34  1  0
 32 33  1  0
 33 40  1  0
 37 36  1  6
 38 39  1  0
 39 40  1  1
 39 41  1  0
 41 42  1  1
 41 43  1  0
 41 44  1  0
M  END
$$$$
