
     RDKit          3D

 44 48  0  0  0  0  0  0  0  0999 V2000
   99.5635    9.9484   30.4155 C   0  0  0  0  0  0  0  0  0  0  0  0
   94.4800    7.7562   30.1113 C   0  0  0  0  0  0  0  0  0  0  0  0
   95.6675    7.1076   30.8498 C   0  0  1  0  0  0  0  0  0  0  0  0
   97.8300    8.1821   30.9376 C   0  0  0  0  0  0  0  0  0  0  0  0
   93.4959    6.7174   29.4665 C   0  0  0  0  0  0  0  0  0  0  0  0
   92.9953    5.5481   30.3750 C   0  0  0  0  0  0  0  0  0  0  0  0
   96.3219    6.0909   29.9602 C   0  0  0  0  0  0  0  0  0  0  0  0
   97.0978    5.0903   28.2362 C   0  0  0  0  0  0  0  0  0  0  0  0
   95.7579   -2.4192   28.7356 C   0  0  0  0  0  0  0  0  0  0  0  0
   96.6835    2.6538   29.0653 C   0  0  0  0  0  0  0  0  0  0  0  0
  102.2647    6.0389   32.4091 Cl  0  0  0  0  0  0  0  0  0  0  0  0
  102.9051    8.5169   29.3397 C   0  0  0  0  0  0  0  0  0  0  0  0
  103.0514    7.4962   30.2730 C   0  0  0  0  0  0  0  0  0  0  0  0
  102.0792    7.3161   31.2355 C   0  0  0  0  0  0  0  0  0  0  0  0
  100.9655    8.1319   31.2995 C   0  0  0  0  0  0  0  0  0  0  0  0
  100.8070    9.1678   30.3687 C   0  0  0  0  0  0  0  0  0  0  0  0
  101.7994    9.3617   29.3901 C   0  0  0  0  0  0  0  0  0  0  0  0
  101.7103   10.4426   28.4599 N   0  0  0  0  0  0  0  0  0  0  0  0
  102.6316   11.2784   27.9661 C   0  0  0  0  0  0  0  0  0  0  0  0
  102.0551   12.1710   27.2119 N   0  0  0  0  0  0  0  0  0  0  0  0
  100.7344   11.8621   27.2235 N   0  0  0  0  0  0  0  0  0  0  0  0
  100.5084   10.8293   27.9745 N   0  0  0  0  0  0  0  0  0  0  0  0
   98.4229    9.5382   30.9552 C   0  0  0  0  0  0  0  0  0  0  0  0
   98.4107    7.2201   30.4137 O   0  0  0  0  0  0  0  0  0  0  0  0
   96.5893    8.0647   31.4616 N   0  0  0  0  0  0  0  0  0  0  0  0
   96.8348    6.3321   28.7680 N   0  0  0  0  0  0  0  0  0  0  0  0
   96.7491    4.1127   29.1416 C   0  0  0  0  0  0  0  0  0  0  0  0
   96.2793    4.7809   30.2356 N   0  0  0  0  0  0  0  0  0  0  0  0
   97.8035    1.9321   28.6469 C   0  0  0  0  0  0  0  0  0  0  0  0
   97.8040    0.5492   28.6843 C   0  0  0  0  0  0  0  0  0  0  0  0
   96.6790   -0.1423   29.1337 C   0  0  0  0  0  0  0  0  0  0  0  0
   95.5412    0.5704   29.5147 C   0  0  0  0  0  0  0  0  0  0  0  0
   95.5267    1.9652   29.4867 C   0  0  0  0  0  0  0  0  0  0  0  0
   96.6611   -1.5561   29.2751 N   0  0  0  0  0  0  0  0  0  0  0  0
   95.2583   -3.3735   29.2942 O   0  0  0  0  0  0  0  0  0  0  0  0
   95.4659   -2.0434   27.4763 O   0  0  0  0  0  0  0  0  0  0  0  0
   95.2191   -3.1209   26.5349 C   0  0  0  0  0  0  0  0  0  0  0  0
   92.4842    4.2945   29.6346 C   0  0  0  0  0  0  0  0  0  0  0  0
   93.5741    3.5017   28.8947 C   0  0  1  0  0  0  0  0  0  0  0  0
   94.3808    2.7084   29.8209 N   0  0  0  0  0  0  0  0  0  0  0  0
   92.9816    2.6317   27.7985 C   0  0  2  0  0  0  0  0  0  0  0  0
   91.6933    2.3780   27.9801 F   0  0  0  0  0  0  0  0  0  0  0  0
   93.5900    1.4465   27.7156 F   0  0  0  0  0  0  0  0  0  0  0  0
   93.0838    3.1995   26.6073 F   0  0  0  0  0  0  0  0  0  0  0  0
  1 16  1  0
  1 23  2  0
  2  3  1  6
  5  2  1  6
  3  7  1  0
  3 25  1  6
  4 23  1  0
  4 24  2  0
  4 25  1  0
  6  5  1  6
 38  6  1  6
  7 26  2  0
  7 28  1  0
  8 26  1  0
  8 27  2  0
  9 34  1  0
  9 35  2  0
  9 36  1  0
 10 27  1  0
 10 29  1  0
 10 33  2  0
 11 14  1  0
 12 13  2  0
 12 17  1  0
 13 14  1  0
 14 15  2  0
 15 16  1  0
 16 17  2  0
 17 18  1  0
 18 19  1  0
 18 22  1  0
 19 20  2  0
 20 21  1  0
 21 22  2  0
 27 28  1  0
 29 30  2  0
 30 31  1  0
 31 32  2  0
 31 34  1  0
 32 33  1  0
 33 40  1  0
 37 36  1  6
 38 39  1  0
 39 40  1  1
 39 41  1  0
 41 42  1  1
 41 43  1  0
 41 44  1  0
M  END
$$$$
