
     RDKit          3D

 44 48  0  0  0  0  0  0  0  0999 V2000
  -10.8941   55.3695   14.7399 C   0  0  0  0  0  0  0  0  0  0  0  0
   -8.9667   50.2609   16.4953 C   0  0  0  0  0  0  0  0  0  0  0  0
   -8.7790   51.7515   16.1504 C   0  0  1  0  0  0  0  0  0  0  0  0
  -10.4425   52.8819   14.8111 C   0  0  0  0  0  0  0  0  0  0  0  0
   -8.3943   49.8627   17.9015 C   0  0  0  0  0  0  0  0  0  0  0  0
   -8.8022   50.7556   19.1178 C   0  0  0  0  0  0  0  0  0  0  0  0
   -7.3499   52.1481   16.3820 C   0  0  0  0  0  0  0  0  0  0  0  0
   -5.2140   52.1028   16.4865 C   0  0  0  0  0  0  0  0  0  0  0  0
   -3.6697   57.3536   21.8545 C   0  0  0  0  0  0  0  0  0  0  0  0
   -4.9591   53.6869   18.5410 C   0  0  0  0  0  0  0  0  0  0  0  0
  -14.3500   55.6122   10.9250 Cl  0  0  0  0  0  0  0  0  0  0  0  0
  -12.8920   58.3295   13.4672 C   0  0  0  0  0  0  0  0  0  0  0  0
  -13.6246   57.7192   12.4548 C   0  0  0  0  0  0  0  0  0  0  0  0
  -13.4345   56.3769   12.1979 C   0  0  0  0  0  0  0  0  0  0  0  0
  -12.5261   55.6247   12.9183 C   0  0  0  0  0  0  0  0  0  0  0  0
  -11.7770   56.2272   13.9383 C   0  0  0  0  0  0  0  0  0  0  0  0
  -11.9604   57.5978   14.1991 C   0  0  0  0  0  0  0  0  0  0  0  0
  -11.1750   58.2676   15.1871 N   0  0  0  0  0  0  0  0  0  0  0  0
  -11.3482   58.4424   16.5026 C   0  0  0  0  0  0  0  0  0  0  0  0
  -10.4051   59.2097   16.9713 N   0  0  0  0  0  0  0  0  0  0  0  0
   -9.6099   59.5010   15.9118 N   0  0  0  0  0  0  0  0  0  0  0  0
  -10.0619   58.9479   14.8295 N   0  0  0  0  0  0  0  0  0  0  0  0
  -10.2998   54.2656   14.3055 C   0  0  0  0  0  0  0  0  0  0  0  0
  -11.5223   52.4495   15.2404 O   0  0  0  0  0  0  0  0  0  0  0  0
   -9.3143   52.1378   14.8449 N   0  0  0  0  0  0  0  0  0  0  0  0
   -6.2979   51.5957   15.8070 N   0  0  0  0  0  0  0  0  0  0  0  0
   -5.6425   52.9780   17.4598 C   0  0  0  0  0  0  0  0  0  0  0  0
   -7.0034   53.0019   17.3540 N   0  0  0  0  0  0  0  0  0  0  0  0
   -3.8455   54.4791   18.2533 C   0  0  0  0  0  0  0  0  0  0  0  0
   -3.2594   55.2539   19.2381 C   0  0  0  0  0  0  0  0  0  0  0  0
   -3.7705   55.2458   20.5360 C   0  0  0  0  0  0  0  0  0  0  0  0
   -4.8575   54.4255   20.8413 C   0  0  0  0  0  0  0  0  0  0  0  0
   -5.4621   53.6419   19.8581 C   0  0  0  0  0  0  0  0  0  0  0  0
   -3.2610   56.0895   21.5596 N   0  0  0  0  0  0  0  0  0  0  0  0
   -4.1205   58.1612   21.0690 O   0  0  0  0  0  0  0  0  0  0  0  0
   -3.5286   57.5810   23.1738 O   0  0  0  0  0  0  0  0  0  0  0  0
   -4.5887   58.3499   23.8008 C   0  0  0  0  0  0  0  0  0  0  0  0
   -7.8643   50.6921   20.3414 C   0  0  0  0  0  0  0  0  0  0  0  0
   -6.4754   51.3113   20.1136 C   0  0  1  0  0  0  0  0  0  0  0  0
   -6.5289   52.7720   20.1457 N   0  0  0  0  0  0  0  0  0  0  0  0
   -5.4584   50.7768   21.1084 C   0  0  2  0  0  0  0  0  0  0  0  0
   -4.7722   49.7435   20.6408 F   0  0  0  0  0  0  0  0  0  0  0  0
   -6.0332   50.3650   22.2404 F   0  0  0  0  0  0  0  0  0  0  0  0
   -4.5653   51.6944   21.4435 F   0  0  0  0  0  0  0  0  0  0  0  0
  1 16  1  0
  1 23  2  0
  2  3  1  6
  5  2  1  6
  3  7  1  0
  3 25  1  6
  4 23  1  0
  4 24  2  0
  4 25  1  0
  6  5  1  6
 38  6  1  6
  7 26  2  0
  7 28  1  0
  8 26  1  0
  8 27  2  0
  9 34  1  0
  9 35  2  0
  9 36  1  0
 10 27  1  0
 10 29  1  0
 10 33  2  0
 11 14  1  0
 12 13  2  0
 12 17  1  0
 13 14  1  0
 14 15  2  0
 15 16  1  0
 16 17  2  0
 17 18  1  0
 18 19  1  0
 18 22  1  0
 19 20  2  0
 20 21  1  0
 21 22  2  0
 27 28  1  0
 29 30  2  0
 30 31  1  0
 31 32  2  0
 31 34  1  0
 32 33  1  0
 33 40  1  0
 37 36  1  6
 38 39  1  0
 39 40  1  1
 39 41  1  0
 41 42  1  6
 41 43  1  0
 41 44  1  0
M  END
$$$$
