
     RDKit          3D

 44 48  0  0  0  0  0  0  0  0999 V2000
-8270.358437625.363313952.9053 C   0  0  0  0  0  0  0  0  0  0  0  0
-8268.835937623.425813954.7207 C   0  0  0  0  0  0  0  0  0  0  0  0
-8269.704137622.179713954.4795 C   0  0  1  0  0  0  0  0  0  0  0  0
-8269.941437622.960913952.2051 C   0  0  0  0  0  0  0  0  0  0  0  0
-8268.494137623.683613956.2314 C   0  0  0  0  0  0  0  0  0  0  0  0
-8267.938537622.468813957.0469 C   0  0  0  0  0  0  0  0  0  0  0  0
-8270.893637622.207013955.3936 C   0  0  0  0  0  0  0  0  0  0  0  0
-8272.543037622.886713956.5723 C   0  0  0  0  0  0  0  0  0  0  0  0
-8272.326237618.082013962.5850 C   0  0  0  0  0  0  0  0  0  0  0  0
-8272.385737621.054713958.4277 C   0  0  0  0  0  0  0  0  0  0  0  0
-8271.017637627.886713948.4619 Cl  0  0  0  0  0  0  0  0  0  0  0  0
-8268.426837628.296913951.4756 C   0  0  0  0  0  0  0  0  0  0  0  0
-8269.107437628.484413950.2773 C   0  0  0  0  0  0  0  0  0  0  0  0
-8270.164137627.664113949.9580 C   0  0  0  0  0  0  0  0  0  0  0  0
-8270.542037626.621113950.7969 C   0  0  0  0  0  0  0  0  0  0  0  0
-8269.853537626.398413951.9990 C   0  0  0  0  0  0  0  0  0  0  0  0
-8268.779337627.261713952.3262 C   0  0  0  0  0  0  0  0  0  0  0  0
-8268.015637627.035213953.5146 N   0  0  0  0  0  0  0  0  0  0  0  0
-8266.715837626.793013953.7100 C   0  0  0  0  0  0  0  0  0  0  0  0
-8266.490237626.570313954.9756 N   0  0  0  0  0  0  0  0  0  0  0  0
-8267.695337626.714813955.5830 N   0  0  0  0  0  0  0  0  0  0  0  0
-8268.625037626.984413954.7197 N   0  0  0  0  0  0  0  0  0  0  0  0
-8270.759837624.152313952.5225 C   0  0  0  0  0  0  0  0  0  0  0  0
-8269.259837622.902313951.1709 O   0  0  0  0  0  0  0  0  0  0  0  0
-8270.023437621.929713953.0732 N   0  0  0  0  0  0  0  0  0  0  0  0
-8271.796937623.164113955.4502 N   0  0  0  0  0  0  0  0  0  0  0  0
-8272.075237621.734413957.1680 C   0  0  0  0  0  0  0  0  0  0  0  0
-8271.040037621.320313956.3848 N   0  0  0  0  0  0  0  0  0  0  0  0
-8273.713937620.734413958.7246 C   0  0  0  0  0  0  0  0  0  0  0  0
-8274.016637619.988313959.8496 C   0  0  0  0  0  0  0  0  0  0  0  0
-8273.003937619.566413960.7061 C   0  0  0  0  0  0  0  0  0  0  0  0
-8271.680737619.914113960.4395 C   0  0  0  0  0  0  0  0  0  0  0  0
-8271.356437620.671913959.3037 C   0  0  0  0  0  0  0  0  0  0  0  0
-8273.252037618.714813961.8242 N   0  0  0  0  0  0  0  0  0  0  0  0
-8271.285237618.546913962.9961 O   0  0  0  0  0  0  0  0  0  0  0  0
-8272.744137616.820313962.8506 O   0  0  0  0  0  0  0  0  0  0  0  0
-8273.460937616.640613964.1025 C   0  0  0  0  0  0  0  0  0  0  0  0
-8268.100637622.562513958.5801 C   0  0  0  0  0  0  0  0  0  0  0  0
-8269.550837622.457013959.0703 C   0  0  1  0  0  0  0  0  0  0  0  0
-8270.041037621.082013959.0322 N   0  0  0  0  0  0  0  0  0  0  0  0
-8269.707037623.062513960.4600 C   0  0  2  0  0  0  0  0  0  0  0  0
-8268.581137623.574213960.9287 F   0  0  0  0  0  0  0  0  0  0  0  0
-8270.106437622.156213961.3535 F   0  0  0  0  0  0  0  0  0  0  0  0
-8270.603537624.039113960.4805 F   0  0  0  0  0  0  0  0  0  0  0  0
  1 16  1  0
  1 23  2  0
  2  3  1  6
  5  2  1  6
  3  7  1  0
  3 25  1  6
  4 23  1  0
  4 24  2  0
  4 25  1  0
  6  5  1  6
 38  6  1  6
  7 26  2  0
  7 28  1  0
  8 26  1  0
  8 27  2  0
  9 34  1  0
  9 35  2  0
  9 36  1  0
 10 27  1  0
 10 29  1  0
 10 33  2  0
 11 14  1  0
 12 13  2  0
 12 17  1  0
 13 14  1  0
 14 15  2  0
 15 16  1  0
 16 17  2  0
 17 18  1  0
 18 19  1  0
 18 22  1  0
 19 20  2  0
 20 21  1  0
 21 22  2  0
 27 28  1  0
 29 30  2  0
 30 31  1  0
 31 32  2  0
 31 34  1  0
 32 33  1  0
 33 40  1  0
 37 36  1  6
 38 39  1  0
 39 40  1  1
 39 41  1  0
 41 42  1  1
 41 43  1  0
 41 44  1  0
M  END
$$$$
