
     RDKit          3D

 27 30  0  0  0  0  0  0  0  0999 V2000
 1337.7592  476.6745-1041.6194 C   0  0  0  0  0  0  0  0  0  0  0  0
 1340.7970  480.4874-1045.5481 C   0  0  0  0  0  0  0  0  0  0  0  0
 1337.8015  478.9378-1042.3804 C   0  0  0  0  0  0  0  0  0  0  0  0
 1337.2109  477.9355-1041.6346 C   0  0  0  0  0  0  0  0  0  0  0  0
 1340.3363  482.9362-1045.5338 C   0  0  0  0  0  0  0  0  0  0  0  0
 1339.0763  483.5429-1046.0984 C   0  0  0  0  0  0  0  0  0  0  0  0
 1337.1459  481.3433-1042.8004 C   0  0  0  0  0  0  0  0  0  0  0  0
 1336.2870  482.0986-1042.0573 C   0  0  0  0  0  0  0  0  0  0  0  0
 1339.4446  477.3614-1043.1539 C   0  0  0  0  0  0  0  0  0  0  0  0
 1338.8782  476.3722-1042.3610 C   0  0  0  0  0  0  0  0  0  0  0  0
 1336.9091  485.4663-1041.1354 C   0  0  0  0  0  0  0  0  0  0  0  0
 1335.7659  478.2584-1040.7372 Cl  0  0  0  0  0  0  0  0  0  0  0  0
 1340.1587  486.4976-1042.4115 N   0  0  0  0  0  0  0  0  0  0  0  0
 1339.2186  485.9092-1042.1333 C   0  0  0  0  0  0  0  0  0  0  0  0
 1338.0385  485.1567-1041.8506 C   0  0  0  0  0  0  0  0  0  0  0  0
 1337.8615  483.8672-1042.2698 N   0  0  0  0  0  0  0  0  0  0  0  0
 1338.7384  483.1472-1043.0684 N   0  0  0  0  0  0  0  0  0  0  0  0
 1338.3746  481.8950-1043.3073 C   0  0  0  0  0  0  0  0  0  0  0  0
 1339.2927  481.0742-1044.0620 C   0  0  0  0  0  0  0  0  0  0  0  0
 1339.5320  479.7078-1043.9998 C   0  0  0  0  0  0  0  0  0  0  0  0
 1338.9222  478.6543-1043.1578 C   0  0  0  0  0  0  0  0  0  0  0  0
 1337.1769  475.7252-1040.8650 F   0  0  0  0  0  0  0  0  0  0  0  0
 1340.4937  479.3676-1044.9430 N   0  0  0  0  0  0  0  0  0  0  0  0
 1340.1227  481.5567-1045.0591 N   0  0  0  0  0  0  0  0  0  0  0  0
 1337.9070  483.0238-1045.4884 O   0  0  0  0  0  0  0  0  0  0  0  0
 1336.6538  483.4259-1041.7610 C   0  0  0  0  0  0  0  0  0  0  0  0
 1336.0582  484.3912-1041.0566 N   0  0  0  0  0  0  0  0  0  0  0  0
  1  4  2  0
  1 10  1  0
  1 22  1  0
  2 23  2  0
  2 24  1  0
  3  4  1  0
  3 21  2  0
  4 12  1  0
  5  6  1  0
  5 24  1  1
  6 25  1  1
  7  8  2  0
  7 18  1  0
  8 26  1  0
  9 10  2  0
  9 21  1  0
 11 15  2  0
 11 27  1  0
 13 14  3  0
 14 15  1  0
 15 16  1  0
 16 17  1  0
 16 26  1  0
 17 18  2  0
 18 19  1  0
 19 20  2  0
 19 24  1  0
 20 21  1  0
 20 23  1  0
 26 27  2  0
M  END
$$$$
