
     RDKit          3D

 27 30  0  0  0  0  0  0  0  0999 V2000
 -233.8851 -178.8059 -277.2031 C   0  0  0  0  0  0  0  0  0  0  0  0
 -227.7553 -177.7226 -277.9067 C   0  0  0  0  0  0  0  0  0  0  0  0
 -231.9592 -179.5895 -278.3774 C   0  0  0  0  0  0  0  0  0  0  0  0
 -233.3117 -179.6710 -278.1051 C   0  0  0  0  0  0  0  0  0  0  0  0
 -226.2788 -179.4792 -278.8775 C   0  0  0  0  0  0  0  0  0  0  0  0
 -225.3593 -178.3730 -279.3309 C   0  0  0  0  0  0  0  0  0  0  0  0
 -229.0318 -182.0076 -277.9731 C   0  0  0  0  0  0  0  0  0  0  0  0
 -229.2973 -183.2820 -278.3793 C   0  0  0  0  0  0  0  0  0  0  0  0
 -231.7645 -177.8179 -276.7632 C   0  0  0  0  0  0  0  0  0  0  0  0
 -233.1328 -177.8689 -276.5333 C   0  0  0  0  0  0  0  0  0  0  0  0
 -230.2462 -184.1431 -281.6867 C   0  0  0  0  0  0  0  0  0  0  0  0
 -234.2815 -180.8775 -278.8804 Cl  0  0  0  0  0  0  0  0  0  0  0  0
 -230.5467 -181.1780 -283.7396 N   0  0  0  0  0  0  0  0  0  0  0  0
 -230.3238 -181.8769 -282.8622 C   0  0  0  0  0  0  0  0  0  0  0  0
 -230.1031 -182.7820 -281.7803 C   0  0  0  0  0  0  0  0  0  0  0  0
 -229.7064 -182.3713 -280.5378 N   0  0  0  0  0  0  0  0  0  0  0  0
 -229.3970 -181.0687 -280.1753 N   0  0  0  0  0  0  0  0  0  0  0  0
 -229.0809 -180.9054 -278.8980 C   0  0  0  0  0  0  0  0  0  0  0  0
 -228.8335 -179.5556 -278.4476 C   0  0  0  0  0  0  0  0  0  0  0  0
 -229.7117 -178.6042 -277.9446 C   0  0  0  0  0  0  0  0  0  0  0  0
 -231.1691 -178.6646 -277.6977 C   0  0  0  0  0  0  0  0  0  0  0  0
 -235.2083 -178.8925 -276.9761 F   0  0  0  0  0  0  0  0  0  0  0  0
 -229.0036 -177.4535 -277.6211 N   0  0  0  0  0  0  0  0  0  0  0  0
 -227.5821 -178.9649 -278.4207 N   0  0  0  0  0  0  0  0  0  0  0  0
 -226.0175 -177.1202 -279.4012 O   0  0  0  0  0  0  0  0  0  0  0  0
 -229.6630 -183.4885 -279.7237 C   0  0  0  0  0  0  0  0  0  0  0  0
 -229.9975 -184.5846 -280.4096 N   0  0  0  0  0  0  0  0  0  0  0  0
  1  4  2  0
  1 10  1  0
  1 22  1  0
  2 23  2  0
  2 24  1  0
  3  4  1  0
  3 21  2  0
  4 12  1  0
  5  6  1  0
  5 24  1  1
  6 25  1  1
  7  8  2  0
  7 18  1  0
  8 26  1  0
  9 10  2  0
  9 21  1  0
 11 15  2  0
 11 27  1  0
 13 14  3  0
 14 15  1  0
 15 16  1  0
 16 17  1  0
 16 26  1  0
 17 18  2  0
 18 19  1  0
 19 20  2  0
 19 24  1  0
 20 21  1  0
 20 23  1  0
 26 27  2  0
M  END
$$$$
