
     RDKit          3D

 27 30  0  0  0  0  0  0  0  0999 V2000
   65.9614  -20.4019 1390.5397 C   0  0  0  0  0  0  0  0  0  0  0  0
   61.9751  -22.8494 1394.7134 C   0  0  0  0  0  0  0  0  0  0  0  0
   65.3516  -20.7185 1392.8270 C   0  0  0  0  0  0  0  0  0  0  0  0
   66.1147  -20.0798 1391.8674 C   0  0  0  0  0  0  0  0  0  0  0  0
   62.6008  -24.9119 1395.9636 C   0  0  0  0  0  0  0  0  0  0  0  0
   61.3593  -25.7057 1395.6425 C   0  0  0  0  0  0  0  0  0  0  0  0
   65.3122  -25.5002 1395.1246 C   0  0  0  0  0  0  0  0  0  0  0  0
   66.3831  -26.3430 1395.0699 C   0  0  0  0  0  0  0  0  0  0  0  0
   64.3479  -22.0596 1391.1012 C   0  0  0  0  0  0  0  0  0  0  0  0
   65.0786  -21.3772 1390.1382 C   0  0  0  0  0  0  0  0  0  0  0  0
   68.8099  -26.2893 1392.4846 C   0  0  0  0  0  0  0  0  0  0  0  0
   67.2820  -18.8909 1392.3384 Cl  0  0  0  0  0  0  0  0  0  0  0  0
   67.9693  -23.8129 1389.9871 N   0  0  0  0  0  0  0  0  0  0  0  0
   67.9504  -24.4463 1390.9388 C   0  0  0  0  0  0  0  0  0  0  0  0
   67.9603  -25.2853 1392.0941 C   0  0  0  0  0  0  0  0  0  0  0  0
   67.0003  -25.2226 1393.0652 N   0  0  0  0  0  0  0  0  0  0  0  0
   65.9516  -24.3159 1393.1105 N   0  0  0  0  0  0  0  0  0  0  0  0
   65.1172  -24.4791 1394.1289 C   0  0  0  0  0  0  0  0  0  0  0  0
   63.9598  -23.6165 1394.1766 C   0  0  0  0  0  0  0  0  0  0  0  0
   63.6816  -22.4508 1393.4739 C   0  0  0  0  0  0  0  0  0  0  0  0
   64.4653  -21.7258 1392.4498 C   0  0  0  0  0  0  0  0  0  0  0  0
   66.7006  -19.7463 1389.6263 F   0  0  0  0  0  0  0  0  0  0  0  0
   62.4256  -21.9841 1393.8412 N   0  0  0  0  0  0  0  0  0  0  0  0
   62.8519  -23.8502 1394.9724 N   0  0  0  0  0  0  0  0  0  0  0  0
   60.2171  -24.8811 1395.4901 O   0  0  0  0  0  0  0  0  0  0  0  0
   67.2754  -26.2158 1393.9877 C   0  0  0  0  0  0  0  0  0  0  0  0
   68.3785  -26.8854 1393.6447 N   0  0  0  0  0  0  0  0  0  0  0  0
  1  4  2  0
  1 10  1  0
  1 22  1  0
  2 23  2  0
  2 24  1  0
  3  4  1  0
  3 21  2  0
  4 12  1  0
  5  6  1  0
  5 24  1  1
  6 25  1  1
  7  8  2  0
  7 18  1  0
  8 26  1  0
  9 10  2  0
  9 21  1  0
 11 15  2  0
 11 27  1  0
 13 14  3  0
 14 15  1  0
 15 16  1  0
 16 17  1  0
 16 26  1  0
 17 18  2  0
 18 19  1  0
 19 20  2  0
 19 24  1  0
 20 21  1  0
 20 23  1  0
 26 27  2  0
M  END
$$$$
