
     RDKit          3D

 27 30  0  0  0  0  0  0  0  0999 V2000
    1.1686 1452.5525  403.6894 C   0  0  0  0  0  0  0  0  0  0  0  0
    4.8087 1457.3903  405.3098 C   0  0  0  0  0  0  0  0  0  0  0  0
    1.8920 1453.8889  405.5315 C   0  0  0  0  0  0  0  0  0  0  0  0
    1.2034 1452.7950  405.0424 C   0  0  0  0  0  0  0  0  0  0  0  0
    3.9698 1459.0912  406.9254 C   0  0  0  0  0  0  0  0  0  0  0  0
    5.0044 1460.0309  406.3594 C   0  0  0  0  0  0  0  0  0  0  0  0
    0.2795 1457.1615  405.9769 C   0  0  0  0  0  0  0  0  0  0  0  0
   -0.9189 1457.2804  406.6164 C   0  0  0  0  0  0  0  0  0  0  0  0
    2.4319 1454.5277  403.2767 C   0  0  0  0  0  0  0  0  0  0  0  0
    1.7837 1453.3984  402.7953 C   0  0  0  0  0  0  0  0  0  0  0  0
   -1.2696 1457.4415  410.1420 C   0  0  0  0  0  0  0  0  0  0  0  0
    0.3636 1451.7419  406.1297 Cl  0  0  0  0  0  0  0  0  0  0  0  0
    2.0154 1457.1362  411.6919 N   0  0  0  0  0  0  0  0  0  0  0  0
    1.1390 1457.2168  410.9620 C   0  0  0  0  0  0  0  0  0  0  0  0
    0.0897 1457.3228  409.9992 C   0  0  0  0  0  0  0  0  0  0  0  0
    0.3122 1457.2821  408.6508 N   0  0  0  0  0  0  0  0  0  0  0  0
    1.5534 1457.2107  408.0359 N   0  0  0  0  0  0  0  0  0  0  0  0
    1.5166 1457.1357  406.7127 C   0  0  0  0  0  0  0  0  0  0  0  0
    2.7771 1456.9727  406.0267 C   0  0  0  0  0  0  0  0  0  0  0  0
    3.2014 1455.9755  405.1578 C   0  0  0  0  0  0  0  0  0  0  0  0
    2.5061 1454.7742  404.6472 C   0  0  0  0  0  0  0  0  0  0  0  0
    0.5113 1451.4664  403.2439 F   0  0  0  0  0  0  0  0  0  0  0  0
    4.4918 1456.2604  404.7292 N   0  0  0  0  0  0  0  0  0  0  0  0
    3.8289 1457.8683  406.1153 N   0  0  0  0  0  0  0  0  0  0  0  0
    6.0995 1459.3429  405.7809 O   0  0  0  0  0  0  0  0  0  0  0  0
   -0.9195 1457.3357  408.0236 C   0  0  0  0  0  0  0  0  0  0  0  0
   -1.9026 1457.4266  408.9229 N   0  0  0  0  0  0  0  0  0  0  0  0
  1  4  2  0
  1 10  1  0
  1 22  1  0
  2 23  2  0
  2 24  1  0
  3  4  1  0
  3 21  2  0
  4 12  1  0
  5  6  1  0
  5 24  1  1
  6 25  1  1
  7  8  2  0
  7 18  1  0
  8 26  1  0
  9 10  2  0
  9 21  1  0
 11 15  2  0
 11 27  1  0
 13 14  3  0
 14 15  1  0
 15 16  1  0
 16 17  1  0
 16 26  1  0
 17 18  2  0
 18 19  1  0
 19 20  2  0
 19 24  1  0
 20 21  1  0
 20 23  1  0
 26 27  2  0
M  END
$$$$
