
     RDKit          3D

 27 30  0  0  0  0  0  0  0  0999 V2000
  402.6226 -488.5191 -558.0166 C   0  0  0  0  0  0  0  0  0  0  0  0
  396.5285 -488.0678 -559.3745 C   0  0  0  0  0  0  0  0  0  0  0  0
  400.4865 -489.3004 -558.7446 C   0  0  0  0  0  0  0  0  0  0  0  0
  401.8540 -489.4725 -558.6427 C   0  0  0  0  0  0  0  0  0  0  0  0
  394.9577 -486.9683 -557.7834 C   0  0  0  0  0  0  0  0  0  0  0  0
  395.0152 -485.5959 -557.1608 C   0  0  0  0  0  0  0  0  0  0  0  0
  396.6720 -486.9267 -555.2268 C   0  0  0  0  0  0  0  0  0  0  0  0
  396.8421 -486.4195 -553.9719 C   0  0  0  0  0  0  0  0  0  0  0  0
  400.6966 -487.1664 -557.6565 C   0  0  0  0  0  0  0  0  0  0  0  0
  402.0625 -487.3695 -557.5096 C   0  0  0  0  0  0  0  0  0  0  0  0
  399.7814 -484.7491 -552.8990 C   0  0  0  0  0  0  0  0  0  0  0  0
  402.6051 -490.8760 -559.3234 Cl  0  0  0  0  0  0  0  0  0  0  0  0
  402.2255 -484.6581 -555.5759 N   0  0  0  0  0  0  0  0  0  0  0  0
  401.2851 -484.8679 -554.9600 C   0  0  0  0  0  0  0  0  0  0  0  0
  400.0944 -485.0645 -554.1968 C   0  0  0  0  0  0  0  0  0  0  0  0
  398.9882 -485.6940 -554.6960 N   0  0  0  0  0  0  0  0  0  0  0  0
  398.8339 -486.1527 -555.9955 N   0  0  0  0  0  0  0  0  0  0  0  0
  397.6878 -486.7741 -556.2354 C   0  0  0  0  0  0  0  0  0  0  0  0
  397.5111 -487.3477 -557.5493 C   0  0  0  0  0  0  0  0  0  0  0  0
  398.4398 -487.9191 -558.4097 C   0  0  0  0  0  0  0  0  0  0  0  0
  399.8958 -488.1359 -558.2593 C   0  0  0  0  0  0  0  0  0  0  0  0
  403.9478 -488.7247 -557.9106 F   0  0  0  0  0  0  0  0  0  0  0  0
  397.7917 -488.3559 -559.5582 N   0  0  0  0  0  0  0  0  0  0  0  0
  396.2899 -487.4477 -558.1931 N   0  0  0  0  0  0  0  0  0  0  0  0
  396.3436 -485.1230 -557.0208 O   0  0  0  0  0  0  0  0  0  0  0  0
  398.0594 -485.7765 -553.6744 C   0  0  0  0  0  0  0  0  0  0  0  0
  398.5311 -485.2078 -552.5618 N   0  0  0  0  0  0  0  0  0  0  0  0
  1  4  2  0
  1 10  1  0
  1 22  1  0
  2 23  2  0
  2 24  1  0
  3  4  1  0
  3 21  2  0
  4 12  1  0
  5  6  1  0
  5 24  1  1
  6 25  1  1
  7  8  2  0
  7 18  1  0
  8 26  1  0
  9 10  2  0
  9 21  1  0
 11 15  2  0
 11 27  1  0
 13 14  3  0
 14 15  1  0
 15 16  1  0
 16 17  1  0
 16 26  1  0
 17 18  2  0
 18 19  1  0
 19 20  2  0
 19 24  1  0
 20 21  1  0
 20 23  1  0
 26 27  2  0
M  END
$$$$
