
     RDKit          3D

 27 30  0  0  0  0  0  0  0  0999 V2000
 -140.8894 2645.4314-1272.0812 C   0  0  0  0  0  0  0  0  0  0  0  0
 -139.0411 2639.4666-1272.4723 C   0  0  0  0  0  0  0  0  0  0  0  0
 -140.5704 2643.3127-1271.0242 C   0  0  0  0  0  0  0  0  0  0  0  0
 -140.7506 2644.6804-1270.9371 C   0  0  0  0  0  0  0  0  0  0  0  0
 -140.7135 2637.6218-1272.5713 C   0  0  0  0  0  0  0  0  0  0  0  0
 -140.3464 2636.8450-1271.3318 C   0  0  0  0  0  0  0  0  0  0  0  0
 -143.2840 2638.9280-1272.5314 C   0  0  0  0  0  0  0  0  0  0  0  0
 -144.6447 2638.8931-1272.4437 C   0  0  0  0  0  0  0  0  0  0  0  0
 -140.5884 2643.4868-1273.4224 C   0  0  0  0  0  0  0  0  0  0  0  0
 -140.8223 2644.8523-1273.3275 C   0  0  0  0  0  0  0  0  0  0  0  0
 -146.6506 2641.7092-1271.6564 C   0  0  0  0  0  0  0  0  0  0  0  0
 -140.7778 2645.4561-1269.3887 Cl  0  0  0  0  0  0  0  0  0  0  0  0
 -144.5334 2644.5808-1270.9740 N   0  0  0  0  0  0  0  0  0  0  0  0
 -144.9201 2643.5518-1271.2876 C   0  0  0  0  0  0  0  0  0  0  0  0
 -145.3869 2642.2434-1271.6160 C   0  0  0  0  0  0  0  0  0  0  0  0
 -144.5465 2641.2134-1271.9401 N   0  0  0  0  0  0  0  0  0  0  0  0
 -143.1682 2641.3025-1272.0671 N   0  0  0  0  0  0  0  0  0  0  0  0
 -142.5593 2640.1580-1272.3438 C   0  0  0  0  0  0  0  0  0  0  0  0
 -141.1159 2640.1775-1272.4021 C   0  0  0  0  0  0  0  0  0  0  0  0
 -140.2328 2641.2483-1272.3783 C   0  0  0  0  0  0  0  0  0  0  0  0
 -140.4766 2642.7048-1272.2744 C   0  0  0  0  0  0  0  0  0  0  0  0
 -141.0880 2646.7563-1271.9648 F   0  0  0  0  0  0  0  0  0  0  0  0
 -138.9294 2640.7690-1272.4337 N   0  0  0  0  0  0  0  0  0  0  0  0
 -140.3281 2639.0408-1272.4703 N   0  0  0  0  0  0  0  0  0  0  0  0
 -140.2044 2637.6790-1270.1951 O   0  0  0  0  0  0  0  0  0  0  0  0
 -145.3229 2640.0842-1272.1245 C   0  0  0  0  0  0  0  0  0  0  0  0
 -146.6160 2640.3672-1271.9486 N   0  0  0  0  0  0  0  0  0  0  0  0
  1  4  2  0
  1 10  1  0
  1 22  1  0
  2 23  2  0
  2 24  1  0
  3  4  1  0
  3 21  2  0
  4 12  1  0
  5  6  1  0
  5 24  1  1
  6 25  1  1
  7  8  2  0
  7 18  1  0
  8 26  1  0
  9 10  2  0
  9 21  1  0
 11 15  2  0
 11 27  1  0
 13 14  3  0
 14 15  1  0
 15 16  1  0
 16 17  1  0
 16 26  1  0
 17 18  2  0
 18 19  1  0
 19 20  2  0
 19 24  1  0
 20 21  1  0
 20 23  1  0
 26 27  2  0
M  END
$$$$
