
     RDKit          3D

 27 30  0  0  0  0  0  0  0  0999 V2000
 -174.4910  449.8729 -838.1195 C   0  0  0  0  0  0  0  0  0  0  0  0
 -172.3794  451.2614 -843.8430 C   0  0  0  0  0  0  0  0  0  0  0  0
 -172.8926  450.9844 -839.5021 C   0  0  0  0  0  0  0  0  0  0  0  0
 -173.5235  450.8368 -838.2817 C   0  0  0  0  0  0  0  0  0  0  0  0
 -170.3766  450.1068 -844.7723 C   0  0  0  0  0  0  0  0  0  0  0  0
 -169.0757  449.5843 -844.2169 C   0  0  0  0  0  0  0  0  0  0  0  0
 -169.2716  449.1704 -841.5312 C   0  0  0  0  0  0  0  0  0  0  0  0
 -168.4204  448.2564 -840.9846 C   0  0  0  0  0  0  0  0  0  0  0  0
 -174.2808  449.2407 -840.4048 C   0  0  0  0  0  0  0  0  0  0  0  0
 -174.8736  449.0611 -839.1620 C   0  0  0  0  0  0  0  0  0  0  0  0
 -169.3069  444.8888 -840.3114 C   0  0  0  0  0  0  0  0  0  0  0  0
 -173.1151  451.8803 -836.9620 Cl  0  0  0  0  0  0  0  0  0  0  0  0
 -172.7689  444.2763 -841.1522 N   0  0  0  0  0  0  0  0  0  0  0  0
 -171.7563  444.7932 -841.0291 C   0  0  0  0  0  0  0  0  0  0  0  0
 -170.4723  445.3870 -840.8361 C   0  0  0  0  0  0  0  0  0  0  0  0
 -170.2017  446.6898 -841.1515 N   0  0  0  0  0  0  0  0  0  0  0  0
 -171.0812  447.5773 -841.7542 N   0  0  0  0  0  0  0  0  0  0  0  0
 -170.6086  448.8047 -841.9197 C   0  0  0  0  0  0  0  0  0  0  0  0
 -171.5125  449.7912 -842.4640 C   0  0  0  0  0  0  0  0  0  0  0  0
 -172.6419  450.3758 -841.9055 C   0  0  0  0  0  0  0  0  0  0  0  0
 -173.2753  450.1906 -840.5815 C   0  0  0  0  0  0  0  0  0  0  0  0
 -175.0707  449.7357 -836.9132 F   0  0  0  0  0  0  0  0  0  0  0  0
 -173.1738  451.2928 -842.8035 N   0  0  0  0  0  0  0  0  0  0  0  0
 -171.3665  450.3704 -843.7125 N   0  0  0  0  0  0  0  0  0  0  0  0
 -168.3584  450.5747 -843.5013 O   0  0  0  0  0  0  0  0  0  0  0  0
 -168.8979  446.9489 -840.7692 C   0  0  0  0  0  0  0  0  0  0  0  0
 -168.3348  445.8572 -840.2452 N   0  0  0  0  0  0  0  0  0  0  0  0
  1  4  2  0
  1 10  1  0
  1 22  1  0
  2 23  2  0
  2 24  1  0
  3  4  1  0
  3 21  2  0
  4 12  1  0
  5  6  1  0
  5 24  1  1
  6 25  1  1
  7  8  2  0
  7 18  1  0
  8 26  1  0
  9 10  2  0
  9 21  1  0
 11 15  2  0
 11 27  1  0
 13 14  3  0
 14 15  1  0
 15 16  1  0
 16 17  1  0
 16 26  1  0
 17 18  2  0
 18 19  1  0
 19 20  2  0
 19 24  1  0
 20 21  1  0
 20 23  1  0
 26 27  2  0
M  END
$$$$
