
     RDKit          3D

 27 30  0  0  0  0  0  0  0  0999 V2000
 -394.7313  693.4382  529.0988 C   0  0  0  0  0  0  0  0  0  0  0  0
 -395.5797  699.3111  527.0985 C   0  0  0  0  0  0  0  0  0  0  0  0
 -395.9071  695.4666  528.6449 C   0  0  0  0  0  0  0  0  0  0  0  0
 -395.9104  694.1436  529.0444 C   0  0  0  0  0  0  0  0  0  0  0  0
 -393.6276  700.8262  526.7812 C   0  0  0  0  0  0  0  0  0  0  0  0
 -394.6178  701.7647  526.1384 C   0  0  0  0  0  0  0  0  0  0  0  0
 -391.3524  697.9008  526.7587 C   0  0  0  0  0  0  0  0  0  0  0  0
 -390.0096  697.7801  526.9652 C   0  0  0  0  0  0  0  0  0  0  0  0
 -393.5346  695.3253  528.2781 C   0  0  0  0  0  0  0  0  0  0  0  0
 -393.5367  694.0129  528.7313 C   0  0  0  0  0  0  0  0  0  0  0  0
 -388.4421  698.2827  530.1071 C   0  0  0  0  0  0  0  0  0  0  0  0
 -397.4019  693.3658  529.4550 Cl  0  0  0  0  0  0  0  0  0  0  0  0
 -390.8758  699.2994  532.5887 N   0  0  0  0  0  0  0  0  0  0  0  0
 -390.3972  698.9282  531.6187 C   0  0  0  0  0  0  0  0  0  0  0  0
 -389.7596  698.5197  530.4084 C   0  0  0  0  0  0  0  0  0  0  0  0
 -390.4424  698.3163  529.2413 N   0  0  0  0  0  0  0  0  0  0  0  0
 -391.8177  698.4003  529.0820 N   0  0  0  0  0  0  0  0  0  0  0  0
 -392.2484  698.2075  527.8425 C   0  0  0  0  0  0  0  0  0  0  0  0
 -393.6636  698.3690  527.6041 C   0  0  0  0  0  0  0  0  0  0  0  0
 -394.7082  697.4678  527.7684 C   0  0  0  0  0  0  0  0  0  0  0  0
 -394.7146  696.0677  528.2469 C   0  0  0  0  0  0  0  0  0  0  0  0
 -394.7621  692.1595  529.5144 F   0  0  0  0  0  0  0  0  0  0  0  0
 -395.9048  698.0883  527.4318 N   0  0  0  0  0  0  0  0  0  0  0  0
 -394.2462  699.5453  527.1661 N   0  0  0  0  0  0  0  0  0  0  0  0
 -394.7806  701.5107  524.7543 O   0  0  0  0  0  0  0  0  0  0  0  0
 -389.5141  698.0049  528.2643 C   0  0  0  0  0  0  0  0  0  0  0  0
 -388.2807  697.9865  528.7753 N   0  0  0  0  0  0  0  0  0  0  0  0
  1  4  2  0
  1 10  1  0
  1 22  1  0
  2 23  2  0
  2 24  1  0
  3  4  1  0
  3 21  2  0
  4 12  1  0
  5  6  1  0
  5 24  1  1
  6 25  1  1
  7  8  2  0
  7 18  1  0
  8 26  1  0
  9 10  2  0
  9 21  1  0
 11 15  2  0
 11 27  1  0
 13 14  3  0
 14 15  1  0
 15 16  1  0
 16 17  1  0
 16 26  1  0
 17 18  2  0
 18 19  1  0
 19 20  2  0
 19 24  1  0
 20 21  1  0
 20 23  1  0
 26 27  2  0
M  END
$$$$
