
     RDKit          3D

 27 30  0  0  0  0  0  0  0  0999 V2000
  -26.4426  -11.2737-1034.9742 C   0  0  0  0  0  0  0  0  0  0  0  0
  -24.7554  -12.9553-1029.1871 C   0  0  0  0  0  0  0  0  0  0  0  0
  -26.0579  -10.4325-1032.7728 C   0  0  0  0  0  0  0  0  0  0  0  0
  -26.2703  -10.2100-1034.1202 C   0  0  0  0  0  0  0  0  0  0  0  0
  -25.6335  -11.7257-1027.2053 C   0  0  0  0  0  0  0  0  0  0  0  0
  -27.0370  -11.9661-1026.7086 C   0  0  0  0  0  0  0  0  0  0  0  0
  -26.5294   -8.8590-1029.9609 C   0  0  0  0  0  0  0  0  0  0  0  0
  -27.3505   -7.7741-1029.8684 C   0  0  0  0  0  0  0  0  0  0  0  0
  -26.1113  -12.8020-1033.1791 C   0  0  0  0  0  0  0  0  0  0  0  0
  -26.3777  -12.5716-1034.5219 C   0  0  0  0  0  0  0  0  0  0  0  0
  -30.7311   -7.9413-1028.8074 C   0  0  0  0  0  0  0  0  0  0  0  0
  -26.2964   -8.5934-1034.7389 Cl  0  0  0  0  0  0  0  0  0  0  0  0
  -31.7018  -11.3562-1028.1298 N   0  0  0  0  0  0  0  0  0  0  0  0
  -31.0755  -10.4398-1028.4041 C   0  0  0  0  0  0  0  0  0  0  0  0
  -30.3489   -9.2571-1028.7385 C   0  0  0  0  0  0  0  0  0  0  0  0
  -29.0330   -9.2741-1029.1091 N   0  0  0  0  0  0  0  0  0  0  0  0
  -28.2149  -10.3935-1029.1436 N   0  0  0  0  0  0  0  0  0  0  0  0
  -26.9838  -10.1716-1029.5822 C   0  0  0  0  0  0  0  0  0  0  0  0
  -26.1162  -11.3182-1029.7192 C   0  0  0  0  0  0  0  0  0  0  0  0
  -25.6871  -11.9854-1030.8596 C   0  0  0  0  0  0  0  0  0  0  0  0
  -25.9658  -11.7369-1032.2908 C   0  0  0  0  0  0  0  0  0  0  0  0
  -26.6722  -11.0263-1036.2767 F   0  0  0  0  0  0  0  0  0  0  0  0
  -24.8369  -13.0209-1030.4911 N   0  0  0  0  0  0  0  0  0  0  0  0
  -25.5102  -11.9627-1028.6552 N   0  0  0  0  0  0  0  0  0  0  0  0
  -27.7027  -12.9784-1027.4430 O   0  0  0  0  0  0  0  0  0  0  0  0
  -28.6739   -7.9776-1029.4309 C   0  0  0  0  0  0  0  0  0  0  0  0
  -29.7050   -7.1464-1029.2582 N   0  0  0  0  0  0  0  0  0  0  0  0
  1  4  2  0
  1 10  1  0
  1 22  1  0
  2 23  2  0
  2 24  1  0
  3  4  1  0
  3 21  2  0
  4 12  1  0
  5  6  1  0
  5 24  1  1
  6 25  1  1
  7  8  2  0
  7 18  1  0
  8 26  1  0
  9 10  2  0
  9 21  1  0
 11 15  2  0
 11 27  1  0
 13 14  3  0
 14 15  1  0
 15 16  1  0
 16 17  1  0
 16 26  1  0
 17 18  2  0
 18 19  1  0
 19 20  2  0
 19 24  1  0
 20 21  1  0
 20 23  1  0
 26 27  2  0
M  END
$$$$
