
     RDKit          3D

 27 30  0  0  0  0  0  0  0  0999 V2000
 1045.3409  207.1383    1.4578 C   0  0  0  0  0  0  0  0  0  0  0  0
 1039.4043  207.9312    3.2767 C   0  0  0  0  0  0  0  0  0  0  0  0
 1043.9127  207.0657    3.3708 C   0  0  0  0  0  0  0  0  0  0  0  0
 1045.1345  206.8098    2.7770 C   0  0  0  0  0  0  0  0  0  0  0  0
 1038.8763  208.5366    5.6351 C   0  0  0  0  0  0  0  0  0  0  0  0
 1039.2306  209.8389    6.3068 C   0  0  0  0  0  0  0  0  0  0  0  0
 1041.7072  209.3822    6.6497 C   0  0  0  0  0  0  0  0  0  0  0  0
 1042.4575  209.5570    7.7754 C   0  0  0  0  0  0  0  0  0  0  0  0
 1043.0941  207.9038    1.2709 C   0  0  0  0  0  0  0  0  0  0  0  0
 1044.3401  207.6941    0.6945 C   0  0  0  0  0  0  0  0  0  0  0  0
 1045.1890  207.4799    8.6700 C   0  0  0  0  0  0  0  0  0  0  0  0
 1046.3997  206.0540    3.6860 Cl  0  0  0  0  0  0  0  0  0  0  0  0
 1045.6337  204.8310    6.2469 N   0  0  0  0  0  0  0  0  0  0  0  0
 1045.2233  205.7482    6.7927 C   0  0  0  0  0  0  0  0  0  0  0  0
 1044.7737  206.9075    7.4948 C   0  0  0  0  0  0  0  0  0  0  0  0
 1043.7269  207.6756    7.0655 N   0  0  0  0  0  0  0  0  0  0  0  0
 1043.0193  207.4955    5.8864 N   0  0  0  0  0  0  0  0  0  0  0  0
 1042.0132  208.3395    5.7053 C   0  0  0  0  0  0  0  0  0  0  0  0
 1041.1892  208.1420    4.5355 C   0  0  0  0  0  0  0  0  0  0  0  0
 1041.5477  207.8376    3.2284 C   0  0  0  0  0  0  0  0  0  0  0  0
 1042.8745  207.6082    2.6157 C   0  0  0  0  0  0  0  0  0  0  0  0
 1046.5474  206.8999    0.9134 F   0  0  0  0  0  0  0  0  0  0  0  0
 1040.4011  207.7207    2.4544 N   0  0  0  0  0  0  0  0  0  0  0  0
 1039.8071  208.2039    4.5421 N   0  0  0  0  0  0  0  0  0  0  0  0
 1038.6245  209.9720    7.5804 O   0  0  0  0  0  0  0  0  0  0  0  0
 1043.5171  208.6609    8.0135 C   0  0  0  0  0  0  0  0  0  0  0  0
 1044.4010  208.5528    9.0087 N   0  0  0  0  0  0  0  0  0  0  0  0
  1  4  2  0
  1 10  1  0
  1 22  1  0
  2 23  2  0
  2 24  1  0
  3  4  1  0
  3 21  2  0
  4 12  1  0
  5  6  1  0
  5 24  1  1
  6 25  1  1
  7  8  2  0
  7 18  1  0
  8 26  1  0
  9 10  2  0
  9 21  1  0
 11 15  2  0
 11 27  1  0
 13 14  3  0
 14 15  1  0
 15 16  1  0
 16 17  1  0
 16 26  1  0
 17 18  2  0
 18 19  1  0
 19 20  2  0
 19 24  1  0
 20 21  1  0
 20 23  1  0
 26 27  2  0
M  END
$$$$
