
     RDKit          3D

 27 30  0  0  0  0  0  0  0  0999 V2000
  486.6430 -373.9940 -731.3220 C   0  0  0  0  0  0  0  0  0  0  0  0
  489.7835 -376.6702 -736.0320 C   0  0  0  0  0  0  0  0  0  0  0  0
  486.4201 -374.5851 -733.6249 C   0  0  0  0  0  0  0  0  0  0  0  0
  485.8748 -374.0817 -732.4591 C   0  0  0  0  0  0  0  0  0  0  0  0
  488.7620 -376.8177 -738.3000 C   0  0  0  0  0  0  0  0  0  0  0  0
  487.3919 -377.2017 -738.8000 C   0  0  0  0  0  0  0  0  0  0  0  0
  485.6167 -376.3532 -737.2645 C   0  0  0  0  0  0  0  0  0  0  0  0
  484.3862 -375.9962 -737.7318 C   0  0  0  0  0  0  0  0  0  0  0  0
  488.4851 -374.9841 -732.4591 C   0  0  0  0  0  0  0  0  0  0  0  0
  487.9484 -374.4283 -731.3057 C   0  0  0  0  0  0  0  0  0  0  0  0
  483.0533 -372.7188 -737.4824 C   0  0  0  0  0  0  0  0  0  0  0  0
  484.2173 -373.5831 -732.4215 Cl  0  0  0  0  0  0  0  0  0  0  0  0
  485.3865 -370.5857 -735.6825 N   0  0  0  0  0  0  0  0  0  0  0  0
  484.8914 -371.4528 -736.2401 C   0  0  0  0  0  0  0  0  0  0  0  0
  484.2768 -372.5719 -736.8795 C   0  0  0  0  0  0  0  0  0  0  0  0
  484.8727 -373.8000 -736.9606 N   0  0  0  0  0  0  0  0  0  0  0  0
  486.1491 -374.1124 -736.5167 N   0  0  0  0  0  0  0  0  0  0  0  0
  486.4938 -375.3845 -736.6605 C   0  0  0  0  0  0  0  0  0  0  0  0
  487.7797 -375.7824 -736.1366 C   0  0  0  0  0  0  0  0  0  0  0  0
  488.3095 -375.6404 -734.8602 C   0  0  0  0  0  0  0  0  0  0  0  0
  487.7329 -375.0522 -733.6312 C   0  0  0  0  0  0  0  0  0  0  0  0
  486.0929 -373.4769 -730.2081 F   0  0  0  0  0  0  0  0  0  0  0  0
  489.5798 -376.2016 -734.8273 N   0  0  0  0  0  0  0  0  0  0  0  0
  488.7470 -376.4410 -736.8751 N   0  0  0  0  0  0  0  0  0  0  0  0
  487.4221 -378.3573 -739.6199 O   0  0  0  0  0  0  0  0  0  0  0  0
  483.9763 -374.6584 -737.5707 C   0  0  0  0  0  0  0  0  0  0  0  0
  482.8515 -374.0145 -737.8925 N   0  0  0  0  0  0  0  0  0  0  0  0
  1  4  2  0
  1 10  1  0
  1 22  1  0
  2 23  2  0
  2 24  1  0
  3  4  1  0
  3 21  2  0
  4 12  1  0
  5  6  1  0
  5 24  1  1
  6 25  1  1
  7  8  2  0
  7 18  1  0
  8 26  1  0
  9 10  2  0
  9 21  1  0
 11 15  2  0
 11 27  1  0
 13 14  3  0
 14 15  1  0
 15 16  1  0
 16 17  1  0
 16 26  1  0
 17 18  2  0
 18 19  1  0
 19 20  2  0
 19 24  1  0
 20 21  1  0
 20 23  1  0
 26 27  2  0
M  END
$$$$
