
     RDKit          3D

 27 30  0  0  0  0  0  0  0  0999 V2000
 -169.2868  508.4543 -483.1613 C   0  0  0  0  0  0  0  0  0  0  0  0
 -168.1350  507.0639 -489.1540 C   0  0  0  0  0  0  0  0  0  0  0  0
 -169.6727  506.8048 -484.8446 C   0  0  0  0  0  0  0  0  0  0  0  0
 -169.7159  507.1981 -483.5204 C   0  0  0  0  0  0  0  0  0  0  0  0
 -169.7159  505.6367 -490.4469 C   0  0  0  0  0  0  0  0  0  0  0  0
 -171.1678  505.9057 -490.7534 C   0  0  0  0  0  0  0  0  0  0  0  0
 -172.2238  506.4793 -487.1192 C   0  0  0  0  0  0  0  0  0  0  0  0
 -173.3973  505.8561 -486.8123 C   0  0  0  0  0  0  0  0  0  0  0  0
 -168.6849  508.9214 -485.4165 C   0  0  0  0  0  0  0  0  0  0  0  0
 -168.7804  509.3306 -484.0932 C   0  0  0  0  0  0  0  0  0  0  0  0
 -173.9697  502.3859 -487.2711 C   0  0  0  0  0  0  0  0  0  0  0  0
 -170.2875  506.1020 -482.3083 Cl  0  0  0  0  0  0  0  0  0  0  0  0
 -171.0417  500.8590 -488.7991 N   0  0  0  0  0  0  0  0  0  0  0  0
 -171.7730  501.5800 -488.2957 C   0  0  0  0  0  0  0  0  0  0  0  0
 -172.6806  502.5206 -487.7210 C   0  0  0  0  0  0  0  0  0  0  0  0
 -172.3710  503.8413 -487.5493 N   0  0  0  0  0  0  0  0  0  0  0  0
 -171.1462  504.4296 -487.8279 N   0  0  0  0  0  0  0  0  0  0  0  0
 -171.0970  505.7388 -487.6241 C   0  0  0  0  0  0  0  0  0  0  0  0
 -169.8718  506.4157 -487.9798 C   0  0  0  0  0  0  0  0  0  0  0  0
 -169.0463  507.2330 -487.2182 C   0  0  0  0  0  0  0  0  0  0  0  0
 -169.1446  507.6640 -485.8064 C   0  0  0  0  0  0  0  0  0  0  0  0
 -169.3633  508.8182 -481.8684 F   0  0  0  0  0  0  0  0  0  0  0  0
 -167.9630  507.6354 -487.9893 N   0  0  0  0  0  0  0  0  0  0  0  0
 -169.2701  506.3264 -489.2231 N   0  0  0  0  0  0  0  0  0  0  0  0
 -171.3717  506.2895 -492.1020 O   0  0  0  0  0  0  0  0  0  0  0  0
 -173.4939  504.4699 -487.0419 C   0  0  0  0  0  0  0  0  0  0  0  0
 -174.4874  503.5939 -486.8707 N   0  0  0  0  0  0  0  0  0  0  0  0
  1  4  2  0
  1 10  1  0
  1 22  1  0
  2 23  2  0
  2 24  1  0
  3  4  1  0
  3 21  2  0
  4 12  1  0
  5  6  1  0
  5 24  1  1
  6 25  1  1
  7  8  2  0
  7 18  1  0
  8 26  1  0
  9 10  2  0
  9 21  1  0
 11 15  2  0
 11 27  1  0
 13 14  3  0
 14 15  1  0
 15 16  1  0
 16 17  1  0
 16 26  1  0
 17 18  2  0
 18 19  1  0
 19 20  2  0
 19 24  1  0
 20 21  1  0
 20 23  1  0
 26 27  2  0
M  END
$$$$
