
     RDKit          3D

 27 30  0  0  0  0  0  0  0  0999 V2000
  845.6235 1445.4911  146.3035 C   0  0  0  0  0  0  0  0  0  0  0  0
  848.5538 1442.2957  150.8254 C   0  0  0  0  0  0  0  0  0  0  0  0
  847.6148 1444.2437  146.7329 C   0  0  0  0  0  0  0  0  0  0  0  0
  846.8246 1444.9803  145.8708 C   0  0  0  0  0  0  0  0  0  0  0  0
  850.4567 1440.7898  150.2610 C   0  0  0  0  0  0  0  0  0  0  0  0
  851.0303 1440.1061  149.0453 C   0  0  0  0  0  0  0  0  0  0  0  0
  851.0651 1441.6589  147.3603 C   0  0  0  0  0  0  0  0  0  0  0  0
  851.6584 1441.2788  146.1931 C   0  0  0  0  0  0  0  0  0  0  0  0
  845.9302 1444.4740  148.4341 C   0  0  0  0  0  0  0  0  0  0  0  0
  845.1665 1445.2583  147.5802 C   0  0  0  0  0  0  0  0  0  0  0  0
  849.8886 1440.6979  143.1746 C   0  0  0  0  0  0  0  0  0  0  0  0
  847.3351 1445.2427  144.2371 Cl  0  0  0  0  0  0  0  0  0  0  0  0
  846.3359 1441.1860  143.6649 N   0  0  0  0  0  0  0  0  0  0  0  0
  847.4609 1441.1063  143.8539 C   0  0  0  0  0  0  0  0  0  0  0  0
  848.8759 1441.0425  144.0333 C   0  0  0  0  0  0  0  0  0  0  0  0
  849.4860 1441.3118  145.2269 N   0  0  0  0  0  0  0  0  0  0  0  0
  848.8517 1441.7457  146.3817 N   0  0  0  0  0  0  0  0  0  0  0  0
  849.6467 1441.8965  147.4316 C   0  0  0  0  0  0  0  0  0  0  0  0
  849.0244 1442.2642  148.6821 C   0  0  0  0  0  0  0  0  0  0  0  0
  847.9807 1443.1436  148.9390 C   0  0  0  0  0  0  0  0  0  0  0  0
  847.1663 1443.9746  148.0249 C   0  0  0  0  0  0  0  0  0  0  0  0
  844.8871 1446.2251  145.4494 F   0  0  0  0  0  0  0  0  0  0  0  0
  847.7123 1443.1506  150.3020 N   0  0  0  0  0  0  0  0  0  0  0  0
  849.3823 1441.7352  149.9104 N   0  0  0  0  0  0  0  0  0  0  0  0
  850.3585 1440.4734  147.8531 O   0  0  0  0  0  0  0  0  0  0  0  0
  850.8400 1441.0826  145.0639 C   0  0  0  0  0  0  0  0  0  0  0  0
  851.1061 1440.6989  143.8127 N   0  0  0  0  0  0  0  0  0  0  0  0
  1  4  2  0
  1 10  1  0
  1 22  1  0
  2 23  2  0
  2 24  1  0
  3  4  1  0
  3 21  2  0
  4 12  1  0
  5  6  1  0
  5 24  1  1
  6 25  1  1
  7  8  2  0
  7 18  1  0
  8 26  1  0
  9 10  2  0
  9 21  1  0
 11 15  2  0
 11 27  1  0
 13 14  3  0
 14 15  1  0
 15 16  1  0
 16 17  1  0
 16 26  1  0
 17 18  2  0
 18 19  1  0
 19 20  2  0
 19 24  1  0
 20 21  1  0
 20 23  1  0
 26 27  2  0
M  END
$$$$
