
     RDKit          3D

 27 30  0  0  0  0  0  0  0  0999 V2000
 -211.4754   12.4902  235.0097 C   0  0  0  0  0  0  0  0  0  0  0  0
 -212.7989   10.2801  240.7121 C   0  0  0  0  0  0  0  0  0  0  0  0
 -210.8191   11.5668  237.1119 C   0  0  0  0  0  0  0  0  0  0  0  0
 -210.5457   11.8377  235.7846 C   0  0  0  0  0  0  0  0  0  0  0  0
 -213.0491   11.8299  242.6469 C   0  0  0  0  0  0  0  0  0  0  0  0
 -211.7818   12.0137  243.4437 C   0  0  0  0  0  0  0  0  0  0  0  0
 -213.4597   14.6964  240.0360 C   0  0  0  0  0  0  0  0  0  0  0  0
 -213.3447   16.0461  240.1936 C   0  0  0  0  0  0  0  0  0  0  0  0
 -213.0004   12.5411  236.8371 C   0  0  0  0  0  0  0  0  0  0  0  0
 -212.6991   12.8582  235.5194 C   0  0  0  0  0  0  0  0  0  0  0  0
 -210.4158   17.6527  241.3855 C   0  0  0  0  0  0  0  0  0  0  0  0
 -209.0421   11.3352  235.0887 Cl  0  0  0  0  0  0  0  0  0  0  0  0
 -207.9146   15.1404  242.2216 N   0  0  0  0  0  0  0  0  0  0  0  0
 -208.8447   15.6935  241.8517 C   0  0  0  0  0  0  0  0  0  0  0  0
 -210.0437   16.3325  241.4125 C   0  0  0  0  0  0  0  0  0  0  0  0
 -211.1219   15.6403  240.9351 N   0  0  0  0  0  0  0  0  0  0  0  0
 -211.1834   14.2681  240.7420 N   0  0  0  0  0  0  0  0  0  0  0  0
 -212.3535   13.8174  240.3118 C   0  0  0  0  0  0  0  0  0  0  0  0
 -212.4994   12.3868  240.1761 C   0  0  0  0  0  0  0  0  0  0  0  0
 -212.3808   11.5768  239.0538 C   0  0  0  0  0  0  0  0  0  0  0  0
 -212.0589   11.9087  237.6484 C   0  0  0  0  0  0  0  0  0  0  0  0
 -211.1720   12.7624  233.7277 F   0  0  0  0  0  0  0  0  0  0  0  0
 -212.5850   10.2528  239.4214 N   0  0  0  0  0  0  0  0  0  0  0  0
 -212.7751   11.5328  241.2296 N   0  0  0  0  0  0  0  0  0  0  0  0
 -212.0321   12.1401  244.8326 O   0  0  0  0  0  0  0  0  0  0  0  0
 -212.1240   16.5576  240.6750 C   0  0  0  0  0  0  0  0  0  0  0  0
 -211.7113   17.7972  240.9516 N   0  0  0  0  0  0  0  0  0  0  0  0
  1  4  2  0
  1 10  1  0
  1 22  1  0
  2 23  2  0
  2 24  1  0
  3  4  1  0
  3 21  2  0
  4 12  1  0
  5  6  1  0
  5 24  1  1
  6 25  1  1
  7  8  2  0
  7 18  1  0
  8 26  1  0
  9 10  2  0
  9 21  1  0
 11 15  2  0
 11 27  1  0
 13 14  3  0
 14 15  1  0
 15 16  1  0
 16 17  1  0
 16 26  1  0
 17 18  2  0
 18 19  1  0
 19 20  2  0
 19 24  1  0
 20 21  1  0
 20 23  1  0
 26 27  2  0
M  END
$$$$
