
     RDKit          3D

 27 30  0  0  0  0  0  0  0  0999 V2000
 2000.2572 5646.9092-1839.3083 C   0  0  0  0  0  0  0  0  0  0  0  0
 1995.2465 5643.5176-1840.9086 C   0  0  0  0  0  0  0  0  0  0  0  0
 1999.1764 5644.9238-1840.0842 C   0  0  0  0  0  0  0  0  0  0  0  0
 2000.3177 5645.6943-1839.9502 C   0  0  0  0  0  0  0  0  0  0  0  0
 1993.6562 5642.7109-1839.1697 C   0  0  0  0  0  0  0  0  0  0  0  0
 1992.4586 5643.6260-1839.1238 C   0  0  0  0  0  0  0  0  0  0  0  0
 1995.5829 5645.4805-1836.7915 C   0  0  0  0  0  0  0  0  0  0  0  0
 1995.5331 5645.5874-1835.4323 C   0  0  0  0  0  0  0  0  0  0  0  0
 1997.9110 5646.6582-1838.9956 C   0  0  0  0  0  0  0  0  0  0  0  0
 1999.0695 5647.4009-1838.8168 C   0  0  0  0  0  0  0  0  0  0  0  0
 1995.8276 5642.8228-1833.2277 C   0  0  0  0  0  0  0  0  0  0  0  0
 2001.8192 5645.1431-1840.6118 Cl  0  0  0  0  0  0  0  0  0  0  0  0
 1996.1040 5639.7388-1835.1058 N   0  0  0  0  0  0  0  0  0  0  0  0
 1996.0546 5640.8447-1834.8268 C   0  0  0  0  0  0  0  0  0  0  0  0
 1995.9292 5642.2168-1834.4539 C   0  0  0  0  0  0  0  0  0  0  0  0
 1995.8531 5643.2300-1835.3684 N   0  0  0  0  0  0  0  0  0  0  0  0
 1995.9563 5643.0879-1836.7443 N   0  0  0  0  0  0  0  0  0  0  0  0
 1995.8036 5644.2114-1837.4338 C   0  0  0  0  0  0  0  0  0  0  0  0
 1995.8171 5644.1099-1838.8735 C   0  0  0  0  0  0  0  0  0  0  0  0
 1996.7201 5644.6157-1839.8000 C   0  0  0  0  0  0  0  0  0  0  0  0
 1997.9563 5645.4082-1839.6151 C   0  0  0  0  0  0  0  0  0  0  0  0
 2001.3876 5647.6250-1839.1704 F   0  0  0  0  0  0  0  0  0  0  0  0
 1996.3289 5644.2329-1841.0765 N   0  0  0  0  0  0  0  0  0  0  0  0
 1994.8746 5643.4126-1839.6101 N   0  0  0  0  0  0  0  0  0  0  0  0
 1991.2667 5642.9351-1838.7900 O   0  0  0  0  0  0  0  0  0  0  0  0
 1995.6646 5644.4102-1834.6707 C   0  0  0  0  0  0  0  0  0  0  0  0
 1995.6385 5644.1772-1833.3551 N   0  0  0  0  0  0  0  0  0  0  0  0
  1  4  2  0
  1 10  1  0
  1 22  1  0
  2 23  2  0
  2 24  1  0
  3  4  1  0
  3 21  2  0
  4 12  1  0
  5  6  1  0
  5 24  1  1
  6 25  1  1
  7  8  2  0
  7 18  1  0
  8 26  1  0
  9 10  2  0
  9 21  1  0
 11 15  2  0
 11 27  1  0
 13 14  3  0
 14 15  1  0
 15 16  1  0
 16 17  1  0
 16 26  1  0
 17 18  2  0
 18 19  1  0
 19 20  2  0
 19 24  1  0
 20 21  1  0
 20 23  1  0
 26 27  2  0
M  END
$$$$
