
     RDKit          3D

 27 30  0  0  0  0  0  0  0  0999 V2000
 -375.3155  378.0946 -744.7172 C   0  0  0  0  0  0  0  0  0  0  0  0
 -380.8312  379.8248 -747.1168 C   0  0  0  0  0  0  0  0  0  0  0  0
 -376.7578  379.0918 -746.3383 C   0  0  0  0  0  0  0  0  0  0  0  0
 -375.4958  378.9209 -745.8016 C   0  0  0  0  0  0  0  0  0  0  0  0
 -382.6305  378.1426 -747.4923 C   0  0  0  0  0  0  0  0  0  0  0  0
 -383.6446  379.2340 -747.2574 C   0  0  0  0  0  0  0  0  0  0  0  0
 -379.1634  375.6368 -745.8552 C   0  0  0  0  0  0  0  0  0  0  0  0
 -379.2170  374.2901 -745.6462 C   0  0  0  0  0  0  0  0  0  0  0  0
 -377.6541  377.6590 -744.6272 C   0  0  0  0  0  0  0  0  0  0  0  0
 -376.3766  377.4491 -744.1257 C   0  0  0  0  0  0  0  0  0  0  0  0
 -382.1173  372.3212 -746.1869 C   0  0  0  0  0  0  0  0  0  0  0  0
 -374.1442  379.7648 -746.4780 Cl  0  0  0  0  0  0  0  0  0  0  0  0
 -384.8589  374.4818 -747.2357 N   0  0  0  0  0  0  0  0  0  0  0  0
 -383.8463  374.0505 -746.9241 C   0  0  0  0  0  0  0  0  0  0  0  0
 -382.5615  373.5753 -746.5223 C   0  0  0  0  0  0  0  0  0  0  0  0
 -381.4808  374.3985 -746.3657 N   0  0  0  0  0  0  0  0  0  0  0  0
 -381.4523  375.7585 -746.6361 N   0  0  0  0  0  0  0  0  0  0  0  0
 -380.3017  376.3575 -746.3622 C   0  0  0  0  0  0  0  0  0  0  0  0
 -380.2443  377.7892 -746.5443 C   0  0  0  0  0  0  0  0  0  0  0  0
 -379.2156  378.6850 -746.2817 C   0  0  0  0  0  0  0  0  0  0  0  0
 -377.8538  378.4673 -745.7461 C   0  0  0  0  0  0  0  0  0  0  0  0
 -374.0720  377.9283 -744.2317 F   0  0  0  0  0  0  0  0  0  0  0  0
 -379.6191  379.9642 -746.6438 N   0  0  0  0  0  0  0  0  0  0  0  0
 -381.2757  378.5446 -747.0745 N   0  0  0  0  0  0  0  0  0  0  0  0
 -384.8661  378.7330 -746.7430 O   0  0  0  0  0  0  0  0  0  0  0  0
 -380.4320  373.6254 -745.9011 C   0  0  0  0  0  0  0  0  0  0  0  0
 -380.8055  372.3491 -745.7789 N   0  0  0  0  0  0  0  0  0  0  0  0
  1  4  2  0
  1 10  1  0
  1 22  1  0
  2 23  2  0
  2 24  1  0
  3  4  1  0
  3 21  2  0
  4 12  1  0
  5  6  1  0
  5 24  1  1
  6 25  1  1
  7  8  2  0
  7 18  1  0
  8 26  1  0
  9 10  2  0
  9 21  1  0
 11 15  2  0
 11 27  1  0
 13 14  3  0
 14 15  1  0
 15 16  1  0
 16 17  1  0
 16 26  1  0
 17 18  2  0
 18 19  1  0
 19 20  2  0
 19 24  1  0
 20 21  1  0
 20 23  1  0
 26 27  2  0
M  END
$$$$
