
     RDKit          3D

 27 30  0  0  0  0  0  0  0  0999 V2000
 -169.0990  660.9232  381.3599 C   0  0  0  0  0  0  0  0  0  0  0  0
 -164.8989  664.3698  378.2415 C   0  0  0  0  0  0  0  0  0  0  0  0
 -168.1509  662.1152  379.5206 C   0  0  0  0  0  0  0  0  0  0  0  0
 -169.1808  661.3693  380.0616 C   0  0  0  0  0  0  0  0  0  0  0  0
 -162.6066  664.6866  379.1653 C   0  0  0  0  0  0  0  0  0  0  0  0
 -162.4579  665.7853  378.1426 C   0  0  0  0  0  0  0  0  0  0  0  0
 -162.6810  663.4581  381.7794 C   0  0  0  0  0  0  0  0  0  0  0  0
 -162.0914  663.0884  382.9522 C   0  0  0  0  0  0  0  0  0  0  0  0
 -166.9304  661.8804  381.5792 C   0  0  0  0  0  0  0  0  0  0  0  0
 -167.9909  661.1774  382.1346 C   0  0  0  0  0  0  0  0  0  0  0  0
 -163.5855  660.9008  385.3105 C   0  0  0  0  0  0  0  0  0  0  0  0
 -170.5646  660.9745  379.0992 Cl  0  0  0  0  0  0  0  0  0  0  0  0
 -166.8987  659.9430  384.1307 N   0  0  0  0  0  0  0  0  0  0  0  0
 -165.8508  660.3848  384.2490 C   0  0  0  0  0  0  0  0  0  0  0  0
 -164.5477  660.9623  384.3343 C   0  0  0  0  0  0  0  0  0  0  0  0
 -164.0302  661.7746  383.3636 N   0  0  0  0  0  0  0  0  0  0  0  0
 -164.6412  662.0876  382.1586 N   0  0  0  0  0  0  0  0  0  0  0  0
 -163.9660  662.9349  381.3946 C   0  0  0  0  0  0  0  0  0  0  0  0
 -164.5963  663.3625  380.1673 C   0  0  0  0  0  0  0  0  0  0  0  0
 -165.8779  663.1224  379.6879 C   0  0  0  0  0  0  0  0  0  0  0  0
 -167.0074  662.3691  380.2754 C   0  0  0  0  0  0  0  0  0  0  0  0
 -170.1273  660.2199  381.8678 F   0  0  0  0  0  0  0  0  0  0  0  0
 -166.0364  663.7628  378.4653 N   0  0  0  0  0  0  0  0  0  0  0  0
 -163.9823  664.1609  379.2180 N   0  0  0  0  0  0  0  0  0  0  0  0
 -163.4897  665.7614  377.1720 O   0  0  0  0  0  0  0  0  0  0  0  0
 -162.7928  662.2107  383.8014 C   0  0  0  0  0  0  0  0  0  0  0  0
 -162.5056  661.6905  384.9973 N   0  0  0  0  0  0  0  0  0  0  0  0
  1  4  2  0
  1 10  1  0
  1 22  1  0
  2 23  2  0
  2 24  1  0
  3  4  1  0
  3 21  2  0
  4 12  1  0
  5  6  1  0
  5 24  1  1
  6 25  1  1
  7  8  2  0
  7 18  1  0
  8 26  1  0
  9 10  2  0
  9 21  1  0
 11 15  2  0
 11 27  1  0
 13 14  3  0
 14 15  1  0
 15 16  1  0
 16 17  1  0
 16 26  1  0
 17 18  2  0
 18 19  1  0
 19 20  2  0
 19 24  1  0
 20 21  1  0
 20 23  1  0
 26 27  2  0
M  END
$$$$
