
     RDKit          3D

 27 30  0  0  0  0  0  0  0  0999 V2000
 -251.9268 -131.1067   -0.4693 C   0  0  0  0  0  0  0  0  0  0  0  0
 -255.0275 -126.8868    2.9730 C   0  0  0  0  0  0  0  0  0  0  0  0
 -252.3851 -128.7733   -0.2524 C   0  0  0  0  0  0  0  0  0  0  0  0
 -251.8212 -129.8236   -0.9518 C   0  0  0  0  0  0  0  0  0  0  0  0
 -253.9934 -124.6717    3.4547 C   0  0  0  0  0  0  0  0  0  0  0  0
 -253.0501 -123.7358    2.7416 C   0  0  0  0  0  0  0  0  0  0  0  0
 -250.5821 -126.4032    2.5130 C   0  0  0  0  0  0  0  0  0  0  0  0
 -249.3603 -125.8919    2.1880 C   0  0  0  0  0  0  0  0  0  0  0  0
 -253.0817 -130.3157    1.4560 C   0  0  0  0  0  0  0  0  0  0  0  0
 -252.5603 -131.3729    0.7225 C   0  0  0  0  0  0  0  0  0  0  0  0
 -248.7830 -123.7763   -0.5997 C   0  0  0  0  0  0  0  0  0  0  0  0
 -250.9613 -129.5227   -2.4240 Cl  0  0  0  0  0  0  0  0  0  0  0  0
 -251.9017 -123.3014   -2.4224 N   0  0  0  0  0  0  0  0  0  0  0  0
 -251.0923 -123.6191   -1.6795 C   0  0  0  0  0  0  0  0  0  0  0  0
 -250.1293 -124.0186   -0.7041 C   0  0  0  0  0  0  0  0  0  0  0  0
 -250.4400 -124.8143    0.3636 N   0  0  0  0  0  0  0  0  0  0  0  0
 -251.7071 -125.2747    0.6896 N   0  0  0  0  0  0  0  0  0  0  0  0
 -251.7555 -126.0728    1.7472 C   0  0  0  0  0  0  0  0  0  0  0  0
 -253.0372 -126.6497    2.0796 C   0  0  0  0  0  0  0  0  0  0  0  0
 -253.5751 -127.8873    1.7496 C   0  0  0  0  0  0  0  0  0  0  0  0
 -253.0137 -129.0111    0.9683 C   0  0  0  0  0  0  0  0  0  0  0  0
 -251.3893 -132.1122   -1.1840 F   0  0  0  0  0  0  0  0  0  0  0  0
 -254.8366 -128.0045    2.3194 N   0  0  0  0  0  0  0  0  0  0  0  0
 -253.9909 -126.0206    2.8608 N   0  0  0  0  0  0  0  0  0  0  0  0
 -253.7147 -122.9219    1.7911 O   0  0  0  0  0  0  0  0  0  0  0  0
 -249.2673 -125.0619    1.0540 C   0  0  0  0  0  0  0  0  0  0  0  0
 -248.2386 -124.4385    0.4740 N   0  0  0  0  0  0  0  0  0  0  0  0
  1  4  2  0
  1 10  1  0
  1 22  1  0
  2 23  2  0
  2 24  1  0
  3  4  1  0
  3 21  2  0
  4 12  1  0
  5  6  1  0
  5 24  1  1
  6 25  1  1
  7  8  2  0
  7 18  1  0
  8 26  1  0
  9 10  2  0
  9 21  1  0
 11 15  2  0
 11 27  1  0
 13 14  3  0
 14 15  1  0
 15 16  1  0
 16 17  1  0
 16 26  1  0
 17 18  2  0
 18 19  1  0
 19 20  2  0
 19 24  1  0
 20 21  1  0
 20 23  1  0
 26 27  2  0
M  END
$$$$
