
     RDKit          3D

 27 30  0  0  0  0  0  0  0  0999 V2000
 -158.4745  541.1271  298.0575 C   0  0  0  0  0  0  0  0  0  0  0  0
 -160.7067  535.2806  298.1017 C   0  0  0  0  0  0  0  0  0  0  0  0
 -160.3249  539.7655  298.7106 C   0  0  0  0  0  0  0  0  0  0  0  0
 -159.6345  540.9610  298.7771 C   0  0  0  0  0  0  0  0  0  0  0  0
 -163.1177  534.8419  297.6512 C   0  0  0  0  0  0  0  0  0  0  0  0
 -164.3822  535.6118  297.3620 C   0  0  0  0  0  0  0  0  0  0  0  0
 -164.2975  537.6369  297.9212 C   0  0  0  0  0  0  0  0  0  0  0  0
 -165.3591  538.4667  297.7110 C   0  0  0  0  0  0  0  0  0  0  0  0
 -158.6203  538.8895  297.2580 C   0  0  0  0  0  0  0  0  0  0  0  0
 -157.9598  540.1102  297.2867 C   0  0  0  0  0  0  0  0  0  0  0  0
 -165.1165  541.6119  296.0892 C   0  0  0  0  0  0  0  0  0  0  0  0
 -160.2155  542.2432  299.7850 Cl  0  0  0  0  0  0  0  0  0  0  0  0
 -161.6867  542.3040  295.1591 N   0  0  0  0  0  0  0  0  0  0  0  0
 -162.6196  541.7990  295.5865 C   0  0  0  0  0  0  0  0  0  0  0  0
 -163.8150  541.1794  296.0615 C   0  0  0  0  0  0  0  0  0  0  0  0
 -163.8283  539.9454  296.6499 N   0  0  0  0  0  0  0  0  0  0  0  0
 -162.7334  539.1078  296.8012 N   0  0  0  0  0  0  0  0  0  0  0  0
 -162.9814  537.9766  297.4470 C   0  0  0  0  0  0  0  0  0  0  0  0
 -161.8584  537.1066  297.7079 C   0  0  0  0  0  0  0  0  0  0  0  0
 -160.5194  537.4112  297.9181 C   0  0  0  0  0  0  0  0  0  0  0  0
 -159.8149  538.7114  297.9548 C   0  0  0  0  0  0  0  0  0  0  0  0
 -157.8370  542.3096  298.1226 F   0  0  0  0  0  0  0  0  0  0  0  0
 -159.8151  536.2373  298.1544 N   0  0  0  0  0  0  0  0  0  0  0  0
 -161.9547  535.7309  297.8236 N   0  0  0  0  0  0  0  0  0  0  0  0
 -165.5208  535.0239  297.9677 O   0  0  0  0  0  0  0  0  0  0  0  0
 -165.1270  539.6894  297.0520 C   0  0  0  0  0  0  0  0  0  0  0  0
 -165.9306  540.7037  296.7224 N   0  0  0  0  0  0  0  0  0  0  0  0
  1  4  2  0
  1 10  1  0
  1 22  1  0
  2 23  2  0
  2 24  1  0
  3  4  1  0
  3 21  2  0
  4 12  1  0
  5  6  1  0
  5 24  1  1
  6 25  1  1
  7  8  2  0
  7 18  1  0
  8 26  1  0
  9 10  2  0
  9 21  1  0
 11 15  2  0
 11 27  1  0
 13 14  3  0
 14 15  1  0
 15 16  1  0
 16 17  1  0
 16 26  1  0
 17 18  2  0
 18 19  1  0
 19 20  2  0
 19 24  1  0
 20 21  1  0
 20 23  1  0
 26 27  2  0
M  END
$$$$
