
     RDKit          3D

 27 30  0  0  0  0  0  0  0  0999 V2000
 -873.4304  361.3459  141.6372 C   0  0  0  0  0  0  0  0  0  0  0  0
 -871.7368  359.0895  136.0509 C   0  0  0  0  0  0  0  0  0  0  0  0
 -873.6975  360.9819  139.2921 C   0  0  0  0  0  0  0  0  0  0  0  0
 -874.2311  361.3294  140.5189 C   0  0  0  0  0  0  0  0  0  0  0  0
 -869.6581  359.8943  134.9376 C   0  0  0  0  0  0  0  0  0  0  0  0
 -868.2767  359.5264  135.4172 C   0  0  0  0  0  0  0  0  0  0  0  0
 -869.9967  363.0092  137.4747 C   0  0  0  0  0  0  0  0  0  0  0  0
 -869.0913  363.9611  137.8420 C   0  0  0  0  0  0  0  0  0  0  0  0
 -871.5745  360.5912  140.3521 C   0  0  0  0  0  0  0  0  0  0  0  0
 -872.1029  360.9923  141.5717 C   0  0  0  0  0  0  0  0  0  0  0  0
 -865.8928  363.2297  139.1875 C   0  0  0  0  0  0  0  0  0  0  0  0
 -875.9121  361.7204  140.6544 Cl  0  0  0  0  0  0  0  0  0  0  0  0
 -865.4903  359.6227  139.4773 N   0  0  0  0  0  0  0  0  0  0  0  0
 -865.8905  360.6775  139.2890 C   0  0  0  0  0  0  0  0  0  0  0  0
 -866.4100  361.9742  138.9927 C   0  0  0  0  0  0  0  0  0  0  0  0
 -867.6469  362.1710  138.4432 N   0  0  0  0  0  0  0  0  0  0  0  0
 -868.5199  361.1739  138.0361 N   0  0  0  0  0  0  0  0  0  0  0  0
 -869.6846  361.6074  137.5742 C   0  0  0  0  0  0  0  0  0  0  0  0
 -870.6653  360.6089  137.2165 C   0  0  0  0  0  0  0  0  0  0  0  0
 -871.7935  360.1757  137.9011 C   0  0  0  0  0  0  0  0  0  0  0  0
 -872.3607  360.5984  139.2004 C   0  0  0  0  0  0  0  0  0  0  0  0
 -873.9718  361.7116  142.8134 F   0  0  0  0  0  0  0  0  0  0  0  0
 -872.4446  359.2090  137.1451 N   0  0  0  0  0  0  0  0  0  0  0  0
 -870.6447  359.8920  136.0327 N   0  0  0  0  0  0  0  0  0  0  0  0
 -867.7216  360.5128  136.2696 O   0  0  0  0  0  0  0  0  0  0  0  0
 -867.8538  363.5360  138.3624 C   0  0  0  0  0  0  0  0  0  0  0  0
 -866.7911  364.2020  138.8207 N   0  0  0  0  0  0  0  0  0  0  0  0
  1  4  2  0
  1 10  1  0
  1 22  1  0
  2 23  2  0
  2 24  1  0
  3  4  1  0
  3 21  2  0
  4 12  1  0
  5  6  1  0
  5 24  1  1
  6 25  1  1
  7  8  2  0
  7 18  1  0
  8 26  1  0
  9 10  2  0
  9 21  1  0
 11 15  2  0
 11 27  1  0
 13 14  3  0
 14 15  1  0
 15 16  1  0
 16 17  1  0
 16 26  1  0
 17 18  2  0
 18 19  1  0
 19 20  2  0
 19 24  1  0
 20 21  1  0
 20 23  1  0
 26 27  2  0
M  END
$$$$
