
     RDKit          3D

 27 30  0  0  0  0  0  0  0  0999 V2000
-1310.5736  158.2583-1051.5540 C   0  0  0  0  0  0  0  0  0  0  0  0
-1305.9718  161.1094-1048.4146 C   0  0  0  0  0  0  0  0  0  0  0  0
-1308.9183  159.9530-1051.2491 C   0  0  0  0  0  0  0  0  0  0  0  0
-1309.7737  159.2477-1052.0751 C   0  0  0  0  0  0  0  0  0  0  0  0
-1306.4492  162.3267-1046.2939 C   0  0  0  0  0  0  0  0  0  0  0  0
-1305.6333  163.5388-1046.6683 C   0  0  0  0  0  0  0  0  0  0  0  0
-1310.5826  161.3150-1047.8000 C   0  0  0  0  0  0  0  0  0  0  0  0
-1311.7454  161.5308-1047.1204 C   0  0  0  0  0  0  0  0  0  0  0  0
-1309.6276  158.5954-1049.3951 C   0  0  0  0  0  0  0  0  0  0  0  0
-1310.5234  157.9267-1050.2196 C   0  0  0  0  0  0  0  0  0  0  0  0
-1311.9178  162.0479-1043.6162 C   0  0  0  0  0  0  0  0  0  0  0  0
-1309.8210  159.5921-1053.7714 Cl  0  0  0  0  0  0  0  0  0  0  0  0
-1308.5737  161.8298-1042.1912 N   0  0  0  0  0  0  0  0  0  0  0  0
-1309.4779  161.8347-1042.8909 C   0  0  0  0  0  0  0  0  0  0  0  0
-1310.5710  161.8757-1043.8096 C   0  0  0  0  0  0  0  0  0  0  0  0
-1310.4161  161.6963-1045.1566 N   0  0  0  0  0  0  0  0  0  0  0  0
-1309.2094  161.5287-1045.8180 N   0  0  0  0  0  0  0  0  0  0  0  0
-1309.3116  161.3255-1047.1241 C   0  0  0  0  0  0  0  0  0  0  0  0
-1308.0913  161.0586-1047.8480 C   0  0  0  0  0  0  0  0  0  0  0  0
-1307.8817  160.3376-1049.0164 C   0  0  0  0  0  0  0  0  0  0  0  0
-1308.8307  159.6236-1049.8983 C   0  0  0  0  0  0  0  0  0  0  0  0
-1311.4139  157.6054-1052.3773 F   0  0  0  0  0  0  0  0  0  0  0  0
-1306.5321  160.3788-1049.3444 N   0  0  0  0  0  0  0  0  0  0  0  0
-1306.8481  161.5404-1047.4745 N   0  0  0  0  0  0  0  0  0  0  0  0
-1306.3268  164.4036-1047.5507 O   0  0  0  0  0  0  0  0  0  0  0  0
-1311.6752  161.7240-1045.7274 C   0  0  0  0  0  0  0  0  0  0  0  0
-1312.6105  161.9320-1044.7969 N   0  0  0  0  0  0  0  0  0  0  0  0
  1  4  2  0
  1 10  1  0
  1 22  1  0
  2 23  2  0
  2 24  1  0
  3  4  1  0
  3 21  2  0
  4 12  1  0
  5  6  1  0
  5 24  1  1
  6 25  1  1
  7  8  2  0
  7 18  1  0
  8 26  1  0
  9 10  2  0
  9 21  1  0
 11 15  2  0
 11 27  1  0
 13 14  3  0
 14 15  1  0
 15 16  1  0
 16 17  1  0
 16 26  1  0
 17 18  2  0
 18 19  1  0
 19 20  2  0
 19 24  1  0
 20 21  1  0
 20 23  1  0
 26 27  2  0
M  END
$$$$
