
     RDKit          3D

 27 30  0  0  0  0  0  0  0  0999 V2000
  -65.1282  197.9761 -112.1219 C   0  0  0  0  0  0  0  0  0  0  0  0
  -61.7701  192.6912 -111.8496 C   0  0  0  0  0  0  0  0  0  0  0  0
  -64.8115  195.6108 -112.2082 C   0  0  0  0  0  0  0  0  0  0  0  0
  -65.6106  196.7206 -112.4076 C   0  0  0  0  0  0  0  0  0  0  0  0
  -60.3765  192.2050 -109.8423 C   0  0  0  0  0  0  0  0  0  0  0  0
  -60.8771  190.7884 -109.7106 C   0  0  0  0  0  0  0  0  0  0  0  0
  -60.9517  196.2956 -109.1798 C   0  0  0  0  0  0  0  0  0  0  0  0
  -60.7186  197.0232 -108.0502 C   0  0  0  0  0  0  0  0  0  0  0  0
  -63.0776  197.0419 -111.3545 C   0  0  0  0  0  0  0  0  0  0  0  0
  -63.8654  198.1570 -111.6072 C   0  0  0  0  0  0  0  0  0  0  0  0
  -61.7132  196.0012 -104.8026 C   0  0  0  0  0  0  0  0  0  0  0  0
  -67.2281  196.5304 -112.9947 Cl  0  0  0  0  0  0  0  0  0  0  0  0
  -63.5430  192.8793 -104.9637 N   0  0  0  0  0  0  0  0  0  0  0  0
  -62.9097  193.7887 -105.2465 C   0  0  0  0  0  0  0  0  0  0  0  0
  -62.1685  194.9637 -105.5761 C   0  0  0  0  0  0  0  0  0  0  0  0
  -61.7953  195.2717 -106.8550 N   0  0  0  0  0  0  0  0  0  0  0  0
  -62.0074  194.4802 -107.9740 N   0  0  0  0  0  0  0  0  0  0  0  0
  -61.5976  195.0105 -109.1180 C   0  0  0  0  0  0  0  0  0  0  0  0
  -61.8716  194.2662 -110.3251 C   0  0  0  0  0  0  0  0  0  0  0  0
  -62.6924  194.5768 -111.4020 C   0  0  0  0  0  0  0  0  0  0  0  0
  -63.5361  195.7627 -111.6675 C   0  0  0  0  0  0  0  0  0  0  0  0
  -65.9199  199.0400 -112.3493 F   0  0  0  0  0  0  0  0  0  0  0  0
  -62.6154  193.5590 -112.3444 N   0  0  0  0  0  0  0  0  0  0  0  0
  -61.2938  193.0465 -110.6312 N   0  0  0  0  0  0  0  0  0  0  0  0
  -61.0310  190.3949 -108.3581 O   0  0  0  0  0  0  0  0  0  0  0  0
  -61.1650  196.5024 -106.8201 C   0  0  0  0  0  0  0  0  0  0  0  0
  -61.1110  196.9688 -105.5699 N   0  0  0  0  0  0  0  0  0  0  0  0
  1  4  2  0
  1 10  1  0
  1 22  1  0
  2 23  2  0
  2 24  1  0
  3  4  1  0
  3 21  2  0
  4 12  1  0
  5  6  1  0
  5 24  1  1
  6 25  1  1
  7  8  2  0
  7 18  1  0
  8 26  1  0
  9 10  2  0
  9 21  1  0
 11 15  2  0
 11 27  1  0
 13 14  3  0
 14 15  1  0
 15 16  1  0
 16 17  1  0
 16 26  1  0
 17 18  2  0
 18 19  1  0
 19 20  2  0
 19 24  1  0
 20 21  1  0
 20 23  1  0
 26 27  2  0
M  END
$$$$
