
     RDKit          3D

 27 30  0  0  0  0  0  0  0  0999 V2000
  814.8594 -137.3732 -488.4955 C   0  0  0  0  0  0  0  0  0  0  0  0
  819.7291 -139.8879 -491.5361 C   0  0  0  0  0  0  0  0  0  0  0  0
  817.1851 -137.1316 -488.9790 C   0  0  0  0  0  0  0  0  0  0  0  0
  816.0598 -136.7384 -488.2800 C   0  0  0  0  0  0  0  0  0  0  0  0
  821.1708 -138.4529 -492.9749 C   0  0  0  0  0  0  0  0  0  0  0  0
  821.3986 -136.9866 -493.2451 C   0  0  0  0  0  0  0  0  0  0  0  0
  817.8572 -135.8282 -492.5229 C   0  0  0  0  0  0  0  0  0  0  0  0
  817.7822 -134.5021 -492.8319 C   0  0  0  0  0  0  0  0  0  0  0  0
  815.8551 -138.7457 -490.1663 C   0  0  0  0  0  0  0  0  0  0  0  0
  814.7407 -138.3823 -489.4226 C   0  0  0  0  0  0  0  0  0  0  0  0
  820.3710 -132.1701 -492.1674 C   0  0  0  0  0  0  0  0  0  0  0  0
  816.1541 -135.4304 -487.1496 Cl  0  0  0  0  0  0  0  0  0  0  0  0
  823.1183 -133.8710 -490.4807 N   0  0  0  0  0  0  0  0  0  0  0  0
  822.1403 -133.6030 -491.0106 C   0  0  0  0  0  0  0  0  0  0  0  0
  820.9084 -133.3343 -491.6793 C   0  0  0  0  0  0  0  0  0  0  0  0
  819.9716 -134.2993 -491.9260 N   0  0  0  0  0  0  0  0  0  0  0  0
  820.1053 -135.6501 -491.6408 N   0  0  0  0  0  0  0  0  0  0  0  0
  819.0422 -136.3886 -491.9284 C   0  0  0  0  0  0  0  0  0  0  0  0
  819.0955 -137.7872 -491.5723 C   0  0  0  0  0  0  0  0  0  0  0  0
  818.2766 -138.5290 -490.7299 C   0  0  0  0  0  0  0  0  0  0  0  0
  817.0891 -138.1363 -489.9399 C   0  0  0  0  0  0  0  0  0  0  0  0
  813.7863 -136.9855 -487.7829 F   0  0  0  0  0  0  0  0  0  0  0  0
  818.7073 -139.8497 -490.7195 N   0  0  0  0  0  0  0  0  0  0  0  0
  820.0264 -138.6799 -492.0742 N   0  0  0  0  0  0  0  0  0  0  0  0
  821.1815 -136.6488 -494.6041 O   0  0  0  0  0  0  0  0  0  0  0  0
  818.8831 -133.6823 -492.5155 C   0  0  0  0  0  0  0  0  0  0  0  0
  819.1069 -132.3745 -492.6656 N   0  0  0  0  0  0  0  0  0  0  0  0
  1  4  2  0
  1 10  1  0
  1 22  1  0
  2 23  2  0
  2 24  1  0
  3  4  1  0
  3 21  2  0
  4 12  1  0
  5  6  1  0
  5 24  1  1
  6 25  1  1
  7  8  2  0
  7 18  1  0
  8 26  1  0
  9 10  2  0
  9 21  1  0
 11 15  2  0
 11 27  1  0
 13 14  3  0
 14 15  1  0
 15 16  1  0
 16 17  1  0
 16 26  1  0
 17 18  2  0
 18 19  1  0
 19 20  2  0
 19 24  1  0
 20 21  1  0
 20 23  1  0
 26 27  2  0
M  END
$$$$
