
     RDKit          3D

 27 30  0  0  0  0  0  0  0  0999 V2000
  205.8214  -97.8192 -103.9051 C   0  0  0  0  0  0  0  0  0  0  0  0
  203.5384 -102.2682 -107.6859 C   0  0  0  0  0  0  0  0  0  0  0  0
  205.7533  -98.9132 -106.0267 C   0  0  0  0  0  0  0  0  0  0  0  0
  206.3633  -98.0360 -105.1501 C   0  0  0  0  0  0  0  0  0  0  0  0
  201.4801 -101.8266 -109.0188 C   0  0  0  0  0  0  0  0  0  0  0  0
  201.9331 -101.6143 -110.4416 C   0  0  0  0  0  0  0  0  0  0  0  0
  200.4464  -99.2479 -107.0134 C   0  0  0  0  0  0  0  0  0  0  0  0
  199.6023  -98.1774 -107.0501 C   0  0  0  0  0  0  0  0  0  0  0  0
  204.0099  -99.2784 -104.4110 C   0  0  0  0  0  0  0  0  0  0  0  0
  204.6561  -98.4374 -103.5150 C   0  0  0  0  0  0  0  0  0  0  0  0
  200.5827  -94.9233 -108.0655 C   0  0  0  0  0  0  0  0  0  0  0  0
  207.7970  -97.1904 -105.6267 Cl  0  0  0  0  0  0  0  0  0  0  0  0
  204.1096  -94.8811 -108.9112 N   0  0  0  0  0  0  0  0  0  0  0  0
  203.0714  -95.2109 -108.5630 C   0  0  0  0  0  0  0  0  0  0  0  0
  201.7555  -95.6236 -108.1930 C   0  0  0  0  0  0  0  0  0  0  0  0
  201.4518  -96.9099 -107.8427 N   0  0  0  0  0  0  0  0  0  0  0  0
  202.3283  -97.9846 -107.8658 N   0  0  0  0  0  0  0  0  0  0  0  0
  201.8174  -99.1303 -107.4368 C   0  0  0  0  0  0  0  0  0  0  0  0
  202.7109 -100.2623 -107.3587 C   0  0  0  0  0  0  0  0  0  0  0  0
  203.8721 -100.4373 -106.6167 C   0  0  0  0  0  0  0  0  0  0  0  0
  204.5602  -99.5365 -105.6661 C   0  0  0  0  0  0  0  0  0  0  0  0
  206.4505  -96.9786 -103.0638 F   0  0  0  0  0  0  0  0  0  0  0  0
  204.3778 -101.7099 -106.8516 N   0  0  0  0  0  0  0  0  0  0  0  0
  202.5190 -101.4495 -108.0437 N   0  0  0  0  0  0  0  0  0  0  0  0
  200.9152 -101.9120 -111.3812 O   0  0  0  0  0  0  0  0  0  0  0  0
  200.1187  -96.9379 -107.4750 C   0  0  0  0  0  0  0  0  0  0  0  0
  199.5702  -95.7265 -107.5989 N   0  0  0  0  0  0  0  0  0  0  0  0
  1  4  2  0
  1 10  1  0
  1 22  1  0
  2 23  2  0
  2 24  1  0
  3  4  1  0
  3 21  2  0
  4 12  1  0
  5  6  1  0
  5 24  1  1
  6 25  1  1
  7  8  2  0
  7 18  1  0
  8 26  1  0
  9 10  2  0
  9 21  1  0
 11 15  2  0
 11 27  1  0
 13 14  3  0
 14 15  1  0
 15 16  1  0
 16 17  1  0
 16 26  1  0
 17 18  2  0
 18 19  1  0
 19 20  2  0
 19 24  1  0
 20 21  1  0
 20 23  1  0
 26 27  2  0
M  END
$$$$
