
     RDKit          3D

 27 30  0  0  0  0  0  0  0  0999 V2000
  530.5161 1680.2926  739.1462 C   0  0  0  0  0  0  0  0  0  0  0  0
  529.4646 1675.9139  734.7928 C   0  0  0  0  0  0  0  0  0  0  0  0
  529.4784 1678.1641  738.8402 C   0  0  0  0  0  0  0  0  0  0  0  0
  529.8143 1679.2263  739.6573 C   0  0  0  0  0  0  0  0  0  0  0  0
  528.6007 1673.6727  735.4546 C   0  0  0  0  0  0  0  0  0  0  0  0
  527.0995 1673.5907  735.3378 C   0  0  0  0  0  0  0  0  0  0  0  0
  529.8522 1674.9305  739.2227 C   0  0  0  0  0  0  0  0  0  0  0  0
  529.5620 1674.4050  740.4474 C   0  0  0  0  0  0  0  0  0  0  0  0
  530.6363 1679.2274  737.0205 C   0  0  0  0  0  0  0  0  0  0  0  0
  530.9246 1680.3158  737.8325 C   0  0  0  0  0  0  0  0  0  0  0  0
  526.2892 1673.5232  741.4926 C   0  0  0  0  0  0  0  0  0  0  0  0
  529.3734 1679.2073  741.3314 Cl  0  0  0  0  0  0  0  0  0  0  0  0
  523.8928 1674.3827  738.9017 N   0  0  0  0  0  0  0  0  0  0  0  0
  524.8563 1674.1824  739.4835 C   0  0  0  0  0  0  0  0  0  0  0  0
  526.0623 1673.9979  740.2257 C   0  0  0  0  0  0  0  0  0  0  0  0
  527.2936 1674.3373  739.7373 N   0  0  0  0  0  0  0  0  0  0  0  0
  527.5550 1674.8226  738.4651 N   0  0  0  0  0  0  0  0  0  0  0  0
  528.8247 1675.1263  738.2338 C   0  0  0  0  0  0  0  0  0  0  0  0
  529.1393 1675.7169  736.9540 C   0  0  0  0  0  0  0  0  0  0  0  0
  529.5878 1676.9941  736.6426 C   0  0  0  0  0  0  0  0  0  0  0  0
  529.8975 1678.1511  737.5117 C   0  0  0  0  0  0  0  0  0  0  0  0
  530.8077 1681.3245  739.9591 F   0  0  0  0  0  0  0  0  0  0  0  0
  529.7749 1677.0919  735.2699 N   0  0  0  0  0  0  0  0  0  0  0  0
  529.0609 1675.0408  735.7487 N   0  0  0  0  0  0  0  0  0  0  0  0
  526.4396 1674.4292  736.2701 O   0  0  0  0  0  0  0  0  0  0  0  0
  528.2185 1674.0967  740.7369 C   0  0  0  0  0  0  0  0  0  0  0  0
  527.6201 1673.6034  741.8243 N   0  0  0  0  0  0  0  0  0  0  0  0
  1  4  2  0
  1 10  1  0
  1 22  1  0
  2 23  2  0
  2 24  1  0
  3  4  1  0
  3 21  2  0
  4 12  1  0
  5  6  1  0
  5 24  1  1
  6 25  1  1
  7  8  2  0
  7 18  1  0
  8 26  1  0
  9 10  2  0
  9 21  1  0
 11 15  2  0
 11 27  1  0
 13 14  3  0
 14 15  1  0
 15 16  1  0
 16 17  1  0
 16 26  1  0
 17 18  2  0
 18 19  1  0
 19 20  2  0
 19 24  1  0
 20 21  1  0
 20 23  1  0
 26 27  2  0
M  END
$$$$
