
     RDKit          3D

 27 30  0  0  0  0  0  0  0  0999 V2000
  141.7691  101.0071 -194.0838 C   0  0  0  0  0  0  0  0  0  0  0  0
  145.0059   96.0876 -191.9604 C   0  0  0  0  0  0  0  0  0  0  0  0
  142.8466   99.0023 -194.8066 C   0  0  0  0  0  0  0  0  0  0  0  0
  142.0384  100.0911 -195.0734 C   0  0  0  0  0  0  0  0  0  0  0  0
  146.3419   94.6852 -193.5277 C   0  0  0  0  0  0  0  0  0  0  0  0
  145.7485   93.3535 -193.1418 C   0  0  0  0  0  0  0  0  0  0  0  0
  144.6748   97.9657 -196.2350 C   0  0  0  0  0  0  0  0  0  0  0  0
  144.8841   98.0321 -197.5809 C   0  0  0  0  0  0  0  0  0  0  0  0
  143.0332   99.7302 -192.5223 C   0  0  0  0  0  0  0  0  0  0  0  0
  142.2648  100.8501 -192.8101 C   0  0  0  0  0  0  0  0  0  0  0  0
  146.5638   95.5247 -199.4442 C   0  0  0  0  0  0  0  0  0  0  0  0
  141.3440  100.2911 -196.6467 Cl  0  0  0  0  0  0  0  0  0  0  0  0
  147.7492   92.9106 -197.2217 N   0  0  0  0  0  0  0  0  0  0  0  0
  147.2194   93.8291 -197.6500 C   0  0  0  0  0  0  0  0  0  0  0  0
  146.6142   95.0120 -198.1727 C   0  0  0  0  0  0  0  0  0  0  0  0
  145.9550   95.9175 -197.3884 N   0  0  0  0  0  0  0  0  0  0  0  0
  145.7184   95.7905 -196.0276 N   0  0  0  0  0  0  0  0  0  0  0  0
  145.0977   96.8213 -195.4709 C   0  0  0  0  0  0  0  0  0  0  0  0
  144.9030   96.7792 -194.0403 C   0  0  0  0  0  0  0  0  0  0  0  0
  144.1681   97.6172 -193.2114 C   0  0  0  0  0  0  0  0  0  0  0  0
  143.3444   98.8068 -193.5198 C   0  0  0  0  0  0  0  0  0  0  0  0
  140.9991  102.0701 -194.3790 F   0  0  0  0  0  0  0  0  0  0  0  0
  144.2599   97.1612 -191.9023 N   0  0  0  0  0  0  0  0  0  0  0  0
  145.4386   95.8067 -193.2139 N   0  0  0  0  0  0  0  0  0  0  0  0
  146.7316   92.4327 -192.7021 O   0  0  0  0  0  0  0  0  0  0  0  0
  145.5649   96.9665 -198.2012 C   0  0  0  0  0  0  0  0  0  0  0  0
  145.9354   96.7463 -199.4651 N   0  0  0  0  0  0  0  0  0  0  0  0
  1  4  2  0
  1 10  1  0
  1 22  1  0
  2 23  2  0
  2 24  1  0
  3  4  1  0
  3 21  2  0
  4 12  1  0
  5  6  1  0
  5 24  1  1
  6 25  1  1
  7  8  2  0
  7 18  1  0
  8 26  1  0
  9 10  2  0
  9 21  1  0
 11 15  2  0
 11 27  1  0
 13 14  3  0
 14 15  1  0
 15 16  1  0
 16 17  1  0
 16 26  1  0
 17 18  2  0
 18 19  1  0
 19 20  2  0
 19 24  1  0
 20 21  1  0
 20 23  1  0
 26 27  2  0
M  END
$$$$
