
     RDKit          3D

 27 30  0  0  0  0  0  0  0  0999 V2000
  636.2014 -810.1950   64.7289 C   0  0  0  0  0  0  0  0  0  0  0  0
  635.2449 -809.4197   58.5886 C   0  0  0  0  0  0  0  0  0  0  0  0
  636.6004 -809.3984   62.5133 C   0  0  0  0  0  0  0  0  0  0  0  0
  636.9232 -809.4139   63.8570 C   0  0  0  0  0  0  0  0  0  0  0  0
  633.5154 -810.7693   57.4068 C   0  0  0  0  0  0  0  0  0  0  0  0
  633.3981 -809.6405   56.4138 C   0  0  0  0  0  0  0  0  0  0  0  0
  631.8859 -811.7303   60.2420 C   0  0  0  0  0  0  0  0  0  0  0  0
  631.0404 -812.7328   60.6161 C   0  0  0  0  0  0  0  0  0  0  0  0
  634.7717 -810.8951   62.9594 C   0  0  0  0  0  0  0  0  0  0  0  0
  635.1344 -810.9481   64.2987 C   0  0  0  0  0  0  0  0  0  0  0  0
  632.1279 -815.9012   61.7824 C   0  0  0  0  0  0  0  0  0  0  0  0
  638.2205 -808.4321   64.4487 Cl  0  0  0  0  0  0  0  0  0  0  0  0
  635.7687 -816.0349   61.6827 N   0  0  0  0  0  0  0  0  0  0  0  0
  634.6710 -815.7172   61.6342 C   0  0  0  0  0  0  0  0  0  0  0  0
  633.3196 -815.2676   61.5364 C   0  0  0  0  0  0  0  0  0  0  0  0
  632.9834 -814.0142   61.1048 N   0  0  0  0  0  0  0  0  0  0  0  0
  633.8748 -813.0025   60.7800 N   0  0  0  0  0  0  0  0  0  0  0  0
  633.3141 -811.8848   60.3397 C   0  0  0  0  0  0  0  0  0  0  0  0
  634.1991 -810.8294   59.9061 C   0  0  0  0  0  0  0  0  0  0  0  0
  635.1249 -810.0844   60.6258 C   0  0  0  0  0  0  0  0  0  0  0  0
  635.5099 -810.1346   62.0533 C   0  0  0  0  0  0  0  0  0  0  0  0
  636.5543 -810.2093   66.0272 F   0  0  0  0  0  0  0  0  0  0  0  0
  635.7625 -809.1954   59.7694 N   0  0  0  0  0  0  0  0  0  0  0  0
  634.2887 -810.3807   58.5998 N   0  0  0  0  0  0  0  0  0  0  0  0
  632.9327 -808.4430   57.0111 O   0  0  0  0  0  0  0  0  0  0  0  0
  631.6025 -813.9443   61.0632 C   0  0  0  0  0  0  0  0  0  0  0  0
  631.0602 -815.0950   61.4694 N   0  0  0  0  0  0  0  0  0  0  0  0
  1  4  2  0
  1 10  1  0
  1 22  1  0
  2 23  2  0
  2 24  1  0
  3  4  1  0
  3 21  2  0
  4 12  1  0
  5  6  1  0
  5 24  1  1
  6 25  1  1
  7  8  2  0
  7 18  1  0
  8 26  1  0
  9 10  2  0
  9 21  1  0
 11 15  2  0
 11 27  1  0
 13 14  3  0
 14 15  1  0
 15 16  1  0
 16 17  1  0
 16 26  1  0
 17 18  2  0
 18 19  1  0
 19 20  2  0
 19 24  1  0
 20 21  1  0
 20 23  1  0
 26 27  2  0
M  END
$$$$
