
     RDKit          3D

 19 20  0  0  0  0  0  0  0  0999 V2000
  -49.4598  103.3699   92.2609 N   0  0  0  0  0  0  0  0  0  0  0  0
  -49.9349  102.1643   91.9321 C   0  0  0  0  0  0  0  0  0  0  0  0
  -48.2103  103.4294   92.7363 C   0  0  0  0  0  0  0  0  0  0  0  0
  -47.3908  102.3253   92.8776 C   0  0  0  0  0  0  0  0  0  0  0  0
  -47.8647  101.0705   92.5158 C   0  0  0  0  0  0  0  0  0  0  0  0
  -46.9541   99.8697   92.5415 C   0  0  0  0  0  0  0  0  0  0  0  0
  -51.5700   96.9416   88.1070 C   0  0  0  0  0  0  0  0  0  0  0  0
  -49.4624   97.9640   86.6671 C   0  0  0  0  0  0  0  0  0  0  0  0
  -48.1728   98.6710   85.7366 Cl  0  0  0  0  0  0  0  0  0  0  0  0
  -50.2275   96.9577   86.1105 C   0  0  0  0  0  0  0  0  0  0  0  0
  -51.3073   96.4656   86.8324 C   0  0  0  0  0  0  0  0  0  0  0  0
  -49.7123   98.4478   87.9351 C   0  0  0  0  0  0  0  0  0  0  0  0
  -50.7564   97.9123   88.6815 C   0  0  0  0  0  0  0  0  0  0  0  0
  -50.9134   98.3135   90.1434 C   0  0  1  0  0  0  0  0  0  0  0  0
  -51.1518   97.1183   91.0697 C   0  0  0  0  0  0  0  0  0  0  0  0
  -49.6916   99.1580   90.5193 C   0  0  0  0  0  0  0  0  0  0  0  0
  -48.7273   99.2684   89.7631 O   0  0  0  0  0  0  0  0  0  0  0  0
  -49.7519   99.7462   91.7354 N   0  0  0  0  0  0  0  0  0  0  0  0
  -49.1877  100.9937   92.0508 C   0  0  0  0  0  0  0  0  0  0  0  0
  1  2  2  0
  1  3  1  0
  2 19  1  0
  3  4  2  0
  4  5  1  0
  6  5  1  6
  5 19  2  0
  7 11  2  0
  7 13  1  0
  8  9  1  0
  8 10  2  0
  8 12  1  0
 10 11  1  0
 12 13  2  0
 13 14  1  0
 15 14  1  6
 14 16  1  1
 16 17  2  0
 16 18  1  0
 18 19  1  0
M  END
$$$$
