
     RDKit          3D

 19 20  0  0  0  0  0  0  0  0999 V2000
  -20.4760  -33.9906  -61.4796 N   0  0  0  0  0  0  0  0  0  0  0  0
  -19.6451  -34.1939  -60.4521 C   0  0  0  0  0  0  0  0  0  0  0  0
  -19.9473  -33.5114  -62.6117 C   0  0  0  0  0  0  0  0  0  0  0  0
  -18.6011  -33.2445  -62.7761 C   0  0  0  0  0  0  0  0  0  0  0  0
  -17.7242  -33.4753  -61.7236 C   0  0  0  0  0  0  0  0  0  0  0  0
  -16.2379  -33.3122  -61.9133 C   0  0  0  0  0  0  0  0  0  0  0  0
  -15.8748  -32.1958  -58.4525 C   0  0  0  0  0  0  0  0  0  0  0  0
  -17.1101  -29.7403  -58.3798 C   0  0  0  0  0  0  0  0  0  0  0  0
  -17.9315  -28.2061  -58.3967 Cl  0  0  0  0  0  0  0  0  0  0  0  0
  -15.8348  -29.8325  -58.9020 C   0  0  0  0  0  0  0  0  0  0  0  0
  -15.2281  -31.0806  -58.9609 C   0  0  0  0  0  0  0  0  0  0  0  0
  -17.7663  -30.8421  -57.8701 C   0  0  0  0  0  0  0  0  0  0  0  0
  -17.1343  -32.0808  -57.8738 C   0  0  0  0  0  0  0  0  0  0  0  0
  -17.7809  -33.2527  -57.1449 C   0  0  1  0  0  0  0  0  0  0  0  0
  -19.0991  -32.8790  -56.4622 C   0  0  0  0  0  0  0  0  0  0  0  0
  -17.9046  -34.4033  -58.1490 C   0  0  0  0  0  0  0  0  0  0  0  0
  -18.3674  -35.4958  -57.8232 O   0  0  0  0  0  0  0  0  0  0  0  0
  -17.4550  -34.1296  -59.3947 N   0  0  0  0  0  0  0  0  0  0  0  0
  -18.2757  -33.9432  -60.5196 C   0  0  0  0  0  0  0  0  0  0  0  0
  1  2  2  0
  1  3  1  0
  2 19  1  0
  3  4  2  0
  4  5  1  0
  6  5  1  6
  5 19  2  0
  7 11  2  0
  7 13  1  0
  8  9  1  0
  8 10  2  0
  8 12  1  0
 10 11  1  0
 12 13  2  0
 13 14  1  0
 15 14  1  6
 14 16  1  6
 16 17  2  0
 16 18  1  0
 18 19  1  0
M  END
$$$$
