
     RDKit          3D

 19 20  0  0  0  0  0  0  0  0999 V2000
  154.4586  -38.8746  -31.4544 N   0  0  0  0  0  0  0  0  0  0  0  0
  155.2279  -38.0532  -32.1760 C   0  0  0  0  0  0  0  0  0  0  0  0
  154.1846  -40.0762  -31.9758 C   0  0  0  0  0  0  0  0  0  0  0  0
  154.6715  -40.5123  -33.1936 C   0  0  0  0  0  0  0  0  0  0  0  0
  155.4923  -39.6772  -33.9411 C   0  0  0  0  0  0  0  0  0  0  0  0
  156.1375  -40.1711  -35.2107 C   0  0  0  0  0  0  0  0  0  0  0  0
  154.8420  -34.5167  -31.0647 C   0  0  0  0  0  0  0  0  0  0  0  0
  152.8060  -35.9391  -32.2445 C   0  0  0  0  0  0  0  0  0  0  0  0
  151.5191  -36.7897  -33.0499 Cl  0  0  0  0  0  0  0  0  0  0  0  0
  152.5016  -35.0479  -31.2340 C   0  0  0  0  0  0  0  0  0  0  0  0
  153.5318  -34.3127  -30.6620 C   0  0  0  0  0  0  0  0  0  0  0  0
  154.1060  -36.1523  -32.6558 C   0  0  0  0  0  0  0  0  0  0  0  0
  155.1436  -35.4604  -32.0407 C   0  0  0  0  0  0  0  0  0  0  0  0
  156.5857  -35.8321  -32.3644 C   0  0  1  0  0  0  0  0  0  0  0  0
  157.1381  -36.9337  -31.4561 C   0  0  0  0  0  0  0  0  0  0  0  0
  156.6468  -36.1683  -33.8579 C   0  0  0  0  0  0  0  0  0  0  0  0
  156.7863  -35.2921  -34.7104 O   0  0  0  0  0  0  0  0  0  0  0  0
  156.5193  -37.4810  -34.1570 N   0  0  0  0  0  0  0  0  0  0  0  0
  155.7550  -38.4002  -33.4187 C   0  0  0  0  0  0  0  0  0  0  0  0
  1  2  2  0
  1  3  1  0
  2 19  1  0
  3  4  2  0
  4  5  1  0
  6  5  1  6
  5 19  2  0
  7 11  2  0
  7 13  1  0
  8  9  1  0
  8 10  2  0
  8 12  1  0
 10 11  1  0
 12 13  2  0
 13 14  1  0
 15 14  1  6
 14 16  1  6
 16 17  2  0
 16 18  1  0
 18 19  1  0
M  END
$$$$
