
     RDKit          3D

 19 20  0  0  0  0  0  0  0  0999 V2000
   28.6212   10.8416  -98.4843 N   0  0  0  0  0  0  0  0  0  0  0  0
   28.5509   11.0039  -99.8095 C   0  0  0  0  0  0  0  0  0  0  0  0
   29.8407   10.7647  -97.9384 C   0  0  0  0  0  0  0  0  0  0  0  0
   31.0128   10.8691  -98.6635 C   0  0  0  0  0  0  0  0  0  0  0  0
   30.9525   11.0630 -100.0378 C   0  0  0  0  0  0  0  0  0  0  0  0
   32.2089   11.3044 -100.8346 C   0  0  0  0  0  0  0  0  0  0  0  0
   32.9290   10.1998 -104.5876 C   0  0  0  0  0  0  0  0  0  0  0  0
   32.7634   11.5653 -106.9685 C   0  0  0  0  0  0  0  0  0  0  0  0
   32.5943   12.3905 -108.4913 Cl  0  0  0  0  0  0  0  0  0  0  0  0
   33.6325   10.4964 -106.8692 C   0  0  0  0  0  0  0  0  0  0  0  0
   33.6903    9.7942 -105.6722 C   0  0  0  0  0  0  0  0  0  0  0  0
   31.9992   11.9803 -105.8970 C   0  0  0  0  0  0  0  0  0  0  0  0
   32.1026   11.3145 -104.6805 C   0  0  0  0  0  0  0  0  0  0  0  0
   31.4030   11.8862 -103.4530 C   0  0  1  0  0  0  0  0  0  0  0  0
   30.7174   13.2275 -103.7255 C   0  0  0  0  0  0  0  0  0  0  0  0
   30.4606   10.8030 -102.9182 C   0  0  0  0  0  0  0  0  0  0  0  0
   30.5345    9.6370 -103.3040 O   0  0  0  0  0  0  0  0  0  0  0  0
   29.5466   11.2302 -102.0177 N   0  0  0  0  0  0  0  0  0  0  0  0
   29.6770   11.1077 -100.6242 C   0  0  0  0  0  0  0  0  0  0  0  0
  1  2  2  0
  1  3  1  0
  2 19  1  0
  3  4  2  0
  4  5  1  0
  6  5  1  6
  5 19  2  0
  7 11  2  0
  7 13  1  0
  8  9  1  0
  8 10  2  0
  8 12  1  0
 10 11  1  0
 12 13  2  0
 13 14  1  0
 15 14  1  6
 14 16  1  6
 16 17  2  0
 16 18  1  0
 18 19  1  0
M  END
$$$$
