
     RDKit          3D

 19 20  0  0  0  0  0  0  0  0999 V2000
  -19.7216  -71.5065   23.1080 N   0  0  0  0  0  0  0  0  0  0  0  0
  -20.9870  -71.8854   23.3140 C   0  0  0  0  0  0  0  0  0  0  0  0
  -19.5190  -70.2691   22.6404 C   0  0  0  0  0  0  0  0  0  0  0  0
  -20.5371  -69.3689   22.3881 C   0  0  0  0  0  0  0  0  0  0  0  0
  -21.8545  -69.7426   22.6220 C   0  0  0  0  0  0  0  0  0  0  0  0
  -22.9733  -68.7432   22.4750 C   0  0  0  0  0  0  0  0  0  0  0  0
  -27.0523  -71.1395   23.7894 C   0  0  0  0  0  0  0  0  0  0  0  0
  -28.9846  -72.6674   22.5678 C   0  0  0  0  0  0  0  0  0  0  0  0
  -30.2281  -73.5727   21.7536 Cl  0  0  0  0  0  0  0  0  0  0  0  0
  -29.2285  -72.1647   23.8309 C   0  0  0  0  0  0  0  0  0  0  0  0
  -28.2591  -71.3707   24.4302 C   0  0  0  0  0  0  0  0  0  0  0  0
  -27.7878  -72.4451   21.9177 C   0  0  0  0  0  0  0  0  0  0  0  0
  -26.7938  -71.7008   22.5435 C   0  0  0  0  0  0  0  0  0  0  0  0
  -25.4115  -71.6144   21.9074 C   0  0  1  0  0  0  0  0  0  0  0  0
  -25.4384  -71.0236   20.4954 C   0  0  0  0  0  0  0  0  0  0  0  0
  -24.5064  -70.8546   22.8825 C   0  0  0  0  0  0  0  0  0  0  0  0
  -24.7822  -69.7183   23.2655 O   0  0  0  0  0  0  0  0  0  0  0  0
  -23.3914  -71.5168   23.2662 N   0  0  0  0  0  0  0  0  0  0  0  0
  -22.0790  -71.0520   23.0777 C   0  0  0  0  0  0  0  0  0  0  0  0
  1  2  2  0
  1  3  1  0
  2 19  1  0
  3  4  2  0
  4  5  1  0
  6  5  1  6
  5 19  2  0
  7 11  2  0
  7 13  1  0
  8  9  1  0
  8 10  2  0
  8 12  1  0
 10 11  1  0
 12 13  2  0
 13 14  1  0
 15 14  1  6
 14 16  1  1
 16 17  2  0
 16 18  1  0
 18 19  1  0
M  END
$$$$
