
     RDKit          3D

 19 20  0  0  0  0  0  0  0  0999 V2000
   12.9013  -23.0564   18.4863 N   0  0  0  0  0  0  0  0  0  0  0  0
   13.0826  -23.7800   17.3768 C   0  0  0  0  0  0  0  0  0  0  0  0
   13.4970  -23.4868   19.6047 C   0  0  0  0  0  0  0  0  0  0  0  0
   14.2987  -24.6112   19.6620 C   0  0  0  0  0  0  0  0  0  0  0  0
   14.5147  -25.3571   18.5101 C   0  0  0  0  0  0  0  0  0  0  0  0
   15.4816  -26.5134   18.5146 C   0  0  0  0  0  0  0  0  0  0  0  0
   15.1002  -27.4530   18.5992 C   0  0  0  0  0  0  0  0  0  0  0  0
   15.1413  -24.9583   19.7550 C   0  0  0  0  0  0  0  0  0  0  0  0
   15.2384  -23.3943   20.5118 Cl  0  0  0  0  0  0  0  0  0  0  0  0
   14.4781  -25.9839   20.4001 C   0  0  0  0  0  0  0  0  0  0  0  0
   14.4853  -27.2477   19.8240 C   0  0  0  0  0  0  0  0  0  0  0  0
   15.7582  -25.1482   18.5352 C   0  0  0  0  0  0  0  0  0  0  0  0
   15.7129  -26.3992   17.9296 C   0  0  0  0  0  0  0  0  0  0  0  0
   16.2293  -26.5596   16.5047 C   0  0  1  0  0  0  0  0  0  0  0  0
   16.6601  -27.9928   16.1821 C   0  0  0  0  0  0  0  0  0  0  0  0
   15.1539  -26.0066   15.5640 C   0  0  0  0  0  0  0  0  0  0  0  0
   15.3643  -25.8591   14.3607 O   0  0  0  0  0  0  0  0  0  0  0  0
   13.9825  -25.6832   16.1574 N   0  0  0  0  0  0  0  0  0  0  0  0
   13.8636  -24.9338   17.3399 C   0  0  0  0  0  0  0  0  0  0  0  0
  1  2  2  0
  1  3  1  0
  2 19  1  0
  3  4  2  0
  4  5  1  0
  6  5  1  6
  5 19  2  0
  7 11  2  0
  7 13  1  0
  8  9  1  0
  8 10  2  0
  8 12  1  0
 10 11  1  0
 12 13  2  0
 13 14  1  0
 15 14  1  6
 14 16  1  6
 16 17  2  0
 16 18  1  0
 18 19  1  0
M  END
$$$$
