
     RDKit          3D

 19 20  0  0  0  0  0  0  0  0999 V2000
  -45.0677  -28.9651  105.5786 N   0  0  0  0  0  0  0  0  0  0  0  0
  -45.2237  -27.6663  105.8546 C   0  0  0  0  0  0  0  0  0  0  0  0
  -44.6523  -29.7590  106.5727 C   0  0  0  0  0  0  0  0  0  0  0  0
  -44.4050  -29.3127  107.8574 C   0  0  0  0  0  0  0  0  0  0  0  0
  -44.5876  -27.9698  108.1624 C   0  0  0  0  0  0  0  0  0  0  0  0
  -44.4464  -27.4789  109.5805 C   0  0  0  0  0  0  0  0  0  0  0  0
  -47.9084  -27.3988  105.0651 C   0  0  0  0  0  0  0  0  0  0  0  0
  -45.3162  -28.2877  105.2916 C   0  0  0  0  0  0  0  0  0  0  0  0
  -43.6561  -28.8025  105.3778 Cl  0  0  0  0  0  0  0  0  0  0  0  0
  -46.2311  -29.0607  104.6036 C   0  0  0  0  0  0  0  0  0  0  0  0
  -47.5317  -28.5919  104.4695 C   0  0  0  0  0  0  0  0  0  0  0  0
  -45.6771  -27.0975  105.8895 C   0  0  0  0  0  0  0  0  0  0  0  0
  -46.9940  -26.6584  105.8068 C   0  0  0  0  0  0  0  0  0  0  0  0
  -47.4310  -25.4465  106.6210 C   0  0  1  0  0  0  0  0  0  0  0  0
  -48.7884  -25.6409  107.3019 C   0  0  0  0  0  0  0  0  0  0  0  0
  -46.2918  -25.1114  107.5891 C   0  0  0  0  0  0  0  0  0  0  0  0
  -46.4443  -24.3114  108.5114 O   0  0  0  0  0  0  0  0  0  0  0  0
  -45.1218  -25.7422  107.3399 N   0  0  0  0  0  0  0  0  0  0  0  0
  -44.9878  -27.1227  107.1161 C   0  0  0  0  0  0  0  0  0  0  0  0
  1  2  2  0
  1  3  1  0
  2 19  1  0
  3  4  2  0
  4  5  1  0
  6  5  1  6
  5 19  2  0
  7 11  2  0
  7 13  1  0
  8  9  1  0
  8 10  2  0
  8 12  1  0
 10 11  1  0
 12 13  2  0
 13 14  1  0
 15 14  1  6
 14 16  1  1
 16 17  2  0
 16 18  1  0
 18 19  1  0
M  END
$$$$
