
     RDKit          3D

 19 20  0  0  0  0  0  0  0  0999 V2000
   71.7955   58.5286  -42.0977 N   0  0  0  0  0  0  0  0  0  0  0  0
   71.7383   59.8560  -41.9491 C   0  0  0  0  0  0  0  0  0  0  0  0
   72.2310   58.0600  -43.2731 C   0  0  0  0  0  0  0  0  0  0  0  0
   72.6423   58.8690  -44.3157 C   0  0  0  0  0  0  0  0  0  0  0  0
   72.6110   60.2495  -44.1642 C   0  0  0  0  0  0  0  0  0  0  0  0
   73.1690   61.1519  -45.2347 C   0  0  0  0  0  0  0  0  0  0  0  0
   70.4766   60.1470  -43.3995 C   0  0  0  0  0  0  0  0  0  0  0  0
   69.3266   59.4002  -45.7828 C   0  0  0  0  0  0  0  0  0  0  0  0
   68.5313   58.9213  -47.2548 Cl  0  0  0  0  0  0  0  0  0  0  0  0
   70.0370   58.4621  -45.0596 C   0  0  0  0  0  0  0  0  0  0  0  0
   70.5916   58.8393  -43.8433 C   0  0  0  0  0  0  0  0  0  0  0  0
   69.2038   60.7058  -45.3530 C   0  0  0  0  0  0  0  0  0  0  0  0
   69.8107   61.0982  -44.1650 C   0  0  0  0  0  0  0  0  0  0  0  0
   69.8327   62.5747  -43.7883 C   0  0  1  0  0  0  0  0  0  0  0  0
   68.9116   62.9059  -42.6112 C   0  0  0  0  0  0  0  0  0  0  0  0
   71.2964   62.9669  -43.5624 C   0  0  0  0  0  0  0  0  0  0  0  0
   71.7873   63.9602  -44.0976 O   0  0  0  0  0  0  0  0  0  0  0  0
   71.9957   62.1369  -42.7556 N   0  0  0  0  0  0  0  0  0  0  0  0
   72.1204   60.7506  -42.9473 C   0  0  0  0  0  0  0  0  0  0  0  0
  1  2  2  0
  1  3  1  0
  2 19  1  0
  3  4  2  0
  4  5  1  0
  6  5  1  6
  5 19  2  0
  7 11  2  0
  7 13  1  0
  8  9  1  0
  8 10  2  0
  8 12  1  0
 10 11  1  0
 12 13  2  0
 13 14  1  0
 15 14  1  6
 14 16  1  1
 16 17  2  0
 16 18  1  0
 18 19  1  0
M  END
$$$$
