
     RDKit          3D

 19 20  0  0  0  0  0  0  0  0999 V2000
   60.1629   32.3708  -50.8543 N   0  0  0  0  0  0  0  0  0  0  0  0
   60.1096   33.6267  -51.3093 C   0  0  0  0  0  0  0  0  0  0  0  0
   60.9298   31.5052  -51.5279 C   0  0  0  0  0  0  0  0  0  0  0  0
   61.6777   31.8474  -52.6388 C   0  0  0  0  0  0  0  0  0  0  0  0
   61.6499   33.1554  -53.1060 C   0  0  0  0  0  0  0  0  0  0  0  0
   62.5491   33.5857  -54.2365 C   0  0  0  0  0  0  0  0  0  0  0  0
   57.7655   33.2930  -54.3599 C   0  0  0  0  0  0  0  0  0  0  0  0
   60.4023   32.5732  -54.6602 C   0  0  0  0  0  0  0  0  0  0  0  0
   62.0679   32.1430  -54.9228 Cl  0  0  0  0  0  0  0  0  0  0  0  0
   59.4285   31.5972  -54.7437 C   0  0  0  0  0  0  0  0  0  0  0  0
   58.0971   31.9726  -54.6187 C   0  0  0  0  0  0  0  0  0  0  0  0
   60.0868   33.8918  -54.4032 C   0  0  0  0  0  0  0  0  0  0  0  0
   58.7579   34.2569  -54.2176 C   0  0  0  0  0  0  0  0  0  0  0  0
   58.4285   35.6699  -53.7509 C   0  0  1  0  0  0  0  0  0  0  0  0
   57.0312   35.7866  -53.1365 C   0  0  0  0  0  0  0  0  0  0  0  0
   59.5579   36.1178  -52.8176 C   0  0  0  0  0  0  0  0  0  0  0  0
   59.4315   37.0895  -52.0733 O   0  0  0  0  0  0  0  0  0  0  0  0
   60.6900   35.3818  -52.8911 N   0  0  0  0  0  0  0  0  0  0  0  0
   60.8188   34.0618  -52.4275 C   0  0  0  0  0  0  0  0  0  0  0  0
  1  2  2  0
  1  3  1  0
  2 19  1  0
  3  4  2  0
  4  5  1  0
  6  5  1  6
  5 19  2  0
  7 11  2  0
  7 13  1  0
  8  9  1  0
  8 10  2  0
  8 12  1  0
 10 11  1  0
 12 13  2  0
 13 14  1  0
 15 14  1  6
 14 16  1  1
 16 17  2  0
 16 18  1  0
 18 19  1  0
M  END
$$$$
