
     RDKit          3D

 19 20  0  0  0  0  0  0  0  0999 V2000
   53.3765  -96.0518   41.7569 N   0  0  0  0  0  0  0  0  0  0  0  0
   52.9776  -94.9609   42.4189 C   0  0  0  0  0  0  0  0  0  0  0  0
   54.5502  -95.9877   41.1173 C   0  0  0  0  0  0  0  0  0  0  0  0
   55.3694  -94.8745   41.1288 C   0  0  0  0  0  0  0  0  0  0  0  0
   54.9773  -93.7435   41.8338 C   0  0  0  0  0  0  0  0  0  0  0  0
   55.9043  -92.5625   41.9670 C   0  0  0  0  0  0  0  0  0  0  0  0
   54.1021  -92.8963   39.6254 C   0  0  0  0  0  0  0  0  0  0  0  0
   56.6801  -92.9225   40.5810 C   0  0  0  0  0  0  0  0  0  0  0  0
   58.3284  -92.8813   41.1381 Cl  0  0  0  0  0  0  0  0  0  0  0  0
   56.3053  -93.8626   39.6411 C   0  0  0  0  0  0  0  0  0  0  0  0
   55.0094  -93.8256   39.1425 C   0  0  0  0  0  0  0  0  0  0  0  0
   55.7874  -91.9911   41.0708 C   0  0  0  0  0  0  0  0  0  0  0  0
   54.4733  -91.9933   40.6159 C   0  0  0  0  0  0  0  0  0  0  0  0
   53.4466  -91.0915   41.2907 C   0  0  1  0  0  0  0  0  0  0  0  0
   52.0457  -91.2242   40.6880 C   0  0  0  0  0  0  0  0  0  0  0  0
   53.5063  -91.3767   42.7948 C   0  0  0  0  0  0  0  0  0  0  0  0
   53.7919  -90.4972   43.6066 O   0  0  0  0  0  0  0  0  0  0  0  0
   53.2418  -92.6550   43.1482 N   0  0  0  0  0  0  0  0  0  0  0  0
   53.7297  -93.7889   42.4774 C   0  0  0  0  0  0  0  0  0  0  0  0
  1  2  2  0
  1  3  1  0
  2 19  1  0
  3  4  2  0
  4  5  1  0
  6  5  1  6
  5 19  2  0
  7 11  2  0
  7 13  1  0
  8  9  1  0
  8 10  2  0
  8 12  1  0
 10 11  1  0
 12 13  2  0
 13 14  1  0
 15 14  1  6
 14 16  1  1
 16 17  2  0
 16 18  1  0
 18 19  1  0
M  END
$$$$
