
     RDKit          3D

 19 20  0  0  0  0  0  0  0  0999 V2000
  -59.2447   42.8860   20.2938 N   0  0  0  0  0  0  0  0  0  0  0  0
  -58.6527   41.6953   20.4321 C   0  0  0  0  0  0  0  0  0  0  0  0
  -58.5061   43.8856   19.7978 C   0  0  0  0  0  0  0  0  0  0  0  0
  -57.1889   43.7428   19.4038 C   0  0  0  0  0  0  0  0  0  0  0  0
  -56.5705   42.5042   19.5194 C   0  0  0  0  0  0  0  0  0  0  0  0
  -55.1782   42.2887   18.9836 C   0  0  0  0  0  0  0  0  0  0  0  0
  -52.6249   37.9243   21.5919 C   0  0  0  0  0  0  0  0  0  0  0  0
  -53.9182   37.5441   23.9885 C   0  0  0  0  0  0  0  0  0  0  0  0
  -54.7218   37.3768   25.5231 Cl  0  0  0  0  0  0  0  0  0  0  0  0
  -52.6177   37.0994   23.8520 C   0  0  0  0  0  0  0  0  0  0  0  0
  -51.9615   37.3198   22.6478 C   0  0  0  0  0  0  0  0  0  0  0  0
  -54.5911   38.1477   22.9459 C   0  0  0  0  0  0  0  0  0  0  0  0
  -53.9539   38.3134   21.7210 C   0  0  0  0  0  0  0  0  0  0  0  0
  -54.7547   38.8066   20.5218 C   0  0  1  0  0  0  0  0  0  0  0  0
  -55.5531   37.6943   19.8369 C   0  0  0  0  0  0  0  0  0  0  0  0
  -55.6111   39.9846   20.9974 C   0  0  0  0  0  0  0  0  0  0  0  0
  -55.2876   40.6649   21.9703 O   0  0  0  0  0  0  0  0  0  0  0  0
  -56.7395   40.1996   20.2839 N   0  0  0  0  0  0  0  0  0  0  0  0
  -57.3268   41.4585   20.0735 C   0  0  0  0  0  0  0  0  0  0  0  0
  1  2  2  0
  1  3  1  0
  2 19  1  0
  3  4  2  0
  4  5  1  0
  6  5  1  6
  5 19  2  0
  7 11  2  0
  7 13  1  0
  8  9  1  0
  8 10  2  0
  8 12  1  0
 10 11  1  0
 12 13  2  0
 13 14  1  0
 15 14  1  6
 14 16  1  1
 16 17  2  0
 16 18  1  0
 18 19  1  0
M  END
$$$$
