
     RDKit          3D

 19 20  0  0  0  0  0  0  0  0999 V2000
  -64.3397   77.8028 -103.2201 N   0  0  0  0  0  0  0  0  0  0  0  0
  -65.3800   78.3282 -102.5649 C   0  0  0  0  0  0  0  0  0  0  0  0
  -64.6040   77.0850 -104.3181 C   0  0  0  0  0  0  0  0  0  0  0  0
  -65.8784   76.8847 -104.8145 C   0  0  0  0  0  0  0  0  0  0  0  0
  -66.9652   77.4465 -104.1564 C   0  0  0  0  0  0  0  0  0  0  0  0
  -68.3507   77.3498 -104.7419 C   0  0  0  0  0  0  0  0  0  0  0  0
  -69.6885   74.9504 -103.3405 C   0  0  0  0  0  0  0  0  0  0  0  0
  -66.9766   74.9439 -103.7944 C   0  0  0  0  0  0  0  0  0  0  0  0
  -65.2715   74.9883 -104.1402 Cl  0  0  0  0  0  0  0  0  0  0  0  0
  -67.7355   73.8873 -104.2590 C   0  0  0  0  0  0  0  0  0  0  0  0
  -69.1084   73.9111 -104.0502 C   0  0  0  0  0  0  0  0  0  0  0  0
  -67.5407   75.9854 -103.0864 C   0  0  0  0  0  0  0  0  0  0  0  0
  -68.9065   75.9784 -102.8250 C   0  0  0  0  0  0  0  0  0  0  0  0
  -69.4941   77.0270 -101.8880 C   0  0  1  0  0  0  0  0  0  0  0  0
  -69.1376   76.7841 -100.4192 C   0  0  0  0  0  0  0  0  0  0  0  0
  -69.0653   78.4009 -102.4133 C   0  0  0  0  0  0  0  0  0  0  0  0
  -69.8612   79.1538 -102.9731 O   0  0  0  0  0  0  0  0  0  0  0  0
  -67.7602   78.7042 -102.2301 N   0  0  0  0  0  0  0  0  0  0  0  0
  -66.7004   78.1705 -102.9823 C   0  0  0  0  0  0  0  0  0  0  0  0
  1  2  2  0
  1  3  1  0
  2 19  1  0
  3  4  2  0
  4  5  1  0
  6  5  1  6
  5 19  2  0
  7 11  2  0
  7 13  1  0
  8  9  1  0
  8 10  2  0
  8 12  1  0
 10 11  1  0
 12 13  2  0
 13 14  1  0
 15 14  1  6
 14 16  1  6
 16 17  2  0
 16 18  1  0
 18 19  1  0
M  END
$$$$
