
     RDKit          3D

 20 22  0  0  0  0  0  0  0  0999 V2000
  -53.5081   20.6599   18.0404 N   0  0  0  0  0  0  0  0  0  0  0  0
  -51.0759   16.5317   17.5347 C   0  0  0  0  0  0  0  0  0  0  0  0
  -50.3310   17.2156   18.5190 C   0  0  0  0  0  0  0  0  0  0  0  0
  -48.9455   17.0106   18.7294 C   0  0  0  0  0  0  0  0  0  0  0  0
  -48.2820   17.7004   19.6998 C   0  0  0  0  0  0  0  0  0  0  0  0
  -48.9537   18.6061   20.5080 C   0  0  0  0  0  0  0  0  0  0  0  0
  -51.0287   18.1464   19.3391 C   0  0  0  0  0  0  0  0  0  0  0  0
  -53.4709   23.0427   15.2293 C   0  0  0  0  0  0  0  0  0  0  0  0
  -51.9871   23.8176   16.9349 C   0  0  0  0  0  0  0  0  0  0  0  0
  -53.3850   21.6765   20.0702 O   0  0  0  0  0  0  0  0  0  0  0  0
  -53.4020   20.6555   19.3837 C   0  0  0  0  0  0  0  0  0  0  0  0
  -53.1081   21.7103   17.1934 C   0  0  0  0  0  0  0  0  0  0  0  0
  -52.2234   22.6712   17.6724 C   0  0  0  0  0  0  0  0  0  0  0  0
  -52.6140   24.0052   15.7196 C   0  0  0  0  0  0  0  0  0  0  0  0
  -53.7182   21.8904   15.9563 C   0  0  0  0  0  0  0  0  0  0  0  0
  -53.2386   19.2759   19.9880 C   0  0  0  0  0  0  0  0  0  0  0  0
  -52.4316   18.3266   19.1345 C   0  0  0  0  0  0  0  0  0  0  0  0
  -50.2911   18.8334   20.3392 C   0  0  0  0  0  0  0  0  0  0  0  0
  -52.3745   16.7024   17.3387 N   0  0  0  0  0  0  0  0  0  0  0  0
  -53.0098   17.5767   18.1288 C   0  0  0  0  0  0  0  0  0  0  0  0
  1 11  1  0
  1 12  1  0
  2  3  2  0
  2 19  1  0
  3  4  1  0
  3  7  1  0
  4  5  2  0
  5  6  1  0
  6 18  2  0
  7 17  2  0
  7 18  1  0
  8 14  2  0
  8 15  1  0
  9 13  2  0
  9 14  1  0
 10 11  2  0
 16 11  1  6
 12 13  1  0
 12 15  2  0
 16 17  1  0
 17 20  1  0
 19 20  2  0
M  END
$$$$
