
     RDKit          3D

 20 22  0  0  0  0  0  0  0  0999 V2000
    3.7754 -165.0860    7.6290 N   0  0  0  0  0  0  0  0  0  0  0  0
    1.0667 -160.5071    7.8904 C   0  0  0  0  0  0  0  0  0  0  0  0
    0.1882 -161.4623    7.3361 C   0  0  0  0  0  0  0  0  0  0  0  0
   -1.2208 -161.3884    7.4596 C   0  0  0  0  0  0  0  0  0  0  0  0
   -2.0167 -162.3453    6.9037 C   0  0  0  0  0  0  0  0  0  0  0  0
   -1.4611 -163.4158    6.2182 C   0  0  0  0  0  0  0  0  0  0  0  0
    0.7682 -162.5536    6.6302 C   0  0  0  0  0  0  0  0  0  0  0  0
    4.2428 -168.4727    9.0049 C   0  0  0  0  0  0  0  0  0  0  0  0
    5.9254 -168.0546    7.3600 C   0  0  0  0  0  0  0  0  0  0  0  0
    5.2314 -164.0408    6.2303 O   0  0  0  0  0  0  0  0  0  0  0  0
    4.0803 -164.3227    6.5613 C   0  0  0  0  0  0  0  0  0  0  0  0
    4.3696 -166.3220    7.9450 C   0  0  0  0  0  0  0  0  0  0  0  0
    5.4649 -166.7589    7.2070 C   0  0  0  0  0  0  0  0  0  0  0  0
    5.3119 -168.9105    8.2522 C   0  0  0  0  0  0  0  0  0  0  0  0
    3.7700 -167.1791    8.8622 C   0  0  0  0  0  0  0  0  0  0  0  0
    2.8741 -163.7772    5.8246 C   0  0  0  0  0  0  0  0  0  0  0  0
    2.1919 -162.6313    6.5335 C   0  0  0  0  0  0  0  0  0  0  0  0
   -0.1060 -163.5258    6.0763 C   0  0  0  0  0  0  0  0  0  0  0  0
    2.3861 -160.5733    7.7958 N   0  0  0  0  0  0  0  0  0  0  0  0
    2.9075 -161.6141    7.1347 C   0  0  0  0  0  0  0  0  0  0  0  0
  1 11  1  0
  1 12  1  0
  2  3  2  0
  2 19  1  0
  3  4  1  0
  3  7  1  0
  4  5  2  0
  5  6  1  0
  6 18  2  0
  7 17  2  0
  7 18  1  0
  8 14  2  0
  8 15  1  0
  9 13  2  0
  9 14  1  0
 10 11  2  0
 16 11  1  6
 12 13  1  0
 12 15  2  0
 16 17  1  0
 17 20  1  0
 19 20  2  0
M  END
$$$$
