
     RDKit          3D

 20 22  0  0  0  0  0  0  0  0999 V2000
   45.4855    2.1070 -109.5655 N   0  0  0  0  0  0  0  0  0  0  0  0
   49.3243    4.9631 -109.9417 C   0  0  0  0  0  0  0  0  0  0  0  0
   48.1169    4.5480 -110.5427 C   0  0  0  0  0  0  0  0  0  0  0  0
   47.7247    4.9316 -111.8483 C   0  0  0  0  0  0  0  0  0  0  0  0
   46.5429    4.4996 -112.3725 C   0  0  0  0  0  0  0  0  0  0  0  0
   45.6965    3.6872 -111.6323 C   0  0  0  0  0  0  0  0  0  0  0  0
   47.2582    3.7104 -109.7766 C   0  0  0  0  0  0  0  0  0  0  0  0
   47.2092    1.1713 -112.6855 C   0  0  0  0  0  0  0  0  0  0  0  0
   45.5662   -0.4854 -112.1694 C   0  0  0  0  0  0  0  0  0  0  0  0
   45.2844    0.6215 -107.8561 O   0  0  0  0  0  0  0  0  0  0  0  0
   45.7910    1.6322 -108.3420 C   0  0  0  0  0  0  0  0  0  0  0  0
   45.7720    1.4652 -110.7849 C   0  0  0  0  0  0  0  0  0  0  0  0
   45.1425    0.2613 -111.0845 C   0  0  0  0  0  0  0  0  0  0  0  0
   46.6008   -0.0343 -112.9637 C   0  0  0  0  0  0  0  0  0  0  0  0
   46.7969    1.9297 -111.6028 C   0  0  0  0  0  0  0  0  0  0  0  0
   46.7759    2.4888 -107.5730 C   0  0  0  0  0  0  0  0  0  0  0  0
   47.6524    3.3501 -108.4510 C   0  0  0  0  0  0  0  0  0  0  0  0
   46.0361    3.2942 -110.3678 C   0  0  0  0  0  0  0  0  0  0  0  0
   49.6948    4.6246 -108.7161 N   0  0  0  0  0  0  0  0  0  0  0  0
   48.8658    3.8435 -108.0126 C   0  0  0  0  0  0  0  0  0  0  0  0
  1 11  1  0
  1 12  1  0
  2  3  2  0
  2 19  1  0
  3  4  1  0
  3  7  1  0
  4  5  2  0
  5  6  1  0
  6 18  2  0
  7 17  2  0
  7 18  1  0
  8 14  2  0
  8 15  1  0
  9 13  2  0
  9 14  1  0
 10 11  2  0
 16 11  1  6
 12 13  1  0
 12 15  2  0
 16 17  1  0
 17 20  1  0
 19 20  2  0
M  END
$$$$
