
     RDKit          3D

 20 22  0  0  0  0  0  0  0  0999 V2000
  -39.1751    3.3707   53.1524 N   0  0  0  0  0  0  0  0  0  0  0  0
  -42.8089   -1.2334   51.0790 C   0  0  0  0  0  0  0  0  0  0  0  0
  -41.4582   -1.4742   51.4091 C   0  0  0  0  0  0  0  0  0  0  0  0
  -40.9369   -2.7664   51.6626 C   0  0  0  0  0  0  0  0  0  0  0  0
  -39.6220   -2.9336   51.9804 C   0  0  0  0  0  0  0  0  0  0  0  0
  -38.7731   -1.8404   52.0744 C   0  0  0  0  0  0  0  0  0  0  0  0
  -40.5946   -0.3463   51.4977 C   0  0  0  0  0  0  0  0  0  0  0  0
  -36.4032    5.5649   52.1115 C   0  0  0  0  0  0  0  0  0  0  0  0
  -38.3365    6.0664   50.7993 C   0  0  0  0  0  0  0  0  0  0  0  0
  -41.3890    2.9097   53.3866 O   0  0  0  0  0  0  0  0  0  0  0  0
  -40.3521    2.8730   52.7251 C   0  0  0  0  0  0  0  0  0  0  0  0
  -38.4752    4.4367   52.5569 C   0  0  0  0  0  0  0  0  0  0  0  0
  -39.0807    5.1620   51.5358 C   0  0  0  0  0  0  0  0  0  0  0  0
  -37.0000    6.2625   51.0828 C   0  0  0  0  0  0  0  0  0  0  0  0
  -37.1347    4.6557   52.8570 C   0  0  0  0  0  0  0  0  0  0  0  0
  -40.2842    2.1970   51.3710 C   0  0  0  0  0  0  0  0  0  0  0  0
  -41.1372    0.9552   51.2646 C   0  0  0  0  0  0  0  0  0  0  0  0
  -39.2354   -0.5758   51.8385 C   0  0  0  0  0  0  0  0  0  0  0  0
  -43.3122   -0.0289   50.8556 N   0  0  0  0  0  0  0  0  0  0  0  0
  -42.4817    1.0165   50.9538 C   0  0  0  0  0  0  0  0  0  0  0  0
  1 11  1  0
  1 12  1  0
  2  3  2  0
  2 19  1  0
  3  4  1  0
  3  7  1  0
  4  5  2  0
  5  6  1  0
  6 18  2  0
  7 17  2  0
  7 18  1  0
  8 14  2  0
  8 15  1  0
  9 13  2  0
  9 14  1  0
 10 11  2  0
 16 11  1  6
 12 13  1  0
 12 15  2  0
 16 17  1  0
 17 20  1  0
 19 20  2  0
M  END
$$$$
