
     RDKit          3D

 20 22  0  0  0  0  0  0  0  0999 V2000
  -74.4318 -162.1903 -102.1565 N   0  0  0  0  0  0  0  0  0  0  0  0
  -75.8789 -158.2672 -105.6643 C   0  0  0  0  0  0  0  0  0  0  0  0
  -74.5221 -157.8948 -105.5544 C   0  0  0  0  0  0  0  0  0  0  0  0
  -73.8694 -157.0480 -106.4832 C   0  0  0  0  0  0  0  0  0  0  0  0
  -72.5542 -156.7271 -106.3237 C   0  0  0  0  0  0  0  0  0  0  0  0
  -71.8274 -157.2345 -105.2566 C   0  0  0  0  0  0  0  0  0  0  0  0
  -73.7871 -158.4164 -104.4529 C   0  0  0  0  0  0  0  0  0  0  0  0
  -76.9609 -163.0019 -104.7111 C   0  0  0  0  0  0  0  0  0  0  0  0
  -75.5509 -164.9012 -104.3713 C   0  0  0  0  0  0  0  0  0  0  0  0
  -72.3302 -161.7842 -102.9231 O   0  0  0  0  0  0  0  0  0  0  0  0
  -73.4230 -161.3784 -102.5292 C   0  0  0  0  0  0  0  0  0  0  0  0
  -75.2473 -162.9328 -103.0307 C   0  0  0  0  0  0  0  0  0  0  0  0
  -74.8853 -164.2357 -103.3573 C   0  0  0  0  0  0  0  0  0  0  0  0
  -76.5817 -164.2835 -105.0500 C   0  0  0  0  0  0  0  0  0  0  0  0
  -76.3038 -162.3225 -103.6992 C   0  0  0  0  0  0  0  0  0  0  0  0
  -73.7216 -159.9024 -102.3628 C   0  0  0  0  0  0  0  0  0  0  0  0
  -74.4493 -159.2901 -103.5361 C   0  0  0  0  0  0  0  0  0  0  0  0
  -72.4185 -158.0560 -104.3376 C   0  0  0  0  0  0  0  0  0  0  0  0
  -76.4965 -159.0709 -104.8118 N   0  0  0  0  0  0  0  0  0  0  0  0
  -75.7810 -159.5556 -103.7894 C   0  0  0  0  0  0  0  0  0  0  0  0
  1 11  1  0
  1 12  1  0
  2  3  2  0
  2 19  1  0
  3  4  1  0
  3  7  1  0
  4  5  2  0
  5  6  1  0
  6 18  2  0
  7 17  2  0
  7 18  1  0
  8 14  2  0
  8 15  1  0
  9 13  2  0
  9 14  1  0
 10 11  2  0
 16 11  1  6
 12 13  1  0
 12 15  2  0
 16 17  1  0
 17 20  1  0
 19 20  2  0
M  END
$$$$
