
     RDKit          3D

 20 22  0  0  0  0  0  0  0  0999 V2000
   51.3927   35.2820    0.7073 N   0  0  0  0  0  0  0  0  0  0  0  0
   54.2189   37.8164   -3.7902 C   0  0  0  0  0  0  0  0  0  0  0  0
   55.1618   36.8306   -3.4290 C   0  0  0  0  0  0  0  0  0  0  0  0
   56.2526   36.4576   -4.2518 C   0  0  0  0  0  0  0  0  0  0  0  0
   57.1286   35.4947   -3.8477 C   0  0  0  0  0  0  0  0  0  0  0  0
   56.9608   34.8530   -2.6293 C   0  0  0  0  0  0  0  0  0  0  0  0
   54.9835   36.1822   -2.1746 C   0  0  0  0  0  0  0  0  0  0  0  0
   51.3998   38.9234    1.2746 C   0  0  0  0  0  0  0  0  0  0  0  0
   50.1573   37.8599    3.0171 C   0  0  0  0  0  0  0  0  0  0  0  0
   52.4791   33.8536   -0.6886 O   0  0  0  0  0  0  0  0  0  0  0  0
   52.4366   34.9102   -0.0593 C   0  0  0  0  0  0  0  0  0  0  0  0
   51.2524   36.5280    1.3465 C   0  0  0  0  0  0  0  0  0  0  0  0
   50.4795   36.6179    2.4997 C   0  0  0  0  0  0  0  0  0  0  0  0
   50.6113   39.0092    2.4024 C   0  0  0  0  0  0  0  0  0  0  0  0
   51.7300   37.6875    0.7444 C   0  0  0  0  0  0  0  0  0  0  0  0
   53.5997   35.8807   -0.0356 C   0  0  0  0  0  0  0  0  0  0  0  0
   53.8652   36.5489   -1.3638 C   0  0  0  0  0  0  0  0  0  0  0  0
   55.9211   35.1819   -1.8049 C   0  0  0  0  0  0  0  0  0  0  0  0
   53.1859   38.1627   -3.0372 N   0  0  0  0  0  0  0  0  0  0  0  0
   53.0349   37.5320   -1.8661 C   0  0  0  0  0  0  0  0  0  0  0  0
  1 11  1  0
  1 12  1  0
  2  3  2  0
  2 19  1  0
  3  4  1  0
  3  7  1  0
  4  5  2  0
  5  6  1  0
  6 18  2  0
  7 17  2  0
  7 18  1  0
  8 14  2  0
  8 15  1  0
  9 13  2  0
  9 14  1  0
 10 11  2  0
 16 11  1  6
 12 13  1  0
 12 15  2  0
 16 17  1  0
 17 20  1  0
 19 20  2  0
M  END
$$$$
