
     RDKit          3D

 20 22  0  0  0  0  0  0  0  0999 V2000
  -66.5356  153.7814   83.8617 N   0  0  0  0  0  0  0  0  0  0  0  0
  -63.3069  152.2460   78.6077 C   0  0  0  0  0  0  0  0  0  0  0  0
  -63.6541  151.0358   79.2451 C   0  0  0  0  0  0  0  0  0  0  0  0
  -63.5105  149.7655   78.6356 C   0  0  0  0  0  0  0  0  0  0  0  0
  -63.8671  148.6318   79.3030 C   0  0  0  0  0  0  0  0  0  0  0  0
  -64.3897  148.7020   80.5861 C   0  0  0  0  0  0  0  0  0  0  0  0
  -64.1842  151.1185   80.5634 C   0  0  0  0  0  0  0  0  0  0  0  0
  -69.5940  152.7728   85.6538 C   0  0  0  0  0  0  0  0  0  0  0  0
  -70.1931  154.1328   83.7824 C   0  0  0  0  0  0  0  0  0  0  0  0
  -66.2674  154.3782   81.6844 O   0  0  0  0  0  0  0  0  0  0  0  0
  -65.9599  153.6774   82.6480 C   0  0  0  0  0  0  0  0  0  0  0  0
  -67.8939  153.5438   84.1438 C   0  0  0  0  0  0  0  0  0  0  0  0
  -68.8685  154.1862   83.3869 C   0  0  0  0  0  0  0  0  0  0  0  0
  -70.5537  153.4331   84.9162 C   0  0  0  0  0  0  0  0  0  0  0  0
  -68.2639  152.8176   85.2713 C   0  0  0  0  0  0  0  0  0  0  0  0
  -64.9319  152.5695   82.5424 C   0  0  0  0  0  0  0  0  0  0  0  0
  -64.3483  152.4074   81.1589 C   0  0  0  0  0  0  0  0  0  0  0  0
  -64.5458  149.9077   81.2109 C   0  0  0  0  0  0  0  0  0  0  0  0
  -63.4514  153.4409   79.1604 N   0  0  0  0  0  0  0  0  0  0  0  0
  -63.9606  153.4927   80.3975 C   0  0  0  0  0  0  0  0  0  0  0  0
  1 11  1  0
  1 12  1  0
  2  3  2  0
  2 19  1  0
  3  4  1  0
  3  7  1  0
  4  5  2  0
  5  6  1  0
  6 18  2  0
  7 17  2  0
  7 18  1  0
  8 14  2  0
  8 15  1  0
  9 13  2  0
  9 14  1  0
 10 11  2  0
 16 11  1  6
 12 13  1  0
 12 15  2  0
 16 17  1  0
 17 20  1  0
 19 20  2  0
M  END
$$$$
