
     RDKit          3D

 20 22  0  0  0  0  0  0  0  0999 V2000
  112.1019 -129.8890   51.5682 N   0  0  0  0  0  0  0  0  0  0  0  0
  111.2657 -123.5667   51.7153 C   0  0  0  0  0  0  0  0  0  0  0  0
  112.2462 -124.3190   51.0343 C   0  0  0  0  0  0  0  0  0  0  0  0
  113.2479 -123.7369   50.2196 C   0  0  0  0  0  0  0  0  0  0  0  0
  114.1662 -124.5186   49.5845 C   0  0  0  0  0  0  0  0  0  0  0  0
  114.1289 -125.8994   49.7133 C   0  0  0  0  0  0  0  0  0  0  0  0
  112.2022 -125.7344   51.1776 C   0  0  0  0  0  0  0  0  0  0  0  0
  110.2495 -131.0632   54.5300 C   0  0  0  0  0  0  0  0  0  0  0  0
  112.4985 -131.8636   54.6425 C   0  0  0  0  0  0  0  0  0  0  0  0
  112.4313 -128.0999   50.2047 O   0  0  0  0  0  0  0  0  0  0  0  0
  111.9129 -128.6071   51.1987 C   0  0  0  0  0  0  0  0  0  0  0  0
  111.8330 -130.4190   52.8441 C   0  0  0  0  0  0  0  0  0  0  0  0
  112.8144 -131.1611   53.4931 C   0  0  0  0  0  0  0  0  0  0  0  0
  111.2179 -131.8192   55.1557 C   0  0  0  0  0  0  0  0  0  0  0  0
  110.5502 -130.3555   53.3783 C   0  0  0  0  0  0  0  0  0  0  0  0
  111.0490 -127.8081   52.1529 C   0  0  0  0  0  0  0  0  0  0  0  0
  111.1719 -126.3125   51.9818 C   0  0  0  0  0  0  0  0  0  0  0  0
  113.1784 -126.5022   50.4892 C   0  0  0  0  0  0  0  0  0  0  0  0
  110.3144 -124.0999   52.4668 N   0  0  0  0  0  0  0  0  0  0  0  0
  110.2888 -125.4337   52.5784 C   0  0  0  0  0  0  0  0  0  0  0  0
  1 11  1  0
  1 12  1  0
  2  3  2  0
  2 19  1  0
  3  4  1  0
  3  7  1  0
  4  5  2  0
  5  6  1  0
  6 18  2  0
  7 17  2  0
  7 18  1  0
  8 14  2  0
  8 15  1  0
  9 13  2  0
  9 14  1  0
 10 11  2  0
 16 11  1  6
 12 13  1  0
 12 15  2  0
 16 17  1  0
 17 20  1  0
 19 20  2  0
M  END
$$$$
