
     RDKit          3D

 20 22  0  0  0  0  0  0  0  0999 V2000
  193.0284  194.1883   86.9776 N   0  0  0  0  0  0  0  0  0  0  0  0
  195.6549  189.2846   85.8853 C   0  0  0  0  0  0  0  0  0  0  0  0
  194.8807  190.2560   85.2154 C   0  0  0  0  0  0  0  0  0  0  0  0
  194.5936  190.2027   83.8295 C   0  0  0  0  0  0  0  0  0  0  0  0
  193.8417  191.1745   83.2393 C   0  0  0  0  0  0  0  0  0  0  0  0
  193.3550  192.2403   83.9820 C   0  0  0  0  0  0  0  0  0  0  0  0
  194.3818  191.3424   85.9876 C   0  0  0  0  0  0  0  0  0  0  0  0
  193.1313  192.8743   83.5360 C   0  0  0  0  0  0  0  0  0  0  0  0
  190.9987  193.8787   83.9293 C   0  0  0  0  0  0  0  0  0  0  0  0
  195.2101  194.5925   87.4731 O   0  0  0  0  0  0  0  0  0  0  0  0
  194.2091  193.8809   87.5494 C   0  0  0  0  0  0  0  0  0  0  0  0
  192.6919  193.9651   85.6294 C   0  0  0  0  0  0  0  0  0  0  0  0
  191.4128  194.2849   85.1853 C   0  0  0  0  0  0  0  0  0  0  0  0
  191.8539  193.1700   83.1096 C   0  0  0  0  0  0  0  0  0  0  0  0
  193.5599  193.2732   84.7908 C   0  0  0  0  0  0  0  0  0  0  0  0
  194.2269  192.5387   88.2517 C   0  0  0  0  0  0  0  0  0  0  0  0
  194.6989  191.3991   87.3800 C   0  0  0  0  0  0  0  0  0  0  0  0
  193.6095  192.3307   85.3221 C   0  0  0  0  0  0  0  0  0  0  0  0
  195.9439  189.3316   87.1770 N   0  0  0  0  0  0  0  0  0  0  0  0
  195.4706  190.3681   87.8795 C   0  0  0  0  0  0  0  0  0  0  0  0
  1 11  1  0
  1 12  1  0
  2  3  2  0
  2 19  1  0
  3  4  1  0
  3  7  1  0
  4  5  2  0
  5  6  1  0
  6 18  2  0
  7 17  2  0
  7 18  1  0
  8 14  2  0
  8 15  1  0
  9 13  2  0
  9 14  1  0
 10 11  2  0
 16 11  1  6
 12 13  1  0
 12 15  2  0
 16 17  1  0
 17 20  1  0
 19 20  2  0
M  END
$$$$
