
     RDKit          3D

 20 22  0  0  0  0  0  0  0  0999 V2000
   56.9699   28.1455   36.7656 N   0  0  0  0  0  0  0  0  0  0  0  0
   55.4853   23.7838   38.4970 C   0  0  0  0  0  0  0  0  0  0  0  0
   55.5838   24.9559   39.2766 C   0  0  0  0  0  0  0  0  0  0  0  0
   55.9046   24.9490   40.6560 C   0  0  0  0  0  0  0  0  0  0  0  0
   55.9814   26.1161   41.3560 C   0  0  0  0  0  0  0  0  0  0  0  0
   55.7339   27.3310   40.7338 C   0  0  0  0  0  0  0  0  0  0  0  0
   55.3331   26.1974   38.6272 C   0  0  0  0  0  0  0  0  0  0  0  0
   59.6661   26.8317   34.6241 C   0  0  0  0  0  0  0  0  0  0  0  0
   58.0300   27.9083   33.2547 C   0  0  0  0  0  0  0  0  0  0  0  0
   55.3559   29.7398   36.9150 O   0  0  0  0  0  0  0  0  0  0  0  0
   55.6918   28.5708   36.7283 C   0  0  0  0  0  0  0  0  0  0  0  0
   57.7931   27.9350   35.6436 C   0  0  0  0  0  0  0  0  0  0  0  0
   57.3312   28.2990   34.3829 C   0  0  0  0  0  0  0  0  0  0  0  0
   59.1909   27.1715   33.3752 C   0  0  0  0  0  0  0  0  0  0  0  0
   58.9773   27.2147   35.7627 C   0  0  0  0  0  0  0  0  0  0  0  0
   54.6783   27.4687   36.4974 C   0  0  0  0  0  0  0  0  0  0  0  0
   54.9855   26.1905   37.2410 C   0  0  0  0  0  0  0  0  0  0  0  0
   55.4201   27.3827   39.4043 C   0  0  0  0  0  0  0  0  0  0  0  0
   55.1704   23.7757   37.2105 N   0  0  0  0  0  0  0  0  0  0  0  0
   54.9305   24.9554   36.6249 C   0  0  0  0  0  0  0  0  0  0  0  0
  1 11  1  0
  1 12  1  0
  2  3  2  0
  2 19  1  0
  3  4  1  0
  3  7  1  0
  4  5  2  0
  5  6  1  0
  6 18  2  0
  7 17  2  0
  7 18  1  0
  8 14  2  0
  8 15  1  0
  9 13  2  0
  9 14  1  0
 10 11  2  0
 16 11  1  6
 12 13  1  0
 12 15  2  0
 16 17  1  0
 17 20  1  0
 19 20  2  0
M  END
$$$$
