
     RDKit          3D

 20 22  0  0  0  0  0  0  0  0999 V2000
   39.6930   -6.4764  -30.9944 N   0  0  0  0  0  0  0  0  0  0  0  0
   41.6001   -2.3584  -26.9616 C   0  0  0  0  0  0  0  0  0  0  0  0
   40.2960   -2.5978  -26.4786 C   0  0  0  0  0  0  0  0  0  0  0  0
   39.8225   -2.1056  -25.2378 C   0  0  0  0  0  0  0  0  0  0  0  0
   38.5516   -2.3741  -24.8247 C   0  0  0  0  0  0  0  0  0  0  0  0
   37.7029   -3.1453  -25.6053 C   0  0  0  0  0  0  0  0  0  0  0  0
   39.4316   -3.3855  -27.2897 C   0  0  0  0  0  0  0  0  0  0  0  0
   41.8421   -7.8252  -33.6672 C   0  0  0  0  0  0  0  0  0  0  0  0
   43.1611   -6.4652  -32.2107 C   0  0  0  0  0  0  0  0  0  0  0  0
   40.0285   -6.8791  -28.7821 O   0  0  0  0  0  0  0  0  0  0  0  0
   39.6628   -6.1350  -29.6912 C   0  0  0  0  0  0  0  0  0  0  0  0
   40.8437   -6.8490  -31.7139 C   0  0  0  0  0  0  0  0  0  0  0  0
   42.0675   -6.2753  -31.3847 C   0  0  0  0  0  0  0  0  0  0  0  0
   43.0466   -7.2331  -33.3518 C   0  0  0  0  0  0  0  0  0  0  0  0
   40.7384   -7.6437  -32.8508 C   0  0  0  0  0  0  0  0  0  0  0  0
   39.0746   -4.7648  -29.4230 C   0  0  0  0  0  0  0  0  0  0  0  0
   39.9281   -3.8980  -28.5279 C   0  0  0  0  0  0  0  0  0  0  0  0
   38.1199   -3.6407  -26.8091 C   0  0  0  0  0  0  0  0  0  0  0  0
   42.0600   -2.8263  -28.1121 N   0  0  0  0  0  0  0  0  0  0  0  0
   41.2306   -3.5721  -28.8525 C   0  0  0  0  0  0  0  0  0  0  0  0
  1 11  1  0
  1 12  1  0
  2  3  2  0
  2 19  1  0
  3  4  1  0
  3  7  1  0
  4  5  2  0
  5  6  1  0
  6 18  2  0
  7 17  2  0
  7 18  1  0
  8 14  2  0
  8 15  1  0
  9 13  2  0
  9 14  1  0
 10 11  2  0
 16 11  1  6
 12 13  1  0
 12 15  2  0
 16 17  1  0
 17 20  1  0
 19 20  2  0
M  END
$$$$
