
     RDKit          3D

 46 50  0  0  0  0  0  0  0  0999 V2000
   21.7333  -40.9117   75.6879 C   0  0  2  0  0  0  0  0  0  0  0  0
   19.2203  -42.4872   74.1974 C   0  0  0  0  0  0  0  0  0  0  0  0
   19.2988  -41.3190   73.4460 C   0  0  0  0  0  0  0  0  0  0  0  0
   19.6786  -41.4358   72.1087 C   0  0  0  0  0  0  0  0  0  0  0  0
   18.9218  -35.3188   76.2218 C   0  0  0  0  0  0  0  0  0  0  0  0
   20.0846  -37.1544   77.1564 C   0  0  0  0  0  0  0  0  0  0  0  0
   21.2235  -45.2770   74.5797 C   0  0  0  0  0  0  0  0  0  0  0  0
   22.1381  -44.0938   75.0149 C   0  0  0  0  0  0  0  0  0  0  0  0
   19.7364  -44.9170   74.5084 C   0  0  1  0  0  0  0  0  0  0  0  0
   18.3875  -51.8216   74.0536 C   0  0  0  0  0  0  0  0  0  0  0  0
   17.6405  -46.1183   74.6222 C   0  0  0  0  0  0  0  0  0  0  0  0
   19.1378  -51.6545   75.2144 C   0  0  0  0  0  0  0  0  0  0  0  0
   16.4794  -51.0648   72.2850 Cl  0  0  0  0  0  0  0  0  0  0  0  0
   19.5146  -39.7092   75.4029 C   0  0  0  0  0  0  0  0  0  0  0  0
   19.0785  -39.9967   74.0918 C   0  0  0  0  0  0  0  0  0  0  0  0
   18.3173  -39.0369   73.4099 C   0  0  0  0  0  0  0  0  0  0  0  0
   17.9894  -37.8327   74.0048 C   0  0  0  0  0  0  0  0  0  0  0  0
   18.3728  -37.5713   75.3176 C   0  0  0  0  0  0  0  0  0  0  0  0
   19.1345  -38.5141   76.0040 C   0  0  0  0  0  0  0  0  0  0  0  0
   20.3601  -40.6002   76.0885 N   0  0  0  0  0  0  0  0  0  0  0  0
   18.0820  -36.3670   76.0117 N   0  0  0  0  0  0  0  0  0  0  0  0
   19.5698  -43.6992   73.6237 C   0  0  0  0  0  0  0  0  0  0  0  0
   18.8834  -46.0365   74.1061 N   0  0  0  0  0  0  0  0  0  0  0  0
   19.9389  -43.8183   72.3379 N   0  0  0  0  0  0  0  0  0  0  0  0
   19.9841  -42.6873   71.6044 C   0  0  0  0  0  0  0  0  0  0  0  0
   18.6910  -34.1585   75.9772 O   0  0  0  0  0  0  0  0  0  0  0  0
   20.0681  -35.7561   76.7646 O   0  0  0  0  0  0  0  0  0  0  0  0
   21.7692  -43.4268   76.3564 C   0  0  0  0  0  0  0  0  0  0  0  0
   22.3395  -42.0148   76.5708 C   0  0  0  0  0  0  0  0  0  0  0  0
   17.4390  -47.1117   75.6978 C   0  0  0  0  0  0  0  0  0  0  0  0
   16.7188  -45.4314   74.2020 O   0  0  0  0  0  0  0  0  0  0  0  0
   18.2343  -48.0817   76.0981 C   0  0  0  0  0  0  0  0  0  0  0  0
   18.3181  -49.3866   75.4283 C   0  0  0  0  0  0  0  0  0  0  0  0
   19.0788  -50.4554   75.9250 C   0  0  0  0  0  0  0  0  0  0  0  0
   17.5591  -50.7990   73.6322 C   0  0  0  0  0  0  0  0  0  0  0  0
   17.5256  -49.5854   74.2878 C   0  0  0  0  0  0  0  0  0  0  0  0
   19.8980  -50.2678   77.0818 N   0  0  0  0  0  0  0  0  0  0  0  0
   21.1830  -49.9469   77.2594 C   0  0  0  0  0  0  0  0  0  0  0  0
   21.4091  -49.6907   78.5170 N   0  0  0  0  0  0  0  0  0  0  0  0
   20.2052  -49.7928   79.1300 N   0  0  0  0  0  0  0  0  0  0  0  0
   19.2830  -50.1338   78.2831 N   0  0  0  0  0  0  0  0  0  0  0  0
   22.6614  -39.7040   75.6833 C   0  0  0  0  0  0  0  0  0  0  0  0
   23.4018  -39.4343   76.5870 O   0  0  0  0  0  0  0  0  0  0  0  0
   22.5329  -38.9764   74.5759 O   0  0  0  0  0  0  0  0  0  0  0  0
   23.6758  -37.2209   73.4032 C   0  0  0  0  0  0  0  0  0  0  0  0
   23.7518  -38.6599   73.8253 C   0  0  0  0  0  0  0  0  0  0  0  0
  1 20  1  0
 29  1  1  6
  1 42  1  1
  2  3  1  0
  2 22  2  0
  3  4  2  0
  3 15  1  0
  4 25  1  0
  5 21  1  0
  5 26  2  0
  5 27  1  0
  6 27  1  6
  8  7  1  6
  7  9  1  1
 28  8  1  6
  9 22  1  0
  9 23  1  6
 10 12  2  0
 10 35  1  0
 11 23  1  0
 11 30  1  0
 11 31  2  0
 12 34  1  0
 13 35  1  0
 14 15  2  0
 14 19  1  0
 14 20  1  0
 15 16  1  0
 16 17  2  0
 17 18  1  0
 18 19  2  0
 18 21  1  0
 22 24  1  0
 24 25  2  0
 28 29  1  0
 30 32  2  0
 32 33  1  0
 33 34  2  0
 33 36  1  0
 34 37  1  0
 35 36  2  0
 37 38  1  0
 37 41  1  0
 38 39  2  0
 39 40  1  0
 40 41  2  0
 42 43  2  0
 42 44  1  0
 46 44  1  6
 45 46  1  6
M  END
$$$$
