
     RDKit          3D

 46 50  0  0  0  0  0  0  0  0999 V2000
  702.3644    2.3596  165.4654 C   0  0  2  0  0  0  0  0  0  0  0  0
  700.7540    3.5850  168.0967 C   0  0  0  0  0  0  0  0  0  0  0  0
  699.7898    3.7067  167.1012 C   0  0  0  0  0  0  0  0  0  0  0  0
  698.6365    2.9311  167.2212 C   0  0  0  0  0  0  0  0  0  0  0  0
  702.0358    7.6300  162.3265 C   0  0  0  0  0  0  0  0  0  0  0  0
  703.9043    8.4479  163.5245 C   0  0  0  0  0  0  0  0  0  0  0  0
  702.2119    0.9327  169.7647 C   0  0  0  0  0  0  0  0  0  0  0  0
  702.5554    0.6714  168.2682 C   0  0  0  0  0  0  0  0  0  0  0  0
  701.7272    2.3575  170.0496 C   0  0  1  0  0  0  0  0  0  0  0  0
  698.0789   -0.8510  167.7872 C   0  0  0  0  0  0  0  0  0  0  0  0
  700.4860    1.8207  172.0546 C   0  0  0  0  0  0  0  0  0  0  0  0
  697.3047   -1.3080  168.8503 C   0  0  0  0  0  0  0  0  0  0  0  0
  699.5962    1.0114  166.5336 Cl  0  0  0  0  0  0  0  0  0  0  0  0
  701.3180    4.6684  165.3101 C   0  0  0  0  0  0  0  0  0  0  0  0
  700.0454    4.5632  165.9116 C   0  0  0  0  0  0  0  0  0  0  0  0
  699.0067    5.3760  165.4360 C   0  0  0  0  0  0  0  0  0  0  0  0
  699.2173    6.2708  164.4033 C   0  0  0  0  0  0  0  0  0  0  0  0
  700.4855    6.4140  163.8466 C   0  0  0  0  0  0  0  0  0  0  0  0
  701.5244    5.6082  164.3060 C   0  0  0  0  0  0  0  0  0  0  0  0
  702.3629    3.8064  165.6888 N   0  0  0  0  0  0  0  0  0  0  0  0
  700.7982    7.3054  162.7863 N   0  0  0  0  0  0  0  0  0  0  0  0
  700.5701    2.6745  169.1251 C   0  0  0  0  0  0  0  0  0  0  0  0
  701.4141    2.5967  171.4594 N   0  0  0  0  0  0  0  0  0  0  0  0
  699.4636    1.9229  169.2449 N   0  0  0  0  0  0  0  0  0  0  0  0
  698.5176    2.0663  168.2943 C   0  0  0  0  0  0  0  0  0  0  0  0
  702.2966    8.0874  161.2391 O   0  0  0  0  0  0  0  0  0  0  0  0
  702.9528    7.3799  163.2733 O   0  0  0  0  0  0  0  0  0  0  0  0
  703.5879    1.6339  167.6450 C   0  0  0  0  0  0  0  0  0  0  0  0
  703.5918    1.6932  166.1082 C   0  0  0  0  0  0  0  0  0  0  0  0
  699.0734    2.1465  171.7665 C   0  0  0  0  0  0  0  0  0  0  0  0
  700.7927    0.9153  172.8189 O   0  0  0  0  0  0  0  0  0  0  0  0
  698.0806    1.3442  171.4438 C   0  0  0  0  0  0  0  0  0  0  0  0
  698.0483    0.5561  170.2044 C   0  0  0  0  0  0  0  0  0  0  0  0
  697.2560   -0.5908  170.0459 C   0  0  0  0  0  0  0  0  0  0  0  0
  698.7716    0.3375  167.9183 C   0  0  0  0  0  0  0  0  0  0  0  0
  698.7820    1.0351  169.1087 C   0  0  0  0  0  0  0  0  0  0  0  0
  696.5082   -1.0971  171.1545 N   0  0  0  0  0  0  0  0  0  0  0  0
  695.2014   -1.2029  171.4139 C   0  0  0  0  0  0  0  0  0  0  0  0
  695.0159   -1.9301  172.4791 N   0  0  0  0  0  0  0  0  0  0  0  0
  696.2496   -2.3443  172.8552 N   0  0  0  0  0  0  0  0  0  0  0  0
  697.1600   -1.8583  172.0682 N   0  0  0  0  0  0  0  0  0  0  0  0
  702.2889    1.9643  163.9964 C   0  0  0  0  0  0  0  0  0  0  0  0
  702.4781    0.8485  163.6003 O   0  0  0  0  0  0  0  0  0  0  0  0
  702.0157    3.0033  163.2102 O   0  0  0  0  0  0  0  0  0  0  0  0
  702.1824    5.3156  162.5868 C   0  0  0  0  0  0  0  0  0  0  0  0
  702.8273    4.2129  163.3759 C   0  0  0  0  0  0  0  0  0  0  0  0
  1 20  1  0
 29  1  1  6
  1 42  1  6
  2  3  1  0
  2 22  2  0
  3  4  2  0
  3 15  1  0
  4 25  1  0
  5 21  1  0
  5 26  2  0
  5 27  1  0
  6 27  1  6
  8  7  1  6
  7  9  1  1
 28  8  1  6
  9 22  1  0
  9 23  1  1
 10 12  2  0
 10 35  1  0
 11 23  1  0
 11 30  1  0
 11 31  2  0
 12 34  1  0
 13 35  1  0
 14 15  2  0
 14 19  1  0
 14 20  1  0
 15 16  1  0
 16 17  2  0
 17 18  1  0
 18 19  2  0
 18 21  1  0
 22 24  1  0
 24 25  2  0
 28 29  1  0
 30 32  2  0
 32 33  1  0
 33 34  2  0
 33 36  1  0
 34 37  1  0
 35 36  2  0
 37 38  1  0
 37 41  1  0
 38 39  2  0
 39 40  1  0
 40 41  2  0
 42 43  2  0
 42 44  1  0
 46 44  1  6
 45 46  1  6
M  END
$$$$
