
     RDKit          3D

 46 50  0  0  0  0  0  0  0  0999 V2000
  -27.2304   59.3379   33.6835 C   0  0  2  0  0  0  0  0  0  0  0  0
  -28.8363   56.4644   33.2554 C   0  0  0  0  0  0  0  0  0  0  0  0
  -28.4430   56.3658   34.5863 C   0  0  0  0  0  0  0  0  0  0  0  0
  -29.4453   56.3558   35.5566 C   0  0  0  0  0  0  0  0  0  0  0  0
  -22.0380   57.1013   36.0204 C   0  0  0  0  0  0  0  0  0  0  0  0
  -20.1340   58.2419   35.2025 C   0  0  0  0  0  0  0  0  0  0  0  0
  -31.1062   58.4117   31.5239 C   0  0  0  0  0  0  0  0  0  0  0  0
  -30.1297   59.4457   32.1589 C   0  0  0  0  0  0  0  0  0  0  0  0
  -30.5762   56.9745   31.5293 C   0  0  1  0  0  0  0  0  0  0  0  0
  -28.7579   52.6949   35.7759 C   0  0  0  0  0  0  0  0  0  0  0  0
  -31.1129   54.7213   30.8337 C   0  0  0  0  0  0  0  0  0  0  0  0
  -29.8338   52.4744   34.9204 C   0  0  0  0  0  0  0  0  0  0  0  0
  -26.2929   53.6612   36.3522 Cl  0  0  0  0  0  0  0  0  0  0  0  0
  -26.0506   57.1639   34.2593 C   0  0  0  0  0  0  0  0  0  0  0  0
  -26.9985   56.3727   34.9430 C   0  0  0  0  0  0  0  0  0  0  0  0
  -26.5472   55.4808   35.9262 C   0  0  0  0  0  0  0  0  0  0  0  0
  -25.2015   55.3668   36.2219 C   0  0  0  0  0  0  0  0  0  0  0  0
  -24.2614   56.1070   35.5098 C   0  0  0  0  0  0  0  0  0  0  0  0
  -24.6972   57.0011   34.5347 C   0  0  0  0  0  0  0  0  0  0  0  0
  -26.4650   58.1397   33.3348 N   0  0  0  0  0  0  0  0  0  0  0  0
  -22.8611   56.0562   35.7403 N   0  0  0  0  0  0  0  0  0  0  0  0
  -30.1791   56.6049   32.9432 C   0  0  0  0  0  0  0  0  0  0  0  0
  -31.4967   56.0106   30.9240 N   0  0  0  0  0  0  0  0  0  0  0  0
  -31.1487   56.5989   33.8726 N   0  0  0  0  0  0  0  0  0  0  0  0
  -30.7654   56.4721   35.1595 C   0  0  0  0  0  0  0  0  0  0  0  0
  -22.2343   57.9647   36.8422 O   0  0  0  0  0  0  0  0  0  0  0  0
  -20.9418   57.0360   35.2497 O   0  0  0  0  0  0  0  0  0  0  0  0
  -28.7129   59.4836   31.5494 C   0  0  0  0  0  0  0  0  0  0  0  0
  -27.6321   60.1325   32.4302 C   0  0  0  0  0  0  0  0  0  0  0  0
  -29.6743   54.4478   31.0336 C   0  0  0  0  0  0  0  0  0  0  0  0
  -31.9054   53.8272   30.5681 O   0  0  0  0  0  0  0  0  0  0  0  0
  -28.8976   54.7634   32.0488 C   0  0  0  0  0  0  0  0  0  0  0  0
  -28.8919   54.0288   33.3210 C   0  0  0  0  0  0  0  0  0  0  0  0
  -29.8881   53.1080   33.6787 C   0  0  0  0  0  0  0  0  0  0  0  0
  -27.7291   53.5220   35.3675 C   0  0  0  0  0  0  0  0  0  0  0  0
  -27.7869   54.2015   34.1680 C   0  0  0  0  0  0  0  0  0  0  0  0
  -31.0248   52.9254   32.8308 N   0  0  0  0  0  0  0  0  0  0  0  0
  -31.9549   53.7526   32.3447 C   0  0  0  0  0  0  0  0  0  0  0  0
  -32.6680   53.1408   31.4417 N   0  0  0  0  0  0  0  0  0  0  0  0
  -32.1167   51.9095   31.3173 N   0  0  0  0  0  0  0  0  0  0  0  0
  -31.1242   51.7624   32.1403 N   0  0  0  0  0  0  0  0  0  0  0  0
  -26.5135   60.2636   34.6579 C   0  0  0  0  0  0  0  0  0  0  0  0
  -26.7902   61.4220   34.7962 O   0  0  0  0  0  0  0  0  0  0  0  0
  -25.5343   59.6427   35.3120 O   0  0  0  0  0  0  0  0  0  0  0  0
  -25.7812   61.5446   36.7560 C   0  0  0  0  0  0  0  0  0  0  0  0
  -24.9530   60.3247   36.4723 C   0  0  0  0  0  0  0  0  0  0  0  0
  1 20  1  0
 29  1  1  6
  1 42  1  1
  2  3  1  0
  2 22  2  0
  3  4  2  0
  3 15  1  0
  4 25  1  0
  5 21  1  0
  5 26  2  0
  5 27  1  0
  6 27  1  6
  8  7  1  6
  7  9  1  1
 28  8  1  6
  9 22  1  0
  9 23  1  1
 10 12  2  0
 10 35  1  0
 11 23  1  0
 11 30  1  0
 11 31  2  0
 12 34  1  0
 13 35  1  0
 14 15  2  0
 14 19  1  0
 14 20  1  0
 15 16  1  0
 16 17  2  0
 17 18  1  0
 18 19  2  0
 18 21  1  0
 22 24  1  0
 24 25  2  0
 28 29  1  0
 30 32  2  0
 32 33  1  0
 33 34  2  0
 33 36  1  0
 34 37  1  0
 35 36  2  0
 37 38  1  0
 37 41  1  0
 38 39  2  0
 39 40  1  0
 40 41  2  0
 42 43  2  0
 42 44  1  0
 46 44  1  6
 45 46  1  6
M  END
$$$$
