
     RDKit          3D

 46 50  0  0  0  0  0  0  0  0999 V2000
 1379.4452-2360.9832  581.4948 C   0  0  2  0  0  0  0  0  0  0  0  0
 1380.7317-2360.4834  584.5137 C   0  0  0  0  0  0  0  0  0  0  0  0
 1381.6472-2361.3772  583.9672 C   0  0  0  0  0  0  0  0  0  0  0  0
 1382.9443-2360.9158  583.7431 C   0  0  0  0  0  0  0  0  0  0  0  0
 1379.0448-2367.4243  583.5283 C   0  0  0  0  0  0  0  0  0  0  0  0
 1376.8646-2366.5959  583.9213 C   0  0  0  0  0  0  0  0  0  0  0  0
 1379.8994-2357.1816  583.9218 C   0  0  0  0  0  0  0  0  0  0  0  0
 1379.6283-2357.8887  582.5608 C   0  0  0  0  0  0  0  0  0  0  0  0
 1380.0520-2358.1467  585.1017 C   0  0  1  0  0  0  0  0  0  0  0  0
 1385.3129-2353.1016  586.3639 C   0  0  0  0  0  0  0  0  0  0  0  0
 1381.1918-2356.4644  586.4126 C   0  0  0  0  0  0  0  0  0  0  0  0
 1384.5679-2352.7896  585.2294 C   0  0  0  0  0  0  0  0  0  0  0  0
 1385.5596-2353.8296  588.9623 Cl  0  0  0  0  0  0  0  0  0  0  0  0
 1379.9485-2362.9866  582.9717 C   0  0  0  0  0  0  0  0  0  0  0  0
 1381.2100-2362.7375  583.5530 C   0  0  0  0  0  0  0  0  0  0  0  0
 1382.0420-2363.8271  583.8483 C   0  0  0  0  0  0  0  0  0  0  0  0
 1381.6393-2365.1235  583.5850 C   0  0  0  0  0  0  0  0  0  0  0  0
 1380.3734-2365.3721  583.0622 C   0  0  0  0  0  0  0  0  0  0  0  0
 1379.5398-2364.2988  582.7590 C   0  0  0  0  0  0  0  0  0  0  0  0
 1379.1216-2361.9214  582.5706 N   0  0  0  0  0  0  0  0  0  0  0  0
 1379.8722-2366.6665  582.7606 N   0  0  0  0  0  0  0  0  0  0  0  0
 1381.1112-2359.1741  584.7599 C   0  0  0  0  0  0  0  0  0  0  0  0
 1380.2990-2357.4741  586.3780 N   0  0  0  0  0  0  0  0  0  0  0  0
 1382.3577-2358.7227  584.5438 N   0  0  0  0  0  0  0  0  0  0  0  0
 1383.2506-2359.6003  584.0428 C   0  0  0  0  0  0  0  0  0  0  0  0
 1379.3660-2368.0837  584.4881 O   0  0  0  0  0  0  0  0  0  0  0  0
 1377.7869-2367.3291  583.0721 O   0  0  0  0  0  0  0  0  0  0  0  0
 1378.4083-2358.8335  582.5336 C   0  0  0  0  0  0  0  0  0  0  0  0
 1378.3960-2359.8630  581.3918 C   0  0  0  0  0  0  0  0  0  0  0  0
 1380.6499-2355.1152  586.6805 C   0  0  0  0  0  0  0  0  0  0  0  0
 1382.3838-2356.6467  586.2011 O   0  0  0  0  0  0  0  0  0  0  0  0
 1381.1311-2353.9387  586.3373 C   0  0  0  0  0  0  0  0  0  0  0  0
 1382.5670-2353.6323  586.3009 C   0  0  0  0  0  0  0  0  0  0  0  0
 1383.1924-2353.0183  585.2053 C   0  0  0  0  0  0  0  0  0  0  0  0
 1384.6682-2353.6082  587.4765 C   0  0  0  0  0  0  0  0  0  0  0  0
 1383.3179-2353.8923  587.4570 C   0  0  0  0  0  0  0  0  0  0  0  0
 1382.4436-2352.7537  584.0161 N   0  0  0  0  0  0  0  0  0  0  0  0
 1382.4747-2353.2510  582.7770 C   0  0  0  0  0  0  0  0  0  0  0  0
 1381.4443-2352.8293  582.0999 N   0  0  0  0  0  0  0  0  0  0  0  0
 1380.7128-2352.0964  582.9729 N   0  0  0  0  0  0  0  0  0  0  0  0
 1381.2941-2352.0422  584.1320 N   0  0  0  0  0  0  0  0  0  0  0  0
 1379.6119-2361.6433  580.1323 C   0  0  0  0  0  0  0  0  0  0  0  0
 1379.9640-2362.7793  579.9857 O   0  0  0  0  0  0  0  0  0  0  0  0
 1379.3467-2360.8047  579.1326 O   0  0  0  0  0  0  0  0  0  0  0  0
 1379.1360-2362.3750  577.3290 C   0  0  0  0  0  0  0  0  0  0  0  0
 1379.8610-2361.1484  577.8033 C   0  0  0  0  0  0  0  0  0  0  0  0
  1 20  1  0
 29  1  1  6
  1 42  1  6
  2  3  1  0
  2 22  2  0
  3  4  2  0
  3 15  1  0
  4 25  1  0
  5 21  1  0
  5 26  2  0
  5 27  1  0
  6 27  1  6
  8  7  1  6
  7  9  1  1
 28  8  1  6
  9 22  1  0
  9 23  1  1
 10 12  2  0
 10 35  1  0
 11 23  1  0
 11 30  1  0
 11 31  2  0
 12 34  1  0
 13 35  1  0
 14 15  2  0
 14 19  1  0
 14 20  1  0
 15 16  1  0
 16 17  2  0
 17 18  1  0
 18 19  2  0
 18 21  1  0
 22 24  1  0
 24 25  2  0
 28 29  1  0
 30 32  2  0
 32 33  1  0
 33 34  2  0
 33 36  1  0
 34 37  1  0
 35 36  2  0
 37 38  1  0
 37 41  1  0
 38 39  2  0
 39 40  1  0
 40 41  2  0
 42 43  2  0
 42 44  1  0
 46 44  1  6
 45 46  1  6
M  END
$$$$
