
     RDKit          3D

 46 50  0  0  0  0  0  0  0  0999 V2000
   32.7573   45.4488   46.6974 C   0  0  2  0  0  0  0  0  0  0  0  0
   34.5286   46.1766   49.4089 C   0  0  0  0  0  0  0  0  0  0  0  0
   33.8798   45.0121   49.8068 C   0  0  0  0  0  0  0  0  0  0  0  0
   34.6660   43.8849   50.0468 C   0  0  0  0  0  0  0  0  0  0  0  0
   27.4116   44.6454   51.3291 C   0  0  0  0  0  0  0  0  0  0  0  0
   26.9149   45.0358   53.6086 C   0  0  0  0  0  0  0  0  0  0  0  0
   37.0218   46.9207   47.1345 C   0  0  0  0  0  0  0  0  0  0  0  0
   35.8975   46.2824   46.2659 C   0  0  0  0  0  0  0  0  0  0  0  0
   36.5587   47.3488   48.5304 C   0  0  1  0  0  0  0  0  0  0  0  0
   38.7929   41.4918   47.3911 C   0  0  0  0  0  0  0  0  0  0  0  0
   38.3285   47.1645   50.1684 C   0  0  0  0  0  0  0  0  0  0  0  0
   39.2045   42.7307   46.9075 C   0  0  0  0  0  0  0  0  0  0  0  0
   37.6030   39.8931   49.2269 Cl  0  0  0  0  0  0  0  0  0  0  0  0
   31.5725   45.6333   48.9362 C   0  0  0  0  0  0  0  0  0  0  0  0
   32.3939   44.9667   49.8705 C   0  0  0  0  0  0  0  0  0  0  0  0
   31.7897   44.3243   50.9604 C   0  0  0  0  0  0  0  0  0  0  0  0
   30.4175   44.3442   51.1286 C   0  0  0  0  0  0  0  0  0  0  0  0
   29.6115   45.0477   50.2375 C   0  0  0  0  0  0  0  0  0  0  0  0
   30.1989   45.6852   49.1471 C   0  0  0  0  0  0  0  0  0  0  0  0
   32.1255   46.2084   47.7778 N   0  0  0  0  0  0  0  0  0  0  0  0
   28.1965   45.1266   50.3288 N   0  0  0  0  0  0  0  0  0  0  0  0
   35.9001   46.1671   49.2111 C   0  0  0  0  0  0  0  0  0  0  0  0
   37.6195   47.9545   49.3372 N   0  0  0  0  0  0  0  0  0  0  0  0
   36.6623   45.0848   49.4376 N   0  0  0  0  0  0  0  0  0  0  0  0
   36.0333   43.9664   49.8530 C   0  0  0  0  0  0  0  0  0  0  0  0
   26.4505   43.9252   51.1992 O   0  0  0  0  0  0  0  0  0  0  0  0
   27.8681   45.0790   52.5138 O   0  0  0  0  0  0  0  0  0  0  0  0
   34.6319   47.1446   46.0782 C   0  0  0  0  0  0  0  0  0  0  0  0
   33.3713   46.3806   45.6400 C   0  0  0  0  0  0  0  0  0  0  0  0
   37.9968   45.7243   50.1494 C   0  0  0  0  0  0  0  0  0  0  0  0
   39.1788   47.6174   50.9233 O   0  0  0  0  0  0  0  0  0  0  0  0
   37.3212   45.0349   49.2540 C   0  0  0  0  0  0  0  0  0  0  0  0
   37.8542   43.8425   48.5814 C   0  0  0  0  0  0  0  0  0  0  0  0
   38.7694   43.9062   47.5200 C   0  0  0  0  0  0  0  0  0  0  0  0
   37.9757   41.4392   48.5042 C   0  0  0  0  0  0  0  0  0  0  0  0
   37.4892   42.5882   49.0929 C   0  0  0  0  0  0  0  0  0  0  0  0
   39.1463   45.1760   46.9815 N   0  0  0  0  0  0  0  0  0  0  0  0
   40.3162   45.7180   46.6304 C   0  0  0  0  0  0  0  0  0  0  0  0
   40.1160   46.8355   45.9905 N   0  0  0  0  0  0  0  0  0  0  0  0
   38.7707   46.9564   45.8841 N   0  0  0  0  0  0  0  0  0  0  0  0
   38.1702   45.9658   46.4691 N   0  0  0  0  0  0  0  0  0  0  0  0
   31.8231   44.4586   46.0141 C   0  0  0  0  0  0  0  0  0  0  0  0
   30.8766   44.7874   45.3556 O   0  0  0  0  0  0  0  0  0  0  0  0
   32.1663   43.1954   46.2562 O   0  0  0  0  0  0  0  0  0  0  0  0
   33.8777   42.2407   47.6429 C   0  0  0  0  0  0  0  0  0  0  0  0
   32.4983   42.8341   47.6376 C   0  0  0  0  0  0  0  0  0  0  0  0
  1 20  1  0
 29  1  1  6
  1 42  1  6
  2  3  1  0
  2 22  2  0
  3  4  2  0
  3 15  1  0
  4 25  1  0
  5 21  1  0
  5 26  2  0
  5 27  1  0
  6 27  1  6
  8  7  1  6
  7  9  1  1
 28  8  1  6
  9 22  1  0
  9 23  1  1
 10 12  2  0
 10 35  1  0
 11 23  1  0
 11 30  1  0
 11 31  2  0
 12 34  1  0
 13 35  1  0
 14 15  2  0
 14 19  1  0
 14 20  1  0
 15 16  1  0
 16 17  2  0
 17 18  1  0
 18 19  2  0
 18 21  1  0
 22 24  1  0
 24 25  2  0
 28 29  1  0
 30 32  2  0
 32 33  1  0
 33 34  2  0
 33 36  1  0
 34 37  1  0
 35 36  2  0
 37 38  1  0
 37 41  1  0
 38 39  2  0
 39 40  1  0
 40 41  2  0
 42 43  2  0
 42 44  1  0
 46 44  1  6
 45 46  1  6
M  END
$$$$
