
     RDKit          3D

 46 50  0  0  0  0  0  0  0  0999 V2000
  173.4868   83.2035   21.8416 C   0  0  2  0  0  0  0  0  0  0  0  0
  175.0271   84.0642   19.0298 C   0  0  0  0  0  0  0  0  0  0  0  0
  174.4270   82.8646   18.6603 C   0  0  0  0  0  0  0  0  0  0  0  0
  173.4243   82.9159   17.6918 C   0  0  0  0  0  0  0  0  0  0  0  0
  177.0230   78.0218   22.2728 C   0  0  0  0  0  0  0  0  0  0  0  0
  176.8620   75.6664   22.4196 C   0  0  0  0  0  0  0  0  0  0  0  0
  173.8737   87.2301   19.7971 C   0  0  0  0  0  0  0  0  0  0  0  0
  173.1829   86.3122   20.8488 C   0  0  0  0  0  0  0  0  0  0  0  0
  175.0494   86.5671   19.0730 C   0  0  1  0  0  0  0  0  0  0  0  0
  180.3646   91.7617   20.5993 C   0  0  0  0  0  0  0  0  0  0  0  0
  175.2663   88.7112   17.9753 C   0  0  0  0  0  0  0  0  0  0  0  0
  179.6331   92.6127   19.7753 C   0  0  0  0  0  0  0  0  0  0  0  0
  180.8408   89.3718   21.7838 Cl  0  0  0  0  0  0  0  0  0  0  0  0
  175.0667   81.5480   20.7399 C   0  0  0  0  0  0  0  0  0  0  0  0
  174.7878   81.6006   19.3574 C   0  0  0  0  0  0  0  0  0  0  0  0
  174.9591   80.4388   18.5915 C   0  0  0  0  0  0  0  0  0  0  0  0
  175.3988   79.2622   19.1693 C   0  0  0  0  0  0  0  0  0  0  0  0
  175.7262   79.2243   20.5221 C   0  0  0  0  0  0  0  0  0  0  0  0
  175.5548   80.3702   21.2953 C   0  0  0  0  0  0  0  0  0  0  0  0
  174.8178   82.6605   21.5640 N   0  0  0  0  0  0  0  0  0  0  0  0
  176.1862   78.0658   21.2023 N   0  0  0  0  0  0  0  0  0  0  0  0
  174.5811   85.2550   18.4792 C   0  0  0  0  0  0  0  0  0  0  0  0
  175.6976   87.4391   18.0920 N   0  0  0  0  0  0  0  0  0  0  0  0
  173.6144   85.3116   17.5485 N   0  0  0  0  0  0  0  0  0  0  0  0
  173.0565   84.1434   17.1705 C   0  0  0  0  0  0  0  0  0  0  0  0
  177.1596   78.8835   23.1084 O   0  0  0  0  0  0  0  0  0  0  0  0
  177.6852   76.8551   22.2847 O   0  0  0  0  0  0  0  0  0  0  0  0
  174.1114   85.7283   21.9339 C   0  0  0  0  0  0  0  0  0  0  0  0
  173.5687   84.4939   22.6732 C   0  0  0  0  0  0  0  0  0  0  0  0
  176.1743   89.7625   18.4798 C   0  0  0  0  0  0  0  0  0  0  0  0
  174.1682   88.9818   17.5074 O   0  0  0  0  0  0  0  0  0  0  0  0
  177.3702   90.1087   18.0515 C   0  0  0  0  0  0  0  0  0  0  0  0
  178.3905   90.7228   18.9119 C   0  0  0  0  0  0  0  0  0  0  0  0
  178.6219   92.1057   18.9588 C   0  0  0  0  0  0  0  0  0  0  0  0
  180.0556   90.4151   20.6235 C   0  0  0  0  0  0  0  0  0  0  0  0
  179.0974   89.8830   19.7854 C   0  0  0  0  0  0  0  0  0  0  0  0
  177.9158   92.9753   18.0701 N   0  0  0  0  0  0  0  0  0  0  0  0
  177.7150   94.2960   18.0386 C   0  0  0  0  0  0  0  0  0  0  0  0
  177.1746   94.6381   16.9032 N   0  0  0  0  0  0  0  0  0  0  0  0
  177.0985   93.4956   16.1790 N   0  0  0  0  0  0  0  0  0  0  0  0
  177.5441   92.4856   16.8613 N   0  0  0  0  0  0  0  0  0  0  0  0
  172.5526   82.2182   22.5320 C   0  0  0  0  0  0  0  0  0  0  0  0
  172.1843   81.1928   22.0315 O   0  0  0  0  0  0  0  0  0  0  0  0
  172.1772   82.6423   23.7367 O   0  0  0  0  0  0  0  0  0  0  0  0
  172.6013   84.9817   24.0692 C   0  0  0  0  0  0  0  0  0  0  0  0
  173.0533   83.5948   24.4255 C   0  0  0  0  0  0  0  0  0  0  0  0
  1 20  1  0
 29  1  1  6
  1 42  1  1
  2  3  1  0
  2 22  2  0
  3  4  2  0
  3 15  1  0
  4 25  1  0
  5 21  1  0
  5 26  2  0
  5 27  1  0
  6 27  1  6
  8  7  1  6
  7  9  1  1
 28  8  1  6
  9 22  1  0
  9 23  1  6
 10 12  2  0
 10 35  1  0
 11 23  1  0
 11 30  1  0
 11 31  2  0
 12 34  1  0
 13 35  1  0
 14 15  2  0
 14 19  1  0
 14 20  1  0
 15 16  1  0
 16 17  2  0
 17 18  1  0
 18 19  2  0
 18 21  1  0
 22 24  1  0
 24 25  2  0
 28 29  1  0
 30 32  2  0
 32 33  1  0
 33 34  2  0
 33 36  1  0
 34 37  1  0
 35 36  2  0
 37 38  1  0
 37 41  1  0
 38 39  2  0
 39 40  1  0
 40 41  2  0
 42 43  2  0
 42 44  1  0
 46 44  1  6
 45 46  1  6
M  END
$$$$
