
     RDKit          3D

 46 50  0  0  0  0  0  0  0  0999 V2000
   83.9739 -152.9555   27.2895 C   0  0  2  0  0  0  0  0  0  0  0  0
   84.5230 -156.0217   26.1422 C   0  0  0  0  0  0  0  0  0  0  0  0
   84.9744 -155.2442   25.0805 C   0  0  0  0  0  0  0  0  0  0  0  0
   86.3365 -155.2874   24.7820 C   0  0  0  0  0  0  0  0  0  0  0  0
   79.9623 -152.4874   21.7823 C   0  0  0  0  0  0  0  0  0  0  0  0
   78.4302 -150.7021   21.5375 C   0  0  0  0  0  0  0  0  0  0  0  0
   85.6308 -156.6322   29.3582 C   0  0  0  0  0  0  0  0  0  0  0  0
   85.3987 -155.0924   29.3254 C   0  0  0  0  0  0  0  0  0  0  0  0
   84.9764 -157.3824   28.1940 C   0  0  1  0  0  0  0  0  0  0  0  0
   86.6117 -165.3750   26.1717 C   0  0  0  0  0  0  0  0  0  0  0  0
   84.5840 -159.6003   27.3132 C   0  0  0  0  0  0  0  0  0  0  0  0
   87.3257 -164.5498   25.3071 C   0  0  0  0  0  0  0  0  0  0  0  0
   85.1997 -165.8521   28.4345 Cl  0  0  0  0  0  0  0  0  0  0  0  0
   83.0164 -153.6220   25.0336 C   0  0  0  0  0  0  0  0  0  0  0  0
   84.0385 -154.3326   24.3685 C   0  0  0  0  0  0  0  0  0  0  0  0
   84.1093 -154.2591   22.9702 C   0  0  0  0  0  0  0  0  0  0  0  0
   83.1960 -153.5132   22.2483 C   0  0  0  0  0  0  0  0  0  0  0  0
   82.1551 -152.8567   22.8996 C   0  0  0  0  0  0  0  0  0  0  0  0
   82.0770 -152.9170   24.2890 C   0  0  0  0  0  0  0  0  0  0  0  0
   82.9645 -153.5887   26.4389 N   0  0  0  0  0  0  0  0  0  0  0  0
   81.1707 -152.0700   22.2447 N   0  0  0  0  0  0  0  0  0  0  0  0
   85.4287 -156.7551   26.8920 C   0  0  0  0  0  0  0  0  0  0  0  0
   85.1930 -158.8295   28.2367 N   0  0  0  0  0  0  0  0  0  0  0  0
   86.7415 -156.7989   26.6118 N   0  0  0  0  0  0  0  0  0  0  0  0
   87.1704 -156.0680   25.5626 C   0  0  0  0  0  0  0  0  0  0  0  0
   79.4088 -153.5236   22.0641 O   0  0  0  0  0  0  0  0  0  0  0  0
   79.4466 -151.5626   20.9585 O   0  0  0  0  0  0  0  0  0  0  0  0
   83.9237 -154.6433   29.2699 C   0  0  0  0  0  0  0  0  0  0  0  0
   83.6893 -153.2047   28.7796 C   0  0  0  0  0  0  0  0  0  0  0  0
   85.4662 -160.4114   26.4482 C   0  0  0  0  0  0  0  0  0  0  0  0
   83.3679 -159.6052   27.1744 O   0  0  0  0  0  0  0  0  0  0  0  0
   86.5026 -161.1544   26.7754 C   0  0  0  0  0  0  0  0  0  0  0  0
   86.5701 -162.6012   26.5289 C   0  0  0  0  0  0  0  0  0  0  0  0
   87.3392 -163.1685   25.5020 C   0  0  0  0  0  0  0  0  0  0  0  0
   85.9443 -164.8136   27.2435 C   0  0  0  0  0  0  0  0  0  0  0  0
   85.8985 -163.4465   27.4248 C   0  0  0  0  0  0  0  0  0  0  0  0
   88.0238 -162.3214   24.5756 N   0  0  0  0  0  0  0  0  0  0  0  0
   88.0803 -160.9973   24.4051 C   0  0  0  0  0  0  0  0  0  0  0  0
   89.0147 -160.6973   23.5478 N   0  0  0  0  0  0  0  0  0  0  0  0
   89.6023 -161.8747   23.2251 N   0  0  0  0  0  0  0  0  0  0  0  0
   89.0242 -162.8624   23.8369 N   0  0  0  0  0  0  0  0  0  0  0  0
   84.1286 -151.4592   27.0501 C   0  0  0  0  0  0  0  0  0  0  0  0
   84.8300 -150.7510   27.7165 O   0  0  0  0  0  0  0  0  0  0  0  0
   83.3775 -151.0325   26.0372 O   0  0  0  0  0  0  0  0  0  0  0  0
   83.3455 -150.0410   23.8512 C   0  0  0  0  0  0  0  0  0  0  0  0
   83.9335 -151.1423   24.6852 C   0  0  0  0  0  0  0  0  0  0  0  0
  1 20  1  0
 29  1  1  6
  1 42  1  1
  2  3  1  0
  2 22  2  0
  3  4  2  0
  3 15  1  0
  4 25  1  0
  5 21  1  0
  5 26  2  0
  5 27  1  0
  6 27  1  6
  8  7  1  6
  7  9  1  1
 28  8  1  6
  9 22  1  0
  9 23  1  6
 10 12  2  0
 10 35  1  0
 11 23  1  0
 11 30  1  0
 11 31  2  0
 12 34  1  0
 13 35  1  0
 14 15  2  0
 14 19  1  0
 14 20  1  0
 15 16  1  0
 16 17  2  0
 17 18  1  0
 18 19  2  0
 18 21  1  0
 22 24  1  0
 24 25  2  0
 28 29  1  0
 30 32  2  0
 32 33  1  0
 33 34  2  0
 33 36  1  0
 34 37  1  0
 35 36  2  0
 37 38  1  0
 37 41  1  0
 38 39  2  0
 39 40  1  0
 40 41  2  0
 42 43  2  0
 42 44  1  0
 46 44  1  6
 45 46  1  6
M  END
$$$$
