
     RDKit          3D

 46 50  0  0  0  0  0  0  0  0999 V2000
   31.1881  719.9537    8.5969 C   0  0  2  0  0  0  0  0  0  0  0  0
   33.0444  717.2294    8.9863 C   0  0  0  0  0  0  0  0  0  0  0  0
   34.0028  718.1657    8.6116 C   0  0  0  0  0  0  0  0  0  0  0  0
   34.9709  718.5113    9.5547 C   0  0  0  0  0  0  0  0  0  0  0  0
   33.8061  721.6732    2.9850 C   0  0  0  0  0  0  0  0  0  0  0  0
   34.1299  720.5179    0.9465 C   0  0  0  0  0  0  0  0  0  0  0  0
   31.0839  716.7379   11.7894 C   0  0  0  0  0  0  0  0  0  0  0  0
   30.6788  718.1566   11.2900 C   0  0  0  0  0  0  0  0  0  0  0  0
   31.8571  715.9144   10.7549 C   0  0  1  0  0  0  0  0  0  0  0  0
   31.5883  708.2270   10.8734 C   0  0  0  0  0  0  0  0  0  0  0  0
   32.7002  713.6862   10.3377 C   0  0  0  0  0  0  0  0  0  0  0  0
   32.5895  708.2117   11.8406 C   0  0  0  0  0  0  0  0  0  0  0  0
   29.8997  709.4865    9.1693 Cl  0  0  0  0  0  0  0  0  0  0  0  0
   32.6901  719.1978    6.6935 C   0  0  0  0  0  0  0  0  0  0  0  0
   33.9188  718.8338    7.2847 C   0  0  0  0  0  0  0  0  0  0  0  0
   35.0990  719.0123    6.5491 C   0  0  0  0  0  0  0  0  0  0  0  0
   35.0685  719.5279    5.2666 C   0  0  0  0  0  0  0  0  0  0  0  0
   33.8523  719.8359    4.6628 C   0  0  0  0  0  0  0  0  0  0  0  0
   32.6731  719.6685    5.3850 C   0  0  0  0  0  0  0  0  0  0  0  0
   31.4925  719.1265    7.4279 N   0  0  0  0  0  0  0  0  0  0  0  0
   33.7210  720.3671    3.3524 N   0  0  0  0  0  0  0  0  0  0  0  0
   33.0453  716.7220   10.2758 C   0  0  0  0  0  0  0  0  0  0  0  0
   32.2273  714.5800   11.2296 N   0  0  0  0  0  0  0  0  0  0  0  0
   33.9727  717.0526   11.1893 N   0  0  0  0  0  0  0  0  0  0  0  0
   34.9183  717.9374   10.8123 C   0  0  0  0  0  0  0  0  0  0  0  0
   33.8208  722.6252    3.7290 O   0  0  0  0  0  0  0  0  0  0  0  0
   33.8873  721.7658    1.6490 O   0  0  0  0  0  0  0  0  0  0  0  0
   29.8627  718.1928    9.9811 C   0  0  0  0  0  0  0  0  0  0  0  0
   29.8557  719.5427    9.2444 C   0  0  0  0  0  0  0  0  0  0  0  0
   33.7901  712.8044   10.8051 C   0  0  0  0  0  0  0  0  0  0  0  0
   32.2744  713.6286    9.1916 O   0  0  0  0  0  0  0  0  0  0  0  0
   33.7497  711.8156   11.6736 C   0  0  0  0  0  0  0  0  0  0  0  0
   33.0320  710.5566   11.4324 C   0  0  0  0  0  0  0  0  0  0  0  0
   33.2879  709.3790   12.1504 C   0  0  0  0  0  0  0  0  0  0  0  0
   31.2720  709.4178   10.2479 C   0  0  0  0  0  0  0  0  0  0  0  0
   31.9852  710.5722   10.4985 C   0  0  0  0  0  0  0  0  0  0  0  0
   34.3559  709.3434   13.1004 N   0  0  0  0  0  0  0  0  0  0  0  0
   34.7471  710.1648   14.0791 C   0  0  0  0  0  0  0  0  0  0  0  0
   35.6599  709.5875   14.8081 N   0  0  0  0  0  0  0  0  0  0  0  0
   35.7915  708.3379   14.3016 N   0  0  0  0  0  0  0  0  0  0  0  0
   35.0121  708.1697   13.2777 N   0  0  0  0  0  0  0  0  0  0  0  0
   31.1652  721.4482    8.3035 C   0  0  0  0  0  0  0  0  0  0  0  0
   32.1536  722.1213    8.2166 O   0  0  0  0  0  0  0  0  0  0  0  0
   29.9252  721.9171    8.1823 O   0  0  0  0  0  0  0  0  0  0  0  0
   29.1954  724.1985    8.3411 C   0  0  0  0  0  0  0  0  0  0  0  0
   29.4953  722.9537    9.1255 C   0  0  0  0  0  0  0  0  0  0  0  0
  1 20  1  0
 29  1  1  6
  1 42  1  6
  2  3  1  0
  2 22  2  0
  3  4  2  0
  3 15  1  0
  4 25  1  0
  5 21  1  0
  5 26  2  0
  5 27  1  0
  6 27  1  6
  8  7  1  6
  7  9  1  1
 28  8  1  6
  9 22  1  0
  9 23  1  1
 10 12  2  0
 10 35  1  0
 11 23  1  0
 11 30  1  0
 11 31  2  0
 12 34  1  0
 13 35  1  0
 14 15  2  0
 14 19  1  0
 14 20  1  0
 15 16  1  0
 16 17  2  0
 17 18  1  0
 18 19  2  0
 18 21  1  0
 22 24  1  0
 24 25  2  0
 28 29  1  0
 30 32  2  0
 32 33  1  0
 33 34  2  0
 33 36  1  0
 34 37  1  0
 35 36  2  0
 37 38  1  0
 37 41  1  0
 38 39  2  0
 39 40  1  0
 40 41  2  0
 42 43  2  0
 42 44  1  0
 46 44  1  6
 45 46  1  6
M  END
$$$$
