
     RDKit          3D

 46 50  0  0  0  0  0  0  0  0999 V2000
   66.7058   48.4537   41.0551 C   0  0  2  0  0  0  0  0  0  0  0  0
   65.6105   45.3865   41.6968 C   0  0  0  0  0  0  0  0  0  0  0  0
   66.0835   45.2447   40.3961 C   0  0  0  0  0  0  0  0  0  0  0  0
   67.1843   44.4112   40.1968 C   0  0  0  0  0  0  0  0  0  0  0  0
   63.9942   48.8057   35.2013 C   0  0  0  0  0  0  0  0  0  0  0  0
   63.9418   46.5799   34.4024 C   0  0  0  0  0  0  0  0  0  0  0  0
   67.0812   45.9007   44.7814 C   0  0  0  0  0  0  0  0  0  0  0  0
   67.5251   47.1352   43.9417 C   0  0  0  0  0  0  0  0  0  0  0  0
   65.9147   45.1208   44.1674 C   0  0  1  0  0  0  0  0  0  0  0  0
   60.5003   40.7827   49.3793 C   0  0  0  0  0  0  0  0  0  0  0  0
   64.2793   43.4359   44.7469 C   0  0  0  0  0  0  0  0  0  0  0  0
   61.8387   40.6082   49.7202 C   0  0  0  0  0  0  0  0  0  0  0  0
   58.5182   41.7491   47.8047 Cl  0  0  0  0  0  0  0  0  0  0  0  0
   65.0513   47.3722   39.4604 C   0  0  0  0  0  0  0  0  0  0  0  0
   65.4845   46.0399   39.2903 C   0  0  0  0  0  0  0  0  0  0  0  0
   65.2461   45.4060   38.0626 C   0  0  0  0  0  0  0  0  0  0  0  0
   64.5940   46.0631   37.0357 C   0  0  0  0  0  0  0  0  0  0  0  0
   64.1182   47.3583   37.2219 C   0  0  0  0  0  0  0  0  0  0  0  0
   64.3538   48.0013   38.4348 C   0  0  0  0  0  0  0  0  0  0  0  0
   65.3533   48.0791   40.6385 N   0  0  0  0  0  0  0  0  0  0  0  0
   63.4373   48.1114   36.2290 N   0  0  0  0  0  0  0  0  0  0  0  0
   66.2677   44.7552   42.7407 C   0  0  0  0  0  0  0  0  0  0  0  0
   65.4989   43.9669   44.9666 N   0  0  0  0  0  0  0  0  0  0  0  0
   67.3295   43.9538   42.5561 N   0  0  0  0  0  0  0  0  0  0  0  0
   67.7661   43.7945   41.2900 C   0  0  0  0  0  0  0  0  0  0  0  0
   64.2863   49.9779   35.2066 O   0  0  0  0  0  0  0  0  0  0  0  0
   64.1937   47.9887   34.1560 O   0  0  0  0  0  0  0  0  0  0  0  0
   66.4142   48.1578   43.6243 C   0  0  0  0  0  0  0  0  0  0  0  0
   66.7046   49.1046   42.4479 C   0  0  0  0  0  0  0  0  0  0  0  0
   63.5226   43.0093   45.9427 C   0  0  0  0  0  0  0  0  0  0  0  0
   63.8336   43.2836   43.6172 O   0  0  0  0  0  0  0  0  0  0  0  0
   63.5122   41.8420   46.5517 C   0  0  0  0  0  0  0  0  0  0  0  0
   62.5101   41.4638   47.5572 C   0  0  0  0  0  0  0  0  0  0  0  0
   62.8468   40.9806   48.8305 C   0  0  0  0  0  0  0  0  0  0  0  0
   60.1826   41.3590   48.1642 C   0  0  0  0  0  0  0  0  0  0  0  0
   61.1600   41.6847   47.2465 C   0  0  0  0  0  0  0  0  0  0  0  0
   64.2173   40.7425   49.1611 N   0  0  0  0  0  0  0  0  0  0  0  0
   65.0836   39.7713   48.8579 C   0  0  0  0  0  0  0  0  0  0  0  0
   66.2850   40.1131   49.2293 N   0  0  0  0  0  0  0  0  0  0  0  0
   66.1686   41.3702   49.7212 N   0  0  0  0  0  0  0  0  0  0  0  0
   64.9340   41.7683   49.6839 N   0  0  0  0  0  0  0  0  0  0  0  0
   67.4202   49.3713   40.0713 C   0  0  0  0  0  0  0  0  0  0  0  0
   67.1680   50.5372   39.9503 O   0  0  0  0  0  0  0  0  0  0  0  0
   68.3318   48.7221   39.3505 O   0  0  0  0  0  0  0  0  0  0  0  0
   69.5671   49.3508   37.3904 C   0  0  0  0  0  0  0  0  0  0  0  0
   68.2495   48.8333   37.8910 C   0  0  0  0  0  0  0  0  0  0  0  0
  1 20  1  0
 29  1  1  6
  1 42  1  6
  2  3  1  0
  2 22  2  0
  3  4  2  0
  3 15  1  0
  4 25  1  0
  5 21  1  0
  5 26  2  0
  5 27  1  0
  6 27  1  6
  8  7  1  6
  7  9  1  1
 28  8  1  6
  9 22  1  0
  9 23  1  1
 10 12  2  0
 10 35  1  0
 11 23  1  0
 11 30  1  0
 11 31  2  0
 12 34  1  0
 13 35  1  0
 14 15  2  0
 14 19  1  0
 14 20  1  0
 15 16  1  0
 16 17  2  0
 17 18  1  0
 18 19  2  0
 18 21  1  0
 22 24  1  0
 24 25  2  0
 28 29  1  0
 30 32  2  0
 32 33  1  0
 33 34  2  0
 33 36  1  0
 34 37  1  0
 35 36  2  0
 37 38  1  0
 37 41  1  0
 38 39  2  0
 39 40  1  0
 40 41  2  0
 42 43  2  0
 42 44  1  0
 46 44  1  6
 45 46  1  6
M  END
$$$$
