
     RDKit          3D

 46 50  0  0  0  0  0  0  0  0999 V2000
   62.9466   18.5853   14.2490 C   0  0  2  0  0  0  0  0  0  0  0  0
   59.6675   18.9396   14.6255 C   0  0  0  0  0  0  0  0  0  0  0  0
   60.0735   20.2622   14.4792 C   0  0  0  0  0  0  0  0  0  0  0  0
   59.6441   20.9473   13.3424 C   0  0  0  0  0  0  0  0  0  0  0  0
   64.5052   21.9403   19.0437 C   0  0  0  0  0  0  0  0  0  0  0  0
   65.5043   24.0667   19.3184 C   0  0  0  0  0  0  0  0  0  0  0  0
   59.4993   16.1970   12.5297 C   0  0  0  0  0  0  0  0  0  0  0  0
   61.0077   16.5853   12.5220 C   0  0  0  0  0  0  0  0  0  0  0  0
   58.7002   16.8384   13.6682 C   0  0  1  0  0  0  0  0  0  0  0  0
   53.3118   12.1991   13.2034 C   0  0  0  0  0  0  0  0  0  0  0  0
   56.4015   17.2835   14.2743 C   0  0  0  0  0  0  0  0  0  0  0  0
   53.1472   12.5840   14.5311 C   0  0  0  0  0  0  0  0  0  0  0  0
   53.6870   12.7175   10.5704 Cl  0  0  0  0  0  0  0  0  0  0  0  0
   62.0698   20.1460   16.0505 C   0  0  0  0  0  0  0  0  0  0  0  0
   61.0120   20.8706   15.4606 C   0  0  0  0  0  0  0  0  0  0  0  0
   60.7711   22.1824   15.8930 C   0  0  0  0  0  0  0  0  0  0  0  0
   61.5450   22.7604   16.8823 C   0  0  0  0  0  0  0  0  0  0  0  0
   62.5531   22.0274   17.5027 C   0  0  0  0  0  0  0  0  0  0  0  0
   62.8065   20.7251   17.0782 C   0  0  0  0  0  0  0  0  0  0  0  0
   62.4090   18.8638   15.5820 N   0  0  0  0  0  0  0  0  0  0  0  0
   63.3967   22.5338   18.5267 N   0  0  0  0  0  0  0  0  0  0  0  0
   58.9131   18.3373   13.6313 C   0  0  0  0  0  0  0  0  0  0  0  0
   57.2854   16.4623   13.6726 N   0  0  0  0  0  0  0  0  0  0  0  0
   58.4988   18.9904   12.5332 N   0  0  0  0  0  0  0  0  0  0  0  0
   58.8687   20.2815   12.4101 C   0  0  0  0  0  0  0  0  0  0  0  0
   64.9026   20.8275   18.7924 O   0  0  0  0  0  0  0  0  0  0  0  0
   65.1231   22.7845   19.8837 O   0  0  0  0  0  0  0  0  0  0  0  0
   61.7745   16.2997   13.8300 C   0  0  0  0  0  0  0  0  0  0  0  0
   63.0913   17.0741   14.0062 C   0  0  0  0  0  0  0  0  0  0  0  0
   55.2127   16.6433   14.8754 C   0  0  0  0  0  0  0  0  0  0  0  0
   56.5560   18.4975   14.2945 O   0  0  0  0  0  0  0  0  0  0  0  0
   54.0978   16.2452   14.2993 C   0  0  0  0  0  0  0  0  0  0  0  0
   53.8152   14.8420   13.9686 C   0  0  0  0  0  0  0  0  0  0  0  0
   53.3607   13.9089   14.9124 C   0  0  0  0  0  0  0  0  0  0  0  0
   53.6565   13.1506   12.2624 C   0  0  0  0  0  0  0  0  0  0  0  0
   53.9257   14.4545   12.6248 C   0  0  0  0  0  0  0  0  0  0  0  0
   53.2496   14.2849   16.2874 N   0  0  0  0  0  0  0  0  0  0  0  0
   54.1385   14.4632   17.2692 C   0  0  0  0  0  0  0  0  0  0  0  0
   53.5605   15.0124   18.2999 N   0  0  0  0  0  0  0  0  0  0  0  0
   52.2811   15.2428   17.9182 N   0  0  0  0  0  0  0  0  0  0  0  0
   52.0759   14.8172   16.7096 N   0  0  0  0  0  0  0  0  0  0  0  0
   64.2777   19.2701   13.9675 C   0  0  0  0  0  0  0  0  0  0  0  0
   65.1822   18.7441   13.3819 O   0  0  0  0  0  0  0  0  0  0  0  0
   64.3242   20.5024   14.4687 O   0  0  0  0  0  0  0  0  0  0  0  0
   62.8418   22.3340   14.9283 C   0  0  0  0  0  0  0  0  0  0  0  0
   63.4836   21.5248   13.8383 C   0  0  0  0  0  0  0  0  0  0  0  0
  1 20  1  0
 29  1  1  6
  1 42  1  1
  2  3  1  0
  2 22  2  0
  3  4  2  0
  3 15  1  0
  4 25  1  0
  5 21  1  0
  5 26  2  0
  5 27  1  0
  6 27  1  6
  8  7  1  6
  7  9  1  1
 28  8  1  6
  9 22  1  0
  9 23  1  6
 10 12  2  0
 10 35  1  0
 11 23  1  0
 11 30  1  0
 11 31  2  0
 12 34  1  0
 13 35  1  0
 14 15  2  0
 14 19  1  0
 14 20  1  0
 15 16  1  0
 16 17  2  0
 17 18  1  0
 18 19  2  0
 18 21  1  0
 22 24  1  0
 24 25  2  0
 28 29  1  0
 30 32  2  0
 32 33  1  0
 33 34  2  0
 33 36  1  0
 34 37  1  0
 35 36  2  0
 37 38  1  0
 37 41  1  0
 38 39  2  0
 39 40  1  0
 40 41  2  0
 42 43  2  0
 42 44  1  0
 46 44  1  6
 45 46  1  6
M  END
$$$$
