
     RDKit          3D

 46 50  0  0  0  0  0  0  0  0999 V2000
   64.3537   11.5201   32.0453 C   0  0  2  0  0  0  0  0  0  0  0  0
   66.5884   10.5883   29.7744 C   0  0  0  0  0  0  0  0  0  0  0  0
   67.2854   10.3625   30.9571 C   0  0  0  0  0  0  0  0  0  0  0  0
   67.6059    9.0427   31.2756 C   0  0  0  0  0  0  0  0  0  0  0  0
   68.2314   15.1055   35.4826 C   0  0  0  0  0  0  0  0  0  0  0  0
   66.3392   15.5529   36.8296 C   0  0  0  0  0  0  0  0  0  0  0  0
   63.8673    9.1191   28.2318 C   0  0  0  0  0  0  0  0  0  0  0  0
   63.3093    9.5975   29.6050 C   0  0  0  0  0  0  0  0  0  0  0  0
   65.2151    9.7441   27.8591 C   0  0  1  0  0  0  0  0  0  0  0  0
   65.7125    7.3522   31.6772 C   0  0  0  0  0  0  0  0  0  0  0  0
   65.0852    8.2965   25.9260 C   0  0  0  0  0  0  0  0  0  0  0  0
   64.5992    7.9898   31.1368 C   0  0  0  0  0  0  0  0  0  0  0  0
   67.6679    5.4767   31.6500 Cl  0  0  0  0  0  0  0  0  0  0  0  0
   66.6736   12.5521   32.0967 C   0  0  0  0  0  0  0  0  0  0  0  0
   67.5793   11.4915   31.8806 C   0  0  0  0  0  0  0  0  0  0  0  0
   68.8466   11.5564   32.4769 C   0  0  0  0  0  0  0  0  0  0  0  0
   69.2130   12.6374   33.2571 C   0  0  0  0  0  0  0  0  0  0  0  0
   68.3402   13.7090   33.4257 C   0  0  0  0  0  0  0  0  0  0  0  0
   67.0760   13.6542   32.8434 C   0  0  0  0  0  0  0  0  0  0  0  0
   65.3598   12.4853   31.5987 N   0  0  0  0  0  0  0  0  0  0  0  0
   68.6276   14.8605   34.2054 N   0  0  0  0  0  0  0  0  0  0  0  0
   66.1914    9.5144   28.9938 C   0  0  0  0  0  0  0  0  0  0  0  0
   65.7286    9.2950   26.5639 N   0  0  0  0  0  0  0  0  0  0  0  0
   66.4943    8.2413   29.2961 N   0  0  0  0  0  0  0  0  0  0  0  0
   67.1968    8.0291   30.4277 C   0  0  0  0  0  0  0  0  0  0  0  0
   68.9414   15.1223   36.4599 O   0  0  0  0  0  0  0  0  0  0  0  0
   66.9118   15.3458   35.5112 O   0  0  0  0  0  0  0  0  0  0  0  0
   63.1601   11.1246   29.7666 C   0  0  0  0  0  0  0  0  0  0  0  0
   63.0636   11.6291   31.2161 C   0  0  0  0  0  0  0  0  0  0  0  0
   64.2401    7.4187   26.7625 C   0  0  0  0  0  0  0  0  0  0  0  0
   65.2179    8.1046   24.7245 O   0  0  0  0  0  0  0  0  0  0  0  0
   64.5978    6.5116   27.6472 C   0  0  0  0  0  0  0  0  0  0  0  0
   64.9435    6.8319   29.0387 C   0  0  0  0  0  0  0  0  0  0  0  0
   64.1884    7.7069   29.8339 C   0  0  0  0  0  0  0  0  0  0  0  0
   66.3857    6.4122   30.9204 C   0  0  0  0  0  0  0  0  0  0  0  0
   66.0311    6.1560   29.6118 C   0  0  0  0  0  0  0  0  0  0  0  0
   63.0815    8.4097   29.2637 N   0  0  0  0  0  0  0  0  0  0  0  0
   62.9593    9.2677   28.2465 C   0  0  0  0  0  0  0  0  0  0  0  0
   61.6993    9.4724   27.9844 N   0  0  0  0  0  0  0  0  0  0  0  0
   61.0170    8.6604   28.8276 N   0  0  0  0  0  0  0  0  0  0  0  0
   61.8305    8.0094   29.6011 N   0  0  0  0  0  0  0  0  0  0  0  0
   64.0113   11.6293   33.5254 C   0  0  0  0  0  0  0  0  0  0  0  0
   63.8874   12.6737   34.1012 O   0  0  0  0  0  0  0  0  0  0  0  0
   63.8933   10.4356   34.1028 O   0  0  0  0  0  0  0  0  0  0  0  0
   64.8834    9.3566   36.0051 C   0  0  0  0  0  0  0  0  0  0  0  0
   65.1176    9.7906   34.5868 C   0  0  0  0  0  0  0  0  0  0  0  0
  1 20  1  0
 29  1  1  6
  1 42  1  1
  2  3  1  0
  2 22  2  0
  3  4  2  0
  3 15  1  0
  4 25  1  0
  5 21  1  0
  5 26  2  0
  5 27  1  0
  6 27  1  6
  8  7  1  6
  7  9  1  1
 28  8  1  6
  9 22  1  0
  9 23  1  6
 10 12  2  0
 10 35  1  0
 11 23  1  0
 11 30  1  0
 11 31  2  0
 12 34  1  0
 13 35  1  0
 14 15  2  0
 14 19  1  0
 14 20  1  0
 15 16  1  0
 16 17  2  0
 17 18  1  0
 18 19  2  0
 18 21  1  0
 22 24  1  0
 24 25  2  0
 28 29  1  0
 30 32  2  0
 32 33  1  0
 33 34  2  0
 33 36  1  0
 34 37  1  0
 35 36  2  0
 37 38  1  0
 37 41  1  0
 38 39  2  0
 39 40  1  0
 40 41  2  0
 42 43  2  0
 42 44  1  0
 46 44  1  6
 45 46  1  6
M  END
$$$$
