
     RDKit          3D

 46 50  0  0  0  0  0  0  0  0999 V2000
   91.7833  100.1511  -47.9976 C   0  0  2  0  0  0  0  0  0  0  0  0
   91.8356   96.9781  -48.9717 C   0  0  0  0  0  0  0  0  0  0  0  0
   92.9207   97.0183  -48.1019 C   0  0  0  0  0  0  0  0  0  0  0  0
   92.8345   96.2708  -46.9272 C   0  0  0  0  0  0  0  0  0  0  0  0
   97.8723  100.4388  -50.7973 C   0  0  0  0  0  0  0  0  0  0  0  0
   96.4352  102.2006  -51.4496 C   0  0  0  0  0  0  0  0  0  0  0  0
   88.4064   97.1884  -48.5997 C   0  0  0  0  0  0  0  0  0  0  0  0
   88.9315   98.5358  -48.0213 C   0  0  0  0  0  0  0  0  0  0  0  0
   89.4382   96.4312  -49.4412 C   0  0  1  0  0  0  0  0  0  0  0  0
   84.3425   94.0055  -51.6837 C   0  0  0  0  0  0  0  0  0  0  0  0
   89.8184   94.2867  -50.4929 C   0  0  0  0  0  0  0  0  0  0  0  0
   85.4698   94.3284  -52.4341 C   0  0  0  0  0  0  0  0  0  0  0  0
   83.0308   92.5703  -49.7966 Cl  0  0  0  0  0  0  0  0  0  0  0  0
   93.9256   99.1892  -48.9648 C   0  0  0  0  0  0  0  0  0  0  0  0
   94.0768   97.9104  -48.3873 C   0  0  0  0  0  0  0  0  0  0  0  0
   95.3718   97.4185  -48.1705 C   0  0  0  0  0  0  0  0  0  0  0  0
   96.4844   98.1616  -48.5190 C   0  0  0  0  0  0  0  0  0  0  0  0
   96.3354   99.3996  -49.1388 C   0  0  0  0  0  0  0  0  0  0  0  0
   95.0544   99.9022  -49.3543 C   0  0  0  0  0  0  0  0  0  0  0  0
   92.6496   99.7627  -49.1120 N   0  0  0  0  0  0  0  0  0  0  0  0
   97.4158  100.2323  -49.5335 N   0  0  0  0  0  0  0  0  0  0  0  0
   90.7028   96.2588  -48.6259 C   0  0  0  0  0  0  0  0  0  0  0  0
   88.9341   95.1700  -49.9872 N   0  0  0  0  0  0  0  0  0  0  0  0
   90.6122   95.5395  -47.4954 N   0  0  0  0  0  0  0  0  0  0  0  0
   91.6783   95.5562  -46.6694 C   0  0  0  0  0  0  0  0  0  0  0  0
   98.2993   99.5951  -51.5492 O   0  0  0  0  0  0  0  0  0  0  0  0
   97.7699  101.7391  -51.1111 O   0  0  0  0  0  0  0  0  0  0  0  0
   89.4887   99.5326  -49.0588 C   0  0  0  0  0  0  0  0  0  0  0  0
   90.4087  100.6280  -48.4943 C   0  0  0  0  0  0  0  0  0  0  0  0
   89.2935   92.9443  -50.8196 C   0  0  0  0  0  0  0  0  0  0  0  0
   91.0000   94.5681  -50.6435 O   0  0  0  0  0  0  0  0  0  0  0  0
   88.1256   92.4109  -50.5283 C   0  0  0  0  0  0  0  0  0  0  0  0
   86.8445   92.9828  -50.9641 C   0  0  0  0  0  0  0  0  0  0  0  0
   86.7143   93.7920  -52.1027 C   0  0  0  0  0  0  0  0  0  0  0  0
   84.4645   93.1224  -50.6279 C   0  0  0  0  0  0  0  0  0  0  0  0
   85.6931   92.6223  -50.2482 C   0  0  0  0  0  0  0  0  0  0  0  0
   87.8783   94.1752  -52.8394 N   0  0  0  0  0  0  0  0  0  0  0  0
   88.9666   94.8894  -52.5377 C   0  0  0  0  0  0  0  0  0  0  0  0
   89.8487   94.7825  -53.4909 N   0  0  0  0  0  0  0  0  0  0  0  0
   89.3130   93.9172  -54.3853 N   0  0  0  0  0  0  0  0  0  0  0  0
   88.1309   93.5368  -54.0089 N   0  0  0  0  0  0  0  0  0  0  0  0
   92.3878  101.2153  -47.0909 C   0  0  0  0  0  0  0  0  0  0  0  0
   92.1546  101.2958  -45.9175 O   0  0  0  0  0  0  0  0  0  0  0  0
   93.1783  102.0531  -47.7580 O   0  0  0  0  0  0  0  0  0  0  0  0
   91.7538  103.9776  -47.9331 C   0  0  0  0  0  0  0  0  0  0  0  0
   93.0810  103.4803  -47.4372 C   0  0  0  0  0  0  0  0  0  0  0  0
  1 20  1  0
 29  1  1  6
  1 42  1  6
  2  3  1  0
  2 22  2  0
  3  4  2  0
  3 15  1  0
  4 25  1  0
  5 21  1  0
  5 26  2  0
  5 27  1  0
  6 27  1  6
  8  7  1  6
  7  9  1  1
 28  8  1  6
  9 22  1  0
  9 23  1  1
 10 12  2  0
 10 35  1  0
 11 23  1  0
 11 30  1  0
 11 31  2  0
 12 34  1  0
 13 35  1  0
 14 15  2  0
 14 19  1  0
 14 20  1  0
 15 16  1  0
 16 17  2  0
 17 18  1  0
 18 19  2  0
 18 21  1  0
 22 24  1  0
 24 25  2  0
 28 29  1  0
 30 32  2  0
 32 33  1  0
 33 34  2  0
 33 36  1  0
 34 37  1  0
 35 36  2  0
 37 38  1  0
 37 41  1  0
 38 39  2  0
 39 40  1  0
 40 41  2  0
 42 43  2  0
 42 44  1  0
 46 44  1  6
 45 46  1  6
M  END
$$$$
