
     RDKit          3D

 46 50  0  0  0  0  0  0  0  0999 V2000
  102.9909    9.9165  -44.8179 C   0  0  2  0  0  0  0  0  0  0  0  0
  105.4083    9.0893  -42.6988 C   0  0  0  0  0  0  0  0  0  0  0  0
  105.4723    8.0429  -43.6133 C   0  0  0  0  0  0  0  0  0  0  0  0
  106.6246    7.9361  -44.3925 C   0  0  0  0  0  0  0  0  0  0  0  0
  100.6025    3.6009  -43.0249 C   0  0  0  0  0  0  0  0  0  0  0  0
  101.8969    1.6921  -42.4994 C   0  0  0  0  0  0  0  0  0  0  0  0
  106.1518   12.4626  -42.8006 C   0  0  0  0  0  0  0  0  0  0  0  0
  105.0662   12.2825  -43.9028 C   0  0  0  0  0  0  0  0  0  0  0  0
  106.2533   11.2806  -41.8318 C   0  0  1  0  0  0  0  0  0  0  0  0
  101.4087   14.7757  -37.9560 C   0  0  0  0  0  0  0  0  0  0  0  0
  106.9474   12.1628  -39.6897 C   0  0  0  0  0  0  0  0  0  0  0  0
  101.9817   14.3298  -36.7681 C   0  0  0  0  0  0  0  0  0  0  0  0
  101.4377   15.2271  -40.6274 Cl  0  0  0  0  0  0  0  0  0  0  0  0
  102.9708    7.6085  -43.7583 C   0  0  0  0  0  0  0  0  0  0  0  0
  104.3025    7.1438  -43.8059 C   0  0  0  0  0  0  0  0  0  0  0  0
  104.5307    5.7664  -43.9350 C   0  0  0  0  0  0  0  0  0  0  0  0
  103.4780    4.8731  -44.0077 C   0  0  0  0  0  0  0  0  0  0  0  0
  102.1652    5.3258  -43.9058 C   0  0  0  0  0  0  0  0  0  0  0  0
  101.9248    6.6923  -43.7833 C   0  0  0  0  0  0  0  0  0  0  0  0
  102.6936    8.9873  -43.7264 N   0  0  0  0  0  0  0  0  0  0  0  0
  101.0218    4.4859  -43.9679 N   0  0  0  0  0  0  0  0  0  0  0  0
  106.4434   10.0082  -42.6308 C   0  0  0  0  0  0  0  0  0  0  0  0
  107.2705   11.4614  -40.7948 N   0  0  0  0  0  0  0  0  0  0  0  0
  107.5540    9.9127  -43.3799 N   0  0  0  0  0  0  0  0  0  0  0  0
  107.6257    8.8792  -44.2434 C   0  0  0  0  0  0  0  0  0  0  0  0
   99.4597    3.2728  -42.8112 O   0  0  0  0  0  0  0  0  0  0  0  0
  101.6587    3.1172  -42.3537 O   0  0  0  0  0  0  0  0  0  0  0  0
  103.6398   11.9937  -43.3904 C   0  0  0  0  0  0  0  0  0  0  0  0
  102.6824   11.3689  -44.4189 C   0  0  0  0  0  0  0  0  0  0  0  0
  105.5301   12.1177  -39.2731 C   0  0  0  0  0  0  0  0  0  0  0  0
  107.7745   12.8287  -39.0809 O   0  0  0  0  0  0  0  0  0  0  0  0
  104.9863   12.4600  -38.1239 C   0  0  0  0  0  0  0  0  0  0  0  0
  103.7551   13.2543  -38.0169 C   0  0  0  0  0  0  0  0  0  0  0  0
  103.1719   13.6023  -36.7894 C   0  0  0  0  0  0  0  0  0  0  0  0
  102.0494   14.5180  -39.1529 C   0  0  0  0  0  0  0  0  0  0  0  0
  103.1975   13.7545  -39.2031 C   0  0  0  0  0  0  0  0  0  0  0  0
  103.7228   13.0950  -35.5714 N   0  0  0  0  0  0  0  0  0  0  0  0
  103.3408   13.1530  -34.2921 C   0  0  0  0  0  0  0  0  0  0  0  0
  104.0727   12.3513  -33.5712 N   0  0  0  0  0  0  0  0  0  0  0  0
  104.8948   11.7247  -34.4472 N   0  0  0  0  0  0  0  0  0  0  0  0
  104.6961   12.1544  -35.6555 N   0  0  0  0  0  0  0  0  0  0  0  0
  102.2697    9.5880  -46.1186 C   0  0  0  0  0  0  0  0  0  0  0  0
  101.0944    9.3599  -46.1849 O   0  0  0  0  0  0  0  0  0  0  0  0
  103.0994    9.5593  -47.1593 O   0  0  0  0  0  0  0  0  0  0  0  0
  102.4043    8.9030  -49.3614 C   0  0  0  0  0  0  0  0  0  0  0  0
  103.0039    8.4171  -48.0734 C   0  0  0  0  0  0  0  0  0  0  0  0
  1 20  1  0
 29  1  1  6
  1 42  1  6
  2  3  1  0
  2 22  2  0
  3  4  2  0
  3 15  1  0
  4 25  1  0
  5 21  1  0
  5 26  2  0
  5 27  1  0
  6 27  1  6
  8  7  1  6
  7  9  1  1
 28  8  1  6
  9 22  1  0
  9 23  1  1
 10 12  2  0
 10 35  1  0
 11 23  1  0
 11 30  1  0
 11 31  2  0
 12 34  1  0
 13 35  1  0
 14 15  2  0
 14 19  1  0
 14 20  1  0
 15 16  1  0
 16 17  2  0
 17 18  1  0
 18 19  2  0
 18 21  1  0
 22 24  1  0
 24 25  2  0
 28 29  1  0
 30 32  2  0
 32 33  1  0
 33 34  2  0
 33 36  1  0
 34 37  1  0
 35 36  2  0
 37 38  1  0
 37 41  1  0
 38 39  2  0
 39 40  1  0
 40 41  2  0
 42 43  2  0
 42 44  1  0
 46 44  1  6
 45 46  1  6
M  END
$$$$
