
     RDKit          3D

 46 50  0  0  0  0  0  0  0  0999 V2000
   -2.9760   70.8151   10.3174 C   0  0  2  0  0  0  0  0  0  0  0  0
   -2.1921   71.8666    7.2680 C   0  0  0  0  0  0  0  0  0  0  0  0
   -1.6084   72.8514    8.0586 C   0  0  0  0  0  0  0  0  0  0  0  0
   -0.2167   72.9468    8.0483 C   0  0  0  0  0  0  0  0  0  0  0  0
   -4.7052   77.1685   12.0651 C   0  0  0  0  0  0  0  0  0  0  0  0
   -3.1217   75.5930   12.8432 C   0  0  0  0  0  0  0  0  0  0  0  0
   -1.5537   68.5224    6.6754 C   0  0  0  0  0  0  0  0  0  0  0  0
   -1.8149   68.5902    8.2094 C   0  0  0  0  0  0  0  0  0  0  0  0
   -2.0124   69.7693    5.9130 C   0  0  1  0  0  0  0  0  0  0  0  0
   -3.8558   75.5657    0.2989 C   0  0  0  0  0  0  0  0  0  0  0  0
   -1.2311   70.7630    3.8512 C   0  0  0  0  0  0  0  0  0  0  0  0
   -3.8299   74.1882    0.0988 C   0  0  0  0  0  0  0  0  0  0  0  0
   -3.5559   77.7883    1.8194 Cl  0  0  0  0  0  0  0  0  0  0  0  0
   -3.5763   73.1864    9.6342 C   0  0  0  0  0  0  0  0  0  0  0  0
   -2.4512   73.6938    8.9497 C   0  0  0  0  0  0  0  0  0  0  0  0
   -2.1778   75.0667    9.0286 C   0  0  0  0  0  0  0  0  0  0  0  0
   -2.9929   75.9154    9.7545 C   0  0  0  0  0  0  0  0  0  0  0  0
   -4.1332   75.4244   10.3846 C   0  0  0  0  0  0  0  0  0  0  0  0
   -4.4128   74.0614   10.3189 C   0  0  0  0  0  0  0  0  0  0  0  0
   -3.8345   71.8039    9.6627 N   0  0  0  0  0  0  0  0  0  0  0  0
   -5.0293   76.2172   11.1495 N   0  0  0  0  0  0  0  0  0  0  0  0
   -1.3890   70.9915    6.5541 C   0  0  0  0  0  0  0  0  0  0  0  0
   -1.7701   69.6941    4.4713 N   0  0  0  0  0  0  0  0  0  0  0  0
   -0.0487   71.0761    6.5421 N   0  0  0  0  0  0  0  0  0  0  0  0
    0.5120   72.0517    7.2856 C   0  0  0  0  0  0  0  0  0  0  0  0
   -5.4199   78.0639   12.4484 O   0  0  0  0  0  0  0  0  0  0  0  0
   -3.4551   76.9661   12.5080 O   0  0  0  0  0  0  0  0  0  0  0  0
   -3.2761   68.8619    8.6237 C   0  0  0  0  0  0  0  0  0  0  0  0
   -3.4700   69.3826   10.0576 C   0  0  0  0  0  0  0  0  0  0  0  0
   -2.1805   71.7674    3.3274 C   0  0  0  0  0  0  0  0  0  0  0  0
   -0.0224   70.8819    3.6995 O   0  0  0  0  0  0  0  0  0  0  0  0
   -2.0573   73.0764    3.2585 C   0  0  0  0  0  0  0  0  0  0  0  0
   -2.6873   73.8936    2.2127 C   0  0  0  0  0  0  0  0  0  0  0  0
   -3.2820   73.3457    1.0664 C   0  0  0  0  0  0  0  0  0  0  0  0
   -3.3629   76.0856    1.4806 C   0  0  0  0  0  0  0  0  0  0  0  0
   -2.7673   75.2777    2.4274 C   0  0  0  0  0  0  0  0  0  0  0  0
   -3.2030   71.9381    0.8282 N   0  0  0  0  0  0  0  0  0  0  0  0
   -3.5480   70.8616    1.5409 C   0  0  0  0  0  0  0  0  0  0  0  0
   -3.4685   69.7922    0.8006 N   0  0  0  0  0  0  0  0  0  0  0  0
   -3.1249   70.2308   -0.4344 N   0  0  0  0  0  0  0  0  0  0  0  0
   -2.9659   71.5187   -0.4395 N   0  0  0  0  0  0  0  0  0  0  0  0
   -2.8233   71.0305   11.8175 C   0  0  0  0  0  0  0  0  0  0  0  0
   -3.5887   70.5938   12.6306 O   0  0  0  0  0  0  0  0  0  0  0  0
   -1.7616   71.7776   12.1119 O   0  0  0  0  0  0  0  0  0  0  0  0
   -0.1094   70.0638   12.4218 C   0  0  0  0  0  0  0  0  0  0  0  0
   -0.7923   71.2345   13.0682 C   0  0  0  0  0  0  0  0  0  0  0  0
  1 20  1  0
 29  1  1  6
  1 42  1  1
  2  3  1  0
  2 22  2  0
  3  4  2  0
  3 15  1  0
  4 25  1  0
  5 21  1  0
  5 26  2  0
  5 27  1  0
  6 27  1  6
  8  7  1  6
  7  9  1  1
 28  8  1  6
  9 22  1  0
  9 23  1  6
 10 12  2  0
 10 35  1  0
 11 23  1  0
 11 30  1  0
 11 31  2  0
 12 34  1  0
 13 35  1  0
 14 15  2  0
 14 19  1  0
 14 20  1  0
 15 16  1  0
 16 17  2  0
 17 18  1  0
 18 19  2  0
 18 21  1  0
 22 24  1  0
 24 25  2  0
 28 29  1  0
 30 32  2  0
 32 33  1  0
 33 34  2  0
 33 36  1  0
 34 37  1  0
 35 36  2  0
 37 38  1  0
 37 41  1  0
 38 39  2  0
 39 40  1  0
 40 41  2  0
 42 43  2  0
 42 44  1  0
 46 44  1  6
 45 46  1  6
M  END
$$$$
