
     RDKit          3D

 46 50  0  0  0  0  0  0  0  0999 V2000
   -7.0651    7.4983   16.5554 C   0  0  2  0  0  0  0  0  0  0  0  0
   -5.9999    5.4831   18.9685 C   0  0  0  0  0  0  0  0  0  0  0  0
   -6.5500    4.5733   18.0713 C   0  0  0  0  0  0  0  0  0  0  0  0
   -5.6821    3.6773   17.4466 C   0  0  0  0  0  0  0  0  0  0  0  0
  -13.1517    3.9778   17.7115 C   0  0  0  0  0  0  0  0  0  0  0  0
  -12.1997    1.9504   16.9510 C   0  0  0  0  0  0  0  0  0  0  0  0
   -3.2221    7.5388   18.9581 C   0  0  0  0  0  0  0  0  0  0  0  0
   -4.0476    8.0144   17.7259 C   0  0  0  0  0  0  0  0  0  0  0  0
   -4.0139    6.6627   19.9336 C   0  0  1  0  0  0  0  0  0  0  0  0
    0.1420    2.6426   26.5015 C   0  0  0  0  0  0  0  0  0  0  0  0
   -2.4866    5.1089   20.9836 C   0  0  0  0  0  0  0  0  0  0  0  0
   -0.8149    3.6484   26.3974 C   0  0  0  0  0  0  0  0  0  0  0  0
    1.5207    0.5162   25.5425 Cl  0  0  0  0  0  0  0  0  0  0  0  0
   -8.6947    5.8586   17.6070 C   0  0  0  0  0  0  0  0  0  0  0  0
   -7.9972    4.6381   17.7314 C   0  0  0  0  0  0  0  0  0  0  0  0
   -8.7167    3.4386   17.6346 C   0  0  0  0  0  0  0  0  0  0  0  0
  -10.0838    3.4419   17.4286 C   0  0  0  0  0  0  0  0  0  0  0  0
  -10.7803    4.6456   17.3606 C   0  0  0  0  0  0  0  0  0  0  0  0
  -10.0764    5.8443   17.4492 C   0  0  0  0  0  0  0  0  0  0  0  0
   -8.0017    7.0827   17.6010 N   0  0  0  0  0  0  0  0  0  0  0  0
  -12.1813    4.7492   17.1534 N   0  0  0  0  0  0  0  0  0  0  0  0
   -4.6287    5.5101   19.1675 C   0  0  0  0  0  0  0  0  0  0  0  0
   -3.2329    6.2265   21.0924 N   0  0  0  0  0  0  0  0  0  0  0  0
   -3.7874    4.6524   18.5673 N   0  0  0  0  0  0  0  0  0  0  0  0
   -4.3283    3.7517   17.7216 C   0  0  0  0  0  0  0  0  0  0  0  0
  -14.3071    4.2907   17.8749 O   0  0  0  0  0  0  0  0  0  0  0  0
  -12.6433    2.7844   18.0540 O   0  0  0  0  0  0  0  0  0  0  0  0
   -5.3546    8.7669   18.0515 C   0  0  0  0  0  0  0  0  0  0  0  0
   -6.3825    8.8296   16.9094 C   0  0  0  0  0  0  0  0  0  0  0  0
   -1.7496    4.6897   22.1942 C   0  0  0  0  0  0  0  0  0  0  0  0
   -2.3962    4.4911   19.9309 O   0  0  0  0  0  0  0  0  0  0  0  0
   -1.5735    3.4821   22.6880 C   0  0  0  0  0  0  0  0  0  0  0  0
   -1.0109    3.2281   24.0212 C   0  0  0  0  0  0  0  0  0  0  0  0
   -1.4208    3.9203   25.1705 C   0  0  0  0  0  0  0  0  0  0  0  0
    0.4603    1.8953   25.3836 C   0  0  0  0  0  0  0  0  0  0  0  0
   -0.0853    2.1817   24.1490 C   0  0  0  0  0  0  0  0  0  0  0  0
   -2.3575    4.9946   25.0571 N   0  0  0  0  0  0  0  0  0  0  0  0
   -2.5793    5.9304   24.1294 C   0  0  0  0  0  0  0  0  0  0  0  0
   -3.6910    6.5595   24.3872 N   0  0  0  0  0  0  0  0  0  0  0  0
   -4.2101    5.9464   25.4782 N   0  0  0  0  0  0  0  0  0  0  0  0
   -3.4256    4.9994   25.8928 N   0  0  0  0  0  0  0  0  0  0  0  0
   -7.6958    7.6081   15.1733 C   0  0  0  0  0  0  0  0  0  0  0  0
   -7.8051    6.6819   14.4198 O   0  0  0  0  0  0  0  0  0  0  0  0
   -8.0835    8.8510   14.8956 O   0  0  0  0  0  0  0  0  0  0  0  0
   -6.4011    8.8457   13.1831 C   0  0  0  0  0  0  0  0  0  0  0  0
   -7.7447    9.3897   13.5749 C   0  0  0  0  0  0  0  0  0  0  0  0
  1 20  1  0
 29  1  1  6
  1 42  1  6
  2  3  1  0
  2 22  2  0
  3  4  2  0
  3 15  1  0
  4 25  1  0
  5 21  1  0
  5 26  2  0
  5 27  1  0
  6 27  1  6
  8  7  1  6
  7  9  1  1
 28  8  1  6
  9 22  1  0
  9 23  1  1
 10 12  2  0
 10 35  1  0
 11 23  1  0
 11 30  1  0
 11 31  2  0
 12 34  1  0
 13 35  1  0
 14 15  2  0
 14 19  1  0
 14 20  1  0
 15 16  1  0
 16 17  2  0
 17 18  1  0
 18 19  2  0
 18 21  1  0
 22 24  1  0
 24 25  2  0
 28 29  1  0
 30 32  2  0
 32 33  1  0
 33 34  2  0
 33 36  1  0
 34 37  1  0
 35 36  2  0
 37 38  1  0
 37 41  1  0
 38 39  2  0
 39 40  1  0
 40 41  2  0
 42 43  2  0
 42 44  1  0
 46 44  1  6
 45 46  1  6
M  END
$$$$
