
     RDKit          3D

 46 50  0  0  0  0  0  0  0  0999 V2000
 9150.3672-7846.6353 7036.8706 C   0  0  2  0  0  0  0  0  0  0  0  0
 9149.8701-7845.5703 7033.7651 C   0  0  0  0  0  0  0  0  0  0  0  0
 9149.0781-7846.7139 7033.7954 C   0  0  0  0  0  0  0  0  0  0  0  0
 9147.6992-7846.5464 7033.6792 C   0  0  0  0  0  0  0  0  0  0  0  0
 9151.4590-7852.6860 7035.3950 C   0  0  0  0  0  0  0  0  0  0  0  0
 9149.2852-7852.4287 7034.4995 C   0  0  0  0  0  0  0  0  0  0  0  0
 9149.7070-7842.4536 7035.2500 C   0  0  0  0  0  0  0  0  0  0  0  0
 9149.7529-7843.4424 7036.4531 C   0  0  0  0  0  0  0  0  0  0  0  0
 9150.1123-7843.0820 7033.9150 C   0  0  1  0  0  0  0  0  0  0  0  0
 9145.8545-7842.4648 7032.3262 C   0  0  0  0  0  0  0  0  0  0  0  0
 9150.8193-7841.0244 7032.8569 C   0  0  0  0  0  0  0  0  0  0  0  0
 9145.6426-7841.2124 7031.7588 C   0  0  0  0  0  0  0  0  0  0  0  0
 9147.4053-7844.3428 7033.5171 Cl  0  0  0  0  0  0  0  0  0  0  0  0
 9150.7715-7848.2295 7034.9365 C   0  0  0  0  0  0  0  0  0  0  0  0
 9149.6953-7848.0449 7034.0430 C   0  0  0  0  0  0  0  0  0  0  0  0
 9149.2578-7849.1372 7033.2817 C   0  0  0  0  0  0  0  0  0  0  0  0
 9149.8682-7850.3740 7033.3926 C   0  0  0  0  0  0  0  0  0  0  0  0
 9150.9658-7850.5415 7034.2329 C   0  0  0  0  0  0  0  0  0  0  0  0
 9151.4062-7849.4663 7034.9990 C   0  0  0  0  0  0  0  0  0  0  0  0
 9151.1836-7847.1880 7035.7891 N   0  0  0  0  0  0  0  0  0  0  0  0
 9151.6562-7851.7695 7034.4102 N   0  0  0  0  0  0  0  0  0  0  0  0
 9149.2744-7844.3223 7033.6816 C   0  0  0  0  0  0  0  0  0  0  0  0
 9150.0703-7842.1450 7032.7905 N   0  0  0  0  0  0  0  0  0  0  0  0
 9147.9463-7844.1543 7033.5723 N   0  0  0  0  0  0  0  0  0  0  0  0
 9147.1865-7845.2666 7033.5703 C   0  0  0  0  0  0  0  0  0  0  0  0
 9152.2559-7853.0020 7036.2466 O   0  0  0  0  0  0  0  0  0  0  0  0
 9150.2207-7853.1978 7035.3013 O   0  0  0  0  0  0  0  0  0  0  0  0
 9151.1074-7844.1475 7036.6797 C   0  0  0  0  0  0  0  0  0  0  0  0
 9151.0547-7845.4263 7037.5303 C   0  0  0  0  0  0  0  0  0  0  0  0
 9150.0889-7839.7578 7033.0742 C   0  0  0  0  0  0  0  0  0  0  0  0
 9152.0332-7841.0483 7032.7144 O   0  0  0  0  0  0  0  0  0  0  0  0
 9148.8398-7839.4546 7032.7847 C   0  0  0  0  0  0  0  0  0  0  0  0
 9147.7832-7840.4585 7032.5996 C   0  0  0  0  0  0  0  0  0  0  0  0
 9146.6152-7840.2188 7031.8599 C   0  0  0  0  0  0  0  0  0  0  0  0
 9147.0537-7842.7246 7032.9604 C   0  0  0  0  0  0  0  0  0  0  0  0
 9148.0059-7841.7417 7033.1226 C   0  0  0  0  0  0  0  0  0  0  0  0
 9146.3691-7838.9150 7031.3291 N   0  0  0  0  0  0  0  0  0  0  0  0
 9146.1562-7838.4497 7030.0938 C   0  0  0  0  0  0  0  0  0  0  0  0
 9145.7715-7837.2051 7030.1475 N   0  0  0  0  0  0  0  0  0  0  0  0
 9145.6729-7836.9121 7031.4673 N   0  0  0  0  0  0  0  0  0  0  0  0
 9146.0283-7837.9297 7032.1938 N   0  0  0  0  0  0  0  0  0  0  0  0
 9149.9961-7847.6509 7037.9438 C   0  0  0  0  0  0  0  0  0  0  0  0
 9150.7695-7848.0664 7038.7588 O   0  0  0  0  0  0  0  0  0  0  0  0
 9148.7256-7848.0371 7037.8501 O   0  0  0  0  0  0  0  0  0  0  0  0
 9146.9346-7849.6104 7038.1353 C   0  0  0  0  0  0  0  0  0  0  0  0
 9148.4277-7849.4531 7038.0845 C   0  0  0  0  0  0  0  0  0  0  0  0
  1 20  1  0
 29  1  1  6
  1 42  1  1
  2  3  1  0
  2 22  2  0
  3  4  2  0
  3 15  1  0
  4 25  1  0
  5 21  1  0
  5 26  2  0
  5 27  1  0
  6 27  1  6
  8  7  1  6
  7  9  1  1
 28  8  1  6
  9 22  1  0
  9 23  1  6
 10 12  2  0
 10 35  1  0
 11 23  1  0
 11 30  1  0
 11 31  2  0
 12 34  1  0
 13 35  1  0
 14 15  2  0
 14 19  1  0
 14 20  1  0
 15 16  1  0
 16 17  2  0
 17 18  1  0
 18 19  2  0
 18 21  1  0
 22 24  1  0
 24 25  2  0
 28 29  1  0
 30 32  2  0
 32 33  1  0
 33 34  2  0
 33 36  1  0
 34 37  1  0
 35 36  2  0
 37 38  1  0
 37 41  1  0
 38 39  2  0
 39 40  1  0
 40 41  2  0
 42 43  2  0
 42 44  1  0
 46 44  1  6
 45 46  1  6
M  END
$$$$
