
     RDKit          3D

 46 50  0  0  0  0  0  0  0  0999 V2000
-111774.4688162829.7188-467891.5312 C   0  0  2  0  0  0  0  0  0  0  0  0
-111774.0469162826.5781-467890.5312 C   0  0  0  0  0  0  0  0  0  0  0  0
-111774.2500162827.2812-467889.2812 C   0  0  0  0  0  0  0  0  0  0  0  0
-111775.3984162826.9844-467888.5312 C   0  0  0  0  0  0  0  0  0  0  0  0
-111770.5312162832.3594-467887.1875 C   0  0  0  0  0  0  0  0  0  0  0  0
-111772.7422162832.8594-467886.6250 C   0  0  0  0  0  0  0  0  0  0  0  0
-111776.0781162825.8125-467893.2188 C   0  0  0  0  0  0  0  0  0  0  0  0
-111776.1328162827.3594-467893.1562 C   0  0  0  0  0  0  0  0  0  0  0  0
-111774.9453162825.2031-467892.3750 C   0  0  1  0  0  0  0  0  0  0  0  0
-111779.0547162821.7656-467892.1562 C   0  0  0  0  0  0  0  0  0  0  0  0
-111774.1250162823.1562-467893.3750 C   0  0  0  0  0  0  0  0  0  0  0  0
-111778.0547162821.7344-467891.2188 C   0  0  0  0  0  0  0  0  0  0  0  0
-111779.9141162821.5312-467894.7188 Cl  0  0  0  0  0  0  0  0  0  0  0  0
-111772.7109162829.2500-467889.8438 C   0  0  0  0  0  0  0  0  0  0  0  0
-111773.2969162828.3594-467888.9062 C   0  0  0  0  0  0  0  0  0  0  0  0
-111772.8906162828.4219-467887.5938 C   0  0  0  0  0  0  0  0  0  0  0  0
-111771.9375162829.3594-467887.1562 C   0  0  0  0  0  0  0  0  0  0  0  0
-111771.3203162830.1875-467888.0000 C   0  0  0  0  0  0  0  0  0  0  0  0
-111771.7188162830.1250-467889.4375 C   0  0  0  0  0  0  0  0  0  0  0  0
-111773.1641162829.2969-467891.1250 N   0  0  0  0  0  0  0  0  0  0  0  0
-111770.3281162831.1250-467887.6875 N   0  0  0  0  0  0  0  0  0  0  0  0
-111775.0078162825.7188-467890.9375 C   0  0  0  0  0  0  0  0  0  0  0  0
-111774.9062162823.7344-467892.4375 N   0  0  0  0  0  0  0  0  0  0  0  0
-111776.1328162825.4375-467890.2500 N   0  0  0  0  0  0  0  0  0  0  0  0
-111776.3047162826.0781-467889.1250 C   0  0  0  0  0  0  0  0  0  0  0  0
-111769.7656162833.0156-467886.4688 O   0  0  0  0  0  0  0  0  0  0  0  0
-111771.6875162832.8594-467887.6562 O   0  0  0  0  0  0  0  0  0  0  0  0
-111774.8125162828.0781-467893.5312 C   0  0  0  0  0  0  0  0  0  0  0  0
-111774.7031162829.5156-467893.0625 C   0  0  0  0  0  0  0  0  0  0  0  0
-111774.0469162821.6719-467893.3750 C   0  0  0  0  0  0  0  0  0  0  0  0
-111773.4766162823.8125-467894.1562 O   0  0  0  0  0  0  0  0  0  0  0  0
-111775.0312162820.7812-467893.3125 C   0  0  0  0  0  0  0  0  0  0  0  0
-111776.4141162821.1562-467892.8750 C   0  0  0  0  0  0  0  0  0  0  0  0
-111776.7344162821.4844-467891.6250 C   0  0  0  0  0  0  0  0  0  0  0  0
-111778.7031162821.3750-467893.5312 C   0  0  0  0  0  0  0  0  0  0  0  0
-111777.4062162821.1719-467893.9062 C   0  0  0  0  0  0  0  0  0  0  0  0
-111775.7266162821.5156-467890.6250 N   0  0  0  0  0  0  0  0  0  0  0  0
-111775.7422162821.2188-467889.2812 C   0  0  0  0  0  0  0  0  0  0  0  0
-111774.5078162821.0938-467888.8438 N   0  0  0  0  0  0  0  0  0  0  0  0
-111773.7344162821.2812-467889.9062 N   0  0  0  0  0  0  0  0  0  0  0  0
-111774.4531162821.4844-467891.0312 N   0  0  0  0  0  0  0  0  0  0  0  0
-111774.8047162831.1719-467891.1875 C   0  0  0  0  0  0  0  0  0  0  0  0
-111774.0234162832.0625-467891.2188 O   0  0  0  0  0  0  0  0  0  0  0  0
-111776.0547162831.3281-467890.8125 O   0  0  0  0  0  0  0  0  0  0  0  0
-111775.3203162830.2031-467888.6875 C   0  0  0  0  0  0  0  0  0  0  0  0
-111776.2578162831.2031-467889.3125 C   0  0  0  0  0  0  0  0  0  0  0  0
  1 20  1  0
 29  1  1  6
  1 42  1  6
  2  3  1  0
  2 22  2  0
  3  4  2  0
  3 15  1  0
  4 25  1  0
  5 21  1  0
  5 26  2  0
  5 27  1  0
  6 27  1  6
  8  7  1  6
  7  9  1  1
 28  8  1  6
  9 22  1  0
  9 23  1  1
 10 12  2  0
 10 35  1  0
 11 23  1  0
 11 30  1  0
 11 31  2  0
 12 34  1  0
 13 35  1  0
 14 15  2  0
 14 19  1  0
 14 20  1  0
 15 16  1  0
 16 17  2  0
 17 18  1  0
 18 19  2  0
 18 21  1  0
 22 24  1  0
 24 25  2  0
 28 29  1  0
 30 32  2  0
 32 33  1  0
 33 34  2  0
 33 36  1  0
 34 37  1  0
 35 36  2  0
 37 38  1  0
 37 41  1  0
 38 39  2  0
 39 40  1  0
 40 41  2  0
 42 43  2  0
 42 44  1  0
 46 44  1  6
 45 46  1  6
M  END
$$$$
