
     RDKit          3D

 46 50  0  0  0  0  0  0  0  0999 V2000
   26.6651   48.9993   -5.2992 C   0  0  2  0  0  0  0  0  0  0  0  0
   28.2003   47.8112   -7.9919 C   0  0  0  0  0  0  0  0  0  0  0  0
   26.9137   47.3108   -8.1639 C   0  0  0  0  0  0  0  0  0  0  0  0
   26.1758   47.7859   -9.2483 C   0  0  0  0  0  0  0  0  0  0  0  0
   25.4599   43.3295   -3.1374 C   0  0  0  0  0  0  0  0  0  0  0  0
   24.7631   44.4259   -1.1607 C   0  0  0  0  0  0  0  0  0  0  0  0
   29.6281   50.9557   -8.1163 C   0  0  0  0  0  0  0  0  0  0  0  0
   28.5564   51.0726   -6.9922 C   0  0  0  0  0  0  0  0  0  0  0  0
   29.9635   49.5126   -8.5050 C   0  0  1  0  0  0  0  0  0  0  0  0
   29.8125   45.9755  -15.4588 C   0  0  0  0  0  0  0  0  0  0  0  0
   30.6243   48.8769  -10.7430 C   0  0  0  0  0  0  0  0  0  0  0  0
   30.1455   44.9049  -14.6335 C   0  0  0  0  0  0  0  0  0  0  0  0
   28.8257   48.4585  -15.9087 Cl  0  0  0  0  0  0  0  0  0  0  0  0
   26.5754   46.5063   -5.7752 C   0  0  0  0  0  0  0  0  0  0  0  0
   26.3314   46.3800   -7.1595 C   0  0  0  0  0  0  0  0  0  0  0  0
   25.5989   45.2751   -7.6161 C   0  0  0  0  0  0  0  0  0  0  0  0
   25.1270   44.3194   -6.7355 C   0  0  0  0  0  0  0  0  0  0  0  0
   25.4141   44.4148   -5.3764 C   0  0  0  0  0  0  0  0  0  0  0  0
   26.1359   45.5107   -4.9093 C   0  0  0  0  0  0  0  0  0  0  0  0
   27.2214   47.6457   -5.2623 N   0  0  0  0  0  0  0  0  0  0  0  0
   24.9752   43.4835   -4.3983 N   0  0  0  0  0  0  0  0  0  0  0  0
   28.6793   48.7879   -8.8502 C   0  0  0  0  0  0  0  0  0  0  0  0
   30.9769   49.4118   -9.5566 N   0  0  0  0  0  0  0  0  0  0  0  0
   27.9732   49.2516   -9.8944 N   0  0  0  0  0  0  0  0  0  0  0  0
   26.7380   48.7415  -10.0758 C   0  0  0  0  0  0  0  0  0  0  0  0
   25.9115   42.3135   -2.6650 O   0  0  0  0  0  0  0  0  0  0  0  0
   25.3793   44.4928   -2.4740 O   0  0  0  0  0  0  0  0  0  0  0  0
   28.8768   50.3151   -5.6867 C   0  0  0  0  0  0  0  0  0  0  0  0
   27.6720   50.0351   -4.7730 C   0  0  0  0  0  0  0  0  0  0  0  0
   29.6857   47.7361  -10.6972 C   0  0  0  0  0  0  0  0  0  0  0  0
   31.0808   49.2905  -11.8006 O   0  0  0  0  0  0  0  0  0  0  0  0
   29.8010   46.5382  -11.2312 C   0  0  0  0  0  0  0  0  0  0  0  0
   29.8181   46.2975  -12.6803 C   0  0  0  0  0  0  0  0  0  0  0  0
   30.1142   45.0484  -13.2461 C   0  0  0  0  0  0  0  0  0  0  0  0
   29.4191   47.1709  -14.8882 C   0  0  0  0  0  0  0  0  0  0  0  0
   29.4329   47.3528  -13.5206 C   0  0  0  0  0  0  0  0  0  0  0  0
   30.5160   43.9641  -12.4051 N   0  0  0  0  0  0  0  0  0  0  0  0
   31.4288   43.8372  -11.4374 C   0  0  0  0  0  0  0  0  0  0  0  0
   31.2715   42.6993  -10.8222 N   0  0  0  0  0  0  0  0  0  0  0  0
   30.1795   42.1298  -11.3868 N   0  0  0  0  0  0  0  0  0  0  0  0
   29.7078   42.8773  -12.3369 N   0  0  0  0  0  0  0  0  0  0  0  0
   25.3513   49.1450   -4.5422 C   0  0  0  0  0  0  0  0  0  0  0  0
   25.2802   49.5167   -3.4045 O   0  0  0  0  0  0  0  0  0  0  0  0
   24.3036   48.7877   -5.2817 O   0  0  0  0  0  0  0  0  0  0  0  0
   25.9821   48.2748   -6.9197 C   0  0  0  0  0  0  0  0  0  0  0  0
   24.5635   48.0161   -6.5009 C   0  0  0  0  0  0  0  0  0  0  0  0
  1 20  1  0
 29  1  1  6
  1 42  1  1
  2  3  1  0
  2 22  2  0
  3  4  2  0
  3 15  1  0
  4 25  1  0
  5 21  1  0
  5 26  2  0
  5 27  1  0
  6 27  1  6
  8  7  1  6
  7  9  1  1
 28  8  1  6
  9 22  1  0
  9 23  1  6
 10 12  2  0
 10 35  1  0
 11 23  1  0
 11 30  1  0
 11 31  2  0
 12 34  1  0
 13 35  1  0
 14 15  2  0
 14 19  1  0
 14 20  1  0
 15 16  1  0
 16 17  2  0
 17 18  1  0
 18 19  2  0
 18 21  1  0
 22 24  1  0
 24 25  2  0
 28 29  1  0
 30 32  2  0
 32 33  1  0
 33 34  2  0
 33 36  1  0
 34 37  1  0
 35 36  2  0
 37 38  1  0
 37 41  1  0
 38 39  2  0
 39 40  1  0
 40 41  2  0
 42 43  2  0
 42 44  1  0
 46 44  1  6
 45 46  1  6
M  END
$$$$
