
     RDKit          3D

 46 50  0  0  0  0  0  0  0  0999 V2000
 7982.8394125233.4375-241758.8906 C   0  0  2  0  0  0  0  0  0  0  0  0
 7979.6265125233.6406-241758.0625 C   0  0  0  0  0  0  0  0  0  0  0  0
 7979.5537125233.1406-241759.3594 C   0  0  0  0  0  0  0  0  0  0  0  0
 7979.0469125231.8594-241759.5156 C   0  0  0  0  0  0  0  0  0  0  0  0
 7982.6616125236.6328-241764.0469 C   0  0  0  0  0  0  0  0  0  0  0  0
 7982.1099125235.2344-241765.8281 C   0  0  0  0  0  0  0  0  0  0  0  0
 7980.6777125232.3750-241755.0469 C   0  0  0  0  0  0  0  0  0  0  0  0
 7981.9429125232.2734-241755.9375 C   0  0  0  0  0  0  0  0  0  0  0  0
 7979.5776125233.2812-241755.5781 C   0  0  1  0  0  0  0  0  0  0  0  0
 7981.1460125233.1953-241749.8125 C   0  0  0  0  0  0  0  0  0  0  0  0
 7977.6880125232.2578-241754.5000 C   0  0  0  0  0  0  0  0  0  0  0  0
 7981.5244125232.0391-241750.4688 C   0  0  0  0  0  0  0  0  0  0  0  0
 7979.4585125235.2891-241749.4062 Cl  0  0  0  0  0  0  0  0  0  0  0  0
 7981.2646125234.7188-241760.3906 C   0  0  0  0  0  0  0  0  0  0  0  0
 7980.0957125233.9375-241760.5000 C   0  0  0  0  0  0  0  0  0  0  0  0
 7979.3613125234.0000-241761.6719 C   0  0  0  0  0  0  0  0  0  0  0  0
 7979.7603125234.7891-241762.7500 C   0  0  0  0  0  0  0  0  0  0  0  0
 7980.8833125235.6172-241762.6406 C   0  0  0  0  0  0  0  0  0  0  0  0
 7981.6274125235.5625-241761.4375 C   0  0  0  0  0  0  0  0  0  0  0  0
 7982.0874125234.6484-241759.2656 N   0  0  0  0  0  0  0  0  0  0  0  0
 7981.3696125236.4609-241763.6406 N   0  0  0  0  0  0  0  0  0  0  0  0
 7979.2520125232.8438-241757.0000 C   0  0  0  0  0  0  0  0  0  0  0  0
 7978.3965125233.3672-241754.7344 N   0  0  0  0  0  0  0  0  0  0  0  0
 7978.7656125231.6016-241757.1562 N   0  0  0  0  0  0  0  0  0  0  0  0
 7978.6694125231.1406-241758.4219 C   0  0  0  0  0  0  0  0  0  0  0  0
 7983.6011125236.8438-241763.3125 O   0  0  0  0  0  0  0  0  0  0  0  0
 7982.7524125236.4297-241765.3750 O   0  0  0  0  0  0  0  0  0  0  0  0
 7982.6074125233.6406-241756.2812 C   0  0  0  0  0  0  0  0  0  0  0  0
 7983.5327125233.6016-241757.5156 C   0  0  0  0  0  0  0  0  0  0  0  0
 7978.3179125231.2266-241753.5938 C   0  0  0  0  0  0  0  0  0  0  0  0
 7976.5977125232.0547-241755.0156 O   0  0  0  0  0  0  0  0  0  0  0  0
 7978.3184125231.1797-241752.3438 C   0  0  0  0  0  0  0  0  0  0  0  0
 7979.3257125231.8359-241751.4688 C   0  0  0  0  0  0  0  0  0  0  0  0
 7980.6357125231.3594-241751.2656 C   0  0  0  0  0  0  0  0  0  0  0  0
 7979.8853125233.7266-241750.0938 C   0  0  0  0  0  0  0  0  0  0  0  0
 7978.9707125233.0703-241750.8594 C   0  0  0  0  0  0  0  0  0  0  0  0
 7981.0142125230.1406-241751.8594 N   0  0  0  0  0  0  0  0  0  0  0  0
 7980.7036125229.5234-241753.0625 C   0  0  0  0  0  0  0  0  0  0  0  0
 7981.4746125228.4766-241753.2188 N   0  0  0  0  0  0  0  0  0  0  0  0
 7982.3276125228.4844-241752.1875 N   0  0  0  0  0  0  0  0  0  0  0  0
 7982.0713125229.4375-241751.3906 N   0  0  0  0  0  0  0  0  0  0  0  0
 7983.8682125232.9844-241759.8750 C   0  0  0  0  0  0  0  0  0  0  0  0
 7984.2632125233.7031-241760.7812 O   0  0  0  0  0  0  0  0  0  0  0  0
 7984.2466125231.7266-241759.7344 O   0  0  0  0  0  0  0  0  0  0  0  0
 7984.3413125229.4844-241760.5781 C   0  0  0  0  0  0  0  0  0  0  0  0
 7983.4526125230.6641-241760.3906 C   0  0  0  0  0  0  0  0  0  0  0  0
  1 20  1  0
 29  1  1  6
  1 42  1  6
  2  3  1  0
  2 22  2  0
  3  4  2  0
  3 15  1  0
  4 25  1  0
  5 21  1  0
  5 26  2  0
  5 27  1  0
  6 27  1  6
  8  7  1  6
  7  9  1  1
 28  8  1  6
  9 22  1  0
  9 23  1  1
 10 12  2  0
 10 35  1  0
 11 23  1  0
 11 30  1  0
 11 31  2  0
 12 34  1  0
 13 35  1  0
 14 15  2  0
 14 19  1  0
 14 20  1  0
 15 16  1  0
 16 17  2  0
 17 18  1  0
 18 19  2  0
 18 21  1  0
 22 24  1  0
 24 25  2  0
 28 29  1  0
 30 32  2  0
 32 33  1  0
 33 34  2  0
 33 36  1  0
 34 37  1  0
 35 36  2  0
 37 38  1  0
 37 41  1  0
 38 39  2  0
 39 40  1  0
 40 41  2  0
 42 43  2  0
 42 44  1  0
 46 44  1  6
 45 46  1  6
M  END
$$$$
