
     RDKit          3D

 46 50  0  0  0  0  0  0  0  0999 V2000
 -323.3817 -185.4969 -111.9368 C   0  0  2  0  0  0  0  0  0  0  0  0
 -325.9396 -185.7331 -114.0393 C   0  0  0  0  0  0  0  0  0  0  0  0
 -326.1387 -186.8508 -113.2351 C   0  0  0  0  0  0  0  0  0  0  0  0
 -327.2771 -186.8718 -112.4292 C   0  0  0  0  0  0  0  0  0  0  0  0
 -322.4108 -192.3674 -113.1957 C   0  0  0  0  0  0  0  0  0  0  0  0
 -323.1808 -192.5862 -110.9699 C   0  0  0  0  0  0  0  0  0  0  0  0
 -326.1723 -182.3180 -113.5650 C   0  0  0  0  0  0  0  0  0  0  0  0
 -325.1022 -182.7706 -112.5277 C   0  0  0  0  0  0  0  0  0  0  0  0
 -326.4686 -183.3625 -114.6455 C   0  0  1  0  0  0  0  0  0  0  0  0
 -332.3967 -187.8514 -113.9318 C   0  0  0  0  0  0  0  0  0  0  0  0
 -327.9380 -183.8246 -116.5100 C   0  0  0  0  0  0  0  0  0  0  0  0
 -332.8110 -186.5294 -113.7946 C   0  0  0  0  0  0  0  0  0  0  0  0
 -330.6817 -189.7647 -114.7922 Cl  0  0  0  0  0  0  0  0  0  0  0  0
 -323.7266 -187.6568 -113.2274 C   0  0  0  0  0  0  0  0  0  0  0  0
 -325.1112 -187.9256 -113.1788 C   0  0  0  0  0  0  0  0  0  0  0  0
 -325.5383 -189.2611 -113.1833 C   0  0  0  0  0  0  0  0  0  0  0  0
 -324.6284 -190.3004 -113.2412 C   0  0  0  0  0  0  0  0  0  0  0  0
 -323.2655 -190.0349 -113.3444 C   0  0  0  0  0  0  0  0  0  0  0  0
 -322.8278 -188.7126 -113.3349 C   0  0  0  0  0  0  0  0  0  0  0  0
 -323.2488 -186.3375 -113.1279 N   0  0  0  0  0  0  0  0  0  0  0  0
 -322.2581 -191.0337 -113.4107 N   0  0  0  0  0  0  0  0  0  0  0  0
 -326.8282 -184.6718 -113.9747 C   0  0  0  0  0  0  0  0  0  0  0  0
 -327.4695 -182.9262 -115.6205 N   0  0  0  0  0  0  0  0  0  0  0  0
 -327.9245 -184.6844 -113.1990 N   0  0  0  0  0  0  0  0  0  0  0  0
 -328.1303 -185.7828 -112.4439 C   0  0  0  0  0  0  0  0  0  0  0  0
 -321.7102 -193.2469 -113.6376 O   0  0  0  0  0  0  0  0  0  0  0  0
 -323.4651 -192.5811 -112.3939 O   0  0  0  0  0  0  0  0  0  0  0  0
 -323.7457 -183.2071 -113.1191 C   0  0  0  0  0  0  0  0  0  0  0  0
 -322.8698 -184.0705 -112.1959 C   0  0  0  0  0  0  0  0  0  0  0  0
 -329.1224 -184.6051 -116.0950 C   0  0  0  0  0  0  0  0  0  0  0  0
 -327.3939 -184.0095 -117.5907 O   0  0  0  0  0  0  0  0  0  0  0  0
 -329.6742 -184.7159 -114.9047 C   0  0  0  0  0  0  0  0  0  0  0  0
 -330.6457 -185.7620 -114.5583 C   0  0  0  0  0  0  0  0  0  0  0  0
 -331.9555 -185.4831 -114.1406 C   0  0  0  0  0  0  0  0  0  0  0  0
 -331.1413 -188.1154 -114.4456 C   0  0  0  0  0  0  0  0  0  0  0  0
 -330.2585 -187.0977 -114.7432 C   0  0  0  0  0  0  0  0  0  0  0  0
 -332.3644 -184.1278 -113.9398 N   0  0  0  0  0  0  0  0  0  0  0  0
 -333.4505 -183.4313 -114.2876 C   0  0  0  0  0  0  0  0  0  0  0  0
 -333.4495 -182.2744 -113.6879 N   0  0  0  0  0  0  0  0  0  0  0  0
 -332.3557 -182.2814 -112.8883 N   0  0  0  0  0  0  0  0  0  0  0  0
 -331.6932 -183.3892 -113.0216 N   0  0  0  0  0  0  0  0  0  0  0  0
 -322.6898 -186.0636 -110.7040 C   0  0  0  0  0  0  0  0  0  0  0  0
 -321.6613 -186.6787 -110.7457 O   0  0  0  0  0  0  0  0  0  0  0  0
 -323.3723 -185.8182 -109.5877 O   0  0  0  0  0  0  0  0  0  0  0  0
 -325.0667 -187.3649 -108.8808 C   0  0  0  0  0  0  0  0  0  0  0  0
 -324.8160 -186.0731 -109.6039 C   0  0  0  0  0  0  0  0  0  0  0  0
  1 20  1  0
 29  1  1  6
  1 42  1  1
  2  3  1  0
  2 22  2  0
  3  4  2  0
  3 15  1  0
  4 25  1  0
  5 21  1  0
  5 26  2  0
  5 27  1  0
  6 27  1  6
  8  7  1  6
  7  9  1  1
 28  8  1  6
  9 22  1  0
  9 23  1  1
 10 12  2  0
 10 35  1  0
 11 23  1  0
 11 30  1  0
 11 31  2  0
 12 34  1  0
 13 35  1  0
 14 15  2  0
 14 19  1  0
 14 20  1  0
 15 16  1  0
 16 17  2  0
 17 18  1  0
 18 19  2  0
 18 21  1  0
 22 24  1  0
 24 25  2  0
 28 29  1  0
 30 32  2  0
 32 33  1  0
 33 34  2  0
 33 36  1  0
 34 37  1  0
 35 36  2  0
 37 38  1  0
 37 41  1  0
 38 39  2  0
 39 40  1  0
 40 41  2  0
 42 43  2  0
 42 44  1  0
 46 44  1  6
 45 46  1  6
M  END
$$$$
