
     RDKit          3D

 46 50  0  0  0  0  0  0  0  0999 V2000
 -883.8221-3978.8328 2845.2917 C   0  0  2  0  0  0  0  0  0  0  0  0
 -885.0219-3978.4573 2848.3640 C   0  0  0  0  0  0  0  0  0  0  0  0
 -885.6200-3977.3906 2847.7012 C   0  0  0  0  0  0  0  0  0  0  0  0
 -887.0077-3977.4141 2847.5603 C   0  0  0  0  0  0  0  0  0  0  0  0
 -881.4982-3973.2878 2844.5942 C   0  0  0  0  0  0  0  0  0  0  0  0
 -879.9722-3972.6121 2846.2710 C   0  0  0  0  0  0  0  0  0  0  0  0
 -885.3672-3981.8945 2848.2544 C   0  0  0  0  0  0  0  0  0  0  0  0
 -884.9573-3981.5107 2846.8020 C   0  0  0  0  0  0  0  0  0  0  0  0
 -885.1219-3980.7849 2849.2812 C   0  0  1  0  0  0  0  0  0  0  0  0
 -888.7256-3987.3198 2848.3525 C   0  0  0  0  0  0  0  0  0  0  0  0
 -885.7273-3982.4570 2850.9204 C   0  0  0  0  0  0  0  0  0  0  0  0
 -887.5143-3987.2822 2847.6680 C   0  0  0  0  0  0  0  0  0  0  0  0
 -890.3260-3986.7302 2850.4578 Cl  0  0  0  0  0  0  0  0  0  0  0  0
 -883.5453-3976.5964 2846.4631 C   0  0  0  0  0  0  0  0  0  0  0  0
 -884.7819-3976.3252 2847.0881 C   0  0  0  0  0  0  0  0  0  0  0  0
 -885.1866-3974.9905 2847.2280 C   0  0  0  0  0  0  0  0  0  0  0  0
 -884.3937-3973.9534 2846.7734 C   0  0  0  0  0  0  0  0  0  0  0  0
 -883.1494-3974.2173 2846.2068 C   0  0  0  0  0  0  0  0  0  0  0  0
 -882.7379-3975.5393 2846.0562 C   0  0  0  0  0  0  0  0  0  0  0  0
 -883.1433-3977.9214 2846.2146 N   0  0  0  0  0  0  0  0  0  0  0  0
 -882.2662-3973.2207 2845.7139 N   0  0  0  0  0  0  0  0  0  0  0  0
 -885.7992-3979.5178 2848.8037 C   0  0  0  0  0  0  0  0  0  0  0  0
 -885.5026-3981.1572 2850.6455 N   0  0  0  0  0  0  0  0  0  0  0  0
 -887.1351-3979.5481 2848.6680 N   0  0  0  0  0  0  0  0  0  0  0  0
 -887.7144-3978.4968 2848.0530 C   0  0  0  0  0  0  0  0  0  0  0  0
 -881.8878-3973.5112 2843.4729 O   0  0  0  0  0  0  0  0  0  0  0  0
 -880.2151-3973.0520 2844.9080 O   0  0  0  0  0  0  0  0  0  0  0  0
 -883.4972-3981.0442 2846.6240 C   0  0  0  0  0  0  0  0  0  0  0  0
 -883.2114-3980.2427 2845.3433 C   0  0  0  0  0  0  0  0  0  0  0  0
 -885.8414-3983.3647 2849.7593 C   0  0  0  0  0  0  0  0  0  0  0  0
 -885.8625-3982.8618 2852.0674 O   0  0  0  0  0  0  0  0  0  0  0  0
 -885.6687-3984.6692 2849.6985 C   0  0  0  0  0  0  0  0  0  0  0  0
 -886.6914-3985.5967 2849.1992 C   0  0  0  0  0  0  0  0  0  0  0  0
 -886.4825-3986.4524 2848.1067 C   0  0  0  0  0  0  0  0  0  0  0  0
 -888.8822-3986.5520 2849.4907 C   0  0  0  0  0  0  0  0  0  0  0  0
 -887.8965-3985.6841 2849.9119 C   0  0  0  0  0  0  0  0  0  0  0  0
 -885.2633-3986.3721 2847.3640 N   0  0  0  0  0  0  0  0  0  0  0  0
 -884.9556-3986.5471 2846.0750 C   0  0  0  0  0  0  0  0  0  0  0  0
 -883.7330-3986.1543 2845.8513 N   0  0  0  0  0  0  0  0  0  0  0  0
 -883.2905-3985.6558 2847.0308 N   0  0  0  0  0  0  0  0  0  0  0  0
 -884.1979-3985.7732 2847.9509 N   0  0  0  0  0  0  0  0  0  0  0  0
 -883.8405-3978.3452 2843.8489 C   0  0  0  0  0  0  0  0  0  0  0  0
 -883.2910-3977.3452 2843.4800 O   0  0  0  0  0  0  0  0  0  0  0  0
 -884.5559-3979.1418 2843.0583 O   0  0  0  0  0  0  0  0  0  0  0  0
 -885.0394-3981.4736 2842.7556 C   0  0  0  0  0  0  0  0  0  0  0  0
 -885.2114-3980.2996 2843.6746 C   0  0  0  0  0  0  0  0  0  0  0  0
  1 20  1  0
 29  1  1  6
  1 42  1  6
  2  3  1  0
  2 22  2  0
  3  4  2  0
  3 15  1  0
  4 25  1  0
  5 21  1  0
  5 26  2  0
  5 27  1  0
  6 27  1  6
  8  7  1  6
  7  9  1  1
 28  8  1  6
  9 22  1  0
  9 23  1  1
 10 12  2  0
 10 35  1  0
 11 23  1  0
 11 30  1  0
 11 31  2  0
 12 34  1  0
 13 35  1  0
 14 15  2  0
 14 19  1  0
 14 20  1  0
 15 16  1  0
 16 17  2  0
 17 18  1  0
 18 19  2  0
 18 21  1  0
 22 24  1  0
 24 25  2  0
 28 29  1  0
 30 32  2  0
 32 33  1  0
 33 34  2  0
 33 36  1  0
 34 37  1  0
 35 36  2  0
 37 38  1  0
 37 41  1  0
 38 39  2  0
 39 40  1  0
 40 41  2  0
 42 43  2  0
 42 44  1  0
 46 44  1  6
 45 46  1  6
M  END
$$$$
