
     RDKit          3D

 46 50  0  0  0  0  0  0  0  0999 V2000
   54.5168  138.3828  -54.7242 C   0  0  2  0  0  0  0  0  0  0  0  0
   57.7929  138.0040  -55.1025 C   0  0  0  0  0  0  0  0  0  0  0  0
   57.3002  137.1181  -56.0554 C   0  0  0  0  0  0  0  0  0  0  0  0
   57.5520  137.4072  -57.3968 C   0  0  0  0  0  0  0  0  0  0  0  0
   53.5950  131.7023  -54.9670 C   0  0  0  0  0  0  0  0  0  0  0  0
   54.8939  132.5282  -56.7630 C   0  0  0  0  0  0  0  0  0  0  0  0
   57.8591  141.4438  -54.7779 C   0  0  0  0  0  0  0  0  0  0  0  0
   56.3417  141.1019  -54.8584 C   0  0  0  0  0  0  0  0  0  0  0  0
   58.7525  140.2334  -54.4896 C   0  0  1  0  0  0  0  0  0  0  0  0
   55.7362  139.7667  -56.4161 C   0  0  0  0  0  0  0  0  0  0  0  0
   61.0743  139.6661  -54.8590 C   0  0  0  0  0  0  0  0  0  0  0  0
   56.7351  140.5353  -55.8248 C   0  0  0  0  0  0  0  0  0  0  0  0
   54.7916  137.4884  -57.5383 Cl  0  0  0  0  0  0  0  0  0  0  0  0
   55.5161  136.0518  -54.5901 C   0  0  0  0  0  0  0  0  0  0  0  0
   56.4541  135.9664  -55.6411 C   0  0  0  0  0  0  0  0  0  0  0  0
   56.6727  134.7220  -56.2489 C   0  0  0  0  0  0  0  0  0  0  0  0
   55.9925  133.5940  -55.8288 C   0  0  0  0  0  0  0  0  0  0  0  0
   55.1077  133.6669  -54.7562 C   0  0  0  0  0  0  0  0  0  0  0  0
   54.8772  134.8985  -54.1476 C   0  0  0  0  0  0  0  0  0  0  0  0
   55.1941  137.2950  -54.0162 N   0  0  0  0  0  0  0  0  0  0  0  0
   54.3664  132.5650  -54.2536 N   0  0  0  0  0  0  0  0  0  0  0  0
   58.4546  139.1522  -55.5073 C   0  0  0  0  0  0  0  0  0  0  0  0
   60.1760  140.5648  -54.4081 N   0  0  0  0  0  0  0  0  0  0  0  0
   58.6979  139.4378  -56.7969 N   0  0  0  0  0  0  0  0  0  0  0  0
   58.2455  138.5608  -57.7163 C   0  0  0  0  0  0  0  0  0  0  0  0
   52.9619  130.7747  -54.5218 O   0  0  0  0  0  0  0  0  0  0  0  0
   53.6210  132.0365  -56.2660 O   0  0  0  0  0  0  0  0  0  0  0  0
   55.7540  140.3899  -53.6222 C   0  0  0  0  0  0  0  0  0  0  0  0
   54.4272  139.6483  -53.8559 C   0  0  0  0  0  0  0  0  0  0  0  0
   60.5381  138.3550  -55.2806 C   0  0  0  0  0  0  0  0  0  0  0  0
   62.2736  139.9085  -54.8878 O   0  0  0  0  0  0  0  0  0  0  0  0
   59.3275  137.8601  -55.1288 C   0  0  0  0  0  0  0  0  0  0  0  0
   58.1087  138.5598  -55.5566 C   0  0  0  0  0  0  0  0  0  0  0  0
   57.9357  139.9460  -55.4278 C   0  0  0  0  0  0  0  0  0  0  0  0
   55.9605  138.4209  -56.6351 C   0  0  0  0  0  0  0  0  0  0  0  0
   57.1172  137.8058  -56.2020 C   0  0  0  0  0  0  0  0  0  0  0  0
   58.9327  140.7285  -54.7659 N   0  0  0  0  0  0  0  0  0  0  0  0
   58.9201  141.5168  -53.6870 C   0  0  0  0  0  0  0  0  0  0  0  0
   60.1380  141.8465  -53.3611 N   0  0  0  0  0  0  0  0  0  0  0  0
   60.9381  141.1843  -54.2313 N   0  0  0  0  0  0  0  0  0  0  0  0
   60.2324  140.5025  -55.0804 N   0  0  0  0  0  0  0  0  0  0  0  0
   53.1259  138.0174  -55.2262 C   0  0  0  0  0  0  0  0  0  0  0  0
   52.9283  137.3543  -56.2055 O   0  0  0  0  0  0  0  0  0  0  0  0
   52.1650  138.5406  -54.4680 O   0  0  0  0  0  0  0  0  0  0  0  0
   51.8268  139.7256  -52.4078 C   0  0  0  0  0  0  0  0  0  0  0  0
   52.3177  138.4423  -53.0133 C   0  0  0  0  0  0  0  0  0  0  0  0
  1 20  1  0
 29  1  1  6
  1 42  1  1
  2  3  1  0
  2 22  2  0
  3  4  2  0
  3 15  1  0
  4 25  1  0
  5 21  1  0
  5 26  2  0
  5 27  1  0
  6 27  1  6
  8  7  1  6
  7  9  1  1
 28  8  1  6
  9 22  1  0
  9 23  1  6
 10 12  2  0
 10 35  1  0
 11 23  1  0
 11 30  1  0
 11 31  2  0
 12 34  1  0
 13 35  1  0
 14 15  2  0
 14 19  1  0
 14 20  1  0
 15 16  1  0
 16 17  2  0
 17 18  1  0
 18 19  2  0
 18 21  1  0
 22 24  1  0
 24 25  2  0
 28 29  1  0
 30 32  2  0
 32 33  1  0
 33 34  2  0
 33 36  1  0
 34 37  1  0
 35 36  2  0
 37 38  1  0
 37 41  1  0
 38 39  2  0
 39 40  1  0
 40 41  2  0
 42 43  2  0
 42 44  1  0
 46 44  1  6
 45 46  1  6
M  END
$$$$
