
     RDKit          3D

 46 50  0  0  0  0  0  0  0  0999 V2000
  -36.5177  -37.7509   57.4730 C   0  0  2  0  0  0  0  0  0  0  0  0
  -34.3485  -36.6794   55.2002 C   0  0  0  0  0  0  0  0  0  0  0  0
  -35.5595  -36.4621   54.5507 C   0  0  0  0  0  0  0  0  0  0  0  0
  -35.9234  -35.1411   54.2882 C   0  0  0  0  0  0  0  0  0  0  0  0
  -39.4538  -41.2347   52.0277 C   0  0  0  0  0  0  0  0  0  0  0  0
  -38.7689  -43.1309   50.7907 C   0  0  0  0  0  0  0  0  0  0  0  0
  -32.7547  -35.2643   57.9203 C   0  0  0  0  0  0  0  0  0  0  0  0
  -34.0953  -35.7996   58.5054 C   0  0  0  0  0  0  0  0  0  0  0  0
  -32.4111  -35.8313   56.5395 C   0  0  1  0  0  0  0  0  0  0  0  0
  -25.4516  -32.8681   52.6137 C   0  0  0  0  0  0  0  0  0  0  0  0
  -30.2851  -36.2085   55.4501 C   0  0  0  0  0  0  0  0  0  0  0  0
  -25.9625  -32.7563   53.9040 C   0  0  0  0  0  0  0  0  0  0  0  0
  -25.0469  -34.1948   50.2861 Cl  0  0  0  0  0  0  0  0  0  0  0  0
  -36.6198  -38.7023   55.1204 C   0  0  0  0  0  0  0  0  0  0  0  0
  -36.4623  -37.6051   54.2468 C   0  0  0  0  0  0  0  0  0  0  0  0
  -37.0990  -37.6420   52.9981 C   0  0  0  0  0  0  0  0  0  0  0  0
  -37.8622  -38.7306   52.6189 C   0  0  0  0  0  0  0  0  0  0  0  0
  -37.9731  -39.8364   53.4578 C   0  0  0  0  0  0  0  0  0  0  0  0
  -37.3504  -39.8098   54.7034 C   0  0  0  0  0  0  0  0  0  0  0  0
  -36.0799  -38.6677   56.4189 N   0  0  0  0  0  0  0  0  0  0  0  0
  -38.7314  -40.9982   53.1548 N   0  0  0  0  0  0  0  0  0  0  0  0
  -33.5836  -35.5989   55.6097 C   0  0  0  0  0  0  0  0  0  0  0  0
  -31.1462  -35.3290   56.0005 N   0  0  0  0  0  0  0  0  0  0  0  0
  -33.9294  -34.3249   55.3627 N   0  0  0  0  0  0  0  0  0  0  0  0
  -35.0892  -34.1194   54.7055 C   0  0  0  0  0  0  0  0  0  0  0  0
  -40.6381  -41.0435   51.8852 O   0  0  0  0  0  0  0  0  0  0  0  0
  -38.6504  -41.7096   51.0639 O   0  0  0  0  0  0  0  0  0  0  0  0
  -34.2114  -37.3348   58.6050 C   0  0  0  0  0  0  0  0  0  0  0  0
  -35.6431  -37.8821   58.7305 C   0  0  0  0  0  0  0  0  0  0  0  0
  -28.9414  -35.6917   55.1155 C   0  0  0  0  0  0  0  0  0  0  0  0
  -30.6066  -37.3645   55.2088 O   0  0  0  0  0  0  0  0  0  0  0  0
  -28.2839  -35.7510   53.9764 C   0  0  0  0  0  0  0  0  0  0  0  0
  -27.3111  -34.7357   53.5508 C   0  0  0  0  0  0  0  0  0  0  0  0
  -26.8619  -33.7054   54.3904 C   0  0  0  0  0  0  0  0  0  0  0  0
  -25.8198  -33.9471   51.8329 C   0  0  0  0  0  0  0  0  0  0  0  0
  -26.7488  -34.8678   52.2723 C   0  0  0  0  0  0  0  0  0  0  0  0
  -27.4298  -33.5518   55.6936 N   0  0  0  0  0  0  0  0  0  0  0  0
  -28.2856  -34.2787   56.4179 C   0  0  0  0  0  0  0  0  0  0  0  0
  -28.3338  -33.8256   57.6388 N   0  0  0  0  0  0  0  0  0  0  0  0
  -27.4249  -32.8221   57.6892 N   0  0  0  0  0  0  0  0  0  0  0  0
  -26.8670  -32.6455   56.5310 N   0  0  0  0  0  0  0  0  0  0  0  0
  -37.9821  -37.9128   57.8594 C   0  0  0  0  0  0  0  0  0  0  0  0
  -38.8851  -37.3947   57.2646 O   0  0  0  0  0  0  0  0  0  0  0  0
  -38.1346  -38.6707   58.9432 O   0  0  0  0  0  0  0  0  0  0  0  0
  -37.8052  -36.5503   60.0196 C   0  0  0  0  0  0  0  0  0  0  0  0
  -38.1008  -38.0045   60.2487 C   0  0  0  0  0  0  0  0  0  0  0  0
  1 20  1  0
 29  1  1  6
  1 42  1  1
  2  3  1  0
  2 22  2  0
  3  4  2  0
  3 15  1  0
  4 25  1  0
  5 21  1  0
  5 26  2  0
  5 27  1  0
  6 27  1  6
  8  7  1  6
  7  9  1  1
 28  8  1  6
  9 22  1  0
  9 23  1  6
 10 12  2  0
 10 35  1  0
 11 23  1  0
 11 30  1  0
 11 31  2  0
 12 34  1  0
 13 35  1  0
 14 15  2  0
 14 19  1  0
 14 20  1  0
 15 16  1  0
 16 17  2  0
 17 18  1  0
 18 19  2  0
 18 21  1  0
 22 24  1  0
 24 25  2  0
 28 29  1  0
 30 32  2  0
 32 33  1  0
 33 34  2  0
 33 36  1  0
 34 37  1  0
 35 36  2  0
 37 38  1  0
 37 41  1  0
 38 39  2  0
 39 40  1  0
 40 41  2  0
 42 43  2  0
 42 44  1  0
 46 44  1  6
 45 46  1  6
M  END
$$$$
