
     RDKit          3D

 46 50  0  0  0  0  0  0  0  0999 V2000
  -68.5708   57.2865   52.2811 C   0  0  2  0  0  0  0  0  0  0  0  0
  -66.8617   55.0074   53.9850 C   0  0  0  0  0  0  0  0  0  0  0  0
  -66.6416   56.1477   54.7509 C   0  0  0  0  0  0  0  0  0  0  0  0
  -67.1764   56.1732   56.0392 C   0  0  0  0  0  0  0  0  0  0  0  0
  -63.9822   61.7387   52.3769 C   0  0  0  0  0  0  0  0  0  0  0  0
  -65.9533   61.4580   53.6540 C   0  0  0  0  0  0  0  0  0  0  0  0
  -69.5985   52.9998   53.3354 C   0  0  0  0  0  0  0  0  0  0  0  0
  -70.0372   54.4083   52.8359 C   0  0  0  0  0  0  0  0  0  0  0  0
  -68.0903   52.8666   53.5671 C   0  0  1  0  0  0  0  0  0  0  0  0
  -62.0238   49.0639   56.7240 C   0  0  0  0  0  0  0  0  0  0  0  0
  -66.3841   51.1956   53.9489 C   0  0  0  0  0  0  0  0  0  0  0  0
  -61.6228   49.4086   55.4361 C   0  0  0  0  0  0  0  0  0  0  0  0
  -63.9004   48.5766   58.6168 Cl  0  0  0  0  0  0  0  0  0  0  0  0
  -66.1271   57.7201   52.8196 C   0  0  0  0  0  0  0  0  0  0  0  0
  -65.9450   57.3230   54.1616 C   0  0  0  0  0  0  0  0  0  0  0  0
  -64.9930   57.9968   54.9398 C   0  0  0  0  0  0  0  0  0  0  0  0
  -64.2380   59.0264   54.4093 C   0  0  0  0  0  0  0  0  0  0  0  0
  -64.3786   59.3819   53.0705 C   0  0  0  0  0  0  0  0  0  0  0  0
  -65.3250   58.7244   52.2882 C   0  0  0  0  0  0  0  0  0  0  0  0
  -67.1360   57.1385   52.0307 N   0  0  0  0  0  0  0  0  0  0  0  0
  -63.6481   60.4224   52.4376 N   0  0  0  0  0  0  0  0  0  0  0  0
  -67.6374   53.9770   54.4919 C   0  0  0  0  0  0  0  0  0  0  0  0
  -67.6857   51.5377   54.0290 N   0  0  0  0  0  0  0  0  0  0  0  0
  -68.1574   53.9965   55.7300 N   0  0  0  0  0  0  0  0  0  0  0  0
  -67.9159   55.0907   56.4807 C   0  0  0  0  0  0  0  0  0  0  0  0
  -63.2143   62.6672   52.2885 O   0  0  0  0  0  0  0  0  0  0  0  0
  -65.3166   61.8716   52.4160 O   0  0  0  0  0  0  0  0  0  0  0  0
  -69.3368   54.9075   51.5550 C   0  0  0  0  0  0  0  0  0  0  0  0
  -69.4014   56.4253   51.3157 C   0  0  0  0  0  0  0  0  0  0  0  0
  -66.0923   49.7606   53.7484 C   0  0  0  0  0  0  0  0  0  0  0  0
  -65.4892   52.0220   54.0685 O   0  0  0  0  0  0  0  0  0  0  0  0
  -64.9311   49.1569   53.6049 C   0  0  0  0  0  0  0  0  0  0  0  0
  -63.8955   49.1385   54.6467 C   0  0  0  0  0  0  0  0  0  0  0  0
  -62.5577   49.4839   54.4034 C   0  0  0  0  0  0  0  0  0  0  0  0
  -63.3625   48.8296   56.9742 C   0  0  0  0  0  0  0  0  0  0  0  0
  -64.2963   48.8448   55.9586 C   0  0  0  0  0  0  0  0  0  0  0  0
  -62.1305   49.7785   53.0711 N   0  0  0  0  0  0  0  0  0  0  0  0
  -62.3295   49.1904   51.8877 C   0  0  0  0  0  0  0  0  0  0  0  0
  -61.9015   49.9618   50.9286 N   0  0  0  0  0  0  0  0  0  0  0  0
  -61.4821   51.0976   51.5366 N   0  0  0  0  0  0  0  0  0  0  0  0
  -61.6165   51.0090   52.8243 N   0  0  0  0  0  0  0  0  0  0  0  0
  -69.0604   58.7275   52.2182 C   0  0  0  0  0  0  0  0  0  0  0  0
  -70.1848   59.0331   51.9353 O   0  0  0  0  0  0  0  0  0  0  0  0
  -68.0910   59.5993   52.4871 O   0  0  0  0  0  0  0  0  0  0  0  0
  -67.6681   61.4059   50.9637 C   0  0  0  0  0  0  0  0  0  0  0  0
  -68.3637   61.0177   52.2365 C   0  0  0  0  0  0  0  0  0  0  0  0
  1 20  1  0
 29  1  1  6
  1 42  1  6
  2  3  1  0
  2 22  2  0
  3  4  2  0
  3 15  1  0
  4 25  1  0
  5 21  1  0
  5 26  2  0
  5 27  1  0
  6 27  1  6
  8  7  1  6
  7  9  1  1
 28  8  1  6
  9 22  1  0
  9 23  1  1
 10 12  2  0
 10 35  1  0
 11 23  1  0
 11 30  1  0
 11 31  2  0
 12 34  1  0
 13 35  1  0
 14 15  2  0
 14 19  1  0
 14 20  1  0
 15 16  1  0
 16 17  2  0
 17 18  1  0
 18 19  2  0
 18 21  1  0
 22 24  1  0
 24 25  2  0
 28 29  1  0
 30 32  2  0
 32 33  1  0
 33 34  2  0
 33 36  1  0
 34 37  1  0
 35 36  2  0
 37 38  1  0
 37 41  1  0
 38 39  2  0
 39 40  1  0
 40 41  2  0
 42 43  2  0
 42 44  1  0
 46 44  1  6
 45 46  1  6
M  END
$$$$
