
     RDKit          3D

 46 50  0  0  0  0  0  0  0  0999 V2000
  -69.6487   76.5568  -84.7306 C   0  0  2  0  0  0  0  0  0  0  0  0
  -68.6100   73.7156  -83.3638 C   0  0  0  0  0  0  0  0  0  0  0  0
  -68.2810   73.5157  -84.7008 C   0  0  0  0  0  0  0  0  0  0  0  0
  -66.9275   73.4238  -85.0258 C   0  0  0  0  0  0  0  0  0  0  0  0
  -72.9712   74.1464  -89.3142 C   0  0  0  0  0  0  0  0  0  0  0  0
  -73.1243   76.3884  -88.5759 C   0  0  0  0  0  0  0  0  0  0  0  0
  -67.4409   75.7780  -80.8494 C   0  0  0  0  0  0  0  0  0  0  0  0
  -67.9153   76.7653  -81.9567 C   0  0  0  0  0  0  0  0  0  0  0  0
  -67.9595   74.3481  -81.0306 C   0  0  1  0  0  0  0  0  0  0  0  0
  -62.4166   70.4524  -81.1686 C   0  0  0  0  0  0  0  0  0  0  0  0
  -66.8627   73.9336  -78.9154 C   0  0  0  0  0  0  0  0  0  0  0  0
  -63.3776   69.9418  -80.3004 C   0  0  0  0  0  0  0  0  0  0  0  0
  -61.1405   72.4828  -82.4299 Cl  0  0  0  0  0  0  0  0  0  0  0  0
  -70.4722   74.3517  -85.6843 C   0  0  0  0  0  0  0  0  0  0  0  0
  -69.3455   73.5037  -85.7404 C   0  0  0  0  0  0  0  0  0  0  0  0
  -69.2777   72.5405  -86.7570 C   0  0  0  0  0  0  0  0  0  0  0  0
  -70.2933   72.4121  -87.6863 C   0  0  0  0  0  0  0  0  0  0  0  0
  -71.4300   73.2115  -87.5986 C   0  0  0  0  0  0  0  0  0  0  0  0
  -71.5069   74.1763  -86.5968 C   0  0  0  0  0  0  0  0  0  0  0  0
  -70.5384   75.3942  -84.7422 N   0  0  0  0  0  0  0  0  0  0  0  0
  -72.5227   73.1515  -88.5036 N   0  0  0  0  0  0  0  0  0  0  0  0
  -67.6041   73.8717  -82.4235 C   0  0  0  0  0  0  0  0  0  0  0  0
  -67.5153   73.4287  -79.9817 N   0  0  0  0  0  0  0  0  0  0  0  0
  -66.2993   73.7871  -82.7302 N   0  0  0  0  0  0  0  0  0  0  0  0
  -65.9852   73.5626  -84.0225 C   0  0  0  0  0  0  0  0  0  0  0  0
  -73.8407   74.0514  -90.1475 O   0  0  0  0  0  0  0  0  0  0  0  0
  -72.3097   75.2829  -89.0481 O   0  0  0  0  0  0  0  0  0  0  0  0
  -69.4427   76.8594  -82.1539 C   0  0  0  0  0  0  0  0  0  0  0  0
  -69.9000   77.4442  -83.5006 C   0  0  0  0  0  0  0  0  0  0  0  0
  -65.7887   73.0945  -78.3438 C   0  0  0  0  0  0  0  0  0  0  0  0
  -67.1633   75.0138  -78.4245 O   0  0  0  0  0  0  0  0  0  0  0  0
  -64.4927   73.1258  -78.5740 C   0  0  0  0  0  0  0  0  0  0  0  0
  -63.8038   72.1677  -79.4490 C   0  0  0  0  0  0  0  0  0  0  0  0
  -64.0993   70.7964  -79.4667 C   0  0  0  0  0  0  0  0  0  0  0  0
  -62.2093   71.8177  -81.2188 C   0  0  0  0  0  0  0  0  0  0  0  0
  -62.8717   72.6765  -80.3658 C   0  0  0  0  0  0  0  0  0  0  0  0
  -65.0411   70.2600  -78.5340 N   0  0  0  0  0  0  0  0  0  0  0  0
  -65.0096   69.2335  -77.6791 C   0  0  0  0  0  0  0  0  0  0  0  0
  -66.0464   69.2773  -76.8910 N   0  0  0  0  0  0  0  0  0  0  0  0
  -66.7099   70.4098  -77.2272 N   0  0  0  0  0  0  0  0  0  0  0  0
  -66.1182   71.0173  -78.2095 N   0  0  0  0  0  0  0  0  0  0  0  0
  -69.7327   77.4079  -85.9909 C   0  0  0  0  0  0  0  0  0  0  0  0
  -69.4798   78.5796  -86.0168 O   0  0  0  0  0  0  0  0  0  0  0  0
  -70.1426   76.7053  -87.0447 O   0  0  0  0  0  0  0  0  0  0  0  0
  -71.6114   76.2497  -88.8882 C   0  0  0  0  0  0  0  0  0  0  0  0
  -71.2117   77.2772  -87.8689 C   0  0  0  0  0  0  0  0  0  0  0  0
  1 20  1  0
 29  1  1  6
  1 42  1  6
  2  3  1  0
  2 22  2  0
  3  4  2  0
  3 15  1  0
  4 25  1  0
  5 21  1  0
  5 26  2  0
  5 27  1  0
  6 27  1  6
  8  7  1  6
  7  9  1  1
 28  8  1  6
  9 22  1  0
  9 23  1  1
 10 12  2  0
 10 35  1  0
 11 23  1  0
 11 30  1  0
 11 31  2  0
 12 34  1  0
 13 35  1  0
 14 15  2  0
 14 19  1  0
 14 20  1  0
 15 16  1  0
 16 17  2  0
 17 18  1  0
 18 19  2  0
 18 21  1  0
 22 24  1  0
 24 25  2  0
 28 29  1  0
 30 32  2  0
 32 33  1  0
 33 34  2  0
 33 36  1  0
 34 37  1  0
 35 36  2  0
 37 38  1  0
 37 41  1  0
 38 39  2  0
 39 40  1  0
 40 41  2  0
 42 43  2  0
 42 44  1  0
 46 44  1  6
 45 46  1  6
M  END
$$$$
