
     RDKit          3D

 46 50  0  0  0  0  0  0  0  0999 V2000
  932.8583 -384.0694 2089.1516 C   0  0  2  0  0  0  0  0  0  0  0  0
  933.2911 -387.3443 2089.4792 C   0  0  0  0  0  0  0  0  0  0  0  0
  934.4062 -386.9920 2088.7253 C   0  0  0  0  0  0  0  0  0  0  0  0
  935.6602 -387.1401 2089.3193 C   0  0  0  0  0  0  0  0  0  0  0  0
  933.9535 -383.8071 2082.9338 C   0  0  0  0  0  0  0  0  0  0  0  0
  932.1670 -382.3236 2083.3855 C   0  0  0  0  0  0  0  0  0  0  0  0
  932.2747 -386.7837 2092.7346 C   0  0  0  0  0  0  0  0  0  0  0  0
  932.4296 -385.3538 2092.1365 C   0  0  0  0  0  0  0  0  0  0  0  0
  932.2345 -387.8949 2091.6804 C   0  0  1  0  0  0  0  0  0  0  0  0
  929.2360 -394.9913 2093.2991 C   0  0  0  0  0  0  0  0  0  0  0  0
  932.0815 -389.3685 2093.5925 C   0  0  0  0  0  0  0  0  0  0  0  0
  930.5708 -394.9875 2093.6931 C   0  0  0  0  0  0  0  0  0  0  0  0
  926.7715 -393.8803 2093.1145 Cl  0  0  0  0  0  0  0  0  0  0  0  0
  933.1958 -385.4868 2087.0713 C   0  0  0  0  0  0  0  0  0  0  0  0
  934.2382 -386.3882 2087.3765 C   0  0  0  0  0  0  0  0  0  0  0  0
  935.0851 -386.8124 2086.3420 C   0  0  0  0  0  0  0  0  0  0  0  0
  934.9056 -386.3674 2085.0459 C   0  0  0  0  0  0  0  0  0  0  0  0
  933.8445 -385.5214 2084.7351 C   0  0  0  0  0  0  0  0  0  0  0  0
  932.9995 -385.0877 2085.7537 C   0  0  0  0  0  0  0  0  0  0  0  0
  932.3828 -384.9599 2088.0913 N   0  0  0  0  0  0  0  0  0  0  0  0
  933.5793 -385.0143 2083.4351 N   0  0  0  0  0  0  0  0  0  0  0  0
  933.4517 -387.7679 2090.7893 C   0  0  0  0  0  0  0  0  0  0  0  0
  932.0808 -389.2344 2092.2507 N   0  0  0  0  0  0  0  0  0  0  0  0
  934.6553 -387.9101 2091.3679 N   0  0  0  0  0  0  0  0  0  0  0  0
  935.7354 -387.5970 2090.6238 C   0  0  0  0  0  0  0  0  0  0  0  0
  935.0753 -383.3600 2082.9111 O   0  0  0  0  0  0  0  0  0  0  0  0
  932.8816 -383.1666 2082.4431 O   0  0  0  0  0  0  0  0  0  0  0  0
  931.3662 -384.9504 2091.0938 C   0  0  0  0  0  0  0  0  0  0  0  0
  931.7513 -383.7767 2090.1777 C   0  0  0  0  0  0  0  0  0  0  0  0
  931.9875 -390.7475 2094.1160 C   0  0  0  0  0  0  0  0  0  0  0  0
  932.1243 -388.4000 2094.3396 O   0  0  0  0  0  0  0  0  0  0  0  0
  930.9717 -391.3540 2094.6926 C   0  0  0  0  0  0  0  0  0  0  0  0
  930.4166 -392.6295 2094.2209 C   0  0  0  0  0  0  0  0  0  0  0  0
  931.1555 -393.8217 2094.1892 C   0  0  0  0  0  0  0  0  0  0  0  0
  928.4880 -393.8372 2093.4343 C   0  0  0  0  0  0  0  0  0  0  0  0
  929.0586 -392.6590 2093.8699 C   0  0  0  0  0  0  0  0  0  0  0  0
  932.5425 -393.8081 2094.5359 N   0  0  0  0  0  0  0  0  0  0  0  0
  933.6504 -393.4316 2093.8909 C   0  0  0  0  0  0  0  0  0  0  0  0
  934.6619 -393.4167 2094.7122 N   0  0  0  0  0  0  0  0  0  0  0  0
  934.1481 -393.7322 2095.9260 N   0  0  0  0  0  0  0  0  0  0  0  0
  932.8746 -393.9658 2095.8411 N   0  0  0  0  0  0  0  0  0  0  0  0
  933.4302 -382.7539 2088.6389 C   0  0  0  0  0  0  0  0  0  0  0  0
  934.5854 -382.4500 2088.7400 O   0  0  0  0  0  0  0  0  0  0  0  0
  932.4954 -381.9787 2088.0940 O   0  0  0  0  0  0  0  0  0  0  0  0
  931.5887 -379.8802 2087.3604 C   0  0  0  0  0  0  0  0  0  0  0  0
  932.7417 -380.5336 2088.0671 C   0  0  0  0  0  0  0  0  0  0  0  0
  1 20  1  0
 29  1  1  6
  1 42  1  6
  2  3  1  0
  2 22  2  0
  3  4  2  0
  3 15  1  0
  4 25  1  0
  5 21  1  0
  5 26  2  0
  5 27  1  0
  6 27  1  6
  8  7  1  6
  7  9  1  1
 28  8  1  6
  9 22  1  0
  9 23  1  1
 10 12  2  0
 10 35  1  0
 11 23  1  0
 11 30  1  0
 11 31  2  0
 12 34  1  0
 13 35  1  0
 14 15  2  0
 14 19  1  0
 14 20  1  0
 15 16  1  0
 16 17  2  0
 17 18  1  0
 18 19  2  0
 18 21  1  0
 22 24  1  0
 24 25  2  0
 28 29  1  0
 30 32  2  0
 32 33  1  0
 33 34  2  0
 33 36  1  0
 34 37  1  0
 35 36  2  0
 37 38  1  0
 37 41  1  0
 38 39  2  0
 39 40  1  0
 40 41  2  0
 42 43  2  0
 42 44  1  0
 46 44  1  6
 45 46  1  6
M  END
$$$$
