
     RDKit          3D

 46 50  0  0  0  0  0  0  0  0999 V2000
 -153.3416 -160.8859  114.2407 C   0  0  2  0  0  0  0  0  0  0  0  0
 -152.3242 -160.1796  111.1609 C   0  0  0  0  0  0  0  0  0  0  0  0
 -153.7063 -160.1810  111.0020 C   0  0  0  0  0  0  0  0  0  0  0  0
 -154.3203 -158.9705  110.6797 C   0  0  0  0  0  0  0  0  0  0  0  0
 -157.3595 -165.7390  110.8851 C   0  0  0  0  0  0  0  0  0  0  0  0
 -158.2036 -166.3954  112.9950 C   0  0  0  0  0  0  0  0  0  0  0  0
 -150.0594 -158.1263  112.7725 C   0  0  0  0  0  0  0  0  0  0  0  0
 -151.0053 -158.6110  113.9110 C   0  0  0  0  0  0  0  0  0  0  0  0
 -150.1691 -158.9475  111.4842 C   0  0  1  0  0  0  0  0  0  0  0  0
 -149.7269 -153.4082  110.6407 C   0  0  0  0  0  0  0  0  0  0  0  0
 -149.5362 -158.8559  109.1518 C   0  0  0  0  0  0  0  0  0  0  0  0
 -148.6342 -154.2684  110.5757 C   0  0  0  0  0  0  0  0  0  0  0  0
 -152.0728 -152.4147  109.7182 Cl  0  0  0  0  0  0  0  0  0  0  0  0
 -154.1633 -162.3146  112.3083 C   0  0  0  0  0  0  0  0  0  0  0  0
 -154.4897 -161.4176  111.2688 C   0  0  0  0  0  0  0  0  0  0  0  0
 -155.5269 -161.7562  110.3883 C   0  0  0  0  0  0  0  0  0  0  0  0
 -156.2170 -162.9466  110.5237 C   0  0  0  0  0  0  0  0  0  0  0  0
 -155.8591 -163.8563  111.5152 C   0  0  0  0  0  0  0  0  0  0  0  0
 -154.8344 -163.5292  112.4002 C   0  0  0  0  0  0  0  0  0  0  0  0
 -153.1967 -161.9738  113.2718 N   0  0  0  0  0  0  0  0  0  0  0  0
 -156.5066 -165.1017  111.7304 N   0  0  0  0  0  0  0  0  0  0  0  0
 -151.6203 -158.9908  111.0536 C   0  0  0  0  0  0  0  0  0  0  0  0
 -149.2714 -158.4901  110.4221 N   0  0  0  0  0  0  0  0  0  0  0  0
 -152.2056 -157.8216  110.7464 N   0  0  0  0  0  0  0  0  0  0  0  0
 -153.5417 -157.8330  110.5628 C   0  0  0  0  0  0  0  0  0  0  0  0
 -157.4550 -165.5560  109.6948 O   0  0  0  0  0  0  0  0  0  0  0  0
 -158.0921 -166.6327  111.5667 O   0  0  0  0  0  0  0  0  0  0  0  0
 -150.8629 -160.0954  114.3071 C   0  0  0  0  0  0  0  0  0  0  0  0
 -152.0588 -160.6942  115.0661 C   0  0  0  0  0  0  0  0  0  0  0  0
 -149.2589 -157.8489  108.1060 C   0  0  0  0  0  0  0  0  0  0  0  0
 -150.0116 -159.9502  108.8791 O   0  0  0  0  0  0  0  0  0  0  0  0
 -149.8252 -156.6776  107.9037 C   0  0  0  0  0  0  0  0  0  0  0  0
 -149.7464 -155.5657  108.8606 C   0  0  0  0  0  0  0  0  0  0  0  0
 -148.6218 -155.3242  109.6640 C   0  0  0  0  0  0  0  0  0  0  0  0
 -150.7838 -153.5924  109.7698 C   0  0  0  0  0  0  0  0  0  0  0  0
 -150.8180 -154.6612  108.8978 C   0  0  0  0  0  0  0  0  0  0  0  0
 -147.5241 -156.2403  109.6441 N   0  0  0  0  0  0  0  0  0  0  0  0
 -147.2815 -157.3745  108.9805 C   0  0  0  0  0  0  0  0  0  0  0  0
 -146.0402 -157.7333  109.1490 N   0  0  0  0  0  0  0  0  0  0  0  0
 -145.4760 -156.7498  109.8907 N   0  0  0  0  0  0  0  0  0  0  0  0
 -146.3507 -155.8404  110.1940 N   0  0  0  0  0  0  0  0  0  0  0  0
 -154.5259 -161.0560  115.1833 C   0  0  0  0  0  0  0  0  0  0  0  0
 -155.6637 -160.8607  114.8593 O   0  0  0  0  0  0  0  0  0  0  0  0
 -154.1459 -161.4188  116.4065 O   0  0  0  0  0  0  0  0  0  0  0  0
 -155.3168 -163.5133  116.4774 C   0  0  0  0  0  0  0  0  0  0  0  0
 -155.0838 -162.2182  117.2005 C   0  0  0  0  0  0  0  0  0  0  0  0
  1 20  1  0
 29  1  1  6
  1 42  1  1
  2  3  1  0
  2 22  2  0
  3  4  2  0
  3 15  1  0
  4 25  1  0
  5 21  1  0
  5 26  2  0
  5 27  1  0
  6 27  1  6
  8  7  1  6
  7  9  1  1
 28  8  1  6
  9 22  1  0
  9 23  1  6
 10 12  2  0
 10 35  1  0
 11 23  1  0
 11 30  1  0
 11 31  2  0
 12 34  1  0
 13 35  1  0
 14 15  2  0
 14 19  1  0
 14 20  1  0
 15 16  1  0
 16 17  2  0
 17 18  1  0
 18 19  2  0
 18 21  1  0
 22 24  1  0
 24 25  2  0
 28 29  1  0
 30 32  2  0
 32 33  1  0
 33 34  2  0
 33 36  1  0
 34 37  1  0
 35 36  2  0
 37 38  1  0
 37 41  1  0
 38 39  2  0
 39 40  1  0
 40 41  2  0
 42 43  2  0
 42 44  1  0
 46 44  1  6
 45 46  1  6
M  END
$$$$
