
     RDKit          3D

 46 50  0  0  0  0  0  0  0  0999 V2000
  -33.4900   51.4727  -61.1406 C   0  0  2  0  0  0  0  0  0  0  0  0
  -34.6209   48.5923  -62.3422 C   0  0  0  0  0  0  0  0  0  0  0  0
  -34.2800   49.2648  -63.5113 C   0  0  0  0  0  0  0  0  0  0  0  0
  -33.2320   48.7462  -64.2722 C   0  0  0  0  0  0  0  0  0  0  0  0
  -37.1687   54.7157  -66.0139 C   0  0  0  0  0  0  0  0  0  0  0  0
  -35.9387   53.4715  -67.6058 C   0  0  0  0  0  0  0  0  0  0  0  0
  -32.8445   47.2188  -59.7154 C   0  0  0  0  0  0  0  0  0  0  0  0
  -32.4421   48.7234  -59.6967 C   0  0  0  0  0  0  0  0  0  0  0  0
  -34.0900   46.9210  -60.5557 C   0  0  1  0  0  0  0  0  0  0  0  0
  -33.7420   49.7206  -61.6010 C   0  0  0  0  0  0  0  0  0  0  0  0
  -35.5203   45.1155  -59.8181 C   0  0  0  0  0  0  0  0  0  0  0  0
  -33.7066   48.3860  -61.9956 C   0  0  0  0  0  0  0  0  0  0  0  0
  -34.9771   51.8964  -60.5606 Cl  0  0  0  0  0  0  0  0  0  0  0  0
  -35.3253   51.4999  -62.8959 C   0  0  0  0  0  0  0  0  0  0  0  0
  -34.9554   50.5427  -63.8647 C   0  0  0  0  0  0  0  0  0  0  0  0
  -35.3316   50.7547  -65.1986 C   0  0  0  0  0  0  0  0  0  0  0  0
  -36.0569   51.8731  -65.5656 C   0  0  0  0  0  0  0  0  0  0  0  0
  -36.4690   52.7897  -64.6019 C   0  0  0  0  0  0  0  0  0  0  0  0
  -36.0966   52.5936  -63.2741 C   0  0  0  0  0  0  0  0  0  0  0  0
  -34.8881   51.3780  -61.5645 N   0  0  0  0  0  0  0  0  0  0  0  0
  -37.2164   53.9642  -64.8820 N   0  0  0  0  0  0  0  0  0  0  0  0
  -33.8881   47.4847  -61.9466 C   0  0  0  0  0  0  0  0  0  0  0  0
  -34.4655   45.5061  -60.5616 N   0  0  0  0  0  0  0  0  0  0  0  0
  -32.8764   46.9820  -62.6729 N   0  0  0  0  0  0  0  0  0  0  0  0
  -32.5689   47.6188  -63.8214 C   0  0  0  0  0  0  0  0  0  0  0  0
  -37.0801   55.9193  -66.0689 O   0  0  0  0  0  0  0  0  0  0  0  0
  -37.2212   53.9185  -67.0916 O   0  0  0  0  0  0  0  0  0  0  0  0
  -33.5434   49.7005  -59.2354 C   0  0  0  0  0  0  0  0  0  0  0  0
  -33.3357   51.1691  -59.6414 C   0  0  0  0  0  0  0  0  0  0  0  0
  -36.7602   45.9054  -59.9695 C   0  0  0  0  0  0  0  0  0  0  0  0
  -35.4479   44.1781  -59.0344 O   0  0  0  0  0  0  0  0  0  0  0  0
  -36.9198   47.1292  -60.4281 C   0  0  0  0  0  0  0  0  0  0  0  0
  -35.8042   47.9840  -60.8556 C   0  0  0  0  0  0  0  0  0  0  0  0
  -34.7501   47.5236  -61.6588 C   0  0  0  0  0  0  0  0  0  0  0  0
  -34.8375   50.1887  -60.9008 C   0  0  0  0  0  0  0  0  0  0  0  0
  -35.8549   49.3427  -60.5097 C   0  0  0  0  0  0  0  0  0  0  0  0
  -34.6790   46.1405  -62.0143 N   0  0  0  0  0  0  0  0  0  0  0  0
  -33.6981   45.3545  -62.4681 C   0  0  0  0  0  0  0  0  0  0  0  0
  -34.0776   44.1081  -62.4430 N   0  0  0  0  0  0  0  0  0  0  0  0
  -35.3152   44.1168  -61.8917 N   0  0  0  0  0  0  0  0  0  0  0  0
  -35.6922   45.3289  -61.6222 N   0  0  0  0  0  0  0  0  0  0  0  0
  -32.8430   52.8162  -61.4512 C   0  0  0  0  0  0  0  0  0  0  0  0
  -33.4594   53.7824  -61.8036 O   0  0  0  0  0  0  0  0  0  0  0  0
  -31.5197   52.7806  -61.3108 O   0  0  0  0  0  0  0  0  0  0  0  0
  -29.3157   53.5821  -61.8238 C   0  0  0  0  0  0  0  0  0  0  0  0
  -30.7079   53.4073  -62.3584 C   0  0  0  0  0  0  0  0  0  0  0  0
  1 20  1  0
 29  1  1  6
  1 42  1  1
  2  3  1  0
  2 22  2  0
  3  4  2  0
  3 15  1  0
  4 25  1  0
  5 21  1  0
  5 26  2  0
  5 27  1  0
  6 27  1  6
  8  7  1  6
  7  9  1  1
 28  8  1  6
  9 22  1  0
  9 23  1  6
 10 12  2  0
 10 35  1  0
 11 23  1  0
 11 30  1  0
 11 31  2  0
 12 34  1  0
 13 35  1  0
 14 15  2  0
 14 19  1  0
 14 20  1  0
 15 16  1  0
 16 17  2  0
 17 18  1  0
 18 19  2  0
 18 21  1  0
 22 24  1  0
 24 25  2  0
 28 29  1  0
 30 32  2  0
 32 33  1  0
 33 34  2  0
 33 36  1  0
 34 37  1  0
 35 36  2  0
 37 38  1  0
 37 41  1  0
 38 39  2  0
 39 40  1  0
 40 41  2  0
 42 43  2  0
 42 44  1  0
 46 44  1  6
 45 46  1  6
M  END
$$$$
