
     RDKit          3D

 46 50  0  0  0  0  0  0  0  0999 V2000
-11694.2979-14675.1279 2086.3010 C   0  0  2  0  0  0  0  0  0  0  0  0
-11696.3809-14674.7422 2088.8564 C   0  0  0  0  0  0  0  0  0  0  0  0
-11696.7861-14673.7148 2088.0103 C   0  0  0  0  0  0  0  0  0  0  0  0
-11698.0674-14673.8018 2087.4592 C   0  0  0  0  0  0  0  0  0  0  0  0
-11693.3838-14668.1270 2086.7839 C   0  0  0  0  0  0  0  0  0  0  0  0
-11692.8789-14667.1904 2088.8958 C   0  0  0  0  0  0  0  0  0  0  0  0
-11696.5566-14678.1904 2088.7625 C   0  0  0  0  0  0  0  0  0  0  0  0
-11695.7412-14677.8213 2087.4883 C   0  0  0  0  0  0  0  0  0  0  0  0
-11696.6699-14677.0508 2089.7786 C   0  0  1  0  0  0  0  0  0  0  0  0
-11700.3105-14680.6494 2093.5417 C   0  0  0  0  0  0  0  0  0  0  0  0
-11697.5918-14676.4824 2091.9417 C   0  0  0  0  0  0  0  0  0  0  0  0
-11700.6270-14679.3711 2093.9978 C   0  0  0  0  0  0  0  0  0  0  0  0
-11698.6318-14682.4805 2092.4597 Cl  0  0  0  0  0  0  0  0  0  0  0  0
-11694.4639-14672.8584 2087.4275 C   0  0  0  0  0  0  0  0  0  0  0  0
-11695.8408-14672.6309 2087.6421 C   0  0  0  0  0  0  0  0  0  0  0  0
-11696.3145-14671.3096 2087.6096 C   0  0  0  0  0  0  0  0  0  0  0  0
-11695.4600-14670.2480 2087.3806 C   0  0  0  0  0  0  0  0  0  0  0  0
-11694.0928-14670.4717 2087.2236 C   0  0  0  0  0  0  0  0  0  0  0  0
-11693.6094-14671.7783 2087.2468 C   0  0  0  0  0  0  0  0  0  0  0  0
-11693.9590-14674.1699 2087.3547 N   0  0  0  0  0  0  0  0  0  0  0  0
-11693.1387-14669.4482 2086.9851 N   0  0  0  0  0  0  0  0  0  0  0  0
-11697.2168-14675.8242 2089.0769 C   0  0  0  0  0  0  0  0  0  0  0  0
-11697.4336-14677.4102 2090.9758 N   0  0  0  0  0  0  0  0  0  0  0  0
-11698.4482-14675.9150 2088.5479 N   0  0  0  0  0  0  0  0  0  0  0  0
-11698.8516-14674.9004 2087.7524 C   0  0  0  0  0  0  0  0  0  0  0  0
-11694.2500-14667.6582 2086.0808 O   0  0  0  0  0  0  0  0  0  0  0  0
-11692.5254-14667.3896 2087.5022 O   0  0  0  0  0  0  0  0  0  0  0  0
-11694.3135-14677.2979 2087.7417 C   0  0  0  0  0  0  0  0  0  0  0  0
-11693.6807-14676.5078 2086.5813 C   0  0  0  0  0  0  0  0  0  0  0  0
-11696.9717-14676.7871 2093.2500 C   0  0  0  0  0  0  0  0  0  0  0  0
-11698.2383-14675.4590 2091.7588 O   0  0  0  0  0  0  0  0  0  0  0  0
-11697.1768-14677.8037 2094.0554 C   0  0  0  0  0  0  0  0  0  0  0  0
-11698.2900-14678.7529 2093.8933 C   0  0  0  0  0  0  0  0  0  0  0  0
-11699.6250-14678.4092 2094.1384 C   0  0  0  0  0  0  0  0  0  0  0  0
-11699.0098-14680.9414 2093.2014 C   0  0  0  0  0  0  0  0  0  0  0  0
-11697.9941-14680.0244 2093.3838 C   0  0  0  0  0  0  0  0  0  0  0  0
-11699.9434-14677.1201 2094.6638 N   0  0  0  0  0  0  0  0  0  0  0  0
-11700.1621-14676.6514 2095.8992 C   0  0  0  0  0  0  0  0  0  0  0  0
-11700.2129-14675.3496 2095.8806 N   0  0  0  0  0  0  0  0  0  0  0  0
-11699.9521-14674.9971 2094.5996 N   0  0  0  0  0  0  0  0  0  0  0  0
-11699.7852-14676.0400 2093.8538 N   0  0  0  0  0  0  0  0  0  0  0  0
-11693.8955-14674.6719 2084.9041 C   0  0  0  0  0  0  0  0  0  0  0  0
-11694.6514-14674.1387 2084.1409 O   0  0  0  0  0  0  0  0  0  0  0  0
-11692.6289-14674.9629 2084.6262 O   0  0  0  0  0  0  0  0  0  0  0  0
-11691.4844-14672.9756 2085.3372 C   0  0  0  0  0  0  0  0  0  0  0  0
-11691.7686-14673.8672 2084.1648 C   0  0  0  0  0  0  0  0  0  0  0  0
  1 20  1  0
 29  1  1  6
  1 42  1  6
  2  3  1  0
  2 22  2  0
  3  4  2  0
  3 15  1  0
  4 25  1  0
  5 21  1  0
  5 26  2  0
  5 27  1  0
  6 27  1  6
  8  7  1  6
  7  9  1  1
 28  8  1  6
  9 22  1  0
  9 23  1  1
 10 12  2  0
 10 35  1  0
 11 23  1  0
 11 30  1  0
 11 31  2  0
 12 34  1  0
 13 35  1  0
 14 15  2  0
 14 19  1  0
 14 20  1  0
 15 16  1  0
 16 17  2  0
 17 18  1  0
 18 19  2  0
 18 21  1  0
 22 24  1  0
 24 25  2  0
 28 29  1  0
 30 32  2  0
 32 33  1  0
 33 34  2  0
 33 36  1  0
 34 37  1  0
 35 36  2  0
 37 38  1  0
 37 41  1  0
 38 39  2  0
 39 40  1  0
 40 41  2  0
 42 43  2  0
 42 44  1  0
 46 44  1  6
 45 46  1  6
M  END
$$$$
