
     RDKit          3D

 46 50  0  0  0  0  0  0  0  0999 V2000
   -9.6114  -35.0806   47.0675 C   0  0  2  0  0  0  0  0  0  0  0  0
  -12.1915  -35.9206   45.1553 C   0  0  0  0  0  0  0  0  0  0  0  0
  -12.8089  -35.1344   46.1229 C   0  0  0  0  0  0  0  0  0  0  0  0
  -13.3708  -33.9258   45.7107 C   0  0  0  0  0  0  0  0  0  0  0  0
  -12.9376  -36.3075   52.6629 C   0  0  0  0  0  0  0  0  0  0  0  0
  -14.2467  -37.6748   54.0814 C   0  0  0  0  0  0  0  0  0  0  0  0
   -9.9963  -35.3099   42.5572 C   0  0  0  0  0  0  0  0  0  0  0  0
   -9.2259  -34.8288   43.8225 C   0  0  0  0  0  0  0  0  0  0  0  0
  -11.2098  -36.1913   42.8684 C   0  0  1  0  0  0  0  0  0  0  0  0
  -10.1957  -41.5278   45.6732 C   0  0  0  0  0  0  0  0  0  0  0  0
  -11.3137  -37.5247   40.8535 C   0  0  0  0  0  0  0  0  0  0  0  0
   -9.1813  -40.7491   45.1231 C   0  0  0  0  0  0  0  0  0  0  0  0
  -12.7300  -42.4834   45.7516 Cl  0  0  0  0  0  0  0  0  0  0  0  0
  -11.6458  -36.1591   48.1390 C   0  0  0  0  0  0  0  0  0  0  0  0
  -12.7712  -35.5404   47.5539 C   0  0  0  0  0  0  0  0  0  0  0  0
  -13.9359  -35.3976   48.3214 C   0  0  0  0  0  0  0  0  0  0  0  0
  -13.9921  -35.8571   49.6242 C   0  0  0  0  0  0  0  0  0  0  0  0
  -12.9006  -36.5163   50.1834 C   0  0  0  0  0  0  0  0  0  0  0  0
  -11.7355  -36.6594   49.4335 C   0  0  0  0  0  0  0  0  0  0  0  0
  -10.4272  -36.2375   47.4407 N   0  0  0  0  0  0  0  0  0  0  0  0
  -12.8651  -37.0233   51.5094 N   0  0  0  0  0  0  0  0  0  0  0  0
  -12.1041  -35.4633   43.8501 C   0  0  0  0  0  0  0  0  0  0  0  0
  -11.9233  -36.6453   41.6736 N   0  0  0  0  0  0  0  0  0  0  0  0
  -12.6404  -34.2997   43.4473 N   0  0  0  0  0  0  0  0  0  0  0  0
  -13.2649  -33.5548   44.3822 C   0  0  0  0  0  0  0  0  0  0  0  0
  -12.0751  -35.5928   53.1154 O   0  0  0  0  0  0  0  0  0  0  0  0
  -14.1337  -36.4961   53.2407 O   0  0  0  0  0  0  0  0  0  0  0  0
   -8.7429  -35.9452   44.7715 C   0  0  0  0  0  0  0  0  0  0  0  0
   -8.4092  -35.4960   46.2039 C   0  0  0  0  0  0  0  0  0  0  0  0
  -10.4741  -38.5546   41.5007 C   0  0  0  0  0  0  0  0  0  0  0  0
  -11.4213  -37.4564   39.6362 O   0  0  0  0  0  0  0  0  0  0  0  0
  -10.7729  -39.7969   41.8183 C   0  0  0  0  0  0  0  0  0  0  0  0
  -10.5296  -40.3721   43.1481 C   0  0  0  0  0  0  0  0  0  0  0  0
   -9.3561  -40.1394   43.8806 C   0  0  0  0  0  0  0  0  0  0  0  0
  -11.3892  -41.6627   44.9899 C   0  0  0  0  0  0  0  0  0  0  0  0
  -11.5648  -41.1144   43.7360 C   0  0  0  0  0  0  0  0  0  0  0  0
   -8.2881  -39.3915   43.2936 N   0  0  0  0  0  0  0  0  0  0  0  0
   -7.3685  -39.6707   42.3652 C   0  0  0  0  0  0  0  0  0  0  0  0
   -6.7405  -38.5829   42.0180 N   0  0  0  0  0  0  0  0  0  0  0  0
   -7.3384  -37.5827   42.7092 N   0  0  0  0  0  0  0  0  0  0  0  0
   -8.2748  -38.0479   43.4777 N   0  0  0  0  0  0  0  0  0  0  0  0
   -9.1192  -34.2661   48.2568 C   0  0  0  0  0  0  0  0  0  0  0  0
   -9.2486  -34.6140   49.3968 O   0  0  0  0  0  0  0  0  0  0  0  0
   -8.5567  -33.1193   47.8815 O   0  0  0  0  0  0  0  0  0  0  0  0
   -6.3413  -33.1583   48.8056 C   0  0  0  0  0  0  0  0  0  0  0  0
   -7.6670  -32.4538   48.8379 C   0  0  0  0  0  0  0  0  0  0  0  0
  1 20  1  0
 29  1  1  6
  1 42  1  1
  2  3  1  0
  2 22  2  0
  3  4  2  0
  3 15  1  0
  4 25  1  0
  5 21  1  0
  5 26  2  0
  5 27  1  0
  6 27  1  6
  8  7  1  6
  7  9  1  1
 28  8  1  6
  9 22  1  0
  9 23  1  6
 10 12  2  0
 10 35  1  0
 11 23  1  0
 11 30  1  0
 11 31  2  0
 12 34  1  0
 13 35  1  0
 14 15  2  0
 14 19  1  0
 14 20  1  0
 15 16  1  0
 16 17  2  0
 17 18  1  0
 18 19  2  0
 18 21  1  0
 22 24  1  0
 24 25  2  0
 28 29  1  0
 30 32  2  0
 32 33  1  0
 33 34  2  0
 33 36  1  0
 34 37  1  0
 35 36  2  0
 37 38  1  0
 37 41  1  0
 38 39  2  0
 39 40  1  0
 40 41  2  0
 42 43  2  0
 42 44  1  0
 46 44  1  6
 45 46  1  6
M  END
$$$$
