
     RDKit          3D

 32 34  0  0  0  0  0  0  0  0999 V2000
   29.6691    3.8539   59.3622 N   0  0  0  0  0  0  0  0  0  0  0  0
   26.3496    4.7307   58.5911 C   0  0  0  0  0  0  0  0  0  0  0  0
   24.9462    7.1004   56.4189 C   0  0  0  0  0  0  0  0  0  0  0  0
   25.4497    5.4145   58.0230 N   0  0  0  0  0  0  0  0  0  0  0  0
   25.3719    7.7885   55.2898 C   0  0  0  0  0  0  0  0  0  0  0  0
   27.3628    3.2077   59.9926 C   0  0  0  0  0  0  0  0  0  0  0  0
   24.9519    3.0618   60.0400 C   0  0  0  0  0  0  0  0  0  0  0  0
   26.1206    3.6551   59.5642 C   0  0  0  0  0  0  0  0  0  0  0  0
   25.8744    6.3558   57.1685 N   0  0  0  0  0  0  0  0  0  0  0  0
   25.0599    2.0199   60.9564 C   0  0  0  0  0  0  0  0  0  0  0  0
   26.3066    1.5833   61.3986 C   0  0  0  0  0  0  0  0  0  0  0  0
   27.4663    2.1720   60.9251 C   0  0  0  0  0  0  0  0  0  0  0  0
   27.7521    4.8448   58.4557 N   0  0  0  0  0  0  0  0  0  0  0  0
   28.3595    3.9764   59.2710 C   0  0  0  0  0  0  0  0  0  0  0  0
   24.4780    8.5514   54.5564 C   0  0  0  0  0  0  0  0  0  0  0  0
   23.1519    8.6070   54.9203 C   0  0  0  0  0  0  0  0  0  0  0  0
   22.7115    7.8897   56.0094 C   0  0  0  0  0  0  0  0  0  0  0  0
   23.6033    7.1528   56.7757 C   0  0  0  0  0  0  0  0  0  0  0  0
   30.2834    4.4580   58.7978 H   0  0  0  0  0  0  0  0  0  0  0  0
   30.0778    3.1541   59.9979 H   0  0  0  0  0  0  0  0  0  0  0  0
   24.4484    5.2571   58.2064 H   0  0  0  0  0  0  0  0  0  0  0  0
   26.4245    7.7273   54.9763 H   0  0  0  0  0  0  0  0  0  0  0  0
   23.9659    3.4096   59.6984 H   0  0  0  0  0  0  0  0  0  0  0  0
   26.8831    6.5342   57.0605 H   0  0  0  0  0  0  0  0  0  0  0  0
   24.1488    1.5348   61.3365 H   0  0  0  0  0  0  0  0  0  0  0  0
   26.3699    0.7642   62.1300 H   0  0  0  0  0  0  0  0  0  0  0  0
   28.4514    1.8309   61.2762 H   0  0  0  0  0  0  0  0  0  0  0  0
   28.2341    5.4994   57.8232 H   0  0  0  0  0  0  0  0  0  0  0  0
   24.8295    9.1151   53.6797 H   0  0  0  0  0  0  0  0  0  0  0  0
   22.4464    9.2225   54.3429 H   0  0  0  0  0  0  0  0  0  0  0  0
   21.6440    7.9007   56.2744 H   0  0  0  0  0  0  0  0  0  0  0  0
   23.2482    6.6107   57.6646 H   0  0  0  0  0  0  0  0  0  0  0  0
  1 14  2  0
  2  4  2  3
  2  8  1  0
  2 13  1  0
  3  5  2  0
  3  9  1  0
  3 18  1  0
  4  9  1  0
  5 15  1  0
  6  8  1  0
  6 12  2  0
  6 14  1  0
  7  8  2  0
  7 10  1  0
 10 11  2  0
 11 12  1  0
 13 14  1  0
 15 16  2  0
 16 17  1  0
 17 18  2  0
  1 19  1  0
  1 20  1  0
  4 21  1  0
  5 22  1  0
  7 23  1  0
  9 24  1  0
 10 25  1  0
 11 26  1  0
 12 27  1  0
 13 28  1  0
 15 29  1  0
 16 30  1  0
 17 31  1  0
 18 32  1  0
M  CHG  2   1   1   4   1
M  END
>  <filename_input>  (1) 
5SAK_ZRY_docked.sdf

>  <pdb_id>  (1) 
5SAK_ZRY

>  <pose_rank>  (1) 
0

>  <num_atoms_heavy>  (1) 
18

>  <num_torsions>  (1) 
2

>  <pose>  (1) 
[29.669067132502683, 3.8539198362593288, 59.362228968847404, 0.03621360894699501, -0.06443057640632957, 0.06611344002134004, -0.10765824622334397, 6.6594609126725794]

>  <energy>  (1) 
-900.5820258731152

>  <inter_energy>  (1) 
-867.0020175124156

>  <intra_energy>  (1) 
0.0

>  <rmsd>  (1) 
0.471383

>  <sdf_rank>  (1) 
0

$$$$

     RDKit          3D

 32 34  0  0  0  0  0  0  0  0999 V2000
   23.2487    1.4265   59.7908 N   0  0  0  0  0  0  0  0  0  0  0  0
   24.9590    4.3383   58.8017 C   0  0  0  0  0  0  0  0  0  0  0  0
   24.0316    6.9994   56.7384 C   0  0  0  0  0  0  0  0  0  0  0  0
   25.0694    5.4619   58.2310 N   0  0  0  0  0  0  0  0  0  0  0  0
   25.2537    7.6150   56.4993 C   0  0  0  0  0  0  0  0  0  0  0  0
   25.5249    2.3958   59.9048 C   0  0  0  0  0  0  0  0  0  0  0  0
   27.3732    3.9410   59.7246 C   0  0  0  0  0  0  0  0  0  0  0  0
   26.0440    3.6069   59.4679 C   0  0  0  0  0  0  0  0  0  0  0  0
   23.9529    5.9549   57.6770 N   0  0  0  0  0  0  0  0  0  0  0  0
   28.1656    3.0322   60.4197 C   0  0  0  0  0  0  0  0  0  0  0  0
   27.6482    1.8100   60.8425 C   0  0  0  0  0  0  0  0  0  0  0  0
   26.3284    1.4793   60.5883 C   0  0  0  0  0  0  0  0  0  0  0  0
   23.8098    3.5229   58.9139 N   0  0  0  0  0  0  0  0  0  0  0  0
   24.1203    2.3837   59.5414 C   0  0  0  0  0  0  0  0  0  0  0  0
   25.3445    8.6652   55.6007 C   0  0  0  0  0  0  0  0  0  0  0  0
   24.2306    9.0861   54.9106 C   0  0  0  0  0  0  0  0  0  0  0  0
   23.0255    8.4502   55.1052 C   0  0  0  0  0  0  0  0  0  0  0  0
   22.9119    7.4227   56.0309 C   0  0  0  0  0  0  0  0  0  0  0  0
   22.2709    1.5273   59.4832 H   0  0  0  0  0  0  0  0  0  0  0  0
   23.5456    0.5778   60.2933 H   0  0  0  0  0  0  0  0  0  0  0  0
   25.9654    5.9685   58.1941 H   0  0  0  0  0  0  0  0  0  0  0  0
   26.1541    7.2666   57.0264 H   0  0  0  0  0  0  0  0  0  0  0  0
   27.7865    4.9022   59.3851 H   0  0  0  0  0  0  0  0  0  0  0  0
   23.0351    5.5680   57.9393 H   0  0  0  0  0  0  0  0  0  0  0  0
   29.2143    3.2823   60.6380 H   0  0  0  0  0  0  0  0  0  0  0  0
   28.2938    1.1018   61.3828 H   0  0  0  0  0  0  0  0  0  0  0  0
   25.9195    0.5129   60.9183 H   0  0  0  0  0  0  0  0  0  0  0  0
   22.8728    3.7695   58.5645 H   0  0  0  0  0  0  0  0  0  0  0  0
   26.3109    9.1649   55.4380 H   0  0  0  0  0  0  0  0  0  0  0  0
   24.3032    9.9276   54.2059 H   0  0  0  0  0  0  0  0  0  0  0  0
   22.1453    8.7591   54.5222 H   0  0  0  0  0  0  0  0  0  0  0  0
   21.9371    6.9436   56.2048 H   0  0  0  0  0  0  0  0  0  0  0  0
  1 14  2  0
  2  4  2  3
  2  8  1  0
  2 13  1  0
  3  5  2  0
  3  9  1  0
  3 18  1  0
  4  9  1  0
  5 15  1  0
  6  8  1  0
  6 12  2  0
  6 14  1  0
  7  8  2  0
  7 10  1  0
 10 11  2  0
 11 12  1  0
 13 14  1  0
 15 16  2  0
 16 17  1  0
 17 18  2  0
  1 19  1  0
  1 20  1  0
  4 21  1  0
  5 22  1  0
  7 23  1  0
  9 24  1  0
 10 25  1  0
 11 26  1  0
 12 27  1  0
 13 28  1  0
 15 29  1  0
 16 30  1  0
 17 31  1  0
 18 32  1  0
M  CHG  2   1   1   4   1
M  END
>  <filename_input>  (2) 
5SAK_ZRY_docked.sdf

>  <pdb_id>  (2) 
5SAK_ZRY

>  <pose_rank>  (2) 
1

>  <num_atoms_heavy>  (2) 
18

>  <num_torsions>  (2) 
2

>  <pose>  (2) 
[23.248726753055635, 1.426474439003566, 59.79081628464255, -0.8787912092792166, 2.0582986761826896, -1.54785872973853, 0.2595979687159722, -3.2026858626099717]

>  <energy>  (2) 
-592.1079754387607

>  <inter_energy>  (2) 
-592.1096556862234

>  <intra_energy>  (2) 
0.0

>  <rmsd>  (2) 
2.53369

>  <sdf_rank>  (2) 
0

$$$$

     RDKit          3D

 32 34  0  0  0  0  0  0  0  0999 V2000
   28.8337    3.2909   59.0669 N   0  0  0  0  0  0  0  0  0  0  0  0
   25.5617    4.3992   58.3978 C   0  0  0  0  0  0  0  0  0  0  0  0
   24.2711    6.9591   56.3746 C   0  0  0  0  0  0  0  0  0  0  0  0
   24.6953    5.1502   57.8634 N   0  0  0  0  0  0  0  0  0  0  0  0
   22.9752    6.5450   56.0936 C   0  0  0  0  0  0  0  0  0  0  0  0
   26.5066    2.7911   59.7511 C   0  0  0  0  0  0  0  0  0  0  0  0
   24.0934    2.8061   59.8620 C   0  0  0  0  0  0  0  0  0  0  0  0
   25.2865    3.3270   59.3625 C   0  0  0  0  0  0  0  0  0  0  0  0
   25.1599    6.0736   57.0101 N   0  0  0  0  0  0  0  0  0  0  0  0
   24.1550    1.7457   60.7613 C   0  0  0  0  0  0  0  0  0  0  0  0
   25.3806    1.2201   61.1637 C   0  0  0  0  0  0  0  0  0  0  0  0
   26.5646    1.7369   60.6666 C   0  0  0  0  0  0  0  0  0  0  0  0
   26.9647    4.4213   58.2258 N   0  0  0  0  0  0  0  0  0  0  0  0
   27.5335    3.5021   59.0129 C   0  0  0  0  0  0  0  0  0  0  0  0
   22.0953    7.3929   55.4412 C   0  0  0  0  0  0  0  0  0  0  0  0
   22.4865    8.6664   55.0958 C   0  0  0  0  0  0  0  0  0  0  0  0
   23.7528    9.1020   55.4134 C   0  0  0  0  0  0  0  0  0  0  0  0
   24.6571    8.2502   56.0318 C   0  0  0  0  0  0  0  0  0  0  0  0
   29.4723    3.8609   58.4940 H   0  0  0  0  0  0  0  0  0  0  0  0
   29.2110    2.5558   59.6819 H   0  0  0  0  0  0  0  0  0  0  0  0
   23.6909    5.0573   58.0718 H   0  0  0  0  0  0  0  0  0  0  0  0
   22.6461    5.5383   56.3908 H   0  0  0  0  0  0  0  0  0  0  0  0
   23.1244    3.2242   59.5519 H   0  0  0  0  0  0  0  0  0  0  0  0
   26.1702    6.1349   56.8195 H   0  0  0  0  0  0  0  0  0  0  0  0
   23.2236    1.3170   61.1596 H   0  0  0  0  0  0  0  0  0  0  0  0
   25.4078    0.3877   61.8822 H   0  0  0  0  0  0  0  0  0  0  0  0
   27.5333    1.3254   60.9864 H   0  0  0  0  0  0  0  0  0  0  0  0
   27.4729    5.0515   57.5892 H   0  0  0  0  0  0  0  0  0  0  0  0
   21.0798    7.0469   55.1981 H   0  0  0  0  0  0  0  0  0  0  0  0
   21.7894    9.3337   54.5678 H   0  0  0  0  0  0  0  0  0  0  0  0
   24.0506   10.1338   55.1751 H   0  0  0  0  0  0  0  0  0  0  0  0
   25.6782    8.5960   56.2505 H   0  0  0  0  0  0  0  0  0  0  0  0
  1 14  2  0
  2  4  2  3
  2  8  1  0
  2 13  1  0
  3  5  2  0
  3  9  1  0
  3 18  1  0
  4  9  1  0
  5 15  1  0
  6  8  1  0
  6 12  2  0
  6 14  1  0
  7  8  2  0
  7 10  1  0
 10 11  2  0
 11 12  1  0
 13 14  1  0
 15 16  2  0
 16 17  1  0
 17 18  2  0
  1 19  1  0
  1 20  1  0
  4 21  1  0
  5 22  1  0
  7 23  1  0
  9 24  1  0
 10 25  1  0
 11 26  1  0
 12 27  1  0
 13 28  1  0
 15 29  1  0
 16 30  1  0
 17 31  1  0
 18 32  1  0
M  CHG  2   1   1   4   1
M  END
>  <filename_input>  (3) 
5SAK_ZRY_docked.sdf

>  <pdb_id>  (3) 
5SAK_ZRY

>  <pose_rank>  (3) 
2

>  <num_atoms_heavy>  (3) 
18

>  <num_torsions>  (3) 
2

>  <pose>  (3) 
[28.833744790805145, 3.2908809518918414, 59.06686282244701, -4.845333387395759, 3.8958249544601884, 0.19394103953622022, -0.021236873539021435, 2.6707268387212157]

>  <energy>  (3) 
-663.2902810270182

>  <inter_energy>  (3) 
-658.2635315321597

>  <intra_energy>  (3) 
0.0

>  <rmsd>  (3) 
0.614545

>  <sdf_rank>  (3) 
0

$$$$

     RDKit          3D

 32 34  0  0  0  0  0  0  0  0999 V2000
   29.5541    3.6255   58.8008 N   0  0  0  0  0  0  0  0  0  0  0  0
   26.2393    4.6505   58.2148 C   0  0  0  0  0  0  0  0  0  0  0  0
   24.8544    7.1924   56.2385 C   0  0  0  0  0  0  0  0  0  0  0  0
   25.3392    5.3603   57.6798 N   0  0  0  0  0  0  0  0  0  0  0  0
   23.7334    7.5535   56.9752 C   0  0  0  0  0  0  0  0  0  0  0  0
   27.2659    3.1282   59.6072 C   0  0  0  0  0  0  0  0  0  0  0  0
   24.8595    3.1140   59.8189 C   0  0  0  0  0  0  0  0  0  0  0  0
   26.0220    3.6256   59.2436 C   0  0  0  0  0  0  0  0  0  0  0  0
   25.7527    6.2451   56.7618 N   0  0  0  0  0  0  0  0  0  0  0  0
   24.9758    2.1025   60.7677 C   0  0  0  0  0  0  0  0  0  0  0  0
   26.2255    1.6161   61.1442 C   0  0  0  0  0  0  0  0  0  0  0  0
   27.3792    2.1236   60.5720 C   0  0  0  0  0  0  0  0  0  0  0  0
   27.6334    4.6839   57.9829 N   0  0  0  0  0  0  0  0  0  0  0  0
   28.2494    3.8149   58.7910 C   0  0  0  0  0  0  0  0  0  0  0  0
   22.8221    8.4622   56.4629 C   0  0  0  0  0  0  0  0  0  0  0  0
   23.0368    9.0419   55.2333 C   0  0  0  0  0  0  0  0  0  0  0  0
   24.1695    8.7266   54.5176 C   0  0  0  0  0  0  0  0  0  0  0  0
   25.0708    7.7888   55.0012 C   0  0  0  0  0  0  0  0  0  0  0  0
   30.1589    4.1744   58.1732 H   0  0  0  0  0  0  0  0  0  0  0  0
   29.9687    2.9287   59.4361 H   0  0  0  0  0  0  0  0  0  0  0  0
   24.3459    5.2639   57.9349 H   0  0  0  0  0  0  0  0  0  0  0  0
   23.5685    7.1155   57.9706 H   0  0  0  0  0  0  0  0  0  0  0  0
   23.8716    3.5016   59.5290 H   0  0  0  0  0  0  0  0  0  0  0  0
   26.7306    6.2312   56.4388 H   0  0  0  0  0  0  0  0  0  0  0  0
   24.0689    1.6815   61.2262 H   0  0  0  0  0  0  0  0  0  0  0  0
   26.2962    0.8223   61.9025 H   0  0  0  0  0  0  0  0  0  0  0  0
   28.3670    1.7431   60.8711 H   0  0  0  0  0  0  0  0  0  0  0  0
   28.1044    5.2877   57.2941 H   0  0  0  0  0  0  0  0  0  0  0  0
   21.9230    8.7216   57.0412 H   0  0  0  0  0  0  0  0  0  0  0  0
   22.3059    9.7547   54.8239 H   0  0  0  0  0  0  0  0  0  0  0  0
   24.3618    9.2220   53.5545 H   0  0  0  0  0  0  0  0  0  0  0  0
   25.9554    7.5175   54.4064 H   0  0  0  0  0  0  0  0  0  0  0  0
  1 14  2  0
  2  4  2  3
  2  8  1  0
  2 13  1  0
  3  5  2  0
  3  9  1  0
  3 18  1  0
  4  9  1  0
  5 15  1  0
  6  8  1  0
  6 12  2  0
  6 14  1  0
  7  8  2  0
  7 10  1  0
 10 11  2  0
 11 12  1  0
 13 14  1  0
 15 16  2  0
 16 17  1  0
 17 18  2  0
  1 19  1  0
  1 20  1  0
  4 21  1  0
  5 22  1  0
  7 23  1  0
  9 24  1  0
 10 25  1  0
 11 26  1  0
 12 27  1  0
 13 28  1  0
 15 29  1  0
 16 30  1  0
 17 31  1  0
 18 32  1  0
M  CHG  2   1   1   4   1
M  END
>  <filename_input>  (4) 
5SAK_ZRY_docked.sdf

>  <pdb_id>  (4) 
5SAK_ZRY

>  <pose_rank>  (4) 
3

>  <num_atoms_heavy>  (4) 
18

>  <num_torsions>  (4) 
2

>  <pose>  (4) 
[29.554148403848274, 3.625509860401714, 58.80081826573115, -0.936725046199849, 1.2504302204400233, 6.100254759989836, -6.169707067118379, -2.664366288336116]

>  <energy>  (4) 
-796.2467728838055

>  <inter_energy>  (4) 
-784.2069900915442

>  <intra_energy>  (4) 
0.0

>  <rmsd>  (4) 
0.420256

>  <sdf_rank>  (4) 
0

$$$$

     RDKit          3D

 32 34  0  0  0  0  0  0  0  0999 V2000
   20.6024    6.5747   56.2419 N   0  0  0  0  0  0  0  0  0  0  0  0
   24.0182    6.1944   56.9969 C   0  0  0  0  0  0  0  0  0  0  0  0
   25.7773    3.9252   59.0069 C   0  0  0  0  0  0  0  0  0  0  0  0
   25.0066    5.6837   57.5989 N   0  0  0  0  0  0  0  0  0  0  0  0
   25.5272    2.6437   59.4812 C   0  0  0  0  0  0  0  0  0  0  0  0
   22.7776    7.6102   55.6677 C   0  0  0  0  0  0  0  0  0  0  0  0
   25.1523    8.0270   55.5158 C   0  0  0  0  0  0  0  0  0  0  0  0
   24.0789    7.3159   56.0510 C   0  0  0  0  0  0  0  0  0  0  0  0
   24.7320    4.6666   58.4276 N   0  0  0  0  0  0  0  0  0  0  0  0
   24.8886    9.0395   54.5981 C   0  0  0  0  0  0  0  0  0  0  0  0
   23.5812    9.3453   54.2273 C   0  0  0  0  0  0  0  0  0  0  0  0
   22.5161    8.6383   54.7580 C   0  0  0  0  0  0  0  0  0  0  0  0
   22.6530    5.8425   57.1006 N   0  0  0  0  0  0  0  0  0  0  0  0
   21.9139    6.6613   56.3449 C   0  0  0  0  0  0  0  0  0  0  0  0
   26.5371    1.9102   60.0820 C   0  0  0  0  0  0  0  0  0  0  0  0
   27.8068    2.4314   60.1836 C   0  0  0  0  0  0  0  0  0  0  0  0
   28.0753    3.6810   59.6730 C   0  0  0  0  0  0  0  0  0  0  0  0
   27.0643    4.4423   59.1038 C   0  0  0  0  0  0  0  0  0  0  0  0
   20.0904    5.8562   56.7736 H   0  0  0  0  0  0  0  0  0  0  0  0
   20.0898    7.2254   55.6298 H   0  0  0  0  0  0  0  0  0  0  0  0
   25.9669    6.0295   57.4604 H   0  0  0  0  0  0  0  0  0  0  0  0
   24.5218    2.2091   59.3792 H   0  0  0  0  0  0  0  0  0  0  0  0
   26.1853    7.7928   55.8127 H   0  0  0  0  0  0  0  0  0  0  0  0
   23.7530    4.4275   58.6406 H   0  0  0  0  0  0  0  0  0  0  0  0
   25.7236    9.6057   54.1597 H   0  0  0  0  0  0  0  0  0  0  0  0
   23.3937   10.1552   53.5070 H   0  0  0  0  0  0  0  0  0  0  0  0
   21.4830    8.8813   54.4690 H   0  0  0  0  0  0  0  0  0  0  0  0
   22.2829    5.0703   57.6730 H   0  0  0  0  0  0  0  0  0  0  0  0
   26.3234    0.9070   60.4794 H   0  0  0  0  0  0  0  0  0  0  0  0
   28.6041    1.8513   60.6712 H   0  0  0  0  0  0  0  0  0  0  0  0
   29.0997    4.0795   59.7166 H   0  0  0  0  0  0  0  0  0  0  0  0
   27.2809    5.4538   58.7297 H   0  0  0  0  0  0  0  0  0  0  0  0
  1 14  2  0
  2  4  2  3
  2  8  1  0
  2 13  1  0
  3  5  2  0
  3  9  1  0
  3 18  1  0
  4  9  1  0
  5 15  1  0
  6  8  1  0
  6 12  2  0
  6 14  1  0
  7  8  2  0
  7 10  1  0
 10 11  2  0
 11 12  1  0
 13 14  1  0
 15 16  2  0
 16 17  1  0
 17 18  2  0
  1 19  1  0
  1 20  1  0
  4 21  1  0
  5 22  1  0
  7 23  1  0
  9 24  1  0
 10 25  1  0
 11 26  1  0
 12 27  1  0
 13 28  1  0
 15 29  1  0
 16 30  1  0
 17 31  1  0
 18 32  1  0
M  CHG  2   1   1   4   1
M  END
>  <filename_input>  (5) 
5SAK_ZRY_docked.sdf

>  <pdb_id>  (5) 
5SAK_ZRY

>  <pose_rank>  (5) 
4

>  <num_atoms_heavy>  (5) 
18

>  <num_torsions>  (5) 
2

>  <pose>  (5) 
[20.602381632500364, 6.574650045920333, 56.24191810788718, 0.004548311527508152, -2.0459308157119183, -2.2253389641924803, -12.738010874213455, 6.719326657359991]

>  <energy>  (5) 
-555.946756021682

>  <inter_energy>  (5) 
-530.4173502140474

>  <intra_energy>  (5) 
0.0

>  <rmsd>  (5) 
7.15436

>  <sdf_rank>  (5) 
0

$$$$

     RDKit          3D

 32 34  0  0  0  0  0  0  0  0999 V2000
   29.0923    3.4674   59.2503 N   0  0  0  0  0  0  0  0  0  0  0  0
   25.7797    4.4844   58.6386 C   0  0  0  0  0  0  0  0  0  0  0  0
   24.4063    7.0272   56.6563 C   0  0  0  0  0  0  0  0  0  0  0  0
   24.8819    5.1915   58.0960 N   0  0  0  0  0  0  0  0  0  0  0  0
   23.1874    6.6091   56.1374 C   0  0  0  0  0  0  0  0  0  0  0  0
   26.7993    2.9662   60.0405 C   0  0  0  0  0  0  0  0  0  0  0  0
   24.3914    2.9470   60.2346 C   0  0  0  0  0  0  0  0  0  0  0  0
   25.5571    3.4604   59.6671 C   0  0  0  0  0  0  0  0  0  0  0  0
   25.3002    6.0759   57.1799 N   0  0  0  0  0  0  0  0  0  0  0  0
   24.5030    1.9370   61.1856 C   0  0  0  0  0  0  0  0  0  0  0  0
   25.7510    1.4539   61.5720 C   0  0  0  0  0  0  0  0  0  0  0  0
   26.9077    1.9631   61.0075 C   0  0  0  0  0  0  0  0  0  0  0  0
   27.1753    4.5205   58.4168 N   0  0  0  0  0  0  0  0  0  0  0  0
   27.7873    3.6539   59.2306 C   0  0  0  0  0  0  0  0  0  0  0  0
   22.3073    7.5282   55.5901 C   0  0  0  0  0  0  0  0  0  0  0  0
   22.6179    8.8690   55.5866 C   0  0  0  0  0  0  0  0  0  0  0  0
   23.8019    9.2976   56.1423 C   0  0  0  0  0  0  0  0  0  0  0  0
   24.7099    8.3841   56.6586 C   0  0  0  0  0  0  0  0  0  0  0  0
   29.7005    4.0168   58.6264 H   0  0  0  0  0  0  0  0  0  0  0  0
   29.5037    2.7724   59.8895 H   0  0  0  0  0  0  0  0  0  0  0  0
   23.8870    5.0932   58.3440 H   0  0  0  0  0  0  0  0  0  0  0  0
   22.9197    5.5424   56.1611 H   0  0  0  0  0  0  0  0  0  0  0  0
   23.4049    3.3320   59.9370 H   0  0  0  0  0  0  0  0  0  0  0  0
   26.2786    6.0589   56.8585 H   0  0  0  0  0  0  0  0  0  0  0  0
   23.5937    1.5147   61.6381 H   0  0  0  0  0  0  0  0  0  0  0  0
   25.8179    0.6613   62.3318 H   0  0  0  0  0  0  0  0  0  0  0  0
   27.8941    1.5853   61.3144 H   0  0  0  0  0  0  0  0  0  0  0  0
   27.6500    5.1244   57.7307 H   0  0  0  0  0  0  0  0  0  0  0  0
   21.3564    7.1851   55.1566 H   0  0  0  0  0  0  0  0  0  0  0  0
   21.9222    9.5955   55.1414 H   0  0  0  0  0  0  0  0  0  0  0  0
   24.0303   10.3731   56.1774 H   0  0  0  0  0  0  0  0  0  0  0  0
   25.6689    8.7330   57.0692 H   0  0  0  0  0  0  0  0  0  0  0  0
  1 14  2  0
  2  4  2  3
  2  8  1  0
  2 13  1  0
  3  5  2  0
  3  9  1  0
  3 18  1  0
  4  9  1  0
  5 15  1  0
  6  8  1  0
  6 12  2  0
  6 14  1  0
  7  8  2  0
  7 10  1  0
 10 11  2  0
 11 12  1  0
 13 14  1  0
 15 16  2  0
 16 17  1  0
 17 18  2  0
  1 19  1  0
  1 20  1  0
  4 21  1  0
  5 22  1  0
  7 23  1  0
  9 24  1  0
 10 25  1  0
 11 26  1  0
 12 27  1  0
 13 28  1  0
 15 29  1  0
 16 30  1  0
 17 31  1  0
 18 32  1  0
M  CHG  2   1   1   4   1
M  END
>  <filename_input>  (6) 
5SAK_ZRY_docked.sdf

>  <pdb_id>  (6) 
5SAK_ZRY

>  <pose_rank>  (6) 
5

>  <num_atoms_heavy>  (6) 
18

>  <num_torsions>  (6) 
2

>  <pose>  (6) 
[29.09232346688997, 3.467433089061207, 59.250251871652196, -1.3145032905570326, -1.7113393962494616, 5.918799021494323, 0.12197505430148578, 2.2993333485363596]

>  <energy>  (6) 
-698.5380570204109

>  <inter_energy>  (6) 
-695.524769427409

>  <intra_energy>  (6) 
0.0

>  <rmsd>  (6) 
0.638688

>  <sdf_rank>  (6) 
0

$$$$

     RDKit          3D

 32 34  0  0  0  0  0  0  0  0999 V2000
   25.7671    9.0697   56.7000 N   0  0  0  0  0  0  0  0  0  0  0  0
   24.1769    6.0824   57.6641 C   0  0  0  0  0  0  0  0  0  0  0  0
   25.2800    3.3682   59.5624 C   0  0  0  0  0  0  0  0  0  0  0  0
   24.0859    4.9837   58.2845 N   0  0  0  0  0  0  0  0  0  0  0  0
   24.1805    2.5288   59.6892 C   0  0  0  0  0  0  0  0  0  0  0  0
   23.6992    7.8002   56.2042 C   0  0  0  0  0  0  0  0  0  0  0  0
   21.9484    6.1383   56.2972 C   0  0  0  0  0  0  0  0  0  0  0  0
   23.1968    6.6070   56.7048 C   0  0  0  0  0  0  0  0  0  0  0  0
   25.0966    4.6885   59.1139 N   0  0  0  0  0  0  0  0  0  0  0  0
   21.2246    6.8882   55.3748 C   0  0  0  0  0  0  0  0  0  0  0  0
   21.7375    8.0767   54.8603 C   0  0  0  0  0  0  0  0  0  0  0  0
   22.9763    8.5420   55.2662 C   0  0  0  0  0  0  0  0  0  0  0  0
   25.2209    7.0339   57.7178 N   0  0  0  0  0  0  0  0  0  0  0  0
   24.9682    8.0344   56.8675 C   0  0  0  0  0  0  0  0  0  0  0  0
   24.3380    1.2349   60.1580 C   0  0  0  0  0  0  0  0  0  0  0  0
   25.5906    0.7578   60.4702 C   0  0  0  0  0  0  0  0  0  0  0  0
   26.6914    1.5667   60.3019 C   0  0  0  0  0  0  0  0  0  0  0  0
   26.5439    2.8773   59.8703 C   0  0  0  0  0  0  0  0  0  0  0  0
   26.6492    9.1303   57.2284 H   0  0  0  0  0  0  0  0  0  0  0  0
   25.5092    9.8179   56.0408 H   0  0  0  0  0  0  0  0  0  0  0  0
   23.2816    4.3525   58.1595 H   0  0  0  0  0  0  0  0  0  0  0  0
   23.1793    2.8935   59.4157 H   0  0  0  0  0  0  0  0  0  0  0  0
   21.5443    5.1961   56.6960 H   0  0  0  0  0  0  0  0  0  0  0  0
   25.7405    5.4304   59.4235 H   0  0  0  0  0  0  0  0  0  0  0  0
   20.2345    6.5378   55.0478 H   0  0  0  0  0  0  0  0  0  0  0  0
   21.1533    8.6501   54.1255 H   0  0  0  0  0  0  0  0  0  0  0  0
   23.3842    9.4784   54.8578 H   0  0  0  0  0  0  0  0  0  0  0  0
   26.0525    6.9666   58.3219 H   0  0  0  0  0  0  0  0  0  0  0  0
   23.4583    0.5860   60.2813 H   0  0  0  0  0  0  0  0  0  0  0  0
   25.7116   -0.2663   60.8530 H   0  0  0  0  0  0  0  0  0  0  0  0
   27.6962    1.1710   60.5111 H   0  0  0  0  0  0  0  0  0  0  0  0
   27.4260    3.5271   59.7718 H   0  0  0  0  0  0  0  0  0  0  0  0
  1 14  2  0
  2  4  2  3
  2  8  1  0
  2 13  1  0
  3  5  2  0
  3  9  1  0
  3 18  1  0
  4  9  1  0
  5 15  1  0
  6  8  1  0
  6 12  2  0
  6 14  1  0
  7  8  2  0
  7 10  1  0
 10 11  2  0
 11 12  1  0
 13 14  1  0
 15 16  2  0
 16 17  1  0
 17 18  2  0
  1 19  1  0
  1 20  1  0
  4 21  1  0
  5 22  1  0
  7 23  1  0
  9 24  1  0
 10 25  1  0
 11 26  1  0
 12 27  1  0
 13 28  1  0
 15 29  1  0
 16 30  1  0
 17 31  1  0
 18 32  1  0
M  CHG  2   1   1   4   1
M  END
>  <filename_input>  (7) 
5SAK_ZRY_docked.sdf

>  <pdb_id>  (7) 
5SAK_ZRY

>  <pose_rank>  (7) 
6

>  <num_atoms_heavy>  (7) 
18

>  <num_torsions>  (7) 
2

>  <pose>  (7) 
[25.767126396221315, 9.069723075830366, 56.70004234118113, -2.9331799132668577, -1.158932479304037, 0.19838391136567587, 6.556890563045542, -3.592959909256902]

>  <energy>  (7) 
-399.0409649180552

>  <inter_energy>  (7) 
-402.16481772264297

>  <intra_energy>  (7) 
0.0

>  <rmsd>  (7) 
6.75404

>  <sdf_rank>  (7) 
0

$$$$

     RDKit          3D

 32 34  0  0  0  0  0  0  0  0999 V2000
   25.9544    9.3052   55.5752 N   0  0  0  0  0  0  0  0  0  0  0  0
   24.3941    6.5771   57.1578 C   0  0  0  0  0  0  0  0  0  0  0  0
   25.6072    3.9529   59.1464 C   0  0  0  0  0  0  0  0  0  0  0  0
   24.3672    5.5194   57.8513 N   0  0  0  0  0  0  0  0  0  0  0  0
   26.8471    3.4581   59.5303 C   0  0  0  0  0  0  0  0  0  0  0  0
   23.7034    8.2940   55.7847 C   0  0  0  0  0  0  0  0  0  0  0  0
   21.8827    6.8723   56.4917 C   0  0  0  0  0  0  0  0  0  0  0  0
   23.2401    7.1911   56.4889 C   0  0  0  0  0  0  0  0  0  0  0  0
   25.5376    5.1247   58.3717 N   0  0  0  0  0  0  0  0  0  0  0  0
   21.0082    7.6783   55.7687 C   0  0  0  0  0  0  0  0  0  0  0  0
   21.4767    8.7747   55.0485 C   0  0  0  0  0  0  0  0  0  0  0  0
   22.8242    9.0913   55.0471 C   0  0  0  0  0  0  0  0  0  0  0  0
   25.5075    7.3892   56.8432 N   0  0  0  0  0  0  0  0  0  0  0  0
   25.1294    8.3859   56.0360 C   0  0  0  0  0  0  0  0  0  0  0  0
   26.9363    2.2888   60.2678 C   0  0  0  0  0  0  0  0  0  0  0  0
   25.7952    1.6248   60.6562 C   0  0  0  0  0  0  0  0  0  0  0  0
   24.5610    2.1339   60.3216 C   0  0  0  0  0  0  0  0  0  0  0  0
   24.4577    3.2828   59.5502 C   0  0  0  0  0  0  0  0  0  0  0  0
   26.9540    9.2700   55.8211 H   0  0  0  0  0  0  0  0  0  0  0  0
   25.5994   10.0586   54.9692 H   0  0  0  0  0  0  0  0  0  0  0  0
   23.4962    4.9920   58.0069 H   0  0  0  0  0  0  0  0  0  0  0  0
   27.7630    3.9976   59.2473 H   0  0  0  0  0  0  0  0  0  0  0  0
   21.5110    6.0025   57.0532 H   0  0  0  0  0  0  0  0  0  0  0  0
   26.3881    5.6809   58.2040 H   0  0  0  0  0  0  0  0  0  0  0  0
   19.9329    7.4464   55.7660 H   0  0  0  0  0  0  0  0  0  0  0  0
   20.7702    9.3939   54.4764 H   0  0  0  0  0  0  0  0  0  0  0  0
   23.1961    9.9546   54.4757 H   0  0  0  0  0  0  0  0  0  0  0  0
   26.4671    7.2360   57.1847 H   0  0  0  0  0  0  0  0  0  0  0  0
   27.9233    1.8894   60.5440 H   0  0  0  0  0  0  0  0  0  0  0  0
   25.8692    0.6906   61.2322 H   0  0  0  0  0  0  0  0  0  0  0  0
   23.6490    1.6260   60.6685 H   0  0  0  0  0  0  0  0  0  0  0  0
   23.4676    3.6629   59.2584 H   0  0  0  0  0  0  0  0  0  0  0  0
  1 14  2  0
  2  4  2  3
  2  8  1  0
  2 13  1  0
  3  5  2  0
  3  9  1  0
  3 18  1  0
  4  9  1  0
  5 15  1  0
  6  8  1  0
  6 12  2  0
  6 14  1  0
  7  8  2  0
  7 10  1  0
 10 11  2  0
 11 12  1  0
 13 14  1  0
 15 16  2  0
 16 17  1  0
 17 18  2  0
  1 19  1  0
  1 20  1  0
  4 21  1  0
  5 22  1  0
  7 23  1  0
  9 24  1  0
 10 25  1  0
 11 26  1  0
 12 27  1  0
 13 28  1  0
 15 29  1  0
 16 30  1  0
 17 31  1  0
 18 32  1  0
M  CHG  2   1   1   4   1
M  END
>  <filename_input>  (8) 
5SAK_ZRY_docked.sdf

>  <pdb_id>  (8) 
5SAK_ZRY

>  <pose_rank>  (8) 
7

>  <num_atoms_heavy>  (8) 
18

>  <num_torsions>  (8) 
2

>  <pose>  (8) 
[25.954444683722517, 9.305209655996919, 55.575190115296714, 2.9656431832077037, 0.9750476130306945, -0.6673126479310322, -0.01798042085662832, -0.08637536695944656]

>  <energy>  (8) 
-417.7167840993237

>  <inter_energy>  (8) 
-419.17047576365303

>  <intra_energy>  (8) 
0.0

>  <rmsd>  (8) 
6.77882

>  <sdf_rank>  (8) 
0

$$$$

     RDKit          3D

 32 34  0  0  0  0  0  0  0  0999 V2000
   24.4155    5.8980   57.8482 N   0  0  0  0  0  0  0  0  0  0  0  0
   24.6933    2.9103   59.6863 C   0  0  0  0  0  0  0  0  0  0  0  0
   22.4462    0.3078   60.2703 C   0  0  0  0  0  0  0  0  0  0  0  0
   24.2513    1.8600   60.2357 N   0  0  0  0  0  0  0  0  0  0  0  0
   23.2674   -0.7897   60.0447 C   0  0  0  0  0  0  0  0  0  0  0  0
   26.1331    4.6024   59.0749 C   0  0  0  0  0  0  0  0  0  0  0  0
   27.2325    2.8391   60.3069 C   0  0  0  0  0  0  0  0  0  0  0  0
   26.0793    3.3908   59.7502 C   0  0  0  0  0  0  0  0  0  0  0  0
   22.9476    1.6046   60.0579 N   0  0  0  0  0  0  0  0  0  0  0  0
   28.4321    3.5327   60.1766 C   0  0  0  0  0  0  0  0  0  0  0  0
   28.4815    4.7567   59.5136 C   0  0  0  0  0  0  0  0  0  0  0  0
   27.3366    5.3034   58.9602 C   0  0  0  0  0  0  0  0  0  0  0  0
   23.9825    3.8640   58.9225 N   0  0  0  0  0  0  0  0  0  0  0  0
   24.7988    4.8618   58.5676 C   0  0  0  0  0  0  0  0  0  0  0  0
   22.7817   -2.0751   60.2195 C   0  0  0  0  0  0  0  0  0  0  0  0
   21.4906   -2.2760   60.6517 C   0  0  0  0  0  0  0  0  0  0  0  0
   20.6850   -1.1938   60.9241 C   0  0  0  0  0  0  0  0  0  0  0  0
   21.1459    0.0984   60.7160 C   0  0  0  0  0  0  0  0  0  0  0  0
   23.4354    5.9778   57.5416 H   0  0  0  0  0  0  0  0  0  0  0  0
   25.0961    6.6276   57.5926 H   0  0  0  0  0  0  0  0  0  0  0  0
   24.8582    1.2371   60.7876 H   0  0  0  0  0  0  0  0  0  0  0  0
   24.3090   -0.6371   59.7255 H   0  0  0  0  0  0  0  0  0  0  0  0
   27.1950    1.8764   60.8377 H   0  0  0  0  0  0  0  0  0  0  0  0
   22.3113    2.3598   59.7651 H   0  0  0  0  0  0  0  0  0  0  0  0
   29.3533    3.1086   60.6027 H   0  0  0  0  0  0  0  0  0  0  0  0
   29.4381    5.2932   59.4292 H   0  0  0  0  0  0  0  0  0  0  0  0
   27.3734    6.2717   58.4397 H   0  0  0  0  0  0  0  0  0  0  0  0
   22.9845    3.7999   58.6760 H   0  0  0  0  0  0  0  0  0  0  0  0
   23.4306   -2.9388   60.0121 H   0  0  0  0  0  0  0  0  0  0  0  0
   21.1039   -3.2979   60.7789 H   0  0  0  0  0  0  0  0  0  0  0  0
   19.6675   -1.3546   61.3099 H   0  0  0  0  0  0  0  0  0  0  0  0
   20.4833    0.9562   60.9035 H   0  0  0  0  0  0  0  0  0  0  0  0
  1 14  2  0
  2  4  2  3
  2  8  1  0
  2 13  1  0
  3  5  2  0
  3  9  1  0
  3 18  1  0
  4  9  1  0
  5 15  1  0
  6  8  1  0
  6 12  2  0
  6 14  1  0
  7  8  2  0
  7 10  1  0
 10 11  2  0
 11 12  1  0
 13 14  1  0
 15 16  2  0
 16 17  1  0
 17 18  2  0
  1 19  1  0
  1 20  1  0
  4 21  1  0
  5 22  1  0
  7 23  1  0
  9 24  1  0
 10 25  1  0
 11 26  1  0
 12 27  1  0
 13 28  1  0
 15 29  1  0
 16 30  1  0
 17 31  1  0
 18 32  1  0
M  CHG  2   1   1   4   1
M  END
>  <filename_input>  (9) 
5SAK_ZRY_docked.sdf

>  <pdb_id>  (9) 
5SAK_ZRY

>  <pose_rank>  (9) 
8

>  <num_atoms_heavy>  (9) 
18

>  <num_torsions>  (9) 
2

>  <pose>  (9) 
[24.415477838442076, 5.897965844282192, 57.848157073884074, -0.07527474096977914, -2.2468508229479656, -3.6401734412590705, -0.3585208766007562, -3.6047160463695507]

>  <energy>  (9) 
-461.1438209093236

>  <inter_energy>  (9) 
-433.3122177616199

>  <intra_energy>  (9) 
0.0

>  <rmsd>  (9) 
6.86546

>  <sdf_rank>  (9) 
0

$$$$

     RDKit          3D

 32 34  0  0  0  0  0  0  0  0999 V2000
   23.9822    4.7856   58.4977 N   0  0  0  0  0  0  0  0  0  0  0  0
   26.9158    3.6684   60.0875 C   0  0  0  0  0  0  0  0  0  0  0  0
   28.9046    5.7771   61.5556 C   0  0  0  0  0  0  0  0  0  0  0  0
   28.0969    3.7888   60.5245 N   0  0  0  0  0  0  0  0  0  0  0  0
   28.1348    6.9056   61.8079 C   0  0  0  0  0  0  0  0  0  0  0  0
   24.9114    2.7093   59.4770 C   0  0  0  0  0  0  0  0  0  0  0  0
   26.3688    1.1711   60.6372 C   0  0  0  0  0  0  0  0  0  0  0  0
   26.1191    2.4351   60.1042 C   0  0  0  0  0  0  0  0  0  0  0  0
   28.6483    5.0050   60.4084 N   0  0  0  0  0  0  0  0  0  0  0  0
   25.3857    0.1930   60.5193 C   0  0  0  0  0  0  0  0  0  0  0  0
   24.1812    0.4643   59.8746 C   0  0  0  0  0  0  0  0  0  0  0  0
   23.9334    1.7197   59.3467 C   0  0  0  0  0  0  0  0  0  0  0  0
   26.1061    4.6500   59.4719 N   0  0  0  0  0  0  0  0  0  0  0  0
   24.9414    4.1097   59.0988 C   0  0  0  0  0  0  0  0  0  0  0  0
   28.3924    7.6949   62.9167 C   0  0  0  0  0  0  0  0  0  0  0  0
   29.3916    7.3490   63.7976 C   0  0  0  0  0  0  0  0  0  0  0  0
   30.1275    6.2062   63.5816 C   0  0  0  0  0  0  0  0  0  0  0  0
   29.9063    5.4276   62.4544 C   0  0  0  0  0  0  0  0  0  0  0  0
   24.1156    5.7827   58.2765 H   0  0  0  0  0  0  0  0  0  0  0  0
   23.0995    4.3166   58.2492 H   0  0  0  0  0  0  0  0  0  0  0  0
   28.6054    2.9980   60.9452 H   0  0  0  0  0  0  0  0  0  0  0  0
   27.3165    7.1738   61.1236 H   0  0  0  0  0  0  0  0  0  0  0  0
   27.3222    0.9517   61.1400 H   0  0  0  0  0  0  0  0  0  0  0  0
   28.8849    5.3750   59.4767 H   0  0  0  0  0  0  0  0  0  0  0  0
   25.5623   -0.8076   60.9408 H   0  0  0  0  0  0  0  0  0  0  0  0
   23.4207   -0.3253   59.7843 H   0  0  0  0  0  0  0  0  0  0  0  0
   22.9842    1.9343   58.8339 H   0  0  0  0  0  0  0  0  0  0  0  0
   26.3736    5.6348   59.3317 H   0  0  0  0  0  0  0  0  0  0  0  0
   27.7957    8.6019   63.0939 H   0  0  0  0  0  0  0  0  0  0  0  0
   29.6014    7.9837   64.6712 H   0  0  0  0  0  0  0  0  0  0  0  0
   30.8973    5.9075   64.3084 H   0  0  0  0  0  0  0  0  0  0  0  0
   30.5226    4.5349   62.2722 H   0  0  0  0  0  0  0  0  0  0  0  0
  1 14  2  0
  2  4  2  3
  2  8  1  0
  2 13  1  0
  3  5  2  0
  3  9  1  0
  3 18  1  0
  4  9  1  0
  5 15  1  0
  6  8  1  0
  6 12  2  0
  6 14  1  0
  7  8  2  0
  7 10  1  0
 10 11  2  0
 11 12  1  0
 13 14  1  0
 15 16  2  0
 16 17  1  0
 17 18  2  0
  1 19  1  0
  1 20  1  0
  4 21  1  0
  5 22  1  0
  7 23  1  0
  9 24  1  0
 10 25  1  0
 11 26  1  0
 12 27  1  0
 13 28  1  0
 15 29  1  0
 16 30  1  0
 17 31  1  0
 18 32  1  0
M  CHG  2   1   1   4   1
M  END
>  <filename_input>  (10) 
5SAK_ZRY_docked.sdf

>  <pdb_id>  (10) 
5SAK_ZRY

>  <pose_rank>  (10) 
9

>  <num_atoms_heavy>  (10) 
18

>  <num_torsions>  (10) 
2

>  <pose>  (10) 
[23.98219434758826, 4.785625356961109, 58.497683016807144, -1.445174170377956, -2.744811907111234, 1.3747853914712123, -1.2263555065506013, 1.3004056972289644]

>  <energy>  (10) 
-411.81604570413606

>  <inter_energy>  (10) 
-403.5331956315841

>  <intra_energy>  (10) 
0.03366167176253763

>  <rmsd>  (10) 
5.958

>  <sdf_rank>  (10) 
0

$$$$

     RDKit          3D

 32 34  0  0  0  0  0  0  0  0999 V2000
   24.3168    5.4256   57.9637 N   0  0  0  0  0  0  0  0  0  0  0  0
   25.1892    2.8870   60.2389 C   0  0  0  0  0  0  0  0  0  0  0  0
   23.3421    0.2010   60.6852 C   0  0  0  0  0  0  0  0  0  0  0  0
   24.9526    1.9219   61.0219 N   0  0  0  0  0  0  0  0  0  0  0  0
   22.0220   -0.2224   60.7732 C   0  0  0  0  0  0  0  0  0  0  0  0
   26.3203    4.5670   59.1396 C   0  0  0  0  0  0  0  0  0  0  0  0
   27.7741    3.1905   60.4915 C   0  0  0  0  0  0  0  0  0  0  0  0
   26.5015    3.5074   60.0178 C   0  0  0  0  0  0  0  0  0  0  0  0
   23.6792    1.5079   61.0808 N   0  0  0  0  0  0  0  0  0  0  0  0
   28.8525    3.9632   60.0705 C   0  0  0  0  0  0  0  0  0  0  0  0
   28.6668    5.0368   59.2027 C   0  0  0  0  0  0  0  0  0  0  0  0
   27.4035    5.3502   58.7320 C   0  0  0  0  0  0  0  0  0  0  0  0
   24.2765    3.6012   59.4295 N   0  0  0  0  0  0  0  0  0  0  0  0
   24.9120    4.5896   58.7914 C   0  0  0  0  0  0  0  0  0  0  0  0
   21.6764   -1.5156   60.4166 C   0  0  0  0  0  0  0  0  0  0  0  0
   22.6327   -2.3826   59.9391 C   0  0  0  0  0  0  0  0  0  0  0  0
   23.9343   -1.9566   59.8028 C   0  0  0  0  0  0  0  0  0  0  0  0
   24.3018   -0.6765   60.1929 C   0  0  0  0  0  0  0  0  0  0  0  0
   23.3044    5.3468   57.7917 H   0  0  0  0  0  0  0  0  0  0  0  0
   24.8644    6.1576   57.4890 H   0  0  0  0  0  0  0  0  0  0  0  0
   25.6957    1.4799   61.5818 H   0  0  0  0  0  0  0  0  0  0  0  0
   21.2470    0.4729   61.1280 H   0  0  0  0  0  0  0  0  0  0  0  0
   27.9226    2.3480   61.1829 H   0  0  0  0  0  0  0  0  0  0  0  0
   22.9457    2.1483   61.4165 H   0  0  0  0  0  0  0  0  0  0  0  0
   29.8647    3.7228   60.4278 H   0  0  0  0  0  0  0  0  0  0  0  0
   29.5312    5.6405   58.8890 H   0  0  0  0  0  0  0  0  0  0  0  0
   27.2548    6.2001   58.0497 H   0  0  0  0  0  0  0  0  0  0  0  0
   23.2717    3.3914   59.3439 H   0  0  0  0  0  0  0  0  0  0  0  0
   20.6335   -1.8509   60.5155 H   0  0  0  0  0  0  0  0  0  0  0  0
   22.3576   -3.4123   59.6672 H   0  0  0  0  0  0  0  0  0  0  0  0
   24.6895   -2.6363   59.3814 H   0  0  0  0  0  0  0  0  0  0  0  0
   25.3511   -0.3564   60.1127 H   0  0  0  0  0  0  0  0  0  0  0  0
  1 14  2  0
  2  4  2  3
  2  8  1  0
  2 13  1  0
  3  5  2  0
  3  9  1  0
  3 18  1  0
  4  9  1  0
  5 15  1  0
  6  8  1  0
  6 12  2  0
  6 14  1  0
  7  8  2  0
  7 10  1  0
 10 11  2  0
 11 12  1  0
 13 14  1  0
 15 16  2  0
 16 17  1  0
 17 18  2  0
  1 19  1  0
  1 20  1  0
  4 21  1  0
  5 22  1  0
  7 23  1  0
  9 24  1  0
 10 25  1  0
 11 26  1  0
 12 27  1  0
 13 28  1  0
 15 29  1  0
 16 30  1  0
 17 31  1  0
 18 32  1  0
M  CHG  2   1   1   4   1
M  END
>  <filename_input>  (11) 
5SAK_ZRY_docked.sdf

>  <pdb_id>  (11) 
5SAK_ZRY

>  <pose_rank>  (11) 
10

>  <num_atoms_heavy>  (11) 
18

>  <num_torsions>  (11) 
2

>  <pose>  (11) 
[24.31683885968699, 5.425595696061031, 57.963701908103765, -0.02967904695466088, 1.3316236861230373, 1.7189597845390447, -1.1195188145638566, 0.04295344651134356]

>  <energy>  (11) 
-439.2739328525865

>  <inter_energy>  (11) 
-434.5037783448974

>  <intra_energy>  (11) 
0.48640237560961475

>  <rmsd>  (11) 
6.88125

>  <sdf_rank>  (11) 
0

$$$$

     RDKit          3D

 32 34  0  0  0  0  0  0  0  0999 V2000
   24.8930    5.0699   58.8190 N   0  0  0  0  0  0  0  0  0  0  0  0
   27.2050    2.6515   59.9091 C   0  0  0  0  0  0  0  0  0  0  0  0
   25.4776    0.4674   59.8860 C   0  0  0  0  0  0  0  0  0  0  0  0
   27.6257    1.4730   60.0946 N   0  0  0  0  0  0  0  0  0  0  0  0
   24.9052    1.5155   60.5956 C   0  0  0  0  0  0  0  0  0  0  0  0
   27.0595    4.9489   60.0128 C   0  0  0  0  0  0  0  0  0  0  0  0
   29.1032    4.0971   60.9791 C   0  0  0  0  0  0  0  0  0  0  0  0
   27.8752    3.8793   60.3556 C   0  0  0  0  0  0  0  0  0  0  0  0
   26.8564    0.4883   59.6095 N   0  0  0  0  0  0  0  0  0  0  0  0
   29.4866    5.4062   61.2552 C   0  0  0  0  0  0  0  0  0  0  0  0
   28.6595    6.4776   60.9263 C   0  0  0  0  0  0  0  0  0  0  0  0
   27.4411    6.2609   60.3063 C   0  0  0  0  0  0  0  0  0  0  0  0
   26.0133    3.0651   59.2710 N   0  0  0  0  0  0  0  0  0  0  0  0
   25.9041    4.3964   59.3311 C   0  0  0  0  0  0  0  0  0  0  0  0
   23.5547    1.4975   60.9032 C   0  0  0  0  0  0  0  0  0  0  0  0
   22.7603    0.4569   60.4786 C   0  0  0  0  0  0  0  0  0  0  0  0
   23.3093   -0.5619   59.7336 C   0  0  0  0  0  0  0  0  0  0  0  0
   24.6679   -0.5762   59.4516 C   0  0  0  0  0  0  0  0  0  0  0  0
   24.1225    4.5682   58.3547 H   0  0  0  0  0  0  0  0  0  0  0  0
   24.8736    6.0977   58.8831 H   0  0  0  0  0  0  0  0  0  0  0  0
   28.5083    1.2812   60.5897 H   0  0  0  0  0  0  0  0  0  0  0  0
   25.5277    2.3644   60.9149 H   0  0  0  0  0  0  0  0  0  0  0  0
   29.7549    3.2524   61.2470 H   0  0  0  0  0  0  0  0  0  0  0  0
   27.2761   -0.2549   59.0330 H   0  0  0  0  0  0  0  0  0  0  0  0
   30.4556    5.5973   61.7396 H   0  0  0  0  0  0  0  0  0  0  0  0
   28.9772    7.5042   61.1611 H   0  0  0  0  0  0  0  0  0  0  0  0
   26.7852    7.1057   60.0494 H   0  0  0  0  0  0  0  0  0  0  0  0
   25.3309    2.4349   58.8260 H   0  0  0  0  0  0  0  0  0  0  0  0
   23.1153    2.3182   61.4891 H   0  0  0  0  0  0  0  0  0  0  0  0
   21.6905    0.4394   60.7339 H   0  0  0  0  0  0  0  0  0  0  0  0
   22.6658   -1.3714   59.3586 H   0  0  0  0  0  0  0  0  0  0  0  0
   25.1039   -1.4122   58.8851 H   0  0  0  0  0  0  0  0  0  0  0  0
  1 14  2  0
  2  4  2  3
  2  8  1  0
  2 13  1  0
  3  5  2  0
  3  9  1  0
  3 18  1  0
  4  9  1  0
  5 15  1  0
  6  8  1  0
  6 12  2  0
  6 14  1  0
  7  8  2  0
  7 10  1  0
 10 11  2  0
 11 12  1  0
 13 14  1  0
 15 16  2  0
 16 17  1  0
 17 18  2  0
  1 19  1  0
  1 20  1  0
  4 21  1  0
  5 22  1  0
  7 23  1  0
  9 24  1  0
 10 25  1  0
 11 26  1  0
 12 27  1  0
 13 28  1  0
 15 29  1  0
 16 30  1  0
 17 31  1  0
 18 32  1  0
M  CHG  2   1   1   4   1
M  END
>  <filename_input>  (12) 
5SAK_ZRY_docked.sdf

>  <pdb_id>  (12) 
5SAK_ZRY

>  <pose_rank>  (12) 
11

>  <num_atoms_heavy>  (12) 
18

>  <num_torsions>  (12) 
2

>  <pose>  (12) 
[24.89300995702478, 5.069878469866842, 58.81896483401605, -0.28175445246519265, 0.7607667609229206, 2.516497821662257, -10.31628359148708, -3.0114742945140263]

>  <energy>  (12) 
-316.60925167654625

>  <inter_energy>  (12) 
-474.632181193871

>  <intra_energy>  (12) 
136.39861235276905

>  <rmsd>  (12) 
6.27237

>  <sdf_rank>  (12) 
0

$$$$

     RDKit          3D

 32 34  0  0  0  0  0  0  0  0999 V2000
   24.4490    5.7175   58.0255 N   0  0  0  0  0  0  0  0  0  0  0  0
   24.8681    2.7366   59.8478 C   0  0  0  0  0  0  0  0  0  0  0  0
   22.6738    0.1328   60.3685 C   0  0  0  0  0  0  0  0  0  0  0  0
   24.4689    1.6950   60.4446 N   0  0  0  0  0  0  0  0  0  0  0  0
   21.3648   -0.1316   60.7510 C   0  0  0  0  0  0  0  0  0  0  0  0
   26.2621    4.4066   59.0876 C   0  0  0  0  0  0  0  0  0  0  0  0
   27.4547    2.6360   60.2183 C   0  0  0  0  0  0  0  0  0  0  0  0
   26.2595    3.1995   59.7730 C   0  0  0  0  0  0  0  0  0  0  0  0
   23.1510    1.4555   60.3966 N   0  0  0  0  0  0  0  0  0  0  0  0
   28.6443    3.3133   59.9670 C   0  0  0  0  0  0  0  0  0  0  0  0
   28.6438    4.5330   59.2942 C   0  0  0  0  0  0  0  0  0  0  0  0
   27.4572    5.0914   58.8514 C   0  0  0  0  0  0  0  0  0  0  0  0
   24.0979    3.6952   59.1506 N   0  0  0  0  0  0  0  0  0  0  0  0
   24.8879    4.6804   58.7111 C   0  0  0  0  0  0  0  0  0  0  0  0
   20.8867   -1.4316   60.7585 C   0  0  0  0  0  0  0  0  0  0  0  0
   21.6942   -2.4701   60.3539 C   0  0  0  0  0  0  0  0  0  0  0  0
   22.9770   -2.2119   59.9272 C   0  0  0  0  0  0  0  0  0  0  0  0
   23.4815   -0.9194   59.9516 C   0  0  0  0  0  0  0  0  0  0  0  0
   23.4447    5.8083   57.8155 H   0  0  0  0  0  0  0  0  0  0  0  0
   25.1103    6.4369   57.7000 H   0  0  0  0  0  0  0  0  0  0  0  0
   25.1191    1.0674   60.9389 H   0  0  0  0  0  0  0  0  0  0  0  0
   20.7044    0.6959   61.0497 H   0  0  0  0  0  0  0  0  0  0  0  0
   27.4573    1.6767   60.7566 H   0  0  0  0  0  0  0  0  0  0  0  0
   22.4861    2.2420   60.3802 H   0  0  0  0  0  0  0  0  0  0  0  0
   29.5974    2.8798   60.3040 H   0  0  0  0  0  0  0  0  0  0  0  0
   29.5941    5.0567   59.1133 H   0  0  0  0  0  0  0  0  0  0  0  0
   27.4549    6.0563   58.3233 H   0  0  0  0  0  0  0  0  0  0  0  0
   23.0799    3.6425   59.0030 H   0  0  0  0  0  0  0  0  0  0  0  0
   19.8575   -1.6349   61.0892 H   0  0  0  0  0  0  0  0  0  0  0  0
   21.3157   -3.5028   60.3715 H   0  0  0  0  0  0  0  0  0  0  0  0
   23.6075   -3.0369   59.5639 H   0  0  0  0  0  0  0  0  0  0  0  0
   24.5193   -0.7275   59.6415 H   0  0  0  0  0  0  0  0  0  0  0  0
  1 14  2  0
  2  4  2  3
  2  8  1  0
  2 13  1  0
  3  5  2  0
  3  9  1  0
  3 18  1  0
  4  9  1  0
  5 15  1  0
  6  8  1  0
  6 12  2  0
  6 14  1  0
  7  8  2  0
  7 10  1  0
 10 11  2  0
 11 12  1  0
 13 14  1  0
 15 16  2  0
 16 17  1  0
 17 18  2  0
  1 19  1  0
  1 20  1  0
  4 21  1  0
  5 22  1  0
  7 23  1  0
  9 24  1  0
 10 25  1  0
 11 26  1  0
 12 27  1  0
 13 28  1  0
 15 29  1  0
 16 30  1  0
 17 31  1  0
 18 32  1  0
M  CHG  2   1   1   4   1
M  END
>  <filename_input>  (13) 
5SAK_ZRY_docked.sdf

>  <pdb_id>  (13) 
5SAK_ZRY

>  <pose_rank>  (13) 
12

>  <num_atoms_heavy>  (13) 
18

>  <num_torsions>  (13) 
2

>  <pose>  (13) 
[24.448974951167216, 5.717478210405448, 58.02553241223431, -0.2529726261651421, -2.33427122283903, -3.5265669884812074, -19.454917787862772, -0.30171546296162205]

>  <energy>  (13) 
-436.32811386647705

>  <inter_energy>  (13) 
-434.486739145579

>  <intra_energy>  (13) 
0.0

>  <rmsd>  (13) 
6.91644

>  <sdf_rank>  (13) 
0

$$$$

     RDKit          3D

 32 34  0  0  0  0  0  0  0  0999 V2000
   21.1925    0.9228   61.4779 N   0  0  0  0  0  0  0  0  0  0  0  0
   24.4715    0.4982   60.2738 C   0  0  0  0  0  0  0  0  0  0  0  0
   26.4044    3.0673   60.2837 C   0  0  0  0  0  0  0  0  0  0  0  0
   25.6950    0.7980   60.1571 N   0  0  0  0  0  0  0  0  0  0  0  0
   27.7208    3.5011   60.1912 C   0  0  0  0  0  0  0  0  0  0  0  0
   22.4448   -0.5400   59.9205 C   0  0  0  0  0  0  0  0  0  0  0  0
   24.2519   -1.5762   58.6970 C   0  0  0  0  0  0  0  0  0  0  0  0
   23.7852   -0.5878   59.5628 C   0  0  0  0  0  0  0  0  0  0  0  0
   26.1224    1.8323   60.8948 N   0  0  0  0  0  0  0  0  0  0  0  0
   23.3443   -2.5050   58.1962 C   0  0  0  0  0  0  0  0  0  0  0  0
   21.9964   -2.4455   58.5424 C   0  0  0  0  0  0  0  0  0  0  0  0
   21.5340   -1.4648   59.4028 C   0  0  0  0  0  0  0  0  0  0  0  0
   23.4882    1.1284   61.0701 N   0  0  0  0  0  0  0  0  0  0  0  0
   22.3006    0.5475   60.8700 C   0  0  0  0  0  0  0  0  0  0  0  0
   28.0149    4.7282   59.6198 C   0  0  0  0  0  0  0  0  0  0  0  0
   27.0080    5.5140   59.1072 C   0  0  0  0  0  0  0  0  0  0  0  0
   25.7057    5.0705   59.1510 C   0  0  0  0  0  0  0  0  0  0  0  0
   25.3926    3.8613   59.7554 C   0  0  0  0  0  0  0  0  0  0  0  0
   21.2093    1.7143   62.1368 H   0  0  0  0  0  0  0  0  0  0  0  0
   20.3100    0.4245   61.2939 H   0  0  0  0  0  0  0  0  0  0  0  0
   26.3262    0.2774   59.5315 H   0  0  0  0  0  0  0  0  0  0  0  0
   28.5340    2.8668   60.5738 H   0  0  0  0  0  0  0  0  0  0  0  0
   25.3144   -1.6209   58.4158 H   0  0  0  0  0  0  0  0  0  0  0  0
   26.2446    1.7224   61.9116 H   0  0  0  0  0  0  0  0  0  0  0  0
   23.6961   -3.2965   57.5181 H   0  0  0  0  0  0  0  0  0  0  0  0
   21.2938   -3.1838   58.1287 H   0  0  0  0  0  0  0  0  0  0  0  0
   20.4692   -1.4143   59.6740 H   0  0  0  0  0  0  0  0  0  0  0  0
   23.6607    1.9175   61.7092 H   0  0  0  0  0  0  0  0  0  0  0  0
   29.0575    5.0761   59.5756 H   0  0  0  0  0  0  0  0  0  0  0  0
   27.2431    6.4930   58.6642 H   0  0  0  0  0  0  0  0  0  0  0  0
   24.9067    5.6796   58.7032 H   0  0  0  0  0  0  0  0  0  0  0  0
   24.3451    3.5312   59.8164 H   0  0  0  0  0  0  0  0  0  0  0  0
  1 14  2  0
  2  4  2  3
  2  8  1  0
  2 13  1  0
  3  5  2  0
  3  9  1  0
  3 18  1  0
  4  9  1  0
  5 15  1  0
  6  8  1  0
  6 12  2  0
  6 14  1  0
  7  8  2  0
  7 10  1  0
 10 11  2  0
 11 12  1  0
 13 14  1  0
 15 16  2  0
 16 17  1  0
 17 18  2  0
  1 19  1  0
  1 20  1  0
  4 21  1  0
  5 22  1  0
  7 23  1  0
  9 24  1  0
 10 25  1  0
 11 26  1  0
 12 27  1  0
 13 28  1  0
 15 29  1  0
 16 30  1  0
 17 31  1  0
 18 32  1  0
M  CHG  2   1   1   4   1
M  END
>  <filename_input>  (14) 
5SAK_ZRY_docked.sdf

>  <pdb_id>  (14) 
5SAK_ZRY

>  <pose_rank>  (14) 
13

>  <num_atoms_heavy>  (14) 
18

>  <num_torsions>  (14) 
2

>  <pose>  (14) 
[21.19249127630447, 0.9227945339787268, 61.47790444053691, -0.5615537398554155, -2.5671476139067364, 0.23792397503720336, -5.029292165910442, 1.2819099911638518]

>  <energy>  (14) 
-430.72962857988523

>  <inter_energy>  (14) 
-408.79281741919385

>  <intra_energy>  (14) 
3.058328669785934

>  <rmsd>  (14) 
6.20577

>  <sdf_rank>  (14) 
0

$$$$

     RDKit          3D

 32 34  0  0  0  0  0  0  0  0999 V2000
   29.7763    3.6402   58.9801 N   0  0  0  0  0  0  0  0  0  0  0  0
   26.5022    4.7806   58.3787 C   0  0  0  0  0  0  0  0  0  0  0  0
   25.1724    7.1921   56.2063 C   0  0  0  0  0  0  0  0  0  0  0  0
   25.6301    5.5229   57.8413 N   0  0  0  0  0  0  0  0  0  0  0  0
   23.8579    6.7685   56.0561 C   0  0  0  0  0  0  0  0  0  0  0  0
   27.4675    3.2187   59.7711 C   0  0  0  0  0  0  0  0  0  0  0  0
   25.0608    3.2864   59.9686 C   0  0  0  0  0  0  0  0  0  0  0  0
   26.2437    3.7599   59.4022 C   0  0  0  0  0  0  0  0  0  0  0  0
   26.0792    6.3964   56.9292 N   0  0  0  0  0  0  0  0  0  0  0  0
   25.1367    2.2679   60.9141 C   0  0  0  0  0  0  0  0  0  0  0  0
   26.3667    1.7375   61.2961 C   0  0  0  0  0  0  0  0  0  0  0  0
   27.5405    2.2072   60.7326 C   0  0  0  0  0  0  0  0  0  0  0  0
   27.8979    4.7670   58.1551 N   0  0  0  0  0  0  0  0  0  0  0  0
   28.4789    3.8743   58.9634 C   0  0  0  0  0  0  0  0  0  0  0  0
   22.9586    7.5243   55.3221 C   0  0  0  0  0  0  0  0  0  0  0  0
   23.3503    8.7194   54.7633 C   0  0  0  0  0  0  0  0  0  0  0  0
   24.6376    9.1705   54.9476 C   0  0  0  0  0  0  0  0  0  0  0  0
   25.5595    8.4051   55.6475 C   0  0  0  0  0  0  0  0  0  0  0  0
   30.4033    4.1703   58.3582 H   0  0  0  0  0  0  0  0  0  0  0  0
   30.1628    2.9272   59.6150 H   0  0  0  0  0  0  0  0  0  0  0  0
   24.6326    5.4597   58.0902 H   0  0  0  0  0  0  0  0  0  0  0  0
   23.5295    5.8281   56.5226 H   0  0  0  0  0  0  0  0  0  0  0  0
   24.0886    3.7088   59.6745 H   0  0  0  0  0  0  0  0  0  0  0  0
   27.0909    6.4851   56.7573 H   0  0  0  0  0  0  0  0  0  0  0  0
   24.2131    1.8766   61.3657 H   0  0  0  0  0  0  0  0  0  0  0  0
   26.4056    0.9390   62.0516 H   0  0  0  0  0  0  0  0  0  0  0  0
   28.5129    1.7920   61.0360 H   0  0  0  0  0  0  0  0  0  0  0  0
   28.3934    5.3568   57.4714 H   0  0  0  0  0  0  0  0  0  0  0  0
   21.9270    7.1677   55.1852 H   0  0  0  0  0  0  0  0  0  0  0  0
   22.6373    9.3120   54.1714 H   0  0  0  0  0  0  0  0  0  0  0  0
   24.9380   10.1457   54.5368 H   0  0  0  0  0  0  0  0  0  0  0  0
   26.5954    8.7575   55.7602 H   0  0  0  0  0  0  0  0  0  0  0  0
  1 14  2  0
  2  4  2  3
  2  8  1  0
  2 13  1  0
  3  5  2  0
  3  9  1  0
  3 18  1  0
  4  9  1  0
  5 15  1  0
  6  8  1  0
  6 12  2  0
  6 14  1  0
  7  8  2  0
  7 10  1  0
 10 11  2  0
 11 12  1  0
 13 14  1  0
 15 16  2  0
 16 17  1  0
 17 18  2  0
  1 19  1  0
  1 20  1  0
  4 21  1  0
  5 22  1  0
  7 23  1  0
  9 24  1  0
 10 25  1  0
 11 26  1  0
 12 27  1  0
 13 28  1  0
 15 29  1  0
 16 30  1  0
 17 31  1  0
 18 32  1  0
M  CHG  2   1   1   4   1
M  END
>  <filename_input>  (15) 
5SAK_ZRY_docked.sdf

>  <pdb_id>  (15) 
5SAK_ZRY

>  <pose_rank>  (15) 
14

>  <num_atoms_heavy>  (15) 
18

>  <num_torsions>  (15) 
2

>  <pose>  (15) 
[29.776294998268558, 3.640186246163596, 58.98009815609442, 0.5276424884504116, -0.9365822197102076, -6.211972252429548, -6.395477960171329, -3.4888401988084548]

>  <energy>  (15) 
-790.2759589516888

>  <inter_energy>  (15) 
-801.9332183305997

>  <intra_energy>  (15) 
0.0

>  <rmsd>  (15) 
0.576076

>  <sdf_rank>  (15) 
0

$$$$

     RDKit          3D

 32 34  0  0  0  0  0  0  0  0999 V2000
   24.5192    5.6887   57.8818 N   0  0  0  0  0  0  0  0  0  0  0  0
   24.6265    2.7313   59.7856 C   0  0  0  0  0  0  0  0  0  0  0  0
   22.3369    0.1910   59.9487 C   0  0  0  0  0  0  0  0  0  0  0  0
   24.1282    1.7096   60.3408 N   0  0  0  0  0  0  0  0  0  0  0  0
   21.1473   -0.1873   60.5581 C   0  0  0  0  0  0  0  0  0  0  0  0
   26.1475    4.3559   59.1878 C   0  0  0  0  0  0  0  0  0  0  0  0
   27.1406    2.5787   60.4884 C   0  0  0  0  0  0  0  0  0  0  0  0
   26.0270    3.1613   59.8844 C   0  0  0  0  0  0  0  0  0  0  0  0
   22.8220    1.4991   60.1264 N   0  0  0  0  0  0  0  0  0  0  0  0
   28.3690    3.2245   60.3831 C   0  0  0  0  0  0  0  0  0  0  0  0
   28.4852    4.4320   59.6984 C   0  0  0  0  0  0  0  0  0  0  0  0
   27.3796    5.0092   59.0981 C   0  0  0  0  0  0  0  0  0  0  0  0
   23.9764    3.6947   58.9810 N   0  0  0  0  0  0  0  0  0  0  0  0
   24.8405    4.6540   58.6331 C   0  0  0  0  0  0  0  0  0  0  0  0
   20.6697   -1.4801   60.4190 C   0  0  0  0  0  0  0  0  0  0  0  0
   21.3521   -2.3925   59.6470 C   0  0  0  0  0  0  0  0  0  0  0  0
   22.5062   -2.0127   59.0002 C   0  0  0  0  0  0  0  0  0  0  0  0
   23.0166   -0.7326   59.1622 C   0  0  0  0  0  0  0  0  0  0  0  0
   23.5529    5.7984   57.5425 H   0  0  0  0  0  0  0  0  0  0  0  0
   25.2344    6.3872   57.6341 H   0  0  0  0  0  0  0  0  0  0  0  0
   24.6936    1.0761   60.9238 H   0  0  0  0  0  0  0  0  0  0  0  0
   20.5815    0.5437   61.1544 H   0  0  0  0  0  0  0  0  0  0  0  0
   27.0502    1.6292   61.0363 H   0  0  0  0  0  0  0  0  0  0  0  0
   22.1719    2.2972   60.0917 H   0  0  0  0  0  0  0  0  0  0  0  0
   29.2597    2.7755   60.8466 H   0  0  0  0  0  0  0  0  0  0  0  0
   29.4635    4.9308   59.6342 H   0  0  0  0  0  0  0  0  0  0  0  0
   27.4691    5.9646   58.5603 H   0  0  0  0  0  0  0  0  0  0  0  0
   22.9849    3.6626   58.7040 H   0  0  0  0  0  0  0  0  0  0  0  0
   19.7412   -1.7787   60.9276 H   0  0  0  0  0  0  0  0  0  0  0  0
   20.9767   -3.4216   59.5474 H   0  0  0  0  0  0  0  0  0  0  0  0
   23.0280   -2.7298   58.3495 H   0  0  0  0  0  0  0  0  0  0  0  0
   23.9580   -0.4487   58.6691 H   0  0  0  0  0  0  0  0  0  0  0  0
  1 14  2  0
  2  4  2  3
  2  8  1  0
  2 13  1  0
  3  5  2  0
  3  9  1  0
  3 18  1  0
  4  9  1  0
  5 15  1  0
  6  8  1  0
  6 12  2  0
  6 14  1  0
  7  8  2  0
  7 10  1  0
 10 11  2  0
 11 12  1  0
 13 14  1  0
 15 16  2  0
 16 17  1  0
 17 18  2  0
  1 19  1  0
  1 20  1  0
  4 21  1  0
  5 22  1  0
  7 23  1  0
  9 24  1  0
 10 25  1  0
 11 26  1  0
 12 27  1  0
 13 28  1  0
 15 29  1  0
 16 30  1  0
 17 31  1  0
 18 32  1  0
M  CHG  2   1   1   4   1
M  END
>  <filename_input>  (16) 
5SAK_ZRY_docked.sdf

>  <pdb_id>  (16) 
5SAK_ZRY

>  <pose_rank>  (16) 
15

>  <num_atoms_heavy>  (16) 
18

>  <num_torsions>  (16) 
2

>  <pose>  (16) 
[24.51915743735091, 5.688661083874212, 57.881785678298925, -0.03323960987920008, -2.299814842178074, -3.6652505663249273, -19.544266393534375, -0.6698822272284142]

>  <energy>  (16) 
-416.2158606697873

>  <inter_energy>  (16) 
-412.8670365831593

>  <intra_energy>  (16) 
0.0

>  <rmsd>  (16) 
6.75061

>  <sdf_rank>  (16) 
0

$$$$

     RDKit          3D

 32 34  0  0  0  0  0  0  0  0999 V2000
   20.3094   -2.0951   60.5351 N   0  0  0  0  0  0  0  0  0  0  0  0
   21.8748    0.9162   59.6058 C   0  0  0  0  0  0  0  0  0  0  0  0
   25.0927    2.1257   60.1579 C   0  0  0  0  0  0  0  0  0  0  0  0
   22.7950    1.7837   59.6358 N   0  0  0  0  0  0  0  0  0  0  0  0
   26.2387    1.6552   60.7865 C   0  0  0  0  0  0  0  0  0  0  0  0
   19.8597   -0.0995   59.1390 C   0  0  0  0  0  0  0  0  0  0  0  0
   20.1473    1.9911   57.9631 C   0  0  0  0  0  0  0  0  0  0  0  0
   20.6181    1.0277   58.8545 C   0  0  0  0  0  0  0  0  0  0  0  0
   23.8616    1.4871   60.3916 N   0  0  0  0  0  0  0  0  0  0  0  0
   18.9011    1.8000   57.3737 C   0  0  0  0  0  0  0  0  0  0  0  0
   18.1335    0.6769   57.6732 C   0  0  0  0  0  0  0  0  0  0  0  0
   18.6019   -0.2796   58.5573 C   0  0  0  0  0  0  0  0  0  0  0  0
   21.8169   -0.3221   60.2850 N   0  0  0  0  0  0  0  0  0  0  0  0
   20.6484   -0.9227   60.0364 C   0  0  0  0  0  0  0  0  0  0  0  0
   27.4545    2.2898   60.5919 C   0  0  0  0  0  0  0  0  0  0  0  0
   27.5447    3.3721   59.7466 C   0  0  0  0  0  0  0  0  0  0  0  0
   26.4238    3.8153   59.0820 C   0  0  0  0  0  0  0  0  0  0  0  0
   25.1922    3.2135   59.2976 C   0  0  0  0  0  0  0  0  0  0  0  0
   20.9538   -2.5920   61.1666 H   0  0  0  0  0  0  0  0  0  0  0  0
   19.4001   -2.5142   60.2932 H   0  0  0  0  0  0  0  0  0  0  0  0
   22.7286    2.6669   59.1099 H   0  0  0  0  0  0  0  0  0  0  0  0
   26.1803    0.7739   61.4422 H   0  0  0  0  0  0  0  0  0  0  0  0
   20.7479    2.8828   57.7307 H   0  0  0  0  0  0  0  0  0  0  0  0
   23.7793    0.7900   61.1453 H   0  0  0  0  0  0  0  0  0  0  0  0
   18.5172    2.5457   56.6620 H   0  0  0  0  0  0  0  0  0  0  0  0
   17.1472    0.5490   57.2032 H   0  0  0  0  0  0  0  0  0  0  0  0
   17.9952   -1.1651   58.7976 H   0  0  0  0  0  0  0  0  0  0  0  0
   22.5636   -0.7048   60.8824 H   0  0  0  0  0  0  0  0  0  0  0  0
   28.3516    1.9272   61.1152 H   0  0  0  0  0  0  0  0  0  0  0  0
   28.5091    3.8811   59.6026 H   0  0  0  0  0  0  0  0  0  0  0  0
   26.5050    4.6534   58.3742 H   0  0  0  0  0  0  0  0  0  0  0  0
   24.2955    3.5966   58.7885 H   0  0  0  0  0  0  0  0  0  0  0  0
  1 14  2  0
  2  4  2  3
  2  8  1  0
  2 13  1  0
  3  5  2  0
  3  9  1  0
  3 18  1  0
  4  9  1  0
  5 15  1  0
  6  8  1  0
  6 12  2  0
  6 14  1  0
  7  8  2  0
  7 10  1  0
 10 11  2  0
 11 12  1  0
 13 14  1  0
 15 16  2  0
 16 17  1  0
 17 18  2  0
  1 19  1  0
  1 20  1  0
  4 21  1  0
  5 22  1  0
  7 23  1  0
  9 24  1  0
 10 25  1  0
 11 26  1  0
 12 27  1  0
 13 28  1  0
 15 29  1  0
 16 30  1  0
 17 31  1  0
 18 32  1  0
M  CHG  2   1   1   4   1
M  END
>  <filename_input>  (17) 
5SAK_ZRY_docked.sdf

>  <pdb_id>  (17) 
5SAK_ZRY

>  <pose_rank>  (17) 
16

>  <num_atoms_heavy>  (17) 
18

>  <num_torsions>  (17) 
2

>  <pose>  (17) 
[20.309371926390227, -2.095103104923924, 60.53508308266083, -1.1226527807635276, 3.290805136042151, 2.7484951654937064, 12.164928677200813, 19.10135938409295]

>  <energy>  (17) 
-404.8050650049169

>  <inter_energy>  (17) 
-368.1855868589799

>  <intra_energy>  (17) 
0.0

>  <rmsd>  (17) 
7.50488

>  <sdf_rank>  (17) 
0

$$$$

     RDKit          3D

 32 34  0  0  0  0  0  0  0  0999 V2000
   30.0296    3.6543   61.0945 N   0  0  0  0  0  0  0  0  0  0  0  0
   27.8948    6.4310   60.7559 C   0  0  0  0  0  0  0  0  0  0  0  0
   28.4097    8.0688   63.1456 C   0  0  0  0  0  0  0  0  0  0  0  0
   27.5109    7.6138   60.9883 N   0  0  0  0  0  0  0  0  0  0  0  0
   28.5506    9.1128   64.0510 C   0  0  0  0  0  0  0  0  0  0  0  0
   27.8995    4.2593   59.9853 C   0  0  0  0  0  0  0  0  0  0  0  0
   26.0214    5.5382   59.1649 C   0  0  0  0  0  0  0  0  0  0  0  0
   27.1805    5.4455   59.9345 C   0  0  0  0  0  0  0  0  0  0  0  0
   28.3109    8.3510   61.7713 N   0  0  0  0  0  0  0  0  0  0  0  0
   25.6003    4.4156   58.4581 C   0  0  0  0  0  0  0  0  0  0  0  0
   26.3132    3.2208   58.5236 C   0  0  0  0  0  0  0  0  0  0  0  0
   27.4644    3.1298   59.2869 C   0  0  0  0  0  0  0  0  0  0  0  0
   29.0535    5.7771   61.2336 N   0  0  0  0  0  0  0  0  0  0  0  0
   29.0688    4.5101   60.8068 C   0  0  0  0  0  0  0  0  0  0  0  0
   28.6797    8.8523   65.4054 C   0  0  0  0  0  0  0  0  0  0  0  0
   28.6351    7.5576   65.8701 C   0  0  0  0  0  0  0  0  0  0  0  0
   28.4474    6.5201   64.9853 C   0  0  0  0  0  0  0  0  0  0  0  0
   28.3557    6.7637   63.6223 C   0  0  0  0  0  0  0  0  0  0  0  0
   30.8166    3.9453   61.6919 H   0  0  0  0  0  0  0  0  0  0  0  0
   29.9932    2.6947   60.7219 H   0  0  0  0  0  0  0  0  0  0  0  0
   26.6344    7.9886   60.5984 H   0  0  0  0  0  0  0  0  0  0  0  0
   28.5596   10.1521   63.6906 H   0  0  0  0  0  0  0  0  0  0  0  0
   25.4521    6.4782   59.1175 H   0  0  0  0  0  0  0  0  0  0  0  0
   28.8545    9.1261   61.3656 H   0  0  0  0  0  0  0  0  0  0  0  0
   24.6924    4.4727   57.8396 H   0  0  0  0  0  0  0  0  0  0  0  0
   25.9586    2.3425   57.9644 H   0  0  0  0  0  0  0  0  0  0  0  0
   28.0263    2.1858   59.3426 H   0  0  0  0  0  0  0  0  0  0  0  0
   29.7779    6.2120   61.8226 H   0  0  0  0  0  0  0  0  0  0  0  0
   28.8184    9.6835   66.1123 H   0  0  0  0  0  0  0  0  0  0  0  0
   28.7491    7.3527   66.9448 H   0  0  0  0  0  0  0  0  0  0  0  0
   28.3693    5.4895   65.3618 H   0  0  0  0  0  0  0  0  0  0  0  0
   28.2405    5.9252   62.9197 H   0  0  0  0  0  0  0  0  0  0  0  0
  1 14  2  0
  2  4  2  3
  2  8  1  0
  2 13  1  0
  3  5  2  0
  3  9  1  0
  3 18  1  0
  4  9  1  0
  5 15  1  0
  6  8  1  0
  6 12  2  0
  6 14  1  0
  7  8  2  0
  7 10  1  0
 10 11  2  0
 11 12  1  0
 13 14  1  0
 15 16  2  0
 16 17  1  0
 17 18  2  0
  1 19  1  0
  1 20  1  0
  4 21  1  0
  5 22  1  0
  7 23  1  0
  9 24  1  0
 10 25  1  0
 11 26  1  0
 12 27  1  0
 13 28  1  0
 15 29  1  0
 16 30  1  0
 17 31  1  0
 18 32  1  0
M  CHG  2   1   1   4   1
M  END
>  <filename_input>  (18) 
5SAK_ZRY_docked.sdf

>  <pdb_id>  (18) 
5SAK_ZRY

>  <pose_rank>  (18) 
17

>  <num_atoms_heavy>  (18) 
18

>  <num_torsions>  (18) 
2

>  <pose>  (18) 
[30.029601310975693, 3.654290832888826, 61.09453116669935, -3.9878333988706256, 2.559234448605447, 1.0901950408922119, 1.8712136047926524, 0.6942695364503264]

>  <energy>  (18) 
-240.606305051308

>  <inter_energy>  (18) 
-296.4665883568406

>  <intra_energy>  (18) 
67.5274729837544

>  <rmsd>  (18) 
6.54694

>  <sdf_rank>  (18) 
0

$$$$

     RDKit          3D

 32 34  0  0  0  0  0  0  0  0999 V2000
   17.5692    5.4072   52.5169 N   0  0  0  0  0  0  0  0  0  0  0  0
   19.6794    6.3731   55.1619 C   0  0  0  0  0  0  0  0  0  0  0  0
   22.6212    8.1066   54.9722 C   0  0  0  0  0  0  0  0  0  0  0  0
   20.6248    7.0265   55.6908 N   0  0  0  0  0  0  0  0  0  0  0  0
   23.3938    7.1940   55.6793 C   0  0  0  0  0  0  0  0  0  0  0  0
   17.9984    4.8215   54.8847 C   0  0  0  0  0  0  0  0  0  0  0  0
   18.8742    4.8587   57.1358 C   0  0  0  0  0  0  0  0  0  0  0  0
   18.8841    5.3314   55.8240 C   0  0  0  0  0  0  0  0  0  0  0  0
   21.2271    7.9321   54.9076 N   0  0  0  0  0  0  0  0  0  0  0  0
   17.9642    3.8626   57.4775 C   0  0  0  0  0  0  0  0  0  0  0  0
   17.0876    3.3397   56.5297 C   0  0  0  0  0  0  0  0  0  0  0  0
   17.0972    3.8101   55.2279 C   0  0  0  0  0  0  0  0  0  0  0  0
   19.1872    6.4612   53.8397 N   0  0  0  0  0  0  0  0  0  0  0  0
   18.2176    5.5591   53.6547 C   0  0  0  0  0  0  0  0  0  0  0  0
   24.7646    7.3664   55.7791 C   0  0  0  0  0  0  0  0  0  0  0  0
   25.3783    8.4251   55.1495 C   0  0  0  0  0  0  0  0  0  0  0  0
   24.6270    9.3071   54.4066 C   0  0  0  0  0  0  0  0  0  0  0  0
   23.2483    9.1687   54.3304 C   0  0  0  0  0  0  0  0  0  0  0  0
   17.8122    5.9909   51.7037 H   0  0  0  0  0  0  0  0  0  0  0  0
   16.8197    4.7048   52.4411 H   0  0  0  0  0  0  0  0  0  0  0  0
   20.9148    6.8714   56.6669 H   0  0  0  0  0  0  0  0  0  0  0  0
   22.9144    6.3299   56.1626 H   0  0  0  0  0  0  0  0  0  0  0  0
   19.5706    5.2644   57.8844 H   0  0  0  0  0  0  0  0  0  0  0  0
   20.6677    8.5017   54.2568 H   0  0  0  0  0  0  0  0  0  0  0  0
   17.9369    3.4833   58.5097 H   0  0  0  0  0  0  0  0  0  0  0  0
   16.3821    2.5466   56.8180 H   0  0  0  0  0  0  0  0  0  0  0  0
   16.4081    3.3955   54.4774 H   0  0  0  0  0  0  0  0  0  0  0  0
   19.5250    7.1217   53.1253 H   0  0  0  0  0  0  0  0  0  0  0  0
   25.3651    6.6541   56.3640 H   0  0  0  0  0  0  0  0  0  0  0  0
   26.4656    8.5660   55.2397 H   0  0  0  0  0  0  0  0  0  0  0  0
   25.1233   10.1284   53.8689 H   0  0  0  0  0  0  0  0  0  0  0  0
   22.6522    9.8985   53.7627 H   0  0  0  0  0  0  0  0  0  0  0  0
  1 14  2  0
  2  4  2  3
  2  8  1  0
  2 13  1  0
  3  5  2  0
  3  9  1  0
  3 18  1  0
  4  9  1  0
  5 15  1  0
  6  8  1  0
  6 12  2  0
  6 14  1  0
  7  8  2  0
  7 10  1  0
 10 11  2  0
 11 12  1  0
 13 14  1  0
 15 16  2  0
 16 17  1  0
 17 18  2  0
  1 19  1  0
  1 20  1  0
  4 21  1  0
  5 22  1  0
  7 23  1  0
  9 24  1  0
 10 25  1  0
 11 26  1  0
 12 27  1  0
 13 28  1  0
 15 29  1  0
 16 30  1  0
 17 31  1  0
 18 32  1  0
M  CHG  2   1   1   4   1
M  END
>  <filename_input>  (19) 
5SAK_ZRY_docked.sdf

>  <pdb_id>  (19) 
5SAK_ZRY

>  <pose_rank>  (19) 
18

>  <num_atoms_heavy>  (19) 
18

>  <num_torsions>  (19) 
2

>  <pose>  (19) 
[17.569216060282614, 5.407175186129524, 52.51686643030929, -1.6379242145880497, -2.5870484203271724, 2.652213838056854, 0.6532842032309878, -2.893220665676609]

>  <energy>  (19) 
-378.284067958201

>  <inter_energy>  (19) 
-355.40559939944666

>  <intra_energy>  (19) 
0.0

>  <rmsd>  (19) 
7.57322

>  <sdf_rank>  (19) 
0

$$$$

     RDKit          3D

 32 34  0  0  0  0  0  0  0  0999 V2000
   19.7043   11.3798   58.7797 N   0  0  0  0  0  0  0  0  0  0  0  0
   20.8860   10.2029   55.6812 C   0  0  0  0  0  0  0  0  0  0  0  0
   23.1590    7.8972   55.6601 C   0  0  0  0  0  0  0  0  0  0  0  0
   21.4412    9.3662   54.9117 N   0  0  0  0  0  0  0  0  0  0  0  0
   24.1132    8.4713   54.8297 C   0  0  0  0  0  0  0  0  0  0  0  0
   19.9317   12.1584   56.4397 C   0  0  0  0  0  0  0  0  0  0  0  0
   20.3681   12.1913   54.0639 C   0  0  0  0  0  0  0  0  0  0  0  0
   20.4178   11.5401   55.2959 C   0  0  0  0  0  0  0  0  0  0  0  0
   21.7991    8.2001   55.4673 N   0  0  0  0  0  0  0  0  0  0  0  0
   19.8289   13.4732   54.0098 C   0  0  0  0  0  0  0  0  0  0  0  0
   19.3572   14.0993   55.1613 C   0  0  0  0  0  0  0  0  0  0  0  0
   19.4057   13.4519   56.3838 C   0  0  0  0  0  0  0  0  0  0  0  0
   20.6111   10.0740   57.0618 N   0  0  0  0  0  0  0  0  0  0  0  0
   20.0672   11.2045   57.5244 C   0  0  0  0  0  0  0  0  0  0  0  0
   25.4543    8.1613   54.9855 C   0  0  0  0  0  0  0  0  0  0  0  0
   25.8572    7.3077   55.9870 C   0  0  0  0  0  0  0  0  0  0  0  0
   24.9237    6.7721   56.8450 C   0  0  0  0  0  0  0  0  0  0  0  0
   23.5733    7.0432   56.6762 C   0  0  0  0  0  0  0  0  0  0  0  0
   19.8501   10.6274   59.4678 H   0  0  0  0  0  0  0  0  0  0  0  0
   19.2750   12.2692   59.0723 H   0  0  0  0  0  0  0  0  0  0  0  0
   21.6085    9.5694   53.9159 H   0  0  0  0  0  0  0  0  0  0  0  0
   23.8022    9.1758   54.0442 H   0  0  0  0  0  0  0  0  0  0  0  0
   20.7470   11.7024   53.1543 H   0  0  0  0  0  0  0  0  0  0  0  0
   21.0766    7.5242   55.7536 H   0  0  0  0  0  0  0  0  0  0  0  0
   19.7745   13.9990   53.0451 H   0  0  0  0  0  0  0  0  0  0  0  0
   18.9428   15.1163   55.0986 H   0  0  0  0  0  0  0  0  0  0  0  0
   19.0371   13.9466   57.2945 H   0  0  0  0  0  0  0  0  0  0  0  0
   20.8014    9.2343   57.6272 H   0  0  0  0  0  0  0  0  0  0  0  0
   26.2002    8.5991   54.3059 H   0  0  0  0  0  0  0  0  0  0  0  0
   26.9215    7.0544   56.1014 H   0  0  0  0  0  0  0  0  0  0  0  0
   25.2508    6.1238   57.6713 H   0  0  0  0  0  0  0  0  0  0  0  0
   22.8315    6.5831   57.3455 H   0  0  0  0  0  0  0  0  0  0  0  0
  1 14  2  0
  2  4  2  3
  2  8  1  0
  2 13  1  0
  3  5  2  0
  3  9  1  0
  3 18  1  0
  4  9  1  0
  5 15  1  0
  6  8  1  0
  6 12  2  0
  6 14  1  0
  7  8  2  0
  7 10  1  0
 10 11  2  0
 11 12  1  0
 13 14  1  0
 15 16  2  0
 16 17  1  0
 17 18  2  0
  1 19  1  0
  1 20  1  0
  4 21  1  0
  5 22  1  0
  7 23  1  0
  9 24  1  0
 10 25  1  0
 11 26  1  0
 12 27  1  0
 13 28  1  0
 15 29  1  0
 16 30  1  0
 17 31  1  0
 18 32  1  0
M  CHG  2   1   1   4   1
M  END
>  <filename_input>  (20) 
5SAK_ZRY_docked.sdf

>  <pdb_id>  (20) 
5SAK_ZRY

>  <pose_rank>  (20) 
19

>  <num_atoms_heavy>  (20) 
18

>  <num_torsions>  (20) 
2

>  <pose>  (20) 
[19.704339726838445, 11.379829274651478, 58.779701024052734, -1.465445726856407, -1.1142724386988085, -1.6209937577456948, 1.1979465399145655, -3.546330277999365]

>  <energy>  (20) 
-305.69693857456224

>  <inter_energy>  (20) 
-311.59941779755474

>  <intra_energy>  (20) 
0.18480045202060078

>  <rmsd>  (20) 
9.17068

>  <sdf_rank>  (20) 
0

$$$$

     RDKit          3D

 32 34  0  0  0  0  0  0  0  0999 V2000
   18.0415    4.4371   56.8059 N   0  0  0  0  0  0  0  0  0  0  0  0
   20.1226    6.2691   54.6390 C   0  0  0  0  0  0  0  0  0  0  0  0
   23.0178    8.0242   55.2920 C   0  0  0  0  0  0  0  0  0  0  0  0
   21.0283    7.1070   54.3597 N   0  0  0  0  0  0  0  0  0  0  0  0
   23.3510    9.2701   54.7759 C   0  0  0  0  0  0  0  0  0  0  0  0
   18.3845    4.7790   54.3771 C   0  0  0  0  0  0  0  0  0  0  0  0
   19.3176    5.5065   52.2709 C   0  0  0  0  0  0  0  0  0  0  0  0
   19.2947    5.5475   53.6645 C   0  0  0  0  0  0  0  0  0  0  0  0
   21.6643    7.6587   55.4027 N   0  0  0  0  0  0  0  0  0  0  0  0
   18.4053    4.6860   51.6140 C   0  0  0  0  0  0  0  0  0  0  0  0
   17.4811    3.9284   52.3297 C   0  0  0  0  0  0  0  0  0  0  0  0
   17.4596    3.9687   53.7131 C   0  0  0  0  0  0  0  0  0  0  0  0
   19.6792    5.8524   55.9150 N   0  0  0  0  0  0  0  0  0  0  0  0
   18.6613    4.9952   55.7848 C   0  0  0  0  0  0  0  0  0  0  0  0
   24.6793    9.6355   54.6314 C   0  0  0  0  0  0  0  0  0  0  0  0
   25.6814    8.7805   55.0301 C   0  0  0  0  0  0  0  0  0  0  0  0
   25.3599    7.5638   55.5874 C   0  0  0  0  0  0  0  0  0  0  0  0
   24.0345    7.1688   55.7020 C   0  0  0  0  0  0  0  0  0  0  0  0
   18.3253    4.6674   57.7689 H   0  0  0  0  0  0  0  0  0  0  0  0
   17.2736    3.7709   56.6406 H   0  0  0  0  0  0  0  0  0  0  0  0
   21.2633    7.3512   53.3871 H   0  0  0  0  0  0  0  0  0  0  0  0
   22.5558    9.9703   54.4802 H   0  0  0  0  0  0  0  0  0  0  0  0
   20.0412    6.1096   51.7029 H   0  0  0  0  0  0  0  0  0  0  0  0
   21.1605    7.8152   56.2874 H   0  0  0  0  0  0  0  0  0  0  0  0
   18.4141    4.6351   50.5152 H   0  0  0  0  0  0  0  0  0  0  0  0
   16.7627    3.2929   51.7912 H   0  0  0  0  0  0  0  0  0  0  0  0
   16.7278    3.3739   54.2795 H   0  0  0  0  0  0  0  0  0  0  0  0
   20.0805    6.1628   56.8114 H   0  0  0  0  0  0  0  0  0  0  0  0
   24.9343   10.6131   54.1962 H   0  0  0  0  0  0  0  0  0  0  0  0
   26.7354    9.0686   54.9039 H   0  0  0  0  0  0  0  0  0  0  0  0
   26.1600    6.8989   55.9448 H   0  0  0  0  0  0  0  0  0  0  0  0
   23.7885    6.1802   56.1167 H   0  0  0  0  0  0  0  0  0  0  0  0
  1 14  2  0
  2  4  2  3
  2  8  1  0
  2 13  1  0
  3  5  2  0
  3  9  1  0
  3 18  1  0
  4  9  1  0
  5 15  1  0
  6  8  1  0
  6 12  2  0
  6 14  1  0
  7  8  2  0
  7 10  1  0
 10 11  2  0
 11 12  1  0
 13 14  1  0
 15 16  2  0
 16 17  1  0
 17 18  2  0
  1 19  1  0
  1 20  1  0
  4 21  1  0
  5 22  1  0
  7 23  1  0
  9 24  1  0
 10 25  1  0
 11 26  1  0
 12 27  1  0
 13 28  1  0
 15 29  1  0
 16 30  1  0
 17 31  1  0
 18 32  1  0
M  CHG  2   1   1   4   1
M  END
>  <filename_input>  (21) 
5SAK_ZRY_docked.sdf

>  <pdb_id>  (21) 
5SAK_ZRY

>  <pose_rank>  (21) 
20

>  <num_atoms_heavy>  (21) 
18

>  <num_torsions>  (21) 
2

>  <pose>  (21) 
[18.041537917573155, 4.437148911897471, 56.80587324009761, 0.18116027713823107, -2.0252336144062504, -0.35993204613900215, -0.5895500272274832, -1.5803548499279092]

>  <energy>  (21) 
-374.55780012533774

>  <inter_energy>  (21) 
-343.554074381707

>  <intra_energy>  (21) 
0.0

>  <rmsd>  (21) 
7.91903

>  <sdf_rank>  (21) 
0

$$$$

     RDKit          3D

 32 34  0  0  0  0  0  0  0  0999 V2000
   22.1687   -2.5987   57.0588 N   0  0  0  0  0  0  0  0  0  0  0  0
   21.8787   -0.9182   60.1368 C   0  0  0  0  0  0  0  0  0  0  0  0
   23.9328    1.4314   60.5216 C   0  0  0  0  0  0  0  0  0  0  0  0
   22.0281    0.0607   60.9241 N   0  0  0  0  0  0  0  0  0  0  0  0
   24.4231    2.6948   60.2166 C   0  0  0  0  0  0  0  0  0  0  0  0
   21.3949   -3.0368   59.3703 C   0  0  0  0  0  0  0  0  0  0  0  0
   20.7741   -2.7149   61.6827 C   0  0  0  0  0  0  0  0  0  0  0  0
   21.3279   -2.2304   60.4982 C   0  0  0  0  0  0  0  0  0  0  0  0
   22.5567    1.1713   60.3916 N   0  0  0  0  0  0  0  0  0  0  0  0
   20.2993   -4.0229   61.7093 C   0  0  0  0  0  0  0  0  0  0  0  0
   20.3829   -4.8366   60.5819 C   0  0  0  0  0  0  0  0  0  0  0  0
   20.9317   -4.3548   59.4060 C   0  0  0  0  0  0  0  0  0  0  0  0
   22.2172   -0.9989   58.7667 N   0  0  0  0  0  0  0  0  0  0  0  0
   21.9549   -2.2262   58.3053 C   0  0  0  0  0  0  0  0  0  0  0  0
   25.7793    2.9606   60.3098 C   0  0  0  0  0  0  0  0  0  0  0  0
   26.6497    1.9846   60.7386 C   0  0  0  0  0  0  0  0  0  0  0  0
   26.1667    0.7444   61.0891 C   0  0  0  0  0  0  0  0  0  0  0  0
   24.8159    0.4524   60.9634 C   0  0  0  0  0  0  0  0  0  0  0  0
   22.5739   -1.9336   56.3848 H   0  0  0  0  0  0  0  0  0  0  0  0
   21.9306   -3.5549   56.7591 H   0  0  0  0  0  0  0  0  0  0  0  0
   21.7590    0.0073   61.9169 H   0  0  0  0  0  0  0  0  0  0  0  0
   23.7306    3.4885   59.8995 H   0  0  0  0  0  0  0  0  0  0  0  0
   20.7139   -2.0770   62.5768 H   0  0  0  0  0  0  0  0  0  0  0  0
   21.9538    1.8360   59.8860 H   0  0  0  0  0  0  0  0  0  0  0  0
   19.8522   -4.4193   62.6328 H   0  0  0  0  0  0  0  0  0  0  0  0
   20.0099   -5.8705   60.6264 H   0  0  0  0  0  0  0  0  0  0  0  0
   21.0018   -4.9974   58.5160 H   0  0  0  0  0  0  0  0  0  0  0  0
   22.6076   -0.2273   58.2072 H   0  0  0  0  0  0  0  0  0  0  0  0
   26.1623    3.9559   60.0400 H   0  0  0  0  0  0  0  0  0  0  0  0
   27.7276    2.1949   60.8009 H   0  0  0  0  0  0  0  0  0  0  0  0
   26.8570   -0.0217   61.4720 H   0  0  0  0  0  0  0  0  0  0  0  0
   24.4442   -0.5523   61.2130 H   0  0  0  0  0  0  0  0  0  0  0  0
  1 14  2  0
  2  4  2  3
  2  8  1  0
  2 13  1  0
  3  5  2  0
  3  9  1  0
  3 18  1  0
  4  9  1  0
  5 15  1  0
  6  8  1  0
  6 12  2  0
  6 14  1  0
  7  8  2  0
  7 10  1  0
 10 11  2  0
 11 12  1  0
 13 14  1  0
 15 16  2  0
 16 17  1  0
 17 18  2  0
  1 19  1  0
  1 20  1  0
  4 21  1  0
  5 22  1  0
  7 23  1  0
  9 24  1  0
 10 25  1  0
 11 26  1  0
 12 27  1  0
 13 28  1  0
 15 29  1  0
 16 30  1  0
 17 31  1  0
 18 32  1  0
M  CHG  2   1   1   4   1
M  END
>  <filename_input>  (22) 
5SAK_ZRY_docked.sdf

>  <pdb_id>  (22) 
5SAK_ZRY

>  <pose_rank>  (22) 
21

>  <num_atoms_heavy>  (22) 
18

>  <num_torsions>  (22) 
2

>  <pose>  (22) 
[22.168709788068078, -2.598723482064545, 57.05883785392104, 0.7955044690971005, 1.019244183978174, -0.821294989906238, 1.4198477880825637, 0.2927271887488774]

>  <energy>  (22) 
-278.0382566291657

>  <inter_energy>  (22) 
-270.1980797167243

>  <intra_energy>  (22) 
8.027953839173668

>  <rmsd>  (22) 
8.14668

>  <sdf_rank>  (22) 
0

$$$$

     RDKit          3D

 32 34  0  0  0  0  0  0  0  0999 V2000
   24.2294    4.3980   59.2927 N   0  0  0  0  0  0  0  0  0  0  0  0
   23.8327    1.0252   60.2142 C   0  0  0  0  0  0  0  0  0  0  0  0
   21.1541   -1.0111   59.6668 C   0  0  0  0  0  0  0  0  0  0  0  0
   23.1680   -0.0219   60.4634 N   0  0  0  0  0  0  0  0  0  0  0  0
   19.7650   -1.0120   59.6615 C   0  0  0  0  0  0  0  0  0  0  0  0
   25.6080    2.4852   60.0505 C   0  0  0  0  0  0  0  0  0  0  0  0
   26.2848    0.2600   60.7038 C   0  0  0  0  0  0  0  0  0  0  0  0
   25.2862    1.1714   60.3625 C   0  0  0  0  0  0  0  0  0  0  0  0
   21.8447    0.0577   60.2658 N   0  0  0  0  0  0  0  0  0  0  0  0
   27.6053    0.6989   60.7315 C   0  0  0  0  0  0  0  0  0  0  0  0
   27.9251    2.0218   60.4350 C   0  0  0  0  0  0  0  0  0  0  0  0
   26.9335    2.9257   60.0951 C   0  0  0  0  0  0  0  0  0  0  0  0
   23.3556    2.2799   59.7712 N   0  0  0  0  0  0  0  0  0  0  0  0
   24.3703    3.1460   59.6812 C   0  0  0  0  0  0  0  0  0  0  0  0
   19.0679   -2.0708   59.1029 C   0  0  0  0  0  0  0  0  0  0  0  0
   19.7456   -3.1157   58.5173 C   0  0  0  0  0  0  0  0  0  0  0  0
   21.1212   -3.0999   58.4750 C   0  0  0  0  0  0  0  0  0  0  0  0
   21.8328   -2.0649   59.0650 C   0  0  0  0  0  0  0  0  0  0  0  0
   23.2956    4.7611   59.0540 H   0  0  0  0  0  0  0  0  0  0  0  0
   25.0531    5.0129   59.2279 H   0  0  0  0  0  0  0  0  0  0  0  0
   23.6177   -0.8857   60.7988 H   0  0  0  0  0  0  0  0  0  0  0  0
   19.2156   -0.1675   60.1031 H   0  0  0  0  0  0  0  0  0  0  0  0
   26.0343   -0.7833   60.9460 H   0  0  0  0  0  0  0  0  0  0  0  0
   21.3323    0.9037   60.5532 H   0  0  0  0  0  0  0  0  0  0  0  0
   28.4069   -0.0082   60.9910 H   0  0  0  0  0  0  0  0  0  0  0  0
   28.9741    2.3508   60.4712 H   0  0  0  0  0  0  0  0  0  0  0  0
   27.1841    3.9717   59.8644 H   0  0  0  0  0  0  0  0  0  0  0  0
   22.3727    2.4949   59.5505 H   0  0  0  0  0  0  0  0  0  0  0  0
   17.9682   -2.0764   59.1276 H   0  0  0  0  0  0  0  0  0  0  0  0
   19.1897   -3.9606   58.0845 H   0  0  0  0  0  0  0  0  0  0  0  0
   21.6609   -3.9142   57.9695 H   0  0  0  0  0  0  0  0  0  0  0  0
   22.9327   -2.0782   59.0567 H   0  0  0  0  0  0  0  0  0  0  0  0
  1 14  2  0
  2  4  2  3
  2  8  1  0
  2 13  1  0
  3  5  2  0
  3  9  1  0
  3 18  1  0
  4  9  1  0
  5 15  1  0
  6  8  1  0
  6 12  2  0
  6 14  1  0
  7  8  2  0
  7 10  1  0
 10 11  2  0
 11 12  1  0
 13 14  1  0
 15 16  2  0
 16 17  1  0
 17 18  2  0
  1 19  1  0
  1 20  1  0
  4 21  1  0
  5 22  1  0
  7 23  1  0
  9 24  1  0
 10 25  1  0
 11 26  1  0
 12 27  1  0
 13 28  1  0
 15 29  1  0
 16 30  1  0
 17 31  1  0
 18 32  1  0
M  CHG  2   1   1   4   1
M  END
>  <filename_input>  (23) 
5SAK_ZRY_docked.sdf

>  <pdb_id>  (23) 
5SAK_ZRY

>  <pose_rank>  (23) 
22

>  <num_atoms_heavy>  (23) 
18

>  <num_torsions>  (23) 
2

>  <pose>  (23) 
[24.22940957790379, 4.397962144095556, 59.292714726812655, -0.7723154646375749, -1.8520606140357452, -3.9543476150913475, -19.601507321853372, -0.11761832046939437]

>  <energy>  (23) 
-354.1909781347921

>  <inter_energy>  (23) 
-348.5842257846723

>  <intra_energy>  (23) 
0.0

>  <rmsd>  (23) 
7.43578

>  <sdf_rank>  (23) 
0

$$$$

     RDKit          3D

 32 34  0  0  0  0  0  0  0  0999 V2000
   20.0717    4.5410   52.5559 N   0  0  0  0  0  0  0  0  0  0  0  0
   20.3684    6.7748   55.2585 C   0  0  0  0  0  0  0  0  0  0  0  0
   23.3024    7.4129   55.9685 C   0  0  0  0  0  0  0  0  0  0  0  0
   20.9434    7.2842   56.2637 N   0  0  0  0  0  0  0  0  0  0  0  0
   24.5315    6.7709   56.0517 C   0  0  0  0  0  0  0  0  0  0  0  0
   18.7472    6.2987   53.6917 C   0  0  0  0  0  0  0  0  0  0  0  0
   18.1154    8.0994   55.1730 C   0  0  0  0  0  0  0  0  0  0  0  0
   19.0297    7.1272   54.7689 C   0  0  0  0  0  0  0  0  0  0  0  0
   22.1671    6.8151   56.5445 N   0  0  0  0  0  0  0  0  0  0  0  0
   16.9149    8.2137   54.4782 C   0  0  0  0  0  0  0  0  0  0  0  0
   16.6252    7.3702   53.4082 C   0  0  0  0  0  0  0  0  0  0  0  0
   17.5337    6.4061   53.0069 C   0  0  0  0  0  0  0  0  0  0  0  0
   20.8438    5.7563   54.4013 N   0  0  0  0  0  0  0  0  0  0  0  0
   19.9115    5.4566   53.4910 C   0  0  0  0  0  0  0  0  0  0  0  0
   25.6659    7.3588   55.5167 C   0  0  0  0  0  0  0  0  0  0  0  0
   25.5796    8.5690   54.8672 C   0  0  0  0  0  0  0  0  0  0  0  0
   24.3577    9.1893   54.7376 C   0  0  0  0  0  0  0  0  0  0  0  0
   23.2200    8.6308   55.3026 C   0  0  0  0  0  0  0  0  0  0  0  0
   20.9469    4.0000   52.5095 H   0  0  0  0  0  0  0  0  0  0  0  0
   19.3216    4.3667   51.8719 H   0  0  0  0  0  0  0  0  0  0  0  0
   20.4969    8.0171   56.8333 H   0  0  0  0  0  0  0  0  0  0  0  0
   24.6042    5.7905   56.5452 H   0  0  0  0  0  0  0  0  0  0  0  0
   18.3382    8.7617   56.0225 H   0  0  0  0  0  0  0  0  0  0  0  0
   22.2764    6.0149   57.1837 H   0  0  0  0  0  0  0  0  0  0  0  0
   16.1851    8.9802   54.7780 H   0  0  0  0  0  0  0  0  0  0  0  0
   15.6668    7.4711   52.8779 H   0  0  0  0  0  0  0  0  0  0  0  0
   17.3048    5.7368   52.1645 H   0  0  0  0  0  0  0  0  0  0  0  0
   21.7704    5.3113   54.4681 H   0  0  0  0  0  0  0  0  0  0  0  0
   26.6398    6.8562   55.6113 H   0  0  0  0  0  0  0  0  0  0  0  0
   26.4838    9.0390   54.4531 H   0  0  0  0  0  0  0  0  0  0  0  0
   24.2825   10.1355   54.1817 H   0  0  0  0  0  0  0  0  0  0  0  0
   22.2540    9.1510   55.2239 H   0  0  0  0  0  0  0  0  0  0  0  0
  1 14  2  0
  2  4  2  3
  2  8  1  0
  2 13  1  0
  3  5  2  0
  3  9  1  0
  3 18  1  0
  4  9  1  0
  5 15  1  0
  6  8  1  0
  6 12  2  0
  6 14  1  0
  7  8  2  0
  7 10  1  0
 10 11  2  0
 11 12  1  0
 13 14  1  0
 15 16  2  0
 16 17  1  0
 17 18  2  0
  1 19  1  0
  1 20  1  0
  4 21  1  0
  5 22  1  0
  7 23  1  0
  9 24  1  0
 10 25  1  0
 11 26  1  0
 12 27  1  0
 13 28  1  0
 15 29  1  0
 16 30  1  0
 17 31  1  0
 18 32  1  0
M  CHG  2   1   1   4   1
M  END
>  <filename_input>  (24) 
5SAK_ZRY_docked.sdf

>  <pdb_id>  (24) 
5SAK_ZRY

>  <pose_rank>  (24) 
23

>  <num_atoms_heavy>  (24) 
18

>  <num_torsions>  (24) 
2

>  <pose>  (24) 
[20.07169287414268, 4.540964714816923, 52.55594133098481, 1.5241517414412258, -0.43775426557058733, -1.5084922809145347, 4.672682021206445, 0.28044445957199937]

>  <energy>  (24) 
-319.7637513171704

>  <inter_energy>  (24) 
-318.10212313287536

>  <intra_energy>  (24) 
8.34014440391115

>  <rmsd>  (24) 
8.00601

>  <sdf_rank>  (24) 
0

$$$$

     RDKit          3D

 32 34  0  0  0  0  0  0  0  0999 V2000
   19.2730    1.5612   57.8239 N   0  0  0  0  0  0  0  0  0  0  0  0
   21.8423   -0.4784   59.0969 C   0  0  0  0  0  0  0  0  0  0  0  0
   24.2807    1.0851   60.3578 C   0  0  0  0  0  0  0  0  0  0  0  0
   22.8417   -0.7363   59.8284 N   0  0  0  0  0  0  0  0  0  0  0  0
   25.5870    0.6282   60.4782 C   0  0  0  0  0  0  0  0  0  0  0  0
   20.2274   -0.6962   57.4675 C   0  0  0  0  0  0  0  0  0  0  0  0
   21.5590   -2.6938   57.7368 C   0  0  0  0  0  0  0  0  0  0  0  0
   21.2638   -1.3777   58.0906 C   0  0  0  0  0  0  0  0  0  0  0  0
   23.2135    0.2282   60.6816 N   0  0  0  0  0  0  0  0  0  0  0  0
   20.7980   -3.3025   56.7432 C   0  0  0  0  0  0  0  0  0  0  0  0
   19.7694   -2.6118   56.1067 C   0  0  0  0  0  0  0  0  0  0  0  0
   19.4762   -1.3058   56.4591 C   0  0  0  0  0  0  0  0  0  0  0  0
   21.0759    0.7084   59.0490 N   0  0  0  0  0  0  0  0  0  0  0  0
   20.1395    0.6067   58.0999 C   0  0  0  0  0  0  0  0  0  0  0  0
   26.6513    1.4676   60.1927 C   0  0  0  0  0  0  0  0  0  0  0  0
   26.4236    2.7520   59.7540 C   0  0  0  0  0  0  0  0  0  0  0  0
   25.1323    3.1976   59.5854 C   0  0  0  0  0  0  0  0  0  0  0  0
   24.0571    2.3806   59.9049 C   0  0  0  0  0  0  0  0  0  0  0  0
   19.3053    2.4514   58.3410 H   0  0  0  0  0  0  0  0  0  0  0  0
   18.5637    1.4167   57.0911 H   0  0  0  0  0  0  0  0  0  0  0  0
   23.3408   -1.6355   59.7715 H   0  0  0  0  0  0  0  0  0  0  0  0
   25.7773   -0.4057   60.8020 H   0  0  0  0  0  0  0  0  0  0  0  0
   22.3758   -3.2391   58.2323 H   0  0  0  0  0  0  0  0  0  0  0  0
   22.7165    0.3421   61.5765 H   0  0  0  0  0  0  0  0  0  0  0  0
   21.0116   -4.3429   56.4567 H   0  0  0  0  0  0  0  0  0  0  0  0
   19.1855   -3.1082   55.3176 H   0  0  0  0  0  0  0  0  0  0  0  0
   18.6666   -0.7578   55.9547 H   0  0  0  0  0  0  0  0  0  0  0  0
   21.2176    1.5292   59.6549 H   0  0  0  0  0  0  0  0  0  0  0  0
   27.6827    1.1061   60.3172 H   0  0  0  0  0  0  0  0  0  0  0  0
   27.2705    3.4201   59.5387 H   0  0  0  0  0  0  0  0  0  0  0  0
   24.9511    4.2097   59.1944 H   0  0  0  0  0  0  0  0  0  0  0  0
   23.0290    2.7573   59.7998 H   0  0  0  0  0  0  0  0  0  0  0  0
  1 14  2  0
  2  4  2  3
  2  8  1  0
  2 13  1  0
  3  5  2  0
  3  9  1  0
  3 18  1  0
  4  9  1  0
  5 15  1  0
  6  8  1  0
  6 12  2  0
  6 14  1  0
  7  8  2  0
  7 10  1  0
 10 11  2  0
 11 12  1  0
 13 14  1  0
 15 16  2  0
 16 17  1  0
 17 18  2  0
  1 19  1  0
  1 20  1  0
  4 21  1  0
  5 22  1  0
  7 23  1  0
  9 24  1  0
 10 25  1  0
 11 26  1  0
 12 27  1  0
 13 28  1  0
 15 29  1  0
 16 30  1  0
 17 31  1  0
 18 32  1  0
M  CHG  2   1   1   4   1
M  END
>  <filename_input>  (25) 
5SAK_ZRY_docked.sdf

>  <pdb_id>  (25) 
5SAK_ZRY

>  <pose_rank>  (25) 
24

>  <num_atoms_heavy>  (25) 
18

>  <num_torsions>  (25) 
2

>  <pose>  (25) 
[19.272999032170198, 1.5611975394316848, 57.82386898719357, 1.3990821116630354, 2.592609874185641, -0.07803502016994113, 1.3859721850016185, 1.858990303168788]

>  <energy>  (25) 
-304.4652475215375

>  <inter_energy>  (25) 
-313.6363528208713

>  <intra_energy>  (25) 
2.6226359734494693

>  <rmsd>  (25) 
8.01958

>  <sdf_rank>  (25) 
0

$$$$

     RDKit          3D

 32 34  0  0  0  0  0  0  0  0999 V2000
   29.2770    3.6300   58.9240 N   0  0  0  0  0  0  0  0  0  0  0  0
   25.9780    4.7010   58.3310 C   0  0  0  0  0  0  0  0  0  0  0  0
   24.6050    7.1750   56.2560 C   0  0  0  0  0  0  0  0  0  0  0  0
   25.0890    5.4240   57.7950 N   0  0  0  0  0  0  0  0  0  0  0  0
   25.0720    8.1330   55.3650 C   0  0  0  0  0  0  0  0  0  0  0  0
   26.9800    3.1620   59.7230 C   0  0  0  0  0  0  0  0  0  0  0  0
   24.5730    3.1800   59.9280 C   0  0  0  0  0  0  0  0  0  0  0  0
   25.7440    3.6770   59.3570 C   0  0  0  0  0  0  0  0  0  0  0  0
   25.5170    6.3050   56.8800 N   0  0  0  0  0  0  0  0  0  0  0  0
   24.6730    2.1650   60.8750 C   0  0  0  0  0  0  0  0  0  0  0  0
   25.9150    1.6610   61.2540 C   0  0  0  0  0  0  0  0  0  0  0  0
   27.0770    2.1540   60.6860 C   0  0  0  0  0  0  0  0  0  0  0  0
   27.3730    4.7160   58.1030 N   0  0  0  0  0  0  0  0  0  0  0  0
   27.9750    3.8370   58.9110 C   0  0  0  0  0  0  0  0  0  0  0  0
   24.1920    9.0180   54.7640 C   0  0  0  0  0  0  0  0  0  0  0  0
   22.8420    8.9340   55.0180 C   0  0  0  0  0  0  0  0  0  0  0  0
   22.3650    7.9570   55.8620 C   0  0  0  0  0  0  0  0  0  0  0  0
   23.2390    7.0890   56.5010 C   0  0  0  0  0  0  0  0  0  0  0  0
   29.8909    4.1719   58.2992 H   0  0  0  0  0  0  0  0  0  0  0  0
   29.6803    2.9263   59.5589 H   0  0  0  0  0  0  0  0  0  0  0  0
   24.0938    5.3405   58.0471 H   0  0  0  0  0  0  0  0  0  0  0  0
   26.1463    8.1891   55.1355 H   0  0  0  0  0  0  0  0  0  0  0  0
   23.5913    3.5815   59.6363 H   0  0  0  0  0  0  0  0  0  0  0  0
   26.5162    6.3450   56.6333 H   0  0  0  0  0  0  0  0  0  0  0  0
   23.7592    1.7554   61.3302 H   0  0  0  0  0  0  0  0  0  0  0  0
   25.9728    0.8648   62.0108 H   0  0  0  0  0  0  0  0  0  0  0  0
   28.0587    1.7596   60.9871 H   0  0  0  0  0  0  0  0  0  0  0  0
   27.8540    5.3148   57.4167 H   0  0  0  0  0  0  0  0  0  0  0  0
   24.5738    9.7911   54.0809 H   0  0  0  0  0  0  0  0  0  0  0  0
   22.1467    9.6452   54.5482 H   0  0  0  0  0  0  0  0  0  0  0  0
   21.2821    7.8635   56.0314 H   0  0  0  0  0  0  0  0  0  0  0  0
   22.8516    6.3337   57.2006 H   0  0  0  0  0  0  0  0  0  0  0  0
  1 14  2  0
  2  4  2  3
  2  8  1  0
  2 13  1  0
  3  5  2  0
  3  9  1  0
  3 18  1  0
  4  9  1  0
  5 15  1  0
  6  8  1  0
  6 12  2  0
  6 14  1  0
  7  8  2  0
  7 10  1  0
 10 11  2  0
 11 12  1  0
 13 14  1  0
 15 16  2  0
 16 17  1  0
 17 18  2  0
  1 19  1  0
  1 20  1  0
  4 21  1  0
  5 22  1  0
  7 23  1  0
  9 24  1  0
 10 25  1  0
 11 26  1  0
 12 27  1  0
 13 28  1  0
 15 29  1  0
 16 30  1  0
 17 31  1  0
 18 32  1  0
M  CHG  2   1   1   4   1
M  END
>  <filename_input>  (26) 
5SAK_ZRY_docked.sdf

>  <pdb_id>  (26) 
5SAK_ZRY

>  <pose_rank>  (26) 
25

>  <num_atoms_heavy>  (26) 
18

>  <num_torsions>  (26) 
2

>  <pose>  (26) 
[29.277, 3.63, 58.924, 1e-06, 1e-06, 1e-06, 0.0, 0.0]

>  <energy>  (26) 
-790.7359525839922

>  <inter_energy>  (26) 
-782.5472174705213

>  <intra_energy>  (26) 
0.0

>  <rmsd>  (26) 
0.0

>  <sdf_rank>  (26) 
0

$$$$
