
     RDKit          3D

 50 54  0  0  0  0  0  0  0  0999 V2000
  -27.6353    5.1862   -4.2510 C   0  0  0  0  0  0  0  0  0  0  0  0
  -24.6629    1.4023   -1.9326 C   0  0  0  0  0  0  0  0  0  0  0  0
  -24.1443    2.0355   -2.8572 O   0  0  0  0  0  0  0  0  0  0  0  0
  -24.1256    0.0721   -1.5025 C   0  0  0  0  0  0  0  0  0  0  0  0
  -24.3059   -2.2423   -1.0587 C   0  0  0  0  0  0  0  0  0  0  0  0
  -22.9346   -2.3723   -0.9862 C   0  0  0  0  0  0  0  0  0  0  0  0
  -22.1500   -1.2485   -1.1641 C   0  0  0  0  0  0  0  0  0  0  0  0
  -20.6579   -1.3705   -1.0512 C   0  0  0  0  0  0  0  0  0  0  0  0
  -18.9818   -2.4760   -2.3480 C   0  0  0  0  0  0  0  0  0  0  0  0
  -18.0531   -1.9185   -1.4705 C   0  0  0  0  0  0  0  0  0  0  0  0
  -16.7345   -2.3461   -1.6289 C   0  0  0  0  0  0  0  0  0  0  0  0
  -16.4552   -3.3024   -2.6621 C   0  0  0  0  0  0  0  0  0  0  0  0
  -14.5147   -2.8602   -1.5804 C   0  0  0  0  0  0  0  0  0  0  0  0
  -15.4857   -2.0822   -0.9654 C   0  0  0  0  0  0  0  0  0  0  0  0
  -18.5912   -3.4066   -3.3501 C   0  0  0  0  0  0  0  0  0  0  0  0
  -25.7605    1.9138   -1.2866 N   0  0  0  0  0  0  0  0  0  0  0  0
  -26.2873    3.1701   -1.7396 C   0  0  1  0  0  0  0  0  0  0  0  0
  -26.9844    3.1171   -3.1118 C   0  0  1  0  0  0  0  0  0  0  0  0
  -27.7944    3.4027   -1.8551 C   0  0  0  0  0  0  0  0  0  0  0  0
  -26.7009    4.1829   -4.0809 C   0  0  0  0  0  0  0  0  0  0  0  0
  -25.5333    4.1821   -4.8313 C   0  0  0  0  0  0  0  0  0  0  0  0
  -25.3201    5.1893   -5.7610 C   0  0  0  0  0  0  0  0  0  0  0  0
  -26.2617    6.2058   -5.9343 C   0  0  0  0  0  0  0  0  0  0  0  0
  -27.4208    6.2006   -5.1708 C   0  0  0  0  0  0  0  0  0  0  0  0
  -24.9434   -1.0456   -1.2968 C   0  0  0  0  0  0  0  0  0  0  0  0
  -20.2955   -2.0924   -2.2189 O   0  0  0  0  0  0  0  0  0  0  0  0
  -15.0992   -3.6068   -2.6209 N   0  0  0  0  0  0  0  0  0  0  0  0
  -17.3627   -3.8355   -3.5308 N   0  0  0  0  0  0  0  0  0  0  0  0
  -22.7465   -0.0338   -1.4242 C   0  0  0  0  0  0  0  0  0  0  0  0
  -25.2462   -3.6797   -0.8622 Cl  0  0  0  0  0  0  0  0  0  0  0  0
  -28.5575    5.1800   -3.6514 H   0  0  0  0  0  0  0  0  0  0  0  0
  -22.4742   -3.3520   -0.7904 H   0  0  0  0  0  0  0  0  0  0  0  0
  -20.1821   -0.3789   -1.0383 H   0  0  0  0  0  0  0  0  0  0  0  0
  -20.3375   -1.8673   -0.1235 H   0  0  0  0  0  0  0  0  0  0  0  0
  -18.3418   -1.1871   -0.7013 H   0  0  0  0  0  0  0  0  0  0  0  0
  -13.4520   -2.8890   -1.2982 H   0  0  0  0  0  0  0  0  0  0  0  0
  -15.3289   -1.3905   -0.1246 H   0  0  0  0  0  0  0  0  0  0  0  0
  -19.3723   -3.7944   -4.0206 H   0  0  0  0  0  0  0  0  0  0  0  0
  -26.1939    1.4107   -0.4993 H   0  0  0  0  0  0  0  0  0  0  0  0
  -25.4828    3.7389   -1.2506 H   0  0  0  0  0  0  0  0  0  0  0  0
  -27.0721    2.3849   -3.9279 H   0  0  0  0  0  0  0  0  0  0  0  0
  -28.4967    2.6477   -1.4721 H   0  0  0  0  0  0  0  0  0  0  0  0
  -28.4804    4.2034   -1.5415 H   0  0  0  0  0  0  0  0  0  0  0  0
  -24.7835    3.3897   -4.6900 H   0  0  0  0  0  0  0  0  0  0  0  0
  -24.4018    5.1873   -6.3666 H   0  0  0  0  0  0  0  0  0  0  0  0
  -26.0862    7.0044   -6.6701 H   0  0  0  0  0  0  0  0  0  0  0  0
  -28.1669    6.9992   -5.2952 H   0  0  0  0  0  0  0  0  0  0  0  0
  -26.0406   -0.9712   -1.3240 H   0  0  0  0  0  0  0  0  0  0  0  0
  -14.6079   -4.2641   -3.2433 H   0  0  0  0  0  0  0  0  0  0  0  0
  -22.1220    0.8598   -1.5710 H   0  0  0  0  0  0  0  0  0  0  0  0
  1 20  2  0
  1 24  1  0
  2  3  2  0
  2  4  1  0
  2 16  1  0
  4 25  2  0
  4 29  1  0
  5  6  2  0
  5 25  1  0
  5 30  1  0
  6  7  1  0
  7  8  1  0
  7 29  2  0
  8 26  1  0
  9 10  2  0
  9 15  1  0
  9 26  1  0
 10 11  1  0
 11 12  2  0
 11 14  1  0
 12 27  1  0
 12 28  1  0
 13 14  2  0
 13 27  1  0
 15 28  2  0
 17 16  1  0
 17 18  1  0
 17 19  1  0
 18 19  1  0
 18 20  1  0
 20 21  1  0
 21 22  2  0
 22 23  1  0
 23 24  2  0
  1 31  1  0
  6 32  1  0
  8 33  1  0
  8 34  1  0
 10 35  1  0
 13 36  1  0
 14 37  1  0
 15 38  1  0
 16 39  1  0
 17 40  1  6
 18 41  1  6
 19 42  1  0
 19 43  1  0
 21 44  1  0
 22 45  1  0
 23 46  1  0
 24 47  1  0
 25 48  1  0
 27 49  1  0
 29 50  1  0
M  END
>  <filename_input>  (1) 
5SB2_1K2_docked.sdf

>  <pdb_id>  (1) 
5SB2_1K2

>  <pose_rank>  (1) 
0

>  <num_atoms_heavy>  (1) 
30

>  <num_torsions>  (1) 
6

>  <pose>  (1) 
[-24.125635005846583, 0.07210168545420642, -1.5025393584468456, -5.3356406229185955, -2.3331290135276737, 2.391173108372362, 0.514348989119507, -0.3585300919825708, -0.5537687867676994, 0.33267469521241594, 0.1958439890079573, -6.647233091340813]

>  <energy>  (1) 
-1887.7429219672078

>  <inter_energy>  (1) 
-1866.362898331495

>  <intra_energy>  (1) 
13.245449350128238

>  <rmsd>  (1) 
0.41152

>  <sdf_rank>  (1) 
0

$$$$

     RDKit          3D

 50 54  0  0  0  0  0  0  0  0999 V2000
  -28.4429    5.0942   -2.1241 C   0  0  0  0  0  0  0  0  0  0  0  0
  -24.7559    1.3215   -1.9631 C   0  0  0  0  0  0  0  0  0  0  0  0
  -24.0861    2.1478   -2.5902 O   0  0  0  0  0  0  0  0  0  0  0  0
  -24.1459    0.0542   -1.4484 C   0  0  0  0  0  0  0  0  0  0  0  0
  -24.2154   -2.2129   -0.7840 C   0  0  0  0  0  0  0  0  0  0  0  0
  -22.8384   -2.2940   -0.7877 C   0  0  0  0  0  0  0  0  0  0  0  0
  -22.1071   -1.1686   -1.1176 C   0  0  0  0  0  0  0  0  0  0  0  0
  -20.6074   -1.2343   -1.0896 C   0  0  0  0  0  0  0  0  0  0  0  0
  -18.9801   -2.4668   -2.3331 C   0  0  0  0  0  0  0  0  0  0  0  0
  -18.0346   -1.8889   -1.4874 C   0  0  0  0  0  0  0  0  0  0  0  0
  -16.7169   -2.3086   -1.6721 C   0  0  0  0  0  0  0  0  0  0  0  0
  -16.4555   -3.2783   -2.6975 C   0  0  0  0  0  0  0  0  0  0  0  0
  -14.4926   -2.8048   -1.6710 C   0  0  0  0  0  0  0  0  0  0  0  0
  -15.4542   -2.0251   -1.0438 C   0  0  0  0  0  0  0  0  0  0  0  0
  -18.6070   -3.4094   -3.3306 C   0  0  0  0  0  0  0  0  0  0  0  0
  -26.0895    1.5544   -1.7372 N   0  0  0  0  0  0  0  0  0  0  0  0
  -26.6670    2.7541   -2.2740 C   0  0  1  0  0  0  0  0  0  0  0  0
  -26.3245    4.0368   -1.4937 C   0  0  1  0  0  0  0  0  0  0  0  0
  -25.7953    3.8394   -2.9072 C   0  0  0  0  0  0  0  0  0  0  0  0
  -27.4008    4.9976   -1.2221 C   0  0  0  0  0  0  0  0  0  0  0  0
  -27.3727    5.8120   -0.0985 C   0  0  0  0  0  0  0  0  0  0  0  0
  -28.3923    6.7308    0.1029 C   0  0  0  0  0  0  0  0  0  0  0  0
  -29.4479    6.8298   -0.8060 C   0  0  0  0  0  0  0  0  0  0  0  0
  -29.4693    6.0029   -1.9206 C   0  0  0  0  0  0  0  0  0  0  0  0
  -24.9089   -1.0635   -1.0893 C   0  0  0  0  0  0  0  0  0  0  0  0
  -20.2933   -2.0914   -2.1772 O   0  0  0  0  0  0  0  0  0  0  0  0
  -15.0965   -3.5715   -2.6854 N   0  0  0  0  0  0  0  0  0  0  0  0
  -17.3798   -3.8315   -3.5353 N   0  0  0  0  0  0  0  0  0  0  0  0
  -22.7616   -0.0021   -1.4491 C   0  0  0  0  0  0  0  0  0  0  0  0
  -25.0895   -3.6533   -0.3971 Cl  0  0  0  0  0  0  0  0  0  0  0  0
  -28.4580    4.4442   -3.0114 H   0  0  0  0  0  0  0  0  0  0  0  0
  -22.3319   -3.2366   -0.5330 H   0  0  0  0  0  0  0  0  0  0  0  0
  -20.1673   -0.2368   -1.2352 H   0  0  0  0  0  0  0  0  0  0  0  0
  -20.2122   -1.5977   -0.1295 H   0  0  0  0  0  0  0  0  0  0  0  0
  -18.3101   -1.1482   -0.7222 H   0  0  0  0  0  0  0  0  0  0  0  0
  -13.4229   -2.8212   -1.4149 H   0  0  0  0  0  0  0  0  0  0  0  0
  -15.2824   -1.3196   -0.2176 H   0  0  0  0  0  0  0  0  0  0  0  0
  -19.4012   -3.8133   -3.9756 H   0  0  0  0  0  0  0  0  0  0  0  0
  -26.6597    0.8874   -1.1980 H   0  0  0  0  0  0  0  0  0  0  0  0
  -27.5643    2.2231   -2.6244 H   0  0  0  0  0  0  0  0  0  0  0  0
  -25.8550    4.2749   -0.5279 H   0  0  0  0  0  0  0  0  0  0  0  0
  -24.7232    3.6556   -3.0705 H   0  0  0  0  0  0  0  0  0  0  0  0
  -25.8398    4.4224   -3.8389 H   0  0  0  0  0  0  0  0  0  0  0  0
  -26.5492    5.7295    0.6260 H   0  0  0  0  0  0  0  0  0  0  0  0
  -28.3692    7.3867    0.9856 H   0  0  0  0  0  0  0  0  0  0  0  0
  -30.2560    7.5573   -0.6398 H   0  0  0  0  0  0  0  0  0  0  0  0
  -30.2986    6.0687   -2.6403 H   0  0  0  0  0  0  0  0  0  0  0  0
  -26.0076   -1.0252   -1.0530 H   0  0  0  0  0  0  0  0  0  0  0  0
  -14.6154   -4.2344   -3.3099 H   0  0  0  0  0  0  0  0  0  0  0  0
  -22.1798    0.8923   -1.7167 H   0  0  0  0  0  0  0  0  0  0  0  0
  1 20  2  0
  1 24  1  0
  2  3  2  0
  2  4  1  0
  2 16  1  0
  4 25  2  0
  4 29  1  0
  5  6  2  0
  5 25  1  0
  5 30  1  0
  6  7  1  0
  7  8  1  0
  7 29  2  0
  8 26  1  0
  9 10  2  0
  9 15  1  0
  9 26  1  0
 10 11  1  0
 11 12  2  0
 11 14  1  0
 12 27  1  0
 12 28  1  0
 13 14  2  0
 13 27  1  0
 15 28  2  0
 17 16  1  0
 17 18  1  0
 17 19  1  0
 18 19  1  0
 18 20  1  0
 20 21  1  0
 21 22  2  0
 22 23  1  0
 23 24  2  0
  1 31  1  0
  6 32  1  0
  8 33  1  0
  8 34  1  0
 10 35  1  0
 13 36  1  0
 14 37  1  0
 15 38  1  0
 16 39  1  0
 17 40  1  6
 18 41  1  1
 19 42  1  0
 19 43  1  0
 21 44  1  0
 22 45  1  0
 23 46  1  0
 24 47  1  0
 25 48  1  0
 27 49  1  0
 29 50  1  0
M  END
>  <filename_input>  (2) 
5SB2_1K2_docked.sdf

>  <pdb_id>  (2) 
5SB2_1K2

>  <pose_rank>  (2) 
1

>  <num_atoms_heavy>  (2) 
30

>  <num_torsions>  (2) 
6

>  <pose>  (2) 
[-24.145927048864333, 0.05424492030084079, -1.4483696259563805, 5.098689836897159, -2.884801462911778, -1.9013812095346267, 0.015169944639099311, 3.358898449217637, 0.7031744386875997, 0.2961691999051415, 0.21036014525692104, -0.24824007721814054]

>  <energy>  (2) 
-1667.9418274451518

>  <inter_energy>  (2) 
-1699.4907037662888

>  <intra_energy>  (2) 
48.07025292014361

>  <rmsd>  (2) 
2.3393

>  <sdf_rank>  (2) 
0

$$$$

     RDKit          3D

 50 54  0  0  0  0  0  0  0  0999 V2000
  -28.6377    4.6254   -2.5710 C   0  0  0  0  0  0  0  0  0  0  0  0
  -24.1686    1.5642   -2.0703 C   0  0  0  0  0  0  0  0  0  0  0  0
  -23.7021    2.5916   -1.5689 O   0  0  0  0  0  0  0  0  0  0  0  0
  -23.7690    0.2071   -1.5788 C   0  0  0  0  0  0  0  0  0  0  0  0
  -24.1673   -2.0702   -1.0877 C   0  0  0  0  0  0  0  0  0  0  0  0
  -22.8175   -2.3117   -0.9378 C   0  0  0  0  0  0  0  0  0  0  0  0
  -21.9324   -1.2627   -1.1011 C   0  0  0  0  0  0  0  0  0  0  0  0
  -20.4639   -1.5051   -0.9045 C   0  0  0  0  0  0  0  0  0  0  0  0
  -18.7127   -2.3119   -2.3173 C   0  0  0  0  0  0  0  0  0  0  0  0
  -17.7837   -1.8130   -1.4054 C   0  0  0  0  0  0  0  0  0  0  0  0
  -16.4748   -2.2709   -1.5594 C   0  0  0  0  0  0  0  0  0  0  0  0
  -16.2048   -3.1959   -2.6231 C   0  0  0  0  0  0  0  0  0  0  0  0
  -14.2710   -2.8479   -1.4961 C   0  0  0  0  0  0  0  0  0  0  0  0
  -15.2303   -2.0664   -0.8675 C   0  0  0  0  0  0  0  0  0  0  0  0
  -18.3313   -3.2155   -3.3472 C   0  0  0  0  0  0  0  0  0  0  0  0
  -25.0637    1.6564   -3.1066 N   0  0  0  0  0  0  0  0  0  0  0  0
  -25.4033    2.9638   -3.5927 C   0  0  1  0  0  0  0  0  0  0  0  0
  -26.3460    3.7653   -2.6759 C   0  0  1  0  0  0  0  0  0  0  0  0
  -24.9103    4.2262   -2.8842 C   0  0  0  0  0  0  0  0  0  0  0  0
  -27.4645    4.4927   -3.2884 C   0  0  0  0  0  0  0  0  0  0  0  0
  -27.3653    5.0214   -4.5679 C   0  0  0  0  0  0  0  0  0  0  0  0
  -28.4577    5.6717   -5.1231 C   0  0  0  0  0  0  0  0  0  0  0  0
  -29.6444    5.8090   -4.4000 C   0  0  0  0  0  0  0  0  0  0  0  0
  -29.7275    5.2843   -3.1177 C   0  0  0  0  0  0  0  0  0  0  0  0
  -24.6880   -0.8321   -1.3898 C   0  0  0  0  0  0  0  0  0  0  0  0
  -20.0175   -1.8970   -2.1941 O   0  0  0  0  0  0  0  0  0  0  0  0
  -14.8584   -3.5391   -2.5724 N   0  0  0  0  0  0  0  0  0  0  0  0
  -17.1120   -3.6713   -3.5249 N   0  0  0  0  0  0  0  0  0  0  0  0
  -22.4096   -0.0108   -1.4233 C   0  0  0  0  0  0  0  0  0  0  0  0
  -25.2348   -3.4180   -0.9066 Cl  0  0  0  0  0  0  0  0  0  0  0  0
  -28.7075    4.2044   -1.5571 H   0  0  0  0  0  0  0  0  0  0  0  0
  -22.4524   -3.3200   -0.6930 H   0  0  0  0  0  0  0  0  0  0  0  0
  -19.9547   -0.5878   -0.5740 H   0  0  0  0  0  0  0  0  0  0  0  0
  -20.2536   -2.2584   -0.1309 H   0  0  0  0  0  0  0  0  0  0  0  0
  -18.0651   -1.1028   -0.6140 H   0  0  0  0  0  0  0  0  0  0  0  0
  -13.2141   -2.9165   -1.1989 H   0  0  0  0  0  0  0  0  0  0  0  0
  -15.0687   -1.4108    0.0008 H   0  0  0  0  0  0  0  0  0  0  0  0
  -19.1116   -3.5564   -4.0436 H   0  0  0  0  0  0  0  0  0  0  0  0
  -25.4800    0.8116   -3.5237 H   0  0  0  0  0  0  0  0  0  0  0  0
  -25.3634    2.6369   -4.6423 H   0  0  0  0  0  0  0  0  0  0  0  0
  -26.9589    3.5507   -1.7881 H   0  0  0  0  0  0  0  0  0  0  0  0
  -24.1838    4.1453   -2.0622 H   0  0  0  0  0  0  0  0  0  0  0  0
  -24.4381    5.1639   -3.2124 H   0  0  0  0  0  0  0  0  0  0  0  0
  -26.4287    4.9257   -5.1368 H   0  0  0  0  0  0  0  0  0  0  0  0
  -28.3885    6.0826   -6.1411 H   0  0  0  0  0  0  0  0  0  0  0  0
  -30.5065    6.3289   -4.8432 H   0  0  0  0  0  0  0  0  0  0  0  0
  -30.6556    5.3912   -2.5371 H   0  0  0  0  0  0  0  0  0  0  0  0
  -25.7720   -0.6675   -1.4782 H   0  0  0  0  0  0  0  0  0  0  0  0
  -14.3749   -4.1864   -3.2113 H   0  0  0  0  0  0  0  0  0  0  0  0
  -21.7050    0.8230   -1.5583 H   0  0  0  0  0  0  0  0  0  0  0  0
  1 20  2  0
  1 24  1  0
  2  3  2  0
  2  4  1  0
  2 16  1  0
  4 25  2  0
  4 29  1  0
  5  6  2  0
  5 25  1  0
  5 30  1  0
  6  7  1  0
  7  8  1  0
  7 29  2  0
  8 26  1  0
  9 10  2  0
  9 15  1  0
  9 26  1  0
 10 11  1  0
 11 12  2  0
 11 14  1  0
 12 27  1  0
 12 28  1  0
 13 14  2  0
 13 27  1  0
 15 28  2  0
 17 16  1  0
 17 18  1  0
 17 19  1  0
 18 19  1  0
 18 20  1  0
 20 21  1  0
 21 22  2  0
 22 23  1  0
 23 24  2  0
  1 31  1  0
  6 32  1  0
  8 33  1  0
  8 34  1  0
 10 35  1  0
 13 36  1  0
 14 37  1  0
 15 38  1  0
 16 39  1  0
 17 40  1  6
 18 41  1  1
 19 42  1  0
 19 43  1  0
 21 44  1  0
 22 45  1  0
 23 46  1  0
 24 47  1  0
 25 48  1  0
 27 49  1  0
 29 50  1  0
M  END
>  <filename_input>  (3) 
5SB2_1K2_docked.sdf

>  <pdb_id>  (3) 
5SB2_1K2

>  <pose_rank>  (3) 
2

>  <num_atoms_heavy>  (3) 
30

>  <num_torsions>  (3) 
6

>  <pose>  (3) 
[-23.768965591200576, 0.2071198772944962, -1.578782298195584, -2.2965725682955833, -3.470742095278206, -4.846567789393451, -1.060855655244121, -2.893400469746704, -2.47870774765456, 0.6471235095705892, 6.478965205872867, -0.622522660346634]

>  <energy>  (3) 
-1461.5672938240782

>  <inter_energy>  (3) 
-1503.2970816138723

>  <intra_energy>  (3) 
49.27659585320735

>  <rmsd>  (3) 
1.57273

>  <sdf_rank>  (3) 
0

$$$$

     RDKit          3D

 50 54  0  0  0  0  0  0  0  0999 V2000
  -21.0130   -1.6645  -10.1028 C   0  0  0  0  0  0  0  0  0  0  0  0
  -21.5477   -1.7692   -4.4248 C   0  0  0  0  0  0  0  0  0  0  0  0
  -22.7538   -1.7473   -4.6887 O   0  0  0  0  0  0  0  0  0  0  0  0
  -21.0547   -1.5999   -3.0208 C   0  0  0  0  0  0  0  0  0  0  0  0
  -21.2948   -0.9876   -0.7507 C   0  0  0  0  0  0  0  0  0  0  0  0
  -20.1199   -1.6280   -0.4159 C   0  0  0  0  0  0  0  0  0  0  0  0
  -19.3967   -2.2543   -1.4133 C   0  0  0  0  0  0  0  0  0  0  0  0
  -18.0979   -2.9233   -1.0675 C   0  0  0  0  0  0  0  0  0  0  0  0
  -15.8365   -2.3437   -1.5812 C   0  0  0  0  0  0  0  0  0  0  0  0
  -15.4046   -1.4725   -0.5823 C   0  0  0  0  0  0  0  0  0  0  0  0
  -14.0539   -1.5583   -0.2433 C   0  0  0  0  0  0  0  0  0  0  0  0
  -13.2433   -2.5159   -0.9403 C   0  0  0  0  0  0  0  0  0  0  0  0
  -11.9315   -1.4710    0.5822 C   0  0  0  0  0  0  0  0  0  0  0  0
  -13.1941   -0.9092    0.7100 C   0  0  0  0  0  0  0  0  0  0  0  0
  -14.9401   -3.2445   -2.2198 C   0  0  0  0  0  0  0  0  0  0  0  0
  -20.6318   -1.9405   -5.4325 N   0  0  0  0  0  0  0  0  0  0  0  0
  -21.1200   -2.0591   -6.7773 C   0  0  1  0  0  0  0  0  0  0  0  0
  -20.0419   -1.9139   -7.8673 C   0  0  1  0  0  0  0  0  0  0  0  0
  -20.7392   -3.2505   -7.6572 C   0  0  0  0  0  0  0  0  0  0  0  0
  -20.3431   -1.0863   -9.0419 C   0  0  0  0  0  0  0  0  0  0  0  0
  -19.9498    0.2433   -9.1061 C   0  0  0  0  0  0  0  0  0  0  0  0
  -20.2240    0.9806  -10.2486 C   0  0  0  0  0  0  0  0  0  0  0  0
  -20.9024    0.3998  -11.3221 C   0  0  0  0  0  0  0  0  0  0  0  0
  -21.2989   -0.9279  -11.2415 C   0  0  0  0  0  0  0  0  0  0  0  0
  -21.7906   -0.9331   -2.0338 C   0  0  0  0  0  0  0  0  0  0  0  0
  -17.1636   -2.3020   -1.9376 O   0  0  0  0  0  0  0  0  0  0  0  0
  -11.9528   -2.4520   -0.4270 N   0  0  0  0  0  0  0  0  0  0  0  0
  -13.6639   -3.3572   -1.9291 N   0  0  0  0  0  0  0  0  0  0  0  0
  -19.8669   -2.2410   -2.7085 C   0  0  0  0  0  0  0  0  0  0  0  0
  -22.1828   -0.2459    0.5339 Cl  0  0  0  0  0  0  0  0  0  0  0  0
  -21.3222   -2.7184  -10.0433 H   0  0  0  0  0  0  0  0  0  0  0  0
  -19.7653   -1.6401    0.6254 H   0  0  0  0  0  0  0  0  0  0  0  0
  -17.8325   -2.7466   -0.0147 H   0  0  0  0  0  0  0  0  0  0  0  0
  -18.1336   -4.0163   -1.1868 H   0  0  0  0  0  0  0  0  0  0  0  0
  -16.0862   -0.7619   -0.0919 H   0  0  0  0  0  0  0  0  0  0  0  0
  -11.0498   -1.1925    1.1780 H   0  0  0  0  0  0  0  0  0  0  0  0
  -13.4843   -0.1134    1.4117 H   0  0  0  0  0  0  0  0  0  0  0  0
  -15.3436   -3.8920   -3.0123 H   0  0  0  0  0  0  0  0  0  0  0  0
  -19.6229   -1.9829   -5.2296 H   0  0  0  0  0  0  0  0  0  0  0  0
  -22.0883   -1.6067   -6.5171 H   0  0  0  0  0  0  0  0  0  0  0  0
  -18.9888   -1.5982   -7.9027 H   0  0  0  0  0  0  0  0  0  0  0  0
  -20.1845   -4.0963   -7.2248 H   0  0  0  0  0  0  0  0  0  0  0  0
  -21.2959   -3.9436   -8.3051 H   0  0  0  0  0  0  0  0  0  0  0  0
  -19.4253    0.7083   -8.2583 H   0  0  0  0  0  0  0  0  0  0  0  0
  -19.9044    2.0314  -10.3096 H   0  0  0  0  0  0  0  0  0  0  0  0
  -21.1208    0.9898  -12.2244 H   0  0  0  0  0  0  0  0  0  0  0  0
  -21.8384   -1.3942  -12.0791 H   0  0  0  0  0  0  0  0  0  0  0  0
  -22.7187   -0.3926   -2.2717 H   0  0  0  0  0  0  0  0  0  0  0  0
  -11.1518   -3.0232   -0.7321 H   0  0  0  0  0  0  0  0  0  0  0  0
  -19.2940   -2.7438   -3.5016 H   0  0  0  0  0  0  0  0  0  0  0  0
  1 20  2  0
  1 24  1  0
  2  3  2  0
  2  4  1  0
  2 16  1  0
  4 25  2  0
  4 29  1  0
  5  6  2  0
  5 25  1  0
  5 30  1  0
  6  7  1  0
  7  8  1  0
  7 29  2  0
  8 26  1  0
  9 10  2  0
  9 15  1  0
  9 26  1  0
 10 11  1  0
 11 12  2  0
 11 14  1  0
 12 27  1  0
 12 28  1  0
 13 14  2  0
 13 27  1  0
 15 28  2  0
 17 16  1  0
 17 18  1  0
 17 19  1  0
 18 19  1  0
 18 20  1  0
 20 21  1  0
 21 22  2  0
 22 23  1  0
 23 24  2  0
  1 31  1  0
  6 32  1  0
  8 33  1  0
  8 34  1  0
 10 35  1  0
 13 36  1  0
 14 37  1  0
 15 38  1  0
 16 39  1  0
 17 40  1  6
 18 41  1  1
 19 42  1  0
 19 43  1  0
 21 44  1  0
 22 45  1  0
 23 46  1  0
 24 47  1  0
 25 48  1  0
 27 49  1  0
 29 50  1  0
M  END
>  <filename_input>  (4) 
5SB2_1K2_docked.sdf

>  <pdb_id>  (4) 
5SB2_1K2

>  <pose_rank>  (4) 
3

>  <num_atoms_heavy>  (4) 
30

>  <num_torsions>  (4) 
6

>  <pose>  (4) 
[-21.05474988489096, -1.5998947685946057, -3.020786272013817, -1.5552574561966717, 0.3151760173940295, -0.5424060096870317, -3.890003788886025, -4.972249854396264, -0.2592043981526605, 9.495941128926027, 5.997146752130506, -1.49464713342345]

>  <energy>  (4) 
-419.95045753661384

>  <inter_energy>  (4) 
-411.47352509689676

>  <intra_energy>  (4) 
0.0

>  <rmsd>  (4) 
6.27203

>  <sdf_rank>  (4) 
0

$$$$

     RDKit          3D

 50 54  0  0  0  0  0  0  0  0999 V2000
  -25.6869   -6.7125   -6.9779 C   0  0  0  0  0  0  0  0  0  0  0  0
  -25.7526   -2.8732   -4.0060 C   0  0  0  0  0  0  0  0  0  0  0  0
  -25.7119   -2.2568   -5.0751 O   0  0  0  0  0  0  0  0  0  0  0  0
  -24.9806   -2.4086   -2.8096 C   0  0  0  0  0  0  0  0  0  0  0  0
  -24.7677   -1.3592   -0.7026 C   0  0  0  0  0  0  0  0  0  0  0  0
  -23.5026   -1.8810   -0.5298 C   0  0  0  0  0  0  0  0  0  0  0  0
  -22.9676   -2.6721   -1.5290 C   0  0  0  0  0  0  0  0  0  0  0  0
  -21.5774   -3.2157   -1.3686 C   0  0  0  0  0  0  0  0  0  0  0  0
  -19.4566   -2.4258   -2.1379 C   0  0  0  0  0  0  0  0  0  0  0  0
  -18.4290   -1.8089   -1.4259 C   0  0  0  0  0  0  0  0  0  0  0  0
  -17.1324   -2.1425   -1.8184 C   0  0  0  0  0  0  0  0  0  0  0  0
  -16.9735   -3.0719   -2.9005 C   0  0  0  0  0  0  0  0  0  0  0  0
  -14.9086   -2.5004   -2.1654 C   0  0  0  0  0  0  0  0  0  0  0  0
  -15.8078   -1.7952   -1.3779 C   0  0  0  0  0  0  0  0  0  0  0  0
  -19.1848   -3.3219   -3.2083 C   0  0  0  0  0  0  0  0  0  0  0  0
  -26.5085   -4.0142   -3.9045 N   0  0  0  0  0  0  0  0  0  0  0  0
  -27.2082   -4.4680   -5.0730 C   0  0  1  0  0  0  0  0  0  0  0  0
  -27.2576   -5.9983   -5.2385 C   0  0  1  0  0  0  0  0  0  0  0  0
  -28.5355   -5.2194   -4.9608 C   0  0  0  0  0  0  0  0  0  0  0  0
  -26.9978   -6.5660   -6.5672 C   0  0  0  0  0  0  0  0  0  0  0  0
  -28.0382   -6.9314   -7.4102 C   0  0  0  0  0  0  0  0  0  0  0  0
  -27.7496   -7.4320   -8.6714 C   0  0  0  0  0  0  0  0  0  0  0  0
  -26.4257   -7.5829   -9.0889 C   0  0  0  0  0  0  0  0  0  0  0  0
  -25.3942   -7.2229   -8.2327 C   0  0  0  0  0  0  0  0  0  0  0  0
  -25.5332   -1.5804   -1.8252 C   0  0  0  0  0  0  0  0  0  0  0  0
  -20.7506   -2.1356   -1.7758 O   0  0  0  0  0  0  0  0  0  0  0  0
  -15.6136   -3.2809   -3.1009 N   0  0  0  0  0  0  0  0  0  0  0  0
  -17.9803   -3.6629   -3.6071 N   0  0  0  0  0  0  0  0  0  0  0  0
  -23.7078   -2.9352   -2.6612 C   0  0  0  0  0  0  0  0  0  0  0  0
  -25.4094   -0.4025    0.5865 Cl  0  0  0  0  0  0  0  0  0  0  0  0
  -24.8683   -6.4216   -6.3031 H   0  0  0  0  0  0  0  0  0  0  0  0
  -22.9303   -1.6716    0.3859 H   0  0  0  0  0  0  0  0  0  0  0  0
  -21.3803   -3.4887   -0.3214 H   0  0  0  0  0  0  0  0  0  0  0  0
  -21.4051   -4.1314   -1.9532 H   0  0  0  0  0  0  0  0  0  0  0  0
  -18.6281   -1.1033   -0.6059 H   0  0  0  0  0  0  0  0  0  0  0  0
  -13.8134   -2.4562   -2.0729 H   0  0  0  0  0  0  0  0  0  0  0  0
  -15.5540   -1.0983   -0.5655 H   0  0  0  0  0  0  0  0  0  0  0  0
  -20.0427   -3.7601   -3.7392 H   0  0  0  0  0  0  0  0  0  0  0  0
  -26.5720   -4.5302   -3.0154 H   0  0  0  0  0  0  0  0  0  0  0  0
  -26.8984   -3.5901   -5.6588 H   0  0  0  0  0  0  0  0  0  0  0  0
  -26.7705   -6.8625   -4.7632 H   0  0  0  0  0  0  0  0  0  0  0  0
  -29.0325   -5.3115   -3.9838 H   0  0  0  0  0  0  0  0  0  0  0  0
  -29.5153   -5.1380   -5.4543 H   0  0  0  0  0  0  0  0  0  0  0  0
  -29.0824   -6.8250   -7.0812 H   0  0  0  0  0  0  0  0  0  0  0  0
  -28.5704   -7.7124   -9.3480 H   0  0  0  0  0  0  0  0  0  0  0  0
  -26.2020   -7.9839  -10.0885 H   0  0  0  0  0  0  0  0  0  0  0  0
  -24.3476   -7.3424   -8.5493 H   0  0  0  0  0  0  0  0  0  0  0  0
  -26.5294   -1.1290   -1.9429 H   0  0  0  0  0  0  0  0  0  0  0  0
  -15.1950   -3.8992   -3.8104 H   0  0  0  0  0  0  0  0  0  0  0  0
  -23.2842   -3.5690   -3.4542 H   0  0  0  0  0  0  0  0  0  0  0  0
  1 20  2  0
  1 24  1  0
  2  3  2  0
  2  4  1  0
  2 16  1  0
  4 25  2  0
  4 29  1  0
  5  6  2  0
  5 25  1  0
  5 30  1  0
  6  7  1  0
  7  8  1  0
  7 29  2  0
  8 26  1  0
  9 10  2  0
  9 15  1  0
  9 26  1  0
 10 11  1  0
 11 12  2  0
 11 14  1  0
 12 27  1  0
 12 28  1  0
 13 14  2  0
 13 27  1  0
 15 28  2  0
 17 16  1  0
 17 18  1  0
 17 19  1  0
 18 19  1  0
 18 20  1  0
 20 21  1  0
 21 22  2  0
 22 23  1  0
 23 24  2  0
  1 31  1  0
  6 32  1  0
  8 33  1  0
  8 34  1  0
 10 35  1  0
 13 36  1  0
 14 37  1  0
 15 38  1  0
 16 39  1  0
 17 40  1  6
 18 41  1  1
 19 42  1  0
 19 43  1  0
 21 44  1  0
 22 45  1  0
 23 46  1  0
 24 47  1  0
 25 48  1  0
 27 49  1  0
 29 50  1  0
M  END
>  <filename_input>  (5) 
5SB2_1K2_docked.sdf

>  <pdb_id>  (5) 
5SB2_1K2

>  <pose_rank>  (5) 
4

>  <num_atoms_heavy>  (5) 
30

>  <num_torsions>  (5) 
6

>  <pose>  (5) 
[-24.980648740951036, -2.4086229285755354, -2.809590091278031, -1.817470110632713, 0.3985805347908761, -0.3627651148889757, -1.8268960890154422, 0.9037648942120123, -3.638759752178688, -2.3393194409945695, 0.43608347421565247, 4.019576173966623]

>  <energy>  (5) 
-796.041542387418

>  <inter_energy>  (5) 
-780.6915187086456

>  <intra_energy>  (5) 
0.0

>  <rmsd>  (5) 
6.7913

>  <sdf_rank>  (5) 
0

$$$$

     RDKit          3D

 50 54  0  0  0  0  0  0  0  0999 V2000
  -15.2748   -3.2374   -1.4366 C   0  0  0  0  0  0  0  0  0  0  0  0
  -20.8249   -1.3960   -2.5430 C   0  0  0  0  0  0  0  0  0  0  0  0
  -20.6242   -1.6401   -3.7366 O   0  0  0  0  0  0  0  0  0  0  0  0
  -22.2138   -1.2680   -1.9974 C   0  0  0  0  0  0  0  0  0  0  0  0
  -24.1294   -2.0716   -0.8701 C   0  0  0  0  0  0  0  0  0  0  0  0
  -24.6518   -0.7986   -0.7742 C   0  0  0  0  0  0  0  0  0  0  0  0
  -23.9394    0.2549   -1.3156 C   0  0  0  0  0  0  0  0  0  0  0  0
  -24.5150    1.6400   -1.2498 C   0  0  0  0  0  0  0  0  0  0  0  0
  -26.0728    2.7427   -2.6886 C   0  0  0  0  0  0  0  0  0  0  0  0
  -25.5055    3.1152   -3.9063 C   0  0  0  0  0  0  0  0  0  0  0  0
  -25.9830    4.3030   -4.4611 C   0  0  0  0  0  0  0  0  0  0  0  0
  -26.9952    5.0237   -3.7428 C   0  0  0  0  0  0  0  0  0  0  0  0
  -26.5666    6.1512   -5.6602 C   0  0  0  0  0  0  0  0  0  0  0  0
  -25.7293    5.0443   -5.6676 C   0  0  0  0  0  0  0  0  0  0  0  0
  -27.0616    3.5440   -2.0538 C   0  0  0  0  0  0  0  0  0  0  0  0
  -19.7609   -1.2259   -1.6930 N   0  0  0  0  0  0  0  0  0  0  0  0
  -18.4369   -1.3104   -2.2414 C   0  0  1  0  0  0  0  0  0  0  0  0
  -17.5884   -2.4737   -1.6954 C   0  0  1  0  0  0  0  0  0  0  0  0
  -18.0283   -2.4686   -3.1526 C   0  0  0  0  0  0  0  0  0  0  0  0
  -16.1909   -2.2086   -1.3320 C   0  0  0  0  0  0  0  0  0  0  0  0
  -15.7906   -0.9619   -0.8715 C   0  0  0  0  0  0  0  0  0  0  0  0
  -14.4672   -0.7631   -0.5060 C   0  0  0  0  0  0  0  0  0  0  0  0
  -13.5384   -1.8004   -0.6121 C   0  0  0  0  0  0  0  0  0  0  0  0
  -13.9494   -3.0397   -1.0832 C   0  0  0  0  0  0  0  0  0  0  0  0
  -22.9299   -2.3556   -1.4829 C   0  0  0  0  0  0  0  0  0  0  0  0
  -25.6408    1.5719   -2.1123 O   0  0  0  0  0  0  0  0  0  0  0  0
  -27.3415    6.1473   -4.4851 N   0  0  0  0  0  0  0  0  0  0  0  0
  -27.5384    4.6662   -2.5431 N   0  0  0  0  0  0  0  0  0  0  0  0
  -22.7245    0.0177   -1.9209 C   0  0  0  0  0  0  0  0  0  0  0  0
  -25.0388   -3.3538   -0.1506 Cl  0  0  0  0  0  0  0  0  0  0  0  0
  -15.6002   -4.2220   -1.8036 H   0  0  0  0  0  0  0  0  0  0  0  0
  -25.6172   -0.6250   -0.2763 H   0  0  0  0  0  0  0  0  0  0  0  0
  -24.8206    1.8905   -0.2232 H   0  0  0  0  0  0  0  0  0  0  0  0
  -23.7952    2.4176   -1.5451 H   0  0  0  0  0  0  0  0  0  0  0  0
  -24.7299    2.5105   -4.3989 H   0  0  0  0  0  0  0  0  0  0  0  0
  -26.6169    6.9141   -6.4510 H   0  0  0  0  0  0  0  0  0  0  0  0
  -25.0045    4.7820   -6.4523 H   0  0  0  0  0  0  0  0  0  0  0  0
  -27.4546    3.2002   -1.0856 H   0  0  0  0  0  0  0  0  0  0  0  0
  -19.9081   -1.0428   -0.6901 H   0  0  0  0  0  0  0  0  0  0  0  0
  -18.3587   -0.2183   -2.3471 H   0  0  0  0  0  0  0  0  0  0  0  0
  -17.6748   -3.1994   -0.8733 H   0  0  0  0  0  0  0  0  0  0  0  0
  -18.7857   -3.1871   -3.4992 H   0  0  0  0  0  0  0  0  0  0  0  0
  -17.5081   -2.5473   -4.1186 H   0  0  0  0  0  0  0  0  0  0  0  0
  -16.5163   -0.1386   -0.7971 H   0  0  0  0  0  0  0  0  0  0  0  0
  -14.1470    0.2195   -0.1295 H   0  0  0  0  0  0  0  0  0  0  0  0
  -12.4894   -1.6367   -0.3246 H   0  0  0  0  0  0  0  0  0  0  0  0
  -13.2252   -3.8624   -1.1758 H   0  0  0  0  0  0  0  0  0  0  0  0
  -22.5527   -3.3857   -1.5644 H   0  0  0  0  0  0  0  0  0  0  0  0
  -28.0430    6.8537   -4.2210 H   0  0  0  0  0  0  0  0  0  0  0  0
  -22.1549    0.8566   -2.3473 H   0  0  0  0  0  0  0  0  0  0  0  0
  1 20  2  0
  1 24  1  0
  2  3  2  0
  2  4  1  0
  2 16  1  0
  4 25  2  0
  4 29  1  0
  5  6  2  0
  5 25  1  0
  5 30  1  0
  6  7  1  0
  7  8  1  0
  7 29  2  0
  8 26  1  0
  9 10  2  0
  9 15  1  0
  9 26  1  0
 10 11  1  0
 11 12  2  0
 11 14  1  0
 12 27  1  0
 12 28  1  0
 13 14  2  0
 13 27  1  0
 15 28  2  0
 17 16  1  0
 17 18  1  0
 17 19  1  0
 18 19  1  0
 18 20  1  0
 20 21  1  0
 21 22  2  0
 22 23  1  0
 23 24  2  0
  1 31  1  0
  6 32  1  0
  8 33  1  0
  8 34  1  0
 10 35  1  0
 13 36  1  0
 14 37  1  0
 15 38  1  0
 16 39  1  0
 17 40  1  6
 18 41  1  1
 19 42  1  0
 19 43  1  0
 21 44  1  0
 22 45  1  0
 23 46  1  0
 24 47  1  0
 25 48  1  0
 27 49  1  0
 29 50  1  0
M  END
>  <filename_input>  (6) 
5SB2_1K2_docked.sdf

>  <pdb_id>  (6) 
5SB2_1K2

>  <pose_rank>  (6) 
5

>  <num_atoms_heavy>  (6) 
30

>  <num_torsions>  (6) 
6

>  <pose>  (6) 
[-22.213827503217722, -1.2679569679785203, -1.997360912766729, 2.0540738477792693, 2.778794068608978, -0.936767184112256, 10.681324543304534, 2.661306771988726, -1.3997467514907183, 4.194239687163494, 13.100158437120227, 1.3922189625687336]

>  <energy>  (6) 
-821.5257246351855

>  <inter_energy>  (6) 
-837.6872228449253

>  <intra_energy>  (6) 
19.83991137333861

>  <rmsd>  (6) 
10.3296

>  <sdf_rank>  (6) 
0

$$$$

     RDKit          3D

 50 54  0  0  0  0  0  0  0  0999 V2000
  -17.4016    4.9713   -6.9816 C   0  0  0  0  0  0  0  0  0  0  0  0
  -18.8846    1.3883   -2.7994 C   0  0  0  0  0  0  0  0  0  0  0  0
  -17.8063    0.9274   -2.4128 O   0  0  0  0  0  0  0  0  0  0  0  0
  -20.1776    0.6890   -2.5130 C   0  0  0  0  0  0  0  0  0  0  0  0
  -22.5346    0.5138   -2.5040 C   0  0  0  0  0  0  0  0  0  0  0  0
  -22.4698   -0.8338   -2.2169 C   0  0  0  0  0  0  0  0  0  0  0  0
  -21.2284   -1.4218   -2.0635 C   0  0  0  0  0  0  0  0  0  0  0  0
  -21.1457   -2.8797   -1.7147 C   0  0  0  0  0  0  0  0  0  0  0  0
  -18.7579   -2.9502   -1.6306 C   0  0  0  0  0  0  0  0  0  0  0  0
  -17.6246   -2.5227   -0.9405 C   0  0  0  0  0  0  0  0  0  0  0  0
  -16.4325   -2.5312   -1.6653 C   0  0  0  0  0  0  0  0  0  0  0  0
  -16.4770   -2.9691   -3.0314 C   0  0  0  0  0  0  0  0  0  0  0  0
  -14.3253   -2.4688   -2.5311 C   0  0  0  0  0  0  0  0  0  0  0  0
  -15.0582   -2.2166   -1.3798 C   0  0  0  0  0  0  0  0  0  0  0  0
  -18.6910   -3.3484   -2.9943 C   0  0  0  0  0  0  0  0  0  0  0  0
  -18.9088    2.5585   -3.5161 N   0  0  0  0  0  0  0  0  0  0  0  0
  -17.6569    3.1931   -3.8175 C   0  0  1  0  0  0  0  0  0  0  0  0
  -17.7778    4.5111   -4.6047 C   0  0  1  0  0  0  0  0  0  0  0  0
  -17.2658    4.5228   -3.1713 C   0  0  0  0  0  0  0  0  0  0  0  0
  -16.8635    4.7387   -5.7306 C   0  0  0  0  0  0  0  0  0  0  0  0
  -15.4866    4.7023   -5.5589 C   0  0  0  0  0  0  0  0  0  0  0  0
  -14.6580    4.8885   -6.6558 C   0  0  0  0  0  0  0  0  0  0  0  0
  -15.1986    5.1254   -7.9213 C   0  0  0  0  0  0  0  0  0  0  0  0
  -16.5771    5.1691   -8.0779 C   0  0  0  0  0  0  0  0  0  0  0  0
  -21.4234    1.3143   -2.6442 C   0  0  0  0  0  0  0  0  0  0  0  0
  -19.9524   -2.9701   -0.9505 O   0  0  0  0  0  0  0  0  0  0  0  0
  -15.1863   -2.9263   -3.5463 N   0  0  0  0  0  0  0  0  0  0  0  0
  -17.5899   -3.3723   -3.7106 N   0  0  0  0  0  0  0  0  0  0  0  0
  -20.0894   -0.6611   -2.2148 C   0  0  0  0  0  0  0  0  0  0  0  0
  -24.1068    1.1998   -2.7195 Cl  0  0  0  0  0  0  0  0  0  0  0  0
  -18.4939    4.9998   -7.1086 H   0  0  0  0  0  0  0  0  0  0  0  0
  -23.3887   -1.4293   -2.1120 H   0  0  0  0  0  0  0  0  0  0  0  0
  -22.0175   -3.1922   -1.1211 H   0  0  0  0  0  0  0  0  0  0  0  0
  -21.1381   -3.5325   -2.6001 H   0  0  0  0  0  0  0  0  0  0  0  0
  -17.6676   -2.1989    0.1099 H   0  0  0  0  0  0  0  0  0  0  0  0
  -13.2387   -2.3322   -2.6343 H   0  0  0  0  0  0  0  0  0  0  0  0
  -14.6609   -1.8443   -0.4240 H   0  0  0  0  0  0  0  0  0  0  0  0
  -19.6264   -3.6579   -3.4834 H   0  0  0  0  0  0  0  0  0  0  0  0
  -19.7999    2.9697   -3.8288 H   0  0  0  0  0  0  0  0  0  0  0  0
  -17.1350    2.2291   -3.9087 H   0  0  0  0  0  0  0  0  0  0  0  0
  -18.5793    5.0465   -5.1347 H   0  0  0  0  0  0  0  0  0  0  0  0
  -17.8887    4.9472   -2.3701 H   0  0  0  0  0  0  0  0  0  0  0  0
  -16.3621    4.9062   -2.6751 H   0  0  0  0  0  0  0  0  0  0  0  0
  -15.0562    4.5274   -4.5618 H   0  0  0  0  0  0  0  0  0  0  0  0
  -13.5662    4.8491   -6.5276 H   0  0  0  0  0  0  0  0  0  0  0  0
  -14.5373    5.2762   -8.7873 H   0  0  0  0  0  0  0  0  0  0  0  0
  -17.0138    5.3601   -9.0692 H   0  0  0  0  0  0  0  0  0  0  0  0
  -21.5100    2.3916   -2.8491 H   0  0  0  0  0  0  0  0  0  0  0  0
  -14.9084   -3.1844   -4.5040 H   0  0  0  0  0  0  0  0  0  0  0  0
  -19.1012   -1.1301   -2.0978 H   0  0  0  0  0  0  0  0  0  0  0  0
  1 20  2  0
  1 24  1  0
  2  3  2  0
  2  4  1  0
  2 16  1  0
  4 25  2  0
  4 29  1  0
  5  6  2  0
  5 25  1  0
  5 30  1  0
  6  7  1  0
  7  8  1  0
  7 29  2  0
  8 26  1  0
  9 10  2  0
  9 15  1  0
  9 26  1  0
 10 11  1  0
 11 12  2  0
 11 14  1  0
 12 27  1  0
 12 28  1  0
 13 14  2  0
 13 27  1  0
 15 28  2  0
 17 16  1  0
 17 18  1  0
 17 19  1  0
 18 19  1  0
 18 20  1  0
 20 21  1  0
 21 22  2  0
 22 23  1  0
 23 24  2  0
  1 31  1  0
  6 32  1  0
  8 33  1  0
  8 34  1  0
 10 35  1  0
 13 36  1  0
 14 37  1  0
 15 38  1  0
 16 39  1  0
 17 40  1  6
 18 41  1  1
 19 42  1  0
 19 43  1  0
 21 44  1  0
 22 45  1  0
 23 46  1  0
 24 47  1  0
 25 48  1  0
 27 49  1  0
 29 50  1  0
M  END
>  <filename_input>  (7) 
5SB2_1K2_docked.sdf

>  <pdb_id>  (7) 
5SB2_1K2

>  <pose_rank>  (7) 
6

>  <num_atoms_heavy>  (7) 
30

>  <num_torsions>  (7) 
6

>  <pose>  (7) 
[-20.177634501448562, 0.6889576717102318, -2.5130048640562213, -0.02011278939454733, 0.8992067565939127, 4.782231511704584, -0.5914206703776053, -4.7156053923611845, -2.922557190120536, -3.5077854670160407, -10.68028818534787, -3.7190828096159008]

>  <energy>  (7) 
-644.678652791051

>  <inter_energy>  (7) 
-697.6176846131934

>  <intra_energy>  (7) 
62.32467447558935

>  <rmsd>  (7) 
6.25895

>  <sdf_rank>  (7) 
0

$$$$

     RDKit          3D

 50 54  0  0  0  0  0  0  0  0999 V2000
  -17.9597    2.5353   -9.9794 C   0  0  0  0  0  0  0  0  0  0  0  0
  -20.6900   -1.8663   -7.1288 C   0  0  0  0  0  0  0  0  0  0  0  0
  -20.5918   -2.8616   -7.8530 O   0  0  0  0  0  0  0  0  0  0  0  0
  -21.5507   -1.8773   -5.9031 C   0  0  0  0  0  0  0  0  0  0  0  0
  -23.6068   -2.1065   -4.7603 C   0  0  0  0  0  0  0  0  0  0  0  0
  -22.9638   -2.1738   -3.5418 C   0  0  0  0  0  0  0  0  0  0  0  0
  -21.5854   -2.0771   -3.5113 C   0  0  0  0  0  0  0  0  0  0  0  0
  -20.8769   -2.1122   -2.1881 C   0  0  0  0  0  0  0  0  0  0  0  0
  -18.5053   -2.0253   -2.4733 C   0  0  0  0  0  0  0  0  0  0  0  0
  -17.4073   -1.4508   -1.8347 C   0  0  0  0  0  0  0  0  0  0  0  0
  -16.2174   -2.1763   -1.9014 C   0  0  0  0  0  0  0  0  0  0  0  0
  -16.2277   -3.4249   -2.6091 C   0  0  0  0  0  0  0  0  0  0  0  0
  -14.1446   -3.1151   -1.7749 C   0  0  0  0  0  0  0  0  0  0  0  0
  -14.8840   -2.0056   -1.3895 C   0  0  0  0  0  0  0  0  0  0  0  0
  -18.3990   -3.2647   -3.1627 C   0  0  0  0  0  0  0  0  0  0  0  0
  -20.0097   -0.7186   -7.4504 N   0  0  0  0  0  0  0  0  0  0  0  0
  -19.2231   -0.7126   -8.6512 C   0  0  1  0  0  0  0  0  0  0  0  0
  -18.1990    0.4339   -8.7427 C   0  0  1  0  0  0  0  0  0  0  0  0
  -17.7226   -1.0064   -8.6179 C   0  0  0  0  0  0  0  0  0  0  0  0
  -18.0737    1.1589  -10.0131 C   0  0  0  0  0  0  0  0  0  0  0  0
  -18.0897    0.4895  -11.2290 C   0  0  0  0  0  0  0  0  0  0  0  0
  -18.0033    1.2157  -12.4078 C   0  0  0  0  0  0  0  0  0  0  0  0
  -17.8863    2.6069  -12.3772 C   0  0  0  0  0  0  0  0  0  0  0  0
  -17.8617    3.2635  -11.1546 C   0  0  0  0  0  0  0  0  0  0  0  0
  -22.9481   -1.9434   -5.9581 C   0  0  0  0  0  0  0  0  0  0  0  0
  -19.7018   -1.3503   -2.4215 O   0  0  0  0  0  0  0  0  0  0  0  0
  -14.9585   -3.9860   -2.5237 N   0  0  0  0  0  0  0  0  0  0  0  0
  -17.2993   -3.9785   -3.2473 N   0  0  0  0  0  0  0  0  0  0  0  0
  -20.8850   -1.9328   -4.6893 C   0  0  0  0  0  0  0  0  0  0  0  0
  -25.3283   -2.2645   -4.7537 Cl  0  0  0  0  0  0  0  0  0  0  0  0
  -17.9466    3.0579   -9.0115 H   0  0  0  0  0  0  0  0  0  0  0  0
  -23.5372   -2.3021   -2.6119 H   0  0  0  0  0  0  0  0  0  0  0  0
  -21.4926   -1.6541   -1.4001 H   0  0  0  0  0  0  0  0  0  0  0  0
  -20.6634   -3.1347   -1.8433 H   0  0  0  0  0  0  0  0  0  0  0  0
  -17.4749   -0.4859   -1.3109 H   0  0  0  0  0  0  0  0  0  0  0  0
  -13.0856   -3.2874   -1.5326 H   0  0  0  0  0  0  0  0  0  0  0  0
  -14.5174   -1.1520   -0.8004 H   0  0  0  0  0  0  0  0  0  0  0  0
  -19.3004   -3.6526   -3.6598 H   0  0  0  0  0  0  0  0  0  0  0  0
  -20.0621    0.1148   -6.8473 H   0  0  0  0  0  0  0  0  0  0  0  0
  -20.0479   -1.1244   -9.2513 H   0  0  0  0  0  0  0  0  0  0  0  0
  -17.9930    1.3585   -8.1835 H   0  0  0  0  0  0  0  0  0  0  0  0
  -17.2516   -1.3492   -7.6848 H   0  0  0  0  0  0  0  0  0  0  0  0
  -17.0470   -1.6514   -9.1988 H   0  0  0  0  0  0  0  0  0  0  0  0
  -18.1702   -0.6071  -11.2576 H   0  0  0  0  0  0  0  0  0  0  0  0
  -18.0272    0.6914  -13.3745 H   0  0  0  0  0  0  0  0  0  0  0  0
  -17.8143    3.1778  -13.3146 H   0  0  0  0  0  0  0  0  0  0  0  0
  -17.7646    4.3586  -11.1185 H   0  0  0  0  0  0  0  0  0  0  0  0
  -23.4926   -1.8687   -6.9110 H   0  0  0  0  0  0  0  0  0  0  0  0
  -14.6648   -4.8829   -2.9364 H   0  0  0  0  0  0  0  0  0  0  0  0
  -19.7876   -1.8610   -4.6657 H   0  0  0  0  0  0  0  0  0  0  0  0
  1 20  2  0
  1 24  1  0
  2  3  2  0
  2  4  1  0
  2 16  1  0
  4 25  2  0
  4 29  1  0
  5  6  2  0
  5 25  1  0
  5 30  1  0
  6  7  1  0
  7  8  1  0
  7 29  2  0
  8 26  1  0
  9 10  2  0
  9 15  1  0
  9 26  1  0
 10 11  1  0
 11 12  2  0
 11 14  1  0
 12 27  1  0
 12 28  1  0
 13 14  2  0
 13 27  1  0
 15 28  2  0
 17 16  1  0
 17 18  1  0
 17 19  1  0
 18 19  1  0
 18 20  1  0
 20 21  1  0
 21 22  2  0
 22 23  1  0
 23 24  2  0
  1 31  1  0
  6 32  1  0
  8 33  1  0
  8 34  1  0
 10 35  1  0
 13 36  1  0
 14 37  1  0
 15 38  1  0
 16 39  1  0
 17 40  1  6
 18 41  1  1
 19 42  1  0
 19 43  1  0
 21 44  1  0
 22 45  1  0
 23 46  1  0
 24 47  1  0
 25 48  1  0
 27 49  1  0
 29 50  1  0
M  END
>  <filename_input>  (8) 
5SB2_1K2_docked.sdf

>  <pdb_id>  (8) 
5SB2_1K2

>  <pose_rank>  (8) 
7

>  <num_atoms_heavy>  (8) 
30

>  <num_torsions>  (8) 
6

>  <pose>  (8) 
[-21.550650488805612, -1.8773462964256376, -5.903080939033226, -1.145951064060869, -0.7908935239739439, -0.6754986850041329, 1.6276060965621777, 1.8351153662354591, -2.656682465604164, 2.7332969380137127, 1.3327906225466237, -2.55916721534232]

>  <energy>  (8) 
-635.7700730874508

>  <inter_energy>  (8) 
-657.5387205269833

>  <intra_energy>  (8) 
24.191704232127517

>  <rmsd>  (8) 
6.90198

>  <sdf_rank>  (8) 
0

$$$$

     RDKit          3D

 50 54  0  0  0  0  0  0  0  0999 V2000
  -28.8236    5.2930   -1.6135 C   0  0  0  0  0  0  0  0  0  0  0  0
  -25.1773    1.1923   -1.9228 C   0  0  0  0  0  0  0  0  0  0  0  0
  -26.1421    0.5116   -1.5617 O   0  0  0  0  0  0  0  0  0  0  0  0
  -23.8490    0.5659   -2.2165 C   0  0  0  0  0  0  0  0  0  0  0  0
  -21.8630    0.3001   -3.4701 C   0  0  0  0  0  0  0  0  0  0  0  0
  -21.2870   -0.4510   -2.4667 C   0  0  0  0  0  0  0  0  0  0  0  0
  -22.0195   -0.7050   -1.3225 C   0  0  0  0  0  0  0  0  0  0  0  0
  -21.4170   -1.5519   -0.2390 C   0  0  0  0  0  0  0  0  0  0  0  0
  -19.0326   -1.4278   -0.3515 C   0  0  0  0  0  0  0  0  0  0  0  0
  -18.9921   -1.9365   -1.6488 C   0  0  0  0  0  0  0  0  0  0  0  0
  -17.7712   -2.4793   -2.0509 C   0  0  0  0  0  0  0  0  0  0  0  0
  -16.6862   -2.4679   -1.1115 C   0  0  0  0  0  0  0  0  0  0  0  0
  -15.9287   -3.3873   -3.0381 C   0  0  0  0  0  0  0  0  0  0  0  0
  -17.2622   -3.0719   -3.2587 C   0  0  0  0  0  0  0  0  0  0  0  0
  -17.8979   -1.4836    0.5040 C   0  0  0  0  0  0  0  0  0  0  0  0
  -25.3112    2.5522   -2.0501 N   0  0  0  0  0  0  0  0  0  0  0  0
  -26.5795    3.1405   -1.7240 C   0  0  1  0  0  0  0  0  0  0  0  0
  -27.2475    3.9087   -2.8794 C   0  0  1  0  0  0  0  0  0  0  0  0
  -27.8765    2.6273   -2.3510 C   0  0  0  0  0  0  0  0  0  0  0  0
  -27.8515    5.2156   -2.5922 C   0  0  0  0  0  0  0  0  0  0  0  0
  -27.4782    6.3520   -3.2964 C   0  0  0  0  0  0  0  0  0  0  0  0
  -28.0985    7.5610   -3.0174 C   0  0  0  0  0  0  0  0  0  0  0  0
  -29.0801    7.6430   -2.0277 C   0  0  0  0  0  0  0  0  0  0  0  0
  -29.4375    6.5013   -1.3239 C   0  0  0  0  0  0  0  0  0  0  0  0
  -23.1387    0.8126   -3.3976 C   0  0  0  0  0  0  0  0  0  0  0  0
  -20.2128   -0.8716    0.0817 O   0  0  0  0  0  0  0  0  0  0  0  0
  -15.5700   -3.0238   -1.7264 N   0  0  0  0  0  0  0  0  0  0  0  0
  -16.7318   -1.9839    0.1637 N   0  0  0  0  0  0  0  0  0  0  0  0
  -23.2936   -0.1944   -1.2002 C   0  0  0  0  0  0  0  0  0  0  0  0
  -20.8986    0.6201   -4.8687 Cl  0  0  0  0  0  0  0  0  0  0  0  0
  -29.1126    4.3879   -1.0593 H   0  0  0  0  0  0  0  0  0  0  0  0
  -20.2640   -0.8404   -2.5751 H   0  0  0  0  0  0  0  0  0  0  0  0
  -22.0832   -1.6053    0.6346 H   0  0  0  0  0  0  0  0  0  0  0  0
  -21.2508   -2.5934   -0.5516 H   0  0  0  0  0  0  0  0  0  0  0  0
  -19.8678   -1.9116   -2.3139 H   0  0  0  0  0  0  0  0  0  0  0  0
  -15.2558   -3.8500   -3.7749 H   0  0  0  0  0  0  0  0  0  0  0  0
  -17.8264   -3.2438   -4.1872 H   0  0  0  0  0  0  0  0  0  0  0  0
  -18.0040   -1.0796    1.5216 H   0  0  0  0  0  0  0  0  0  0  0  0
  -24.5241    3.1343   -2.3705 H   0  0  0  0  0  0  0  0  0  0  0  0
  -26.2802    3.3256   -0.6818 H   0  0  0  0  0  0  0  0  0  0  0  0
  -26.9455    4.2568   -3.8782 H   0  0  0  0  0  0  0  0  0  0  0  0
  -27.8645    1.7161   -2.9672 H   0  0  0  0  0  0  0  0  0  0  0  0
  -28.8691    2.3549   -1.9630 H   0  0  0  0  0  0  0  0  0  0  0  0
  -26.6973    6.2943   -4.0690 H   0  0  0  0  0  0  0  0  0  0  0  0
  -27.8148    8.4624   -3.5804 H   0  0  0  0  0  0  0  0  0  0  0  0
  -29.5663    8.6049   -1.8075 H   0  0  0  0  0  0  0  0  0  0  0  0
  -30.2058    6.5554   -0.5386 H   0  0  0  0  0  0  0  0  0  0  0  0
  -23.5780    1.3872   -4.2263 H   0  0  0  0  0  0  0  0  0  0  0  0
  -14.6421   -3.1480   -1.2969 H   0  0  0  0  0  0  0  0  0  0  0  0
  -23.8748   -0.3921   -0.2875 H   0  0  0  0  0  0  0  0  0  0  0  0
  1 20  2  0
  1 24  1  0
  2  3  2  0
  2  4  1  0
  2 16  1  0
  4 25  2  0
  4 29  1  0
  5  6  2  0
  5 25  1  0
  5 30  1  0
  6  7  1  0
  7  8  1  0
  7 29  2  0
  8 26  1  0
  9 10  2  0
  9 15  1  0
  9 26  1  0
 10 11  1  0
 11 12  2  0
 11 14  1  0
 12 27  1  0
 12 28  1  0
 13 14  2  0
 13 27  1  0
 15 28  2  0
 17 16  1  0
 17 18  1  0
 17 19  1  0
 18 19  1  0
 18 20  1  0
 20 21  1  0
 21 22  2  0
 22 23  1  0
 23 24  2  0
  1 31  1  0
  6 32  1  0
  8 33  1  0
  8 34  1  0
 10 35  1  0
 13 36  1  0
 14 37  1  0
 15 38  1  0
 16 39  1  0
 17 40  1  1
 18 41  1  6
 19 42  1  0
 19 43  1  0
 21 44  1  0
 22 45  1  0
 23 46  1  0
 24 47  1  0
 25 48  1  0
 27 49  1  0
 29 50  1  0
M  END
>  <filename_input>  (9) 
5SB2_1K2_docked.sdf

>  <pdb_id>  (9) 
5SB2_1K2

>  <pose_rank>  (9) 
8

>  <num_atoms_heavy>  (9) 
30

>  <num_torsions>  (9) 
6

>  <pose>  (9) 
[-23.8489821702806, 0.5659111592909006, -2.2165301984766645, 1.6486762407931232, -1.3037578237279175, 0.5436253803321239, 5.0865906613687635, 2.585828697800393, 0.24317701634783553, -6.197873540382881, -4.897249061596399, 0.5934567802881165]

>  <energy>  (9) 
-754.2371209734545

>  <inter_energy>  (9) 
-787.0350811932936

>  <intra_energy>  (9) 
61.185890232701716

>  <rmsd>  (9) 
2.96858

>  <sdf_rank>  (9) 
0

$$$$

     RDKit          3D

 50 54  0  0  0  0  0  0  0  0999 V2000
  -25.7254    4.4823   -4.6536 C   0  0  0  0  0  0  0  0  0  0  0  0
  -24.7734    1.6401   -1.9997 C   0  0  0  0  0  0  0  0  0  0  0  0
  -24.3033    2.2082   -2.9902 O   0  0  0  0  0  0  0  0  0  0  0  0
  -24.2708    0.2997   -1.5594 C   0  0  0  0  0  0  0  0  0  0  0  0
  -24.5183   -1.9992   -1.0695 C   0  0  0  0  0  0  0  0  0  0  0  0
  -23.1508   -2.1751   -1.0292 C   0  0  0  0  0  0  0  0  0  0  0  0
  -22.3332   -1.0822   -1.2470 C   0  0  0  0  0  0  0  0  0  0  0  0
  -20.8437   -1.2536   -1.1694 C   0  0  0  0  0  0  0  0  0  0  0  0
  -19.3124   -2.7512   -2.2304 C   0  0  0  0  0  0  0  0  0  0  0  0
  -18.2976   -2.0059   -1.6321 C   0  0  0  0  0  0  0  0  0  0  0  0
  -16.9954   -2.3493   -1.9968 C   0  0  0  0  0  0  0  0  0  0  0  0
  -16.8186   -3.4177   -2.9387 C   0  0  0  0  0  0  0  0  0  0  0  0
  -14.7653   -2.6801   -2.3300 C   0  0  0  0  0  0  0  0  0  0  0  0
  -15.6780   -1.8996   -1.6342 C   0  0  0  0  0  0  0  0  0  0  0  0
  -19.0237   -3.7813   -3.1675 C   0  0  0  0  0  0  0  0  0  0  0  0
  -25.7843    2.2353   -1.2874 N   0  0  0  0  0  0  0  0  0  0  0  0
  -26.2824    3.5005   -1.7483 C   0  0  1  0  0  0  0  0  0  0  0  0
  -27.1831    3.4208   -2.9949 C   0  0  1  0  0  0  0  0  0  0  0  0
  -27.7686    3.8488   -1.6566 C   0  0  0  0  0  0  0  0  0  0  0  0
  -26.9751    4.3981   -4.0705 C   0  0  0  0  0  0  0  0  0  0  0  0
  -27.9976    5.2394   -4.4868 C   0  0  0  0  0  0  0  0  0  0  0  0
  -27.7493    6.1724   -5.4829 C   0  0  0  0  0  0  0  0  0  0  0  0
  -26.4879    6.2590   -6.0755 C   0  0  0  0  0  0  0  0  0  0  0  0
  -25.4766    5.4053   -5.6571 C   0  0  0  0  0  0  0  0  0  0  0  0
  -25.1206   -0.7854   -1.3130 C   0  0  0  0  0  0  0  0  0  0  0  0
  -20.6108   -2.4548   -1.8897 O   0  0  0  0  0  0  0  0  0  0  0  0
  -15.4551   -3.6086   -3.1321 N   0  0  0  0  0  0  0  0  0  0  0  0
  -17.8135   -4.1361   -3.5358 N   0  0  0  0  0  0  0  0  0  0  0  0
  -22.8945    0.1477   -1.5139 C   0  0  0  0  0  0  0  0  0  0  0  0
  -25.5015   -3.3997   -0.8236 Cl  0  0  0  0  0  0  0  0  0  0  0  0
  -24.9210    3.8109   -4.3186 H   0  0  0  0  0  0  0  0  0  0  0  0
  -22.7190   -3.1665   -0.8274 H   0  0  0  0  0  0  0  0  0  0  0  0
  -20.3252   -0.4056   -1.6406 H   0  0  0  0  0  0  0  0  0  0  0  0
  -20.4703   -1.2945   -0.1355 H   0  0  0  0  0  0  0  0  0  0  0  0
  -18.5102   -1.1974   -0.9170 H   0  0  0  0  0  0  0  0  0  0  0  0
  -13.6712   -2.5873   -2.2646 H   0  0  0  0  0  0  0  0  0  0  0  0
  -15.4380   -1.0861   -0.9338 H   0  0  0  0  0  0  0  0  0  0  0  0
  -19.8729   -4.3185   -3.6151 H   0  0  0  0  0  0  0  0  0  0  0  0
  -26.1746    1.7871   -0.4462 H   0  0  0  0  0  0  0  0  0  0  0  0
  -25.3736    4.0301   -1.4265 H   0  0  0  0  0  0  0  0  0  0  0  0
  -27.4471    2.6495   -3.7333 H   0  0  0  0  0  0  0  0  0  0  0  0
  -28.4566    3.1790   -1.1199 H   0  0  0  0  0  0  0  0  0  0  0  0
  -28.3391    4.7209   -1.3046 H   0  0  0  0  0  0  0  0  0  0  0  0
  -28.9960    5.1670   -4.0308 H   0  0  0  0  0  0  0  0  0  0  0  0
  -28.5527    6.8495   -5.8087 H   0  0  0  0  0  0  0  0  0  0  0  0
  -26.2971    6.9979   -6.8677 H   0  0  0  0  0  0  0  0  0  0  0  0
  -24.4806    5.4612   -6.1205 H   0  0  0  0  0  0  0  0  0  0  0  0
  -26.2149   -0.6737   -1.3141 H   0  0  0  0  0  0  0  0  0  0  0  0
  -15.0246   -4.3077   -3.7541 H   0  0  0  0  0  0  0  0  0  0  0  0
  -22.2440    1.0166   -1.6924 H   0  0  0  0  0  0  0  0  0  0  0  0
  1 20  2  0
  1 24  1  0
  2  3  2  0
  2  4  1  0
  2 16  1  0
  4 25  2  0
  4 29  1  0
  5  6  2  0
  5 25  1  0
  5 30  1  0
  6  7  1  0
  7  8  1  0
  7 29  2  0
  8 26  1  0
  9 10  2  0
  9 15  1  0
  9 26  1  0
 10 11  1  0
 11 12  2  0
 11 14  1  0
 12 27  1  0
 12 28  1  0
 13 14  2  0
 13 27  1  0
 15 28  2  0
 17 16  1  0
 17 18  1  0
 17 19  1  0
 18 19  1  0
 18 20  1  0
 20 21  1  0
 21 22  2  0
 22 23  1  0
 23 24  2  0
  1 31  1  0
  6 32  1  0
  8 33  1  0
  8 34  1  0
 10 35  1  0
 13 36  1  0
 14 37  1  0
 15 38  1  0
 16 39  1  0
 17 40  1  6
 18 41  1  6
 19 42  1  0
 19 43  1  0
 21 44  1  0
 22 45  1  0
 23 46  1  0
 24 47  1  0
 25 48  1  0
 27 49  1  0
 29 50  1  0
M  END
>  <filename_input>  (10) 
5SB2_1K2_docked.sdf

>  <pdb_id>  (10) 
5SB2_1K2

>  <pose_rank>  (10) 
9

>  <num_atoms_heavy>  (10) 
30

>  <num_torsions>  (10) 
6

>  <pose>  (10) 
[-24.270831235774544, 0.2997321403027457, -1.5593909930264636, -3.850331952817695, 2.929732703560044, -4.0800759766150465, -5.703135173786081, -6.565271571790464, -4.053749241002082, -0.13067337288546463, -0.12708732460164765, -6.221584473402339]

>  <energy>  (10) 
-1563.6110862432174

>  <inter_energy>  (10) 
-1588.2988834830269

>  <intra_energy>  (10) 
12.690236089119542

>  <rmsd>  (10) 
0.576834

>  <sdf_rank>  (10) 
0

$$$$

     RDKit          3D

 50 54  0  0  0  0  0  0  0  0999 V2000
  -26.1108    3.4392   -3.9936 C   0  0  0  0  0  0  0  0  0  0  0  0
  -22.5159    0.0349   -1.6828 C   0  0  0  0  0  0  0  0  0  0  0  0
  -23.0440   -0.1943   -0.5905 O   0  0  0  0  0  0  0  0  0  0  0  0
  -21.4673   -0.8738   -2.2465 C   0  0  0  0  0  0  0  0  0  0  0  0
  -19.5815   -2.2894   -2.0851 C   0  0  0  0  0  0  0  0  0  0  0  0
  -19.7854   -2.7673   -3.3628 C   0  0  0  0  0  0  0  0  0  0  0  0
  -20.8478   -2.2731   -4.0958 C   0  0  0  0  0  0  0  0  0  0  0  0
  -21.0583   -2.7586   -5.5008 C   0  0  0  0  0  0  0  0  0  0  0  0
  -20.1327   -1.9446   -7.5487 C   0  0  0  0  0  0  0  0  0  0  0  0
  -19.5540   -0.7861   -8.0646 C   0  0  0  0  0  0  0  0  0  0  0  0
  -19.7437   -0.5679   -9.4296 C   0  0  0  0  0  0  0  0  0  0  0  0
  -20.5044   -1.5355  -10.1678 C   0  0  0  0  0  0  0  0  0  0  0  0
  -19.8177    0.0630  -11.6182 C   0  0  0  0  0  0  0  0  0  0  0  0
  -19.3273    0.4341  -10.3740 C   0  0  0  0  0  0  0  0  0  0  0  0
  -20.8836   -2.8294   -8.3709 C   0  0  0  0  0  0  0  0  0  0  0  0
  -22.8820    1.1478   -2.3976 N   0  0  0  0  0  0  0  0  0  0  0  0
  -23.8579    2.0300   -1.8229 C   0  0  1  0  0  0  0  0  0  0  0  0
  -25.2935    1.8253   -2.3414 C   0  0  1  0  0  0  0  0  0  0  0  0
  -24.9524    1.5042   -0.8931 C   0  0  0  0  0  0  0  0  0  0  0  0
  -26.0896    3.0113   -2.6802 C   0  0  0  0  0  0  0  0  0  0  0  0
  -26.7927    3.7086   -1.7076 C   0  0  0  0  0  0  0  0  0  0  0  0
  -27.5048    4.8444   -2.0643 C   0  0  0  0  0  0  0  0  0  0  0  0
  -27.5297    5.2787   -3.3912 C   0  0  0  0  0  0  0  0  0  0  0  0
  -26.8304    4.5669   -4.3560 C   0  0  0  0  0  0  0  0  0  0  0  0
  -20.3810   -1.3369   -1.4944 C   0  0  0  0  0  0  0  0  0  0  0  0
  -19.9597   -2.2057   -6.2102 O   0  0  0  0  0  0  0  0  0  0  0  0
  -20.5411   -1.1386  -11.4998 N   0  0  0  0  0  0  0  0  0  0  0  0
  -21.0838   -2.6612   -9.6584 N   0  0  0  0  0  0  0  0  0  0  0  0
  -21.6850   -1.3328   -3.5355 C   0  0  0  0  0  0  0  0  0  0  0  0
  -18.2605   -2.9593   -1.1936 Cl  0  0  0  0  0  0  0  0  0  0  0  0
  -25.5518    2.8800   -4.7584 H   0  0  0  0  0  0  0  0  0  0  0  0
  -19.1151   -3.5276   -3.7904 H   0  0  0  0  0  0  0  0  0  0  0  0
  -21.0412   -3.8577   -5.5438 H   0  0  0  0  0  0  0  0  0  0  0  0
  -22.0316   -2.4589   -5.9166 H   0  0  0  0  0  0  0  0  0  0  0  0
  -18.9835   -0.0875   -7.4349 H   0  0  0  0  0  0  0  0  0  0  0  0
  -19.6645    0.6220  -12.5532 H   0  0  0  0  0  0  0  0  0  0  0  0
  -18.7298    1.3303  -10.1509 H   0  0  0  0  0  0  0  0  0  0  0  0
  -21.3278   -3.7165   -7.8957 H   0  0  0  0  0  0  0  0  0  0  0  0
  -22.4684    1.3445   -3.3202 H   0  0  0  0  0  0  0  0  0  0  0  0
  -23.1308    2.8497   -1.7259 H   0  0  0  0  0  0  0  0  0  0  0  0
  -25.7678    1.2615   -3.1582 H   0  0  0  0  0  0  0  0  0  0  0  0
  -24.9282    0.4578   -0.5545 H   0  0  0  0  0  0  0  0  0  0  0  0
  -25.3531    1.8135    0.0835 H   0  0  0  0  0  0  0  0  0  0  0  0
  -26.7853    3.3637   -0.6631 H   0  0  0  0  0  0  0  0  0  0  0  0
  -28.0544    5.4075   -1.2956 H   0  0  0  0  0  0  0  0  0  0  0  0
  -28.0990    6.1778   -3.6697 H   0  0  0  0  0  0  0  0  0  0  0  0
  -26.8472    4.8969   -5.4052 H   0  0  0  0  0  0  0  0  0  0  0  0
  -20.1765   -0.9586   -0.4819 H   0  0  0  0  0  0  0  0  0  0  0  0
  -21.0151   -1.6371  -12.2664 H   0  0  0  0  0  0  0  0  0  0  0  0
  -22.5336   -0.9431   -4.1168 H   0  0  0  0  0  0  0  0  0  0  0  0
  1 20  2  0
  1 24  1  0
  2  3  2  0
  2  4  1  0
  2 16  1  0
  4 25  2  0
  4 29  1  0
  5  6  2  0
  5 25  1  0
  5 30  1  0
  6  7  1  0
  7  8  1  0
  7 29  2  0
  8 26  1  0
  9 10  2  0
  9 15  1  0
  9 26  1  0
 10 11  1  0
 11 12  2  0
 11 14  1  0
 12 27  1  0
 12 28  1  0
 13 14  2  0
 13 27  1  0
 15 28  2  0
 17 16  1  0
 17 18  1  0
 17 19  1  0
 18 19  1  0
 18 20  1  0
 20 21  1  0
 21 22  2  0
 22 23  1  0
 23 24  2  0
  1 31  1  0
  6 32  1  0
  8 33  1  0
  8 34  1  0
 10 35  1  0
 13 36  1  0
 14 37  1  0
 15 38  1  0
 16 39  1  0
 17 40  1  1
 18 41  1  6
 19 42  1  0
 19 43  1  0
 21 44  1  0
 22 45  1  0
 23 46  1  0
 24 47  1  0
 25 48  1  0
 27 49  1  0
 29 50  1  0
M  END
>  <filename_input>  (11) 
5SB2_1K2_docked.sdf

>  <pdb_id>  (11) 
5SB2_1K2

>  <pose_rank>  (11) 
10

>  <num_atoms_heavy>  (11) 
30

>  <num_torsions>  (11) 
6

>  <pose>  (11) 
[-21.46729897418119, -0.8737891714162183, -2.2465421609886373, 1.5691000835398705, -3.855270116151147, -0.861378776328601, 1.9963377259475075, 2.972370114405896, -3.396868230141583, -2.1102001877221643, 0.5866043515262528, 2.317951093034798]

>  <energy>  (11) 
-509.9918545801832

>  <inter_energy>  (11) 
-536.6433226141895

>  <intra_energy>  (11) 
32.00762099416151

>  <rmsd>  (11) 
5.65188

>  <sdf_rank>  (11) 
0

$$$$

     RDKit          3D

 50 54  0  0  0  0  0  0  0  0999 V2000
  -27.5057    6.2199   -4.7607 C   0  0  0  0  0  0  0  0  0  0  0  0
  -28.2156    7.0128    0.1054 C   0  0  0  0  0  0  0  0  0  0  0  0
  -29.0275    7.7772   -0.4250 O   0  0  0  0  0  0  0  0  0  0  0  0
  -27.7604    7.2185    1.5174 C   0  0  0  0  0  0  0  0  0  0  0  0
  -27.0540    8.5415    3.3440 C   0  0  0  0  0  0  0  0  0  0  0  0
  -27.2301    7.4908    4.2201 C   0  0  0  0  0  0  0  0  0  0  0  0
  -27.6687    6.2777    3.7238 C   0  0  0  0  0  0  0  0  0  0  0  0
  -27.8290    5.1164    4.6617 C   0  0  0  0  0  0  0  0  0  0  0  0
  -30.0641    4.3712    5.0650 C   0  0  0  0  0  0  0  0  0  0  0  0
  -29.7316    3.0560    5.3859 C   0  0  0  0  0  0  0  0  0  0  0  0
  -30.7405    2.1109    5.1977 C   0  0  0  0  0  0  0  0  0  0  0  0
  -32.0067    2.5665    4.6986 C   0  0  0  0  0  0  0  0  0  0  0  0
  -32.1624    0.3354    5.0571 C   0  0  0  0  0  0  0  0  0  0  0  0
  -30.8689    0.6939    5.4099 C   0  0  0  0  0  0  0  0  0  0  0  0
  -31.3495    4.7103    4.5595 C   0  0  0  0  0  0  0  0  0  0  0  0
  -27.7058    5.9570   -0.6079 N   0  0  0  0  0  0  0  0  0  0  0  0
  -28.1212    5.7997   -1.9731 C   0  0  1  0  0  0  0  0  0  0  0  0
  -27.2913    4.7875   -2.7845 C   0  0  1  0  0  0  0  0  0  0  0  0
  -28.7508    4.4958   -2.4653 C   0  0  0  0  0  0  0  0  0  0  0  0
  -26.8789    5.1536   -4.1451 C   0  0  0  0  0  0  0  0  0  0  0  0
  -25.8970    4.4386   -4.8170 C   0  0  0  0  0  0  0  0  0  0  0  0
  -25.5611    4.7963   -6.1145 C   0  0  0  0  0  0  0  0  0  0  0  0
  -26.1915    5.8745   -6.7390 C   0  0  0  0  0  0  0  0  0  0  0  0
  -27.1648    6.5874   -6.0528 C   0  0  0  0  0  0  0  0  0  0  0  0
  -27.2890    8.4489    1.9907 C   0  0  0  0  0  0  0  0  0  0  0  0
  -29.1035    5.3375    5.2474 O   0  0  0  0  0  0  0  0  0  0  0  0
  -32.8634    1.4744    4.6182 N   0  0  0  0  0  0  0  0  0  0  0  0
  -32.3259    3.8519    4.3699 N   0  0  0  0  0  0  0  0  0  0  0  0
  -27.9348    6.1469    2.3781 C   0  0  0  0  0  0  0  0  0  0  0  0
  -26.5354   10.0486    4.0136 Cl  0  0  0  0  0  0  0  0  0  0  0  0
  -28.2819    6.7819   -4.2207 H   0  0  0  0  0  0  0  0  0  0  0  0
  -27.0252    7.6159    5.2936 H   0  0  0  0  0  0  0  0  0  0  0  0
  -27.8080    4.1627    4.1140 H   0  0  0  0  0  0  0  0  0  0  0  0
  -27.0211    5.0513    5.4053 H   0  0  0  0  0  0  0  0  0  0  0  0
  -28.7360    2.7805    5.7638 H   0  0  0  0  0  0  0  0  0  0  0  0
  -32.5761   -0.6824    5.1121 H   0  0  0  0  0  0  0  0  0  0  0  0
  -30.0853    0.0183    5.7834 H   0  0  0  0  0  0  0  0  0  0  0  0
  -31.5395    5.7646    4.3101 H   0  0  0  0  0  0  0  0  0  0  0  0
  -27.0441    5.2963   -0.1761 H   0  0  0  0  0  0  0  0  0  0  0  0
  -28.4340    6.8514   -2.0498 H   0  0  0  0  0  0  0  0  0  0  0  0
  -26.3514    4.2352   -2.6377 H   0  0  0  0  0  0  0  0  0  0  0  0
  -29.0070    3.7046   -1.7453 H   0  0  0  0  0  0  0  0  0  0  0  0
  -29.6384    4.2422   -3.0635 H   0  0  0  0  0  0  0  0  0  0  0  0
  -25.3897    3.5958   -4.3248 H   0  0  0  0  0  0  0  0  0  0  0  0
  -24.7919    4.2259   -6.6558 H   0  0  0  0  0  0  0  0  0  0  0  0
  -25.9189    6.1565   -7.7667 H   0  0  0  0  0  0  0  0  0  0  0  0
  -27.6643    7.4418   -6.5331 H   0  0  0  0  0  0  0  0  0  0  0  0
  -27.1150    9.2993    1.3149 H   0  0  0  0  0  0  0  0  0  0  0  0
  -33.8408    1.4951    4.2940 H   0  0  0  0  0  0  0  0  0  0  0  0
  -28.2889    5.1830    1.9836 H   0  0  0  0  0  0  0  0  0  0  0  0
  1 20  2  0
  1 24  1  0
  2  3  2  0
  2  4  1  0
  2 16  1  0
  4 25  2  0
  4 29  1  0
  5  6  2  0
  5 25  1  0
  5 30  1  0
  6  7  1  0
  7  8  1  0
  7 29  2  0
  8 26  1  0
  9 10  2  0
  9 15  1  0
  9 26  1  0
 10 11  1  0
 11 12  2  0
 11 14  1  0
 12 27  1  0
 12 28  1  0
 13 14  2  0
 13 27  1  0
 15 28  2  0
 17 16  1  0
 17 18  1  0
 17 19  1  0
 18 19  1  0
 18 20  1  0
 20 21  1  0
 21 22  2  0
 22 23  1  0
 23 24  2  0
  1 31  1  0
  6 32  1  0
  8 33  1  0
  8 34  1  0
 10 35  1  0
 13 36  1  0
 14 37  1  0
 15 38  1  0
 16 39  1  0
 17 40  1  6
 18 41  1  1
 19 42  1  0
 19 43  1  0
 21 44  1  0
 22 45  1  0
 23 46  1  0
 24 47  1  0
 25 48  1  0
 27 49  1  0
 29 50  1  0
M  END
>  <filename_input>  (12) 
5SB2_1K2_docked.sdf

>  <pdb_id>  (12) 
5SB2_1K2

>  <pose_rank>  (12) 
11

>  <num_atoms_heavy>  (12) 
30

>  <num_torsions>  (12) 
6

>  <pose>  (12) 
[-27.760447263026023, 7.218474539363433, 1.5173825773554015, 2.21363214570363, -1.5153510114601623, 2.515057555526486, 1.9456755931952923, 1.3362012650322312, 0.9590822715717082, 0.5300060431503819, -0.9577619966599623, 0.7571043800926307]

>  <energy>  (12) 
-499.8684674706301

>  <inter_energy>  (12) 
-494.66631830631707

>  <intra_energy>  (12) 
0.0

>  <rmsd>  (12) 
11.4853

>  <sdf_rank>  (12) 
0

$$$$

     RDKit          3D

 50 54  0  0  0  0  0  0  0  0999 V2000
  -27.5261    6.3565   -4.5409 C   0  0  0  0  0  0  0  0  0  0  0  0
  -28.0285    6.9360    0.0743 C   0  0  0  0  0  0  0  0  0  0  0  0
  -28.8290    7.6350   -0.5545 O   0  0  0  0  0  0  0  0  0  0  0  0
  -27.5889    7.3080    1.4569 C   0  0  0  0  0  0  0  0  0  0  0  0
  -27.6166    7.1154    3.8123 C   0  0  0  0  0  0  0  0  0  0  0  0
  -26.4694    7.8731    3.9242 C   0  0  0  0  0  0  0  0  0  0  0  0
  -25.8832    8.3656    2.7735 C   0  0  0  0  0  0  0  0  0  0  0  0
  -24.6551    9.2220    2.8850 C   0  0  0  0  0  0  0  0  0  0  0  0
  -22.6613    8.6302    4.0630 C   0  0  0  0  0  0  0  0  0  0  0  0
  -22.0188    8.4483    5.2867 C   0  0  0  0  0  0  0  0  0  0  0  0
  -20.6310    8.3159    5.2308 C   0  0  0  0  0  0  0  0  0  0  0  0
  -19.9990    8.3790    3.9437 C   0  0  0  0  0  0  0  0  0  0  0  0
  -18.3870    8.0167    5.4932 C   0  0  0  0  0  0  0  0  0  0  0  0
  -19.5842    8.0911    6.1914 C   0  0  0  0  0  0  0  0  0  0  0  0
  -21.9322    8.6945    2.8436 C   0  0  0  0  0  0  0  0  0  0  0  0
  -27.5171    5.7994   -0.5002 N   0  0  0  0  0  0  0  0  0  0  0  0
  -27.9172    5.4808   -1.8416 C   0  0  1  0  0  0  0  0  0  0  0  0
  -26.8015    4.8855   -2.7205 C   0  0  1  0  0  0  0  0  0  0  0  0
  -27.9968    4.0312   -2.3224 C   0  0  0  0  0  0  0  0  0  0  0  0
  -26.6564    5.3799   -4.0952 C   0  0  0  0  0  0  0  0  0  0  0  0
  -25.6846    4.8702   -4.9451 C   0  0  0  0  0  0  0  0  0  0  0  0
  -25.6036    5.3407   -6.2476 C   0  0  0  0  0  0  0  0  0  0  0  0
  -26.4801    6.3288   -6.7008 C   0  0  0  0  0  0  0  0  0  0  0  0
  -27.4412    6.8372   -5.8380 C   0  0  0  0  0  0  0  0  0  0  0  0
  -28.2183    6.8222    2.6093 C   0  0  0  0  0  0  0  0  0  0  0  0
  -24.0305    8.7523    4.0704 O   0  0  0  0  0  0  0  0  0  0  0  0
  -18.6321    8.1949    4.1186 N   0  0  0  0  0  0  0  0  0  0  0  0
  -20.6276    8.5729    2.7480 N   0  0  0  0  0  0  0  0  0  0  0  0
  -26.4416    8.0794    1.5467 C   0  0  0  0  0  0  0  0  0  0  0  0
  -28.2970    6.4932    5.2748 Cl  0  0  0  0  0  0  0  0  0  0  0  0
  -28.2926    6.7558   -3.8605 H   0  0  0  0  0  0  0  0  0  0  0  0
  -26.0294    8.0814    4.9106 H   0  0  0  0  0  0  0  0  0  0  0  0
  -23.9987    9.0835    2.0132 H   0  0  0  0  0  0  0  0  0  0  0  0
  -24.8841   10.2974    2.9183 H   0  0  0  0  0  0  0  0  0  0  0  0
  -22.5715    8.4115    6.2371 H   0  0  0  0  0  0  0  0  0  0  0  0
  -17.3987    7.8449    5.9446 H   0  0  0  0  0  0  0  0  0  0  0  0
  -19.7096    7.9956    7.2801 H   0  0  0  0  0  0  0  0  0  0  0  0
  -22.5002    8.8574    1.9158 H   0  0  0  0  0  0  0  0  0  0  0  0
  -26.8649    5.1922    0.0163 H   0  0  0  0  0  0  0  0  0  0  0  0
  -28.6315    6.3164   -1.8787 H   0  0  0  0  0  0  0  0  0  0  0  0
  -25.7116    4.7603   -2.6401 H   0  0  0  0  0  0  0  0  0  0  0  0
  -27.8673    3.2076   -1.6048 H   0  0  0  0  0  0  0  0  0  0  0  0
  -28.7419    3.4379   -2.8727 H   0  0  0  0  0  0  0  0  0  0  0  0
  -24.9847    4.1000   -4.5889 H   0  0  0  0  0  0  0  0  0  0  0  0
  -24.8429    4.9320   -6.9289 H   0  0  0  0  0  0  0  0  0  0  0  0
  -26.4094    6.7013   -7.7334 H   0  0  0  0  0  0  0  0  0  0  0  0
  -28.1334    7.6195   -6.1828 H   0  0  0  0  0  0  0  0  0  0  0  0
  -29.1473    6.2355    2.5562 H   0  0  0  0  0  0  0  0  0  0  0  0
  -17.9222    8.1898    3.3723 H   0  0  0  0  0  0  0  0  0  0  0  0
  -25.9723    8.4670    0.6304 H   0  0  0  0  0  0  0  0  0  0  0  0
  1 20  2  0
  1 24  1  0
  2  3  2  0
  2  4  1  0
  2 16  1  0
  4 25  2  0
  4 29  1  0
  5  6  2  0
  5 25  1  0
  5 30  1  0
  6  7  1  0
  7  8  1  0
  7 29  2  0
  8 26  1  0
  9 10  2  0
  9 15  1  0
  9 26  1  0
 10 11  1  0
 11 12  2  0
 11 14  1  0
 12 27  1  0
 12 28  1  0
 13 14  2  0
 13 27  1  0
 15 28  2  0
 17 16  1  0
 17 18  1  0
 17 19  1  0
 18 19  1  0
 18 20  1  0
 20 21  1  0
 21 22  2  0
 22 23  1  0
 23 24  2  0
  1 31  1  0
  6 32  1  0
  8 33  1  0
  8 34  1  0
 10 35  1  0
 13 36  1  0
 14 37  1  0
 15 38  1  0
 16 39  1  0
 17 40  1  6
 18 41  1  1
 19 42  1  0
 19 43  1  0
 21 44  1  0
 22 45  1  0
 23 46  1  0
 24 47  1  0
 25 48  1  0
 27 49  1  0
 29 50  1  0
M  END
>  <filename_input>  (13) 
5SB2_1K2_docked.sdf

>  <pdb_id>  (13) 
5SB2_1K2

>  <pose_rank>  (13) 
12

>  <num_atoms_heavy>  (13) 
30

>  <num_torsions>  (13) 
6

>  <pose>  (13) 
[-27.588929283574235, 7.308009403662863, 1.456855738113437, -1.2983102822074706, -0.3506223439750856, 0.493483077255238, -1.829980378558211, -5.393421389698857, 1.2299086146386224, -0.39546202231256805, -0.6121814800881682, 2.756366301488461]

>  <energy>  (13) 
-526.0786386564313

>  <inter_energy>  (13) 
-524.902203710612

>  <intra_energy>  (13) 
0.0

>  <rmsd>  (13) 
9.68231

>  <sdf_rank>  (13) 
0

$$$$

     RDKit          3D

 50 54  0  0  0  0  0  0  0  0999 V2000
  -25.1613   -2.4897   -1.3127 C   0  0  0  0  0  0  0  0  0  0  0  0
  -25.3633    2.7547   -1.9665 C   0  0  0  0  0  0  0  0  0  0  0  0
  -24.2191    3.0869   -1.6427 O   0  0  0  0  0  0  0  0  0  0  0  0
  -26.2789    3.7050   -2.6748 C   0  0  0  0  0  0  0  0  0  0  0  0
  -26.9230    5.0641   -4.4981 C   0  0  0  0  0  0  0  0  0  0  0  0
  -28.1975    5.2053   -3.9896 C   0  0  0  0  0  0  0  0  0  0  0  0
  -28.5069    4.5904   -2.7911 C   0  0  0  0  0  0  0  0  0  0  0  0
  -29.8796    4.7671   -2.2093 C   0  0  0  0  0  0  0  0  0  0  0  0
  -29.2232    6.1470   -0.3713 C   0  0  0  0  0  0  0  0  0  0  0  0
  -29.7340    7.2738   -1.0137 C   0  0  0  0  0  0  0  0  0  0  0  0
  -29.3011    8.5043   -0.5185 C   0  0  0  0  0  0  0  0  0  0  0  0
  -28.3846    8.5019    0.5860 C   0  0  0  0  0  0  0  0  0  0  0  0
  -28.8423   10.6586    0.0665 C   0  0  0  0  0  0  0  0  0  0  0  0
  -29.5676    9.8836   -0.8277 C   0  0  0  0  0  0  0  0  0  0  0  0
  -28.3034    6.2601    0.7075 C   0  0  0  0  0  0  0  0  0  0  0  0
  -25.8189    1.4953   -1.6664 N   0  0  0  0  0  0  0  0  0  0  0  0
  -24.9428    0.6120   -0.9501 C   0  0  1  0  0  0  0  0  0  0  0  0
  -24.1184   -0.3363   -1.8402 C   0  0  1  0  0  0  0  0  0  0  0  0
  -23.4231    0.7567   -1.0409 C   0  0  0  0  0  0  0  0  0  0  0  0
  -24.0049   -1.7450   -1.4428 C   0  0  0  0  0  0  0  0  0  0  0  0
  -22.7701   -2.3219   -1.1799 C   0  0  0  0  0  0  0  0  0  0  0  0
  -22.7097   -3.6469   -0.7735 C   0  0  0  0  0  0  0  0  0  0  0  0
  -23.8764   -4.4028   -0.6427 C   0  0  0  0  0  0  0  0  0  0  0  0
  -25.1043   -3.8170   -0.9180 C   0  0  0  0  0  0  0  0  0  0  0  0
  -25.9318    4.3421   -3.8724 C   0  0  0  0  0  0  0  0  0  0  0  0
  -29.6334    4.9136   -0.8187 O   0  0  0  0  0  0  0  0  0  0  0  0
  -28.1140    9.8210    0.9321 N   0  0  0  0  0  0  0  0  0  0  0  0
  -27.8729    7.3978    1.2038 N   0  0  0  0  0  0  0  0  0  0  0  0
  -27.5500    3.8417   -2.1410 C   0  0  0  0  0  0  0  0  0  0  0  0
  -26.5903    5.8231   -6.0153 Cl  0  0  0  0  0  0  0  0  0  0  0  0
  -26.1357   -2.0251   -1.5243 H   0  0  0  0  0  0  0  0  0  0  0  0
  -28.9533    5.7961   -4.5279 H   0  0  0  0  0  0  0  0  0  0  0  0
  -30.3679    5.6636   -2.6188 H   0  0  0  0  0  0  0  0  0  0  0  0
  -30.5537    3.9288   -2.4393 H   0  0  0  0  0  0  0  0  0  0  0  0
  -30.4347    7.1976   -1.8583 H   0  0  0  0  0  0  0  0  0  0  0  0
  -28.8374   11.7582    0.0944 H   0  0  0  0  0  0  0  0  0  0  0  0
  -30.2257   10.2560   -1.6266 H   0  0  0  0  0  0  0  0  0  0  0  0
  -27.9261    5.3301    1.1579 H   0  0  0  0  0  0  0  0  0  0  0  0
  -26.7626    1.1926   -1.9471 H   0  0  0  0  0  0  0  0  0  0  0  0
  -25.6330    0.5414   -0.0964 H   0  0  0  0  0  0  0  0  0  0  0  0
  -24.1175   -0.6255   -2.9015 H   0  0  0  0  0  0  0  0  0  0  0  0
  -22.9847    1.6214   -1.5606 H   0  0  0  0  0  0  0  0  0  0  0  0
  -22.6023    0.7773   -0.3090 H   0  0  0  0  0  0  0  0  0  0  0  0
  -21.8475   -1.7336   -1.2927 H   0  0  0  0  0  0  0  0  0  0  0  0
  -21.7347   -4.1058   -0.5526 H   0  0  0  0  0  0  0  0  0  0  0  0
  -23.8229   -5.4542   -0.3238 H   0  0  0  0  0  0  0  0  0  0  0  0
  -26.0294   -4.4045   -0.8233 H   0  0  0  0  0  0  0  0  0  0  0  0
  -24.9177    4.2694   -4.2923 H   0  0  0  0  0  0  0  0  0  0  0  0
  -27.4893   10.1313    1.6900 H   0  0  0  0  0  0  0  0  0  0  0  0
  -27.7977    3.3480   -1.1897 H   0  0  0  0  0  0  0  0  0  0  0  0
  1 20  2  0
  1 24  1  0
  2  3  2  0
  2  4  1  0
  2 16  1  0
  4 25  2  0
  4 29  1  0
  5  6  2  0
  5 25  1  0
  5 30  1  0
  6  7  1  0
  7  8  1  0
  7 29  2  0
  8 26  1  0
  9 10  2  0
  9 15  1  0
  9 26  1  0
 10 11  1  0
 11 12  2  0
 11 14  1  0
 12 27  1  0
 12 28  1  0
 13 14  2  0
 13 27  1  0
 15 28  2  0
 17 16  1  0
 17 18  1  0
 17 19  1  0
 18 19  1  0
 18 20  1  0
 20 21  1  0
 21 22  2  0
 22 23  1  0
 23 24  2  0
  1 31  1  0
  6 32  1  0
  8 33  1  0
  8 34  1  0
 10 35  1  0
 13 36  1  0
 14 37  1  0
 15 38  1  0
 16 39  1  0
 17 40  1  1
 18 41  1  6
 19 42  1  0
 19 43  1  0
 21 44  1  0
 22 45  1  0
 23 46  1  0
 24 47  1  0
 25 48  1  0
 27 49  1  0
 29 50  1  0
M  END
>  <filename_input>  (14) 
5SB2_1K2_docked.sdf

>  <pdb_id>  (14) 
5SB2_1K2

>  <pose_rank>  (14) 
13

>  <num_atoms_heavy>  (14) 
30

>  <num_torsions>  (14) 
6

>  <pose>  (14) 
[-26.278876895924824, 3.7050338930226134, -2.674845681654278, 0.6536040136962538, 1.7793657771247398, 2.7828189305327933, 3.7871456823484992, 3.041849167074641, 2.259811573245447, 2.9321157607485464, -1.6505961770386595, 0.447856681759813]

>  <energy>  (14) 
-496.27607194626523

>  <inter_energy>  (14) 
-532.396739100515

>  <intra_energy>  (14) 
44.66476474640885

>  <rmsd>  (14) 
11.3284

>  <sdf_rank>  (14) 
0

$$$$

     RDKit          3D

 50 54  0  0  0  0  0  0  0  0999 V2000
  -22.7345   -1.7193   -1.0948 C   0  0  0  0  0  0  0  0  0  0  0  0
  -25.3406    2.8092   -2.4814 C   0  0  0  0  0  0  0  0  0  0  0  0
  -24.3742    2.6416   -3.2316 O   0  0  0  0  0  0  0  0  0  0  0  0
  -26.4133    3.8033   -2.8039 C   0  0  0  0  0  0  0  0  0  0  0  0
  -27.6510    5.1837   -4.2698 C   0  0  0  0  0  0  0  0  0  0  0  0
  -28.6188    5.3970   -3.3104 C   0  0  0  0  0  0  0  0  0  0  0  0
  -28.4662    4.8074   -2.0696 C   0  0  0  0  0  0  0  0  0  0  0  0
  -29.4941    5.0619   -1.0054 C   0  0  0  0  0  0  0  0  0  0  0  0
  -29.0033    6.4936    0.8446 C   0  0  0  0  0  0  0  0  0  0  0  0
  -27.8992    7.2089    1.3058 C   0  0  0  0  0  0  0  0  0  0  0  0
  -27.7966    7.3419    2.6909 C   0  0  0  0  0  0  0  0  0  0  0  0
  -28.8159    6.7410    3.5033 C   0  0  0  0  0  0  0  0  0  0  0  0
  -27.3545    7.7875    4.8817 C   0  0  0  0  0  0  0  0  0  0  0  0
  -26.8836    7.9922    3.5923 C   0  0  0  0  0  0  0  0  0  0  0  0
  -29.9473    5.9238    1.7429 C   0  0  0  0  0  0  0  0  0  0  0  0
  -25.4375    2.0829   -1.3210 N   0  0  0  0  0  0  0  0  0  0  0  0
  -24.3791    1.1651   -1.0071 C   0  0  1  0  0  0  0  0  0  0  0  0
  -24.2172    0.0050   -2.0067 C   0  0  1  0  0  0  0  0  0  0  0  0
  -23.1307    1.0640   -1.8846 C   0  0  0  0  0  0  0  0  0  0  0  0
  -24.0091   -1.3488   -1.4781 C   0  0  0  0  0  0  0  0  0  0  0  0
  -25.0578   -2.2529   -1.3805 C   0  0  0  0  0  0  0  0  0  0  0  0
  -24.8115   -3.5336   -0.9077 C   0  0  0  0  0  0  0  0  0  0  0  0
  -23.5248   -3.9108   -0.5180 C   0  0  0  0  0  0  0  0  0  0  0  0
  -22.4866   -2.9942   -0.6112 C   0  0  0  0  0  0  0  0  0  0  0  0
  -26.5299    4.4130   -4.0589 C   0  0  0  0  0  0  0  0  0  0  0  0
  -29.1507    6.3491   -0.5145 O   0  0  0  0  0  0  0  0  0  0  0  0
  -28.5340    7.0207    4.8358 N   0  0  0  0  0  0  0  0  0  0  0  0
  -29.8877    6.0274    3.0512 N   0  0  0  0  0  0  0  0  0  0  0  0
  -27.3684    4.0120   -1.8223 C   0  0  0  0  0  0  0  0  0  0  0  0
  -27.8994    5.9140   -5.8170 Cl  0  0  0  0  0  0  0  0  0  0  0  0
  -21.9094   -0.9962   -1.1742 H   0  0  0  0  0  0  0  0  0  0  0  0
  -29.4955    6.0245   -3.5286 H   0  0  0  0  0  0  0  0  0  0  0  0
  -30.5087    5.0609   -1.4305 H   0  0  0  0  0  0  0  0  0  0  0  0
  -29.4986    4.2910   -0.2207 H   0  0  0  0  0  0  0  0  0  0  0  0
  -27.1554    7.6415    0.6205 H   0  0  0  0  0  0  0  0  0  0  0  0
  -26.8792    8.1663    5.7985 H   0  0  0  0  0  0  0  0  0  0  0  0
  -25.9779    8.5497    3.3112 H   0  0  0  0  0  0  0  0  0  0  0  0
  -30.7857    5.3567    1.3122 H   0  0  0  0  0  0  0  0  0  0  0  0
  -26.2466    2.1931   -0.6931 H   0  0  0  0  0  0  0  0  0  0  0  0
  -24.5175    1.3005    0.0758 H   0  0  0  0  0  0  0  0  0  0  0  0
  -24.7968   -0.4022   -2.8483 H   0  0  0  0  0  0  0  0  0  0  0  0
  -22.9740    1.7853   -2.7002 H   0  0  0  0  0  0  0  0  0  0  0  0
  -22.0481    1.0437   -1.6911 H   0  0  0  0  0  0  0  0  0  0  0  0
  -26.0752   -1.9565   -1.6756 H   0  0  0  0  0  0  0  0  0  0  0  0
  -25.6366   -4.2578   -0.8392 H   0  0  0  0  0  0  0  0  0  0  0  0
  -23.3354   -4.9263   -0.1401 H   0  0  0  0  0  0  0  0  0  0  0  0
  -21.4701   -3.2789   -0.3022 H   0  0  0  0  0  0  0  0  0  0  0  0
  -25.7639    4.2828   -4.8375 H   0  0  0  0  0  0  0  0  0  0  0  0
  -29.0912    6.7192    5.6479 H   0  0  0  0  0  0  0  0  0  0  0  0
  -27.2494    3.5385   -0.8366 H   0  0  0  0  0  0  0  0  0  0  0  0
  1 20  2  0
  1 24  1  0
  2  3  2  0
  2  4  1  0
  2 16  1  0
  4 25  2  0
  4 29  1  0
  5  6  2  0
  5 25  1  0
  5 30  1  0
  6  7  1  0
  7  8  1  0
  7 29  2  0
  8 26  1  0
  9 10  2  0
  9 15  1  0
  9 26  1  0
 10 11  1  0
 11 12  2  0
 11 14  1  0
 12 27  1  0
 12 28  1  0
 13 14  2  0
 13 27  1  0
 15 28  2  0
 17 16  1  0
 17 18  1  0
 17 19  1  0
 18 19  1  0
 18 20  1  0
 20 21  1  0
 21 22  2  0
 22 23  1  0
 23 24  2  0
  1 31  1  0
  6 32  1  0
  8 33  1  0
  8 34  1  0
 10 35  1  0
 13 36  1  0
 14 37  1  0
 15 38  1  0
 16 39  1  0
 17 40  1  1
 18 41  1  6
 19 42  1  0
 19 43  1  0
 21 44  1  0
 22 45  1  0
 23 46  1  0
 24 47  1  0
 25 48  1  0
 27 49  1  0
 29 50  1  0
M  END
>  <filename_input>  (15) 
5SB2_1K2_docked.sdf

>  <pdb_id>  (15) 
5SB2_1K2

>  <pose_rank>  (15) 
14

>  <num_atoms_heavy>  (15) 
30

>  <num_torsions>  (15) 
6

>  <pose>  (15) 
[-26.413338428987473, 3.803268921585759, -2.8039332172833222, 1.3169285541671407, 1.7754750429399444, 2.7481911677849804, 3.0356931862300596, 3.579872518374689, -0.1997717184949205, 3.999952679045231, 0.9919387032546788, -4.077616275983671]

>  <energy>  (15) 
-546.4472908450197

>  <inter_energy>  (15) 
-567.0434520104055

>  <intra_energy>  (15) 
56.08983466615231

>  <rmsd>  (15) 
11.0708

>  <sdf_rank>  (15) 
0

$$$$

     RDKit          3D

 50 54  0  0  0  0  0  0  0  0999 V2000
  -17.0227   -1.0224   -1.9687 C   0  0  0  0  0  0  0  0  0  0  0  0
  -21.6330   -2.8583   -1.0278 C   0  0  0  0  0  0  0  0  0  0  0  0
  -21.2906   -3.9818   -1.4086 O   0  0  0  0  0  0  0  0  0  0  0  0
  -23.0743   -2.4525   -0.9969 C   0  0  0  0  0  0  0  0  0  0  0  0
  -25.2057   -2.2812    0.0101 C   0  0  0  0  0  0  0  0  0  0  0  0
  -25.6252   -1.3797   -0.9460 C   0  0  0  0  0  0  0  0  0  0  0  0
  -24.7483   -1.0223   -1.9528 C   0  0  0  0  0  0  0  0  0  0  0  0
  -25.2057   -0.0702   -3.0197 C   0  0  0  0  0  0  0  0  0  0  0  0
  -24.6676    2.2352   -3.3493 C   0  0  0  0  0  0  0  0  0  0  0  0
  -25.9668    2.6265   -3.0293 C   0  0  0  0  0  0  0  0  0  0  0  0
  -26.3349    3.9073   -3.4425 C   0  0  0  0  0  0  0  0  0  0  0  0
  -25.3633    4.6934   -4.1483 C   0  0  0  0  0  0  0  0  0  0  0  0
  -27.2383    5.9440   -3.9217 C   0  0  0  0  0  0  0  0  0  0  0  0
  -27.5126    4.7241   -3.3193 C   0  0  0  0  0  0  0  0  0  0  0  0
  -23.7901    3.0917   -4.0698 C   0  0  0  0  0  0  0  0  0  0  0  0
  -20.6808   -1.9519   -0.6334 N   0  0  0  0  0  0  0  0  0  0  0  0
  -19.3018   -2.3434   -0.7094 C   0  0  1  0  0  0  0  0  0  0  0  0
  -18.3312   -1.4301    0.0622 C   0  0  1  0  0  0  0  0  0  0  0  0
  -18.5562   -2.8642    0.5201 C   0  0  0  0  0  0  0  0  0  0  0  0
  -17.0748   -1.0378   -0.5882 C   0  0  0  0  0  0  0  0  0  0  0  0
  -15.9507   -0.7082    0.1563 C   0  0  0  0  0  0  0  0  0  0  0  0
  -14.7733   -0.3764   -0.4979 C   0  0  0  0  0  0  0  0  0  0  0  0
  -14.7177   -0.3583   -1.8931 C   0  0  0  0  0  0  0  0  0  0  0  0
  -15.8515   -0.6805   -2.6260 C   0  0  0  0  0  0  0  0  0  0  0  0
  -23.9534   -2.8530    0.0166 C   0  0  0  0  0  0  0  0  0  0  0  0
  -24.2585    0.9851   -2.9498 O   0  0  0  0  0  0  0  0  0  0  0  0
  -25.9272    5.9319   -4.4337 N   0  0  0  0  0  0  0  0  0  0  0  0
  -24.0970    4.3032   -4.4748 N   0  0  0  0  0  0  0  0  0  0  0  0
  -23.4781   -1.5560   -1.9730 C   0  0  0  0  0  0  0  0  0  0  0  0
  -26.3240   -2.6743    1.2685 Cl  0  0  0  0  0  0  0  0  0  0  0  0
  -17.9185   -1.2839   -2.5511 H   0  0  0  0  0  0  0  0  0  0  0  0
  -26.6385   -0.9534   -0.9078 H   0  0  0  0  0  0  0  0  0  0  0  0
  -25.1873   -0.5502   -4.0093 H   0  0  0  0  0  0  0  0  0  0  0  0
  -26.2407    0.2724   -2.8735 H   0  0  0  0  0  0  0  0  0  0  0  0
  -26.6585    1.9668   -2.4851 H   0  0  0  0  0  0  0  0  0  0  0  0
  -27.9379    6.7902   -3.9887 H   0  0  0  0  0  0  0  0  0  0  0  0
  -28.4575    4.4348   -2.8361 H   0  0  0  0  0  0  0  0  0  0  0  0
  -22.7842    2.7133   -4.3045 H   0  0  0  0  0  0  0  0  0  0  0  0
  -20.9482   -1.0174   -0.2925 H   0  0  0  0  0  0  0  0  0  0  0  0
  -19.4198   -2.7378   -1.7294 H   0  0  0  0  0  0  0  0  0  0  0  0
  -18.3912   -0.4506    0.5591 H   0  0  0  0  0  0  0  0  0  0  0  0
  -19.1064   -3.0624    1.4517 H   0  0  0  0  0  0  0  0  0  0  0  0
  -17.9009   -3.7245    0.7212 H   0  0  0  0  0  0  0  0  0  0  0  0
  -15.9931   -0.7100    1.2555 H   0  0  0  0  0  0  0  0  0  0  0  0
  -13.8762   -0.1255    0.0871 H   0  0  0  0  0  0  0  0  0  0  0  0
  -13.7828   -0.0908   -2.4072 H   0  0  0  0  0  0  0  0  0  0  0  0
  -15.8206   -0.6644   -3.7255 H   0  0  0  0  0  0  0  0  0  0  0  0
  -23.6582   -3.5879    0.7800 H   0  0  0  0  0  0  0  0  0  0  0  0
  -25.4658    6.7057   -4.9328 H   0  0  0  0  0  0  0  0  0  0  0  0
  -22.7783   -1.2678   -2.7713 H   0  0  0  0  0  0  0  0  0  0  0  0
  1 20  2  0
  1 24  1  0
  2  3  2  0
  2  4  1  0
  2 16  1  0
  4 25  2  0
  4 29  1  0
  5  6  2  0
  5 25  1  0
  5 30  1  0
  6  7  1  0
  7  8  1  0
  7 29  2  0
  8 26  1  0
  9 10  2  0
  9 15  1  0
  9 26  1  0
 10 11  1  0
 11 12  2  0
 11 14  1  0
 12 27  1  0
 12 28  1  0
 13 14  2  0
 13 27  1  0
 15 28  2  0
 17 16  1  0
 17 18  1  0
 17 19  1  0
 18 19  1  0
 18 20  1  0
 20 21  1  0
 21 22  2  0
 22 23  1  0
 23 24  2  0
  1 31  1  0
  6 32  1  0
  8 33  1  0
  8 34  1  0
 10 35  1  0
 13 36  1  0
 14 37  1  0
 15 38  1  0
 16 39  1  0
 17 40  1  6
 18 41  1  1
 19 42  1  0
 19 43  1  0
 21 44  1  0
 22 45  1  0
 23 46  1  0
 24 47  1  0
 25 48  1  0
 27 49  1  0
 29 50  1  0
M  END
>  <filename_input>  (16) 
5SB2_1K2_docked.sdf

>  <pdb_id>  (16) 
5SB2_1K2

>  <pose_rank>  (16) 
15

>  <num_atoms_heavy>  (16) 
30

>  <num_torsions>  (16) 
6

>  <pose>  (16) 
[-23.074294817439384, -2.4524618473950737, -0.9968521138537694, 1.8593337230366431, 1.7898360651118421, -1.440152865636108, -2.092103852086873, 1.8033536367742542, 1.6740911791236393, 1.245419990448544, 6.853690521124594, 0.5119576299550261]

>  <energy>  (16) 
-425.08673930202

>  <inter_energy>  (16) 
-430.1582759413018

>  <intra_energy>  (16) 
0.15638314670089673

>  <rmsd>  (16) 
9.61149

>  <sdf_rank>  (16) 
0

$$$$

     RDKit          3D

 50 54  0  0  0  0  0  0  0  0999 V2000
  -23.1786   -2.0802   -2.2582 C   0  0  0  0  0  0  0  0  0  0  0  0
  -17.8414   -1.8156   -0.8195 C   0  0  0  0  0  0  0  0  0  0  0  0
  -18.4512   -2.0487    0.2286 O   0  0  0  0  0  0  0  0  0  0  0  0
  -16.4372   -1.2950   -0.8040 C   0  0  0  0  0  0  0  0  0  0  0  0
  -14.0873   -1.5368   -0.8791 C   0  0  0  0  0  0  0  0  0  0  0  0
  -13.9176   -0.1817   -1.0726 C   0  0  0  0  0  0  0  0  0  0  0  0
  -15.0364    0.6285   -1.1187 C   0  0  0  0  0  0  0  0  0  0  0  0
  -14.8625    2.1096   -1.2921 C   0  0  0  0  0  0  0  0  0  0  0  0
  -15.8964    3.7421   -2.6991 C   0  0  0  0  0  0  0  0  0  0  0  0
  -15.8271    3.9064   -4.0817 C   0  0  0  0  0  0  0  0  0  0  0  0
  -15.8479    5.2245   -4.5388 C   0  0  0  0  0  0  0  0  0  0  0  0
  -15.9354    6.2748   -3.5646 C   0  0  0  0  0  0  0  0  0  0  0  0
  -15.9094    7.2309   -5.6179 C   0  0  0  0  0  0  0  0  0  0  0  0
  -15.8279    5.8615   -5.8284 C   0  0  0  0  0  0  0  0  0  0  0  0
  -15.9638    4.8587   -1.8208 C   0  0  0  0  0  0  0  0  0  0  0  0
  -18.4575   -2.0239   -2.0281 N   0  0  0  0  0  0  0  0  0  0  0  0
  -19.8177   -2.4831   -2.0237 C   0  0  1  0  0  0  0  0  0  0  0  0
  -20.8293   -1.5011   -2.6432 C   0  0  1  0  0  0  0  0  0  0  0  0
  -20.5415   -2.8312   -3.3250 C   0  0  0  0  0  0  0  0  0  0  0  0
  -22.1007   -1.2748   -1.9449 C   0  0  0  0  0  0  0  0  0  0  0  0
  -22.2355   -0.2632   -1.0041 C   0  0  0  0  0  0  0  0  0  0  0  0
  -23.4640   -0.0610   -0.3923 C   0  0  0  0  0  0  0  0  0  0  0  0
  -24.5550   -0.8743   -0.7055 C   0  0  0  0  0  0  0  0  0  0  0  0
  -24.4045   -1.8886   -1.6408 C   0  0  0  0  0  0  0  0  0  0  0  0
  -15.3185   -2.1331   -0.7243 C   0  0  0  0  0  0  0  0  0  0  0  0
  -15.8918    2.4591   -2.2055 O   0  0  0  0  0  0  0  0  0  0  0  0
  -15.9723    7.4917   -4.2361 N   0  0  0  0  0  0  0  0  0  0  0  0
  -15.9872    6.1131   -2.2105 N   0  0  0  0  0  0  0  0  0  0  0  0
  -16.2893    0.0702   -0.9878 C   0  0  0  0  0  0  0  0  0  0  0  0
  -12.6625   -2.5158   -0.8608 Cl  0  0  0  0  0  0  0  0  0  0  0  0
  -23.0628   -2.8804   -3.0040 H   0  0  0  0  0  0  0  0  0  0  0  0
  -12.9107    0.2461   -1.1881 H   0  0  0  0  0  0  0  0  0  0  0  0
  -14.9912    2.6355   -0.3346 H   0  0  0  0  0  0  0  0  0  0  0  0
  -13.8596    2.3843   -1.6509 H   0  0  0  0  0  0  0  0  0  0  0  0
  -15.7602    3.0504   -4.7692 H   0  0  0  0  0  0  0  0  0  0  0  0
  -15.9228    7.9949   -6.4091 H   0  0  0  0  0  0  0  0  0  0  0  0
  -15.7604    5.3559   -6.8030 H   0  0  0  0  0  0  0  0  0  0  0  0
  -15.9986    4.6580   -0.7398 H   0  0  0  0  0  0  0  0  0  0  0  0
  -17.9582   -1.8557   -2.9131 H   0  0  0  0  0  0  0  0  0  0  0  0
  -19.6804   -3.0313   -1.0799 H   0  0  0  0  0  0  0  0  0  0  0  0
  -20.8138   -0.4526   -2.9754 H   0  0  0  0  0  0  0  0  0  0  0  0
  -19.9847   -2.8520   -4.2735 H   0  0  0  0  0  0  0  0  0  0  0  0
  -21.1582   -3.6759   -3.6658 H   0  0  0  0  0  0  0  0  0  0  0  0
  -21.3758    0.3725   -0.7459 H   0  0  0  0  0  0  0  0  0  0  0  0
  -23.5796    0.7467    0.3455 H   0  0  0  0  0  0  0  0  0  0  0  0
  -25.5261   -0.7123   -0.2148 H   0  0  0  0  0  0  0  0  0  0  0  0
  -25.2558   -2.5386   -1.8913 H   0  0  0  0  0  0  0  0  0  0  0  0
  -15.4182   -3.2141   -0.5468 H   0  0  0  0  0  0  0  0  0  0  0  0
  -16.0348    8.4220   -3.7985 H   0  0  0  0  0  0  0  0  0  0  0  0
  -17.1801    0.7142   -1.0296 H   0  0  0  0  0  0  0  0  0  0  0  0
  1 20  2  0
  1 24  1  0
  2  3  2  0
  2  4  1  0
  2 16  1  0
  4 25  2  0
  4 29  1  0
  5  6  2  0
  5 25  1  0
  5 30  1  0
  6  7  1  0
  7  8  1  0
  7 29  2  0
  8 26  1  0
  9 10  2  0
  9 15  1  0
  9 26  1  0
 10 11  1  0
 11 12  2  0
 11 14  1  0
 12 27  1  0
 12 28  1  0
 13 14  2  0
 13 27  1  0
 15 28  2  0
 17 16  1  0
 17 18  1  0
 17 19  1  0
 18 19  1  0
 18 20  1  0
 20 21  1  0
 21 22  2  0
 22 23  1  0
 23 24  2  0
  1 31  1  0
  6 32  1  0
  8 33  1  0
  8 34  1  0
 10 35  1  0
 13 36  1  0
 14 37  1  0
 15 38  1  0
 16 39  1  0
 17 40  1  1
 18 41  1  6
 19 42  1  0
 19 43  1  0
 21 44  1  0
 22 45  1  0
 23 46  1  0
 24 47  1  0
 25 48  1  0
 27 49  1  0
 29 50  1  0
M  END
>  <filename_input>  (17) 
5SB2_1K2_docked.sdf

>  <pdb_id>  (17) 
5SB2_1K2

>  <pose_rank>  (17) 
16

>  <num_atoms_heavy>  (17) 
30

>  <num_torsions>  (17) 
6

>  <pose>  (17) 
[-16.437214720929127, -1.295040037199803, -0.8040047544869048, -0.15007760757194552, -0.9236243375586619, -4.6336380526414125, -1.9567770855452193, 0.4405479022301383, 5.9366794274723285, 1.5165696465357277, 0.2306053276654447, 1.976567221865688]

>  <energy>  (17) 
-406.75718090703566

>  <inter_energy>  (17) 
-394.9678290850885

>  <intra_energy>  (17) 
0.0

>  <rmsd>  (17) 
8.71393

>  <sdf_rank>  (17) 
0

$$$$

     RDKit          3D

 50 54  0  0  0  0  0  0  0  0999 V2000
  -26.4697   -8.8511    3.5770 C   0  0  0  0  0  0  0  0  0  0  0  0
  -25.3248   -5.0685    0.5540 C   0  0  0  0  0  0  0  0  0  0  0  0
  -26.4401   -4.8587    1.0406 O   0  0  0  0  0  0  0  0  0  0  0  0
  -24.5510   -3.9769   -0.1187 C   0  0  0  0  0  0  0  0  0  0  0  0
  -24.3401   -1.8834   -1.1953 C   0  0  0  0  0  0  0  0  0  0  0  0
  -22.9677   -1.9112   -1.0601 C   0  0  0  0  0  0  0  0  0  0  0  0
  -22.3816   -3.0050   -0.4515 C   0  0  0  0  0  0  0  0  0  0  0  0
  -20.8862   -3.0635   -0.3315 C   0  0  0  0  0  0  0  0  0  0  0  0
  -19.1424   -2.6708   -1.9184 C   0  0  0  0  0  0  0  0  0  0  0  0
  -18.1101   -2.1256   -1.1567 C   0  0  0  0  0  0  0  0  0  0  0  0
  -16.8162   -2.4113   -1.5935 C   0  0  0  0  0  0  0  0  0  0  0  0
  -16.6647   -3.2242   -2.7667 C   0  0  0  0  0  0  0  0  0  0  0  0
  -14.5946   -2.7217   -1.9963 C   0  0  0  0  0  0  0  0  0  0  0  0
  -15.4885   -2.1050   -1.1321 C   0  0  0  0  0  0  0  0  0  0  0  0
  -18.8779   -3.4513   -3.0776 C   0  0  0  0  0  0  0  0  0  0  0  0
  -24.7790   -6.3263    0.6159 N   0  0  0  0  0  0  0  0  0  0  0  0
  -25.5525   -7.3699    1.2270 C   0  0  1  0  0  0  0  0  0  0  0  0
  -26.6871   -6.8760    2.1437 C   0  0  1  0  0  0  0  0  0  0  0  0
  -27.0155   -7.5999    0.8455 C   0  0  0  0  0  0  0  0  0  0  0  0
  -26.8753   -7.5375    3.4407 C   0  0  0  0  0  0  0  0  0  0  0  0
  -27.4662   -6.8752    4.5079 C   0  0  0  0  0  0  0  0  0  0  0  0
  -27.6567   -7.5478    5.7061 C   0  0  0  0  0  0  0  0  0  0  0  0
  -27.2464   -8.8750    5.8477 C   0  0  0  0  0  0  0  0  0  0  0  0
  -26.6479   -9.5230    4.7760 C   0  0  0  0  0  0  0  0  0  0  0  0
  -25.1665   -2.8938   -0.7578 C   0  0  0  0  0  0  0  0  0  0  0  0
  -20.4338   -2.4251   -1.5163 O   0  0  0  0  0  0  0  0  0  0  0  0
  -15.3061   -3.4054   -3.0002 N   0  0  0  0  0  0  0  0  0  0  0  0
  -17.6763   -3.7442   -3.5206 N   0  0  0  0  0  0  0  0  0  0  0  0
  -23.1734   -4.0300    0.0188 C   0  0  0  0  0  0  0  0  0  0  0  0
  -25.0321   -0.4815   -1.9332 Cl  0  0  0  0  0  0  0  0  0  0  0  0
  -26.0012   -9.3681    2.7266 H   0  0  0  0  0  0  0  0  0  0  0  0
  -22.3513   -1.0785   -1.4297 H   0  0  0  0  0  0  0  0  0  0  0  0
  -20.5420   -2.5228    0.5625 H   0  0  0  0  0  0  0  0  0  0  0  0
  -20.5046   -4.0897   -0.2250 H   0  0  0  0  0  0  0  0  0  0  0  0
  -18.3035   -1.5086   -0.2668 H   0  0  0  0  0  0  0  0  0  0  0  0
  -13.4987   -2.6823   -1.9101 H   0  0  0  0  0  0  0  0  0  0  0  0
  -15.2293   -1.4939   -0.2550 H   0  0  0  0  0  0  0  0  0  0  0  0
  -19.7395   -3.8366   -3.6425 H   0  0  0  0  0  0  0  0  0  0  0  0
  -23.8411   -6.5160    0.2348 H   0  0  0  0  0  0  0  0  0  0  0  0
  -24.6853   -8.0439    1.2870 H   0  0  0  0  0  0  0  0  0  0  0  0
  -26.9906   -5.9128    2.5798 H   0  0  0  0  0  0  0  0  0  0  0  0
  -27.4567   -7.0447    0.0046 H   0  0  0  0  0  0  0  0  0  0  0  0
  -27.6174   -8.4821    0.5820 H   0  0  0  0  0  0  0  0  0  0  0  0
  -27.7805   -5.8262    4.4045 H   0  0  0  0  0  0  0  0  0  0  0  0
  -28.1350   -7.0315    6.5515 H   0  0  0  0  0  0  0  0  0  0  0  0
  -27.3962   -9.4029    6.8011 H   0  0  0  0  0  0  0  0  0  0  0  0
  -26.3161  -10.5668    4.8780 H   0  0  0  0  0  0  0  0  0  0  0  0
  -26.2561   -2.8523   -0.9030 H   0  0  0  0  0  0  0  0  0  0  0  0
  -14.8923   -3.9459   -3.7732 H   0  0  0  0  0  0  0  0  0  0  0  0
  -22.7075   -4.8982    0.5079 H   0  0  0  0  0  0  0  0  0  0  0  0
  1 20  2  0
  1 24  1  0
  2  3  2  0
  2  4  1  0
  2 16  1  0
  4 25  2  0
  4 29  1  0
  5  6  2  0
  5 25  1  0
  5 30  1  0
  6  7  1  0
  7  8  1  0
  7 29  2  0
  8 26  1  0
  9 10  2  0
  9 15  1  0
  9 26  1  0
 10 11  1  0
 11 12  2  0
 11 14  1  0
 12 27  1  0
 12 28  1  0
 13 14  2  0
 13 27  1  0
 15 28  2  0
 17 16  1  0
 17 18  1  0
 17 19  1  0
 18 19  1  0
 18 20  1  0
 20 21  1  0
 21 22  2  0
 22 23  1  0
 23 24  2  0
  1 31  1  0
  6 32  1  0
  8 33  1  0
  8 34  1  0
 10 35  1  0
 13 36  1  0
 14 37  1  0
 15 38  1  0
 16 39  1  0
 17 40  1  1
 18 41  1  1
 19 42  1  0
 19 43  1  0
 21 44  1  0
 22 45  1  0
 23 46  1  0
 24 47  1  0
 25 48  1  0
 27 49  1  0
 29 50  1  0
M  END
>  <filename_input>  (18) 
5SB2_1K2_docked.sdf

>  <pdb_id>  (18) 
5SB2_1K2

>  <pose_rank>  (18) 
17

>  <num_atoms_heavy>  (18) 
30

>  <num_torsions>  (18) 
6

>  <pose>  (18) 
[-24.55096526111177, -3.976904428229569, -0.11870989247163607, -3.418347137038542, 0.21828619221336598, -0.26967418257020126, -3.959825060652775, -1.9268282471841989, 0.7635691928308821, -1.5028622509885987, 6.721634127902597, -13.951566250491624]

>  <energy>  (18) 
-507.47678204631745

>  <inter_energy>  (18) 
-581.133563927008

>  <intra_energy>  (18) 
68.56455763039298

>  <rmsd>  (18) 
8.92596

>  <sdf_rank>  (18) 
0

$$$$

     RDKit          3D

 50 54  0  0  0  0  0  0  0  0999 V2000
  -23.0542   -2.2874   -1.0761 C   0  0  0  0  0  0  0  0  0  0  0  0
  -25.1930    2.7021   -2.0969 C   0  0  0  0  0  0  0  0  0  0  0  0
  -23.9627    2.7746   -2.1732 O   0  0  0  0  0  0  0  0  0  0  0  0
  -26.0730    3.7666   -2.6760 C   0  0  0  0  0  0  0  0  0  0  0  0
  -26.8695    5.1331   -4.4323 C   0  0  0  0  0  0  0  0  0  0  0  0
  -27.9605    5.5224   -3.6834 C   0  0  0  0  0  0  0  0  0  0  0  0
  -28.0961    5.0285   -2.3997 C   0  0  0  0  0  0  0  0  0  0  0  0
  -29.2597    5.4735   -1.5619 C   0  0  0  0  0  0  0  0  0  0  0  0
  -28.9192    6.9806    0.2618 C   0  0  0  0  0  0  0  0  0  0  0  0
  -28.0871    7.9656    0.7917 C   0  0  0  0  0  0  0  0  0  0  0  0
  -28.1901    8.1725    2.1677 C   0  0  0  0  0  0  0  0  0  0  0  0
  -29.1241    7.3678    2.9025 C   0  0  0  0  0  0  0  0  0  0  0  0
  -28.1408    8.7973    4.3588 C   0  0  0  0  0  0  0  0  0  0  0  0
  -27.5797    9.0637    3.1177 C   0  0  0  0  0  0  0  0  0  0  0  0
  -29.7989    6.2281    1.0880 C   0  0  0  0  0  0  0  0  0  0  0  0
  -25.7755    1.6344   -1.4611 N   0  0  0  0  0  0  0  0  0  0  0  0
  -24.9159    0.6450   -0.8752 C   0  0  1  0  0  0  0  0  0  0  0  0
  -24.2545   -0.3108   -1.8854 C   0  0  1  0  0  0  0  0  0  0  0  0
  -23.4034    0.6759   -1.0987 C   0  0  0  0  0  0  0  0  0  0  0  0
  -24.2235   -1.7450   -1.5732 C   0  0  0  0  0  0  0  0  0  0  0  0
  -25.3313   -2.5530   -1.7886 C   0  0  0  0  0  0  0  0  0  0  0  0
  -25.2490   -3.9099   -1.5125 C   0  0  0  0  0  0  0  0  0  0  0  0
  -24.0691   -4.4611   -1.0084 C   0  0  0  0  0  0  0  0  0  0  0  0
  -22.9715   -3.6406   -0.7883 C   0  0  0  0  0  0  0  0  0  0  0  0
  -25.8974    4.2758   -3.9684 C   0  0  0  0  0  0  0  0  0  0  0  0
  -28.8597    6.7524   -1.0925 O   0  0  0  0  0  0  0  0  0  0  0  0
  -29.0838    7.7594    4.2360 N   0  0  0  0  0  0  0  0  0  0  0  0
  -29.9268    6.3930    2.3851 N   0  0  0  0  0  0  0  0  0  0  0  0
  -27.1560    4.1520   -1.9028 C   0  0  0  0  0  0  0  0  0  0  0  0
  -26.7578    5.7499   -6.0435 Cl  0  0  0  0  0  0  0  0  0  0  0  0
  -22.1812   -1.6397   -0.9072 H   0  0  0  0  0  0  0  0  0  0  0  0
  -28.7086    6.2129   -4.1001 H   0  0  0  0  0  0  0  0  0  0  0  0
  -30.1754    5.5455   -2.1672 H   0  0  0  0  0  0  0  0  0  0  0  0
  -29.4947    4.7723   -0.7476 H   0  0  0  0  0  0  0  0  0  0  0  0
  -27.3927    8.5435    0.1642 H   0  0  0  0  0  0  0  0  0  0  0  0
  -27.8876    9.3171    5.2945 H   0  0  0  0  0  0  0  0  0  0  0  0
  -26.8094    9.8182    2.9003 H   0  0  0  0  0  0  0  0  0  0  0  0
  -30.4152    5.4540    0.6074 H   0  0  0  0  0  0  0  0  0  0  0  0
  -26.8001    1.5454   -1.4058 H   0  0  0  0  0  0  0  0  0  0  0  0
  -25.5318    0.5783    0.0338 H   0  0  0  0  0  0  0  0  0  0  0  0
  -24.3709   -0.5363   -2.9558 H   0  0  0  0  0  0  0  0  0  0  0  0
  -22.9423    1.5329   -1.6114 H   0  0  0  0  0  0  0  0  0  0  0  0
  -22.5224    0.5896   -0.4456 H   0  0  0  0  0  0  0  0  0  0  0  0
  -26.2664   -2.1211   -2.1747 H   0  0  0  0  0  0  0  0  0  0  0  0
  -26.1202   -4.5571   -1.6922 H   0  0  0  0  0  0  0  0  0  0  0  0
  -24.0101   -5.5371   -0.7874 H   0  0  0  0  0  0  0  0  0  0  0  0
  -22.0387   -4.0631   -0.3866 H   0  0  0  0  0  0  0  0  0  0  0  0
  -25.0261    4.0042   -4.5826 H   0  0  0  0  0  0  0  0  0  0  0  0
  -29.6460    7.3597    5.0008 H   0  0  0  0  0  0  0  0  0  0  0  0
  -27.2665    3.7548   -0.8829 H   0  0  0  0  0  0  0  0  0  0  0  0
  1 20  2  0
  1 24  1  0
  2  3  2  0
  2  4  1  0
  2 16  1  0
  4 25  2  0
  4 29  1  0
  5  6  2  0
  5 25  1  0
  5 30  1  0
  6  7  1  0
  7  8  1  0
  7 29  2  0
  8 26  1  0
  9 10  2  0
  9 15  1  0
  9 26  1  0
 10 11  1  0
 11 12  2  0
 11 14  1  0
 12 27  1  0
 12 28  1  0
 13 14  2  0
 13 27  1  0
 15 28  2  0
 17 16  1  0
 17 18  1  0
 17 19  1  0
 18 19  1  0
 18 20  1  0
 20 21  1  0
 21 22  2  0
 22 23  1  0
 23 24  2  0
  1 31  1  0
  6 32  1  0
  8 33  1  0
  8 34  1  0
 10 35  1  0
 13 36  1  0
 14 37  1  0
 15 38  1  0
 16 39  1  0
 17 40  1  1
 18 41  1  6
 19 42  1  0
 19 43  1  0
 21 44  1  0
 22 45  1  0
 23 46  1  0
 24 47  1  0
 25 48  1  0
 27 49  1  0
 29 50  1  0
M  END
>  <filename_input>  (19) 
5SB2_1K2_docked.sdf

>  <pdb_id>  (19) 
5SB2_1K2

>  <pose_rank>  (19) 
18

>  <num_atoms_heavy>  (19) 
30

>  <num_torsions>  (19) 
6

>  <pose>  (19) 
[-26.073002864962728, 3.7666427258504744, -2.6760384085837146, 1.0966941130213235, 1.7280972478126866, 2.618361298355115, 3.652337556365375, 3.3743018524477923, -0.5276985861932683, 3.991299812345776, 1.0106237388932184, -3.7187225376732034]

>  <energy>  (19) 
-520.0266651392084

>  <inter_energy>  (19) 
-557.0783219637631

>  <intra_energy>  (19) 
48.67479558721949

>  <rmsd>  (19) 
11.2943

>  <sdf_rank>  (19) 
0

$$$$

     RDKit          3D

 50 54  0  0  0  0  0  0  0  0999 V2000
  -26.0894   -4.0150  -10.9200 C   0  0  0  0  0  0  0  0  0  0  0  0
  -23.0347   -3.5411   -8.3459 C   0  0  0  0  0  0  0  0  0  0  0  0
  -23.8927   -2.8453   -8.8976 O   0  0  0  0  0  0  0  0  0  0  0  0
  -21.7564   -2.9461   -7.8410 C   0  0  0  0  0  0  0  0  0  0  0  0
  -20.0900   -1.2726   -7.7483 C   0  0  0  0  0  0  0  0  0  0  0  0
  -19.5500   -1.8224   -6.6043 C   0  0  0  0  0  0  0  0  0  0  0  0
  -20.1238   -2.9659   -6.0815 C   0  0  0  0  0  0  0  0  0  0  0  0
  -19.5226   -3.5943   -4.8577 C   0  0  0  0  0  0  0  0  0  0  0  0
  -18.9491   -2.1617   -3.0323 C   0  0  0  0  0  0  0  0  0  0  0  0
  -17.8456   -2.9471   -2.7023 C   0  0  0  0  0  0  0  0  0  0  0  0
  -16.8674   -2.3252   -1.9258 C   0  0  0  0  0  0  0  0  0  0  0  0
  -17.0797   -0.9588   -1.5412 C   0  0  0  0  0  0  0  0  0  0  0  0
  -15.0722   -1.6094   -0.7180 C   0  0  0  0  0  0  0  0  0  0  0  0
  -15.5910   -2.7101   -1.3855 C   0  0  0  0  0  0  0  0  0  0  0  0
  -19.0658   -0.8179   -2.5816 C   0  0  0  0  0  0  0  0  0  0  0  0
  -23.2420   -4.8896   -8.1973 N   0  0  0  0  0  0  0  0  0  0  0  0
  -24.4540   -5.4498   -8.7246 C   0  0  1  0  0  0  0  0  0  0  0  0
  -24.4398   -5.6959  -10.2447 C   0  0  1  0  0  0  0  0  0  0  0  0
  -24.4930   -6.8735   -9.2817 C   0  0  0  0  0  0  0  0  0  0  0  0
  -25.6216   -5.3107  -11.0259 C   0  0  0  0  0  0  0  0  0  0  0  0
  -26.2762   -6.2247  -11.8399 C   0  0  0  0  0  0  0  0  0  0  0  0
  -27.4099   -5.8289  -12.5345 C   0  0  0  0  0  0  0  0  0  0  0  0
  -27.8844   -4.5197  -12.4311 C   0  0  0  0  0  0  0  0  0  0  0  0
  -27.2151   -3.6126  -11.6213 C   0  0  0  0  0  0  0  0  0  0  0  0
  -21.1755   -1.8047   -8.4069 C   0  0  0  0  0  0  0  0  0  0  0  0
  -19.9315   -2.7308   -3.8073 O   0  0  0  0  0  0  0  0  0  0  0  0
  -15.9780   -0.5356   -0.8060 N   0  0  0  0  0  0  0  0  0  0  0  0
  -18.1678   -0.1960   -1.8516 N   0  0  0  0  0  0  0  0  0  0  0  0
  -21.2243   -3.5206   -6.6981 C   0  0  0  0  0  0  0  0  0  0  0  0
  -19.3603    0.1753   -8.3482 Cl  0  0  0  0  0  0  0  0  0  0  0  0
  -25.5640   -3.2967  -10.2736 H   0  0  0  0  0  0  0  0  0  0  0  0
  -18.6790   -1.3595   -6.1173 H   0  0  0  0  0  0  0  0  0  0  0  0
  -19.9135   -4.6112   -4.7054 H   0  0  0  0  0  0  0  0  0  0  0  0
  -18.4299   -3.7014   -4.9237 H   0  0  0  0  0  0  0  0  0  0  0  0
  -17.7520   -3.9919   -3.0334 H   0  0  0  0  0  0  0  0  0  0  0  0
  -14.1023   -1.5806   -0.1998 H   0  0  0  0  0  0  0  0  0  0  0  0
  -15.1136   -3.6962   -1.4834 H   0  0  0  0  0  0  0  0  0  0  0  0
  -19.9710   -0.2603   -2.8639 H   0  0  0  0  0  0  0  0  0  0  0  0
  -22.5477   -5.4829   -7.7209 H   0  0  0  0  0  0  0  0  0  0  0  0
  -25.0759   -4.9237   -7.9855 H   0  0  0  0  0  0  0  0  0  0  0  0
  -23.7838   -5.4245  -11.0850 H   0  0  0  0  0  0  0  0  0  0  0  0
  -23.6176   -7.5302   -9.1698 H   0  0  0  0  0  0  0  0  0  0  0  0
  -25.1610   -7.7377   -9.1517 H   0  0  0  0  0  0  0  0  0  0  0  0
  -25.8994   -7.2539  -11.9334 H   0  0  0  0  0  0  0  0  0  0  0  0
  -27.9393   -6.5522  -13.1721 H   0  0  0  0  0  0  0  0  0  0  0  0
  -28.7816   -4.2096  -12.9869 H   0  0  0  0  0  0  0  0  0  0  0  0
  -27.5770   -2.5773  -11.5364 H   0  0  0  0  0  0  0  0  0  0  0  0
  -21.5670   -1.3557   -9.3316 H   0  0  0  0  0  0  0  0  0  0  0  0
  -15.8475    0.4007   -0.3971 H   0  0  0  0  0  0  0  0  0  0  0  0
  -21.6843   -4.4277   -6.2792 H   0  0  0  0  0  0  0  0  0  0  0  0
  1 20  2  0
  1 24  1  0
  2  3  2  0
  2  4  1  0
  2 16  1  0
  4 25  2  0
  4 29  1  0
  5  6  2  0
  5 25  1  0
  5 30  1  0
  6  7  1  0
  7  8  1  0
  7 29  2  0
  8 26  1  0
  9 10  2  0
  9 15  1  0
  9 26  1  0
 10 11  1  0
 11 12  2  0
 11 14  1  0
 12 27  1  0
 12 28  1  0
 13 14  2  0
 13 27  1  0
 15 28  2  0
 17 16  1  0
 17 18  1  0
 17 19  1  0
 18 19  1  0
 18 20  1  0
 20 21  1  0
 21 22  2  0
 22 23  1  0
 23 24  2  0
  1 31  1  0
  6 32  1  0
  8 33  1  0
  8 34  1  0
 10 35  1  0
 13 36  1  0
 14 37  1  0
 15 38  1  0
 16 39  1  0
 17 40  1  6
 18 41  1  6
 19 42  1  0
 19 43  1  0
 21 44  1  0
 22 45  1  0
 23 46  1  0
 24 47  1  0
 25 48  1  0
 27 49  1  0
 29 50  1  0
M  END
>  <filename_input>  (20) 
5SB2_1K2_docked.sdf

>  <pdb_id>  (20) 
5SB2_1K2

>  <pose_rank>  (20) 
19

>  <num_atoms_heavy>  (20) 
30

>  <num_torsions>  (20) 
6

>  <pose>  (20) 
[-21.75644526440181, -2.946051494019358, -7.840958544226776, 2.4006644983123717, -0.9951624185309504, 1.4681188077439602, -3.951205456759895, -0.2048139762297622, 2.1696390902702785, 0.4051527563146746, 1.095698099417338, -0.8293660449533674]

>  <energy>  (20) 
-400.0915074774491

>  <inter_energy>  (20) 
-367.91907208316746

>  <intra_energy>  (20) 
10.22173511337978

>  <rmsd>  (20) 
8.27675

>  <sdf_rank>  (20) 
0

$$$$

     RDKit          3D

 50 54  0  0  0  0  0  0  0  0999 V2000
  -28.3856   -6.2990  -10.3150 C   0  0  0  0  0  0  0  0  0  0  0  0
  -23.4932   -4.8213  -10.5121 C   0  0  0  0  0  0  0  0  0  0  0  0
  -23.1259   -5.9989  -10.4569 O   0  0  0  0  0  0  0  0  0  0  0  0
  -22.5478   -3.6965  -10.2223 C   0  0  0  0  0  0  0  0  0  0  0  0
  -21.6854   -1.5190  -10.5395 C   0  0  0  0  0  0  0  0  0  0  0  0
  -20.9466   -1.6029   -9.3777 C   0  0  0  0  0  0  0  0  0  0  0  0
  -21.0055   -2.7671   -8.6351 C   0  0  0  0  0  0  0  0  0  0  0  0
  -20.1775   -2.8842   -7.3882 C   0  0  0  0  0  0  0  0  0  0  0  0
  -20.7090   -2.8188   -5.0587 C   0  0  0  0  0  0  0  0  0  0  0  0
  -19.4194   -3.2529   -4.7561 C   0  0  0  0  0  0  0  0  0  0  0  0
  -19.0123   -3.0733   -3.4337 C   0  0  0  0  0  0  0  0  0  0  0  0
  -19.9395   -2.4707   -2.5187 C   0  0  0  0  0  0  0  0  0  0  0  0
  -18.0190   -2.8847   -1.3912 C   0  0  0  0  0  0  0  0  0  0  0  0
  -17.8082   -3.3285   -2.6892 C   0  0  0  0  0  0  0  0  0  0  0  0
  -21.5529   -2.2484   -4.0661 C   0  0  0  0  0  0  0  0  0  0  0  0
  -24.7945   -4.5269  -10.8339 N   0  0  0  0  0  0  0  0  0  0  0  0
  -25.6971   -5.6185  -11.0674 C   0  0  1  0  0  0  0  0  0  0  0  0
  -26.8965   -5.2783  -11.9714 C   0  0  1  0  0  0  0  0  0  0  0  0
  -25.8316   -6.2542  -12.4518 C   0  0  0  0  0  0  0  0  0  0  0  0
  -28.2274   -5.7545  -11.5749 C   0  0  0  0  0  0  0  0  0  0  0  0
  -29.3063   -5.6843  -12.4453 C   0  0  0  0  0  0  0  0  0  0  0  0
  -30.5392   -6.1770  -12.0434 C   0  0  0  0  0  0  0  0  0  0  0  0
  -30.7029   -6.7265  -10.7702 C   0  0  0  0  0  0  0  0  0  0  0  0
  -29.6184   -6.7820   -9.9056 C   0  0  0  0  0  0  0  0  0  0  0  0
  -22.4825   -2.5392  -11.0075 C   0  0  0  0  0  0  0  0  0  0  0  0
  -21.1466   -2.9649   -6.3537 O   0  0  0  0  0  0  0  0  0  0  0  0
  -19.3210   -2.3617   -1.2783 N   0  0  0  0  0  0  0  0  0  0  0  0
  -21.2075   -2.0606   -2.8126 N   0  0  0  0  0  0  0  0  0  0  0  0
  -21.8063   -3.8061   -9.0571 C   0  0  0  0  0  0  0  0  0  0  0  0
  -21.6067   -0.0326  -11.4189 Cl  0  0  0  0  0  0  0  0  0  0  0  0
  -27.5256   -6.3497   -9.6310 H   0  0  0  0  0  0  0  0  0  0  0  0
  -20.3223   -0.7592   -9.0484 H   0  0  0  0  0  0  0  0  0  0  0  0
  -19.5536   -3.7898   -7.4141 H   0  0  0  0  0  0  0  0  0  0  0  0
  -19.4793   -2.0444   -7.2569 H   0  0  0  0  0  0  0  0  0  0  0  0
  -18.7636   -3.7086   -5.5126 H   0  0  0  0  0  0  0  0  0  0  0  0
  -17.2820   -2.9340   -0.5761 H   0  0  0  0  0  0  0  0  0  0  0  0
  -16.8887   -3.7908   -3.0776 H   0  0  0  0  0  0  0  0  0  0  0  0
  -22.5653   -1.9431   -4.3691 H   0  0  0  0  0  0  0  0  0  0  0  0
  -25.1144   -3.5504  -10.9058 H   0  0  0  0  0  0  0  0  0  0  0  0
  -25.5183   -6.0434  -10.0686 H   0  0  0  0  0  0  0  0  0  0  0  0
  -27.3382   -4.3619  -12.3898 H   0  0  0  0  0  0  0  0  0  0  0  0
  -25.1437   -5.9615  -13.2587 H   0  0  0  0  0  0  0  0  0  0  0  0
  -25.8424   -7.2863  -12.8320 H   0  0  0  0  0  0  0  0  0  0  0  0
  -29.1848   -5.2418  -13.4450 H   0  0  0  0  0  0  0  0  0  0  0  0
  -31.3949   -6.1345  -12.7333 H   0  0  0  0  0  0  0  0  0  0  0  0
  -31.6835   -7.1124  -10.4548 H   0  0  0  0  0  0  0  0  0  0  0  0
  -29.7372   -7.2080   -8.8985 H   0  0  0  0  0  0  0  0  0  0  0  0
  -23.0402   -2.4496  -11.9514 H   0  0  0  0  0  0  0  0  0  0  0  0
  -19.7421   -1.9669   -0.4252 H   0  0  0  0  0  0  0  0  0  0  0  0
  -21.8573   -4.7308   -8.4635 H   0  0  0  0  0  0  0  0  0  0  0  0
  1 20  2  0
  1 24  1  0
  2  3  2  0
  2  4  1  0
  2 16  1  0
  4 25  2  0
  4 29  1  0
  5  6  2  0
  5 25  1  0
  5 30  1  0
  6  7  1  0
  7  8  1  0
  7 29  2  0
  8 26  1  0
  9 10  2  0
  9 15  1  0
  9 26  1  0
 10 11  1  0
 11 12  2  0
 11 14  1  0
 12 27  1  0
 12 28  1  0
 13 14  2  0
 13 27  1  0
 15 28  2  0
 17 16  1  0
 17 18  1  0
 17 19  1  0
 18 19  1  0
 18 20  1  0
 20 21  1  0
 21 22  2  0
 22 23  1  0
 23 24  2  0
  1 31  1  0
  6 32  1  0
  8 33  1  0
  8 34  1  0
 10 35  1  0
 13 36  1  0
 14 37  1  0
 15 38  1  0
 16 39  1  0
 17 40  1  1
 18 41  1  6
 19 42  1  0
 19 43  1  0
 21 44  1  0
 22 45  1  0
 23 46  1  0
 24 47  1  0
 25 48  1  0
 27 49  1  0
 29 50  1  0
M  END
>  <filename_input>  (21) 
5SB2_1K2_docked.sdf

>  <pdb_id>  (21) 
5SB2_1K2

>  <pose_rank>  (21) 
20

>  <num_atoms_heavy>  (21) 
30

>  <num_torsions>  (21) 
6

>  <pose>  (21) 
[-22.547800643776547, -3.6965269281432453, -10.222266608775154, -2.789291433678984, 0.38526704365087777, -1.6263525547416795, -1.083749099783608, 1.9866107856389017, 1.4061760858467909, 1.0955202640604802, 0.3112033061264081, -0.695472168635825]

>  <energy>  (21) 
-311.4417972076777

>  <inter_energy>  (21) 
-326.9149587214822

>  <intra_energy>  (21) 
1.568803243449743

>  <rmsd>  (21) 
9.72178

>  <sdf_rank>  (21) 
0

$$$$

     RDKit          3D

 50 54  0  0  0  0  0  0  0  0999 V2000
  -22.3749   -1.9084   -2.7661 C   0  0  0  0  0  0  0  0  0  0  0  0
  -19.8495   -1.5362   -7.7965 C   0  0  0  0  0  0  0  0  0  0  0  0
  -18.9913   -0.6728   -7.5900 O   0  0  0  0  0  0  0  0  0  0  0  0
  -20.3512   -1.8203   -9.1788 C   0  0  0  0  0  0  0  0  0  0  0  0
  -21.0837   -1.1941  -11.3369 C   0  0  0  0  0  0  0  0  0  0  0  0
  -20.9748   -2.4923  -11.7903 C   0  0  0  0  0  0  0  0  0  0  0  0
  -20.5568   -3.4714  -10.9088 C   0  0  0  0  0  0  0  0  0  0  0  0
  -20.4695   -4.8940  -11.3807 C   0  0  0  0  0  0  0  0  0  0  0  0
  -18.7016   -6.4487  -10.9677 C   0  0  0  0  0  0  0  0  0  0  0  0
  -17.3315   -6.2004  -10.9004 C   0  0  0  0  0  0  0  0  0  0  0  0
  -16.5059   -7.2080  -11.4002 C   0  0  0  0  0  0  0  0  0  0  0  0
  -17.1276   -8.3879  -11.9306 C   0  0  0  0  0  0  0  0  0  0  0  0
  -14.8835   -8.6575  -12.0786 C   0  0  0  0  0  0  0  0  0  0  0  0
  -15.0856   -7.4066  -11.5125 C   0  0  0  0  0  0  0  0  0  0  0  0
  -19.2118   -7.6506  -11.5314 C   0  0  0  0  0  0  0  0  0  0  0  0
  -20.3686   -2.2479   -6.7440 N   0  0  0  0  0  0  0  0  0  0  0  0
  -19.9068   -1.9333   -5.4216 C   0  0  1  0  0  0  0  0  0  0  0  0
  -20.6262   -2.6936   -4.2921 C   0  0  1  0  0  0  0  0  0  0  0  0
  -19.1558   -2.9640   -4.5777 C   0  0  0  0  0  0  0  0  0  0  0  0
  -21.0338   -1.9460   -3.0961 C   0  0  0  0  0  0  0  0  0  0  0  0
  -20.1044   -1.2699   -2.3179 C   0  0  0  0  0  0  0  0  0  0  0  0
  -20.5359   -0.5469   -1.2154 C   0  0  0  0  0  0  0  0  0  0  0  0
  -21.8904   -0.5082   -0.8781 C   0  0  0  0  0  0  0  0  0  0  0  0
  -22.8086   -1.1966   -1.6589 C   0  0  0  0  0  0  0  0  0  0  0  0
  -20.8006   -0.8154  -10.0440 C   0  0  0  0  0  0  0  0  0  0  0  0
  -19.5517   -5.4876  -10.4744 O   0  0  0  0  0  0  0  0  0  0  0  0
  -16.1273   -9.2625  -12.3400 N   0  0  0  0  0  0  0  0  0  0  0  0
  -18.4695   -8.6230  -12.0104 N   0  0  0  0  0  0  0  0  0  0  0  0
  -20.2441   -3.1324   -9.6103 C   0  0  0  0  0  0  0  0  0  0  0  0
  -21.5788    0.0026  -12.4821 Cl  0  0  0  0  0  0  0  0  0  0  0  0
  -23.1047   -2.4481   -3.3876 H   0  0  0  0  0  0  0  0  0  0  0  0
  -21.2162   -2.7436  -12.8336 H   0  0  0  0  0  0  0  0  0  0  0  0
  -21.4511   -5.3874  -11.3258 H   0  0  0  0  0  0  0  0  0  0  0  0
  -20.1512   -4.9787  -12.4302 H   0  0  0  0  0  0  0  0  0  0  0  0
  -16.9265   -5.2682  -10.4797 H   0  0  0  0  0  0  0  0  0  0  0  0
  -13.9021   -9.1071  -12.2905 H   0  0  0  0  0  0  0  0  0  0  0  0
  -14.3031   -6.6969  -11.2059 H   0  0  0  0  0  0  0  0  0  0  0  0
  -20.3042   -7.7747  -11.5691 H   0  0  0  0  0  0  0  0  0  0  0  0
  -21.0695   -2.9867   -6.8985 H   0  0  0  0  0  0  0  0  0  0  0  0
  -19.6832   -0.8916   -5.6952 H   0  0  0  0  0  0  0  0  0  0  0  0
  -21.5189   -3.3311   -4.2098 H   0  0  0  0  0  0  0  0  0  0  0  0
  -18.8512   -3.9218   -5.0249 H   0  0  0  0  0  0  0  0  0  0  0  0
  -18.2349   -2.9492   -3.9762 H   0  0  0  0  0  0  0  0  0  0  0  0
  -19.0351   -1.3070   -2.5732 H   0  0  0  0  0  0  0  0  0  0  0  0
  -19.8050    0.0003   -0.6018 H   0  0  0  0  0  0  0  0  0  0  0  0
  -22.2270    0.0634   -0.0007 H   0  0  0  0  0  0  0  0  0  0  0  0
  -23.8774   -1.1773   -1.3995 H   0  0  0  0  0  0  0  0  0  0  0  0
  -20.9214    0.2249   -9.7074 H   0  0  0  0  0  0  0  0  0  0  0  0
  -16.2713  -10.1913  -12.7612 H   0  0  0  0  0  0  0  0  0  0  0  0
  -19.9064   -3.9107   -8.9101 H   0  0  0  0  0  0  0  0  0  0  0  0
  1 20  2  0
  1 24  1  0
  2  3  2  0
  2  4  1  0
  2 16  1  0
  4 25  2  0
  4 29  1  0
  5  6  2  0
  5 25  1  0
  5 30  1  0
  6  7  1  0
  7  8  1  0
  7 29  2  0
  8 26  1  0
  9 10  2  0
  9 15  1  0
  9 26  1  0
 10 11  1  0
 11 12  2  0
 11 14  1  0
 12 27  1  0
 12 28  1  0
 13 14  2  0
 13 27  1  0
 15 28  2  0
 17 16  1  0
 17 18  1  0
 17 19  1  0
 18 19  1  0
 18 20  1  0
 20 21  1  0
 21 22  2  0
 22 23  1  0
 23 24  2  0
  1 31  1  0
  6 32  1  0
  8 33  1  0
  8 34  1  0
 10 35  1  0
 13 36  1  0
 14 37  1  0
 15 38  1  0
 16 39  1  0
 17 40  1  1
 18 41  1  6
 19 42  1  0
 19 43  1  0
 21 44  1  0
 22 45  1  0
 23 46  1  0
 24 47  1  0
 25 48  1  0
 27 49  1  0
 29 50  1  0
M  END
>  <filename_input>  (22) 
5SB2_1K2_docked.sdf

>  <pdb_id>  (22) 
5SB2_1K2

>  <pose_rank>  (22) 
21

>  <num_atoms_heavy>  (22) 
30

>  <num_torsions>  (22) 
6

>  <pose>  (22) 
[-20.351187330312396, -1.8202744958285109, -9.178785327818229, 1.3612608582916494, -0.8953107459085018, -1.3088920548500766, 1.942092508127414, 1.4647365169023123, -2.9562726436274693, 1.845236679810254, 0.7106254486771055, 1.918430855753902]

>  <energy>  (22) 
-294.02780403761466

>  <inter_energy>  (22) 
-281.1250240425741

>  <intra_energy>  (22) 
0.0

>  <rmsd>  (22) 
9.99685

>  <sdf_rank>  (22) 
0

$$$$

     RDKit          3D

 50 54  0  0  0  0  0  0  0  0999 V2000
  -18.5243   -1.9767   -1.7889 C   0  0  0  0  0  0  0  0  0  0  0  0
  -13.9338   -0.3731    0.8840 C   0  0  0  0  0  0  0  0  0  0  0  0
  -12.9973   -1.0003    0.3798 O   0  0  0  0  0  0  0  0  0  0  0  0
  -13.6921    0.7258    1.8724 C   0  0  0  0  0  0  0  0  0  0  0  0
  -12.7177    2.7579    2.5847 C   0  0  0  0  0  0  0  0  0  0  0  0
  -13.5763    2.8342    3.6617 C   0  0  0  0  0  0  0  0  0  0  0  0
  -14.5009    1.8239    3.8477 C   0  0  0  0  0  0  0  0  0  0  0  0
  -15.4161    1.8772    5.0366 C   0  0  0  0  0  0  0  0  0  0  0  0
  -17.2359    3.4214    5.1686 C   0  0  0  0  0  0  0  0  0  0  0  0
  -18.5822    3.2782    5.5006 C   0  0  0  0  0  0  0  0  0  0  0  0
  -19.1549    4.3470    6.1909 C   0  0  0  0  0  0  0  0  0  0  0  0
  -18.3243    5.4783    6.4912 C   0  0  0  0  0  0  0  0  0  0  0  0
  -20.3796    5.8747    7.3570 C   0  0  0  0  0  0  0  0  0  0  0  0
  -20.4509    4.6301    6.7472 C   0  0  0  0  0  0  0  0  0  0  0  0
  -16.5096    4.5978    5.5022 C   0  0  0  0  0  0  0  0  0  0  0  0
  -15.2263   -0.6887    0.5470 N   0  0  0  0  0  0  0  0  0  0  0  0
  -15.4409   -1.7724   -0.3697 C   0  0  1  0  0  0  0  0  0  0  0  0
  -16.1515   -1.3767   -1.6773 C   0  0  1  0  0  0  0  0  0  0  0  0
  -14.7014   -1.8386   -1.7067 C   0  0  0  0  0  0  0  0  0  0  0  0
  -17.2258   -2.2428   -2.1784 C   0  0  0  0  0  0  0  0  0  0  0  0
  -16.9533   -3.3215   -3.0084 C   0  0  0  0  0  0  0  0  0  0  0  0
  -17.9937   -4.1355   -3.4316 C   0  0  0  0  0  0  0  0  0  0  0  0
  -19.3075   -3.8683   -3.0412 C   0  0  0  0  0  0  0  0  0  0  0  0
  -19.5680   -2.7809   -2.2189 C   0  0  0  0  0  0  0  0  0  0  0  0
  -12.7271    1.7215    1.6786 C   0  0  0  0  0  0  0  0  0  0  0  0
  -16.6277    2.3862    4.4990 O   0  0  0  0  0  0  0  0  0  0  0  0
  -19.0834    6.4012    7.2021 N   0  0  0  0  0  0  0  0  0  0  0  0
  -17.0106    5.6240    6.1518 N   0  0  0  0  0  0  0  0  0  0  0  0
  -14.5577    0.7774    2.9529 C   0  0  0  0  0  0  0  0  0  0  0  0
  -11.6000    4.0596    2.3730 Cl  0  0  0  0  0  0  0  0  0  0  0  0
  -18.7317   -1.1191   -1.1319 H   0  0  0  0  0  0  0  0  0  0  0  0
  -13.5260    3.6833    4.3593 H   0  0  0  0  0  0  0  0  0  0  0  0
  -15.5657    0.8743    5.4630 H   0  0  0  0  0  0  0  0  0  0  0  0
  -15.0185    2.4937    5.8563 H   0  0  0  0  0  0  0  0  0  0  0  0
  -19.1571    2.3789    5.2349 H   0  0  0  0  0  0  0  0  0  0  0  0
  -21.2086    6.3732    7.8808 H   0  0  0  0  0  0  0  0  0  0  0  0
  -21.3364    3.9792    6.6982 H   0  0  0  0  0  0  0  0  0  0  0  0
  -15.4548    4.6524    5.1947 H   0  0  0  0  0  0  0  0  0  0  0  0
  -16.0197   -0.1629    0.9407 H   0  0  0  0  0  0  0  0  0  0  0  0
  -15.5698   -2.5001    0.4451 H   0  0  0  0  0  0  0  0  0  0  0  0
  -16.6786   -0.4880   -2.0547 H   0  0  0  0  0  0  0  0  0  0  0  0
  -13.9006   -1.1172   -1.9266 H   0  0  0  0  0  0  0  0  0  0  0  0
  -14.1488   -2.6207   -2.2479 H   0  0  0  0  0  0  0  0  0  0  0  0
  -15.9213   -3.5289   -3.3277 H   0  0  0  0  0  0  0  0  0  0  0  0
  -17.7821   -4.9985   -4.0801 H   0  0  0  0  0  0  0  0  0  0  0  0
  -20.1296   -4.5146   -3.3826 H   0  0  0  0  0  0  0  0  0  0  0  0
  -20.5997   -2.5580   -1.9093 H   0  0  0  0  0  0  0  0  0  0  0  0
  -12.0120    1.6779    0.8438 H   0  0  0  0  0  0  0  0  0  0  0  0
  -18.7544    7.3115    7.5541 H   0  0  0  0  0  0  0  0  0  0  0  0
  -15.2969   -0.0242    3.0979 H   0  0  0  0  0  0  0  0  0  0  0  0
  1 20  2  0
  1 24  1  0
  2  3  2  0
  2  4  1  0
  2 16  1  0
  4 25  2  0
  4 29  1  0
  5  6  2  0
  5 25  1  0
  5 30  1  0
  6  7  1  0
  7  8  1  0
  7 29  2  0
  8 26  1  0
  9 10  2  0
  9 15  1  0
  9 26  1  0
 10 11  1  0
 11 12  2  0
 11 14  1  0
 12 27  1  0
 12 28  1  0
 13 14  2  0
 13 27  1  0
 15 28  2  0
 17 16  1  0
 17 18  1  0
 17 19  1  0
 18 19  1  0
 18 20  1  0
 20 21  1  0
 21 22  2  0
 22 23  1  0
 23 24  2  0
  1 31  1  0
  6 32  1  0
  8 33  1  0
  8 34  1  0
 10 35  1  0
 13 36  1  0
 14 37  1  0
 15 38  1  0
 16 39  1  0
 17 40  1  1
 18 41  1  1
 19 42  1  0
 19 43  1  0
 21 44  1  0
 22 45  1  0
 23 46  1  0
 24 47  1  0
 25 48  1  0
 27 49  1  0
 29 50  1  0
M  END
>  <filename_input>  (23) 
5SB2_1K2_docked.sdf

>  <pdb_id>  (23) 
5SB2_1K2

>  <pose_rank>  (23) 
22

>  <num_atoms_heavy>  (23) 
30

>  <num_torsions>  (23) 
6

>  <pose>  (23) 
[-13.69208045936437, 0.7257881452775179, 1.8724138232423402, -1.2864569311893246, 0.5415115959930381, -2.9486478648146894, -2.658848671584087, 2.6179012600224043, 2.822325227956224, 0.834955272732507, 0.9357953793079892, -2.383941129685773]

>  <energy>  (23) 
-266.7289676590507

>  <inter_energy>  (23) 
-294.548376626213

>  <intra_energy>  (23) 
18.19250152048803

>  <rmsd>  (23) 
11.8581

>  <sdf_rank>  (23) 
0

$$$$

     RDKit          3D

 50 54  0  0  0  0  0  0  0  0999 V2000
  -22.4983   -0.8812   -2.6164 C   0  0  0  0  0  0  0  0  0  0  0  0
  -20.4717   -2.9879   -7.1629 C   0  0  0  0  0  0  0  0  0  0  0  0
  -19.9980   -4.0018   -6.6410 O   0  0  0  0  0  0  0  0  0  0  0  0
  -20.8977   -2.9779   -8.5986 C   0  0  0  0  0  0  0  0  0  0  0  0
  -20.4989   -2.8770  -10.9260 C   0  0  0  0  0  0  0  0  0  0  0  0
  -21.7886   -3.2813  -11.2015 C   0  0  0  0  0  0  0  0  0  0  0  0
  -22.6485   -3.5245  -10.1471 C   0  0  0  0  0  0  0  0  0  0  0  0
  -24.0652   -3.9295  -10.4347 C   0  0  0  0  0  0  0  0  0  0  0  0
  -24.5882   -6.1950  -10.9891 C   0  0  0  0  0  0  0  0  0  0  0  0
  -25.4699   -6.1578   -9.9099 C   0  0  0  0  0  0  0  0  0  0  0  0
  -26.1345   -7.3515   -9.6267 C   0  0  0  0  0  0  0  0  0  0  0  0
  -25.8564   -8.4908  -10.4541 C   0  0  0  0  0  0  0  0  0  0  0  0
  -27.4135   -9.1032   -8.9273 C   0  0  0  0  0  0  0  0  0  0  0  0
  -27.1197   -7.7721   -8.6667 C   0  0  0  0  0  0  0  0  0  0  0  0
  -24.3752   -7.3880  -11.7334 C   0  0  0  0  0  0  0  0  0  0  0  0
  -20.6046   -1.8389   -6.4242 N   0  0  0  0  0  0  0  0  0  0  0  0
  -20.1523   -1.8544   -5.0619 C   0  0  1  0  0  0  0  0  0  0  0  0
  -21.1868   -2.3762   -4.0474 C   0  0  1  0  0  0  0  0  0  0  0  0
  -19.9170   -3.1705   -4.3193 C   0  0  0  0  0  0  0  0  0  0  0  0
  -21.3592   -1.6444   -2.7864 C   0  0  0  0  0  0  0  0  0  0  0  0
  -20.3962   -1.6929   -1.7880 C   0  0  0  0  0  0  0  0  0  0  0  0
  -20.5822   -0.9590   -0.6257 C   0  0  0  0  0  0  0  0  0  0  0  0
  -21.7330   -0.1879   -0.4499 C   0  0  0  0  0  0  0  0  0  0  0  0
  -22.6931   -0.1556   -1.4518 C   0  0  0  0  0  0  0  0  0  0  0  0
  -20.0161   -2.6970   -9.6494 C   0  0  0  0  0  0  0  0  0  0  0  0
  -23.9214   -5.0370  -11.3116 O   0  0  0  0  0  0  0  0  0  0  0  0
  -26.6428   -9.5507  -10.0168 N   0  0  0  0  0  0  0  0  0  0  0  0
  -24.9813   -8.5301  -11.5005 N   0  0  0  0  0  0  0  0  0  0  0  0
  -22.2004   -3.3755   -8.8525 C   0  0  0  0  0  0  0  0  0  0  0  0
  -19.4490   -2.6158  -12.2745 Cl  0  0  0  0  0  0  0  0  0  0  0  0
  -23.2571   -0.8493   -3.4121 H   0  0  0  0  0  0  0  0  0  0  0  0
  -22.1263   -3.4077  -12.2406 H   0  0  0  0  0  0  0  0  0  0  0  0
  -24.5853   -4.2240   -9.5113 H   0  0  0  0  0  0  0  0  0  0  0  0
  -24.6644   -3.1150  -10.8678 H   0  0  0  0  0  0  0  0  0  0  0  0
  -25.6314   -5.2445   -9.3185 H   0  0  0  0  0  0  0  0  0  0  0  0
  -28.1373   -9.7146   -8.3684 H   0  0  0  0  0  0  0  0  0  0  0  0
  -27.5597   -7.1522   -7.8716 H   0  0  0  0  0  0  0  0  0  0  0  0
  -23.6525   -7.3520  -12.5619 H   0  0  0  0  0  0  0  0  0  0  0  0
  -21.0172   -0.9895   -6.8357 H   0  0  0  0  0  0  0  0  0  0  0  0
  -19.5266   -0.9617   -5.2086 H   0  0  0  0  0  0  0  0  0  0  0  0
  -22.2593   -2.6199   -4.0640 H   0  0  0  0  0  0  0  0  0  0  0  0
  -19.9732   -4.1247   -4.8635 H   0  0  0  0  0  0  0  0  0  0  0  0
  -19.1063   -3.5722   -3.6937 H   0  0  0  0  0  0  0  0  0  0  0  0
  -19.4935   -2.3080   -1.9173 H   0  0  0  0  0  0  0  0  0  0  0  0
  -19.8168   -0.9846    0.1640 H   0  0  0  0  0  0  0  0  0  0  0  0
  -21.8776    0.3893    0.4752 H   0  0  0  0  0  0  0  0  0  0  0  0
  -23.6059    0.4443   -1.3219 H   0  0  0  0  0  0  0  0  0  0  0  0
  -18.9889   -2.3497   -9.4642 H   0  0  0  0  0  0  0  0  0  0  0  0
  -26.6586  -10.4984  -10.4200 H   0  0  0  0  0  0  0  0  0  0  0  0
  -22.8831   -3.5740   -8.0132 H   0  0  0  0  0  0  0  0  0  0  0  0
  1 20  2  0
  1 24  1  0
  2  3  2  0
  2  4  1  0
  2 16  1  0
  4 25  2  0
  4 29  1  0
  5  6  2  0
  5 25  1  0
  5 30  1  0
  6  7  1  0
  7  8  1  0
  7 29  2  0
  8 26  1  0
  9 10  2  0
  9 15  1  0
  9 26  1  0
 10 11  1  0
 11 12  2  0
 11 14  1  0
 12 27  1  0
 12 28  1  0
 13 14  2  0
 13 27  1  0
 15 28  2  0
 17 16  1  0
 17 18  1  0
 17 19  1  0
 18 19  1  0
 18 20  1  0
 20 21  1  0
 21 22  2  0
 22 23  1  0
 23 24  2  0
  1 31  1  0
  6 32  1  0
  8 33  1  0
  8 34  1  0
 10 35  1  0
 13 36  1  0
 14 37  1  0
 15 38  1  0
 16 39  1  0
 17 40  1  1
 18 41  1  6
 19 42  1  0
 19 43  1  0
 21 44  1  0
 22 45  1  0
 23 46  1  0
 24 47  1  0
 25 48  1  0
 27 49  1  0
 29 50  1  0
M  END
>  <filename_input>  (24) 
5SB2_1K2_docked.sdf

>  <pdb_id>  (24) 
5SB2_1K2

>  <pose_rank>  (24) 
23

>  <num_atoms_heavy>  (24) 
30

>  <num_torsions>  (24) 
6

>  <pose>  (24) 
[-20.89772427758902, -2.9778938062125193, -8.59863048109733, -0.515289700933923, 2.4848979898213615, 2.0767162859587427, 1.3096573780955216, -3.085196153481827, -3.1929608967643777, 0.018585812336955693, -0.8112264555009602, -0.0333006937231217]

>  <energy>  (24) 
-302.21636075982025

>  <inter_energy>  (24) 
-315.59430029611224

>  <intra_energy>  (24) 
41.48471648467095

>  <rmsd>  (24) 
10.7779

>  <sdf_rank>  (24) 
0

$$$$

     RDKit          3D

 50 54  0  0  0  0  0  0  0  0999 V2000
  -26.5191    1.9343   -3.3029 C   0  0  0  0  0  0  0  0  0  0  0  0
  -21.0527    1.0177   -2.4376 C   0  0  0  0  0  0  0  0  0  0  0  0
  -20.5681    1.9073   -3.1434 O   0  0  0  0  0  0  0  0  0  0  0  0
  -20.2889   -0.2327   -2.1273 C   0  0  0  0  0  0  0  0  0  0  0  0
  -19.9914   -2.5769   -2.0810 C   0  0  0  0  0  0  0  0  0  0  0  0
  -18.6509   -2.4376   -1.7872 C   0  0  0  0  0  0  0  0  0  0  0  0
  -18.1293   -1.1651   -1.6495 C   0  0  0  0  0  0  0  0  0  0  0  0
  -16.6800   -1.0012   -1.2937 C   0  0  0  0  0  0  0  0  0  0  0  0
  -15.2485   -2.4477   -0.0400 C   0  0  0  0  0  0  0  0  0  0  0  0
  -14.8550   -2.7693    1.2581 C   0  0  0  0  0  0  0  0  0  0  0  0
  -13.5833   -3.3287    1.3867 C   0  0  0  0  0  0  0  0  0  0  0  0
  -12.8065   -3.5187    0.1948 C   0  0  0  0  0  0  0  0  0  0  0  0
  -11.5982   -4.2994    1.9445 C   0  0  0  0  0  0  0  0  0  0  0  0
  -12.7896   -3.8276    2.4777 C   0  0  0  0  0  0  0  0  0  0  0  0
  -14.3884   -2.6639   -1.1520 C   0  0  0  0  0  0  0  0  0  0  0  0
  -22.3201    1.1628   -1.9312 N   0  0  0  0  0  0  0  0  0  0  0  0
  -23.0534    2.3485   -2.2733 C   0  0  1  0  0  0  0  0  0  0  0  0
  -24.5467    2.3108   -1.8990 C   0  0  1  0  0  0  0  0  0  0  0  0
  -23.6074    3.2780   -1.1926 C   0  0  0  0  0  0  0  0  0  0  0  0
  -25.5253    2.7959   -2.8801 C   0  0  0  0  0  0  0  0  0  0  0  0
  -25.4516    4.0827   -3.3950 C   0  0  0  0  0  0  0  0  0  0  0  0
  -26.3758    4.4901   -4.3460 C   0  0  0  0  0  0  0  0  0  0  0  0
  -27.3825    3.6223   -4.7744 C   0  0  0  0  0  0  0  0  0  0  0  0
  -27.4511    2.3413   -4.2444 C   0  0  0  0  0  0  0  0  0  0  0  0
  -20.8478   -1.5112   -2.2428 C   0  0  0  0  0  0  0  0  0  0  0  0
  -16.4998   -1.9059   -0.2144 O   0  0  0  0  0  0  0  0  0  0  0  0
  -11.5998   -4.1111    0.5495 N   0  0  0  0  0  0  0  0  0  0  0  0
  -13.1866   -3.1888   -1.0737 N   0  0  0  0  0  0  0  0  0  0  0  0
  -18.9472   -0.0697   -1.8228 C   0  0  0  0  0  0  0  0  0  0  0  0
  -20.5933   -4.1858   -2.2761 Cl  0  0  0  0  0  0  0  0  0  0  0  0
  -26.5710    0.9166   -2.8888 H   0  0  0  0  0  0  0  0  0  0  0  0
  -18.0091   -3.3225   -1.6648 H   0  0  0  0  0  0  0  0  0  0  0  0
  -16.0339   -1.2685   -2.1430 H   0  0  0  0  0  0  0  0  0  0  0  0
  -16.4170    0.0347   -1.0333 H   0  0  0  0  0  0  0  0  0  0  0  0
  -15.5064   -2.5931    2.1267 H   0  0  0  0  0  0  0  0  0  0  0  0
  -10.7788   -4.7509    2.5230 H   0  0  0  0  0  0  0  0  0  0  0  0
  -13.0747   -3.8341    3.5401 H   0  0  0  0  0  0  0  0  0  0  0  0
  -14.7551   -2.3712   -2.1469 H   0  0  0  0  0  0  0  0  0  0  0  0
  -22.7333    0.4414   -1.3231 H   0  0  0  0  0  0  0  0  0  0  0  0
  -22.4367    2.5309   -3.1657 H   0  0  0  0  0  0  0  0  0  0  0  0
  -25.2577    1.5457   -1.5536 H   0  0  0  0  0  0  0  0  0  0  0  0
  -23.3415    3.1124   -0.1381 H   0  0  0  0  0  0  0  0  0  0  0  0
  -23.5971    4.3654   -1.0270 H   0  0  0  0  0  0  0  0  0  0  0  0
  -24.6673    4.7735   -3.0521 H   0  0  0  0  0  0  0  0  0  0  0  0
  -26.3151    5.5049   -4.7660 H   0  0  0  0  0  0  0  0  0  0  0  0
  -28.1152    3.9514   -5.5259 H   0  0  0  0  0  0  0  0  0  0  0  0
  -28.2431    1.6512   -4.5708 H   0  0  0  0  0  0  0  0  0  0  0  0
  -21.9177   -1.6569   -2.4525 H   0  0  0  0  0  0  0  0  0  0  0  0
  -10.8393   -4.3675   -0.0961 H   0  0  0  0  0  0  0  0  0  0  0  0
  -18.5311    0.9432   -1.7183 H   0  0  0  0  0  0  0  0  0  0  0  0
  1 20  2  0
  1 24  1  0
  2  3  2  0
  2  4  1  0
  2 16  1  0
  4 25  2  0
  4 29  1  0
  5  6  2  0
  5 25  1  0
  5 30  1  0
  6  7  1  0
  7  8  1  0
  7 29  2  0
  8 26  1  0
  9 10  2  0
  9 15  1  0
  9 26  1  0
 10 11  1  0
 11 12  2  0
 11 14  1  0
 12 27  1  0
 12 28  1  0
 13 14  2  0
 13 27  1  0
 15 28  2  0
 17 16  1  0
 17 18  1  0
 17 19  1  0
 18 19  1  0
 18 20  1  0
 20 21  1  0
 21 22  2  0
 22 23  1  0
 23 24  2  0
  1 31  1  0
  6 32  1  0
  8 33  1  0
  8 34  1  0
 10 35  1  0
 13 36  1  0
 14 37  1  0
 15 38  1  0
 16 39  1  0
 17 40  1  6
 18 41  1  1
 19 42  1  0
 19 43  1  0
 21 44  1  0
 22 45  1  0
 23 46  1  0
 24 47  1  0
 25 48  1  0
 27 49  1  0
 29 50  1  0
M  END
>  <filename_input>  (25) 
5SB2_1K2_docked.sdf

>  <pdb_id>  (25) 
5SB2_1K2

>  <pose_rank>  (25) 
24

>  <num_atoms_heavy>  (25) 
30

>  <num_torsions>  (25) 
6

>  <pose>  (25) 
[-20.288923674114322, -0.23267199365077232, -2.1272583195239614, -3.0080373250382517, 3.0801556661554677, -4.1210571249123795, -5.774049884931629, -4.929707607105265, -2.9212074872449385, -1.7296017184106938, -0.4024416994788498, -3.8280660099631256]

>  <energy>  (25) 
-307.69146215228216

>  <inter_energy>  (25) 
-298.13107502281076

>  <intra_energy>  (25) 
0.0

>  <rmsd>  (25) 
4.08651

>  <sdf_rank>  (25) 
0

$$$$

     RDKit          3D

 50 54  0  0  0  0  0  0  0  0999 V2000
  -27.1930    5.6030   -4.1930 C   0  0  0  0  0  0  0  0  0  0  0  0
  -24.6670    1.6820   -1.8600 C   0  0  0  0  0  0  0  0  0  0  0  0
  -23.9290    2.5450   -2.3450 O   0  0  0  0  0  0  0  0  0  0  0  0
  -24.1340    0.3450   -1.4460 C   0  0  0  0  0  0  0  0  0  0  0  0
  -24.3230   -1.9730   -1.0250 C   0  0  0  0  0  0  0  0  0  0  0  0
  -22.9520   -2.1100   -0.9600 C   0  0  0  0  0  0  0  0  0  0  0  0
  -22.1630   -0.9880   -1.1300 C   0  0  0  0  0  0  0  0  0  0  0  0
  -20.6710   -1.1180   -1.0250 C   0  0  0  0  0  0  0  0  0  0  0  0
  -19.0420   -2.4740   -2.1300 C   0  0  0  0  0  0  0  0  0  0  0  0
  -18.0980   -1.8370   -1.3260 C   0  0  0  0  0  0  0  0  0  0  0  0
  -16.7660   -2.1730   -1.5700 C   0  0  0  0  0  0  0  0  0  0  0  0
  -16.4900   -3.1250   -2.6080 C   0  0  0  0  0  0  0  0  0  0  0  0
  -14.5170   -2.5280   -1.6690 C   0  0  0  0  0  0  0  0  0  0  0  0
  -15.4970   -1.8100   -0.9980 C   0  0  0  0  0  0  0  0  0  0  0  0
  -18.6550   -3.3920   -3.1450 C   0  0  0  0  0  0  0  0  0  0  0  0
  -26.0060    1.9390   -1.7030 N   0  0  0  0  0  0  0  0  0  0  0  0
  -26.5070    3.2100   -2.1440 C   0  0  1  0  0  0  0  0  0  0  0  0
  -27.0080    3.2330   -3.6000 C   0  0  1  0  0  0  0  0  0  0  0  0
  -27.9910    3.4140   -2.4520 C   0  0  0  0  0  0  0  0  0  0  0  0
  -26.6300    4.3680   -4.4510 C   0  0  0  0  0  0  0  0  0  0  0  0
  -25.7440    4.2120   -5.5080 C   0  0  0  0  0  0  0  0  0  0  0  0
  -25.4400    5.3030   -6.3090 C   0  0  0  0  0  0  0  0  0  0  0  0
  -26.0060    6.5530   -6.0500 C   0  0  0  0  0  0  0  0  0  0  0  0
  -26.8830    6.6980   -4.9840 C   0  0  0  0  0  0  0  0  0  0  0  0
  -24.9560   -0.7710   -1.2480 C   0  0  0  0  0  0  0  0  0  0  0  0
  -20.3680   -2.1820   -1.9150 O   0  0  0  0  0  0  0  0  0  0  0  0
  -15.1160   -3.3320   -2.6570 N   0  0  0  0  0  0  0  0  0  0  0  0
  -17.4140   -3.7360   -3.4050 N   0  0  0  0  0  0  0  0  0  0  0  0
  -22.7550    0.2320   -1.3750 C   0  0  0  0  0  0  0  0  0  0  0  0
  -25.2690   -3.4080   -0.8390 Cl  0  0  0  0  0  0  0  0  0  0  0  0
  -27.8933    5.7182   -3.3526 H   0  0  0  0  0  0  0  0  0  0  0  0
  -22.4952   -3.0937   -0.7763 H   0  0  0  0  0  0  0  0  0  0  0  0
  -20.1723   -0.1890   -1.3384 H   0  0  0  0  0  0  0  0  0  0  0  0
  -20.3286   -1.3083    0.0029 H   0  0  0  0  0  0  0  0  0  0  0  0
  -18.3853   -1.1146   -0.5478 H   0  0  0  0  0  0  0  0  0  0  0  0
  -13.4381   -2.4767   -1.4608 H   0  0  0  0  0  0  0  0  0  0  0  0
  -15.3333   -1.0944   -0.1788 H   0  0  0  0  0  0  0  0  0  0  0  0
  -19.4502   -3.8456   -3.7549 H   0  0  0  0  0  0  0  0  0  0  0  0
  -26.6336    1.2399   -1.2808 H   0  0  0  0  0  0  0  0  0  0  0  0
  -25.7959    3.7636   -1.5133 H   0  0  0  0  0  0  0  0  0  0  0  0
  -26.9593    2.5555   -4.4652 H   0  0  0  0  0  0  0  0  0  0  0  0
  -28.7138    2.6184   -2.2185 H   0  0  0  0  0  0  0  0  0  0  0  0
  -28.7393    4.1752   -2.1863 H   0  0  0  0  0  0  0  0  0  0  0  0
  -25.2869    3.2318   -5.7087 H   0  0  0  0  0  0  0  0  0  0  0  0
  -24.7475    5.1825   -7.1551 H   0  0  0  0  0  0  0  0  0  0  0  0
  -25.7588    7.4159   -6.6858 H   0  0  0  0  0  0  0  0  0  0  0  0
  -27.3307    7.6792   -4.7676 H   0  0  0  0  0  0  0  0  0  0  0  0
  -26.0529   -0.6913   -1.2696 H   0  0  0  0  0  0  0  0  0  0  0  0
  -14.6224   -3.9637   -3.3037 H   0  0  0  0  0  0  0  0  0  0  0  0
  -22.1271    1.1242   -1.5155 H   0  0  0  0  0  0  0  0  0  0  0  0
  1 20  2  0
  1 24  1  0
  2  3  2  0
  2  4  1  0
  2 16  1  0
  4 25  2  0
  4 29  1  0
  5  6  2  0
  5 25  1  0
  5 30  1  0
  6  7  1  0
  7  8  1  0
  7 29  2  0
  8 26  1  0
  9 10  2  0
  9 15  1  0
  9 26  1  0
 10 11  1  0
 11 12  2  0
 11 14  1  0
 12 27  1  0
 12 28  1  0
 13 14  2  0
 13 27  1  0
 15 28  2  0
 17 16  1  0
 17 18  1  0
 17 19  1  0
 18 19  1  0
 18 20  1  0
 20 21  1  0
 21 22  2  0
 22 23  1  0
 23 24  2  0
  1 31  1  0
  6 32  1  0
  8 33  1  0
  8 34  1  0
 10 35  1  0
 13 36  1  0
 14 37  1  0
 15 38  1  0
 16 39  1  0
 17 40  1  6
 18 41  1  6
 19 42  1  0
 19 43  1  0
 21 44  1  0
 22 45  1  0
 23 46  1  0
 24 47  1  0
 25 48  1  0
 27 49  1  0
 29 50  1  0
M  END
>  <filename_input>  (26) 
5SB2_1K2_docked.sdf

>  <pdb_id>  (26) 
5SB2_1K2

>  <pose_rank>  (26) 
25

>  <num_atoms_heavy>  (26) 
30

>  <num_torsions>  (26) 
6

>  <pose>  (26) 
[-24.134, 0.345, -1.446, 1e-06, 1e-06, 1e-06, 0.0, 0.0, 0.0, 0.0, 0.0, 0.0]

>  <energy>  (26) 
-1788.9169989004147

>  <inter_energy>  (26) 
-1811.022585717885

>  <intra_energy>  (26) 
1.2560720522744333

>  <rmsd>  (26) 
0.0

>  <sdf_rank>  (26) 
0

$$$$
