
     RDKit          3D

 55 57  0  0  0  0  0  0  0  0999 V2000
    8.6116    3.8464   14.4107 C   0  0  0  0  0  0  0  0  0  0  0  0
    8.4120    0.4571   14.7020 C   0  0  0  0  0  0  0  0  0  0  0  0
    6.0361   -0.8033   15.3707 C   0  0  0  0  0  0  0  0  0  0  0  0
    3.7917   -0.6688   16.1372 C   0  0  0  0  0  0  0  0  0  0  0  0
    3.4260   -0.0748   14.9380 C   0  0  0  0  0  0  0  0  0  0  0  0
    4.3571    0.1815   13.9439 C   0  0  0  0  0  0  0  0  0  0  0  0
    3.2042    0.0636   11.6614 C   0  0  0  0  0  0  0  0  0  0  0  0
    9.4014    1.5644   14.3483 C   0  0  0  0  0  0  0  0  0  0  0  0
    8.0056   -0.3012   13.4480 C   0  0  0  0  0  0  0  0  0  0  0  0
    5.6810   -0.2074   14.1808 C   0  0  0  0  0  0  0  0  0  0  0  0
    5.0979   -1.0445   16.3761 C   0  0  0  0  0  0  0  0  0  0  0  0
    5.4990   -1.7101   17.6823 C   0  0  0  0  0  0  0  0  0  0  0  0
    5.1522    3.8558   15.0702 C   0  0  0  0  0  0  0  0  0  0  0  0
    6.4683    3.2471   15.6085 C   0  0  0  0  0  0  0  0  0  0  0  0
    7.6340    4.1585   15.3034 C   0  0  0  0  0  0  0  0  0  0  0  0
    8.6408    6.1888   15.7074 C   0  0  0  0  0  0  0  0  0  0  0  0
    9.6599    4.7886   14.2008 C   0  0  0  0  0  0  0  0  0  0  0  0
    2.4026    1.3680   11.4554 C   0  0  1  0  0  0  0  0  0  0  0  0
    3.3122    2.0375   12.5403 C   0  0  0  0  0  0  0  0  0  0  0  0
    2.6059    2.0440   10.0658 C   0  0  0  0  0  0  0  0  0  0  0  0
    7.6535    5.3368   15.9617 N   0  0  0  0  0  0  0  0  0  0  0  0
    8.6086    7.3689   16.3776 N   0  0  0  0  0  0  0  0  0  0  0  0
    9.6496    5.9578   14.8681 N   0  0  0  0  0  0  0  0  0  0  0  0
   10.6603    4.5559   13.3614 N   0  0  0  0  0  0  0  0  0  0  0  0
    4.0115    0.7430   12.7336 N   0  0  0  0  0  0  0  0  0  0  0  0
    8.6183    2.6288   13.7435 O   0  0  0  0  0  0  0  0  0  0  0  0
    6.6149    0.0655   13.1941 O   0  0  0  0  0  0  0  0  0  0  0  0
    2.5155    1.3162    9.0622 O   0  0  0  0  0  0  0  0  0  0  0  0
    2.8697    3.2885   10.0554 O   0  0  0  0  0  0  0  0  0  0  0  0
    8.8835   -0.2391   15.4113 H   0  0  0  0  0  0  0  0  0  0  0  0
    7.5168    0.9061   15.1569 H   0  0  0  0  0  0  0  0  0  0  0  0
    7.0839   -1.0961   15.5328 H   0  0  0  0  0  0  0  0  0  0  0  0
    3.0285   -0.8429   16.9098 H   0  0  0  0  0  0  0  0  0  0  0  0
    2.3735    0.1988   14.7725 H   0  0  0  0  0  0  0  0  0  0  0  0
    2.6016   -0.7840   12.0198 H   0  0  0  0  0  0  0  0  0  0  0  0
    3.7011   -0.4291   10.8127 H   0  0  0  0  0  0  0  0  0  0  0  0
    9.9053    1.9297   15.2553 H   0  0  0  0  0  0  0  0  0  0  0  0
   10.1817    1.2015   13.6632 H   0  0  0  0  0  0  0  0  0  0  0  0
    8.6405   -0.0064   12.5995 H   0  0  0  0  0  0  0  0  0  0  0  0
    8.1207   -1.3876   13.5768 H   0  0  0  0  0  0  0  0  0  0  0  0
    5.1357   -1.1073   18.5277 H   0  0  0  0  0  0  0  0  0  0  0  0
    5.0566   -2.7159   17.7323 H   0  0  0  0  0  0  0  0  0  0  0  0
    6.5951   -1.7886   17.7323 H   0  0  0  0  0  0  0  0  0  0  0  0
    4.5126    4.1516   15.9149 H   0  0  0  0  0  0  0  0  0  0  0  0
    5.3810    4.7395   14.4565 H   0  0  0  0  0  0  0  0  0  0  0  0
    4.6270    3.1092   14.4565 H   0  0  0  0  0  0  0  0  0  0  0  0
    6.3874    3.1144   16.6975 H   0  0  0  0  0  0  0  0  0  0  0  0
    6.6377    2.2758   15.1208 H   0  0  0  0  0  0  0  0  0  0  0  0
    1.3042    1.3529   11.5138 H   0  0  0  0  0  0  0  0  0  0  0  0
    3.9540    2.8438   12.1557 H   0  0  0  0  0  0  0  0  0  0  0  0
    2.8681    2.5686   13.3951 H   0  0  0  0  0  0  0  0  0  0  0  0
    9.3472    8.0697   16.2221 H   0  0  0  0  0  0  0  0  0  0  0  0
    7.8456    7.5634   17.0415 H   0  0  0  0  0  0  0  0  0  0  0  0
   11.4011    5.2604   13.2351 H   0  0  0  0  0  0  0  0  0  0  0  0
   10.6964    3.6707   12.8361 H   0  0  0  0  0  0  0  0  0  0  0  0
  1 15  2  0
  1 17  1  0
  1 26  1  0
  2  8  1  0
  2  9  1  0
  3 10  2  0
  3 11  1  0
  4  5  1  0
  4 11  2  0
  5  6  2  0
  6 10  1  0
  6 25  1  0
  7 18  1  0
  7 25  1  0
  8 26  1  0
  9 27  1  0
 10 27  1  0
 11 12  1  0
 13 14  1  0
 14 15  1  0
 15 21  1  0
 16 21  2  0
 16 22  1  0
 16 23  1  0
 17 23  2  0
 17 24  1  0
 18 19  1  0
 18 20  1  0
 19 25  1  0
 20 28  2  0
 20 29  1  0
  2 30  1  0
  2 31  1  0
  3 32  1  0
  4 33  1  0
  5 34  1  0
  7 35  1  0
  7 36  1  0
  8 37  1  0
  8 38  1  0
  9 39  1  0
  9 40  1  0
 12 41  1  0
 12 42  1  0
 12 43  1  0
 13 44  1  0
 13 45  1  0
 13 46  1  0
 14 47  1  0
 14 48  1  0
 18 49  1  1
 19 50  1  0
 19 51  1  0
 22 52  1  0
 22 53  1  0
 24 54  1  0
 24 55  1  0
M  CHG  1  29  -1
M  END
>  <filename_input>  (1) 
5SD5_HWI_docked.sdf

>  <pdb_id>  (1) 
5SD5_HWI

>  <pose_rank>  (1) 
0

>  <num_atoms_heavy>  (1) 
29

>  <num_torsions>  (1) 
9

>  <pose>  (1) 
[6.614925148965554, 0.06547929992521848, 13.194105813896256, -5.098737822993151, 0.922501646583785, 3.482279178479815, -18.73831460251692, -17.68308872100946, -1.879857512694304, 45.82583033998881, 47.167075822256656, 12.777668715311098, 23.869144165870864, -3.356859628610297, 6.287186493299844]

>  <energy>  (1) 
-1717.518262493306

>  <inter_energy>  (1) 
-1720.4245534761635

>  <intra_energy>  (1) 
39.33785860672453

>  <rmsd>  (1) 
0.793793

>  <sdf_rank>  (1) 
0

$$$$

     RDKit          3D

 55 57  0  0  0  0  0  0  0  0999 V2000
    8.5561    3.9027   14.3343 C   0  0  0  0  0  0  0  0  0  0  0  0
    8.7042    0.3584   14.0326 C   0  0  0  0  0  0  0  0  0  0  0  0
    7.2783   -2.5433   15.6756 C   0  0  0  0  0  0  0  0  0  0  0  0
    5.6331   -3.9591   16.6406 C   0  0  0  0  0  0  0  0  0  0  0  0
    4.6444   -3.2558   15.9680 C   0  0  0  0  0  0  0  0  0  0  0  0
    4.9506   -2.1765   15.1542 C   0  0  0  0  0  0  0  0  0  0  0  0
    3.6147   -0.0436   14.6864 C   0  0  0  0  0  0  0  0  0  0  0  0
    7.8400    1.5970   14.2543 C   0  0  0  0  0  0  0  0  0  0  0  0
    7.8608   -0.7731   13.4659 C   0  0  0  0  0  0  0  0  0  0  0  0
    6.3011   -1.8362   15.0107 C   0  0  0  0  0  0  0  0  0  0  0  0
    6.9639   -3.6196   16.5075 C   0  0  0  0  0  0  0  0  0  0  0  0
    8.0510   -4.3981   17.2302 C   0  0  0  0  0  0  0  0  0  0  0  0
    5.1359    3.9559   15.5534 C   0  0  0  0  0  0  0  0  0  0  0  0
    6.4965    3.2246   15.6327 C   0  0  0  0  0  0  0  0  0  0  0  0
    7.6237    4.1696   15.2878 C   0  0  0  0  0  0  0  0  0  0  0  0
    8.6082    6.2113   15.6894 C   0  0  0  0  0  0  0  0  0  0  0  0
    9.5708    4.8734   14.0919 C   0  0  0  0  0  0  0  0  0  0  0  0
    3.5830    0.1832   13.1587 C   0  0  1  0  0  0  0  0  0  0  0  0
    3.9187   -1.3358   12.9782 C   0  0  0  0  0  0  0  0  0  0  0  0
    2.1745    0.5135   12.5789 C   0  0  0  0  0  0  0  0  0  0  0  0
    7.6550    5.3309   15.9753 N   0  0  0  0  0  0  0  0  0  0  0  0
    8.5886    7.3729   16.3916 N   0  0  0  0  0  0  0  0  0  0  0  0
    9.5732    6.0247   14.7896 N   0  0  0  0  0  0  0  0  0  0  0  0
   10.5274    4.6848   13.1924 N   0  0  0  0  0  0  0  0  0  0  0  0
    3.9883   -1.4820   14.4533 N   0  0  0  0  0  0  0  0  0  0  0  0
    8.5513    2.7029   13.6354 O   0  0  0  0  0  0  0  0  0  0  0  0
    6.6053   -0.7459   14.2115 O   0  0  0  0  0  0  0  0  0  0  0  0
    1.6724   -0.3160   11.8011 O   0  0  0  0  0  0  0  0  0  0  0  0
    1.6450    1.6172   12.9254 O   0  0  0  0  0  0  0  0  0  0  0  0
    9.5113    0.5999   13.3254 H   0  0  0  0  0  0  0  0  0  0  0  0
    9.1320    0.0411   14.9950 H   0  0  0  0  0  0  0  0  0  0  0  0
    8.3317   -2.2532   15.5481 H   0  0  0  0  0  0  0  0  0  0  0  0
    5.3516   -4.8009   17.2903 H   0  0  0  0  0  0  0  0  0  0  0  0
    3.5941   -3.5615   16.0831 H   0  0  0  0  0  0  0  0  0  0  0  0
    4.3825    0.5419   15.2132 H   0  0  0  0  0  0  0  0  0  0  0  0
    2.7465    0.2162   15.3098 H   0  0  0  0  0  0  0  0  0  0  0  0
    6.8554    1.4647   13.7821 H   0  0  0  0  0  0  0  0  0  0  0  0
    7.6682    1.7798   15.3254 H   0  0  0  0  0  0  0  0  0  0  0  0
    7.6734   -0.6114   12.3941 H   0  0  0  0  0  0  0  0  0  0  0  0
    8.3684   -1.7441   13.5633 H   0  0  0  0  0  0  0  0  0  0  0  0
    7.9123   -4.2988   18.3169 H   0  0  0  0  0  0  0  0  0  0  0  0
    7.9907   -5.4597   16.9484 H   0  0  0  0  0  0  0  0  0  0  0  0
    9.0366   -3.9993   16.9484 H   0  0  0  0  0  0  0  0  0  0  0  0
    4.7665    4.1545   16.5703 H   0  0  0  0  0  0  0  0  0  0  0  0
    5.2620    4.9078   15.0167 H   0  0  0  0  0  0  0  0  0  0  0  0
    4.4115    3.3256   15.0167 H   0  0  0  0  0  0  0  0  0  0  0  0
    6.6435    2.8424   16.6536 H   0  0  0  0  0  0  0  0  0  0  0  0
    6.4964    2.3921   14.9136 H   0  0  0  0  0  0  0  0  0  0  0  0
    4.1803    0.9910   12.7107 H   0  0  0  0  0  0  0  0  0  0  0  0
    3.1173   -1.9217   12.5042 H   0  0  0  0  0  0  0  0  0  0  0  0
    4.7583   -1.6535   12.3425 H   0  0  0  0  0  0  0  0  0  0  0  0
    9.3023    8.0940   16.2142 H   0  0  0  0  0  0  0  0  0  0  0  0
    7.8601    7.5331   17.1018 H   0  0  0  0  0  0  0  0  0  0  0  0
   11.2447    5.4089   13.0439 H   0  0  0  0  0  0  0  0  0  0  0  0
   10.5527    3.8144   12.6423 H   0  0  0  0  0  0  0  0  0  0  0  0
  1 15  2  0
  1 17  1  0
  1 26  1  0
  2  8  1  0
  2  9  1  0
  3 10  2  0
  3 11  1  0
  4  5  1  0
  4 11  2  0
  5  6  2  0
  6 10  1  0
  6 25  1  0
  7 18  1  0
  7 25  1  0
  8 26  1  0
  9 27  1  0
 10 27  1  0
 11 12  1  0
 13 14  1  0
 14 15  1  0
 15 21  1  0
 16 21  2  0
 16 22  1  0
 16 23  1  0
 17 23  2  0
 17 24  1  0
 18 19  1  0
 18 20  1  0
 19 25  1  0
 20 28  2  0
 20 29  1  0
  2 30  1  0
  2 31  1  0
  3 32  1  0
  4 33  1  0
  5 34  1  0
  7 35  1  0
  7 36  1  0
  8 37  1  0
  8 38  1  0
  9 39  1  0
  9 40  1  0
 12 41  1  0
 12 42  1  0
 12 43  1  0
 13 44  1  0
 13 45  1  0
 13 46  1  0
 14 47  1  0
 14 48  1  0
 18 49  1  1
 19 50  1  0
 19 51  1  0
 22 52  1  0
 22 53  1  0
 24 54  1  0
 24 55  1  0
M  CHG  1  29  -1
M  END
>  <filename_input>  (2) 
5SD5_HWI_docked.sdf

>  <pdb_id>  (2) 
5SD5_HWI

>  <pose_rank>  (2) 
1

>  <num_atoms_heavy>  (2) 
29

>  <num_torsions>  (2) 
9

>  <pose>  (2) 
[6.605310008693642, -0.7458604022745318, 14.211467306652944, -4.2692246665790945, -3.1039773963449355, -0.31289862709166727, 0.7094372678356816, -1.901125748100322, 1.5601665264838402, 0.8608726470684803, 4.3594817993314345, 2.893637310415482, 0.5434097905909918, -2.0788087018358805, -0.2687297916605214]

>  <energy>  (2) 
-1485.0096104570086

>  <inter_energy>  (2) 
-1569.6265874545895

>  <intra_energy>  (2) 
69.68418590398697

>  <rmsd>  (2) 
2.24684

>  <sdf_rank>  (2) 
0

$$$$

     RDKit          3D

 55 57  0  0  0  0  0  0  0  0999 V2000
    8.4935    3.8875   14.4574 C   0  0  0  0  0  0  0  0  0  0  0  0
    7.1996    0.9566   14.9121 C   0  0  0  0  0  0  0  0  0  0  0  0
    5.4110    0.5695   12.4621 C   0  0  0  0  0  0  0  0  0  0  0  0
    3.2205    1.0486   11.6779 C   0  0  0  0  0  0  0  0  0  0  0  0
    2.6921    0.3057   12.7235 C   0  0  0  0  0  0  0  0  0  0  0  0
    3.5093   -0.3316   13.6438 C   0  0  0  0  0  0  0  0  0  0  0  0
    3.3512   -2.4782   15.0292 C   0  0  0  0  0  0  0  0  0  0  0  0
    8.6200    1.4941   14.7585 C   0  0  0  0  0  0  0  0  0  0  0  0
    7.1289   -0.4818   14.4237 C   0  0  0  0  0  0  0  0  0  0  0  0
    4.8930   -0.1756   13.4983 C   0  0  0  0  0  0  0  0  0  0  0  0
    4.5843    1.1960   11.5277 C   0  0  0  0  0  0  0  0  0  0  0  0
    5.1663    2.0226   10.3927 C   0  0  0  0  0  0  0  0  0  0  0  0
    5.2587    4.1132   16.4568 C   0  0  0  0  0  0  0  0  0  0  0  0
    6.2600    3.3860   15.5289 C   0  0  0  0  0  0  0  0  0  0  0  0
    7.4602    4.2630   15.2583 C   0  0  0  0  0  0  0  0  0  0  0  0
    8.4706    6.2995   15.6196 C   0  0  0  0  0  0  0  0  0  0  0  0
    9.5702    4.8022   14.2715 C   0  0  0  0  0  0  0  0  0  0  0  0
    3.4671   -2.1009   16.5227 C   0  0  1  0  0  0  0  0  0  0  0  0
    3.0495   -0.6426   16.1335 C   0  0  0  0  0  0  0  0  0  0  0  0
    2.3960   -2.7580   17.4449 C   0  0  0  0  0  0  0  0  0  0  0  0
    7.4530    5.4766   15.8492 N   0  0  0  0  0  0  0  0  0  0  0  0
    8.4110    7.5163   16.2186 N   0  0  0  0  0  0  0  0  0  0  0  0
    9.5326    6.0077   14.8697 N   0  0  0  0  0  0  0  0  0  0  0  0
   10.6239    4.5087   13.5209 N   0  0  0  0  0  0  0  0  0  0  0  0
    3.0064   -1.0498   14.7072 N   0  0  0  0  0  0  0  0  0  0  0  0
    8.5267    2.6338   13.8617 O   0  0  0  0  0  0  0  0  0  0  0  0
    5.7101   -0.8277   14.4078 O   0  0  0  0  0  0  0  0  0  0  0  0
    2.6167   -3.9180   17.8334 O   0  0  0  0  0  0  0  0  0  0  0  0
    1.3617   -2.0703   17.7198 O   0  0  0  0  0  0  0  0  0  0  0  0
    6.9086    0.9955   15.9722 H   0  0  0  0  0  0  0  0  0  0  0  0
    6.5144    1.5742   14.3129 H   0  0  0  0  0  0  0  0  0  0  0  0
    6.5021    0.6734   12.3686 H   0  0  0  0  0  0  0  0  0  0  0  0
    2.5417    1.5279   10.9572 H   0  0  0  0  0  0  0  0  0  0  0  0
    1.6000    0.2204   12.8244 H   0  0  0  0  0  0  0  0  0  0  0  0
    4.2916   -2.8277   14.5782 H   0  0  0  0  0  0  0  0  0  0  0  0
    2.6940   -3.2997   14.7078 H   0  0  0  0  0  0  0  0  0  0  0  0
    9.0165    1.8086   15.7351 H   0  0  0  0  0  0  0  0  0  0  0  0
    9.2990    0.7253   14.3609 H   0  0  0  0  0  0  0  0  0  0  0  0
    7.5546   -0.5643   13.4128 H   0  0  0  0  0  0  0  0  0  0  0  0
    7.7033   -1.1585   15.0734 H   0  0  0  0  0  0  0  0  0  0  0  0
    5.7526    2.8552   10.8086 H   0  0  0  0  0  0  0  0  0  0  0  0
    5.8182    1.3883    9.7740 H   0  0  0  0  0  0  0  0  0  0  0  0
    4.3494    2.4224    9.7740 H   0  0  0  0  0  0  0  0  0  0  0  0
    5.5248    3.9199   17.5065 H   0  0  0  0  0  0  0  0  0  0  0  0
    5.2974    5.1951   16.2619 H   0  0  0  0  0  0  0  0  0  0  0  0
    4.2419    3.7416   16.2619 H   0  0  0  0  0  0  0  0  0  0  0  0
    6.5926    2.4558   16.0127 H   0  0  0  0  0  0  0  0  0  0  0  0
    5.7619    3.1589   14.5748 H   0  0  0  0  0  0  0  0  0  0  0  0
    4.3857   -2.3379   17.0795 H   0  0  0  0  0  0  0  0  0  0  0  0
    2.0781   -0.3273   16.5421 H   0  0  0  0  0  0  0  0  0  0  0  0
    3.6544    0.2187   16.4532 H   0  0  0  0  0  0  0  0  0  0  0  0
    9.1709    8.1973   16.0779 H   0  0  0  0  0  0  0  0  0  0  0  0
    7.6060    7.7585   16.8137 H   0  0  0  0  0  0  0  0  0  0  0  0
   11.3838    5.1949   13.4092 H   0  0  0  0  0  0  0  0  0  0  0  0
   10.6821    3.5945   13.0499 H   0  0  0  0  0  0  0  0  0  0  0  0
  1 15  2  0
  1 17  1  0
  1 26  1  0
  2  8  1  0
  2  9  1  0
  3 10  2  0
  3 11  1  0
  4  5  1  0
  4 11  2  0
  5  6  2  0
  6 10  1  0
  6 25  1  0
  7 18  1  0
  7 25  1  0
  8 26  1  0
  9 27  1  0
 10 27  1  0
 11 12  1  0
 13 14  1  0
 14 15  1  0
 15 21  1  0
 16 21  2  0
 16 22  1  0
 16 23  1  0
 17 23  2  0
 17 24  1  0
 18 19  1  0
 18 20  1  0
 19 25  1  0
 20 28  2  0
 20 29  1  0
  2 30  1  0
  2 31  1  0
  3 32  1  0
  4 33  1  0
  5 34  1  0
  7 35  1  0
  7 36  1  0
  8 37  1  0
  8 38  1  0
  9 39  1  0
  9 40  1  0
 12 41  1  0
 12 42  1  0
 12 43  1  0
 13 44  1  0
 13 45  1  0
 13 46  1  0
 14 47  1  0
 14 48  1  0
 18 49  1  1
 19 50  1  0
 19 51  1  0
 22 52  1  0
 22 53  1  0
 24 54  1  0
 24 55  1  0
M  CHG  1  29  -1
M  END
>  <filename_input>  (3) 
5SD5_HWI_docked.sdf

>  <pdb_id>  (3) 
5SD5_HWI

>  <pose_rank>  (3) 
2

>  <num_atoms_heavy>  (3) 
29

>  <num_torsions>  (3) 
9

>  <pose>  (3) 
[5.710116478931975, -0.8276982304651926, 14.40784778384819, 3.522771977683385, -0.03531375736750306, 0.17653304138144565, 0.3348010348415948, -1.70735942651117, -1.2770209460124962, -33.658058978203734, -23.023712728381952, -11.595374024828416, -1.5943786185239772, 28.57078002057541, -7.465076499263605]

>  <energy>  (3) 
-1402.2736649028202

>  <inter_energy>  (3) 
-1495.610014798095

>  <intra_energy>  (3) 
95.02026080672618

>  <rmsd>  (3) 
4.20989

>  <sdf_rank>  (3) 
0

$$$$

     RDKit          3D

 55 57  0  0  0  0  0  0  0  0999 V2000
    8.3610    4.0067   14.3126 C   0  0  0  0  0  0  0  0  0  0  0  0
    7.0092    1.1338   12.4455 C   0  0  0  0  0  0  0  0  0  0  0  0
    3.1998   -0.4080   10.7375 C   0  0  0  0  0  0  0  0  0  0  0  0
    1.1834   -1.0702   11.8044 C   0  0  0  0  0  0  0  0  0  0  0  0
    1.8832   -1.2712   12.9852 C   0  0  0  0  0  0  0  0  0  0  0  0
    3.2514   -1.0627   13.0599 C   0  0  0  0  0  0  0  0  0  0  0  0
    5.0464   -2.2464   14.4489 C   0  0  0  0  0  0  0  0  0  0  0  0
    6.9292    2.5397   13.0346 C   0  0  0  0  0  0  0  0  0  0  0  0
    5.8058    0.8712   11.5537 C   0  0  0  0  0  0  0  0  0  0  0  0
    3.9019   -0.6126   11.9047 C   0  0  0  0  0  0  0  0  0  0  0  0
    1.8243   -0.6352   10.6624 C   0  0  0  0  0  0  0  0  0  0  0  0
    1.0580   -0.3986    9.3713 C   0  0  0  0  0  0  0  0  0  0  0  0
    6.3511    2.9506   16.9494 C   0  0  0  0  0  0  0  0  0  0  0  0
    6.2004    3.6335   15.5698 C   0  0  0  0  0  0  0  0  0  0  0  0
    7.4464    4.4182   15.2314 C   0  0  0  0  0  0  0  0  0  0  0  0
    8.6710    6.3314   15.6043 C   0  0  0  0  0  0  0  0  0  0  0  0
    9.4961    4.8342   14.0726 C   0  0  0  0  0  0  0  0  0  0  0  0
    5.8970   -1.1705   15.1598 C   0  0  1  0  0  0  0  0  0  0  0  0
    4.7112   -0.1690   14.9511 C   0  0  0  0  0  0  0  0  0  0  0  0
    6.1425   -1.4325   16.6765 C   0  0  0  0  0  0  0  0  0  0  0  0
    7.6072    5.5872   15.8870 N   0  0  0  0  0  0  0  0  0  0  0  0
    8.7810    7.5075   16.2732 N   0  0  0  0  0  0  0  0  0  0  0  0
    9.6267    5.9971   14.7380 N   0  0  0  0  0  0  0  0  0  0  0  0
   10.4432    4.4990   13.2064 N   0  0  0  0  0  0  0  0  0  0  0  0
    3.9620   -1.2272   14.2293 N   0  0  0  0  0  0  0  0  0  0  0  0
    8.2218    2.7959   13.6474 O   0  0  0  0  0  0  0  0  0  0  0  0
    5.2726   -0.4216   11.9748 O   0  0  0  0  0  0  0  0  0  0  0  0
    6.0812   -2.6114   17.0657 O   0  0  0  0  0  0  0  0  0  0  0  0
    6.3687   -0.4210   17.4142 O   0  0  0  0  0  0  0  0  0  0  0  0
    7.9299    1.0403   11.8509 H   0  0  0  0  0  0  0  0  0  0  0  0
    7.0166    0.4001   13.2651 H   0  0  0  0  0  0  0  0  0  0  0  0
    3.7356   -0.0571    9.8432 H   0  0  0  0  0  0  0  0  0  0  0  0
    0.1003   -1.2606   11.7780 H   0  0  0  0  0  0  0  0  0  0  0  0
    1.3402   -1.6035   13.8822 H   0  0  0  0  0  0  0  0  0  0  0  0
    5.4939   -2.6353   13.5224 H   0  0  0  0  0  0  0  0  0  0  0  0
    4.8246   -3.2032   14.9441 H   0  0  0  0  0  0  0  0  0  0  0  0
    6.7308    3.2751   12.2410 H   0  0  0  0  0  0  0  0  0  0  0  0
    6.1140    2.6213   13.7687 H   0  0  0  0  0  0  0  0  0  0  0  0
    5.0502    1.6593   11.6881 H   0  0  0  0  0  0  0  0  0  0  0  0
    6.0839    0.8670   10.4894 H   0  0  0  0  0  0  0  0  0  0  0  0
    0.0314   -0.0816    9.6072 H   0  0  0  0  0  0  0  0  0  0  0  0
    1.5589    0.3867    8.7862 H   0  0  0  0  0  0  0  0  0  0  0  0
    1.0289   -1.3296    8.7862 H   0  0  0  0  0  0  0  0  0  0  0  0
    6.1876    3.6919   17.7454 H   0  0  0  0  0  0  0  0  0  0  0  0
    5.6093    2.1436   17.0420 H   0  0  0  0  0  0  0  0  0  0  0  0
    7.3635    2.5304   17.0420 H   0  0  0  0  0  0  0  0  0  0  0  0
    6.0364    2.8644   14.8007 H   0  0  0  0  0  0  0  0  0  0  0  0
    5.3436    4.3224   15.6046 H   0  0  0  0  0  0  0  0  0  0  0  0
    6.9240   -0.9696   14.8208 H   0  0  0  0  0  0  0  0  0  0  0  0
    4.2337    0.1653   15.8840 H   0  0  0  0  0  0  0  0  0  0  0  0
    4.8816    0.8138   14.4874 H   0  0  0  0  0  0  0  0  0  0  0  0
    9.5844    8.1274   16.0964 H   0  0  0  0  0  0  0  0  0  0  0  0
    8.0611    7.7801   16.9576 H   0  0  0  0  0  0  0  0  0  0  0  0
   11.2499    5.1221   13.0586 H   0  0  0  0  0  0  0  0  0  0  0  0
   10.3719    3.6155   12.6817 H   0  0  0  0  0  0  0  0  0  0  0  0
  1 15  2  0
  1 17  1  0
  1 26  1  0
  2  8  1  0
  2  9  1  0
  3 10  2  0
  3 11  1  0
  4  5  1  0
  4 11  2  0
  5  6  2  0
  6 10  1  0
  6 25  1  0
  7 18  1  0
  7 25  1  0
  8 26  1  0
  9 27  1  0
 10 27  1  0
 11 12  1  0
 13 14  1  0
 14 15  1  0
 15 21  1  0
 16 21  2  0
 16 22  1  0
 16 23  1  0
 17 23  2  0
 17 24  1  0
 18 19  1  0
 18 20  1  0
 19 25  1  0
 20 28  2  0
 20 29  1  0
  2 30  1  0
  2 31  1  0
  3 32  1  0
  4 33  1  0
  5 34  1  0
  7 35  1  0
  7 36  1  0
  8 37  1  0
  8 38  1  0
  9 39  1  0
  9 40  1  0
 12 41  1  0
 12 42  1  0
 12 43  1  0
 13 44  1  0
 13 45  1  0
 13 46  1  0
 14 47  1  0
 14 48  1  0
 18 49  1  6
 19 50  1  0
 19 51  1  0
 22 52  1  0
 22 53  1  0
 24 54  1  0
 24 55  1  0
M  CHG  1  29  -1
M  END
>  <filename_input>  (4) 
5SD5_HWI_docked.sdf

>  <pdb_id>  (4) 
5SD5_HWI

>  <pose_rank>  (4) 
3

>  <num_atoms_heavy>  (4) 
29

>  <num_torsions>  (4) 
9

>  <pose>  (4) 
[5.272553240660849, -0.4216087798511496, 11.974847705487742, -2.2101196968916272, -0.8174471361254826, 0.8723860638464295, 1.0599790479954927, -1.8709350631345072, -2.287717301020462, -0.8519706930378228, 9.094354425581026, -4.068384476314173, -0.11980919851692737, -0.8463843168401293, -2.4954605937758076]

>  <energy>  (4) 
-1445.0565845226035

>  <inter_energy>  (4) 
-1465.6877666199541

>  <intra_energy>  (4) 
48.65972168723803

>  <rmsd>  (4) 
4.3405

>  <sdf_rank>  (4) 
0

$$$$

     RDKit          3D

 55 57  0  0  0  0  0  0  0  0999 V2000
    8.7202    3.7490   14.7078 C   0  0  0  0  0  0  0  0  0  0  0  0
    7.7108    3.0205   12.2378 C   0  0  0  0  0  0  0  0  0  0  0  0
    7.6783    0.1116   11.8337 C   0  0  0  0  0  0  0  0  0  0  0  0
    6.4035   -1.4444   13.0972 C   0  0  0  0  0  0  0  0  0  0  0  0
    5.2372   -0.8495   12.6386 C   0  0  0  0  0  0  0  0  0  0  0  0
    5.2688    0.2435   11.7870 C   0  0  0  0  0  0  0  0  0  0  0  0
    3.1109    0.1543   10.4130 C   0  0  0  0  0  0  0  0  0  0  0  0
    8.8930    2.2507   12.8209 C   0  0  0  0  0  0  0  0  0  0  0  0
    7.6259    2.7904   10.7370 C   0  0  0  0  0  0  0  0  0  0  0  0
    6.5242    0.7115   11.3805 C   0  0  0  0  0  0  0  0  0  0  0  0
    7.6418   -0.9789   12.7047 C   0  0  0  0  0  0  0  0  0  0  0  0
    8.9214   -1.6384   13.1924 C   0  0  0  0  0  0  0  0  0  0  0  0
    7.4610    2.2442   17.2908 C   0  0  0  0  0  0  0  0  0  0  0  0
    6.7903    3.1373   16.2207 C   0  0  0  0  0  0  0  0  0  0  0  0
    7.7936    4.1049   15.6376 C   0  0  0  0  0  0  0  0  0  0  0  0
    8.5553    6.2763   15.5765 C   0  0  0  0  0  0  0  0  0  0  0  0
    9.6120    4.7506   14.2258 C   0  0  0  0  0  0  0  0  0  0  0  0
    1.9767    0.7857   11.2503 C   0  0  1  0  0  0  0  0  0  0  0  0
    3.0761    1.5087   12.0995 C   0  0  0  0  0  0  0  0  0  0  0  0
    1.0989    1.8195   10.4822 C   0  0  0  0  0  0  0  0  0  0  0  0
    7.7158    5.3778   16.0800 N   0  0  0  0  0  0  0  0  0  0  0  0
    8.4274    7.5473   16.0360 N   0  0  0  0  0  0  0  0  0  0  0  0
    9.5069    6.0129   14.6818 N   0  0  0  0  0  0  0  0  0  0  0  0
   10.5555    4.4845   13.3322 N   0  0  0  0  0  0  0  0  0  0  0  0
    4.1235    0.8317   11.2954 N   0  0  0  0  0  0  0  0  0  0  0  0
    8.8282    2.4391   14.2605 O   0  0  0  0  0  0  0  0  0  0  0  0
    6.5558    1.8155   10.5436 O   0  0  0  0  0  0  0  0  0  0  0  0
   -0.0968    1.9039   10.8112 O   0  0  0  0  0  0  0  0  0  0  0  0
    1.6609    2.4906    9.5591 O   0  0  0  0  0  0  0  0  0  0  0  0
    6.7810    2.6733   12.7122 H   0  0  0  0  0  0  0  0  0  0  0  0
    7.8508    4.0945   12.4299 H   0  0  0  0  0  0  0  0  0  0  0  0
    8.6519    0.5011   11.5015 H   0  0  0  0  0  0  0  0  0  0  0  0
    6.3402   -2.3008   13.7846 H   0  0  0  0  0  0  0  0  0  0  0  0
    4.2656   -1.2543   12.9581 H   0  0  0  0  0  0  0  0  0  0  0  0
    3.1422   -0.9445   10.4522 H   0  0  0  0  0  0  0  0  0  0  0  0
    3.1416    0.2855    9.3213 H   0  0  0  0  0  0  0  0  0  0  0  0
    8.8125    1.1822   12.5720 H   0  0  0  0  0  0  0  0  0  0  0  0
    9.8480    2.6119   12.4116 H   0  0  0  0  0  0  0  0  0  0  0  0
    7.3860    3.7303   10.2184 H   0  0  0  0  0  0  0  0  0  0  0  0
    8.5811    2.4293   10.3282 H   0  0  0  0  0  0  0  0  0  0  0  0
    8.9343   -1.6450   14.2923 H   0  0  0  0  0  0  0  0  0  0  0  0
    8.9666   -2.6720   12.8189 H   0  0  0  0  0  0  0  0  0  0  0  0
    9.7895   -1.0753   12.8189 H   0  0  0  0  0  0  0  0  0  0  0  0
    7.1891    2.6062   18.2933 H   0  0  0  0  0  0  0  0  0  0  0  0
    7.1172    1.2063   17.1700 H   0  0  0  0  0  0  0  0  0  0  0  0
    8.5535    2.2850   17.1700 H   0  0  0  0  0  0  0  0  0  0  0  0
    6.3905    2.5016   15.4170 H   0  0  0  0  0  0  0  0  0  0  0  0
    5.9764    3.7081   16.6917 H   0  0  0  0  0  0  0  0  0  0  0  0
    1.1972    0.1462   11.6901 H   0  0  0  0  0  0  0  0  0  0  0  0
    3.0719    2.6045   12.0039 H   0  0  0  0  0  0  0  0  0  0  0  0
    3.0761    1.4353   13.1971 H   0  0  0  0  0  0  0  0  0  0  0  0
    9.0501    8.2877   15.6826 H   0  0  0  0  0  0  0  0  0  0  0  0
    7.7076    7.7712   16.7379 H   0  0  0  0  0  0  0  0  0  0  0  0
   11.1825    5.2341   13.0065 H   0  0  0  0  0  0  0  0  0  0  0  0
   10.6613    3.5284   12.9641 H   0  0  0  0  0  0  0  0  0  0  0  0
  1 15  2  0
  1 17  1  0
  1 26  1  0
  2  8  1  0
  2  9  1  0
  3 10  2  0
  3 11  1  0
  4  5  1  0
  4 11  2  0
  5  6  2  0
  6 10  1  0
  6 25  1  0
  7 18  1  0
  7 25  1  0
  8 26  1  0
  9 27  1  0
 10 27  1  0
 11 12  1  0
 13 14  1  0
 14 15  1  0
 15 21  1  0
 16 21  2  0
 16 22  1  0
 16 23  1  0
 17 23  2  0
 17 24  1  0
 18 19  1  0
 18 20  1  0
 19 25  1  0
 20 28  2  0
 20 29  1  0
  2 30  1  0
  2 31  1  0
  3 32  1  0
  4 33  1  0
  5 34  1  0
  7 35  1  0
  7 36  1  0
  8 37  1  0
  8 38  1  0
  9 39  1  0
  9 40  1  0
 12 41  1  0
 12 42  1  0
 12 43  1  0
 13 44  1  0
 13 45  1  0
 13 46  1  0
 14 47  1  0
 14 48  1  0
 18 49  1  1
 19 50  1  0
 19 51  1  0
 22 52  1  0
 22 53  1  0
 24 54  1  0
 24 55  1  0
M  CHG  1  29  -1
M  END
>  <filename_input>  (5) 
5SD5_HWI_docked.sdf

>  <pdb_id>  (5) 
5SD5_HWI

>  <pose_rank>  (5) 
4

>  <num_atoms_heavy>  (5) 
29

>  <num_torsions>  (5) 
9

>  <pose>  (5) 
[6.55578718467636, 1.8154780156793342, 10.543557520555579, 0.3059608063034258, 0.12678936986199862, 1.0089585906165532, -6.788588544605738, 1.289259090091827, -0.1339016475522647, 8.37426022734551, -11.974308878973147, -16.74322816731373, -10.495104300826487, 6.864223292245349, 3.3016484038206864]

>  <energy>  (5) 
-1434.6779317255168

>  <inter_energy>  (5) 
-1504.9951107959073

>  <intra_energy>  (5) 
116.10419590322535

>  <rmsd>  (5) 
2.61836

>  <sdf_rank>  (5) 
0

$$$$

     RDKit          3D

 55 57  0  0  0  0  0  0  0  0999 V2000
    8.7319    3.8706   14.5372 C   0  0  0  0  0  0  0  0  0  0  0  0
    7.8168    1.0059   12.5372 C   0  0  0  0  0  0  0  0  0  0  0  0
    5.7051    2.1023   10.2951 C   0  0  0  0  0  0  0  0  0  0  0  0
    3.8214    2.4321    8.8860 C   0  0  0  0  0  0  0  0  0  0  0  0
    3.0188    1.7990    9.8238 C   0  0  0  0  0  0  0  0  0  0  0  0
    3.5443    1.2919   11.0017 C   0  0  0  0  0  0  0  0  0  0  0  0
    1.8354    1.4036   12.9042 C   0  0  0  0  0  0  0  0  0  0  0  0
    7.5144    1.9666   13.6843 C   0  0  0  0  0  0  0  0  0  0  0  0
    6.6259    0.0924   12.2924 C   0  0  0  0  0  0  0  0  0  0  0  0
    4.9151    1.4663   11.2271 C   0  0  0  0  0  0  0  0  0  0  0  0
    5.1743    2.5970    9.1024 C   0  0  0  0  0  0  0  0  0  0  0  0
    6.0537    3.3043    8.0844 C   0  0  0  0  0  0  0  0  0  0  0  0
    5.4007    3.6968   15.6942 C   0  0  0  0  0  0  0  0  0  0  0  0
    6.8337    3.2763   16.0965 C   0  0  0  0  0  0  0  0  0  0  0  0
    7.8476    4.2286   15.5066 C   0  0  0  0  0  0  0  0  0  0  0  0
    8.6750    6.3765   15.4786 C   0  0  0  0  0  0  0  0  0  0  0  0
    9.6388    4.8575   14.0530 C   0  0  0  0  0  0  0  0  0  0  0  0
    0.7628    0.3198   12.6566 C   0  0  1  0  0  0  0  0  0  0  0  0
    1.7904   -0.4117   11.7283 C   0  0  0  0  0  0  0  0  0  0  0  0
    0.4198   -0.5527   13.9017 C   0  0  0  0  0  0  0  0  0  0  0  0
    7.8244    5.4905   15.9854 N   0  0  0  0  0  0  0  0  0  0  0  0
    8.6023    7.6375   15.9761 N   0  0  0  0  0  0  0  0  0  0  0  0
    9.5884    6.1092   14.5459 N   0  0  0  0  0  0  0  0  0  0  0  0
   10.5440    4.5877   13.1216 N   0  0  0  0  0  0  0  0  0  0  0  0
    2.7615    0.6860   11.9606 N   0  0  0  0  0  0  0  0  0  0  0  0
    8.7840    2.5710   14.0515 O   0  0  0  0  0  0  0  0  0  0  0  0
    5.4434    0.9432   12.3965 O   0  0  0  0  0  0  0  0  0  0  0  0
    0.9615   -0.2442   14.9771 O   0  0  0  0  0  0  0  0  0  0  0  0
   -0.3741   -1.5313   13.7276 O   0  0  0  0  0  0  0  0  0  0  0  0
    8.0259    1.5834   11.6247 H   0  0  0  0  0  0  0  0  0  0  0  0
    8.6916    0.3937   12.8017 H   0  0  0  0  0  0  0  0  0  0  0  0
    6.7799    2.2233   10.4954 H   0  0  0  0  0  0  0  0  0  0  0  0
    3.3724    2.8086    7.9551 H   0  0  0  0  0  0  0  0  0  0  0  0
    1.9411    1.6973    9.6282 H   0  0  0  0  0  0  0  0  0  0  0  0
    1.5440    2.4107   12.5711 H   0  0  0  0  0  0  0  0  0  0  0  0
    2.1575    1.6503   13.9266 H   0  0  0  0  0  0  0  0  0  0  0  0
    6.8042    2.7402   13.3568 H   0  0  0  0  0  0  0  0  0  0  0  0
    7.0582    1.4423   14.5370 H   0  0  0  0  0  0  0  0  0  0  0  0
    6.6875   -0.3569   11.2902 H   0  0  0  0  0  0  0  0  0  0  0  0
    6.5945   -0.7347   13.0170 H   0  0  0  0  0  0  0  0  0  0  0  0
    6.8072    3.9103    8.6089 H   0  0  0  0  0  0  0  0  0  0  0  0
    6.5582    2.5574    7.4537 H   0  0  0  0  0  0  0  0  0  0  0  0
    5.4324    3.9571    7.4537 H   0  0  0  0  0  0  0  0  0  0  0  0
    4.8021    3.8724   16.6002 H   0  0  0  0  0  0  0  0  0  0  0  0
    5.4432    4.6203   15.0982 H   0  0  0  0  0  0  0  0  0  0  0  0
    4.9375    2.8967   15.0982 H   0  0  0  0  0  0  0  0  0  0  0  0
    6.9205    3.2883   17.1930 H   0  0  0  0  0  0  0  0  0  0  0  0
    7.0295    2.2642   15.7127 H   0  0  0  0  0  0  0  0  0  0  0  0
   -0.2465    0.6103   12.3294 H   0  0  0  0  0  0  0  0  0  0  0  0
    2.1193   -1.3919   12.1038 H   0  0  0  0  0  0  0  0  0  0  0  0
    1.5117   -0.7076   10.7061 H   0  0  0  0  0  0  0  0  0  0  0  0
    9.2362    8.3681   15.6222 H   0  0  0  0  0  0  0  0  0  0  0  0
    7.9131    7.8637   16.7073 H   0  0  0  0  0  0  0  0  0  0  0  0
   11.1834    5.3264   12.7955 H   0  0  0  0  0  0  0  0  0  0  0  0
   10.6075    3.6394   12.7246 H   0  0  0  0  0  0  0  0  0  0  0  0
  1 15  2  0
  1 17  1  0
  1 26  1  0
  2  8  1  0
  2  9  1  0
  3 10  2  0
  3 11  1  0
  4  5  1  0
  4 11  2  0
  5  6  2  0
  6 10  1  0
  6 25  1  0
  7 18  1  0
  7 25  1  0
  8 26  1  0
  9 27  1  0
 10 27  1  0
 11 12  1  0
 13 14  1  0
 14 15  1  0
 15 21  1  0
 16 21  2  0
 16 22  1  0
 16 23  1  0
 17 23  2  0
 17 24  1  0
 18 19  1  0
 18 20  1  0
 19 25  1  0
 20 28  2  0
 20 29  1  0
  2 30  1  0
  2 31  1  0
  3 32  1  0
  4 33  1  0
  5 34  1  0
  7 35  1  0
  7 36  1  0
  8 37  1  0
  8 38  1  0
  9 39  1  0
  9 40  1  0
 12 41  1  0
 12 42  1  0
 12 43  1  0
 13 44  1  0
 13 45  1  0
 13 46  1  0
 14 47  1  0
 14 48  1  0
 18 49  1  6
 19 50  1  0
 19 51  1  0
 22 52  1  0
 22 53  1  0
 24 54  1  0
 24 55  1  0
M  CHG  1  29  -1
M  END
>  <filename_input>  (6) 
5SD5_HWI_docked.sdf

>  <pdb_id>  (6) 
5SD5_HWI

>  <pose_rank>  (6) 
5

>  <num_atoms_heavy>  (6) 
29

>  <num_torsions>  (6) 
9

>  <pose>  (6) 
[5.443410877414909, 0.9431730185478907, 12.396453254862474, -3.1637679289044374, 1.3684706860051812, -0.07941882308272208, 5.5331847334510185, -5.205093179162751, -2.6386647147146864, 23.38941365304907, 56.08887660861971, 58.348216504735184, 24.414147348639677, -7.161735995898077, -0.016867806323296198]

>  <energy>  (6) 
-1294.6666606922865

>  <inter_energy>  (6) 
-1355.962037675564

>  <intra_energy>  (6) 
42.868893513617564

>  <rmsd>  (6) 
4.05859

>  <sdf_rank>  (6) 
0

$$$$

     RDKit          3D

 55 57  0  0  0  0  0  0  0  0999 V2000
    8.4546    3.9873   14.3018 C   0  0  0  0  0  0  0  0  0  0  0  0
    7.1654    0.7915   13.1476 C   0  0  0  0  0  0  0  0  0  0  0  0
    2.7666    0.1777   14.4516 C   0  0  0  0  0  0  0  0  0  0  0  0
    2.2900   -0.8400   16.5444 C   0  0  0  0  0  0  0  0  0  0  0  0
    3.5964   -1.3024   16.6083 C   0  0  0  0  0  0  0  0  0  0  0  0
    4.5038   -1.0501   15.5916 C   0  0  0  0  0  0  0  0  0  0  0  0
    6.8855   -0.8670   16.5117 C   0  0  0  0  0  0  0  0  0  0  0  0
    7.6044    1.7264   14.2716 C   0  0  0  0  0  0  0  0  0  0  0  0
    6.3694   -0.3726   13.7166 C   0  0  0  0  0  0  0  0  0  0  0  0
    4.0630   -0.2845   14.5054 C   0  0  0  0  0  0  0  0  0  0  0  0
    1.8512   -0.0929   15.4704 C   0  0  0  0  0  0  0  0  0  0  0  0
    0.4251    0.4289   15.4047 C   0  0  0  0  0  0  0  0  0  0  0  0
    5.8680    3.6115   16.9398 C   0  0  0  0  0  0  0  0  0  0  0  0
    6.2449    3.5336   15.4418 C   0  0  0  0  0  0  0  0  0  0  0  0
    7.4734    4.3680   15.1633 C   0  0  0  0  0  0  0  0  0  0  0  0
    8.5926    6.3358   15.5801 C   0  0  0  0  0  0  0  0  0  0  0  0
    9.5650    4.8606   14.1149 C   0  0  0  0  0  0  0  0  0  0  0  0
    7.3718   -2.2853   16.8835 C   0  0  1  0  0  0  0  0  0  0  0  0
    6.2726   -2.8573   15.9258 C   0  0  0  0  0  0  0  0  0  0  0  0
    8.7986   -2.6404   16.3665 C   0  0  0  0  0  0  0  0  0  0  0  0
    7.5473    5.5492   15.8125 N   0  0  0  0  0  0  0  0  0  0  0  0
    8.6149    7.5222   16.2397 N   0  0  0  0  0  0  0  0  0  0  0  0
    9.6086    6.0347   14.7723 N   0  0  0  0  0  0  0  0  0  0  0  0
   10.5725    4.5582   13.3067 N   0  0  0  0  0  0  0  0  0  0  0  0
    5.8141   -1.4737   15.6474 N   0  0  0  0  0  0  0  0  0  0  0  0
    8.4045    2.7652   13.6447 O   0  0  0  0  0  0  0  0  0  0  0  0
    4.9652   -0.0479   13.4806 O   0  0  0  0  0  0  0  0  0  0  0  0
    9.6683   -2.8808   17.2215 O   0  0  0  0  0  0  0  0  0  0  0  0
    8.9798   -2.6401   15.1073 O   0  0  0  0  0  0  0  0  0  0  0  0
    6.5379    1.3479   12.4359 H   0  0  0  0  0  0  0  0  0  0  0  0
    8.0571    0.4014   12.6351 H   0  0  0  0  0  0  0  0  0  0  0  0
    2.4448    0.7743   13.5853 H   0  0  0  0  0  0  0  0  0  0  0  0
    1.5929   -1.0726   17.3629 H   0  0  0  0  0  0  0  0  0  0  0  0
    3.9193   -1.8821   17.4856 H   0  0  0  0  0  0  0  0  0  0  0  0
    6.5023   -0.2843   17.3623 H   0  0  0  0  0  0  0  0  0  0  0  0
    7.5848   -0.1246   16.0995 H   0  0  0  0  0  0  0  0  0  0  0  0
    6.7262    2.1674   14.7659 H   0  0  0  0  0  0  0  0  0  0  0  0
    8.1777    1.1878   15.0405 H   0  0  0  0  0  0  0  0  0  0  0  0
    6.6378   -1.3076   13.2029 H   0  0  0  0  0  0  0  0  0  0  0  0
    6.5764   -0.5199   14.7868 H   0  0  0  0  0  0  0  0  0  0  0  0
    0.0391    0.5701   16.4250 H   0  0  0  0  0  0  0  0  0  0  0  0
    0.4108    1.3905   14.8708 H   0  0  0  0  0  0  0  0  0  0  0  0
   -0.2065   -0.2964   14.8708 H   0  0  0  0  0  0  0  0  0  0  0  0
    6.7624    3.4268   17.5530 H   0  0  0  0  0  0  0  0  0  0  0  0
    5.4685    4.6111   17.1660 H   0  0  0  0  0  0  0  0  0  0  0  0
    5.1052    2.8519   17.1660 H   0  0  0  0  0  0  0  0  0  0  0  0
    6.4495    2.4866   15.1735 H   0  0  0  0  0  0  0  0  0  0  0  0
    5.4075    3.9208   14.8427 H   0  0  0  0  0  0  0  0  0  0  0  0
    7.4622   -2.5755   17.9407 H   0  0  0  0  0  0  0  0  0  0  0  0
    6.6707   -3.3860   15.0471 H   0  0  0  0  0  0  0  0  0  0  0  0
    5.5653   -3.6230   16.2771 H   0  0  0  0  0  0  0  0  0  0  0  0
    9.3998    8.1743   16.1001 H   0  0  0  0  0  0  0  0  0  0  0  0
    7.8469    7.7701   16.8797 H   0  0  0  0  0  0  0  0  0  0  0  0
   11.3589    5.2141   13.1963 H   0  0  0  0  0  0  0  0  0  0  0  0
   10.5684    3.6673   12.7897 H   0  0  0  0  0  0  0  0  0  0  0  0
  1 15  2  0
  1 17  1  0
  1 26  1  0
  2  8  1  0
  2  9  1  0
  3 10  2  0
  3 11  1  0
  4  5  1  0
  4 11  2  0
  5  6  2  0
  6 10  1  0
  6 25  1  0
  7 18  1  0
  7 25  1  0
  8 26  1  0
  9 27  1  0
 10 27  1  0
 11 12  1  0
 13 14  1  0
 14 15  1  0
 15 21  1  0
 16 21  2  0
 16 22  1  0
 16 23  1  0
 17 23  2  0
 17 24  1  0
 18 19  1  0
 18 20  1  0
 19 25  1  0
 20 28  2  0
 20 29  1  0
  2 30  1  0
  2 31  1  0
  3 32  1  0
  4 33  1  0
  5 34  1  0
  7 35  1  0
  7 36  1  0
  8 37  1  0
  8 38  1  0
  9 39  1  0
  9 40  1  0
 12 41  1  0
 12 42  1  0
 12 43  1  0
 13 44  1  0
 13 45  1  0
 13 46  1  0
 14 47  1  0
 14 48  1  0
 18 49  1  1
 19 50  1  0
 19 51  1  0
 22 52  1  0
 22 53  1  0
 24 54  1  0
 24 55  1  0
M  CHG  1  29  -1
M  END
>  <filename_input>  (7) 
5SD5_HWI_docked.sdf

>  <pdb_id>  (7) 
5SD5_HWI

>  <pose_rank>  (7) 
6

>  <num_atoms_heavy>  (7) 
29

>  <num_torsions>  (7) 
9

>  <pose>  (7) 
[4.965168276741976, -0.047897225600742804, 13.480567700419748, 4.6041524999133765, -4.204908724757947, 0.47348122271656473, 3.07287566132892, 1.088386260865796, -0.6699704227988259, 0.48577573552743963, 0.5671278991824998, 1.9808060156590004, -0.6249328778726672, -2.129249664748449, -1.8730547487390716]

>  <energy>  (7) 
-1377.009315686605

>  <inter_energy>  (7) 
-1511.174959862365

>  <intra_energy>  (7) 
142.26965444780524

>  <rmsd>  (7) 
4.40629

>  <sdf_rank>  (7) 
0

$$$$

     RDKit          3D

 55 57  0  0  0  0  0  0  0  0999 V2000
    8.8156    3.4582   14.6152 C   0  0  0  0  0  0  0  0  0  0  0  0
    7.1696    2.1050   12.6973 C   0  0  0  0  0  0  0  0  0  0  0  0
    6.1739   -0.9929   15.1961 C   0  0  0  0  0  0  0  0  0  0  0  0
    4.6997   -2.8005   15.6458 C   0  0  0  0  0  0  0  0  0  0  0  0
    3.7601   -2.2355   14.7959 C   0  0  0  0  0  0  0  0  0  0  0  0
    4.0009   -1.0349   14.1467 C   0  0  0  0  0  0  0  0  0  0  0  0
    2.8253   -0.9480   11.8745 C   0  0  0  0  0  0  0  0  0  0  0  0
    8.6628    1.8235   12.8433 C   0  0  0  0  0  0  0  0  0  0  0  0
    6.3991    0.7983   12.5901 C   0  0  0  0  0  0  0  0  0  0  0  0
    5.2425   -0.4229   14.3566 C   0  0  0  0  0  0  0  0  0  0  0  0
    5.9205   -2.1941   15.8610 C   0  0  0  0  0  0  0  0  0  0  0  0
    6.9586   -2.8186   16.7789 C   0  0  0  0  0  0  0  0  0  0  0  0
    5.4807    3.0960   15.7975 C   0  0  0  0  0  0  0  0  0  0  0  0
    6.9475    2.7896   16.1809 C   0  0  0  0  0  0  0  0  0  0  0  0
    7.8796    3.7934   15.5434 C   0  0  0  0  0  0  0  0  0  0  0  0
    8.5001    6.0042   15.3815 C   0  0  0  0  0  0  0  0  0  0  0  0
    9.6354    4.4931   14.0790 C   0  0  0  0  0  0  0  0  0  0  0  0
    1.3101   -0.7730   12.1190 C   0  0  1  0  0  0  0  0  0  0  0  0
    1.6557   -0.2307   13.5470 C   0  0  0  0  0  0  0  0  0  0  0  0
    0.6347    0.3331   11.2532 C   0  0  0  0  0  0  0  0  0  0  0  0
    7.7261    5.0763   15.9341 N   0  0  0  0  0  0  0  0  0  0  0  0
    8.2969    7.2827   15.7900 N   0  0  0  0  0  0  0  0  0  0  0  0
    9.4555    5.7643   14.4841 N   0  0  0  0  0  0  0  0  0  0  0  0
   10.5830    4.2500   13.1831 N   0  0  0  0  0  0  0  0  0  0  0  0
    3.0947   -0.4703   13.2753 N   0  0  0  0  0  0  0  0  0  0  0  0
    9.0015    2.1400   14.2206 O   0  0  0  0  0  0  0  0  0  0  0  0
    5.4759    0.7865   13.7217 O   0  0  0  0  0  0  0  0  0  0  0  0
   -0.5933    0.2474   11.0806 O   0  0  0  0  0  0  0  0  0  0  0  0
    1.3886    1.2349   10.7668 O   0  0  0  0  0  0  0  0  0  0  0  0
    6.8171    2.6640   13.5766 H   0  0  0  0  0  0  0  0  0  0  0  0
    7.0025    2.6971   11.7854 H   0  0  0  0  0  0  0  0  0  0  0  0
    7.1405   -0.4898   15.3462 H   0  0  0  0  0  0  0  0  0  0  0  0
    4.4680   -3.7469   16.1564 H   0  0  0  0  0  0  0  0  0  0  0  0
    2.8025   -2.7519   14.6337 H   0  0  0  0  0  0  0  0  0  0  0  0
    3.1345   -1.9865   11.6851 H   0  0  0  0  0  0  0  0  0  0  0  0
    3.3137   -0.4667   11.0143 H   0  0  0  0  0  0  0  0  0  0  0  0
    8.8738    0.7647   12.6322 H   0  0  0  0  0  0  0  0  0  0  0  0
    9.2551    2.4232   12.1365 H   0  0  0  0  0  0  0  0  0  0  0  0
    5.8431    0.7582   11.6418 H   0  0  0  0  0  0  0  0  0  0  0  0
    7.0725   -0.0713   12.6080 H   0  0  0  0  0  0  0  0  0  0  0  0
    6.6723   -2.6463   17.8269 H   0  0  0  0  0  0  0  0  0  0  0  0
    7.0144   -3.9003   16.5870 H   0  0  0  0  0  0  0  0  0  0  0  0
    7.9403   -2.3610   16.5870 H   0  0  0  0  0  0  0  0  0  0  0  0
    4.8814    3.2212   16.7114 H   0  0  0  0  0  0  0  0  0  0  0  0
    5.4425    4.0215   15.2043 H   0  0  0  0  0  0  0  0  0  0  0  0
    5.0751    2.2632   15.2043 H   0  0  0  0  0  0  0  0  0  0  0  0
    7.0543    2.8396   17.2745 H   0  0  0  0  0  0  0  0  0  0  0  0
    7.2074    1.7831   15.8211 H   0  0  0  0  0  0  0  0  0  0  0  0
    0.6243   -1.6147   11.9423 H   0  0  0  0  0  0  0  0  0  0  0  0
    1.3960    0.8267   13.7030 H   0  0  0  0  0  0  0  0  0  0  0  0
    1.1748   -0.6559   14.4404 H   0  0  0  0  0  0  0  0  0  0  0  0
    8.8666    8.0456   15.3972 H   0  0  0  0  0  0  0  0  0  0  0  0
    7.5731    7.4899   16.4929 H   0  0  0  0  0  0  0  0  0  0  0  0
   11.1566    5.0234   12.8174 H   0  0  0  0  0  0  0  0  0  0  0  0
   10.7450    3.2879   12.8531 H   0  0  0  0  0  0  0  0  0  0  0  0
  1 15  2  0
  1 17  1  0
  1 26  1  0
  2  8  1  0
  2  9  1  0
  3 10  2  0
  3 11  1  0
  4  5  1  0
  4 11  2  0
  5  6  2  0
  6 10  1  0
  6 25  1  0
  7 18  1  0
  7 25  1  0
  8 26  1  0
  9 27  1  0
 10 27  1  0
 11 12  1  0
 13 14  1  0
 14 15  1  0
 15 21  1  0
 16 21  2  0
 16 22  1  0
 16 23  1  0
 17 23  2  0
 17 24  1  0
 18 19  1  0
 18 20  1  0
 19 25  1  0
 20 28  2  0
 20 29  1  0
  2 30  1  0
  2 31  1  0
  3 32  1  0
  4 33  1  0
  5 34  1  0
  7 35  1  0
  7 36  1  0
  8 37  1  0
  8 38  1  0
  9 39  1  0
  9 40  1  0
 12 41  1  0
 12 42  1  0
 12 43  1  0
 13 44  1  0
 13 45  1  0
 13 46  1  0
 14 47  1  0
 14 48  1  0
 18 49  1  1
 19 50  1  0
 19 51  1  0
 22 52  1  0
 22 53  1  0
 24 54  1  0
 24 55  1  0
M  CHG  1  29  -1
M  END
>  <filename_input>  (8) 
5SD5_HWI_docked.sdf

>  <pdb_id>  (8) 
5SD5_HWI

>  <pose_rank>  (8) 
7

>  <num_atoms_heavy>  (8) 
29

>  <num_torsions>  (8) 
9

>  <pose>  (8) 
[5.475859515408483, 0.7864993938126817, 13.721675686026765, 1.083482104423738, 0.8502832354864361, -0.16456167044362457, 7.6956939963910465, 7.353880496753512, 0.03433757297565786, 19.235703391154143, 13.469330167018471, 3.285403882125275, -4.398597436289746, 0.2664751582402949, -6.36111331156377]

>  <energy>  (8) 
-1182.1518662768613

>  <inter_energy>  (8) 
-1178.995598269316

>  <intra_energy>  (8) 
26.058324878634618

>  <rmsd>  (8) 
1.64992

>  <sdf_rank>  (8) 
0

$$$$

     RDKit          3D

 55 57  0  0  0  0  0  0  0  0999 V2000
    8.5050    3.8027   14.6368 C   0  0  0  0  0  0  0  0  0  0  0  0
    8.4044    1.1055   12.2000 C   0  0  0  0  0  0  0  0  0  0  0  0
    5.9728   -0.0757   15.4768 C   0  0  0  0  0  0  0  0  0  0  0  0
    3.7830   -0.2232   16.3854 C   0  0  0  0  0  0  0  0  0  0  0  0
    3.2673    0.2964   15.2070 C   0  0  0  0  0  0  0  0  0  0  0  0
    4.0920    0.6551   14.1525 C   0  0  0  0  0  0  0  0  0  0  0  0
    4.3882    1.9462   11.9621 C   0  0  0  0  0  0  0  0  0  0  0  0
    9.1322    2.2561   12.8905 C   0  0  0  0  0  0  0  0  0  0  0  0
    7.6473    0.2755   13.2250 C   0  0  0  0  0  0  0  0  0  0  0  0
    5.4680    0.4475   14.3069 C   0  0  0  0  0  0  0  0  0  0  0  0
    5.1397   -0.4202   16.5428 C   0  0  0  0  0  0  0  0  0  0  0  0
    5.7065   -1.0043   17.8265 C   0  0  0  0  0  0  0  0  0  0  0  0
   10.6340    5.8003   12.2049 C   0  0  0  0  0  0  0  0  0  0  0  0
   10.1194    4.4739   12.8117 C   0  0  0  0  0  0  0  0  0  0  0  0
    9.2823    4.7457   14.0397 C   0  0  0  0  0  0  0  0  0  0  0  0
    8.6626    6.2803   15.6397 C   0  0  0  0  0  0  0  0  0  0  0  0
    7.7627    4.1744   15.7950 C   0  0  0  0  0  0  0  0  0  0  0  0
    3.7631    1.1140   10.8206 C   0  0  1  0  0  0  0  0  0  0  0  0
    2.9271    0.3519   11.9036 C   0  0  0  0  0  0  0  0  0  0  0  0
    2.8315    1.9180    9.8640 C   0  0  0  0  0  0  0  0  0  0  0  0
    9.3556    5.9964   14.5421 N   0  0  0  0  0  0  0  0  0  0  0  0
    8.7823    7.5442   16.1202 N   0  0  0  0  0  0  0  0  0  0  0  0
    7.8601    5.4280   16.2761 N   0  0  0  0  0  0  0  0  0  0  0  0
    6.9678    3.3214   16.4275 N   0  0  0  0  0  0  0  0  0  0  0  0
    3.6000    1.1451   12.9620 N   0  0  0  0  0  0  0  0  0  0  0  0
    8.4008    2.5189   14.1184 O   0  0  0  0  0  0  0  0  0  0  0  0
    6.2938    0.8230   13.2594 O   0  0  0  0  0  0  0  0  0  0  0  0
    2.4558    1.3470    8.8258 O   0  0  0  0  0  0  0  0  0  0  0  0
    2.5365    3.1087   10.2013 O   0  0  0  0  0  0  0  0  0  0  0  0
    7.6940    1.5130   11.4657 H   0  0  0  0  0  0  0  0  0  0  0  0
    9.1417    0.4660   11.6928 H   0  0  0  0  0  0  0  0  0  0  0  0
    7.0582   -0.2257   15.5735 H   0  0  0  0  0  0  0  0  0  0  0  0
    3.0995   -0.4824   17.2074 H   0  0  0  0  0  0  0  0  0  0  0  0
    2.1796    0.4267   15.1074 H   0  0  0  0  0  0  0  0  0  0  0  0
    5.4787    1.8361   12.0553 H   0  0  0  0  0  0  0  0  0  0  0  0
    4.3294    3.0446   11.9523 H   0  0  0  0  0  0  0  0  0  0  0  0
   10.1695    1.9692   13.1183 H   0  0  0  0  0  0  0  0  0  0  0  0
    9.1721    3.1484   12.2484 H   0  0  0  0  0  0  0  0  0  0  0  0
    7.6253   -0.7815   12.9210 H   0  0  0  0  0  0  0  0  0  0  0  0
    8.1266    0.3183   14.2142 H   0  0  0  0  0  0  0  0  0  0  0  0
    5.2333   -0.5166   18.6915 H   0  0  0  0  0  0  0  0  0  0  0  0
    5.5037   -2.0850   17.8584 H   0  0  0  0  0  0  0  0  0  0  0  0
    6.7928   -0.8340   17.8584 H   0  0  0  0  0  0  0  0  0  0  0  0
   10.9031    6.4940   13.0151 H   0  0  0  0  0  0  0  0  0  0  0  0
   11.5198    5.6003   11.5841 H   0  0  0  0  0  0  0  0  0  0  0  0
    9.8451    6.2499   11.5841 H   0  0  0  0  0  0  0  0  0  0  0  0
    9.5070    3.9473   12.0649 H   0  0  0  0  0  0  0  0  0  0  0  0
   10.9821    3.8543   13.0981 H   0  0  0  0  0  0  0  0  0  0  0  0
    4.4121    0.6070   10.0914 H   0  0  0  0  0  0  0  0  0  0  0  0
    1.8420    0.5190   11.8359 H   0  0  0  0  0  0  0  0  0  0  0  0
    2.9264   -0.7475   11.9411 H   0  0  0  0  0  0  0  0  0  0  0  0
    8.2690    7.8235   16.9684 H   0  0  0  0  0  0  0  0  0  0  0  0
    9.3865    8.2240   15.6367 H   0  0  0  0  0  0  0  0  0  0  0  0
    6.4462    3.6253   17.2621 H   0  0  0  0  0  0  0  0  0  0  0  0
    6.8721    2.3550   16.0841 H   0  0  0  0  0  0  0  0  0  0  0  0
  1 15  2  0
  1 17  1  0
  1 26  1  0
  2  8  1  0
  2  9  1  0
  3 10  2  0
  3 11  1  0
  4  5  1  0
  4 11  2  0
  5  6  2  0
  6 10  1  0
  6 25  1  0
  7 18  1  0
  7 25  1  0
  8 26  1  0
  9 27  1  0
 10 27  1  0
 11 12  1  0
 13 14  1  0
 14 15  1  0
 15 21  1  0
 16 21  2  0
 16 22  1  0
 16 23  1  0
 17 23  2  0
 17 24  1  0
 18 19  1  0
 18 20  1  0
 19 25  1  0
 20 28  2  0
 20 29  1  0
  2 30  1  0
  2 31  1  0
  3 32  1  0
  4 33  1  0
  5 34  1  0
  7 35  1  0
  7 36  1  0
  8 37  1  0
  8 38  1  0
  9 39  1  0
  9 40  1  0
 12 41  1  0
 12 42  1  0
 12 43  1  0
 13 44  1  0
 13 45  1  0
 13 46  1  0
 14 47  1  0
 14 48  1  0
 18 49  1  6
 19 50  1  0
 19 51  1  0
 22 52  1  0
 22 53  1  0
 24 54  1  0
 24 55  1  0
M  CHG  1  29  -1
M  END
>  <filename_input>  (9) 
5SD5_HWI_docked.sdf

>  <pdb_id>  (9) 
5SD5_HWI

>  <pose_rank>  (9) 
8

>  <num_atoms_heavy>  (9) 
29

>  <num_torsions>  (9) 
9

>  <pose>  (9) 
[6.293824126709591, 0.823023277157654, 13.259441785410743, -4.55811223198811, -2.702715063644269, 2.772193209794919, 13.01306184065942, -1.1205299301090683, 0.2483116063538805, -0.030256253698005893, -5.839542540527397, 4.730565810572719, 0.26787959559183466, -1.750130584631069, -1.413367760259868]

>  <energy>  (9) 
-1049.3987139226965

>  <inter_energy>  (9) 
-1142.7886055555039

>  <intra_energy>  (9) 
98.25622656205374

>  <rmsd>  (9) 
2.11202

>  <sdf_rank>  (9) 
0

$$$$

     RDKit          3D

 55 57  0  0  0  0  0  0  0  0999 V2000
    8.5518    3.7954   14.5695 C   0  0  0  0  0  0  0  0  0  0  0  0
    9.8834    1.8840   12.1808 C   0  0  0  0  0  0  0  0  0  0  0  0
    7.5206   -0.9178    9.8969 C   0  0  0  0  0  0  0  0  0  0  0  0
    6.7750   -1.3553    7.6844 C   0  0  0  0  0  0  0  0  0  0  0  0
    7.7821   -0.5383    7.1917 C   0  0  0  0  0  0  0  0  0  0  0  0
    8.6626    0.1159    8.0388 C   0  0  0  0  0  0  0  0  0  0  0  0
   10.2236    0.8936    6.1651 C   0  0  0  0  0  0  0  0  0  0  0  0
    9.8053    1.9203   13.7048 C   0  0  0  0  0  0  0  0  0  0  0  0
    8.9517    0.8133   11.6347 C   0  0  0  0  0  0  0  0  0  0  0  0
    8.5182   -0.0995    9.4147 C   0  0  0  0  0  0  0  0  0  0  0  0
    6.6255   -1.5617    9.0406 C   0  0  0  0  0  0  0  0  0  0  0  0
    5.5333   -2.4689    9.5830 C   0  0  0  0  0  0  0  0  0  0  0  0
    7.5459    1.9173   16.7986 C   0  0  0  0  0  0  0  0  0  0  0  0
    6.8072    3.1778   16.2908 C   0  0  0  0  0  0  0  0  0  0  0  0
    7.7802    4.1317   15.6379 C   0  0  0  0  0  0  0  0  0  0  0  0
    8.6560    6.2603   15.6099 C   0  0  0  0  0  0  0  0  0  0  0  0
    9.4300    4.7818   14.0341 C   0  0  0  0  0  0  0  0  0  0  0  0
   10.2634    2.4378    6.1770 C   0  0  1  0  0  0  0  0  0  0  0  0
    9.7578    2.3879    7.6584 C   0  0  0  0  0  0  0  0  0  0  0  0
   11.6935    3.0525    6.0986 C   0  0  0  0  0  0  0  0  0  0  0  0
    7.8385    5.3726   16.1660 N   0  0  0  0  0  0  0  0  0  0  0  0
    8.6669    7.5007   16.1615 N   0  0  0  0  0  0  0  0  0  0  0  0
    9.4625    6.0125   14.5786 N   0  0  0  0  0  0  0  0  0  0  0  0
   10.2285    4.5315   13.0048 N   0  0  0  0  0  0  0  0  0  0  0  0
    9.6886    0.9082    7.5710 N   0  0  0  0  0  0  0  0  0  0  0  0
    8.5205    2.5164   14.0302 O   0  0  0  0  0  0  0  0  0  0  0  0
    9.3871    0.5689   10.2622 O   0  0  0  0  0  0  0  0  0  0  0  0
   11.7783    4.2545    5.7933 O   0  0  0  0  0  0  0  0  0  0  0  0
   12.6752    2.2779    6.3324 O   0  0  0  0  0  0  0  0  0  0  0  0
    9.5873    2.8638   11.7779 H   0  0  0  0  0  0  0  0  0  0  0  0
   10.9152    1.6512   11.8788 H   0  0  0  0  0  0  0  0  0  0  0  0
    7.4270   -1.0675   10.9826 H   0  0  0  0  0  0  0  0  0  0  0  0
    6.0846   -1.8464    6.9828 H   0  0  0  0  0  0  0  0  0  0  0  0
    7.8841   -0.4068    6.1044 H   0  0  0  0  0  0  0  0  0  0  0  0
    9.5321    0.4662    5.4240 H   0  0  0  0  0  0  0  0  0  0  0  0
   11.1223    0.3115    5.9132 H   0  0  0  0  0  0  0  0  0  0  0  0
    9.8677    0.9013   14.1143 H   0  0  0  0  0  0  0  0  0  0  0  0
   10.6363    2.4983   14.1354 H   0  0  0  0  0  0  0  0  0  0  0  0
    9.0337   -0.1067   12.2321 H   0  0  0  0  0  0  0  0  0  0  0  0
    7.9000    1.1332   11.6748 H   0  0  0  0  0  0  0  0  0  0  0  0
    5.5545   -2.4512   10.6827 H   0  0  0  0  0  0  0  0  0  0  0  0
    4.5536   -2.1151    9.2295 H   0  0  0  0  0  0  0  0  0  0  0  0
    5.7013   -3.4969    9.2295 H   0  0  0  0  0  0  0  0  0  0  0  0
    7.5488    1.9123   17.8986 H   0  0  0  0  0  0  0  0  0  0  0  0
    7.0321    1.0175   16.4292 H   0  0  0  0  0  0  0  0  0  0  0  0
    8.5819    1.9257   16.4292 H   0  0  0  0  0  0  0  0  0  0  0  0
    6.0442    2.8797   15.5567 H   0  0  0  0  0  0  0  0  0  0  0  0
    6.3329    3.6819   17.1457 H   0  0  0  0  0  0  0  0  0  0  0  0
    9.7554    3.0067    5.3843 H   0  0  0  0  0  0  0  0  0  0  0  0
   10.4831    2.7628    8.3955 H   0  0  0  0  0  0  0  0  0  0  0  0
    8.8808    2.9732    7.9722 H   0  0  0  0  0  0  0  0  0  0  0  0
    9.2803    8.2315   15.7736 H   0  0  0  0  0  0  0  0  0  0  0  0
    8.0617    7.7110   16.9680 H   0  0  0  0  0  0  0  0  0  0  0  0
   10.8504    5.2692   12.6442 H   0  0  0  0  0  0  0  0  0  0  0  0
   10.2267    3.5995   12.5662 H   0  0  0  0  0  0  0  0  0  0  0  0
  1 15  2  0
  1 17  1  0
  1 26  1  0
  2  8  1  0
  2  9  1  0
  3 10  2  0
  3 11  1  0
  4  5  1  0
  4 11  2  0
  5  6  2  0
  6 10  1  0
  6 25  1  0
  7 18  1  0
  7 25  1  0
  8 26  1  0
  9 27  1  0
 10 27  1  0
 11 12  1  0
 13 14  1  0
 14 15  1  0
 15 21  1  0
 16 21  2  0
 16 22  1  0
 16 23  1  0
 17 23  2  0
 17 24  1  0
 18 19  1  0
 18 20  1  0
 19 25  1  0
 20 28  2  0
 20 29  1  0
  2 30  1  0
  2 31  1  0
  3 32  1  0
  4 33  1  0
  5 34  1  0
  7 35  1  0
  7 36  1  0
  8 37  1  0
  8 38  1  0
  9 39  1  0
  9 40  1  0
 12 41  1  0
 12 42  1  0
 12 43  1  0
 13 44  1  0
 13 45  1  0
 13 46  1  0
 14 47  1  0
 14 48  1  0
 18 49  1  6
 19 50  1  0
 19 51  1  0
 22 52  1  0
 22 53  1  0
 24 54  1  0
 24 55  1  0
M  CHG  1  29  -1
M  END
>  <filename_input>  (10) 
5SD5_HWI_docked.sdf

>  <pdb_id>  (10) 
5SD5_HWI

>  <pose_rank>  (10) 
9

>  <num_atoms_heavy>  (10) 
29

>  <num_torsions>  (10) 
9

>  <pose>  (10) 
[9.387144808611302, 0.5688914790285015, 10.26221141879242, 0.7899058352347883, 4.375834357434583, -0.9418394067216876, -0.28894492989191817, 2.0817505207437215, 0.13656501702914708, 0.01825688635022546, -4.031951109686674, -2.3844407690076146, 1.0598422019672245, 2.19512340672624, 2.9691769277178253]

>  <energy>  (10) 
-915.1746251898276

>  <inter_energy>  (10) 
-998.4207493847385

>  <intra_energy>  (10) 
71.56057025915652

>  <rmsd>  (10) 
6.22556

>  <sdf_rank>  (10) 
0

$$$$

     RDKit          3D

 55 57  0  0  0  0  0  0  0  0999 V2000
    8.7868    3.7724   14.9192 C   0  0  0  0  0  0  0  0  0  0  0  0
    6.7365    1.8162   13.6060 C   0  0  0  0  0  0  0  0  0  0  0  0
    5.0912   -0.8645   15.3713 C   0  0  0  0  0  0  0  0  0  0  0  0
    3.0945   -1.4705   16.5066 C   0  0  0  0  0  0  0  0  0  0  0  0
    2.3496   -0.9450   15.4609 C   0  0  0  0  0  0  0  0  0  0  0  0
    2.9578   -0.3557   14.3638 C   0  0  0  0  0  0  0  0  0  0  0  0
    1.7576   -0.6574   12.1231 C   0  0  0  0  0  0  0  0  0  0  0  0
    8.1807    2.1469   13.2383 C   0  0  0  0  0  0  0  0  0  0  0  0
    6.4219    0.3732   13.2436 C   0  0  0  0  0  0  0  0  0  0  0  0
    4.3574   -0.3344   14.3332 C   0  0  0  0  0  0  0  0  0  0  0  0
    4.4740   -1.4423   16.4823 C   0  0  0  0  0  0  0  0  0  0  0  0
    5.2934   -2.0317   17.6187 C   0  0  0  0  0  0  0  0  0  0  0  0
   11.8539    4.5087   13.5459 C   0  0  0  0  0  0  0  0  0  0  0  0
   10.3735    4.5158   13.0979 C   0  0  0  0  0  0  0  0  0  0  0  0
    9.4662    4.7625   14.2805 C   0  0  0  0  0  0  0  0  0  0  0  0
    8.6095    6.3105   15.7531 C   0  0  0  0  0  0  0  0  0  0  0  0
    7.9640    4.1250   16.0280 C   0  0  0  0  0  0  0  0  0  0  0  0
    0.3952    0.0666   12.2016 C   0  0  1  0  0  0  0  0  0  0  0  0
    0.9711    0.9117   13.3877 C   0  0  0  0  0  0  0  0  0  0  0  0
    0.0700    0.9758   10.9781 C   0  0  0  0  0  0  0  0  0  0  0  0
    9.3706    6.0428   14.6975 N   0  0  0  0  0  0  0  0  0  0  0  0
    8.5592    7.6082   16.1487 N   0  0  0  0  0  0  0  0  0  0  0  0
    7.8928    5.4097   16.4242 N   0  0  0  0  0  0  0  0  0  0  0  0
    7.2551    3.2241   16.6954 N   0  0  0  0  0  0  0  0  0  0  0  0
    2.2391    0.1460   13.3002 N   0  0  0  0  0  0  0  0  0  0  0  0
    8.8562    2.4545   14.4878 O   0  0  0  0  0  0  0  0  0  0  0  0
    4.9650    0.2710   13.2447 O   0  0  0  0  0  0  0  0  0  0  0  0
   -1.1074    1.3524   10.8484 O   0  0  0  0  0  0  0  0  0  0  0  0
    1.0266    1.2531   10.1866 O   0  0  0  0  0  0  0  0  0  0  0  0
    6.5947    1.9588   14.6875 H   0  0  0  0  0  0  0  0  0  0  0  0
    6.0617    2.4825   13.0487 H   0  0  0  0  0  0  0  0  0  0  0  0
    6.1897   -0.8319   15.3238 H   0  0  0  0  0  0  0  0  0  0  0  0
    2.5774   -1.9169   17.3688 H   0  0  0  0  0  0  0  0  0  0  0  0
    1.2517   -0.9970   15.5036 H   0  0  0  0  0  0  0  0  0  0  0  0
    1.7039   -1.7404   12.3080 H   0  0  0  0  0  0  0  0  0  0  0  0
    2.3302   -0.6744   11.1840 H   0  0  0  0  0  0  0  0  0  0  0  0
    8.6570    1.2841   12.7496 H   0  0  0  0  0  0  0  0  0  0  0  0
    8.2324    2.9917   12.5358 H   0  0  0  0  0  0  0  0  0  0  0  0
    6.8219    0.1325   12.2476 H   0  0  0  0  0  0  0  0  0  0  0  0
    6.8776   -0.3314   13.9549 H   0  0  0  0  0  0  0  0  0  0  0  0
    4.8616   -1.7211   18.5815 H   0  0  0  0  0  0  0  0  0  0  0  0
    5.2814   -3.1293   17.5485 H   0  0  0  0  0  0  0  0  0  0  0  0
    6.3302   -1.6711   17.5485 H   0  0  0  0  0  0  0  0  0  0  0  0
   11.9045    4.5085   14.6447 H   0  0  0  0  0  0  0  0  0  0  0  0
   12.3508    3.6082   13.1558 H   0  0  0  0  0  0  0  0  0  0  0  0
   12.3594    5.4045   13.1558 H   0  0  0  0  0  0  0  0  0  0  0  0
   10.2239    5.3122   12.3539 H   0  0  0  0  0  0  0  0  0  0  0  0
   10.1291    3.5374   12.6588 H   0  0  0  0  0  0  0  0  0  0  0  0
   -0.5341   -0.5177   12.2717 H   0  0  0  0  0  0  0  0  0  0  0  0
    1.0759    1.9845   13.1680 H   0  0  0  0  0  0  0  0  0  0  0  0
    0.4255    0.9872   14.3399 H   0  0  0  0  0  0  0  0  0  0  0  0
    7.9859    7.8771   16.9610 H   0  0  0  0  0  0  0  0  0  0  0  0
    9.0944    8.3238   15.6365 H   0  0  0  0  0  0  0  0  0  0  0  0
    6.6711    3.5156   17.4922 H   0  0  0  0  0  0  0  0  0  0  0  0
    7.2885    2.2331   16.4168 H   0  0  0  0  0  0  0  0  0  0  0  0
  1 15  2  0
  1 17  1  0
  1 26  1  0
  2  8  1  0
  2  9  1  0
  3 10  2  0
  3 11  1  0
  4  5  1  0
  4 11  2  0
  5  6  2  0
  6 10  1  0
  6 25  1  0
  7 18  1  0
  7 25  1  0
  8 26  1  0
  9 27  1  0
 10 27  1  0
 11 12  1  0
 13 14  1  0
 14 15  1  0
 15 21  1  0
 16 21  2  0
 16 22  1  0
 16 23  1  0
 17 23  2  0
 17 24  1  0
 18 19  1  0
 18 20  1  0
 19 25  1  0
 20 28  2  0
 20 29  1  0
  2 30  1  0
  2 31  1  0
  3 32  1  0
  4 33  1  0
  5 34  1  0
  7 35  1  0
  7 36  1  0
  8 37  1  0
  8 38  1  0
  9 39  1  0
  9 40  1  0
 12 41  1  0
 12 42  1  0
 12 43  1  0
 13 44  1  0
 13 45  1  0
 13 46  1  0
 14 47  1  0
 14 48  1  0
 18 49  1  1
 19 50  1  0
 19 51  1  0
 22 52  1  0
 22 53  1  0
 24 54  1  0
 24 55  1  0
M  CHG  1  29  -1
M  END
>  <filename_input>  (11) 
5SD5_HWI_docked.sdf

>  <pdb_id>  (11) 
5SD5_HWI

>  <pose_rank>  (11) 
10

>  <num_atoms_heavy>  (11) 
29

>  <num_torsions>  (11) 
9

>  <pose>  (11) 
[4.964958633089212, 0.27100735148291655, 13.244748412831324, -1.6500747538856573, -2.767138542096706, -4.964313344734591, 0.07579164319846193, 0.8908973069161971, 0.16241228257760404, 7.361463274039695, 2.2450569648706744, 3.129563698324354, -4.838987541494528, 3.324127146714165, 0.1831191529947227]

>  <energy>  (11) 
-882.6019431394062

>  <inter_energy>  (11) 
-891.4753877149569

>  <intra_energy>  (11) 
14.79003827911099

>  <rmsd>  (11) 
2.48175

>  <sdf_rank>  (11) 
0

$$$$

     RDKit          3D

 55 57  0  0  0  0  0  0  0  0999 V2000
    8.3096    3.0118   15.0465 C   0  0  0  0  0  0  0  0  0  0  0  0
    6.2178    0.8994   13.6082 C   0  0  0  0  0  0  0  0  0  0  0  0
    5.4283   -1.3401   14.0999 C   0  0  0  0  0  0  0  0  0  0  0  0
    3.9293   -2.4256   15.5890 C   0  0  0  0  0  0  0  0  0  0  0  0
    2.8606   -1.9855   14.8216 C   0  0  0  0  0  0  0  0  0  0  0  0
    3.0531   -1.2030   13.6941 C   0  0  0  0  0  0  0  0  0  0  0  0
    0.5661   -1.1608   13.0893 C   0  0  0  0  0  0  0  0  0  0  0  0
    7.6303    1.4220   13.3594 C   0  0  0  0  0  0  0  0  0  0  0  0
    5.3536    1.1214   12.3767 C   0  0  0  0  0  0  0  0  0  0  0  0
    4.3713   -0.8938   13.3378 C   0  0  0  0  0  0  0  0  0  0  0  0
    5.2287   -2.1144   15.2444 C   0  0  0  0  0  0  0  0  0  0  0  0
    6.4028   -2.6083   16.0737 C   0  0  0  0  0  0  0  0  0  0  0  0
    9.8987    4.8513   12.1277 C   0  0  0  0  0  0  0  0  0  0  0  0
    9.5801    3.5705   12.9342 C   0  0  0  0  0  0  0  0  0  0  0  0
    8.9278    3.9249   14.2501 C   0  0  0  0  0  0  0  0  0  0  0  0
    8.4722    5.5810   15.7826 C   0  0  0  0  0  0  0  0  0  0  0  0
    7.7342    3.4628   16.2697 C   0  0  0  0  0  0  0  0  0  0  0  0
    0.1566    0.3049   12.8239 C   0  0  1  0  0  0  0  0  0  0  0  0
    1.6697    0.6299   12.5837 C   0  0  0  0  0  0  0  0  0  0  0  0
   -0.6721    0.5235   11.5221 C   0  0  0  0  0  0  0  0  0  0  0  0
    9.0032    5.2212   14.6190 N   0  0  0  0  0  0  0  0  0  0  0  0
    8.5892    6.8903   16.1214 N   0  0  0  0  0  0  0  0  0  0  0  0
    7.8298    4.7609   16.6135 N   0  0  0  0  0  0  0  0  0  0  0  0
    7.0987    2.6419   17.0955 N   0  0  0  0  0  0  0  0  0  0  0  0
    2.0090   -0.7795   12.9003 N   0  0  0  0  0  0  0  0  0  0  0  0
    8.2033    1.6797   14.6699 O   0  0  0  0  0  0  0  0  0  0  0  0
    4.5625   -0.0963   12.2208 O   0  0  0  0  0  0  0  0  0  0  0  0
   -0.3663   -0.1643   10.5329 O   0  0  0  0  0  0  0  0  0  0  0  0
   -1.5898    1.4038   11.5555 O   0  0  0  0  0  0  0  0  0  0  0  0
    6.2623   -0.1766   13.8322 H   0  0  0  0  0  0  0  0  0  0  0  0
    5.7783    1.4412   14.4587 H   0  0  0  0  0  0  0  0  0  0  0  0
    6.4541   -1.0802   13.7996 H   0  0  0  0  0  0  0  0  0  0  0  0
    3.7378   -3.0323   16.4863 H   0  0  0  0  0  0  0  0  0  0  0  0
    1.8375   -2.2640   15.1147 H   0  0  0  0  0  0  0  0  0  0  0  0
    0.3236   -1.5207   14.1000 H   0  0  0  0  0  0  0  0  0  0  0  0
    0.1221   -1.9813   12.5065 H   0  0  0  0  0  0  0  0  0  0  0  0
    8.2268    0.6689   12.8236 H   0  0  0  0  0  0  0  0  0  0  0  0
    7.6184    2.3316   12.7409 H   0  0  0  0  0  0  0  0  0  0  0  0
    4.6948    1.9901   12.5227 H   0  0  0  0  0  0  0  0  0  0  0  0
    5.9645    1.3242   11.4847 H   0  0  0  0  0  0  0  0  0  0  0  0
    6.1644   -2.5080   17.1429 H   0  0  0  0  0  0  0  0  0  0  0  0
    6.5985   -3.6651   15.8392 H   0  0  0  0  0  0  0  0  0  0  0  0
    7.2951   -2.0093   15.8392 H   0  0  0  0  0  0  0  0  0  0  0  0
   10.1047    5.6797   12.8215 H   0  0  0  0  0  0  0  0  0  0  0  0
   10.7805    4.6757   11.4940 H   0  0  0  0  0  0  0  0  0  0  0  0
    9.0373    5.1094   11.4940 H   0  0  0  0  0  0  0  0  0  0  0  0
    8.8973    2.9353   12.3507 H   0  0  0  0  0  0  0  0  0  0  0  0
   10.5184    3.0326   13.1346 H   0  0  0  0  0  0  0  0  0  0  0  0
   -0.4680    0.8415   13.5533 H   0  0  0  0  0  0  0  0  0  0  0  0
    1.9083    0.9307   11.5528 H   0  0  0  0  0  0  0  0  0  0  0  0
    2.1575    1.4584   13.1182 H   0  0  0  0  0  0  0  0  0  0  0  0
    8.1972    7.2289   17.0117 H   0  0  0  0  0  0  0  0  0  0  0  0
    9.0698    7.5452   15.4882 H   0  0  0  0  0  0  0  0  0  0  0  0
    6.6950    3.0033   17.9714 H   0  0  0  0  0  0  0  0  0  0  0  0
    7.0089    1.6430   16.8607 H   0  0  0  0  0  0  0  0  0  0  0  0
  1 15  2  0
  1 17  1  0
  1 26  1  0
  2  8  1  0
  2  9  1  0
  3 10  2  0
  3 11  1  0
  4  5  1  0
  4 11  2  0
  5  6  2  0
  6 10  1  0
  6 25  1  0
  7 18  1  0
  7 25  1  0
  8 26  1  0
  9 27  1  0
 10 27  1  0
 11 12  1  0
 13 14  1  0
 14 15  1  0
 15 21  1  0
 16 21  2  0
 16 22  1  0
 16 23  1  0
 17 23  2  0
 17 24  1  0
 18 19  1  0
 18 20  1  0
 19 25  1  0
 20 28  2  0
 20 29  1  0
  2 30  1  0
  2 31  1  0
  3 32  1  0
  4 33  1  0
  5 34  1  0
  7 35  1  0
  7 36  1  0
  8 37  1  0
  8 38  1  0
  9 39  1  0
  9 40  1  0
 12 41  1  0
 12 42  1  0
 12 43  1  0
 13 44  1  0
 13 45  1  0
 13 46  1  0
 14 47  1  0
 14 48  1  0
 18 49  1  1
 19 50  1  0
 19 51  1  0
 22 52  1  0
 22 53  1  0
 24 54  1  0
 24 55  1  0
M  CHG  1  29  -1
M  END
>  <filename_input>  (12) 
5SD5_HWI_docked.sdf

>  <pdb_id>  (12) 
5SD5_HWI

>  <pose_rank>  (12) 
11

>  <num_atoms_heavy>  (12) 
29

>  <num_torsions>  (12) 
9

>  <pose>  (12) 
[4.562471998151672, -0.09630006089688858, 12.22080989690879, 0.7802498405670276, -0.02027849041877782, -5.010547429786143, -13.38306125031344, 2.312561185070075, 2.9137812635985676, 40.96438070628579, 1.2274623538042428, 20.481065052383183, -5.158164359537383, 3.6398442119824317, 4.857420169161495]

>  <energy>  (12) 
-564.1966204662151

>  <inter_energy>  (12) 
-650.0423159225372

>  <intra_energy>  (12) 
93.06048813789042

>  <rmsd>  (12) 
2.90849

>  <sdf_rank>  (12) 
0

$$$$

     RDKit          3D

 55 57  0  0  0  0  0  0  0  0999 V2000
    8.2295    2.3270   14.4849 C   0  0  0  0  0  0  0  0  0  0  0  0
    6.1578    1.4501   12.5321 C   0  0  0  0  0  0  0  0  0  0  0  0
    5.7835   -1.5642   14.8915 C   0  0  0  0  0  0  0  0  0  0  0  0
    4.6051   -3.5631   15.3995 C   0  0  0  0  0  0  0  0  0  0  0  0
    3.4411   -2.9935   14.9044 C   0  0  0  0  0  0  0  0  0  0  0  0
    3.4219   -1.6981   14.4121 C   0  0  0  0  0  0  0  0  0  0  0  0
    1.7042   -1.4260   12.5339 C   0  0  0  0  0  0  0  0  0  0  0  0
    7.4051    0.6678   12.9349 C   0  0  0  0  0  0  0  0  0  0  0  0
    4.9446    0.5332   12.5263 C   0  0  0  0  0  0  0  0  0  0  0  0
    4.6298   -0.9901   14.4052 C   0  0  0  0  0  0  0  0  0  0  0  0
    5.7946   -2.8636   15.4018 C   0  0  0  0  0  0  0  0  0  0  0  0
    7.0751   -3.4903   15.9287 C   0  0  0  0  0  0  0  0  0  0  0  0
    5.2742    3.0903   15.7334 C   0  0  0  0  0  0  0  0  0  0  0  0
    6.6378    2.7815   16.3948 C   0  0  0  0  0  0  0  0  0  0  0  0
    7.7701    3.1505   15.4650 C   0  0  0  0  0  0  0  0  0  0  0  0
    9.2878    4.7617   14.8328 C   0  0  0  0  0  0  0  0  0  0  0  0
    9.3005    2.7860   13.6645 C   0  0  0  0  0  0  0  0  0  0  0  0
    0.2923   -1.4590   13.1597 C   0  0  1  0  0  0  0  0  0  0  0  0
    0.9483   -1.0873   14.5324 C   0  0  0  0  0  0  0  0  0  0  0  0
   -0.6613   -0.3256   12.6747 C   0  0  0  0  0  0  0  0  0  0  0  0
    8.3090    4.3752   15.6440 N   0  0  0  0  0  0  0  0  0  0  0  0
    9.7855    6.0081   15.0371 N   0  0  0  0  0  0  0  0  0  0  0  0
    9.8142    4.0143   13.8634 N   0  0  0  0  0  0  0  0  0  0  0  0
    9.8190    2.0397   12.6981 N   0  0  0  0  0  0  0  0  0  0  0  0
    2.2846   -1.1225   13.8881 N   0  0  0  0  0  0  0  0  0  0  0  0
    7.7017    1.0557   14.3037 O   0  0  0  0  0  0  0  0  0  0  0  0
    4.6066    0.3113   13.9297 O   0  0  0  0  0  0  0  0  0  0  0  0
   -1.8790   -0.4899   12.8619 O   0  0  0  0  0  0  0  0  0  0  0  0
   -0.1299    0.6793   12.1033 O   0  0  0  0  0  0  0  0  0  0  0  0
    5.9930    2.2669   13.2502 H   0  0  0  0  0  0  0  0  0  0  0  0
    6.3020    1.8624   11.5225 H   0  0  0  0  0  0  0  0  0  0  0  0
    6.7186   -0.9849   14.8776 H   0  0  0  0  0  0  0  0  0  0  0  0
    4.5794   -4.5886   15.7967 H   0  0  0  0  0  0  0  0  0  0  0  0
    2.5125   -3.5833   14.9024 H   0  0  0  0  0  0  0  0  0  0  0  0
    2.0312   -2.3860   12.1081 H   0  0  0  0  0  0  0  0  0  0  0  0
    1.9207   -0.7766   11.6728 H   0  0  0  0  0  0  0  0  0  0  0  0
    7.2121   -0.4136   12.8781 H   0  0  0  0  0  0  0  0  0  0  0  0
    8.2494    0.8859   12.2643 H   0  0  0  0  0  0  0  0  0  0  0  0
    4.1050    1.0122   12.0013 H   0  0  0  0  0  0  0  0  0  0  0  0
    5.1548   -0.4130   12.0061 H   0  0  0  0  0  0  0  0  0  0  0  0
    7.0611   -3.4835   17.0286 H   0  0  0  0  0  0  0  0  0  0  0  0
    7.1507   -4.5272   15.5694 H   0  0  0  0  0  0  0  0  0  0  0  0
    7.9403   -2.9138   15.5694 H   0  0  0  0  0  0  0  0  0  0  0  0
    4.5184    3.2614   16.5142 H   0  0  0  0  0  0  0  0  0  0  0  0
    5.3655    3.9905   15.1079 H   0  0  0  0  0  0  0  0  0  0  0  0
    4.9688    2.2385   15.1079 H   0  0  0  0  0  0  0  0  0  0  0  0
    6.7291    3.3616   17.3250 H   0  0  0  0  0  0  0  0  0  0  0  0
    6.6925    1.7049   16.6137 H   0  0  0  0  0  0  0  0  0  0  0  0
   -0.3516   -2.3394   13.0168 H   0  0  0  0  0  0  0  0  0  0  0  0
    0.6591   -0.0983   14.9174 H   0  0  0  0  0  0  0  0  0  0  0  0
    0.7434   -1.6852   15.4326 H   0  0  0  0  0  0  0  0  0  0  0  0
   10.5456    6.3634   14.4396 H   0  0  0  0  0  0  0  0  0  0  0  0
    9.4031    6.5984   15.7896 H   0  0  0  0  0  0  0  0  0  0  0  0
   10.5929    2.4046   12.1247 H   0  0  0  0  0  0  0  0  0  0  0  0
    9.4476    1.0955   12.5211 H   0  0  0  0  0  0  0  0  0  0  0  0
  1 15  2  0
  1 17  1  0
  1 26  1  0
  2  8  1  0
  2  9  1  0
  3 10  2  0
  3 11  1  0
  4  5  1  0
  4 11  2  0
  5  6  2  0
  6 10  1  0
  6 25  1  0
  7 18  1  0
  7 25  1  0
  8 26  1  0
  9 27  1  0
 10 27  1  0
 11 12  1  0
 13 14  1  0
 14 15  1  0
 15 21  1  0
 16 21  2  0
 16 22  1  0
 16 23  1  0
 17 23  2  0
 17 24  1  0
 18 19  1  0
 18 20  1  0
 19 25  1  0
 20 28  2  0
 20 29  1  0
  2 30  1  0
  2 31  1  0
  3 32  1  0
  4 33  1  0
  5 34  1  0
  7 35  1  0
  7 36  1  0
  8 37  1  0
  8 38  1  0
  9 39  1  0
  9 40  1  0
 12 41  1  0
 12 42  1  0
 12 43  1  0
 13 44  1  0
 13 45  1  0
 13 46  1  0
 14 47  1  0
 14 48  1  0
 18 49  1  1
 19 50  1  0
 19 51  1  0
 22 52  1  0
 22 53  1  0
 24 54  1  0
 24 55  1  0
M  CHG  1  29  -1
M  END
>  <filename_input>  (13) 
5SD5_HWI_docked.sdf

>  <pdb_id>  (13) 
5SD5_HWI

>  <pose_rank>  (13) 
12

>  <num_atoms_heavy>  (13) 
29

>  <num_torsions>  (13) 
9

>  <pose>  (13) 
[4.606567735027047, 0.3112552522508931, 13.929708250827346, 1.2188139159996156, 1.2863304504718591, -0.3543047626280453, 7.9128364212782305, 7.344079943645003, 0.10657819357420406, 19.631636578195426, 12.68482877824838, 3.3371916941182134, -4.5934588355596615, 0.6348974960818582, -5.807592478065489]

>  <energy>  (13) 
-593.3849011458121

>  <inter_energy>  (13) 
-623.2018504409625

>  <intra_energy>  (13) 
41.87209096982262

>  <rmsd>  (13) 
2.75134

>  <sdf_rank>  (13) 
0

$$$$

     RDKit          3D

 55 57  0  0  0  0  0  0  0  0999 V2000
    8.4692    2.1721   14.2558 C   0  0  0  0  0  0  0  0  0  0  0  0
    5.7020    3.7349   16.1174 C   0  0  0  0  0  0  0  0  0  0  0  0
    4.9664    0.2285   16.6935 C   0  0  0  0  0  0  0  0  0  0  0  0
    4.2667   -1.9941   16.2315 C   0  0  0  0  0  0  0  0  0  0  0  0
    3.6342   -1.5474   15.0804 C   0  0  0  0  0  0  0  0  0  0  0  0
    3.6403   -0.2079   14.7247 C   0  0  0  0  0  0  0  0  0  0  0  0
    3.7312    1.0615   12.5038 C   0  0  0  0  0  0  0  0  0  0  0  0
    6.3980    3.2689   14.8412 C   0  0  0  0  0  0  0  0  0  0  0  0
    4.3780    3.0063   16.2868 C   0  0  0  0  0  0  0  0  0  0  0  0
    4.3343    0.6796   15.5559 C   0  0  0  0  0  0  0  0  0  0  0  0
    4.9436   -1.1194   17.0567 C   0  0  0  0  0  0  0  0  0  0  0  0
    5.6513   -1.6078   18.3100 C   0  0  0  0  0  0  0  0  0  0  0  0
    8.9122   -1.5713   14.7418 C   0  0  0  0  0  0  0  0  0  0  0  0
    8.5238   -0.1575   15.2344 C   0  0  0  0  0  0  0  0  0  0  0  0
    8.8919    0.8806   14.2002 C   0  0  0  0  0  0  0  0  0  0  0  0
   10.0746    1.3426   12.2801 C   0  0  0  0  0  0  0  0  0  0  0  0
    8.8858    3.0637   13.2252 C   0  0  0  0  0  0  0  0  0  0  0  0
    3.0410    0.1990   11.4239 C   0  0  1  0  0  0  0  0  0  0  0  0
    2.3120   -0.5697   12.5773 C   0  0  0  0  0  0  0  0  0  0  0  0
    2.0171    0.9668   10.5342 C   0  0  0  0  0  0  0  0  0  0  0  0
    9.6957    0.4617   13.1998 N   0  0  0  0  0  0  0  0  0  0  0  0
   10.8986    0.8816   11.3047 N   0  0  0  0  0  0  0  0  0  0  0  0
    9.6919    2.6185   12.2433 N   0  0  0  0  0  0  0  0  0  0  0  0
    8.5052    4.3341   13.1947 N   0  0  0  0  0  0  0  0  0  0  0  0
    3.0444    0.2539   13.5710 N   0  0  0  0  0  0  0  0  0  0  0  0
    7.6232    2.6122   15.2650 O   0  0  0  0  0  0  0  0  0  0  0  0
    4.3248    2.0214   15.2098 O   0  0  0  0  0  0  0  0  0  0  0  0
    0.9277    1.2662   11.0526 O   0  0  0  0  0  0  0  0  0  0  0  0
    2.3584    1.2162    9.3344 O   0  0  0  0  0  0  0  0  0  0  0  0
    6.3476    3.5221   16.9822 H   0  0  0  0  0  0  0  0  0  0  0  0
    5.5116    4.8161   16.0492 H   0  0  0  0  0  0  0  0  0  0  0  0
    5.5019    0.9473   17.3310 H   0  0  0  0  0  0  0  0  0  0  0  0
    4.2281   -3.0624   16.4905 H   0  0  0  0  0  0  0  0  0  0  0  0
    3.1163   -2.2727   14.4356 H   0  0  0  0  0  0  0  0  0  0  0  0
    4.8281    0.9801   12.5126 H   0  0  0  0  0  0  0  0  0  0  0  0
    3.6431    2.1578   12.4864 H   0  0  0  0  0  0  0  0  0  0  0  0
    5.7568    2.5630   14.2929 H   0  0  0  0  0  0  0  0  0  0  0  0
    6.6076    4.1129   14.1676 H   0  0  0  0  0  0  0  0  0  0  0  0
    4.3387    2.5060   17.2657 H   0  0  0  0  0  0  0  0  0  0  0  0
    3.5256    3.7003   16.2431 H   0  0  0  0  0  0  0  0  0  0  0  0
    5.1182   -1.2399   19.1990 H   0  0  0  0  0  0  0  0  0  0  0  0
    5.6639   -2.7076   18.3190 H   0  0  0  0  0  0  0  0  0  0  0  0
    6.6841   -1.2292   18.3190 H   0  0  0  0  0  0  0  0  0  0  0  0
    9.0918   -2.2250   15.6081 H   0  0  0  0  0  0  0  0  0  0  0  0
    8.0945   -1.9852   14.1335 H   0  0  0  0  0  0  0  0  0  0  0  0
    9.8266   -1.5093   14.1335 H   0  0  0  0  0  0  0  0  0  0  0  0
    7.4391   -0.1216   15.4139 H   0  0  0  0  0  0  0  0  0  0  0  0
    9.0685    0.0579   16.1655 H   0  0  0  0  0  0  0  0  0  0  0  0
    3.6442   -0.3010   10.6518 H   0  0  0  0  0  0  0  0  0  0  0  0
    1.2209   -0.4308   12.5928 H   0  0  0  0  0  0  0  0  0  0  0  0
    2.3429   -1.6681   12.6269 H   0  0  0  0  0  0  0  0  0  0  0  0
   11.2260    1.5179   10.5639 H   0  0  0  0  0  0  0  0  0  0  0  0
   11.1963   -0.1044   11.3055 H   0  0  0  0  0  0  0  0  0  0  0  0
    8.8263    4.9498   12.4339 H   0  0  0  0  0  0  0  0  0  0  0  0
    7.8887    4.7049   13.9318 H   0  0  0  0  0  0  0  0  0  0  0  0
  1 15  2  0
  1 17  1  0
  1 26  1  0
  2  8  1  0
  2  9  1  0
  3 10  2  0
  3 11  1  0
  4  5  1  0
  4 11  2  0
  5  6  2  0
  6 10  1  0
  6 25  1  0
  7 18  1  0
  7 25  1  0
  8 26  1  0
  9 27  1  0
 10 27  1  0
 11 12  1  0
 13 14  1  0
 14 15  1  0
 15 21  1  0
 16 21  2  0
 16 22  1  0
 16 23  1  0
 17 23  2  0
 17 24  1  0
 18 19  1  0
 18 20  1  0
 19 25  1  0
 20 28  2  0
 20 29  1  0
  2 30  1  0
  2 31  1  0
  3 32  1  0
  4 33  1  0
  5 34  1  0
  7 35  1  0
  7 36  1  0
  8 37  1  0
  8 38  1  0
  9 39  1  0
  9 40  1  0
 12 41  1  0
 12 42  1  0
 12 43  1  0
 13 44  1  0
 13 45  1  0
 13 46  1  0
 14 47  1  0
 14 48  1  0
 18 49  1  6
 19 50  1  0
 19 51  1  0
 22 52  1  0
 22 53  1  0
 24 54  1  0
 24 55  1  0
M  CHG  1  29  -1
M  END
>  <filename_input>  (14) 
5SD5_HWI_docked.sdf

>  <pdb_id>  (14) 
5SD5_HWI

>  <pose_rank>  (14) 
13

>  <num_atoms_heavy>  (14) 
29

>  <num_torsions>  (14) 
9

>  <pose>  (14) 
[4.324780920534975, 2.0213697697028, 15.209769147669068, 0.17559132894512167, -0.7631484207801442, 1.509260474388944, 12.155387443808591, -6.083234012864216, 2.2742342719403124, -7.685867783668472, -38.794264756435986, -9.415876327920078, -18.957811429898758, -35.331826098359464, -1.400023998862236]

>  <energy>  (14) 
-542.400348943797

>  <inter_energy>  (14) 
-592.4595854854847

>  <intra_energy>  (14) 
39.79239628082247

>  <rmsd>  (14) 
3.44003

>  <sdf_rank>  (14) 
0

$$$$

     RDKit          3D

 55 57  0  0  0  0  0  0  0  0999 V2000
    6.7521    3.1102   17.0977 C   0  0  0  0  0  0  0  0  0  0  0  0
    5.9855   -0.1940   16.6913 C   0  0  0  0  0  0  0  0  0  0  0  0
    7.2371    0.3650   13.7326 C   0  0  0  0  0  0  0  0  0  0  0  0
    7.5845    0.9303   11.4517 C   0  0  0  0  0  0  0  0  0  0  0  0
    6.2189    0.8325   11.2275 C   0  0  0  0  0  0  0  0  0  0  0  0
    5.3422    0.4832   12.2425 C   0  0  0  0  0  0  0  0  0  0  0  0
    3.0637    1.5889   11.8706 C   0  0  0  0  0  0  0  0  0  0  0  0
    5.3561    1.1953   16.6292 C   0  0  0  0  0  0  0  0  0  0  0  0
    5.4844   -1.0472   15.5365 C   0  0  0  0  0  0  0  0  0  0  0  0
    5.8812    0.2591   13.5151 C   0  0  0  0  0  0  0  0  0  0  0  0
    8.1185    0.7010   12.7033 C   0  0  0  0  0  0  0  0  0  0  0  0
    9.6122    0.8230   12.9561 C   0  0  0  0  0  0  0  0  0  0  0  0
    4.6836    3.0700   14.4463 C   0  0  0  0  0  0  0  0  0  0  0  0
    4.7203    3.8433   15.7854 C   0  0  0  0  0  0  0  0  0  0  0  0
    6.1444    3.9981   16.2657 C   0  0  0  0  0  0  0  0  0  0  0  0
    8.0770    5.2453   16.1731 C   0  0  0  0  0  0  0  0  0  0  0  0
    8.1025    3.3581   17.4794 C   0  0  0  0  0  0  0  0  0  0  0  0
    2.3419    0.8395   10.7288 C   0  0  1  0  0  0  0  0  0  0  0  0
    3.2882   -0.3786   10.9996 C   0  0  0  0  0  0  0  0  0  0  0  0
    0.8584    0.4681   11.0300 C   0  0  0  0  0  0  0  0  0  0  0  0
    6.8111    5.0779   15.8056 N   0  0  0  0  0  0  0  0  0  0  0  0
    8.7136    6.3338   15.6703 N   0  0  0  0  0  0  0  0  0  0  0  0
    8.7433    4.4407   17.0002 N   0  0  0  0  0  0  0  0  0  0  0  0
    8.7631    2.5523   18.3003 N   0  0  0  0  0  0  0  0  0  0  0  0
    3.9795    0.4091   12.0502 N   0  0  0  0  0  0  0  0  0  0  0  0
    6.0724    2.0078   17.5981 O   0  0  0  0  0  0  0  0  0  0  0  0
    5.0066   -0.1078   14.5254 O   0  0  0  0  0  0  0  0  0  0  0  0
    0.3964    0.8234   12.1280 O   0  0  0  0  0  0  0  0  0  0  0  0
    0.2295   -0.1896   10.1411 O   0  0  0  0  0  0  0  0  0  0  0  0
    7.0796   -0.1009   16.6267 H   0  0  0  0  0  0  0  0  0  0  0  0
    5.7058   -0.6736   17.6409 H   0  0  0  0  0  0  0  0  0  0  0  0
    7.6351    0.1805   14.7413 H   0  0  0  0  0  0  0  0  0  0  0  0
    8.2521    1.1949   10.6185 H   0  0  0  0  0  0  0  0  0  0  0  0
    5.8231    1.0368   10.2217 H   0  0  0  0  0  0  0  0  0  0  0  0
    3.5730    2.5108   11.5534 H   0  0  0  0  0  0  0  0  0  0  0  0
    2.4968    1.9933   12.7221 H   0  0  0  0  0  0  0  0  0  0  0  0
    5.4662    1.6192   15.6202 H   0  0  0  0  0  0  0  0  0  0  0  0
    4.2799    1.1586   16.8540 H   0  0  0  0  0  0  0  0  0  0  0  0
    6.3018   -1.6623   15.1319 H   0  0  0  0  0  0  0  0  0  0  0  0
    4.6889   -1.7358   15.8574 H   0  0  0  0  0  0  0  0  0  0  0  0
    9.8007    0.8384   14.0397 H   0  0  0  0  0  0  0  0  0  0  0  0
   10.1317   -0.0357   12.5057 H   0  0  0  0  0  0  0  0  0  0  0  0
    9.9854    1.7546   12.5057 H   0  0  0  0  0  0  0  0  0  0  0  0
    4.6324    1.9899   14.6480 H   0  0  0  0  0  0  0  0  0  0  0  0
    3.7991    3.3777   13.8693 H   0  0  0  0  0  0  0  0  0  0  0  0
    5.5933    3.2925   13.8693 H   0  0  0  0  0  0  0  0  0  0  0  0
    4.2763    4.8393   15.6409 H   0  0  0  0  0  0  0  0  0  0  0  0
    4.1492    3.2802   16.5382 H   0  0  0  0  0  0  0  0  0  0  0  0
    2.2349    1.3135    9.7420 H   0  0  0  0  0  0  0  0  0  0  0  0
    2.7731   -1.2756   11.3740 H   0  0  0  0  0  0  0  0  0  0  0  0
    3.8568   -0.8408   10.1793 H   0  0  0  0  0  0  0  0  0  0  0  0
    9.6961    6.5165   15.9194 H   0  0  0  0  0  0  0  0  0  0  0  0
    8.2139    6.9770   15.0398 H   0  0  0  0  0  0  0  0  0  0  0  0
    9.7387    2.7631   18.5544 H   0  0  0  0  0  0  0  0  0  0  0  0
    8.3003    1.7157   18.6837 H   0  0  0  0  0  0  0  0  0  0  0  0
  1 15  2  0
  1 17  1  0
  1 26  1  0
  2  8  1  0
  2  9  1  0
  3 10  2  0
  3 11  1  0
  4  5  1  0
  4 11  2  0
  5  6  2  0
  6 10  1  0
  6 25  1  0
  7 18  1  0
  7 25  1  0
  8 26  1  0
  9 27  1  0
 10 27  1  0
 11 12  1  0
 13 14  1  0
 14 15  1  0
 15 21  1  0
 16 21  2  0
 16 22  1  0
 16 23  1  0
 17 23  2  0
 17 24  1  0
 18 19  1  0
 18 20  1  0
 19 25  1  0
 20 28  2  0
 20 29  1  0
  2 30  1  0
  2 31  1  0
  3 32  1  0
  4 33  1  0
  5 34  1  0
  7 35  1  0
  7 36  1  0
  8 37  1  0
  8 38  1  0
  9 39  1  0
  9 40  1  0
 12 41  1  0
 12 42  1  0
 12 43  1  0
 13 44  1  0
 13 45  1  0
 13 46  1  0
 14 47  1  0
 14 48  1  0
 18 49  1  6
 19 50  1  0
 19 51  1  0
 22 52  1  0
 22 53  1  0
 24 54  1  0
 24 55  1  0
M  CHG  1  29  -1
M  END
>  <filename_input>  (15) 
5SD5_HWI_docked.sdf

>  <pdb_id>  (15) 
5SD5_HWI

>  <pose_rank>  (15) 
14

>  <num_atoms_heavy>  (15) 
29

>  <num_torsions>  (15) 
9

>  <pose>  (15) 
[5.006579542489174, -0.10782815551788284, 14.52542300005401, -2.235832425104284, 1.4744847694103032, -1.5368350838554257, 5.813620955685127, -5.167161791582275, -2.698229514964255, 23.377014188416982, 55.73097624823518, 58.758948563552565, 23.88725071392687, -7.134952552413371, 0.3436267675354331]

>  <energy>  (15) 
-549.266638635957

>  <inter_energy>  (15) 
-636.3457563083596

>  <intra_energy>  (15) 
91.32503566361821

>  <rmsd>  (15) 
3.53574

>  <sdf_rank>  (15) 
0

$$$$

     RDKit          3D

 55 57  0  0  0  0  0  0  0  0999 V2000
    6.9212    3.1722   16.5627 C   0  0  0  0  0  0  0  0  0  0  0  0
    4.9445    0.3131   16.2772 C   0  0  0  0  0  0  0  0  0  0  0  0
    1.9677    1.5043   13.0017 C   0  0  0  0  0  0  0  0  0  0  0  0
    1.9396    1.0253   10.6752 C   0  0  0  0  0  0  0  0  0  0  0  0
    3.2630    0.6161   10.7514 C   0  0  0  0  0  0  0  0  0  0  0  0
    3.9664    0.6597   11.9447 C   0  0  0  0  0  0  0  0  0  0  0  0
    6.4672    0.9411   11.4765 C   0  0  0  0  0  0  0  0  0  0  0  0
    4.9166    1.8281   16.4617 C   0  0  0  0  0  0  0  0  0  0  0  0
    4.1877   -0.0743   15.0163 C   0  0  0  0  0  0  0  0  0  0  0  0
    3.2839    1.1063   13.0827 C   0  0  0  0  0  0  0  0  0  0  0  0
    1.2680    1.4742   11.7940 C   0  0  0  0  0  0  0  0  0  0  0  0
   -0.1867    1.9081   11.7174 C   0  0  0  0  0  0  0  0  0  0  0  0
    8.9149    2.5343   19.0447 C   0  0  0  0  0  0  0  0  0  0  0  0
    9.0365    2.1941   17.5408 C   0  0  0  0  0  0  0  0  0  0  0  0
    8.2730    3.1988   16.7098 C   0  0  0  0  0  0  0  0  0  0  0  0
    8.3859    5.0883   15.3999 C   0  0  0  0  0  0  0  0  0  0  0  0
    6.3099    4.1768   15.7578 C   0  0  0  0  0  0  0  0  0  0  0  0
    7.2387    0.6771   12.7885 C   0  0  1  0  0  0  0  0  0  0  0  0
    5.9827   -0.0993   13.3103 C   0  0  0  0  0  0  0  0  0  0  0  0
    8.4616   -0.2783   12.6434 C   0  0  0  0  0  0  0  0  0  0  0  0
    9.0112    4.1613   16.1175 N   0  0  0  0  0  0  0  0  0  0  0  0
    9.1662    6.0474   14.8394 N   0  0  0  0  0  0  0  0  0  0  0  0
    7.0715    5.1270   15.1839 N   0  0  0  0  0  0  0  0  0  0  0  0
    5.0005    4.2135   15.5486 N   0  0  0  0  0  0  0  0  0  0  0  0
    5.2718    0.2306   12.0502 N   0  0  0  0  0  0  0  0  0  0  0  0
    6.1508    2.1753   17.1461 O   0  0  0  0  0  0  0  0  0  0  0  0
    3.9927    1.1670   14.2719 O   0  0  0  0  0  0  0  0  0  0  0  0
    9.3124   -0.2522   13.5492 O   0  0  0  0  0  0  0  0  0  0  0  0
    8.5148   -1.0035   11.5995 O   0  0  0  0  0  0  0  0  0  0  0  0
    5.9882   -0.0240   16.1931 H   0  0  0  0  0  0  0  0  0  0  0  0
    4.4657   -0.1640   17.1451 H   0  0  0  0  0  0  0  0  0  0  0  0
    1.4557    1.8541   13.9103 H   0  0  0  0  0  0  0  0  0  0  0  0
    1.4174    0.9913    9.7077 H   0  0  0  0  0  0  0  0  0  0  0  0
    3.7652    0.2488    9.8443 H   0  0  0  0  0  0  0  0  0  0  0  0
    6.2975    2.0061   11.2598 H   0  0  0  0  0  0  0  0  0  0  0  0
    6.8887    0.6363   10.5072 H   0  0  0  0  0  0  0  0  0  0  0  0
    4.8680    2.3305   15.4844 H   0  0  0  0  0  0  0  0  0  0  0  0
    4.0352    2.1459   17.0382 H   0  0  0  0  0  0  0  0  0  0  0  0
    4.7751   -0.7893   14.4216 H   0  0  0  0  0  0  0  0  0  0  0  0
    3.2292   -0.5595   15.2525 H   0  0  0  0  0  0  0  0  0  0  0  0
   -0.5877    2.0277   12.7347 H   0  0  0  0  0  0  0  0  0  0  0  0
   -0.2559    2.8660   11.1811 H   0  0  0  0  0  0  0  0  0  0  0  0
   -0.7693    1.1446   11.1811 H   0  0  0  0  0  0  0  0  0  0  0  0
    9.2254    1.6653   19.6435 H   0  0  0  0  0  0  0  0  0  0  0  0
    9.5623    3.3919   19.2802 H   0  0  0  0  0  0  0  0  0  0  0  0
    7.8707    2.7876   19.2802 H   0  0  0  0  0  0  0  0  0  0  0  0
   10.0970    2.2139   17.2493 H   0  0  0  0  0  0  0  0  0  0  0  0
    8.6149    1.1932   17.3663 H   0  0  0  0  0  0  0  0  0  0  0  0
    7.7001    1.5144   13.3325 H   0  0  0  0  0  0  0  0  0  0  0  0
    6.1499   -1.1754   13.4655 H   0  0  0  0  0  0  0  0  0  0  0  0
    5.5375    0.1445   14.2862 H   0  0  0  0  0  0  0  0  0  0  0  0
    8.7383    6.7929   14.2719 H   0  0  0  0  0  0  0  0  0  0  0  0
   10.1862    6.0296   14.9817 H   0  0  0  0  0  0  0  0  0  0  0  0
    4.5934    4.9549   14.9608 H   0  0  0  0  0  0  0  0  0  0  0  0
    4.3908    3.5006   15.9740 H   0  0  0  0  0  0  0  0  0  0  0  0
  1 15  2  0
  1 17  1  0
  1 26  1  0
  2  8  1  0
  2  9  1  0
  3 10  2  0
  3 11  1  0
  4  5  1  0
  4 11  2  0
  5  6  2  0
  6 10  1  0
  6 25  1  0
  7 18  1  0
  7 25  1  0
  8 26  1  0
  9 27  1  0
 10 27  1  0
 11 12  1  0
 13 14  1  0
 14 15  1  0
 15 21  1  0
 16 21  2  0
 16 22  1  0
 16 23  1  0
 17 23  2  0
 17 24  1  0
 18 19  1  0
 18 20  1  0
 19 25  1  0
 20 28  2  0
 20 29  1  0
  2 30  1  0
  2 31  1  0
  3 32  1  0
  4 33  1  0
  5 34  1  0
  7 35  1  0
  7 36  1  0
  8 37  1  0
  8 38  1  0
  9 39  1  0
  9 40  1  0
 12 41  1  0
 12 42  1  0
 12 43  1  0
 13 44  1  0
 13 45  1  0
 13 46  1  0
 14 47  1  0
 14 48  1  0
 18 49  1  1
 19 50  1  0
 19 51  1  0
 22 52  1  0
 22 53  1  0
 24 54  1  0
 24 55  1  0
M  CHG  1  29  -1
M  END
>  <filename_input>  (16) 
5SD5_HWI_docked.sdf

>  <pdb_id>  (16) 
5SD5_HWI

>  <pose_rank>  (16) 
15

>  <num_atoms_heavy>  (16) 
29

>  <num_torsions>  (16) 
9

>  <pose>  (16) 
[3.9926914545643477, 1.1669926336695364, 14.271881903595899, -2.6070669570561873, 3.469943488140379, 0.0636305000735341, -4.393214405394206, -2.6584462430511975, 0.0981843023896602, -12.799531855077545, 11.615651402731988, 27.688752682695615, 17.765876453141946, -4.353199948435605, 0.5778968807558325]

>  <energy>  (16) 
-418.8284798583211

>  <inter_energy>  (16) 
-558.1980167286072

>  <intra_energy>  (16) 
146.9507100899018

>  <rmsd>  (16) 
4.64513

>  <sdf_rank>  (16) 
0

$$$$

     RDKit          3D

 55 57  0  0  0  0  0  0  0  0999 V2000
    6.3156    2.4525   14.6591 C   0  0  0  0  0  0  0  0  0  0  0  0
    3.4249    0.5058   15.7482 C   0  0  0  0  0  0  0  0  0  0  0  0
    0.3134   -1.1074   15.7947 C   0  0  0  0  0  0  0  0  0  0  0  0
   -1.6874    0.1148   15.4128 C   0  0  0  0  0  0  0  0  0  0  0  0
   -1.1302    0.6522   14.2616 C   0  0  0  0  0  0  0  0  0  0  0  0
    0.1599    0.3357   13.8662 C   0  0  0  0  0  0  0  0  0  0  0  0
    2.0180    1.5956   12.6365 C   0  0  0  0  0  0  0  0  0  0  0  0
    4.9185    0.8205   15.7636 C   0  0  0  0  0  0  0  0  0  0  0  0
    3.1979   -0.9322   15.3085 C   0  0  0  0  0  0  0  0  0  0  0  0
    0.8752   -0.5718   14.6569 C   0  0  0  0  0  0  0  0  0  0  0  0
   -0.9806   -0.7728   16.1982 C   0  0  0  0  0  0  0  0  0  0  0  0
   -1.5939   -1.3759   17.4513 C   0  0  0  0  0  0  0  0  0  0  0  0
    8.1820   -0.3681   14.4881 C   0  0  0  0  0  0  0  0  0  0  0  0
    7.6359    0.6571   13.4668 C   0  0  0  0  0  0  0  0  0  0  0  0
    7.4817    2.0140   14.1132 C   0  0  0  0  0  0  0  0  0  0  0  0
    8.5153    3.9775   14.7257 C   0  0  0  0  0  0  0  0  0  0  0  0
    6.2914    3.7505   15.2468 C   0  0  0  0  0  0  0  0  0  0  0  0
    2.4127    0.7783   11.3865 C   0  0  1  0  0  0  0  0  0  0  0  0
    1.0253    0.0582   11.4829 C   0  0  0  0  0  0  0  0  0  0  0  0
    2.5171    1.6093   10.0720 C   0  0  0  0  0  0  0  0  0  0  0  0
    8.5883    2.7865   14.1413 N   0  0  0  0  0  0  0  0  0  0  0  0
    9.6573    4.7111   14.7478 N   0  0  0  0  0  0  0  0  0  0  0  0
    7.4123    4.4959   15.2645 N   0  0  0  0  0  0  0  0  0  0  0  0
    5.1918    4.2609   15.7853 N   0  0  0  0  0  0  0  0  0  0  0  0
    0.7230    0.8340   12.7112 N   0  0  0  0  0  0  0  0  0  0  0  0
    5.1630    1.6795   14.6171 O   0  0  0  0  0  0  0  0  0  0  0  0
    2.1714   -0.8740   14.2713 O   0  0  0  0  0  0  0  0  0  0  0  0
    2.9156    2.7823   10.1726 O   0  0  0  0  0  0  0  0  0  0  0  0
    2.1687    1.0369    8.9906 O   0  0  0  0  0  0  0  0  0  0  0  0
    3.0130    0.6466   16.7584 H   0  0  0  0  0  0  0  0  0  0  0  0
    2.9220    1.1819   15.0412 H   0  0  0  0  0  0  0  0  0  0  0  0
    0.8982   -1.8156   16.4000 H   0  0  0  0  0  0  0  0  0  0  0  0
   -2.7089    0.4007   15.7041 H   0  0  0  0  0  0  0  0  0  0  0  0
   -1.7257    1.3451   13.6489 H   0  0  0  0  0  0  0  0  0  0  0  0
    2.6805    1.4445   13.5015 H   0  0  0  0  0  0  0  0  0  0  0  0
    2.0211    2.6953   12.6113 H   0  0  0  0  0  0  0  0  0  0  0  0
    5.1892    1.3404   16.6944 H   0  0  0  0  0  0  0  0  0  0  0  0
    5.5224   -0.0975   15.7131 H   0  0  0  0  0  0  0  0  0  0  0  0
    4.1270   -1.3603   14.9042 H   0  0  0  0  0  0  0  0  0  0  0  0
    2.8872   -1.5686   16.1502 H   0  0  0  0  0  0  0  0  0  0  0  0
   -1.1322   -0.9219   18.3405 H   0  0  0  0  0  0  0  0  0  0  0  0
   -2.6764   -1.1808   17.4602 H   0  0  0  0  0  0  0  0  0  0  0  0
   -1.4169   -2.4615   17.4602 H   0  0  0  0  0  0  0  0  0  0  0  0
    7.9895   -0.0067   15.5091 H   0  0  0  0  0  0  0  0  0  0  0  0
    7.6797   -1.3356   14.3408 H   0  0  0  0  0  0  0  0  0  0  0  0
    9.2651   -0.4911   14.3408 H   0  0  0  0  0  0  0  0  0  0  0  0
    8.3362    0.7356   12.6223 H   0  0  0  0  0  0  0  0  0  0  0  0
    6.6518    0.3173   13.1118 H   0  0  0  0  0  0  0  0  0  0  0  0
    3.3719    0.2404   11.3620 H   0  0  0  0  0  0  0  0  0  0  0  0
    0.3495    0.2663   10.6402 H   0  0  0  0  0  0  0  0  0  0  0  0
    0.9617   -1.0400   11.4827 H   0  0  0  0  0  0  0  0  0  0  0  0
    9.6626    5.6427   15.1872 H   0  0  0  0  0  0  0  0  0  0  0  0
   10.5185    4.3361   14.3252 H   0  0  0  0  0  0  0  0  0  0  0  0
    5.2116    5.2029   16.2013 H   0  0  0  0  0  0  0  0  0  0  0  0
    4.3183    3.7152   15.7874 H   0  0  0  0  0  0  0  0  0  0  0  0
  1 15  2  0
  1 17  1  0
  1 26  1  0
  2  8  1  0
  2  9  1  0
  3 10  2  0
  3 11  1  0
  4  5  1  0
  4 11  2  0
  5  6  2  0
  6 10  1  0
  6 25  1  0
  7 18  1  0
  7 25  1  0
  8 26  1  0
  9 27  1  0
 10 27  1  0
 11 12  1  0
 13 14  1  0
 14 15  1  0
 15 21  1  0
 16 21  2  0
 16 22  1  0
 16 23  1  0
 17 23  2  0
 17 24  1  0
 18 19  1  0
 18 20  1  0
 19 25  1  0
 20 28  2  0
 20 29  1  0
  2 30  1  0
  2 31  1  0
  3 32  1  0
  4 33  1  0
  5 34  1  0
  7 35  1  0
  7 36  1  0
  8 37  1  0
  8 38  1  0
  9 39  1  0
  9 40  1  0
 12 41  1  0
 12 42  1  0
 12 43  1  0
 13 44  1  0
 13 45  1  0
 13 46  1  0
 14 47  1  0
 14 48  1  0
 18 49  1  1
 19 50  1  0
 19 51  1  0
 22 52  1  0
 22 53  1  0
 24 54  1  0
 24 55  1  0
M  CHG  1  29  -1
M  END
>  <filename_input>  (17) 
5SD5_HWI_docked.sdf

>  <pdb_id>  (17) 
5SD5_HWI

>  <pose_rank>  (17) 
16

>  <num_atoms_heavy>  (17) 
29

>  <num_torsions>  (17) 
9

>  <pose>  (17) 
[2.1713625632845353, -0.8740247265665595, 14.27126495602835, -0.5961741666191216, -0.5142448172846185, -0.10816442621375097, -0.6154948388410538, -1.7321310124193066, -2.1336832105323995, 1.6333545134043708, 2.8084801853706085, 0.7477392984925366, -0.5387492193617559, -0.09799696932329059, 0.29555227893811126]

>  <energy>  (17) 
-517.3356239186309

>  <inter_energy>  (17) 
-542.2826095417931

>  <intra_energy>  (17) 
28.012817806969515

>  <rmsd>  (17) 
3.96919

>  <sdf_rank>  (17) 
0

$$$$

     RDKit          3D

 55 57  0  0  0  0  0  0  0  0999 V2000
    4.3591   -0.5709   12.9645 C   0  0  0  0  0  0  0  0  0  0  0  0
    7.7557   -0.1380   12.0805 C   0  0  0  0  0  0  0  0  0  0  0  0
    6.8215   -1.6678   15.5899 C   0  0  0  0  0  0  0  0  0  0  0  0
    5.1928   -0.8262   17.1003 C   0  0  0  0  0  0  0  0  0  0  0  0
    5.5886    0.4677   16.7940 C   0  0  0  0  0  0  0  0  0  0  0  0
    6.6156    0.7171   15.8974 C   0  0  0  0  0  0  0  0  0  0  0  0
    6.1938    3.2394   15.7860 C   0  0  0  0  0  0  0  0  0  0  0  0
    6.3002   -0.0243   11.6346 C   0  0  0  0  0  0  0  0  0  0  0  0
    8.0066    0.7609   13.2812 C   0  0  0  0  0  0  0  0  0  0  0  0
    7.2242   -0.3860   15.2867 C   0  0  0  0  0  0  0  0  0  0  0  0
    5.7976   -1.9149   16.5062 C   0  0  0  0  0  0  0  0  0  0  0  0
    5.3556   -3.3333   16.8274 C   0  0  0  0  0  0  0  0  0  0  0  0
    1.4423    1.8744   13.0558 C   0  0  0  0  0  0  0  0  0  0  0  0
    2.9480    1.5222   13.0896 C   0  0  0  0  0  0  0  0  0  0  0  0
    3.1396    0.0238   13.0601 C   0  0  0  0  0  0  0  0  0  0  0  0
    2.1315   -2.0430   13.1627 C   0  0  0  0  0  0  0  0  0  0  0  0
    4.4166   -1.9947   12.9515 C   0  0  0  0  0  0  0  0  0  0  0  0
    7.4681    3.9659   16.2705 C   0  0  1  0  0  0  0  0  0  0  0  0
    8.2702    2.6575   15.9584 C   0  0  0  0  0  0  0  0  0  0  0  0
    7.9374    5.1368   15.3550 C   0  0  0  0  0  0  0  0  0  0  0  0
    2.0166   -0.7194   13.1531 N   0  0  0  0  0  0  0  0  0  0  0  0
    0.9778   -2.7491   13.2778 N   0  0  0  0  0  0  0  0  0  0  0  0
    3.2800   -2.7093   13.0510 N   0  0  0  0  0  0  0  0  0  0  0  0
    5.5628   -2.6537   12.8437 N   0  0  0  0  0  0  0  0  0  0  0  0
    7.0055    1.9941   15.5556 N   0  0  0  0  0  0  0  0  0  0  0  0
    5.5211    0.1796   12.8443 O   0  0  0  0  0  0  0  0  0  0  0  0
    8.2631   -0.1370   14.4041 O   0  0  0  0  0  0  0  0  0  0  0  0
    8.7516    4.8631   14.4565 O   0  0  0  0  0  0  0  0  0  0  0  0
    7.4709    6.2941   15.6028 O   0  0  0  0  0  0  0  0  0  0  0  0
    7.9714   -1.1810   12.3556 H   0  0  0  0  0  0  0  0  0  0  0  0
    8.4108    0.1745   11.2540 H   0  0  0  0  0  0  0  0  0  0  0  0
    7.3185   -2.5171   15.0983 H   0  0  0  0  0  0  0  0  0  0  0  0
    4.3841   -0.9867   17.8285 H   0  0  0  0  0  0  0  0  0  0  0  0
    5.0758    1.3146   17.2734 H   0  0  0  0  0  0  0  0  0  0  0  0
    5.4149    3.1339   16.5556 H   0  0  0  0  0  0  0  0  0  0  0  0
    5.5783    3.6647   14.9796 H   0  0  0  0  0  0  0  0  0  0  0  0
    6.1759    0.8296   10.9524 H   0  0  0  0  0  0  0  0  0  0  0  0
    5.9745   -0.9256   11.0948 H   0  0  0  0  0  0  0  0  0  0  0  0
    8.8784    1.4069   13.1005 H   0  0  0  0  0  0  0  0  0  0  0  0
    7.1493    1.4213   13.4786 H   0  0  0  0  0  0  0  0  0  0  0  0
    5.3142   -3.4662   17.9185 H   0  0  0  0  0  0  0  0  0  0  0  0
    4.3589   -3.5129   16.3980 H   0  0  0  0  0  0  0  0  0  0  0  0
    6.0739   -4.0472   16.3980 H   0  0  0  0  0  0  0  0  0  0  0  0
    1.0633    1.9630   14.0846 H   0  0  0  0  0  0  0  0  0  0  0  0
    1.3009    2.8298   12.5293 H   0  0  0  0  0  0  0  0  0  0  0  0
    0.8919    1.0807   12.5293 H   0  0  0  0  0  0  0  0  0  0  0  0
    3.4442    1.9683   12.2150 H   0  0  0  0  0  0  0  0  0  0  0  0
    3.3865    1.9197   14.0168 H   0  0  0  0  0  0  0  0  0  0  0  0
    7.4785    4.4609   17.2527 H   0  0  0  0  0  0  0  0  0  0  0  0
    9.0040    2.7612   15.1455 H   0  0  0  0  0  0  0  0  0  0  0  0
    8.9239    2.2050   16.7187 H   0  0  0  0  0  0  0  0  0  0  0  0
    1.0032   -3.7787   13.2910 H   0  0  0  0  0  0  0  0  0  0  0  0
    0.0769   -2.2553   13.3518 H   0  0  0  0  0  0  0  0  0  0  0  0
    5.5660   -3.6837   12.8378 H   0  0  0  0  0  0  0  0  0  0  0  0
    6.4495   -2.1355   12.7660 H   0  0  0  0  0  0  0  0  0  0  0  0
  1 15  2  0
  1 17  1  0
  1 26  1  0
  2  8  1  0
  2  9  1  0
  3 10  2  0
  3 11  1  0
  4  5  1  0
  4 11  2  0
  5  6  2  0
  6 10  1  0
  6 25  1  0
  7 18  1  0
  7 25  1  0
  8 26  1  0
  9 27  1  0
 10 27  1  0
 11 12  1  0
 13 14  1  0
 14 15  1  0
 15 21  1  0
 16 21  2  0
 16 22  1  0
 16 23  1  0
 17 23  2  0
 17 24  1  0
 18 19  1  0
 18 20  1  0
 19 25  1  0
 20 28  2  0
 20 29  1  0
  2 30  1  0
  2 31  1  0
  3 32  1  0
  4 33  1  0
  5 34  1  0
  7 35  1  0
  7 36  1  0
  8 37  1  0
  8 38  1  0
  9 39  1  0
  9 40  1  0
 12 41  1  0
 12 42  1  0
 12 43  1  0
 13 44  1  0
 13 45  1  0
 13 46  1  0
 14 47  1  0
 14 48  1  0
 18 49  1  1
 19 50  1  0
 19 51  1  0
 22 52  1  0
 22 53  1  0
 24 54  1  0
 24 55  1  0
M  CHG  1  29  -1
M  END
>  <filename_input>  (18) 
5SD5_HWI_docked.sdf

>  <pdb_id>  (18) 
5SD5_HWI

>  <pose_rank>  (18) 
17

>  <num_atoms_heavy>  (18) 
29

>  <num_torsions>  (18) 
9

>  <pose>  (18) 
[8.26309525081503, -0.13700195017964242, 14.404144278913003, 2.412858627298782, 0.6550740612241394, -2.3149328009135473, -3.971590757020045, 2.0819770499779944, 1.9680478780559003, 1.1324276478882895, -5.509620039047908, -7.992696252787218, 0.6113465510109195, -3.794108102105792, -1.3005672416810061]

>  <energy>  (18) 
-523.2271010986833

>  <inter_energy>  (18) 
-608.1553494192175

>  <intra_energy>  (18) 
80.14811841564182

>  <rmsd>  (18) 
6.41699

>  <sdf_rank>  (18) 
0

$$$$

     RDKit          3D

 55 57  0  0  0  0  0  0  0  0999 V2000
    6.9014    2.4151   14.5380 C   0  0  0  0  0  0  0  0  0  0  0  0
    5.5403   -0.5611   14.8388 C   0  0  0  0  0  0  0  0  0  0  0  0
    2.3732    0.4068   13.1408 C   0  0  0  0  0  0  0  0  0  0  0  0
    0.2765   -0.4682   12.4475 C   0  0  0  0  0  0  0  0  0  0  0  0
    0.1470   -1.1073   13.6719 C   0  0  0  0  0  0  0  0  0  0  0  0
    1.1316   -1.0168   14.6431 C   0  0  0  0  0  0  0  0  0  0  0  0
   -0.1960   -1.5299   16.7707 C   0  0  0  0  0  0  0  0  0  0  0  0
    5.2187    0.7373   14.1034 C   0  0  0  0  0  0  0  0  0  0  0  0
    4.2595   -1.2075   15.3432 C   0  0  0  0  0  0  0  0  0  0  0  0
    2.2542   -0.2310   14.3558 C   0  0  0  0  0  0  0  0  0  0  0  0
    1.3864    0.2993   12.1591 C   0  0  0  0  0  0  0  0  0  0  0  0
    1.5241    1.0140   10.8247 C   0  0  0  0  0  0  0  0  0  0  0  0
    8.1033    0.4110   11.5895 C   0  0  0  0  0  0  0  0  0  0  0  0
    6.9576    1.0234   12.4290 C   0  0  0  0  0  0  0  0  0  0  0  0
    7.4956    2.0848   13.3600 C   0  0  0  0  0  0  0  0  0  0  0  0
    9.1662    3.6158   13.7649 C   0  0  0  0  0  0  0  0  0  0  0  0
    7.5041    3.4296   15.3370 C   0  0  0  0  0  0  0  0  0  0  0  0
   -0.0731   -3.0412   17.0661 C   0  0  1  0  0  0  0  0  0  0  0  0
    1.2101   -3.0597   16.1685 C   0  0  0  0  0  0  0  0  0  0  0  0
    0.2780   -3.3889   18.5443 C   0  0  0  0  0  0  0  0  0  0  0  0
    8.6337    2.6957   12.9679 N   0  0  0  0  0  0  0  0  0  0  0  0
   10.3209    4.1890   13.3395 N   0  0  0  0  0  0  0  0  0  0  0  0
    8.6420    4.0173   14.9223 N   0  0  0  0  0  0  0  0  0  0  0  0
    6.9806    3.8235   16.4904 N   0  0  0  0  0  0  0  0  0  0  0  0
    1.0110   -1.6183   15.8772 N   0  0  0  0  0  0  0  0  0  0  0  0
    5.7180    1.8128   14.9437 O   0  0  0  0  0  0  0  0  0  0  0  0
    3.2467   -0.1555   15.3199 O   0  0  0  0  0  0  0  0  0  0  0  0
    0.3000   -2.4496   19.3581 O   0  0  0  0  0  0  0  0  0  0  0  0
    0.5372   -4.6053   18.8119 O   0  0  0  0  0  0  0  0  0  0  0  0
    6.0500   -1.2520   14.1511 H   0  0  0  0  0  0  0  0  0  0  0  0
    6.1922   -0.3372   15.6960 H   0  0  0  0  0  0  0  0  0  0  0  0
    3.2670    1.0155   12.9393 H   0  0  0  0  0  0  0  0  0  0  0  0
   -0.5183   -0.5750   11.6945 H   0  0  0  0  0  0  0  0  0  0  0  0
   -0.7574   -1.6991   13.8766 H   0  0  0  0  0  0  0  0  0  0  0  0
   -1.1225   -1.2462   16.2501 H   0  0  0  0  0  0  0  0  0  0  0  0
   -0.2331   -0.7993   17.5922 H   0  0  0  0  0  0  0  0  0  0  0  0
    5.7190    0.7550   13.1239 H   0  0  0  0  0  0  0  0  0  0  0  0
    4.1385    0.8386   13.9219 H   0  0  0  0  0  0  0  0  0  0  0  0
    3.9645   -2.0378   14.6848 H   0  0  0  0  0  0  0  0  0  0  0  0
    4.3870   -1.6242   16.3532 H   0  0  0  0  0  0  0  0  0  0  0  0
    1.7295    2.0804   10.9994 H   0  0  0  0  0  0  0  0  0  0  0  0
    2.3531    0.5695   10.2545 H   0  0  0  0  0  0  0  0  0  0  0  0
    0.5892    0.9093   10.2545 H   0  0  0  0  0  0  0  0  0  0  0  0
    8.8713    0.0005   12.2616 H   0  0  0  0  0  0  0  0  0  0  0  0
    7.7033   -0.3936   10.9550 H   0  0  0  0  0  0  0  0  0  0  0  0
    8.5500    1.1906   10.9550 H   0  0  0  0  0  0  0  0  0  0  0  0
    6.2156    1.4754   11.7544 H   0  0  0  0  0  0  0  0  0  0  0  0
    6.4895    0.2280   13.0276 H   0  0  0  0  0  0  0  0  0  0  0  0
   -0.9347   -3.7050   16.9018 H   0  0  0  0  0  0  0  0  0  0  0  0
    2.1386   -3.2857   16.7134 H   0  0  0  0  0  0  0  0  0  0  0  0
    1.3128   -3.7885   15.3510 H   0  0  0  0  0  0  0  0  0  0  0  0
   10.7809    4.9090   13.9147 H   0  0  0  0  0  0  0  0  0  0  0  0
   10.7370    3.9039   12.4414 H   0  0  0  0  0  0  0  0  0  0  0  0
    7.4440    4.5600   17.0415 H   0  0  0  0  0  0  0  0  0  0  0  0
    6.1106    3.3930   16.8349 H   0  0  0  0  0  0  0  0  0  0  0  0
  1 15  2  0
  1 17  1  0
  1 26  1  0
  2  8  1  0
  2  9  1  0
  3 10  2  0
  3 11  1  0
  4  5  1  0
  4 11  2  0
  5  6  2  0
  6 10  1  0
  6 25  1  0
  7 18  1  0
  7 25  1  0
  8 26  1  0
  9 27  1  0
 10 27  1  0
 11 12  1  0
 13 14  1  0
 14 15  1  0
 15 21  1  0
 16 21  2  0
 16 22  1  0
 16 23  1  0
 17 23  2  0
 17 24  1  0
 18 19  1  0
 18 20  1  0
 19 25  1  0
 20 28  2  0
 20 29  1  0
  2 30  1  0
  2 31  1  0
  3 32  1  0
  4 33  1  0
  5 34  1  0
  7 35  1  0
  7 36  1  0
  8 37  1  0
  8 38  1  0
  9 39  1  0
  9 40  1  0
 12 41  1  0
 12 42  1  0
 12 43  1  0
 13 44  1  0
 13 45  1  0
 13 46  1  0
 14 47  1  0
 14 48  1  0
 18 49  1  6
 19 50  1  0
 19 51  1  0
 22 52  1  0
 22 53  1  0
 24 54  1  0
 24 55  1  0
M  CHG  1  29  -1
M  END
>  <filename_input>  (19) 
5SD5_HWI_docked.sdf

>  <pdb_id>  (19) 
5SD5_HWI

>  <pose_rank>  (19) 
18

>  <num_atoms_heavy>  (19) 
29

>  <num_torsions>  (19) 
9

>  <pose>  (19) 
[3.246681784123331, -0.15550581449814163, 15.319904029482194, -3.7445878634848953, 1.8988095432169856, 0.3135013048117442, 4.767128001880105, -4.7465543356942055, -2.605416914021806, 23.61586267786465, 55.0501988521449, 57.36217245679234, 23.630615821555256, -7.91247800459444, -0.7282676811582948]

>  <energy>  (19) 
-391.9353872382211

>  <inter_energy>  (19) 
-491.77245690004673

>  <intra_energy>  (19) 
105.91575509308643

>  <rmsd>  (19) 
5.59985

>  <sdf_rank>  (19) 
0

$$$$

     RDKit          3D

 55 57  0  0  0  0  0  0  0  0999 V2000
    1.2025   -0.1340   13.1535 C   0  0  0  0  0  0  0  0  0  0  0  0
    3.1544    1.7170   13.6233 C   0  0  0  0  0  0  0  0  0  0  0  0
    6.1355    0.1100   14.1307 C   0  0  0  0  0  0  0  0  0  0  0  0
    8.3288   -0.3186   14.9359 C   0  0  0  0  0  0  0  0  0  0  0  0
    8.5831    1.0451   14.9462 C   0  0  0  0  0  0  0  0  0  0  0  0
    7.6293    1.9623   14.5339 C   0  0  0  0  0  0  0  0  0  0  0  0
    7.2346    4.2788   15.5490 C   0  0  0  0  0  0  0  0  0  0  0  0
    1.7506    1.9949   14.1547 C   0  0  0  0  0  0  0  0  0  0  0  0
    4.1849    2.4713   14.4489 C   0  0  0  0  0  0  0  0  0  0  0  0
    6.3840    1.4648   14.1316 C   0  0  0  0  0  0  0  0  0  0  0  0
    7.1050   -0.8113   14.5311 C   0  0  0  0  0  0  0  0  0  0  0  0
    6.8175   -2.3037   14.5339 C   0  0  0  0  0  0  0  0  0  0  0  0
    1.9561   -0.6661   16.5116 C   0  0  0  0  0  0  0  0  0  0  0  0
    0.7252   -0.6782   15.5750 C   0  0  0  0  0  0  0  0  0  0  0  0
    1.1378   -1.0387   14.1670 C   0  0  0  0  0  0  0  0  0  0  0  0
    1.8649   -2.6958   12.7442 C   0  0  0  0  0  0  0  0  0  0  0  0
    1.6109   -0.5901   11.8666 C   0  0  0  0  0  0  0  0  0  0  0  0
    8.6025    4.9796   15.7038 C   0  0  1  0  0  0  0  0  0  0  0  0
    9.1723    3.9911   14.6310 C   0  0  0  0  0  0  0  0  0  0  0  0
    8.6438    6.4482   15.1833 C   0  0  0  0  0  0  0  0  0  0  0  0
    1.4654   -2.3314   13.9579 N   0  0  0  0  0  0  0  0  0  0  0  0
    2.2031   -4.0009   12.5855 N   0  0  0  0  0  0  0  0  0  0  0  0
    1.9365   -1.8843   11.6897 N   0  0  0  0  0  0  0  0  0  0  0  0
    1.6843    0.2223   10.8205 N   0  0  0  0  0  0  0  0  0  0  0  0
    7.8493    3.3225   14.5638 N   0  0  0  0  0  0  0  0  0  0  0  0
    0.8461    1.1939   13.3470 O   0  0  0  0  0  0  0  0  0  0  0  0
    5.4369    2.3807   13.7023 O   0  0  0  0  0  0  0  0  0  0  0  0
    7.9545    7.2851   15.7913 O   0  0  0  0  0  0  0  0  0  0  0  0
    9.3635    6.6851   14.1614 O   0  0  0  0  0  0  0  0  0  0  0  0
    3.3591    0.6379   13.6835 H   0  0  0  0  0  0  0  0  0  0  0  0
    3.2160    2.0521   12.5773 H   0  0  0  0  0  0  0  0  0  0  0  0
    5.1496   -0.2547   13.8068 H   0  0  0  0  0  0  0  0  0  0  0  0
    9.1151   -1.0183   15.2555 H   0  0  0  0  0  0  0  0  0  0  0  0
    9.5638    1.4066   15.2892 H   0  0  0  0  0  0  0  0  0  0  0  0
    6.8654    3.8026   16.4692 H   0  0  0  0  0  0  0  0  0  0  0  0
    6.3359    4.8554   15.2846 H   0  0  0  0  0  0  0  0  0  0  0  0
    1.6783    1.7020   15.2125 H   0  0  0  0  0  0  0  0  0  0  0  0
    1.5028    3.0648   14.0929 H   0  0  0  0  0  0  0  0  0  0  0  0
    3.8852    3.5230   14.5677 H   0  0  0  0  0  0  0  0  0  0  0  0
    4.2842    2.0465   15.4586 H   0  0  0  0  0  0  0  0  0  0  0  0
    6.7485   -2.6619   15.5717 H   0  0  0  0  0  0  0  0  0  0  0  0
    5.8660   -2.4948   14.0160 H   0  0  0  0  0  0  0  0  0  0  0  0
    7.6299   -2.8346   14.0160 H   0  0  0  0  0  0  0  0  0  0  0  0
    1.6199   -0.6694   17.5590 H   0  0  0  0  0  0  0  0  0  0  0  0
    2.5706   -1.5582   16.3209 H   0  0  0  0  0  0  0  0  0  0  0  0
    2.5530    0.2380   16.3209 H   0  0  0  0  0  0  0  0  0  0  0  0
   -0.0012   -1.4189   15.9407 H   0  0  0  0  0  0  0  0  0  0  0  0
    0.2723    0.3242   15.5683 H   0  0  0  0  0  0  0  0  0  0  0  0
    9.0446    5.1070   16.7029 H   0  0  0  0  0  0  0  0  0  0  0  0
    9.4821    4.4737   13.6923 H   0  0  0  0  0  0  0  0  0  0  0  0
   10.0850    3.4106   14.8313 H   0  0  0  0  0  0  0  0  0  0  0  0
    2.5204   -4.3427   11.6671 H   0  0  0  0  0  0  0  0  0  0  0  0
    2.1424   -4.6493   13.3834 H   0  0  0  0  0  0  0  0  0  0  0  0
    1.9837   -0.1426    9.9051 H   0  0  0  0  0  0  0  0  0  0  0  0
    1.4418    1.2180   10.9238 H   0  0  0  0  0  0  0  0  0  0  0  0
  1 15  2  0
  1 17  1  0
  1 26  1  0
  2  8  1  0
  2  9  1  0
  3 10  2  0
  3 11  1  0
  4  5  1  0
  4 11  2  0
  5  6  2  0
  6 10  1  0
  6 25  1  0
  7 18  1  0
  7 25  1  0
  8 26  1  0
  9 27  1  0
 10 27  1  0
 11 12  1  0
 13 14  1  0
 14 15  1  0
 15 21  1  0
 16 21  2  0
 16 22  1  0
 16 23  1  0
 17 23  2  0
 17 24  1  0
 18 19  1  0
 18 20  1  0
 19 25  1  0
 20 28  2  0
 20 29  1  0
  2 30  1  0
  2 31  1  0
  3 32  1  0
  4 33  1  0
  5 34  1  0
  7 35  1  0
  7 36  1  0
  8 37  1  0
  8 38  1  0
  9 39  1  0
  9 40  1  0
 12 41  1  0
 12 42  1  0
 12 43  1  0
 13 44  1  0
 13 45  1  0
 13 46  1  0
 14 47  1  0
 14 48  1  0
 18 49  1  1
 19 50  1  0
 19 51  1  0
 22 52  1  0
 22 53  1  0
 24 54  1  0
 24 55  1  0
M  CHG  1  29  -1
M  END
>  <filename_input>  (20) 
5SD5_HWI_docked.sdf

>  <pdb_id>  (20) 
5SD5_HWI

>  <pose_rank>  (20) 
19

>  <num_atoms_heavy>  (20) 
29

>  <num_torsions>  (20) 
9

>  <pose>  (20) 
[5.436882172477723, 2.380686739208804, 13.702253494186786, 0.2091425564701959, -1.5347414998829112, 2.441925232161229, 32.62626095154566, -5.766526104965103, -1.5658306061784384, -30.320172756325945, 8.445659383319029, 8.35040405455349, -8.771563413460951, -0.4809054923457239, 6.375029910534158]

>  <energy>  (20) 
-520.9828560998599

>  <inter_energy>  (20) 
-556.2775065192365

>  <intra_energy>  (20) 
34.58116765218492

>  <rmsd>  (20) 
7.6438

>  <sdf_rank>  (20) 
0

$$$$

     RDKit          3D

 55 57  0  0  0  0  0  0  0  0999 V2000
    5.2186   -1.8864   15.4998 C   0  0  0  0  0  0  0  0  0  0  0  0
    7.9652   -0.4527   13.5697 C   0  0  0  0  0  0  0  0  0  0  0  0
    7.0325    2.1778   14.7091 C   0  0  0  0  0  0  0  0  0  0  0  0
    5.1292    3.1186   15.7744 C   0  0  0  0  0  0  0  0  0  0  0  0
    4.3706    2.8419   14.6463 C   0  0  0  0  0  0  0  0  0  0  0  0
    4.9298    2.2469   13.5264 C   0  0  0  0  0  0  0  0  0  0  0  0
    3.2850    0.7415   12.2690 C   0  0  0  0  0  0  0  0  0  0  0  0
    7.1942   -0.6458   14.8730 C   0  0  0  0  0  0  0  0  0  0  0  0
    7.0046   -0.1234   12.4377 C   0  0  0  0  0  0  0  0  0  0  0  0
    6.2868    1.9070   13.5832 C   0  0  0  0  0  0  0  0  0  0  0  0
    6.4689    2.7924   15.8288 C   0  0  0  0  0  0  0  0  0  0  0  0
    7.2991    3.0795   17.0691 C   0  0  0  0  0  0  0  0  0  0  0  0
    2.5384   -3.4490   13.3814 C   0  0  0  0  0  0  0  0  0  0  0  0
    3.7113   -2.4553   13.5524 C   0  0  0  0  0  0  0  0  0  0  0  0
    3.9902   -2.2164   15.0180 C   0  0  0  0  0  0  0  0  0  0  0  0
    3.1169   -2.1013   17.1447 C   0  0  0  0  0  0  0  0  0  0  0  0
    5.3601   -1.6795   16.9026 C   0  0  0  0  0  0  0  0  0  0  0  0
    2.2213    1.6392   11.5989 C   0  0  1  0  0  0  0  0  0  0  0  0
    3.2278    2.8330   11.7191 C   0  0  0  0  0  0  0  0  0  0  0  0
    1.9342    1.3030   10.1043 C   0  0  0  0  0  0  0  0  0  0  0  0
    2.9328   -2.3313   15.8491 N   0  0  0  0  0  0  0  0  0  0  0  0
    2.0216   -2.2089   17.9395 N   0  0  0  0  0  0  0  0  0  0  0  0
    4.2862   -1.7959   17.7060 N   0  0  0  0  0  0  0  0  0  0  0  0
    6.5256   -1.3720   17.4565 N   0  0  0  0  0  0  0  0  0  0  0  0
    4.1893    1.9358   12.4064 N   0  0  0  0  0  0  0  0  0  0  0  0
    6.3206   -1.7877   14.6611 O   0  0  0  0  0  0  0  0  0  0  0  0
    6.8498    1.3287   12.4567 O   0  0  0  0  0  0  0  0  0  0  0  0
    1.1815    0.3411    9.8737 O   0  0  0  0  0  0  0  0  0  0  0  0
    2.5051    2.0228    9.2243 O   0  0  0  0  0  0  0  0  0  0  0  0
    8.6822    0.3728   13.6902 H   0  0  0  0  0  0  0  0  0  0  0  0
    8.5014   -1.3821   13.3278 H   0  0  0  0  0  0  0  0  0  0  0  0
    8.0976    1.9034   14.7264 H   0  0  0  0  0  0  0  0  0  0  0  0
    4.6551    3.6057   16.6392 H   0  0  0  0  0  0  0  0  0  0  0  0
    3.3015    3.1004   14.6405 H   0  0  0  0  0  0  0  0  0  0  0  0
    2.9671    0.3042   13.2270 H   0  0  0  0  0  0  0  0  0  0  0  0
    3.6379   -0.1750   11.7736 H   0  0  0  0  0  0  0  0  0  0  0  0
    7.8896   -0.8461   15.7015 H   0  0  0  0  0  0  0  0  0  0  0  0
    6.6204    0.2548   15.1368 H   0  0  0  0  0  0  0  0  0  0  0  0
    7.4214   -0.4516   11.4741 H   0  0  0  0  0  0  0  0  0  0  0  0
    6.0392   -0.6351   12.5644 H   0  0  0  0  0  0  0  0  0  0  0  0
    6.6995    2.8721   17.9678 H   0  0  0  0  0  0  0  0  0  0  0  0
    8.1928    2.4382   17.0687 H   0  0  0  0  0  0  0  0  0  0  0  0
    7.6058    4.1358   17.0687 H   0  0  0  0  0  0  0  0  0  0  0  0
    2.1728   -3.7587   14.3716 H   0  0  0  0  0  0  0  0  0  0  0  0
    1.7235   -2.9622   12.8255 H   0  0  0  0  0  0  0  0  0  0  0  0
    2.8846   -4.3327   12.8255 H   0  0  0  0  0  0  0  0  0  0  0  0
    4.6110   -2.8711   13.0754 H   0  0  0  0  0  0  0  0  0  0  0  0
    3.4405   -1.4993   13.0805 H   0  0  0  0  0  0  0  0  0  0  0  0
    1.1972    1.6700   11.9992 H   0  0  0  0  0  0  0  0  0  0  0  0
    3.5842    3.2215   10.7537 H   0  0  0  0  0  0  0  0  0  0  0  0
    2.9191    3.7832   12.1796 H   0  0  0  0  0  0  0  0  0  0  0  0
    2.1022   -2.0422   18.9527 H   0  0  0  0  0  0  0  0  0  0  0  0
    1.1101   -2.4573   17.5293 H   0  0  0  0  0  0  0  0  0  0  0  0
    6.5904   -1.2296   18.4746 H   0  0  0  0  0  0  0  0  0  0  0  0
    7.3658   -1.2757   16.8685 H   0  0  0  0  0  0  0  0  0  0  0  0
  1 15  2  0
  1 17  1  0
  1 26  1  0
  2  8  1  0
  2  9  1  0
  3 10  2  0
  3 11  1  0
  4  5  1  0
  4 11  2  0
  5  6  2  0
  6 10  1  0
  6 25  1  0
  7 18  1  0
  7 25  1  0
  8 26  1  0
  9 27  1  0
 10 27  1  0
 11 12  1  0
 13 14  1  0
 14 15  1  0
 15 21  1  0
 16 21  2  0
 16 22  1  0
 16 23  1  0
 17 23  2  0
 17 24  1  0
 18 19  1  0
 18 20  1  0
 19 25  1  0
 20 28  2  0
 20 29  1  0
  2 30  1  0
  2 31  1  0
  3 32  1  0
  4 33  1  0
  5 34  1  0
  7 35  1  0
  7 36  1  0
  8 37  1  0
  8 38  1  0
  9 39  1  0
  9 40  1  0
 12 41  1  0
 12 42  1  0
 12 43  1  0
 13 44  1  0
 13 45  1  0
 13 46  1  0
 14 47  1  0
 14 48  1  0
 18 49  1  1
 19 50  1  0
 19 51  1  0
 22 52  1  0
 22 53  1  0
 24 54  1  0
 24 55  1  0
M  CHG  1  29  -1
M  END
>  <filename_input>  (21) 
5SD5_HWI_docked.sdf

>  <pdb_id>  (21) 
5SD5_HWI

>  <pose_rank>  (21) 
20

>  <num_atoms_heavy>  (21) 
29

>  <num_torsions>  (21) 
9

>  <pose>  (21) 
[6.849760877336703, 1.3287316970393346, 12.45668887222584, 0.1733266875239472, 0.10951898839968008, -1.2285540539695785, 1.549335241644792, 1.008092821783805, -1.3268358786100145, 1.7753418294558938, 0.3467215972321236, -0.021642497515362832, 0.19709790406771635, 0.660739196750406, -1.6961425736856717]

>  <energy>  (21) 
-507.88829020045273

>  <inter_energy>  (21) 
-602.1528324274221

>  <intra_energy>  (21) 
97.2663356134407

>  <rmsd>  (21) 
5.59658

>  <sdf_rank>  (21) 
0

$$$$

     RDKit          3D

 55 57  0  0  0  0  0  0  0  0999 V2000
    7.2952    0.4818   14.6313 C   0  0  0  0  0  0  0  0  0  0  0  0
    4.9068    3.1191   15.4900 C   0  0  0  0  0  0  0  0  0  0  0  0
    2.6162   -0.2051   15.6964 C   0  0  0  0  0  0  0  0  0  0  0  0
    1.0654   -1.7393   14.7562 C   0  0  0  0  0  0  0  0  0  0  0  0
    1.1856   -1.0985   13.5317 C   0  0  0  0  0  0  0  0  0  0  0  0
    2.0058    0.0071   13.3710 C   0  0  0  0  0  0  0  0  0  0  0  0
    2.4092   -0.0494   10.8439 C   0  0  0  0  0  0  0  0  0  0  0  0
    5.8592    1.9853   15.8612 C   0  0  0  0  0  0  0  0  0  0  0  0
    3.4875    2.5887   15.3608 C   0  0  0  0  0  0  0  0  0  0  0  0
    2.7346    0.4401   14.4853 C   0  0  0  0  0  0  0  0  0  0  0  0
    1.7760   -1.3084   15.8578 C   0  0  0  0  0  0  0  0  0  0  0  0
    1.6590   -2.0180   17.1968 C   0  0  0  0  0  0  0  0  0  0  0  0
    7.9568    1.0336   11.3803 C   0  0  0  0  0  0  0  0  0  0  0  0
    8.7364    1.2429   12.6996 C   0  0  0  0  0  0  0  0  0  0  0  0
    8.2927    0.2400   13.7389 C   0  0  0  0  0  0  0  0  0  0  0  0
    8.5642   -1.8757   14.6043 C   0  0  0  0  0  0  0  0  0  0  0  0
    6.9594   -0.5433   15.5625 C   0  0  0  0  0  0  0  0  0  0  0  0
    1.3926    0.8981   10.1694 C   0  0  1  0  0  0  0  0  0  0  0  0
    1.2203    1.6134   11.5519 C   0  0  0  0  0  0  0  0  0  0  0  0
    2.0071    1.8678    9.1151 C   0  0  0  0  0  0  0  0  0  0  0  0
    8.9365   -0.9464   13.7307 N   0  0  0  0  0  0  0  0  0  0  0  0
    9.2257   -3.0597   14.5463 N   0  0  0  0  0  0  0  0  0  0  0  0
    7.6156   -1.7183   15.5268 N   0  0  0  0  0  0  0  0  0  0  0  0
    6.0117   -0.3833   16.4768 N   0  0  0  0  0  0  0  0  0  0  0  0
    2.1636    0.6411   12.1575 N   0  0  0  0  0  0  0  0  0  0  0  0
    6.6397    1.7053   14.6677 O   0  0  0  0  0  0  0  0  0  0  0  0
    3.5405    1.5565   14.3290 O   0  0  0  0  0  0  0  0  0  0  0  0
    1.3808    2.0209    8.0524 O   0  0  0  0  0  0  0  0  0  0  0  0
    3.1158    2.4195    9.4061 O   0  0  0  0  0  0  0  0  0  0  0  0
    4.9369    3.8906   16.2735 H   0  0  0  0  0  0  0  0  0  0  0  0
    5.2188    3.5504   14.5274 H   0  0  0  0  0  0  0  0  0  0  0  0
    3.1975    0.1575   16.5570 H   0  0  0  0  0  0  0  0  0  0  0  0
    0.3929   -2.6047   14.8505 H   0  0  0  0  0  0  0  0  0  0  0  0
    0.6173   -1.4763   12.6690 H   0  0  0  0  0  0  0  0  0  0  0  0
    2.1155   -1.1094   10.8299 H   0  0  0  0  0  0  0  0  0  0  0  0
    3.4298   -0.1515   10.4463 H   0  0  0  0  0  0  0  0  0  0  0  0
    6.5193    2.2958   16.6846 H   0  0  0  0  0  0  0  0  0  0  0  0
    5.3097    1.0944   16.1994 H   0  0  0  0  0  0  0  0  0  0  0  0
    3.1509    2.1587   16.3157 H   0  0  0  0  0  0  0  0  0  0  0  0
    2.7791    3.3880   15.0977 H   0  0  0  0  0  0  0  0  0  0  0  0
    1.7795   -1.2877   18.0105 H   0  0  0  0  0  0  0  0  0  0  0  0
    0.6703   -2.4938   17.2745 H   0  0  0  0  0  0  0  0  0  0  0  0
    2.4426   -2.7861   17.2745 H   0  0  0  0  0  0  0  0  0  0  0  0
    6.9176    0.7545   11.6088 H   0  0  0  0  0  0  0  0  0  0  0  0
    7.9662    1.9661   10.7969 H   0  0  0  0  0  0  0  0  0  0  0  0
    8.4321    0.2312   10.7969 H   0  0  0  0  0  0  0  0  0  0  0  0
    9.8123    1.1153   12.5090 H   0  0  0  0  0  0  0  0  0  0  0  0
    8.5366    2.2575   13.0749 H   0  0  0  0  0  0  0  0  0  0  0  0
    0.5513    0.4826    9.5954 H   0  0  0  0  0  0  0  0  0  0  0  0
    1.5738    2.6549   11.5681 H   0  0  0  0  0  0  0  0  0  0  0  0
    0.2201    1.7681   11.9830 H   0  0  0  0  0  0  0  0  0  0  0  0
    8.9814   -3.8187   15.1983 H   0  0  0  0  0  0  0  0  0  0  0  0
    9.9721   -3.1990   13.8503 H   0  0  0  0  0  0  0  0  0  0  0  0
    5.7959   -1.1466   17.1339 H   0  0  0  0  0  0  0  0  0  0  0  0
    5.4916    0.5041   16.5296 H   0  0  0  0  0  0  0  0  0  0  0  0
  1 15  2  0
  1 17  1  0
  1 26  1  0
  2  8  1  0
  2  9  1  0
  3 10  2  0
  3 11  1  0
  4  5  1  0
  4 11  2  0
  5  6  2  0
  6 10  1  0
  6 25  1  0
  7 18  1  0
  7 25  1  0
  8 26  1  0
  9 27  1  0
 10 27  1  0
 11 12  1  0
 13 14  1  0
 14 15  1  0
 15 21  1  0
 16 21  2  0
 16 22  1  0
 16 23  1  0
 17 23  2  0
 17 24  1  0
 18 19  1  0
 18 20  1  0
 19 25  1  0
 20 28  2  0
 20 29  1  0
  2 30  1  0
  2 31  1  0
  3 32  1  0
  4 33  1  0
  5 34  1  0
  7 35  1  0
  7 36  1  0
  8 37  1  0
  8 38  1  0
  9 39  1  0
  9 40  1  0
 12 41  1  0
 12 42  1  0
 12 43  1  0
 13 44  1  0
 13 45  1  0
 13 46  1  0
 14 47  1  0
 14 48  1  0
 18 49  1  6
 19 50  1  0
 19 51  1  0
 22 52  1  0
 22 53  1  0
 24 54  1  0
 24 55  1  0
M  CHG  1  29  -1
M  END
>  <filename_input>  (22) 
5SD5_HWI_docked.sdf

>  <pdb_id>  (22) 
5SD5_HWI

>  <pose_rank>  (22) 
21

>  <num_atoms_heavy>  (22) 
29

>  <num_torsions>  (22) 
9

>  <pose>  (22) 
[3.5405023602553416, 1.5564754915041705, 14.328963367116858, -0.4836515170551978, -1.1336249448878843, 1.0815034129375625, -0.6590400820763807, 7.856199177364518, -0.33164842534347905, 24.23545987661033, 16.63728854214314, 7.040706658963997, -6.144999060890781, 1.699707238482808, -5.939910113672293]

>  <energy>  (22) 
-445.92920628030583

>  <inter_energy>  (22) 
-513.738309529324

>  <intra_energy>  (22) 
50.70843782899378

>  <rmsd>  (22) 
4.63967

>  <sdf_rank>  (22) 
0

$$$$

     RDKit          3D

 55 57  0  0  0  0  0  0  0  0999 V2000
    1.3704    1.1032   11.7155 C   0  0  0  0  0  0  0  0  0  0  0  0
    3.6250    1.4716   14.2601 C   0  0  0  0  0  0  0  0  0  0  0  0
    4.5788   -0.8444   15.6273 C   0  0  0  0  0  0  0  0  0  0  0  0
    6.1854   -2.0847   14.3931 C   0  0  0  0  0  0  0  0  0  0  0  0
    7.0200   -0.9766   14.3809 C   0  0  0  0  0  0  0  0  0  0  0  0
    6.6444    0.2188   14.9732 C   0  0  0  0  0  0  0  0  0  0  0  0
    7.3507    2.5151   14.0897 C   0  0  0  0  0  0  0  0  0  0  0  0
    2.1315    1.5695   13.9602 C   0  0  0  0  0  0  0  0  0  0  0  0
    3.9517    2.2234   15.5410 C   0  0  0  0  0  0  0  0  0  0  0  0
    5.3995    0.2616   15.6125 C   0  0  0  0  0  0  0  0  0  0  0  0
    4.9542   -2.0416   15.0149 C   0  0  0  0  0  0  0  0  0  0  0  0
    4.0442   -3.2586   15.0442 C   0  0  0  0  0  0  0  0  0  0  0  0
   -1.1850    0.5629   13.9739 C   0  0  0  0  0  0  0  0  0  0  0  0
   -0.8456    1.5604   12.8416 C   0  0  0  0  0  0  0  0  0  0  0  0
    0.0284    0.8995   11.8014 C   0  0  0  0  0  0  0  0  0  0  0  0
    0.1310   -0.5704   10.0328 C   0  0  0  0  0  0  0  0  0  0  0  0
    2.0930    0.4198   10.6950 C   0  0  0  0  0  0  0  0  0  0  0  0
    7.5927    3.4460   15.2984 C   0  0  1  0  0  0  0  0  0  0  0  0
    7.7608    2.1660   16.1849 C   0  0  0  0  0  0  0  0  0  0  0  0
    8.9214    4.2586   15.2383 C   0  0  0  0  0  0  0  0  0  0  0  0
   -0.5966    0.0608   10.9481 N   0  0  0  0  0  0  0  0  0  0  0  0
   -0.5365   -1.4187    9.2096 N   0  0  0  0  0  0  0  0  0  0  0  0
    1.4433   -0.4145    9.8619 N   0  0  0  0  0  0  0  0  0  0  0  0
    3.4002    0.5753   10.5310 N   0  0  0  0  0  0  0  0  0  0  0  0
    7.4690    1.3228   14.9993 N   0  0  0  0  0  0  0  0  0  0  0  0
    2.0237    1.9807   12.5705 O   0  0  0  0  0  0  0  0  0  0  0  0
    5.0166    1.4622   16.1888 O   0  0  0  0  0  0  0  0  0  0  0  0
    9.8596    3.7643   14.5897 O   0  0  0  0  0  0  0  0  0  0  0  0
    8.9607    5.3605   15.8727 O   0  0  0  0  0  0  0  0  0  0  0  0
    3.9038    0.4141   14.3778 H   0  0  0  0  0  0  0  0  0  0  0  0
    4.1892    1.9172   13.4275 H   0  0  0  0  0  0  0  0  0  0  0  0
    3.6042   -0.7830   16.1337 H   0  0  0  0  0  0  0  0  0  0  0  0
    6.5102   -3.0124   13.8994 H   0  0  0  0  0  0  0  0  0  0  0  0
    8.0018   -1.0483   13.8901 H   0  0  0  0  0  0  0  0  0  0  0  0
    6.3612    2.6298   13.6232 H   0  0  0  0  0  0  0  0  0  0  0  0
    7.9737    2.5953   13.1866 H   0  0  0  0  0  0  0  0  0  0  0  0
    1.6480    0.5925   14.1075 H   0  0  0  0  0  0  0  0  0  0  0  0
    1.6339    2.2861   14.6303 H   0  0  0  0  0  0  0  0  0  0  0  0
    4.2954    3.2424   15.3100 H   0  0  0  0  0  0  0  0  0  0  0  0
    3.0692    2.3184   16.1908 H   0  0  0  0  0  0  0  0  0  0  0  0
    3.8366   -3.5362   16.0881 H   0  0  0  0  0  0  0  0  0  0  0  0
    3.0994   -3.0223   14.5328 H   0  0  0  0  0  0  0  0  0  0  0  0
    4.5380   -4.0980   14.5328 H   0  0  0  0  0  0  0  0  0  0  0  0
   -1.0209    1.0452   14.9488 H   0  0  0  0  0  0  0  0  0  0  0  0
   -2.2381    0.2564   13.8891 H   0  0  0  0  0  0  0  0  0  0  0  0
   -0.5375   -0.3223   13.8891 H   0  0  0  0  0  0  0  0  0  0  0  0
   -1.7778    1.9017   12.3678 H   0  0  0  0  0  0  0  0  0  0  0  0
   -0.3041    2.4164   13.2708 H   0  0  0  0  0  0  0  0  0  0  0  0
    6.8755    4.2484   15.5261 H   0  0  0  0  0  0  0  0  0  0  0  0
    8.7722    2.0317   16.5960 H   0  0  0  0  0  0  0  0  0  0  0  0
    7.1841    2.0470   17.1140 H   0  0  0  0  0  0  0  0  0  0  0  0
   -0.0261   -1.9365    8.4801 H   0  0  0  0  0  0  0  0  0  0  0  0
   -1.5534   -1.5446    9.3146 H   0  0  0  0  0  0  0  0  0  0  0  0
    3.8896    0.0647    9.7822 H   0  0  0  0  0  0  0  0  0  0  0  0
    3.9257    1.2066   11.1525 H   0  0  0  0  0  0  0  0  0  0  0  0
  1 15  2  0
  1 17  1  0
  1 26  1  0
  2  8  1  0
  2  9  1  0
  3 10  2  0
  3 11  1  0
  4  5  1  0
  4 11  2  0
  5  6  2  0
  6 10  1  0
  6 25  1  0
  7 18  1  0
  7 25  1  0
  8 26  1  0
  9 27  1  0
 10 27  1  0
 11 12  1  0
 13 14  1  0
 14 15  1  0
 15 21  1  0
 16 21  2  0
 16 22  1  0
 16 23  1  0
 17 23  2  0
 17 24  1  0
 18 19  1  0
 18 20  1  0
 19 25  1  0
 20 28  2  0
 20 29  1  0
  2 30  1  0
  2 31  1  0
  3 32  1  0
  4 33  1  0
  5 34  1  0
  7 35  1  0
  7 36  1  0
  8 37  1  0
  8 38  1  0
  9 39  1  0
  9 40  1  0
 12 41  1  0
 12 42  1  0
 12 43  1  0
 13 44  1  0
 13 45  1  0
 13 46  1  0
 14 47  1  0
 14 48  1  0
 18 49  1  1
 19 50  1  0
 19 51  1  0
 22 52  1  0
 22 53  1  0
 24 54  1  0
 24 55  1  0
M  CHG  1  29  -1
M  END
>  <filename_input>  (23) 
5SD5_HWI_docked.sdf

>  <pdb_id>  (23) 
5SD5_HWI

>  <pose_rank>  (23) 
22

>  <num_atoms_heavy>  (23) 
29

>  <num_torsions>  (23) 
9

>  <pose>  (23) 
[5.0165710538891926, 1.4622183818441639, 16.188815146951047, -1.501656521205429, -2.9656373934688833, 0.5242665189132928, -1.1108443234955958, -2.134075493696902, 3.0910555580761954, 2.791074190925566, 7.6262240019904555, 1.162053356840739, 5.044800067670347, -0.4970867783672469, 0.1561539044220174]

>  <energy>  (23) 
-480.0125611147777

>  <inter_energy>  (23) 
-521.2775315479803

>  <intra_energy>  (23) 
70.03453819981151

>  <rmsd>  (23) 
7.52932

>  <sdf_rank>  (23) 
0

$$$$

     RDKit          3D

 55 57  0  0  0  0  0  0  0  0999 V2000
    4.0359   -0.9638   14.5484 C   0  0  0  0  0  0  0  0  0  0  0  0
    6.5787   -2.3200   15.0129 C   0  0  0  0  0  0  0  0  0  0  0  0
    8.6855   -1.1352   12.4191 C   0  0  0  0  0  0  0  0  0  0  0  0
    8.5953    0.6816   10.8915 C   0  0  0  0  0  0  0  0  0  0  0  0
    8.3654    1.5494   11.9491 C   0  0  0  0  0  0  0  0  0  0  0  0
    8.2737    1.0915   13.2540 C   0  0  0  0  0  0  0  0  0  0  0  0
    9.1039    2.2676   15.3707 C   0  0  0  0  0  0  0  0  0  0  0  0
    5.9664   -1.2935   15.9625 C   0  0  0  0  0  0  0  0  0  0  0  0
    8.0911   -2.1645   14.9793 C   0  0  0  0  0  0  0  0  0  0  0  0
    8.4503   -0.2800   13.4729 C   0  0  0  0  0  0  0  0  0  0  0  0
    8.7606   -0.6717   11.1043 C   0  0  0  0  0  0  0  0  0  0  0  0
    9.0287   -1.6231    9.9496 C   0  0  0  0  0  0  0  0  0  0  0  0
    4.1362    2.8416   14.5134 C   0  0  0  0  0  0  0  0  0  0  0  0
    4.4455    1.4599   15.1361 C   0  0  0  0  0  0  0  0  0  0  0  0
    4.0028    0.3527   14.2084 C   0  0  0  0  0  0  0  0  0  0  0  0
    3.1127   -0.1921   12.1565 C   0  0  0  0  0  0  0  0  0  0  0  0
    3.5869   -1.9196   13.5915 C   0  0  0  0  0  0  0  0  0  0  0  0
    8.6888    3.7535   15.2940 C   0  0  1  0  0  0  0  0  0  0  0  0
    7.5986    3.3416   14.2479 C   0  0  0  0  0  0  0  0  0  0  0  0
    8.0306    4.3131   16.5913 C   0  0  0  0  0  0  0  0  0  0  0  0
    3.5435    0.7402   12.9996 N   0  0  0  0  0  0  0  0  0  0  0  0
    2.6415    0.2453   10.9609 N   0  0  0  0  0  0  0  0  0  0  0  0
    3.1294   -1.5027   12.3960 N   0  0  0  0  0  0  0  0  0  0  0  0
    3.6020   -3.2234   13.8358 N   0  0  0  0  0  0  0  0  0  0  0  0
    8.0757    1.9385   14.3231 N   0  0  0  0  0  0  0  0  0  0  0  0
    4.5274   -1.3798   15.7785 O   0  0  0  0  0  0  0  0  0  0  0  0
    8.3405   -0.7400   14.7754 O   0  0  0  0  0  0  0  0  0  0  0  0
    7.8003    5.5340   16.6294 O   0  0  0  0  0  0  0  0  0  0  0  0
    7.7930    3.4861   17.5284 O   0  0  0  0  0  0  0  0  0  0  0  0
    6.3248   -3.3327   15.3592 H   0  0  0  0  0  0  0  0  0  0  0  0
    6.1778   -2.1585   14.0014 H   0  0  0  0  0  0  0  0  0  0  0  0
    8.8174   -2.2090   12.6182 H   0  0  0  0  0  0  0  0  0  0  0  0
    8.6466    1.0787    9.8669 H   0  0  0  0  0  0  0  0  0  0  0  0
    8.2534    2.6250   11.7476 H   0  0  0  0  0  0  0  0  0  0  0  0
   10.1413    2.0727   15.0610 H   0  0  0  0  0  0  0  0  0  0  0  0
    9.1124    1.7368   16.3341 H   0  0  0  0  0  0  0  0  0  0  0  0
    6.2328   -1.5300   17.0032 H   0  0  0  0  0  0  0  0  0  0  0  0
    6.3378   -0.2799   15.7511 H   0  0  0  0  0  0  0  0  0  0  0  0
    8.5317   -2.4981   15.9304 H   0  0  0  0  0  0  0  0  0  0  0  0
    8.5429   -2.7727   14.1819 H   0  0  0  0  0  0  0  0  0  0  0  0
    9.3070   -2.6109   10.3455 H   0  0  0  0  0  0  0  0  0  0  0  0
    8.1220   -1.7170    9.3339 H   0  0  0  0  0  0  0  0  0  0  0  0
    9.8510   -1.2299    9.3339 H   0  0  0  0  0  0  0  0  0  0  0  0
    3.9716    3.5766   15.3151 H   0  0  0  0  0  0  0  0  0  0  0  0
    4.9849    3.1616   13.8911 H   0  0  0  0  0  0  0  0  0  0  0  0
    3.2320    2.7692   13.8911 H   0  0  0  0  0  0  0  0  0  0  0  0
    5.5283    1.3753   15.3105 H   0  0  0  0  0  0  0  0  0  0  0  0
    3.9009    1.3674   16.0873 H   0  0  0  0  0  0  0  0  0  0  0  0
    9.4475    4.5268   15.1029 H   0  0  0  0  0  0  0  0  0  0  0  0
    6.5643    3.4855   14.5938 H   0  0  0  0  0  0  0  0  0  0  0  0
    7.5260    3.8586   13.2797 H   0  0  0  0  0  0  0  0  0  0  0  0
    2.2937   -0.4307   10.2660 H   0  0  0  0  0  0  0  0  0  0  0  0
    2.6317    1.2532   10.7487 H   0  0  0  0  0  0  0  0  0  0  0  0
    3.2696   -3.8853   13.1201 H   0  0  0  0  0  0  0  0  0  0  0  0
    3.9461   -3.5737   14.7412 H   0  0  0  0  0  0  0  0  0  0  0  0
  1 15  2  0
  1 17  1  0
  1 26  1  0
  2  8  1  0
  2  9  1  0
  3 10  2  0
  3 11  1  0
  4  5  1  0
  4 11  2  0
  5  6  2  0
  6 10  1  0
  6 25  1  0
  7 18  1  0
  7 25  1  0
  8 26  1  0
  9 27  1  0
 10 27  1  0
 11 12  1  0
 13 14  1  0
 14 15  1  0
 15 21  1  0
 16 21  2  0
 16 22  1  0
 16 23  1  0
 17 23  2  0
 17 24  1  0
 18 19  1  0
 18 20  1  0
 19 25  1  0
 20 28  2  0
 20 29  1  0
  2 30  1  0
  2 31  1  0
  3 32  1  0
  4 33  1  0
  5 34  1  0
  7 35  1  0
  7 36  1  0
  8 37  1  0
  8 38  1  0
  9 39  1  0
  9 40  1  0
 12 41  1  0
 12 42  1  0
 12 43  1  0
 13 44  1  0
 13 45  1  0
 13 46  1  0
 14 47  1  0
 14 48  1  0
 18 49  1  6
 19 50  1  0
 19 51  1  0
 22 52  1  0
 22 53  1  0
 24 54  1  0
 24 55  1  0
M  CHG  1  29  -1
M  END
>  <filename_input>  (24) 
5SD5_HWI_docked.sdf

>  <pdb_id>  (24) 
5SD5_HWI

>  <pose_rank>  (24) 
23

>  <num_atoms_heavy>  (24) 
29

>  <num_torsions>  (24) 
9

>  <pose>  (24) 
[8.340490704333003, -0.7399902384334119, 14.77541034670147, 1.4741393292728127, -2.2138388361538777, -0.03259982643962436, 18.65369445757946, 0.46921461967569317, 0.2998008123357086, 13.863693521560203, -2.040837221631188, -4.40338688070975, -10.773418570154078, -2.9808949430477094, -1.0883917884449865]

>  <energy>  (24) 
-461.49148013786385

>  <inter_energy>  (24) 
-480.5915962901802

>  <intra_energy>  (24) 
30.56148434280073

>  <rmsd>  (24) 
6.97082

>  <sdf_rank>  (24) 
0

$$$$

     RDKit          3D

 55 57  0  0  0  0  0  0  0  0999 V2000
    1.2491   -2.0415   14.6376 C   0  0  0  0  0  0  0  0  0  0  0  0
    3.9048   -1.0695   15.3691 C   0  0  0  0  0  0  0  0  0  0  0  0
    7.1741    1.4615   15.8695 C   0  0  0  0  0  0  0  0  0  0  0  0
    6.7155    3.7601   15.4835 C   0  0  0  0  0  0  0  0  0  0  0  0
    5.7618    3.4036   14.5412 C   0  0  0  0  0  0  0  0  0  0  0  0
    5.5097    2.0760   14.2333 C   0  0  0  0  0  0  0  0  0  0  0  0
    3.1186    2.1709   13.3241 C   0  0  0  0  0  0  0  0  0  0  0  0
    3.2598   -2.3273   15.9455 C   0  0  0  0  0  0  0  0  0  0  0  0
    5.4023   -1.0815   15.6335 C   0  0  0  0  0  0  0  0  0  0  0  0
    6.2338    1.1010   14.9298 C   0  0  0  0  0  0  0  0  0  0  0  0
    7.4366    2.8007   16.1645 C   0  0  0  0  0  0  0  0  0  0  0  0
    8.4707    3.1873   17.2090 C   0  0  0  0  0  0  0  0  0  0  0  0
   -0.8520    1.1313   14.5005 C   0  0  0  0  0  0  0  0  0  0  0  0
    0.1438    0.1649   15.1837 C   0  0  0  0  0  0  0  0  0  0  0  0
    0.4760   -0.9867   14.2638 C   0  0  0  0  0  0  0  0  0  0  0  0
    0.1779   -1.9320   12.1863 C   0  0  0  0  0  0  0  0  0  0  0  0
    1.4898   -3.0732   13.6846 C   0  0  0  0  0  0  0  0  0  0  0  0
    3.1896    2.3509   11.7915 C   0  0  1  0  0  0  0  0  0  0  0  0
    4.6541    1.7987   11.8464 C   0  0  0  0  0  0  0  0  0  0  0  0
    2.2650    1.3936   10.9804 C   0  0  0  0  0  0  0  0  0  0  0  0
   -0.0579   -0.9292   13.0254 N   0  0  0  0  0  0  0  0  0  0  0  0
   -0.3955   -1.8410   10.9591 N   0  0  0  0  0  0  0  0  0  0  0  0
    0.9395   -2.9909   12.4588 N   0  0  0  0  0  0  0  0  0  0  0  0
    2.2459   -4.1274   13.9617 N   0  0  0  0  0  0  0  0  0  0  0  0
    4.5466    1.6977   13.3229 N   0  0  0  0  0  0  0  0  0  0  0  0
    1.8246   -2.1035   15.8997 O   0  0  0  0  0  0  0  0  0  0  0  0
    5.9944   -0.2256   14.6088 O   0  0  0  0  0  0  0  0  0  0  0  0
    1.0764    1.3170   11.3358 O   0  0  0  0  0  0  0  0  0  0  0  0
    2.7944    0.7423   10.0243 O   0  0  0  0  0  0  0  0  0  0  0  0
    3.7273   -1.0343   14.2841 H   0  0  0  0  0  0  0  0  0  0  0  0
    3.4615   -0.1851   15.8500 H   0  0  0  0  0  0  0  0  0  0  0  0
    7.7316    0.6757   16.4001 H   0  0  0  0  0  0  0  0  0  0  0  0
    6.8998    4.8245   15.6911 H   0  0  0  0  0  0  0  0  0  0  0  0
    5.1930    4.1922   14.0269 H   0  0  0  0  0  0  0  0  0  0  0  0
    2.9538    3.1053   13.8807 H   0  0  0  0  0  0  0  0  0  0  0  0
    2.3260    1.5600   13.7808 H   0  0  0  0  0  0  0  0  0  0  0  0
    3.5285   -3.2055   15.3400 H   0  0  0  0  0  0  0  0  0  0  0  0
    3.6033   -2.5195   16.9727 H   0  0  0  0  0  0  0  0  0  0  0  0
    5.6174   -0.6835   16.6361 H   0  0  0  0  0  0  0  0  0  0  0  0
    5.8120   -2.1016   15.5950 H   0  0  0  0  0  0  0  0  0  0  0  0
    8.0526    3.0310   18.2144 H   0  0  0  0  0  0  0  0  0  0  0  0
    9.3686    2.5641   17.0843 H   0  0  0  0  0  0  0  0  0  0  0  0
    8.7395    4.2466   17.0843 H   0  0  0  0  0  0  0  0  0  0  0  0
   -1.4169    1.6793   15.2690 H   0  0  0  0  0  0  0  0  0  0  0  0
   -0.2983    1.8454   13.8734 H   0  0  0  0  0  0  0  0  0  0  0  0
   -1.5492    0.5563   13.8734 H   0  0  0  0  0  0  0  0  0  0  0  0
    1.0670    0.7101   15.4297 H   0  0  0  0  0  0  0  0  0  0  0  0
   -0.3165   -0.2322   16.1005 H   0  0  0  0  0  0  0  0  0  0  0  0
    2.9254    3.3181   11.3391 H   0  0  0  0  0  0  0  0  0  0  0  0
    4.7916    0.8335   11.3370 H   0  0  0  0  0  0  0  0  0  0  0  0
    5.4813    2.3544   11.3806 H   0  0  0  0  0  0  0  0  0  0  0  0
   -0.2488   -2.5881   10.2655 H   0  0  0  0  0  0  0  0  0  0  0  0
   -0.9772   -1.0248   10.7217 H   0  0  0  0  0  0  0  0  0  0  0  0
    2.3980   -4.8540   13.2477 H   0  0  0  0  0  0  0  0  0  0  0  0
    2.6808   -4.2193   14.8908 H   0  0  0  0  0  0  0  0  0  0  0  0
  1 15  2  0
  1 17  1  0
  1 26  1  0
  2  8  1  0
  2  9  1  0
  3 10  2  0
  3 11  1  0
  4  5  1  0
  4 11  2  0
  5  6  2  0
  6 10  1  0
  6 25  1  0
  7 18  1  0
  7 25  1  0
  8 26  1  0
  9 27  1  0
 10 27  1  0
 11 12  1  0
 13 14  1  0
 14 15  1  0
 15 21  1  0
 16 21  2  0
 16 22  1  0
 16 23  1  0
 17 23  2  0
 17 24  1  0
 18 19  1  0
 18 20  1  0
 19 25  1  0
 20 28  2  0
 20 29  1  0
  2 30  1  0
  2 31  1  0
  3 32  1  0
  4 33  1  0
  5 34  1  0
  7 35  1  0
  7 36  1  0
  8 37  1  0
  8 38  1  0
  9 39  1  0
  9 40  1  0
 12 41  1  0
 12 42  1  0
 12 43  1  0
 13 44  1  0
 13 45  1  0
 13 46  1  0
 14 47  1  0
 14 48  1  0
 18 49  1  1
 19 50  1  0
 19 51  1  0
 22 52  1  0
 22 53  1  0
 24 54  1  0
 24 55  1  0
M  CHG  1  29  -1
M  END
>  <filename_input>  (25) 
5SD5_HWI_docked.sdf

>  <pdb_id>  (25) 
5SD5_HWI

>  <pose_rank>  (25) 
24

>  <num_atoms_heavy>  (25) 
29

>  <num_torsions>  (25) 
9

>  <pose>  (25) 
[5.99440202064985, -0.22564022864112268, 14.608811070664647, -0.6201018692198974, -0.334234929141957, -1.8394553052363485, 1.276274060482812, 1.4962288191016815, -1.8565340232594818, -1.7489819999993068, 1.5346917264255626, 1.8234141403593453, -2.1366333217867246, 2.3507556354219123, -1.1106049643572422]

>  <energy>  (25) 
-507.5736109157881

>  <inter_energy>  (25) 
-524.8610131537232

>  <intra_energy>  (25) 
32.31097362857068

>  <rmsd>  (25) 
7.12214

>  <sdf_rank>  (25) 
0

$$$$

     RDKit          3D

 55 57  0  0  0  0  0  0  0  0999 V2000
    8.8630    3.6890   14.7430 C   0  0  0  0  0  0  0  0  0  0  0  0
    8.4300    0.6470   12.7240 C   0  0  0  0  0  0  0  0  0  0  0  0
    5.6600   -0.6810   15.6910 C   0  0  0  0  0  0  0  0  0  0  0  0
    3.4480   -0.4520   16.5260 C   0  0  0  0  0  0  0  0  0  0  0  0
    3.0860    0.2120   15.3630 C   0  0  0  0  0  0  0  0  0  0  0  0
    4.0040    0.4570   14.3540 C   0  0  0  0  0  0  0  0  0  0  0  0
    4.0980    0.6600   11.8040 C   0  0  0  0  0  0  0  0  0  0  0  0
    8.3530    2.1550   12.9480 C   0  0  0  0  0  0  0  0  0  0  0  0
    7.6310   -0.0820   13.7930 C   0  0  0  0  0  0  0  0  0  0  0  0
    5.3090   -0.0160   14.5370 C   0  0  0  0  0  0  0  0  0  0  0  0
    4.7360   -0.9110   16.7120 C   0  0  0  0  0  0  0  0  0  0  0  0
    5.1320   -1.6530   17.9780 C   0  0  0  0  0  0  0  0  0  0  0  0
    5.5140    3.2960   15.7650 C   0  0  0  0  0  0  0  0  0  0  0  0
    6.9510    2.9530   16.2230 C   0  0  0  0  0  0  0  0  0  0  0  0
    7.9310    3.9730   15.6920 C   0  0  0  0  0  0  0  0  0  0  0  0
    8.6440    6.1610   15.7480 C   0  0  0  0  0  0  0  0  0  0  0  0
    9.7310    4.7350   14.3150 C   0  0  0  0  0  0  0  0  0  0  0  0
    2.6640    0.9040   11.2840 C   0  0  1  0  0  0  0  0  0  0  0  0
    2.2810    1.3920   12.7220 C   0  0  0  0  0  0  0  0  0  0  0  0
    2.5350    2.0640   10.2510 C   0  0  0  0  0  0  0  0  0  0  0  0
    7.8260    5.2180   16.2030 N   0  0  0  0  0  0  0  0  0  0  0  0
    8.4890    7.4020   16.2760 N   0  0  0  0  0  0  0  0  0  0  0  0
    9.5990    5.9680   14.8390 N   0  0  0  0  0  0  0  0  0  0  0  0
   10.6780    4.5390   13.4070 N   0  0  0  0  0  0  0  0  0  0  0  0
    3.6600    1.0880   13.1780 N   0  0  0  0  0  0  0  0  0  0  0  0
    8.9990    2.4080   14.2250 O   0  0  0  0  0  0  0  0  0  0  0  0
    6.2310    0.2450   13.5360 O   0  0  0  0  0  0  0  0  0  0  0  0
    1.5680    2.0240    9.4710 O   0  0  0  0  0  0  0  0  0  0  0  0
    3.4380    2.9600   10.2640 O   0  0  0  0  0  0  0  0  0  0  0  0
    8.0178    0.4049   11.7333 H   0  0  0  0  0  0  0  0  0  0  0  0
    9.4812    0.3281   12.7803 H   0  0  0  0  0  0  0  0  0  0  0  0
    6.6930   -1.0394   15.8110 H   0  0  0  0  0  0  0  0  0  0  0  0
    2.6964   -0.6152   17.3124 H   0  0  0  0  0  0  0  0  0  0  0  0
    2.0471    0.5516   15.2389 H   0  0  0  0  0  0  0  0  0  0  0  0
    4.4279   -0.3875   11.7419 H   0  0  0  0  0  0  0  0  0  0  0  0
    4.9602    1.1380   11.3161 H   0  0  0  0  0  0  0  0  0  0  0  0
    8.8792    2.6877   12.1422 H   0  0  0  0  0  0  0  0  0  0  0  0
    7.3111    2.5078   12.9487 H   0  0  0  0  0  0  0  0  0  0  0  0
    7.7909   -1.1677   13.7170 H   0  0  0  0  0  0  0  0  0  0  0  0
    7.9382    0.2208   14.8049 H   0  0  0  0  0  0  0  0  0  0  0  0
    4.8208   -1.0699   18.8573 H   0  0  0  0  0  0  0  0  0  0  0  0
    4.6385   -2.6359   17.9965 H   0  0  0  0  0  0  0  0  0  0  0  0
    6.2233   -1.7902   17.9965 H   0  0  0  0  0  0  0  0  0  0  0  0
    4.8747    3.4486   16.6470 H   0  0  0  0  0  0  0  0  0  0  0  0
    5.5312    4.2153   15.1611 H   0  0  0  0  0  0  0  0  0  0  0  0
    5.1142    2.4681   15.1611 H   0  0  0  0  0  0  0  0  0  0  0  0
    6.9902    2.9509   17.3223 H   0  0  0  0  0  0  0  0  0  0  0  0
    7.2224    1.9609   15.8330 H   0  0  0  0  0  0  0  0  0  0  0  0
    2.1274    0.1023   10.7554 H   0  0  0  0  0  0  0  0  0  0  0  0
    2.0111    2.4568   12.7800 H   0  0  0  0  0  0  0  0  0  0  0  0
    1.4108    0.9688   13.2451 H   0  0  0  0  0  0  0  0  0  0  0  0
    9.0942    8.1743   15.9626 H   0  0  0  0  0  0  0  0  0  0  0  0
    7.7662    7.5713   16.9900 H   0  0  0  0  0  0  0  0  0  0  0  0
   11.2872    5.3189   13.1217 H   0  0  0  0  0  0  0  0  0  0  0  0
   10.8041    3.6069   12.9873 H   0  0  0  0  0  0  0  0  0  0  0  0
  1 15  2  0
  1 17  1  0
  1 26  1  0
  2  8  1  0
  2  9  1  0
  3 10  2  0
  3 11  1  0
  4  5  1  0
  4 11  2  0
  5  6  2  0
  6 10  1  0
  6 25  1  0
  7 18  1  0
  7 25  1  0
  8 26  1  0
  9 27  1  0
 10 27  1  0
 11 12  1  0
 13 14  1  0
 14 15  1  0
 15 21  1  0
 16 21  2  0
 16 22  1  0
 16 23  1  0
 17 23  2  0
 17 24  1  0
 18 19  1  0
 18 20  1  0
 19 25  1  0
 20 28  2  0
 20 29  1  0
  2 30  1  0
  2 31  1  0
  3 32  1  0
  4 33  1  0
  5 34  1  0
  7 35  1  0
  7 36  1  0
  8 37  1  0
  8 38  1  0
  9 39  1  0
  9 40  1  0
 12 41  1  0
 12 42  1  0
 12 43  1  0
 13 44  1  0
 13 45  1  0
 13 46  1  0
 14 47  1  0
 14 48  1  0
 18 49  1  6
 19 50  1  0
 19 51  1  0
 22 52  1  0
 22 53  1  0
 24 54  1  0
 24 55  1  0
M  CHG  1  29  -1
M  END
>  <filename_input>  (26) 
5SD5_HWI_docked.sdf

>  <pdb_id>  (26) 
5SD5_HWI

>  <pose_rank>  (26) 
25

>  <num_atoms_heavy>  (26) 
29

>  <num_torsions>  (26) 
9

>  <pose>  (26) 
[6.231, 0.245, 13.536, 1e-06, 1e-06, 1e-06, 0.0, 0.0, 0.0, 0.0, 0.0, 0.0, 0.0, 0.0, 0.0]

>  <energy>  (26) 
-1679.1214682813054

>  <inter_energy>  (26) 
-1726.1637189464984

>  <intra_energy>  (26) 
28.917525070493703

>  <rmsd>  (26) 
0.0

>  <sdf_rank>  (26) 
0

$$$$
