
     RDKit          3D

 58 61  0  0  0  0  0  0  0  0999 V2000
   28.1874  109.5140   56.6641 C   0  0  0  0  0  0  0  0  0  0  0  0
   29.4449  109.4912   58.8342 C   0  0  0  0  0  0  0  0  0  0  0  0
   30.6566  109.4347   59.4053 C   0  0  0  0  0  0  0  0  0  0  0  0
   27.8736  109.4080   54.1229 C   0  0  0  0  0  0  0  0  0  0  0  0
   36.9020  111.1265   58.5918 C   0  0  0  0  0  0  0  0  0  0  0  0
   34.0411  105.3621   62.2493 C   0  0  0  0  0  0  0  0  0  0  0  0
   36.3623  105.7383   61.4464 C   0  0  0  0  0  0  0  0  0  0  0  0
   26.5000  109.6253   54.1193 C   0  0  0  0  0  0  0  0  0  0  0  0
   28.5271  109.2835   52.9023 C   0  0  0  0  0  0  0  0  0  0  0  0
   34.3925  104.9558   63.6703 C   0  0  0  0  0  0  0  0  0  0  0  0
   35.5971  108.5641   60.8262 C   0  0  0  0  0  0  0  0  0  0  0  0
   35.4062  109.3984   59.7175 C   0  0  0  0  0  0  0  0  0  0  0  0
   30.4143  109.4096   56.6264 C   0  0  0  0  0  0  0  0  0  0  0  0
   30.0357  109.4093   55.3509 N   0  0  0  0  0  0  0  0  0  0  0  0
   34.2837  109.5351   58.7889 C   0  0  0  0  0  0  0  0  0  0  0  0
   29.3082  109.4823   57.4641 N   0  0  0  0  0  0  0  0  0  0  0  0
   34.6185  107.6045   61.3808 C   0  0  0  0  0  0  0  0  0  0  0  0
   28.6460  109.4881   55.3740 C   0  0  0  0  0  0  0  0  0  0  0  0
   31.7052  109.3439   57.2027 C   0  0  0  0  0  0  0  0  0  0  0  0
   36.5463  110.1211   59.5859 N   0  0  0  0  0  0  0  0  0  0  0  0
   37.4636  109.8057   60.5479 N   0  0  0  0  0  0  0  0  0  0  0  0
   36.8824  108.8814   61.2907 C   0  0  0  0  0  0  0  0  0  0  0  0
   31.8366  109.3658   58.5658 C   0  0  0  0  0  0  0  0  0  0  0  0
   33.0332  109.3040   59.3014 N   0  0  0  0  0  0  0  0  0  0  0  0
   35.0275  106.2771   61.6736 N   0  0  0  0  0  0  0  0  0  0  0  0
   34.4755  109.8209   57.6108 O   0  0  0  0  0  0  0  0  0  0  0  0
   33.4641  107.9595   61.6060 O   0  0  0  0  0  0  0  0  0  0  0  0
   34.4444  106.1621   64.5708 N   0  0  0  0  0  0  0  0  0  0  0  0
   35.4821  106.1686   65.6079 C   0  0  0  0  0  0  0  0  0  0  0  0
   27.8125  109.2874   51.7175 C   0  0  0  0  0  0  0  0  0  0  0  0
   25.7914  109.6328   52.9287 C   0  0  0  0  0  0  0  0  0  0  0  0
   26.4492  109.4671   51.7281 C   0  0  0  0  0  0  0  0  0  0  0  0
   27.1387  109.5522   56.9939 H   0  0  0  0  0  0  0  0  0  0  0  0
   28.5480  109.5455   59.4687 H   0  0  0  0  0  0  0  0  0  0  0  0
   30.7545  109.4405   60.5009 H   0  0  0  0  0  0  0  0  0  0  0  0
   37.2272  112.0461   59.1004 H   0  0  0  0  0  0  0  0  0  0  0  0
   37.7202  110.7465   57.9624 H   0  0  0  0  0  0  0  0  0  0  0  0
   36.0268  111.3456   57.9624 H   0  0  0  0  0  0  0  0  0  0  0  0
   33.9906  104.4578   61.6250 H   0  0  0  0  0  0  0  0  0  0  0  0
   33.0736  105.8847   62.2781 H   0  0  0  0  0  0  0  0  0  0  0  0
   36.8480  105.5422   62.4137 H   0  0  0  0  0  0  0  0  0  0  0  0
   36.2870  104.8001   60.8771 H   0  0  0  0  0  0  0  0  0  0  0  0
   36.9594  106.4658   60.8771 H   0  0  0  0  0  0  0  0  0  0  0  0
   25.9717  109.7926   55.0695 H   0  0  0  0  0  0  0  0  0  0  0  0
   29.6221  109.1809   52.8782 H   0  0  0  0  0  0  0  0  0  0  0  0
   33.6298  104.2575   64.0454 H   0  0  0  0  0  0  0  0  0  0  0  0
   35.3815  104.4741   63.6664 H   0  0  0  0  0  0  0  0  0  0  0  0
   32.5960  109.2759   56.5609 H   0  0  0  0  0  0  0  0  0  0  0  0
   37.3508  108.4152   62.1701 H   0  0  0  0  0  0  0  0  0  0  0  0
   32.9652  109.0672   60.3015 H   0  0  0  0  0  0  0  0  0  0  0  0
   34.5935  106.9893   63.9755 H   0  0  0  0  0  0  0  0  0  0  0  0
   33.5510  106.1547   65.0833 H   0  0  0  0  0  0  0  0  0  0  0  0
   35.0084  106.1656   66.6007 H   0  0  0  0  0  0  0  0  0  0  0  0
   36.1137  105.2745   65.5003 H   0  0  0  0  0  0  0  0  0  0  0  0
   36.1023  107.0707   65.5003 H   0  0  0  0  0  0  0  0  0  0  0  0
   28.3379  109.1460   50.7615 H   0  0  0  0  0  0  0  0  0  0  0  0
   24.7002  109.7714   52.9411 H   0  0  0  0  0  0  0  0  0  0  0  0
   25.8860  109.4786   50.7833 H   0  0  0  0  0  0  0  0  0  0  0  0
  1 16  1  0
  1 18  2  0
  2  3  2  0
  2 16  1  0
  3 23  1  0
  4  8  2  0
  4  9  1  0
  4 18  1  0
  5 20  1  0
  6 10  1  0
  6 25  1  0
  7 25  1  0
  8 31  1  0
  9 30  2  0
 10 28  1  0
 11 12  2  0
 11 17  1  0
 11 22  1  0
 12 15  1  0
 12 20  1  0
 13 14  2  0
 13 16  1  0
 13 19  1  0
 14 18  1  0
 15 24  1  0
 15 26  2  0
 17 25  1  0
 17 27  2  0
 19 23  2  0
 20 21  1  0
 21 22  2  0
 23 24  1  0
 28 29  1  0
 30 32  1  0
 31 32  2  0
  1 33  1  0
  2 34  1  0
  3 35  1  0
  5 36  1  0
  5 37  1  0
  5 38  1  0
  6 39  1  0
  6 40  1  0
  7 41  1  0
  7 42  1  0
  7 43  1  0
  8 44  1  0
  9 45  1  0
 10 46  1  0
 10 47  1  0
 19 48  1  0
 22 49  1  0
 24 50  1  0
 28 51  1  0
 28 52  1  0
 29 53  1  0
 29 54  1  0
 29 55  1  0
 30 56  1  0
 31 57  1  0
 32 58  1  0
M  CHG  1  28   1
M  END
>  <filename_input>  (1) 
5SIS_JSM_docked.sdf

>  <pdb_id>  (1) 
5SIS_JSM

>  <pose_rank>  (1) 
0

>  <num_atoms_heavy>  (1) 
32

>  <num_torsions>  (1) 
7

>  <pose>  (1) 
[34.283749648493476, 109.53509571110479, 58.788938311234794, -0.026779122543490436, 0.024733831321288362, 0.0010212805073374666, -0.017258053423733488, 3.0536312881187273, -0.05952250018070564, -0.029455459520742397, 5.6091191885079965, 2.1742121803798824, 1.9855160863705645]

>  <energy>  (1) 
-1244.2422771487722

>  <inter_energy>  (1) 
-1318.951223118006

>  <intra_energy>  (1) 
74.68517023092811

>  <rmsd>  (1) 
0.364223

>  <sdf_rank>  (1) 
0

$$$$

     RDKit          3D

 58 61  0  0  0  0  0  0  0  0999 V2000
   27.9377  109.3714   55.8682 C   0  0  0  0  0  0  0  0  0  0  0  0
   29.1179  109.3980   58.0813 C   0  0  0  0  0  0  0  0  0  0  0  0
   30.3078  109.3411   58.6966 C   0  0  0  0  0  0  0  0  0  0  0  0
   27.7115  109.1903   53.3220 C   0  0  0  0  0  0  0  0  0  0  0  0
   34.2193  107.0823   60.2257 C   0  0  0  0  0  0  0  0  0  0  0  0
   38.1726  113.0147   58.0612 C   0  0  0  0  0  0  0  0  0  0  0  0
   38.9275  111.1630   59.5361 C   0  0  0  0  0  0  0  0  0  0  0  0
   26.3742  109.5617   53.2335 C   0  0  0  0  0  0  0  0  0  0  0  0
   28.3907  108.8786   52.1499 C   0  0  0  0  0  0  0  0  0  0  0  0
   39.2582  112.7824   57.0242 C   0  0  0  0  0  0  0  0  0  0  0  0
   36.1387  110.0804   59.4583 C   0  0  0  0  0  0  0  0  0  0  0  0
   35.0414  109.2555   59.1805 C   0  0  0  0  0  0  0  0  0  0  0  0
   30.1626  109.2322   55.9129 C   0  0  0  0  0  0  0  0  0  0  0  0
   29.8289  109.1974   54.6254 N   0  0  0  0  0  0  0  0  0  0  0  0
   33.9541  109.3827   58.2097 C   0  0  0  0  0  0  0  0  0  0  0  0
   29.0292  109.3479   56.7081 N   0  0  0  0  0  0  0  0  0  0  0  0
   36.5025  111.3251   58.7482 C   0  0  0  0  0  0  0  0  0  0  0  0
   28.4407  109.2980   54.5967 C   0  0  0  0  0  0  0  0  0  0  0  0
   31.4313  109.1652   56.5365 C   0  0  0  0  0  0  0  0  0  0  0  0
   35.1127  108.2219   60.0557 N   0  0  0  0  0  0  0  0  0  0  0  0
   36.1952  108.3277   60.8824 N   0  0  0  0  0  0  0  0  0  0  0  0
   36.8080  109.4367   60.5101 C   0  0  0  0  0  0  0  0  0  0  0  0
   31.5152  109.2279   57.9020 C   0  0  0  0  0  0  0  0  0  0  0  0
   32.6841  109.1713   58.6812 N   0  0  0  0  0  0  0  0  0  0  0  0
   37.8406  111.7959   58.8000 N   0  0  0  0  0  0  0  0  0  0  0  0
   34.1903  109.6442   57.0340 O   0  0  0  0  0  0  0  0  0  0  0  0
   35.6567  111.9370   58.1004 O   0  0  0  0  0  0  0  0  0  0  0  0
   38.6528  112.4360   55.6892 N   0  0  0  0  0  0  0  0  0  0  0  0
   38.7125  111.0279   55.2816 C   0  0  0  0  0  0  0  0  0  0  0  0
   27.7262  108.8535   50.9365 C   0  0  0  0  0  0  0  0  0  0  0  0
   25.7163  109.5390   52.0143 C   0  0  0  0  0  0  0  0  0  0  0  0
   26.3942  109.1879   50.8659 C   0  0  0  0  0  0  0  0  0  0  0  0
   26.8789  109.4359   56.1593 H   0  0  0  0  0  0  0  0  0  0  0  0
   28.2003  109.4858   58.6816 H   0  0  0  0  0  0  0  0  0  0  0  0
   30.3673  109.3799   59.7943 H   0  0  0  0  0  0  0  0  0  0  0  0
   34.0692  106.8909   61.2985 H   0  0  0  0  0  0  0  0  0  0  0  0
   33.2505  107.3023   59.7535 H   0  0  0  0  0  0  0  0  0  0  0  0
   34.6641  106.1940   59.7535 H   0  0  0  0  0  0  0  0  0  0  0  0
   38.5214  113.7765   58.7739 H   0  0  0  0  0  0  0  0  0  0  0  0
   37.2666  113.3449   57.5319 H   0  0  0  0  0  0  0  0  0  0  0  0
   38.7483  111.2674   60.6163 H   0  0  0  0  0  0  0  0  0  0  0  0
   38.9754  110.0958   59.2738 H   0  0  0  0  0  0  0  0  0  0  0  0
   39.8793  111.6481   59.2738 H   0  0  0  0  0  0  0  0  0  0  0  0
   25.8344  109.8761   54.1388 H   0  0  0  0  0  0  0  0  0  0  0  0
   29.4660  108.6498   52.1873 H   0  0  0  0  0  0  0  0  0  0  0  0
   39.8610  113.6967   56.9212 H   0  0  0  0  0  0  0  0  0  0  0  0
   39.8897  111.9445   57.3545 H   0  0  0  0  0  0  0  0  0  0  0  0
   32.3428  109.0635   55.9291 H   0  0  0  0  0  0  0  0  0  0  0  0
   37.7341  109.8116   60.9704 H   0  0  0  0  0  0  0  0  0  0  0  0
   32.5784  108.9544   59.6825 H   0  0  0  0  0  0  0  0  0  0  0  0
   37.6605  112.7108   55.7162 H   0  0  0  0  0  0  0  0  0  0  0  0
   39.2218  112.9419   54.9955 H   0  0  0  0  0  0  0  0  0  0  0  0
   38.7397  110.3881   56.1760 H   0  0  0  0  0  0  0  0  0  0  0  0
   37.8240  110.7818   54.6816 H   0  0  0  0  0  0  0  0  0  0  0  0
   39.6187  110.8579   54.6816 H   0  0  0  0  0  0  0  0  0  0  0  0
   28.2665  108.5644   50.0230 H   0  0  0  0  0  0  0  0  0  0  0  0
   24.6494  109.8019   51.9622 H   0  0  0  0  0  0  0  0  0  0  0  0
   25.8719  109.1755   49.8979 H   0  0  0  0  0  0  0  0  0  0  0  0
  1 16  1  0
  1 18  2  0
  2  3  2  0
  2 16  1  0
  3 23  1  0
  4  8  2  0
  4  9  1  0
  4 18  1  0
  5 20  1  0
  6 10  1  0
  6 25  1  0
  7 25  1  0
  8 31  1  0
  9 30  2  0
 10 28  1  0
 11 12  2  0
 11 17  1  0
 11 22  1  0
 12 15  1  0
 12 20  1  0
 13 14  2  0
 13 16  1  0
 13 19  1  0
 14 18  1  0
 15 24  1  0
 15 26  2  0
 17 25  1  0
 17 27  2  0
 19 23  2  0
 20 21  1  0
 21 22  2  0
 23 24  1  0
 28 29  1  0
 30 32  1  0
 31 32  2  0
  1 33  1  0
  2 34  1  0
  3 35  1  0
  5 36  1  0
  5 37  1  0
  5 38  1  0
  6 39  1  0
  6 40  1  0
  7 41  1  0
  7 42  1  0
  7 43  1  0
  8 44  1  0
  9 45  1  0
 10 46  1  0
 10 47  1  0
 19 48  1  0
 22 49  1  0
 24 50  1  0
 28 51  1  0
 28 52  1  0
 29 53  1  0
 29 54  1  0
 29 55  1  0
 30 56  1  0
 31 57  1  0
 32 58  1  0
M  CHG  1  28   1
M  END
>  <filename_input>  (2) 
5SIS_JSM_docked.sdf

>  <pdb_id>  (2) 
5SIS_JSM

>  <pose_rank>  (2) 
1

>  <num_atoms_heavy>  (2) 
32

>  <num_torsions>  (2) 
7

>  <pose>  (2) 
[33.954109232889124, 109.3827351776392, 58.20972728561596, -6.075155661845769, -1.4597147335682694, -1.0217024596642477, -0.003012676525687971, 3.171239493111701, -2.9306289485416728, -11.367487963435487, -0.7960593291394813, 2.7198958998839724, 2.6557918599319694]

>  <energy>  (2) 
-975.1674649980885

>  <inter_energy>  (2) 
-1054.4452969714391

>  <intra_energy>  (2) 
72.63853220922803

>  <rmsd>  (2) 
4.63561

>  <sdf_rank>  (2) 
0

$$$$

     RDKit          3D

 58 61  0  0  0  0  0  0  0  0999 V2000
   28.7484  109.5821   56.2333 C   0  0  0  0  0  0  0  0  0  0  0  0
   31.2432  109.3443   56.3369 C   0  0  0  0  0  0  0  0  0  0  0  0
   32.3099  109.2627   57.1449 C   0  0  0  0  0  0  0  0  0  0  0  0
   26.3735  109.9011   57.1416 C   0  0  0  0  0  0  0  0  0  0  0  0
   36.9423  111.4128   58.9810 C   0  0  0  0  0  0  0  0  0  0  0  0
   33.5125  105.9707   62.3653 C   0  0  0  0  0  0  0  0  0  0  0  0
   34.2645  108.2396   63.0441 C   0  0  0  0  0  0  0  0  0  0  0  0
   25.7710  110.1281   55.9089 C   0  0  0  0  0  0  0  0  0  0  0  0
   25.5586  109.7294   58.2548 C   0  0  0  0  0  0  0  0  0  0  0  0
   33.8348  105.3321   63.7055 C   0  0  0  0  0  0  0  0  0  0  0  0
   36.0088  108.2940   60.6130 C   0  0  0  0  0  0  0  0  0  0  0  0
   35.7014  109.3048   59.6934 C   0  0  0  0  0  0  0  0  0  0  0  0
   29.7498  109.5134   58.2243 C   0  0  0  0  0  0  0  0  0  0  0  0
   28.4507  109.6384   58.4827 N   0  0  0  0  0  0  0  0  0  0  0  0
   34.5675  109.4767   58.7849 C   0  0  0  0  0  0  0  0  0  0  0  0
   29.9727  109.4659   56.8537 N   0  0  0  0  0  0  0  0  0  0  0  0
   35.1729  107.1179   60.9359 C   0  0  0  0  0  0  0  0  0  0  0  0
   27.8240  109.6676   57.2400 C   0  0  0  0  0  0  0  0  0  0  0  0
   30.8585  109.4342   59.1003 C   0  0  0  0  0  0  0  0  0  0  0  0
   36.7313  110.1860   59.7401 N   0  0  0  0  0  0  0  0  0  0  0  0
   37.6867  109.8063   60.6398 N   0  0  0  0  0  0  0  0  0  0  0  0
   37.2402  108.6794   61.1640 C   0  0  0  0  0  0  0  0  0  0  0  0
   32.1191  109.3008   58.5816 C   0  0  0  0  0  0  0  0  0  0  0  0
   33.3245  109.2132   59.3000 N   0  0  0  0  0  0  0  0  0  0  0  0
   34.3494  107.1397   62.0918 N   0  0  0  0  0  0  0  0  0  0  0  0
   34.7437  109.8185   57.6193 O   0  0  0  0  0  0  0  0  0  0  0  0
   35.1755  106.1362   60.1973 O   0  0  0  0  0  0  0  0  0  0  0  0
   33.7245  103.8323   63.6200 N   0  0  0  0  0  0  0  0  0  0  0  0
   34.4911  103.0562   64.6010 C   0  0  0  0  0  0  0  0  0  0  0  0
   24.1860  109.8697   58.1509 C   0  0  0  0  0  0  0  0  0  0  0  0
   24.3954  110.2627   55.8115 C   0  0  0  0  0  0  0  0  0  0  0  0
   23.6037  110.1300   56.9327 C   0  0  0  0  0  0  0  0  0  0  0  0
   28.5532  109.6021   55.1510 H   0  0  0  0  0  0  0  0  0  0  0  0
   31.3849  109.3137   55.2465 H   0  0  0  0  0  0  0  0  0  0  0  0
   33.3208  109.1677   56.7217 H   0  0  0  0  0  0  0  0  0  0  0  0
   37.0869  112.2535   59.6756 H   0  0  0  0  0  0  0  0  0  0  0  0
   37.8347  111.3030   58.3474 H   0  0  0  0  0  0  0  0  0  0  0  0
   36.0644  111.6075   58.3474 H   0  0  0  0  0  0  0  0  0  0  0  0
   33.6734  105.2269   61.5710 H   0  0  0  0  0  0  0  0  0  0  0  0
   32.4653  106.3060   62.3952 H   0  0  0  0  0  0  0  0  0  0  0  0
   34.2953  107.8407   64.0687 H   0  0  0  0  0  0  0  0  0  0  0  0
   35.1125  108.9233   62.8911 H   0  0  0  0  0  0  0  0  0  0  0  0
   33.3216  108.7851   62.8911 H   0  0  0  0  0  0  0  0  0  0  0  0
   26.3917  110.2014   55.0038 H   0  0  0  0  0  0  0  0  0  0  0  0
   26.0091  109.4797   59.2268 H   0  0  0  0  0  0  0  0  0  0  0  0
   34.8602  105.6029   63.9973 H   0  0  0  0  0  0  0  0  0  0  0  0
   33.1162  105.6978   64.4537 H   0  0  0  0  0  0  0  0  0  0  0  0
   30.7090  109.4794   60.1891 H   0  0  0  0  0  0  0  0  0  0  0  0
   37.7713  108.1100   61.9410 H   0  0  0  0  0  0  0  0  0  0  0  0
   33.2695  108.9295   60.2886 H   0  0  0  0  0  0  0  0  0  0  0  0
   32.7311  103.5858   63.7351 H   0  0  0  0  0  0  0  0  0  0  0  0
   34.1275  103.5839   62.7052 H   0  0  0  0  0  0  0  0  0  0  0  0
   34.1954  103.3556   65.6174 H   0  0  0  0  0  0  0  0  0  0  0  0
   34.2873  101.9844   64.4606 H   0  0  0  0  0  0  0  0  0  0  0  0
   35.5653  103.2466   64.4606 H   0  0  0  0  0  0  0  0  0  0  0  0
   23.5569  109.7724   59.0481 H   0  0  0  0  0  0  0  0  0  0  0  0
   23.9333  110.4763   54.8364 H   0  0  0  0  0  0  0  0  0  0  0  0
   22.5113  110.2318   56.8529 H   0  0  0  0  0  0  0  0  0  0  0  0
  1 16  1  0
  1 18  2  0
  2  3  2  0
  2 16  1  0
  3 23  1  0
  4  8  2  0
  4  9  1  0
  4 18  1  0
  5 20  1  0
  6 10  1  0
  6 25  1  0
  7 25  1  0
  8 31  1  0
  9 30  2  0
 10 28  1  0
 11 12  2  0
 11 17  1  0
 11 22  1  0
 12 15  1  0
 12 20  1  0
 13 14  2  0
 13 16  1  0
 13 19  1  0
 14 18  1  0
 15 24  1  0
 15 26  2  0
 17 25  1  0
 17 27  2  0
 19 23  2  0
 20 21  1  0
 21 22  2  0
 23 24  1  0
 28 29  1  0
 30 32  1  0
 31 32  2  0
  1 33  1  0
  2 34  1  0
  3 35  1  0
  5 36  1  0
  5 37  1  0
  5 38  1  0
  6 39  1  0
  6 40  1  0
  7 41  1  0
  7 42  1  0
  7 43  1  0
  8 44  1  0
  9 45  1  0
 10 46  1  0
 10 47  1  0
 19 48  1  0
 22 49  1  0
 24 50  1  0
 28 51  1  0
 28 52  1  0
 29 53  1  0
 29 54  1  0
 29 55  1  0
 30 56  1  0
 31 57  1  0
 32 58  1  0
M  CHG  1  28   1
M  END
>  <filename_input>  (3) 
5SIS_JSM_docked.sdf

>  <pdb_id>  (3) 
5SIS_JSM

>  <pose_rank>  (3) 
2

>  <num_atoms_heavy>  (3) 
32

>  <num_torsions>  (3) 
7

>  <pose>  (3) 
[34.56748299940426, 109.47669523257825, 58.78491826711546, 2.9875584209765047, 5.4255560775038685, 1.282740440173918, 3.190019276866274, -3.5144600089998312, 0.14823714681749173, 2.234224178383691, 3.4114910121022453, -1.3849687993603113, 0.9189836796512049]

>  <energy>  (3) 
-957.8467526730359

>  <inter_energy>  (3) 
-983.9151134575717

>  <intra_energy>  (3) 
51.434471182428226

>  <rmsd>  (3) 
2.73278

>  <sdf_rank>  (3) 
0

$$$$

     RDKit          3D

 58 61  0  0  0  0  0  0  0  0999 V2000
   29.9419  110.6203   54.9265 C   0  0  0  0  0  0  0  0  0  0  0  0
   31.5904  111.0290   56.7723 C   0  0  0  0  0  0  0  0  0  0  0  0
   32.2218  110.4906   57.8252 C   0  0  0  0  0  0  0  0  0  0  0  0
   28.2224  109.3076   53.5527 C   0  0  0  0  0  0  0  0  0  0  0  0
   32.3508  107.8893   61.9281 C   0  0  0  0  0  0  0  0  0  0  0  0
   38.8090  110.4199   59.8257 C   0  0  0  0  0  0  0  0  0  0  0  0
   37.0175  111.1335   61.3927 C   0  0  0  0  0  0  0  0  0  0  0  0
   26.8864  109.5806   53.8259 C   0  0  0  0  0  0  0  0  0  0  0  0
   28.5859  109.0292   52.2402 C   0  0  0  0  0  0  0  0  0  0  0  0
   40.0066  110.6505   60.7315 C   0  0  0  0  0  0  0  0  0  0  0  0
   35.8933  108.3648   61.2310 C   0  0  0  0  0  0  0  0  0  0  0  0
   34.5618  108.4949   60.8164 C   0  0  0  0  0  0  0  0  0  0  0  0
   30.4359  108.9577   56.3277 C   0  0  0  0  0  0  0  0  0  0  0  0
   29.5531  108.4514   55.4707 N   0  0  0  0  0  0  0  0  0  0  0  0
   33.9753  109.0688   59.6051 C   0  0  0  0  0  0  0  0  0  0  0  0
   30.7078  110.2854   56.0213 N   0  0  0  0  0  0  0  0  0  0  0  0
   37.0939  108.7555   60.4615 C   0  0  0  0  0  0  0  0  0  0  0  0
   29.2547  109.4853   54.5875 C   0  0  0  0  0  0  0  0  0  0  0  0
   31.0848  108.3655   57.4371 C   0  0  0  0  0  0  0  0  0  0  0  0
   33.8013  107.9898   61.8194 N   0  0  0  0  0  0  0  0  0  0  0  0
   34.5636  107.5364   62.8585 N   0  0  0  0  0  0  0  0  0  0  0  0
   35.8133  107.7555   62.4924 C   0  0  0  0  0  0  0  0  0  0  0  0
   31.9713  109.1056   58.1734 C   0  0  0  0  0  0  0  0  0  0  0  0
   32.6956  108.6814   59.3013 N   0  0  0  0  0  0  0  0  0  0  0  0
   37.6020  110.0758   60.5783 N   0  0  0  0  0  0  0  0  0  0  0  0
   34.6207  109.8382   58.8994 O   0  0  0  0  0  0  0  0  0  0  0  0
   37.6601  107.9367   59.7415 O   0  0  0  0  0  0  0  0  0  0  0  0
   40.5956  109.3383   61.1786 N   0  0  0  0  0  0  0  0  0  0  0  0
   41.9801  109.3661   61.6631 C   0  0  0  0  0  0  0  0  0  0  0  0
   27.6260  108.9395   51.2476 C   0  0  0  0  0  0  0  0  0  0  0  0
   25.9311  109.4936   52.8260 C   0  0  0  0  0  0  0  0  0  0  0  0
   26.3026  109.1763   51.5366 C   0  0  0  0  0  0  0  0  0  0  0  0
   29.8924  111.5990   54.4268 H   0  0  0  0  0  0  0  0  0  0  0  0
   31.7800  112.0790   56.5046 H   0  0  0  0  0  0  0  0  0  0  0  0
   32.9236  111.0941   58.4196 H   0  0  0  0  0  0  0  0  0  0  0  0
   32.0632  107.8694   62.9897 H   0  0  0  0  0  0  0  0  0  0  0  0
   31.8854  108.7574   61.4384 H   0  0  0  0  0  0  0  0  0  0  0  0
   32.0095  106.9654   61.4384 H   0  0  0  0  0  0  0  0  0  0  0  0
   38.6179  111.3382   59.2512 H   0  0  0  0  0  0  0  0  0  0  0  0
   39.0456  109.5739   59.1637 H   0  0  0  0  0  0  0  0  0  0  0  0
   37.1507  110.8924   62.4576 H   0  0  0  0  0  0  0  0  0  0  0  0
   37.5163  112.0877   61.1676 H   0  0  0  0  0  0  0  0  0  0  0  0
   35.9441  111.2189   61.1676 H   0  0  0  0  0  0  0  0  0  0  0  0
   26.5855  109.8680   54.8442 H   0  0  0  0  0  0  0  0  0  0  0  0
   29.6461  108.8790   51.9884 H   0  0  0  0  0  0  0  0  0  0  0  0
   40.7703  111.2209   60.1824 H   0  0  0  0  0  0  0  0  0  0  0  0
   39.6767  111.2110   61.6186 H   0  0  0  0  0  0  0  0  0  0  0  0
   30.8789  107.3189   57.7060 H   0  0  0  0  0  0  0  0  0  0  0  0
   36.6885  107.4915   63.1042 H   0  0  0  0  0  0  0  0  0  0  0  0
   32.2294  108.0300   59.9487 H   0  0  0  0  0  0  0  0  0  0  0  0
   40.0058  108.9756   61.9412 H   0  0  0  0  0  0  0  0  0  0  0  0
   40.6174  108.7505   60.3332 H   0  0  0  0  0  0  0  0  0  0  0  0
   41.9837  109.3662   62.7631 H   0  0  0  0  0  0  0  0  0  0  0  0
   42.5154  108.4785   61.2948 H   0  0  0  0  0  0  0  0  0  0  0  0
   42.4794  110.2744   61.2948 H   0  0  0  0  0  0  0  0  0  0  0  0
   27.9233  108.6773   50.2215 H   0  0  0  0  0  0  0  0  0  0  0  0
   24.8726  109.6784   53.0617 H   0  0  0  0  0  0  0  0  0  0  0  0
   25.5438  109.1128   50.7427 H   0  0  0  0  0  0  0  0  0  0  0  0
  1 16  1  0
  1 18  2  0
  2  3  2  0
  2 16  1  0
  3 23  1  0
  4  8  2  0
  4  9  1  0
  4 18  1  0
  5 20  1  0
  6 10  1  0
  6 25  1  0
  7 25  1  0
  8 31  1  0
  9 30  2  0
 10 28  1  0
 11 12  2  0
 11 17  1  0
 11 22  1  0
 12 15  1  0
 12 20  1  0
 13 14  2  0
 13 16  1  0
 13 19  1  0
 14 18  1  0
 15 24  1  0
 15 26  2  0
 17 25  1  0
 17 27  2  0
 19 23  2  0
 20 21  1  0
 21 22  2  0
 23 24  1  0
 28 29  1  0
 30 32  1  0
 31 32  2  0
  1 33  1  0
  2 34  1  0
  3 35  1  0
  5 36  1  0
  5 37  1  0
  5 38  1  0
  6 39  1  0
  6 40  1  0
  7 41  1  0
  7 42  1  0
  7 43  1  0
  8 44  1  0
  9 45  1  0
 10 46  1  0
 10 47  1  0
 19 48  1  0
 22 49  1  0
 24 50  1  0
 28 51  1  0
 28 52  1  0
 29 53  1  0
 29 54  1  0
 29 55  1  0
 30 56  1  0
 31 57  1  0
 32 58  1  0
M  CHG  1  28   1
M  END
>  <filename_input>  (4) 
5SIS_JSM_docked.sdf

>  <pdb_id>  (4) 
5SIS_JSM

>  <pose_rank>  (4) 
3

>  <num_atoms_heavy>  (4) 
32

>  <num_torsions>  (4) 
7

>  <pose>  (4) 
[33.975285325118136, 109.06879955637868, 59.60510477924842, -3.705484017218999, 4.182595223198368, -0.696080649371257, -4.075277702438642, 1.321132054345416, 2.1776119218832672, 5.503153144394871, -0.6246560463090262, 2.487930475086649, 0.984959871000235]

>  <energy>  (4) 
-943.1526601663987

>  <inter_energy>  (4) 
-969.8358615124894

>  <intra_energy>  (4) 
58.08837661643956

>  <rmsd>  (4) 
3.75774

>  <sdf_rank>  (4) 
0

$$$$

     RDKit          3D

 58 61  0  0  0  0  0  0  0  0999 V2000
   28.8642  109.3770   55.9133 C   0  0  0  0  0  0  0  0  0  0  0  0
   31.2619  108.7279   56.2614 C   0  0  0  0  0  0  0  0  0  0  0  0
   32.2944  108.7419   57.1164 C   0  0  0  0  0  0  0  0  0  0  0  0
   26.6047  110.4399   56.4896 C   0  0  0  0  0  0  0  0  0  0  0  0
   36.8578  111.3270   58.9555 C   0  0  0  0  0  0  0  0  0  0  0  0
   34.7304  105.0217   62.3503 C   0  0  0  0  0  0  0  0  0  0  0  0
   36.8270  106.2913   62.7586 C   0  0  0  0  0  0  0  0  0  0  0  0
   25.9644  111.3277   57.3474 C   0  0  0  0  0  0  0  0  0  0  0  0
   25.9872  110.1213   55.2856 C   0  0  0  0  0  0  0  0  0  0  0  0
   35.4972  103.9338   63.0828 C   0  0  0  0  0  0  0  0  0  0  0  0
   35.9331  108.2626   60.6921 C   0  0  0  0  0  0  0  0  0  0  0  0
   35.6484  109.2130   59.7034 C   0  0  0  0  0  0  0  0  0  0  0  0
   29.8407  109.8382   57.8640 C   0  0  0  0  0  0  0  0  0  0  0  0
   28.5938  110.2891   57.9740 N   0  0  0  0  0  0  0  0  0  0  0  0
   34.5674  109.2959   58.7210 C   0  0  0  0  0  0  0  0  0  0  0  0
   30.0435  109.2626   56.6158 N   0  0  0  0  0  0  0  0  0  0  0  0
   35.1197  107.0740   61.0264 C   0  0  0  0  0  0  0  0  0  0  0  0
   27.9799  109.9890   56.7611 C   0  0  0  0  0  0  0  0  0  0  0  0
   30.9152  109.8709   58.7844 C   0  0  0  0  0  0  0  0  0  0  0  0
   36.6427  110.1334   59.7647 N   0  0  0  0  0  0  0  0  0  0  0  0
   37.5533  109.8360   60.7387 N   0  0  0  0  0  0  0  0  0  0  0  0
   37.1143  108.7214   61.2943 C   0  0  0  0  0  0  0  0  0  0  0  0
   32.1215  109.3265   58.4318 C   0  0  0  0  0  0  0  0  0  0  0  0
   33.2884  109.2770   59.2145 N   0  0  0  0  0  0  0  0  0  0  0  0
   35.5746  106.1716   62.0232 N   0  0  0  0  0  0  0  0  0  0  0  0
   34.8142  109.3562   57.5201 O   0  0  0  0  0  0  0  0  0  0  0  0
   34.0471  106.8797   60.4598 O   0  0  0  0  0  0  0  0  0  0  0  0
   35.0025  102.5700   62.6777 N   0  0  0  0  0  0  0  0  0  0  0  0
   33.6493  102.2025   63.1092 C   0  0  0  0  0  0  0  0  0  0  0  0
   24.7259  110.6078   54.9908 C   0  0  0  0  0  0  0  0  0  0  0  0
   24.7033  111.8149   57.0435 C   0  0  0  0  0  0  0  0  0  0  0  0
   24.0866  111.4568   55.8634 C   0  0  0  0  0  0  0  0  0  0  0  0
   28.6721  109.0447   54.8824 H   0  0  0  0  0  0  0  0  0  0  0  0
   31.3897  108.2832   55.2635 H   0  0  0  0  0  0  0  0  0  0  0  0
   33.2641  108.3136   56.8226 H   0  0  0  0  0  0  0  0  0  0  0  0
   37.0140  112.1936   59.6147 H   0  0  0  0  0  0  0  0  0  0  0  0
   37.7448  111.1846   58.3206 H   0  0  0  0  0  0  0  0  0  0  0  0
   35.9770  111.5033   58.3206 H   0  0  0  0  0  0  0  0  0  0  0  0
   34.3264  104.6026   61.4170 H   0  0  0  0  0  0  0  0  0  0  0  0
   33.9265  105.3723   63.0142 H   0  0  0  0  0  0  0  0  0  0  0  0
   36.6211  106.2716   63.8390 H   0  0  0  0  0  0  0  0  0  0  0  0
   37.4881  105.4523   62.4960 H   0  0  0  0  0  0  0  0  0  0  0  0
   37.3171  107.2404   62.4960 H   0  0  0  0  0  0  0  0  0  0  0  0
   26.4631  111.6458   58.2748 H   0  0  0  0  0  0  0  0  0  0  0  0
   26.5060  109.4766   54.5608 H   0  0  0  0  0  0  0  0  0  0  0  0
   36.5662  104.0179   62.8377 H   0  0  0  0  0  0  0  0  0  0  0  0
   35.3430  104.0593   64.1647 H   0  0  0  0  0  0  0  0  0  0  0  0
   30.7826  110.3299   59.7752 H   0  0  0  0  0  0  0  0  0  0  0  0
   37.6157  108.2125   62.1308 H   0  0  0  0  0  0  0  0  0  0  0  0
   33.1736  109.2224   60.2367 H   0  0  0  0  0  0  0  0  0  0  0  0
   35.0251  102.5231   61.6490 H   0  0  0  0  0  0  0  0  0  0  0  0
   35.6276  101.9040   63.1537 H   0  0  0  0  0  0  0  0  0  0  0  0
   33.6055  102.1906   64.2083 H   0  0  0  0  0  0  0  0  0  0  0  0
   32.9286  102.9374   62.7215 H   0  0  0  0  0  0  0  0  0  0  0  0
   33.3993  101.2039   62.7215 H   0  0  0  0  0  0  0  0  0  0  0  0
   24.2318  110.3138   54.0531 H   0  0  0  0  0  0  0  0  0  0  0  0
   24.1925  112.4896   57.7462 H   0  0  0  0  0  0  0  0  0  0  0  0
   23.0877  111.8486   55.6210 H   0  0  0  0  0  0  0  0  0  0  0  0
  1 16  1  0
  1 18  2  0
  2  3  2  0
  2 16  1  0
  3 23  1  0
  4  8  2  0
  4  9  1  0
  4 18  1  0
  5 20  1  0
  6 10  1  0
  6 25  1  0
  7 25  1  0
  8 31  1  0
  9 30  2  0
 10 28  1  0
 11 12  2  0
 11 17  1  0
 11 22  1  0
 12 15  1  0
 12 20  1  0
 13 14  2  0
 13 16  1  0
 13 19  1  0
 14 18  1  0
 15 24  1  0
 15 26  2  0
 17 25  1  0
 17 27  2  0
 19 23  2  0
 20 21  1  0
 21 22  2  0
 23 24  1  0
 28 29  1  0
 30 32  1  0
 31 32  2  0
  1 33  1  0
  2 34  1  0
  3 35  1  0
  5 36  1  0
  5 37  1  0
  5 38  1  0
  6 39  1  0
  6 40  1  0
  7 41  1  0
  7 42  1  0
  7 43  1  0
  8 44  1  0
  9 45  1  0
 10 46  1  0
 10 47  1  0
 19 48  1  0
 22 49  1  0
 24 50  1  0
 28 51  1  0
 28 52  1  0
 29 53  1  0
 29 54  1  0
 29 55  1  0
 30 56  1  0
 31 57  1  0
 32 58  1  0
M  CHG  1  28   1
M  END
>  <filename_input>  (5) 
5SIS_JSM_docked.sdf

>  <pdb_id>  (5) 
5SIS_JSM

>  <pose_rank>  (5) 
4

>  <num_atoms_heavy>  (5) 
32

>  <num_torsions>  (5) 
7

>  <pose>  (5) 
[34.56736666664282, 109.29587398650396, 58.720955540276385, -0.19616470162802768, -0.005659940438163304, -0.10086904788951297, -9.20166004956459, 6.238205398694943, -5.9160590691660495, -5.517084987587704, -2.1386794999580907, -1.4126169709912304, -3.0058914877342695]

>  <energy>  (5) 
-877.3555001326364

>  <inter_energy>  (5) 
-951.6346957878706

>  <intra_energy>  (5) 
88.1355945929081

>  <rmsd>  (5) 
2.50702

>  <sdf_rank>  (5) 
0

$$$$

     RDKit          3D

 58 61  0  0  0  0  0  0  0  0999 V2000
   27.9500  109.8347   56.1249 C   0  0  0  0  0  0  0  0  0  0  0  0
   29.2364  109.7016   58.2740 C   0  0  0  0  0  0  0  0  0  0  0  0
   30.4249  109.4306   58.8321 C   0  0  0  0  0  0  0  0  0  0  0  0
   27.5481  109.6157   53.6035 C   0  0  0  0  0  0  0  0  0  0  0  0
   33.4382  106.1890   62.1584 C   0  0  0  0  0  0  0  0  0  0  0  0
   36.8823  111.6666   58.4430 C   0  0  0  0  0  0  0  0  0  0  0  0
   37.6262  110.5873   60.5539 C   0  0  0  0  0  0  0  0  0  0  0  0
   28.1067  109.2384   52.3871 C   0  0  0  0  0  0  0  0  0  0  0  0
   26.1749  109.8232   53.6650 C   0  0  0  0  0  0  0  0  0  0  0  0
   37.1366  111.0678   57.0701 C   0  0  0  0  0  0  0  0  0  0  0  0
   35.2998  108.7199   60.3169 C   0  0  0  0  0  0  0  0  0  0  0  0
   34.0921  108.0472   60.5427 C   0  0  0  0  0  0  0  0  0  0  0  0
   30.1030  109.2581   56.0665 C   0  0  0  0  0  0  0  0  0  0  0  0
   29.6963  109.2466   54.7998 N   0  0  0  0  0  0  0  0  0  0  0  0
   32.7650  108.2122   59.9493 C   0  0  0  0  0  0  0  0  0  0  0  0
   29.0616  109.6236   56.9105 N   0  0  0  0  0  0  0  0  0  0  0  0
   35.5370  109.7861   59.3204 C   0  0  0  0  0  0  0  0  0  0  0  0
   28.3556  109.6198   54.8347 C   0  0  0  0  0  0  0  0  0  0  0  0
   31.3672  108.9618   56.6295 C   0  0  0  0  0  0  0  0  0  0  0  0
   34.3397  107.1416   61.5215 N   0  0  0  0  0  0  0  0  0  0  0  0
   35.6393  107.1863   61.9404 N   0  0  0  0  0  0  0  0  0  0  0  0
   36.2075  108.1258   61.2067 C   0  0  0  0  0  0  0  0  0  0  0  0
   31.5394  109.0530   57.9851 C   0  0  0  0  0  0  0  0  0  0  0  0
   32.7168  108.7919   58.7077 N   0  0  0  0  0  0  0  0  0  0  0  0
   36.6609  110.6413   59.4634 N   0  0  0  0  0  0  0  0  0  0  0  0
   31.7579  107.8630   60.5579 O   0  0  0  0  0  0  0  0  0  0  0  0
   34.7779  109.9178   58.3635 O   0  0  0  0  0  0  0  0  0  0  0  0
   38.3245  111.7232   56.4159 N   0  0  0  0  0  0  0  0  0  0  0  0
   38.0963  113.0293   55.7879 C   0  0  0  0  0  0  0  0  0  0  0  0
   25.3987  109.7421   52.5224 C   0  0  0  0  0  0  0  0  0  0  0  0
   27.3226  109.1544   51.2478 C   0  0  0  0  0  0  0  0  0  0  0  0
   25.9681  109.4032   51.3174 C   0  0  0  0  0  0  0  0  0  0  0  0
   26.9428  110.1180   56.4644 H   0  0  0  0  0  0  0  0  0  0  0  0
   28.3896  109.9902   58.9141 H   0  0  0  0  0  0  0  0  0  0  0  0
   30.5533  109.4941   59.9227 H   0  0  0  0  0  0  0  0  0  0  0  0
   33.5229  106.2785   63.2515 H   0  0  0  0  0  0  0  0  0  0  0  0
   32.4035  106.4022   61.8521 H   0  0  0  0  0  0  0  0  0  0  0  0
   33.7082  105.1676   61.8521 H   0  0  0  0  0  0  0  0  0  0  0  0
   37.7545  112.2712   58.7323 H   0  0  0  0  0  0  0  0  0  0  0  0
   35.9716  112.2803   58.3791 H   0  0  0  0  0  0  0  0  0  0  0  0
   37.0942  110.6171   61.5162 H   0  0  0  0  0  0  0  0  0  0  0  0
   38.2063  109.6553   60.4842 H   0  0  0  0  0  0  0  0  0  0  0  0
   38.3066  111.4488   60.4842 H   0  0  0  0  0  0  0  0  0  0  0  0
   29.1801  109.0047   52.3289 H   0  0  0  0  0  0  0  0  0  0  0  0
   25.7012  110.0540   54.6305 H   0  0  0  0  0  0  0  0  0  0  0  0
   37.3315  109.9904   57.1765 H   0  0  0  0  0  0  0  0  0  0  0  0
   36.2495  111.2346   56.4414 H   0  0  0  0  0  0  0  0  0  0  0  0
   32.2049  108.6606   55.9833 H   0  0  0  0  0  0  0  0  0  0  0  0
   37.2675  108.4093   61.2840 H   0  0  0  0  0  0  0  0  0  0  0  0
   33.6115  109.0563   58.2712 H   0  0  0  0  0  0  0  0  0  0  0  0
   39.0490  111.8467   57.1376 H   0  0  0  0  0  0  0  0  0  0  0  0
   38.5878  111.0948   55.6434 H   0  0  0  0  0  0  0  0  0  0  0  0
   37.9628  113.7931   56.5683 H   0  0  0  0  0  0  0  0  0  0  0  0
   38.9622  113.2918   55.1623 H   0  0  0  0  0  0  0  0  0  0  0  0
   37.1927  112.9825   55.1623 H   0  0  0  0  0  0  0  0  0  0  0  0
   24.3199  109.9498   52.5782 H   0  0  0  0  0  0  0  0  0  0  0  0
   27.7822  108.8883   50.2845 H   0  0  0  0  0  0  0  0  0  0  0  0
   25.3459  109.3310   50.4132 H   0  0  0  0  0  0  0  0  0  0  0  0
  1 16  1  0
  1 18  2  0
  2  3  2  0
  2 16  1  0
  3 23  1  0
  4  8  2  0
  4  9  1  0
  4 18  1  0
  5 20  1  0
  6 10  1  0
  6 25  1  0
  7 25  1  0
  8 31  1  0
  9 30  2  0
 10 28  1  0
 11 12  2  0
 11 17  1  0
 11 22  1  0
 12 15  1  0
 12 20  1  0
 13 14  2  0
 13 16  1  0
 13 19  1  0
 14 18  1  0
 15 24  1  0
 15 26  2  0
 17 25  1  0
 17 27  2  0
 19 23  2  0
 20 21  1  0
 21 22  2  0
 23 24  1  0
 28 29  1  0
 30 32  1  0
 31 32  2  0
  1 33  1  0
  2 34  1  0
  3 35  1  0
  5 36  1  0
  5 37  1  0
  5 38  1  0
  6 39  1  0
  6 40  1  0
  7 41  1  0
  7 42  1  0
  7 43  1  0
  8 44  1  0
  9 45  1  0
 10 46  1  0
 10 47  1  0
 19 48  1  0
 22 49  1  0
 24 50  1  0
 28 51  1  0
 28 52  1  0
 29 53  1  0
 29 54  1  0
 29 55  1  0
 30 56  1  0
 31 57  1  0
 32 58  1  0
M  CHG  1  28   1
M  END
>  <filename_input>  (6) 
5SIS_JSM_docked.sdf

>  <pdb_id>  (6) 
5SIS_JSM

>  <pose_rank>  (6) 
5

>  <num_atoms_heavy>  (6) 
32

>  <num_torsions>  (6) 
7

>  <pose>  (6) 
[32.76496843690049, 108.21216918140084, 59.949277951852956, 2.7461645357275355, -0.4050938894675731, 1.7493942359535604, 3.465399804053977, -0.20454012812191566, -0.2097345121079301, 0.48422034966544736, 0.2208310717828449, -1.212157824813783, 3.0852049232257106]

>  <energy>  (6) 
-961.3787364819158

>  <inter_energy>  (6) 
-1115.0252059992856

>  <intra_energy>  (6) 
138.93761931657346

>  <rmsd>  (6) 
4.3114

>  <sdf_rank>  (6) 
0

$$$$

     RDKit          3D

 58 61  0  0  0  0  0  0  0  0999 V2000
   27.3691  110.2235   56.3341 C   0  0  0  0  0  0  0  0  0  0  0  0
   29.8098  109.6452   56.3395 C   0  0  0  0  0  0  0  0  0  0  0  0
   30.8862  109.4149   57.1048 C   0  0  0  0  0  0  0  0  0  0  0  0
   25.0981  110.8619   57.3350 C   0  0  0  0  0  0  0  0  0  0  0  0
   33.1806  106.7271   60.8932 C   0  0  0  0  0  0  0  0  0  0  0  0
   37.3629  112.2810   58.2678 C   0  0  0  0  0  0  0  0  0  0  0  0
   37.2366  111.4075   60.5905 C   0  0  0  0  0  0  0  0  0  0  0  0
   24.6747  111.9800   58.0454 C   0  0  0  0  0  0  0  0  0  0  0  0
   24.2069  110.2620   56.4527 C   0  0  0  0  0  0  0  0  0  0  0  0
   37.7367  111.6946   56.9171 C   0  0  0  0  0  0  0  0  0  0  0  0
   35.5265  109.1758   59.5657 C   0  0  0  0  0  0  0  0  0  0  0  0
   34.2705  108.5594   59.4983 C   0  0  0  0  0  0  0  0  0  0  0  0
   28.4292  110.0104   58.2840 C   0  0  0  0  0  0  0  0  0  0  0  0
   27.1707  110.3115   58.5934 N   0  0  0  0  0  0  0  0  0  0  0  0
   33.1241  108.7887   58.6187 C   0  0  0  0  0  0  0  0  0  0  0  0
   28.5894  109.9380   56.9058 N   0  0  0  0  0  0  0  0  0  0  0  0
   36.0338  110.2338   58.6661 C   0  0  0  0  0  0  0  0  0  0  0  0
   26.5055  110.4312   57.3764 C   0  0  0  0  0  0  0  0  0  0  0  0
   29.5501  109.7764   59.1157 C   0  0  0  0  0  0  0  0  0  0  0  0
   34.2458  107.6392   60.4943 N   0  0  0  0  0  0  0  0  0  0  0  0
   35.4149  107.6213   61.2009 N   0  0  0  0  0  0  0  0  0  0  0  0
   36.1779  108.5362   60.6311 C   0  0  0  0  0  0  0  0  0  0  0  0
   30.7590  109.4733   58.5479 C   0  0  0  0  0  0  0  0  0  0  0  0
   31.9683  109.2184   59.2183 N   0  0  0  0  0  0  0  0  0  0  0  0
   36.8536  111.2666   59.1915 N   0  0  0  0  0  0  0  0  0  0  0  0
   33.2074  108.5798   57.4121 O   0  0  0  0  0  0  0  0  0  0  0  0
   35.7644  110.2078   57.4677 O   0  0  0  0  0  0  0  0  0  0  0  0
   38.6813  112.6099   56.1831 N   0  0  0  0  0  0  0  0  0  0  0  0
   38.0772  113.6977   55.4058 C   0  0  0  0  0  0  0  0  0  0  0  0
   22.9033  110.7148   56.3522 C   0  0  0  0  0  0  0  0  0  0  0  0
   23.3691  112.4310   57.9362 C   0  0  0  0  0  0  0  0  0  0  0  0
   22.4853  111.7996   57.0867 C   0  0  0  0  0  0  0  0  0  0  0  0
   27.1361  110.2742   55.2603 H   0  0  0  0  0  0  0  0  0  0  0  0
   29.9029  109.5997   55.2443 H   0  0  0  0  0  0  0  0  0  0  0  0
   31.8570  109.1837   56.6422 H   0  0  0  0  0  0  0  0  0  0  0  0
   33.1282  106.6823   61.9911 H   0  0  0  0  0  0  0  0  0  0  0  0
   32.2208  107.0877   60.4948 H   0  0  0  0  0  0  0  0  0  0  0  0
   33.3890  105.7232   60.4948 H   0  0  0  0  0  0  0  0  0  0  0  0
   38.2557  112.7465   58.7107 H   0  0  0  0  0  0  0  0  0  0  0  0
   36.5640  113.0193   58.1047 H   0  0  0  0  0  0  0  0  0  0  0  0
   36.3986  111.0992   61.2329 H   0  0  0  0  0  0  0  0  0  0  0  0
   38.1103  110.7719   60.7973 H   0  0  0  0  0  0  0  0  0  0  0  0
   37.4900  112.4578   60.7973 H   0  0  0  0  0  0  0  0  0  0  0  0
   25.3822  112.5108   58.6994 H   0  0  0  0  0  0  0  0  0  0  0  0
   24.5411  109.4198   55.8290 H   0  0  0  0  0  0  0  0  0  0  0  0
   38.2232  110.7197   57.0687 H   0  0  0  0  0  0  0  0  0  0  0  0
   36.8221  111.5752   56.3177 H   0  0  0  0  0  0  0  0  0  0  0  0
   29.4512  109.8376   60.2095 H   0  0  0  0  0  0  0  0  0  0  0  0
   37.2033  108.7695   60.9538 H   0  0  0  0  0  0  0  0  0  0  0  0
   31.9874  109.3657   60.2375 H   0  0  0  0  0  0  0  0  0  0  0  0
   39.3076  113.0360   56.8809 H   0  0  0  0  0  0  0  0  0  0  0  0
   39.1519  112.0116   55.4892 H   0  0  0  0  0  0  0  0  0  0  0  0
   37.6595  114.4500   56.0910 H   0  0  0  0  0  0  0  0  0  0  0  0
   38.8449  114.1654   54.7717 H   0  0  0  0  0  0  0  0  0  0  0  0
   37.2744  113.2934   54.7717 H   0  0  0  0  0  0  0  0  0  0  0  0
   22.1973  110.2042   55.6808 H   0  0  0  0  0  0  0  0  0  0  0  0
   23.0365  113.2957   58.5292 H   0  0  0  0  0  0  0  0  0  0  0  0
   21.4506  112.1620   56.9970 H   0  0  0  0  0  0  0  0  0  0  0  0
  1 16  1  0
  1 18  2  0
  2  3  2  0
  2 16  1  0
  3 23  1  0
  4  8  2  0
  4  9  1  0
  4 18  1  0
  5 20  1  0
  6 10  1  0
  6 25  1  0
  7 25  1  0
  8 31  1  0
  9 30  2  0
 10 28  1  0
 11 12  2  0
 11 17  1  0
 11 22  1  0
 12 15  1  0
 12 20  1  0
 13 14  2  0
 13 16  1  0
 13 19  1  0
 14 18  1  0
 15 24  1  0
 15 26  2  0
 17 25  1  0
 17 27  2  0
 19 23  2  0
 20 21  1  0
 21 22  2  0
 23 24  1  0
 28 29  1  0
 30 32  1  0
 31 32  2  0
  1 33  1  0
  2 34  1  0
  3 35  1  0
  5 36  1  0
  5 37  1  0
  5 38  1  0
  6 39  1  0
  6 40  1  0
  7 41  1  0
  7 42  1  0
  7 43  1  0
  8 44  1  0
  9 45  1  0
 10 46  1  0
 10 47  1  0
 19 48  1  0
 22 49  1  0
 24 50  1  0
 28 51  1  0
 28 52  1  0
 29 53  1  0
 29 54  1  0
 29 55  1  0
 30 56  1  0
 31 57  1  0
 32 58  1  0
M  CHG  1  28   1
M  END
>  <filename_input>  (7) 
5SIS_JSM_docked.sdf

>  <pdb_id>  (7) 
5SIS_JSM

>  <pose_rank>  (7) 
6

>  <num_atoms_heavy>  (7) 
32

>  <num_torsions>  (7) 
7

>  <pose>  (7) 
[33.12405575086077, 108.78870164266687, 58.61872680677767, 4.0078005502888105, -1.3553528632961782, 3.868876602317444, 2.712784274001377, 0.6397075279451799, -8.938614080832046, 0.17520860851515252, 0.6585759161424743, 4.605319909544791, -3.2870854363259396]

>  <energy>  (7) 
-635.8077229879304

>  <inter_energy>  (7) 
-731.8417467258786

>  <intra_energy>  (7) 
103.23811787840765

>  <rmsd>  (7) 
5.41493

>  <sdf_rank>  (7) 
0

$$$$

     RDKit          3D

 58 61  0  0  0  0  0  0  0  0999 V2000
   33.6183  109.0624   60.1839 C   0  0  0  0  0  0  0  0  0  0  0  0
   31.1801  108.6913   59.7270 C   0  0  0  0  0  0  0  0  0  0  0  0
   30.2153  108.7263   58.7967 C   0  0  0  0  0  0  0  0  0  0  0  0
   36.0357  109.7357   59.6644 C   0  0  0  0  0  0  0  0  0  0  0  0
   29.0981  108.4735   52.5971 C   0  0  0  0  0  0  0  0  0  0  0  0
   25.1542  112.5384   57.3698 C   0  0  0  0  0  0  0  0  0  0  0  0
   25.1397  112.5616   54.8851 C   0  0  0  0  0  0  0  0  0  0  0  0
   36.6172  110.9352   59.2680 C   0  0  0  0  0  0  0  0  0  0  0  0
   36.7521  108.9027   60.5161 C   0  0  0  0  0  0  0  0  0  0  0  0
   23.6975  112.2450   57.6860 C   0  0  0  0  0  0  0  0  0  0  0  0
   26.8248  110.0891   54.9389 C   0  0  0  0  0  0  0  0  0  0  0  0
   28.1196  109.6506   54.6338 C   0  0  0  0  0  0  0  0  0  0  0  0
   32.8402  109.3844   58.1193 C   0  0  0  0  0  0  0  0  0  0  0  0
   34.1422  109.6501   58.0551 N   0  0  0  0  0  0  0  0  0  0  0  0
   29.3783  109.7571   55.3721 C   0  0  0  0  0  0  0  0  0  0  0  0
   32.4810  109.0108   59.4085 N   0  0  0  0  0  0  0  0  0  0  0  0
   26.3960  110.7569   56.1863 C   0  0  0  0  0  0  0  0  0  0  0  0
   34.6308  109.4360   59.3410 C   0  0  0  0  0  0  0  0  0  0  0  0
   31.8407  109.4346   57.1187 C   0  0  0  0  0  0  0  0  0  0  0  0
   28.0469  109.0785   53.4062 N   0  0  0  0  0  0  0  0  0  0  0  0
   26.7787  109.1178   52.8999 N   0  0  0  0  0  0  0  0  0  0  0  0
   26.0535  109.7145   53.8283 C   0  0  0  0  0  0  0  0  0  0  0  0
   30.5505  109.1038   57.4376 C   0  0  0  0  0  0  0  0  0  0  0  0
   29.4396  109.1036   56.5758 N   0  0  0  0  0  0  0  0  0  0  0  0
   25.5853  111.9200   56.1154 N   0  0  0  0  0  0  0  0  0  0  0  0
   30.3112  110.4205   54.9292 O   0  0  0  0  0  0  0  0  0  0  0  0
   26.7220  110.2964   57.2776 O   0  0  0  0  0  0  0  0  0  0  0  0
   22.9625  113.5136   58.0313 N   0  0  0  0  0  0  0  0  0  0  0  0
   22.3314  114.2352   56.9207 C   0  0  0  0  0  0  0  0  0  0  0  0
   38.0467  109.2205   60.8872 C   0  0  0  0  0  0  0  0  0  0  0  0
   37.9123  111.2493   59.6474 C   0  0  0  0  0  0  0  0  0  0  0  0
   38.6248  110.3927   60.4598 C   0  0  0  0  0  0  0  0  0  0  0  0
   33.6970  108.8476   61.2598 H   0  0  0  0  0  0  0  0  0  0  0  0
   30.9290  108.4034   60.7585 H   0  0  0  0  0  0  0  0  0  0  0  0
   29.1788  108.4711   59.0622 H   0  0  0  0  0  0  0  0  0  0  0  0
   29.8613  108.0343   53.2564 H   0  0  0  0  0  0  0  0  0  0  0  0
   28.6651  107.6865   51.9623 H   0  0  0  0  0  0  0  0  0  0  0  0
   29.5611  109.2434   51.9623 H   0  0  0  0  0  0  0  0  0  0  0  0
   25.2868  113.6275   57.2912 H   0  0  0  0  0  0  0  0  0  0  0  0
   25.7662  112.1168   58.1807 H   0  0  0  0  0  0  0  0  0  0  0  0
   24.5282  113.4421   55.1315 H   0  0  0  0  0  0  0  0  0  0  0  0
   26.0150  112.8757   54.2976 H   0  0  0  0  0  0  0  0  0  0  0  0
   24.5396  111.8511   54.2976 H   0  0  0  0  0  0  0  0  0  0  0  0
   36.0441  111.6404   58.6482 H   0  0  0  0  0  0  0  0  0  0  0  0
   36.2857  107.9827   60.8985 H   0  0  0  0  0  0  0  0  0  0  0  0
   23.2239  111.7805   56.8086 H   0  0  0  0  0  0  0  0  0  0  0  0
   23.6528  111.5640   58.5487 H   0  0  0  0  0  0  0  0  0  0  0  0
   32.0980  109.7369   56.0928 H   0  0  0  0  0  0  0  0  0  0  0  0
   24.9722  109.8964   53.7413 H   0  0  0  0  0  0  0  0  0  0  0  0
   28.6084  108.5719   56.8714 H   0  0  0  0  0  0  0  0  0  0  0  0
   22.2229  113.2715   58.7060 H   0  0  0  0  0  0  0  0  0  0  0  0
   23.6840  114.1534   58.3933 H   0  0  0  0  0  0  0  0  0  0  0  0
   21.6569  115.0065   57.3207 H   0  0  0  0  0  0  0  0  0  0  0  0
   23.1082  114.7113   56.3043 H   0  0  0  0  0  0  0  0  0  0  0  0
   21.7561  113.5287   56.3043 H   0  0  0  0  0  0  0  0  0  0  0  0
   38.6166  108.5315   61.5279 H   0  0  0  0  0  0  0  0  0  0  0  0
   38.3736  112.1852   59.2992 H   0  0  0  0  0  0  0  0  0  0  0  0
   39.6510  110.6458   60.7645 H   0  0  0  0  0  0  0  0  0  0  0  0
  1 16  1  0
  1 18  2  0
  2  3  2  0
  2 16  1  0
  3 23  1  0
  4  8  2  0
  4  9  1  0
  4 18  1  0
  5 20  1  0
  6 10  1  0
  6 25  1  0
  7 25  1  0
  8 31  1  0
  9 30  2  0
 10 28  1  0
 11 12  2  0
 11 17  1  0
 11 22  1  0
 12 15  1  0
 12 20  1  0
 13 14  2  0
 13 16  1  0
 13 19  1  0
 14 18  1  0
 15 24  1  0
 15 26  2  0
 17 25  1  0
 17 27  2  0
 19 23  2  0
 20 21  1  0
 21 22  2  0
 23 24  1  0
 28 29  1  0
 30 32  1  0
 31 32  2  0
  1 33  1  0
  2 34  1  0
  3 35  1  0
  5 36  1  0
  5 37  1  0
  5 38  1  0
  6 39  1  0
  6 40  1  0
  7 41  1  0
  7 42  1  0
  7 43  1  0
  8 44  1  0
  9 45  1  0
 10 46  1  0
 10 47  1  0
 19 48  1  0
 22 49  1  0
 24 50  1  0
 28 51  1  0
 28 52  1  0
 29 53  1  0
 29 54  1  0
 29 55  1  0
 30 56  1  0
 31 57  1  0
 32 58  1  0
M  CHG  1  28   1
M  END
>  <filename_input>  (8) 
5SIS_JSM_docked.sdf

>  <pdb_id>  (8) 
5SIS_JSM

>  <pose_rank>  (8) 
7

>  <num_atoms_heavy>  (8) 
32

>  <num_torsions>  (8) 
7

>  <pose>  (8) 
[29.378316455416467, 109.75709427945098, 55.372097346044455, -1.725478219769379, -1.3752676399943593, 2.3607596755648697, 5.659936123142867, 0.6081292217953012, 0.4931301465954312, -0.002257465733512286, -0.504399939190743, -1.164176381995864, -0.2349964669005159]

>  <energy>  (8) 
-747.2219763307831

>  <inter_energy>  (8) 
-784.3039225314162

>  <intra_energy>  (8) 
42.041707837275474

>  <rmsd>  (8) 
10.2973

>  <sdf_rank>  (8) 
0

$$$$

     RDKit          3D

 58 61  0  0  0  0  0  0  0  0999 V2000
   35.4096  108.9996   59.6641 C   0  0  0  0  0  0  0  0  0  0  0  0
   33.8608  109.8815   57.8992 C   0  0  0  0  0  0  0  0  0  0  0  0
   32.5836  109.9828   57.5044 C   0  0  0  0  0  0  0  0  0  0  0  0
   36.0814  107.7369   61.7905 C   0  0  0  0  0  0  0  0  0  0  0  0
   28.9298  109.4945   53.7559 C   0  0  0  0  0  0  0  0  0  0  0  0
   26.6371  110.2567   60.6910 C   0  0  0  0  0  0  0  0  0  0  0  0
   26.6759  111.8254   58.7645 C   0  0  0  0  0  0  0  0  0  0  0  0
   35.6659  106.7574   62.6861 C   0  0  0  0  0  0  0  0  0  0  0  0
   37.4383  108.0284   61.7113 C   0  0  0  0  0  0  0  0  0  0  0  0
   25.3021  110.7823   61.1902 C   0  0  0  0  0  0  0  0  0  0  0  0
   27.2450  109.4881   56.9844 C   0  0  0  0  0  0  0  0  0  0  0  0
   28.4193  109.2999   56.2444 C   0  0  0  0  0  0  0  0  0  0  0  0
   33.2152  108.6716   59.8842 C   0  0  0  0  0  0  0  0  0  0  0  0
   33.7693  108.1058   60.9533 N   0  0  0  0  0  0  0  0  0  0  0  0
   29.7820  108.9636   56.6574 C   0  0  0  0  0  0  0  0  0  0  0  0
   34.1892  109.2397   59.0724 N   0  0  0  0  0  0  0  0  0  0  0  0
   27.0937  109.3250   58.4461 C   0  0  0  0  0  0  0  0  0  0  0  0
   35.1383  108.3223   60.8230 C   0  0  0  0  0  0  0  0  0  0  0  0
   31.8592  108.7595   59.4889 C   0  0  0  0  0  0  0  0  0  0  0  0
   28.0921  109.5311   54.9487 N   0  0  0  0  0  0  0  0  0  0  0  0
   26.7725  109.8547   54.8061 N   0  0  0  0  0  0  0  0  0  0  0  0
   26.2725  109.8159   56.0277 C   0  0  0  0  0  0  0  0  0  0  0  0
   31.5366  109.4098   58.3275 C   0  0  0  0  0  0  0  0  0  0  0  0
   30.2513  109.5858   57.7855 N   0  0  0  0  0  0  0  0  0  0  0  0
   26.8102  110.4587   59.2519 N   0  0  0  0  0  0  0  0  0  0  0  0
   30.4608  108.1793   56.0012 O   0  0  0  0  0  0  0  0  0  0  0  0
   27.1922  108.2122   58.9574 O   0  0  0  0  0  0  0  0  0  0  0  0
   25.3766  111.1149   62.6574 N   0  0  0  0  0  0  0  0  0  0  0  0
   24.9651  112.4672   63.0503 C   0  0  0  0  0  0  0  0  0  0  0  0
   38.3402  107.4204   62.5667 C   0  0  0  0  0  0  0  0  0  0  0  0
   36.5752  106.1492   63.5364 C   0  0  0  0  0  0  0  0  0  0  0  0
   37.9126  106.4791   63.4734 C   0  0  0  0  0  0  0  0  0  0  0  0
   36.3995  109.2920   59.2837 H   0  0  0  0  0  0  0  0  0  0  0  0
   34.6571  110.3170   57.2777 H   0  0  0  0  0  0  0  0  0  0  0  0
   32.3323  110.4960   56.5644 H   0  0  0  0  0  0  0  0  0  0  0  0
   29.9881  109.4482   54.0524 H   0  0  0  0  0  0  0  0  0  0  0  0
   28.6774  108.6065   53.1577 H   0  0  0  0  0  0  0  0  0  0  0  0
   28.7560  110.4011   53.1577 H   0  0  0  0  0  0  0  0  0  0  0  0
   27.4449  110.7819   61.2217 H   0  0  0  0  0  0  0  0  0  0  0  0
   26.6666  109.1743   60.8850 H   0  0  0  0  0  0  0  0  0  0  0  0
   26.6082  112.5145   59.6192 H   0  0  0  0  0  0  0  0  0  0  0  0
   27.5529  112.0845   58.1531 H   0  0  0  0  0  0  0  0  0  0  0  0
   25.7652  111.9088   58.1531 H   0  0  0  0  0  0  0  0  0  0  0  0
   34.6065  106.4632   62.7197 H   0  0  0  0  0  0  0  0  0  0  0  0
   37.7982  108.7488   60.9620 H   0  0  0  0  0  0  0  0  0  0  0  0
   25.0376  111.6895   60.6271 H   0  0  0  0  0  0  0  0  0  0  0  0
   24.5379  110.0051   61.0419 H   0  0  0  0  0  0  0  0  0  0  0  0
   31.0705  108.3092   60.1095 H   0  0  0  0  0  0  0  0  0  0  0  0
   25.2178  110.0169   56.2670 H   0  0  0  0  0  0  0  0  0  0  0  0
   29.6137  110.2313   58.2730 H   0  0  0  0  0  0  0  0  0  0  0  0
   24.7737  110.4475   63.1593 H   0  0  0  0  0  0  0  0  0  0  0  0
   26.3768  111.0572   62.8966 H   0  0  0  0  0  0  0  0  0  0  0  0
   24.9431  112.5394   64.1478 H   0  0  0  0  0  0  0  0  0  0  0  0
   25.6810  113.1995   62.6490 H   0  0  0  0  0  0  0  0  0  0  0  0
   23.9626  112.6766   62.6490 H   0  0  0  0  0  0  0  0  0  0  0  0
   39.4052  107.6916   62.5211 H   0  0  0  0  0  0  0  0  0  0  0  0
   36.2291  105.4006   64.2642 H   0  0  0  0  0  0  0  0  0  0  0  0
   38.6342  105.9916   64.1454 H   0  0  0  0  0  0  0  0  0  0  0  0
  1 16  1  0
  1 18  2  0
  2  3  2  0
  2 16  1  0
  3 23  1  0
  4  8  2  0
  4  9  1  0
  4 18  1  0
  5 20  1  0
  6 10  1  0
  6 25  1  0
  7 25  1  0
  8 31  1  0
  9 30  2  0
 10 28  1  0
 11 12  2  0
 11 17  1  0
 11 22  1  0
 12 15  1  0
 12 20  1  0
 13 14  2  0
 13 16  1  0
 13 19  1  0
 14 18  1  0
 15 24  1  0
 15 26  2  0
 17 25  1  0
 17 27  2  0
 19 23  2  0
 20 21  1  0
 21 22  2  0
 23 24  1  0
 28 29  1  0
 30 32  1  0
 31 32  2  0
  1 33  1  0
  2 34  1  0
  3 35  1  0
  5 36  1  0
  5 37  1  0
  5 38  1  0
  6 39  1  0
  6 40  1  0
  7 41  1  0
  7 42  1  0
  7 43  1  0
  8 44  1  0
  9 45  1  0
 10 46  1  0
 10 47  1  0
 19 48  1  0
 22 49  1  0
 24 50  1  0
 28 51  1  0
 28 52  1  0
 29 53  1  0
 29 54  1  0
 29 55  1  0
 30 56  1  0
 31 57  1  0
 32 58  1  0
M  CHG  1  28   1
M  END
>  <filename_input>  (9) 
5SIS_JSM_docked.sdf

>  <pdb_id>  (9) 
5SIS_JSM

>  <pose_rank>  (9) 
8

>  <num_atoms_heavy>  (9) 
32

>  <num_torsions>  (9) 
7

>  <pose>  (9) 
[29.7819710178724, 108.96360834995274, 56.65741767557585, 1.388992323553439, -0.6977845938540711, -2.760240349784342, -2.219476815402405, 0.014129697550518168, -1.336937620369406, -0.3449025457197425, -0.8547925831159677, -1.600076515620615, 0.3973818415032646]

>  <energy>  (9) 
-664.1025890255013

>  <inter_energy>  (9) 
-684.6457726270197

>  <intra_energy>  (9) 
26.68259118431338

>  <rmsd>  (9) 
9.62914

>  <sdf_rank>  (9) 
0

$$$$

     RDKit          3D

 58 61  0  0  0  0  0  0  0  0999 V2000
   34.6118  109.8473   58.1180 C   0  0  0  0  0  0  0  0  0  0  0  0
   32.3853  109.8371   56.9629 C   0  0  0  0  0  0  0  0  0  0  0  0
   31.0744  109.5916   57.0989 C   0  0  0  0  0  0  0  0  0  0  0  0
   36.2724  109.4761   60.0341 C   0  0  0  0  0  0  0  0  0  0  0  0
   26.7762  108.1016   61.0709 C   0  0  0  0  0  0  0  0  0  0  0  0
   25.8426  110.4824   54.1245 C   0  0  0  0  0  0  0  0  0  0  0  0
   25.1222  108.3525   55.1822 C   0  0  0  0  0  0  0  0  0  0  0  0
   37.2151  110.4750   59.8160 C   0  0  0  0  0  0  0  0  0  0  0  0
   36.5518  108.4981   60.9818 C   0  0  0  0  0  0  0  0  0  0  0  0
   26.7665  109.8120   53.1221 C   0  0  0  0  0  0  0  0  0  0  0  0
   25.8865  109.5115   57.8333 C   0  0  0  0  0  0  0  0  0  0  0  0
   26.8430  109.3310   58.8404 C   0  0  0  0  0  0  0  0  0  0  0  0
   32.7963  109.2512   59.2670 C   0  0  0  0  0  0  0  0  0  0  0  0
   33.8073  109.1646   60.1275 N   0  0  0  0  0  0  0  0  0  0  0  0
   28.2393  109.7570   58.9389 C   0  0  0  0  0  0  0  0  0  0  0  0
   33.2483  109.6763   58.0238 N   0  0  0  0  0  0  0  0  0  0  0  0
   26.0668  110.2724   56.5784 C   0  0  0  0  0  0  0  0  0  0  0  0
   34.9389  109.5499   59.4140 C   0  0  0  0  0  0  0  0  0  0  0  0
   31.4178  108.9802   59.4371 C   0  0  0  0  0  0  0  0  0  0  0  0
   26.2411  108.5951   59.8076 N   0  0  0  0  0  0  0  0  0  0  0  0
   24.9483  108.2913   59.4867 N   0  0  0  0  0  0  0  0  0  0  0  0
   24.7428  108.8527   58.3093 C   0  0  0  0  0  0  0  0  0  0  0  0
   30.5616  109.1536   58.3823 C   0  0  0  0  0  0  0  0  0  0  0  0
   29.1738  108.9284   58.3734 N   0  0  0  0  0  0  0  0  0  0  0  0
   25.6778  109.6899   55.3438 N   0  0  0  0  0  0  0  0  0  0  0  0
   28.5389  110.7950   59.5214 O   0  0  0  0  0  0  0  0  0  0  0  0
   26.5312  111.4094   56.6063 O   0  0  0  0  0  0  0  0  0  0  0  0
   26.2717  110.0278   51.7159 N   0  0  0  0  0  0  0  0  0  0  0  0
   25.0730  109.2828   51.3153 C   0  0  0  0  0  0  0  0  0  0  0  0
   37.7760  108.4716   61.6263 C   0  0  0  0  0  0  0  0  0  0  0  0
   38.4371  110.4448   60.4685 C   0  0  0  0  0  0  0  0  0  0  0  0
   38.7150  109.4444   61.3759 C   0  0  0  0  0  0  0  0  0  0  0  0
   35.2975  110.1590   57.3163 H   0  0  0  0  0  0  0  0  0  0  0  0
   32.7769  110.1714   55.9908 H   0  0  0  0  0  0  0  0  0  0  0  0
   30.3939  109.7214   56.2444 H   0  0  0  0  0  0  0  0  0  0  0  0
   26.2502  108.5867   61.9064 H   0  0  0  0  0  0  0  0  0  0  0  0
   26.6322  107.0126   61.1297 H   0  0  0  0  0  0  0  0  0  0  0  0
   27.8499  108.3331   61.1297 H   0  0  0  0  0  0  0  0  0  0  0  0
   26.2637  111.4623   54.3936 H   0  0  0  0  0  0  0  0  0  0  0  0
   24.8536  110.5858   53.6541 H   0  0  0  0  0  0  0  0  0  0  0  0
   24.9383  107.9097   56.1723 H   0  0  0  0  0  0  0  0  0  0  0  0
   24.1750  108.4136   54.6262 H   0  0  0  0  0  0  0  0  0  0  0  0
   25.8339  107.7245   54.6262 H   0  0  0  0  0  0  0  0  0  0  0  0
   36.9888  111.2958   59.1196 H   0  0  0  0  0  0  0  0  0  0  0  0
   35.7930  107.7387   61.2214 H   0  0  0  0  0  0  0  0  0  0  0  0
   27.7756  110.2389   53.2194 H   0  0  0  0  0  0  0  0  0  0  0  0
   26.7880  108.7317   53.3279 H   0  0  0  0  0  0  0  0  0  0  0  0
   31.0369  108.6330   60.4089 H   0  0  0  0  0  0  0  0  0  0  0  0
   23.7875  108.8091   57.7657 H   0  0  0  0  0  0  0  0  0  0  0  0
   28.8333  108.0758   57.9063 H   0  0  0  0  0  0  0  0  0  0  0  0
   26.0653  111.0312   51.6086 H   0  0  0  0  0  0  0  0  0  0  0  0
   27.0244  109.6748   51.1079 H   0  0  0  0  0  0  0  0  0  0  0  0
   24.5329  108.9471   52.2129 H   0  0  0  0  0  0  0  0  0  0  0  0
   24.4195  109.9341   50.7164 H   0  0  0  0  0  0  0  0  0  0  0  0
   25.3678  108.4085   50.7164 H   0  0  0  0  0  0  0  0  0  0  0  0
   37.9993  107.6676   62.3430 H   0  0  0  0  0  0  0  0  0  0  0  0
   39.1880  111.2216   60.2619 H   0  0  0  0  0  0  0  0  0  0  0  0
   39.6835  109.4248   61.8972 H   0  0  0  0  0  0  0  0  0  0  0  0
  1 16  1  0
  1 18  2  0
  2  3  2  0
  2 16  1  0
  3 23  1  0
  4  8  2  0
  4  9  1  0
  4 18  1  0
  5 20  1  0
  6 10  1  0
  6 25  1  0
  7 25  1  0
  8 31  1  0
  9 30  2  0
 10 28  1  0
 11 12  2  0
 11 17  1  0
 11 22  1  0
 12 15  1  0
 12 20  1  0
 13 14  2  0
 13 16  1  0
 13 19  1  0
 14 18  1  0
 15 24  1  0
 15 26  2  0
 17 25  1  0
 17 27  2  0
 19 23  2  0
 20 21  1  0
 21 22  2  0
 23 24  1  0
 28 29  1  0
 30 32  1  0
 31 32  2  0
  1 33  1  0
  2 34  1  0
  3 35  1  0
  5 36  1  0
  5 37  1  0
  5 38  1  0
  6 39  1  0
  6 40  1  0
  7 41  1  0
  7 42  1  0
  7 43  1  0
  8 44  1  0
  9 45  1  0
 10 46  1  0
 10 47  1  0
 19 48  1  0
 22 49  1  0
 24 50  1  0
 28 51  1  0
 28 52  1  0
 29 53  1  0
 29 54  1  0
 29 55  1  0
 30 56  1  0
 31 57  1  0
 32 58  1  0
M  CHG  1  28   1
M  END
>  <filename_input>  (10) 
5SIS_JSM_docked.sdf

>  <pdb_id>  (10) 
5SIS_JSM

>  <pose_rank>  (10) 
9

>  <num_atoms_heavy>  (10) 
32

>  <num_torsions>  (10) 
7

>  <pose>  (10) 
[28.23929797791631, 109.75698270614416, 58.93888548871317, 0.2299710915228859, 3.3023873666415273, -1.3729559925990846, 1.0145321230902693, 3.626080562512535, -2.1160962100972696, -0.02913278715031421, 3.4106906735096376, 3.5961929704591635, 3.2117129833522484]

>  <energy>  (10) 
-655.9880620919313

>  <inter_energy>  (10) 
-678.6074596816504

>  <intra_energy>  (10) 
14.542011206138312

>  <rmsd>  (10) 
10.3542

>  <sdf_rank>  (10) 
0

$$$$

     RDKit          3D

 58 61  0  0  0  0  0  0  0  0999 V2000
   27.2731  110.0917   55.9812 C   0  0  0  0  0  0  0  0  0  0  0  0
   28.4252  109.6847   58.1718 C   0  0  0  0  0  0  0  0  0  0  0  0
   28.2552  109.3847   59.4673 C   0  0  0  0  0  0  0  0  0  0  0  0
   25.2938  110.3781   54.3789 C   0  0  0  0  0  0  0  0  0  0  0  0
   25.6726  111.3484   64.8090 C   0  0  0  0  0  0  0  0  0  0  0  0
   27.4889  104.4883   62.8376 C   0  0  0  0  0  0  0  0  0  0  0  0
   25.8882  105.2979   64.5571 C   0  0  0  0  0  0  0  0  0  0  0  0
   24.2927  111.3417   54.3222 C   0  0  0  0  0  0  0  0  0  0  0  0
   25.7861  109.8643   53.1847 C   0  0  0  0  0  0  0  0  0  0  0  0
   28.4533  103.6113   63.6177 C   0  0  0  0  0  0  0  0  0  0  0  0
   27.0638  108.0315   64.2393 C   0  0  0  0  0  0  0  0  0  0  0  0
   26.6063  109.2463   63.7132 C   0  0  0  0  0  0  0  0  0  0  0  0
   26.0478  109.5829   57.7732 C   0  0  0  0  0  0  0  0  0  0  0  0
   25.1779  109.7365   56.7784 N   0  0  0  0  0  0  0  0  0  0  0  0
   26.5460  109.7465   62.3396 C   0  0  0  0  0  0  0  0  0  0  0  0
   27.3464  109.7839   57.3218 N   0  0  0  0  0  0  0  0  0  0  0  0
   27.5745  106.8783   63.4677 C   0  0  0  0  0  0  0  0  0  0  0  0
   25.9438  110.0408   55.6564 C   0  0  0  0  0  0  0  0  0  0  0  0
   25.8391  109.2698   59.1375 C   0  0  0  0  0  0  0  0  0  0  0  0
   26.2130  109.9947   64.7738 N   0  0  0  0  0  0  0  0  0  0  0  0
   26.3861  109.3333   65.9565 N   0  0  0  0  0  0  0  0  0  0  0  0
   26.8853  108.1565   65.6253 C   0  0  0  0  0  0  0  0  0  0  0  0
   26.9163  109.1599   59.9762 C   0  0  0  0  0  0  0  0  0  0  0  0
   26.8918  108.8626   61.3501 N   0  0  0  0  0  0  0  0  0  0  0  0
   26.9785  105.6014   63.6390 N   0  0  0  0  0  0  0  0  0  0  0  0
   26.2214  110.9074   62.1083 O   0  0  0  0  0  0  0  0  0  0  0  0
   28.4952  107.0284   62.6682 O   0  0  0  0  0  0  0  0  0  0  0  0
   29.6290  103.2210   62.7609 N   0  0  0  0  0  0  0  0  0  0  0  0
   30.6579  102.3863   63.3911 C   0  0  0  0  0  0  0  0  0  0  0  0
   25.2301  110.2395   51.9744 C   0  0  0  0  0  0  0  0  0  0  0  0
   23.7437  111.7162   53.1064 C   0  0  0  0  0  0  0  0  0  0  0  0
   24.2155  111.1669   51.9329 C   0  0  0  0  0  0  0  0  0  0  0  0
   28.1108  110.3297   55.3092 H   0  0  0  0  0  0  0  0  0  0  0  0
   29.4400  109.8538   57.7826 H   0  0  0  0  0  0  0  0  0  0  0  0
   29.1237  109.3097   60.1382 H   0  0  0  0  0  0  0  0  0  0  0  0
   25.5459  111.6656   65.8546 H   0  0  0  0  0  0  0  0  0  0  0  0
   26.3661  112.0334   64.2994 H   0  0  0  0  0  0  0  0  0  0  0  0
   24.6979  111.3674   64.2994 H   0  0  0  0  0  0  0  0  0  0  0  0
   28.0119  104.8952   61.9595 H   0  0  0  0  0  0  0  0  0  0  0  0
   26.6317  103.8657   62.5416 H   0  0  0  0  0  0  0  0  0  0  0  0
   26.2434  105.3967   65.5935 H   0  0  0  0  0  0  0  0  0  0  0  0
   25.0583  105.9991   64.3854 H   0  0  0  0  0  0  0  0  0  0  0  0
   25.5401  104.2686   64.3854 H   0  0  0  0  0  0  0  0  0  0  0  0
   23.9336  111.8104   55.2503 H   0  0  0  0  0  0  0  0  0  0  0  0
   26.6252  109.1533   53.2019 H   0  0  0  0  0  0  0  0  0  0  0  0
   28.8149  104.1651   64.4967 H   0  0  0  0  0  0  0  0  0  0  0  0
   27.9261  102.6986   63.9325 H   0  0  0  0  0  0  0  0  0  0  0  0
   24.8198  109.1158   59.5212 H   0  0  0  0  0  0  0  0  0  0  0  0
   27.1322  107.3672   66.3506 H   0  0  0  0  0  0  0  0  0  0  0  0
   27.1536  107.9081   61.6351 H   0  0  0  0  0  0  0  0  0  0  0  0
   29.2642  102.7051   61.9475 H   0  0  0  0  0  0  0  0  0  0  0  0
   30.1025  104.1068   62.5330 H   0  0  0  0  0  0  0  0  0  0  0  0
   30.5692  102.4583   64.4851 H   0  0  0  0  0  0  0  0  0  0  0  0
   30.5223  101.3399   63.0802 H   0  0  0  0  0  0  0  0  0  0  0  0
   31.6539  102.7349   63.0802 H   0  0  0  0  0  0  0  0  0  0  0  0
   25.6017  109.7934   51.0402 H   0  0  0  0  0  0  0  0  0  0  0  0
   22.9286  112.4543   53.0772 H   0  0  0  0  0  0  0  0  0  0  0  0
   23.7824  111.4691   50.9680 H   0  0  0  0  0  0  0  0  0  0  0  0
  1 16  1  0
  1 18  2  0
  2  3  2  0
  2 16  1  0
  3 23  1  0
  4  8  2  0
  4  9  1  0
  4 18  1  0
  5 20  1  0
  6 10  1  0
  6 25  1  0
  7 25  1  0
  8 31  1  0
  9 30  2  0
 10 28  1  0
 11 12  2  0
 11 17  1  0
 11 22  1  0
 12 15  1  0
 12 20  1  0
 13 14  2  0
 13 16  1  0
 13 19  1  0
 14 18  1  0
 15 24  1  0
 15 26  2  0
 17 25  1  0
 17 27  2  0
 19 23  2  0
 20 21  1  0
 21 22  2  0
 23 24  1  0
 28 29  1  0
 30 32  1  0
 31 32  2  0
  1 33  1  0
  2 34  1  0
  3 35  1  0
  5 36  1  0
  5 37  1  0
  5 38  1  0
  6 39  1  0
  6 40  1  0
  7 41  1  0
  7 42  1  0
  7 43  1  0
  8 44  1  0
  9 45  1  0
 10 46  1  0
 10 47  1  0
 19 48  1  0
 22 49  1  0
 24 50  1  0
 28 51  1  0
 28 52  1  0
 29 53  1  0
 29 54  1  0
 29 55  1  0
 30 56  1  0
 31 57  1  0
 32 58  1  0
M  CHG  1  28   1
M  END
>  <filename_input>  (11) 
5SIS_JSM_docked.sdf

>  <pdb_id>  (11) 
5SIS_JSM

>  <pose_rank>  (11) 
10

>  <num_atoms_heavy>  (11) 
32

>  <num_torsions>  (11) 
7

>  <pose>  (11) 
[26.545974873126145, 109.74648030058054, 62.33958473970256, -1.9914430157224372, 2.196971070545043, -3.1491401018060734, -1.6439059750651281, 0.6755733025692616, -0.5149924101951984, 8.065311179773818, 3.0522904744906736, -1.3013171564883186, -4.96401850695674]

>  <energy>  (11) 
-323.7366357631713

>  <inter_energy>  (11) 
-380.83043989780714

>  <intra_energy>  (11) 
64.39852764121602

>  <rmsd>  (11) 
6.96717

>  <sdf_rank>  (11) 
0

$$$$

     RDKit          3D

 58 61  0  0  0  0  0  0  0  0999 V2000
   27.7992  109.7717   56.0652 C   0  0  0  0  0  0  0  0  0  0  0  0
   29.0089  109.7570   58.2624 C   0  0  0  0  0  0  0  0  0  0  0  0
   30.1976  109.6111   58.8651 C   0  0  0  0  0  0  0  0  0  0  0  0
   27.5207  109.5365   53.5286 C   0  0  0  0  0  0  0  0  0  0  0  0
   33.3744  106.6906   62.3351 C   0  0  0  0  0  0  0  0  0  0  0  0
   36.9221  111.4834   57.8353 C   0  0  0  0  0  0  0  0  0  0  0  0
   37.7389  110.6113   60.0139 C   0  0  0  0  0  0  0  0  0  0  0  0
   28.0527  108.8852   52.4211 C   0  0  0  0  0  0  0  0  0  0  0  0
   26.1980  109.9608   53.4747 C   0  0  0  0  0  0  0  0  0  0  0  0
   38.2213  111.1454   57.1242 C   0  0  0  0  0  0  0  0  0  0  0  0
   35.2229  109.0034   60.2147 C   0  0  0  0  0  0  0  0  0  0  0  0
   34.0456  108.2877   60.4670 C   0  0  0  0  0  0  0  0  0  0  0  0
   30.0030  109.4336   56.0880 C   0  0  0  0  0  0  0  0  0  0  0  0
   29.6489  109.3911   54.8062 N   0  0  0  0  0  0  0  0  0  0  0  0
   32.7668  108.2441   59.7574 C   0  0  0  0  0  0  0  0  0  0  0  0
   28.8962  109.6746   56.8926 N   0  0  0  0  0  0  0  0  0  0  0  0
   35.4769  109.8971   59.0646 C   0  0  0  0  0  0  0  0  0  0  0  0
   28.2751  109.6157   54.7907 C   0  0  0  0  0  0  0  0  0  0  0  0
   31.2694  109.2708   56.6983 C   0  0  0  0  0  0  0  0  0  0  0  0
   34.2650  107.5865   61.6070 N   0  0  0  0  0  0  0  0  0  0  0  0
   35.5180  107.8038   62.1060 N   0  0  0  0  0  0  0  0  0  0  0  0
   36.0864  108.6442   61.2606 C   0  0  0  0  0  0  0  0  0  0  0  0
   31.3784  109.3660   58.0602 C   0  0  0  0  0  0  0  0  0  0  0  0
   32.5487  109.2272   58.8270 N   0  0  0  0  0  0  0  0  0  0  0  0
   36.6901  110.6313   59.0023 N   0  0  0  0  0  0  0  0  0  0  0  0
   31.9369  107.3765   60.0129 O   0  0  0  0  0  0  0  0  0  0  0  0
   34.6522  109.9879   58.1584 O   0  0  0  0  0  0  0  0  0  0  0  0
   38.9434  112.4010   56.7109 N   0  0  0  0  0  0  0  0  0  0  0  0
   38.2259  113.3103   55.8105 C   0  0  0  0  0  0  0  0  0  0  0  0
   25.4590  109.8162   52.3138 C   0  0  0  0  0  0  0  0  0  0  0  0
   27.3053  108.7395   51.2635 C   0  0  0  0  0  0  0  0  0  0  0  0
   26.0074  109.2024   51.2122 C   0  0  0  0  0  0  0  0  0  0  0  0
   26.7548  109.9400   56.3666 H   0  0  0  0  0  0  0  0  0  0  0  0
   28.1117  109.9449   58.8704 H   0  0  0  0  0  0  0  0  0  0  0  0
   30.2763  109.6769   59.9603 H   0  0  0  0  0  0  0  0  0  0  0  0
   33.5156  106.8327   63.4167 H   0  0  0  0  0  0  0  0  0  0  0  0
   32.3309  106.9149   62.0689 H   0  0  0  0  0  0  0  0  0  0  0  0
   33.6049  105.6485   62.0689 H   0  0  0  0  0  0  0  0  0  0  0  0
   36.9617  112.5320   58.1651 H   0  0  0  0  0  0  0  0  0  0  0  0
   36.0972  111.3161   57.1270 H   0  0  0  0  0  0  0  0  0  0  0  0
   37.2829  110.6200   61.0149 H   0  0  0  0  0  0  0  0  0  0  0  0
   38.3455  109.7014   59.8952 H   0  0  0  0  0  0  0  0  0  0  0  0
   38.3798  111.4973   59.8952 H   0  0  0  0  0  0  0  0  0  0  0  0
   29.0753  108.4822   52.4643 H   0  0  0  0  0  0  0  0  0  0  0  0
   25.7348  110.4156   54.3627 H   0  0  0  0  0  0  0  0  0  0  0  0
   38.8642  110.5656   57.8027 H   0  0  0  0  0  0  0  0  0  0  0  0
   37.9894  110.5578   56.2237 H   0  0  0  0  0  0  0  0  0  0  0  0
   32.1592  109.0694   56.0837 H   0  0  0  0  0  0  0  0  0  0  0  0
   37.1156  109.0184   61.3642 H   0  0  0  0  0  0  0  0  0  0  0  0
   33.2993  109.9166   58.6784 H   0  0  0  0  0  0  0  0  0  0  0  0
   39.1711  112.9259   57.5674 H   0  0  0  0  0  0  0  0  0  0  0  0
   39.7602  112.0778   56.1731 H   0  0  0  0  0  0  0  0  0  0  0  0
   37.6523  114.0373   56.4042 H   0  0  0  0  0  0  0  0  0  0  0  0
   38.9488  113.8441   55.1760 H   0  0  0  0  0  0  0  0  0  0  0  0
   37.5387  112.7314   55.1760 H   0  0  0  0  0  0  0  0  0  0  0  0
   24.4269  110.1943   52.2720 H   0  0  0  0  0  0  0  0  0  0  0  0
   27.7488  108.2529   50.3823 H   0  0  0  0  0  0  0  0  0  0  0  0
   25.4134  109.0813   50.2943 H   0  0  0  0  0  0  0  0  0  0  0  0
  1 16  1  0
  1 18  2  0
  2  3  2  0
  2 16  1  0
  3 23  1  0
  4  8  2  0
  4  9  1  0
  4 18  1  0
  5 20  1  0
  6 10  1  0
  6 25  1  0
  7 25  1  0
  8 31  1  0
  9 30  2  0
 10 28  1  0
 11 12  2  0
 11 17  1  0
 11 22  1  0
 12 15  1  0
 12 20  1  0
 13 14  2  0
 13 16  1  0
 13 19  1  0
 14 18  1  0
 15 24  1  0
 15 26  2  0
 17 25  1  0
 17 27  2  0
 19 23  2  0
 20 21  1  0
 21 22  2  0
 23 24  1  0
 28 29  1  0
 30 32  1  0
 31 32  2  0
  1 33  1  0
  2 34  1  0
  3 35  1  0
  5 36  1  0
  5 37  1  0
  5 38  1  0
  6 39  1  0
  6 40  1  0
  7 41  1  0
  7 42  1  0
  7 43  1  0
  8 44  1  0
  9 45  1  0
 10 46  1  0
 10 47  1  0
 19 48  1  0
 22 49  1  0
 24 50  1  0
 28 51  1  0
 28 52  1  0
 29 53  1  0
 29 54  1  0
 29 55  1  0
 30 56  1  0
 31 57  1  0
 32 58  1  0
M  CHG  1  28   1
M  END
>  <filename_input>  (12) 
5SIS_JSM_docked.sdf

>  <pdb_id>  (12) 
5SIS_JSM

>  <pose_rank>  (12) 
11

>  <num_atoms_heavy>  (12) 
32

>  <num_torsions>  (12) 
7

>  <pose>  (12) 
[32.76681530486325, 108.24406073557635, 59.75740337407361, 3.1803460196505884, -0.29830861163493366, 2.1041016696749186, 3.939480138815687, 0.1127756651290967, -0.859108548915664, 0.730037171930872, -0.8519154592549966, -1.3000693914767847, 3.4434477236633128]

>  <energy>  (12) 
-995.3632165039645

>  <inter_energy>  (12) 
-1122.44730257605

>  <intra_energy>  (12) 
121.0136091775561

>  <rmsd>  (12) 
4.39402

>  <sdf_rank>  (12) 
0

$$$$

     RDKit          3D

 58 61  0  0  0  0  0  0  0  0999 V2000
   35.2801  108.8823   59.2390 C   0  0  0  0  0  0  0  0  0  0  0  0
   33.3394  109.7870   57.9326 C   0  0  0  0  0  0  0  0  0  0  0  0
   32.0050  109.7930   57.8030 C   0  0  0  0  0  0  0  0  0  0  0  0
   36.4696  107.4644   61.0115 C   0  0  0  0  0  0  0  0  0  0  0  0
   27.6841  109.3733   54.8571 C   0  0  0  0  0  0  0  0  0  0  0  0
   26.2463  110.2575   62.1140 C   0  0  0  0  0  0  0  0  0  0  0  0
   24.6558  109.5430   60.3436 C   0  0  0  0  0  0  0  0  0  0  0  0
   36.3877  106.2105   61.6075 C   0  0  0  0  0  0  0  0  0  0  0  0
   37.7147  108.0766   60.9263 C   0  0  0  0  0  0  0  0  0  0  0  0
   26.0310  109.0061   62.9479 C   0  0  0  0  0  0  0  0  0  0  0  0
   26.8092  110.0465   58.3274 C   0  0  0  0  0  0  0  0  0  0  0  0
   27.7998  109.8350   57.3600 C   0  0  0  0  0  0  0  0  0  0  0  0
   33.2104  108.2936   59.8231 C   0  0  0  0  0  0  0  0  0  0  0  0
   34.0137  107.6726   60.6828 N   0  0  0  0  0  0  0  0  0  0  0  0
   29.2601  109.8483   57.4489 C   0  0  0  0  0  0  0  0  0  0  0  0
   33.9498  109.0542   58.9258 N   0  0  0  0  0  0  0  0  0  0  0  0
   27.0290  110.2946   59.7683 C   0  0  0  0  0  0  0  0  0  0  0  0
   35.3053  108.0508   60.3267 C   0  0  0  0  0  0  0  0  0  0  0  0
   31.8001  108.2780   59.7062 C   0  0  0  0  0  0  0  0  0  0  0  0
   27.1479  109.6256   56.1893 N   0  0  0  0  0  0  0  0  0  0  0  0
   25.7918  109.6856   56.3431 N   0  0  0  0  0  0  0  0  0  0  0  0
   25.5994  109.9273   57.6270 C   0  0  0  0  0  0  0  0  0  0  0  0
   31.1970  109.0184   58.7244 C   0  0  0  0  0  0  0  0  0  0  0  0
   29.8188  109.1142   58.4632 N   0  0  0  0  0  0  0  0  0  0  0  0
   25.9847  110.0290   60.6923 N   0  0  0  0  0  0  0  0  0  0  0  0
   29.9307  110.5070   56.6596 O   0  0  0  0  0  0  0  0  0  0  0  0
   28.1154  110.7085   60.1656 O   0  0  0  0  0  0  0  0  0  0  0  0
   27.3495  108.3703   63.3028 N   0  0  0  0  0  0  0  0  0  0  0  0
   27.9949  107.5620   62.2623 C   0  0  0  0  0  0  0  0  0  0  0  0
   38.8286  107.4897   61.5005 C   0  0  0  0  0  0  0  0  0  0  0  0
   37.5082  105.6266   62.1762 C   0  0  0  0  0  0  0  0  0  0  0  0
   38.7288  106.2657   62.1191 C   0  0  0  0  0  0  0  0  0  0  0  0
   36.1450  109.3227   58.7214 H   0  0  0  0  0  0  0  0  0  0  0  0
   33.9549  110.3753   57.2361 H   0  0  0  0  0  0  0  0  0  0  0  0
   31.5276  110.3804   57.0048 H   0  0  0  0  0  0  0  0  0  0  0  0
   28.6764  108.9064   54.9436 H   0  0  0  0  0  0  0  0  0  0  0  0
   27.0079  108.6989   54.3114 H   0  0  0  0  0  0  0  0  0  0  0  0
   27.7726  110.3242   54.3114 H   0  0  0  0  0  0  0  0  0  0  0  0
   25.5689  111.0449   62.4762 H   0  0  0  0  0  0  0  0  0  0  0  0
   27.3001  110.5548   62.2189 H   0  0  0  0  0  0  0  0  0  0  0  0
   24.0884  109.3355   61.2628 H   0  0  0  0  0  0  0  0  0  0  0  0
   24.1295  110.3069   59.7524 H   0  0  0  0  0  0  0  0  0  0  0  0
   24.7465  108.6199   59.7524 H   0  0  0  0  0  0  0  0  0  0  0  0
   35.4255  105.6779   61.6276 H   0  0  0  0  0  0  0  0  0  0  0  0
   37.8155  109.0360   60.3978 H   0  0  0  0  0  0  0  0  0  0  0  0
   25.4992  109.2752   63.8725 H   0  0  0  0  0  0  0  0  0  0  0  0
   25.4381  108.2881   62.3622 H   0  0  0  0  0  0  0  0  0  0  0  0
   31.1931  107.6759   60.3983 H   0  0  0  0  0  0  0  0  0  0  0  0
   24.6074  110.0237   58.0925 H   0  0  0  0  0  0  0  0  0  0  0  0
   29.1802  108.5931   59.0809 H   0  0  0  0  0  0  0  0  0  0  0  0
   28.0009  109.1258   63.5593 H   0  0  0  0  0  0  0  0  0  0  0  0
   27.1344  107.7095   64.0630 H   0  0  0  0  0  0  0  0  0  0  0  0
   28.6151  106.7852   62.7335 H   0  0  0  0  0  0  0  0  0  0  0  0
   27.2249  107.0869   61.6367 H   0  0  0  0  0  0  0  0  0  0  0  0
   28.6286  108.2077   61.6367 H   0  0  0  0  0  0  0  0  0  0  0  0
   39.7995  108.0053   61.4618 H   0  0  0  0  0  0  0  0  0  0  0  0
   37.4238  104.6499   62.6750 H   0  0  0  0  0  0  0  0  0  0  0  0
   39.6185  105.7985   62.5663 H   0  0  0  0  0  0  0  0  0  0  0  0
  1 16  1  0
  1 18  2  0
  2  3  2  0
  2 16  1  0
  3 23  1  0
  4  8  2  0
  4  9  1  0
  4 18  1  0
  5 20  1  0
  6 10  1  0
  6 25  1  0
  7 25  1  0
  8 31  1  0
  9 30  2  0
 10 28  1  0
 11 12  2  0
 11 17  1  0
 11 22  1  0
 12 15  1  0
 12 20  1  0
 13 14  2  0
 13 16  1  0
 13 19  1  0
 14 18  1  0
 15 24  1  0
 15 26  2  0
 17 25  1  0
 17 27  2  0
 19 23  2  0
 20 21  1  0
 21 22  2  0
 23 24  1  0
 28 29  1  0
 30 32  1  0
 31 32  2  0
  1 33  1  0
  2 34  1  0
  3 35  1  0
  5 36  1  0
  5 37  1  0
  5 38  1  0
  6 39  1  0
  6 40  1  0
  7 41  1  0
  7 42  1  0
  7 43  1  0
  8 44  1  0
  9 45  1  0
 10 46  1  0
 10 47  1  0
 19 48  1  0
 22 49  1  0
 24 50  1  0
 28 51  1  0
 28 52  1  0
 29 53  1  0
 29 54  1  0
 29 55  1  0
 30 56  1  0
 31 57  1  0
 32 58  1  0
M  CHG  1  28   1
M  END
>  <filename_input>  (13) 
5SIS_JSM_docked.sdf

>  <pdb_id>  (13) 
5SIS_JSM

>  <pose_rank>  (13) 
12

>  <num_atoms_heavy>  (13) 
32

>  <num_torsions>  (13) 
7

>  <pose>  (13) 
[29.260134691627172, 109.84826581732642, 57.448877475664574, -1.0705753580295339, -1.2829880304987173, 2.44790578326333, 2.857384146932158, 0.23967041858146818, 0.239619180243078, 1.196893892319046, -0.8215912647964958, -3.3829405148338743, -3.188692262357135]

>  <energy>  (13) 
-500.58422379376765

>  <inter_energy>  (13) 
-588.5140542919728

>  <intra_energy>  (13) 
95.06001817545683

>  <rmsd>  (13) 
9.32543

>  <sdf_rank>  (13) 
0

$$$$

     RDKit          3D

 58 61  0  0  0  0  0  0  0  0999 V2000
   34.0571  106.8021   61.0658 C   0  0  0  0  0  0  0  0  0  0  0  0
   32.8627  108.2133   59.3706 C   0  0  0  0  0  0  0  0  0  0  0  0
   31.7310  108.8737   59.0870 C   0  0  0  0  0  0  0  0  0  0  0  0
   34.3519  105.4763   63.2389 C   0  0  0  0  0  0  0  0  0  0  0  0
   26.3660  110.9315   61.4574 C   0  0  0  0  0  0  0  0  0  0  0  0
   27.2608  109.1997   54.2601 C   0  0  0  0  0  0  0  0  0  0  0  0
   25.2471  110.1811   55.3355 C   0  0  0  0  0  0  0  0  0  0  0  0
   35.0625  105.9768   64.3245 C   0  0  0  0  0  0  0  0  0  0  0  0
   34.1646  104.1019   63.1474 C   0  0  0  0  0  0  0  0  0  0  0  0
   26.2477  108.6185   53.2886 C   0  0  0  0  0  0  0  0  0  0  0  0
   26.7986  110.3472   57.8891 C   0  0  0  0  0  0  0  0  0  0  0  0
   27.2029  110.0860   59.2044 C   0  0  0  0  0  0  0  0  0  0  0  0
   32.0011  107.5357   61.5198 C   0  0  0  0  0  0  0  0  0  0  0  0
   32.3714  106.8304   62.5854 N   0  0  0  0  0  0  0  0  0  0  0  0
   28.2300  109.1946   59.7441 C   0  0  0  0  0  0  0  0  0  0  0  0
   33.0129  107.5498   60.5678 N   0  0  0  0  0  0  0  0  0  0  0  0
   27.3958  109.7835   56.6595 C   0  0  0  0  0  0  0  0  0  0  0  0
   33.6604  106.3836   62.3078 C   0  0  0  0  0  0  0  0  0  0  0  0
   30.7937  108.2207   61.2445 C   0  0  0  0  0  0  0  0  0  0  0  0
   26.3988  110.8309   60.0032 N   0  0  0  0  0  0  0  0  0  0  0  0
   25.4992  111.5626   59.2809 N   0  0  0  0  0  0  0  0  0  0  0  0
   25.7535  111.2744   58.0175 C   0  0  0  0  0  0  0  0  0  0  0  0
   30.6540  108.8895   60.0575 C   0  0  0  0  0  0  0  0  0  0  0  0
   29.5299  109.6128   59.6213 N   0  0  0  0  0  0  0  0  0  0  0  0
   26.6288  109.7364   55.4660 N   0  0  0  0  0  0  0  0  0  0  0  0
   27.9237  108.1221   60.2564 O   0  0  0  0  0  0  0  0  0  0  0  0
   28.5553  109.3774   56.6655 O   0  0  0  0  0  0  0  0  0  0  0  0
   26.5849  109.0073   51.8730 N   0  0  0  0  0  0  0  0  0  0  0  0
   27.7646  108.3715   51.2760 C   0  0  0  0  0  0  0  0  0  0  0  0
   34.7479  103.2490   64.0677 C   0  0  0  0  0  0  0  0  0  0  0  0
   35.6399  105.1171   65.2450 C   0  0  0  0  0  0  0  0  0  0  0  0
   35.4791  103.7535   65.1174 C   0  0  0  0  0  0  0  0  0  0  0  0
   35.0137  106.5856   60.5677 H   0  0  0  0  0  0  0  0  0  0  0  0
   33.6822  108.2012   58.6369 H   0  0  0  0  0  0  0  0  0  0  0  0
   31.6206  109.3989   58.1268 H   0  0  0  0  0  0  0  0  0  0  0  0
   26.6783  109.9733   61.8984 H   0  0  0  0  0  0  0  0  0  0  0  0
   27.0514  111.7268   61.7855 H   0  0  0  0  0  0  0  0  0  0  0  0
   25.3436  111.1702   61.7855 H   0  0  0  0  0  0  0  0  0  0  0  0
   27.9654  108.4073   54.5527 H   0  0  0  0  0  0  0  0  0  0  0  0
   27.7765  110.0284   53.7530 H   0  0  0  0  0  0  0  0  0  0  0  0
   24.8111  110.3214   56.3355 H   0  0  0  0  0  0  0  0  0  0  0  0
   25.2189  111.1337   54.7861 H   0  0  0  0  0  0  0  0  0  0  0  0
   24.6686  109.4237   54.7861 H   0  0  0  0  0  0  0  0  0  0  0  0
   35.1671  107.0642   64.4534 H   0  0  0  0  0  0  0  0  0  0  0  0
   33.5473  103.6886   62.3361 H   0  0  0  0  0  0  0  0  0  0  0  0
   26.2541  107.5218   53.3733 H   0  0  0  0  0  0  0  0  0  0  0  0
   25.2519  109.0143   53.5368 H   0  0  0  0  0  0  0  0  0  0  0  0
   29.9740  108.2161   61.9780 H   0  0  0  0  0  0  0  0  0  0  0  0
   25.2100  111.7100   57.1662 H   0  0  0  0  0  0  0  0  0  0  0  0
   29.6957  110.5264   59.1755 H   0  0  0  0  0  0  0  0  0  0  0  0
   25.7731  108.7735   51.2838 H   0  0  0  0  0  0  0  0  0  0  0  0
   26.8121  110.0110   51.9158 H   0  0  0  0  0  0  0  0  0  0  0  0
   28.4309  108.0124   52.0741 H   0  0  0  0  0  0  0  0  0  0  0  0
   27.4476  107.5221   50.6531 H   0  0  0  0  0  0  0  0  0  0  0  0
   28.2998  109.1033   50.6531 H   0  0  0  0  0  0  0  0  0  0  0  0
   34.6261  102.1612   63.9590 H   0  0  0  0  0  0  0  0  0  0  0  0
   36.2286  105.5237   66.0805 H   0  0  0  0  0  0  0  0  0  0  0  0
   35.9336  103.0724   65.8520 H   0  0  0  0  0  0  0  0  0  0  0  0
  1 16  1  0
  1 18  2  0
  2  3  2  0
  2 16  1  0
  3 23  1  0
  4  8  2  0
  4  9  1  0
  4 18  1  0
  5 20  1  0
  6 10  1  0
  6 25  1  0
  7 25  1  0
  8 31  1  0
  9 30  2  0
 10 28  1  0
 11 12  2  0
 11 17  1  0
 11 22  1  0
 12 15  1  0
 12 20  1  0
 13 14  2  0
 13 16  1  0
 13 19  1  0
 14 18  1  0
 15 24  1  0
 15 26  2  0
 17 25  1  0
 17 27  2  0
 19 23  2  0
 20 21  1  0
 21 22  2  0
 23 24  1  0
 28 29  1  0
 30 32  1  0
 31 32  2  0
  1 33  1  0
  2 34  1  0
  3 35  1  0
  5 36  1  0
  5 37  1  0
  5 38  1  0
  6 39  1  0
  6 40  1  0
  7 41  1  0
  7 42  1  0
  7 43  1  0
  8 44  1  0
  9 45  1  0
 10 46  1  0
 10 47  1  0
 19 48  1  0
 22 49  1  0
 24 50  1  0
 28 51  1  0
 28 52  1  0
 29 53  1  0
 29 54  1  0
 29 55  1  0
 30 56  1  0
 31 57  1  0
 32 58  1  0
M  CHG  1  28   1
M  END
>  <filename_input>  (14) 
5SIS_JSM_docked.sdf

>  <pdb_id>  (14) 
5SIS_JSM

>  <pose_rank>  (14) 
13

>  <num_atoms_heavy>  (14) 
32

>  <num_torsions>  (14) 
7

>  <pose>  (14) 
[28.22996377428713, 109.1945989783882, 59.74405849652138, 0.17757402387058685, -2.5411738929403187, -2.0493306147660526, -1.0684253406463322, -1.6997223087431073, 0.7055912150851807, 0.41788325776724944, -2.2854345518736086, -2.7625939834254307, -0.5641554298438965]

>  <energy>  (14) 
-565.4623172257968

>  <inter_energy>  (14) 
-601.4283648990277

>  <intra_energy>  (14) 
44.390457064098925

>  <rmsd>  (14) 
10.581

>  <sdf_rank>  (14) 
0

$$$$

     RDKit          3D

 58 61  0  0  0  0  0  0  0  0999 V2000
   35.1921  103.7448   65.0679 C   0  0  0  0  0  0  0  0  0  0  0  0
   36.5079  105.6905   64.1878 C   0  0  0  0  0  0  0  0  0  0  0  0
   36.5196  106.7091   63.3161 C   0  0  0  0  0  0  0  0  0  0  0  0
   33.2361  102.0952   65.2082 C   0  0  0  0  0  0  0  0  0  0  0  0
   37.5756  110.1383   61.0592 C   0  0  0  0  0  0  0  0  0  0  0  0
   31.7703  108.6948   56.8956 C   0  0  0  0  0  0  0  0  0  0  0  0
   32.2447  110.2970   58.7347 C   0  0  0  0  0  0  0  0  0  0  0  0
   31.9451  102.1799   65.7183 C   0  0  0  0  0  0  0  0  0  0  0  0
   33.7816  100.8346   64.9943 C   0  0  0  0  0  0  0  0  0  0  0  0
   30.3457  108.9773   57.3410 C   0  0  0  0  0  0  0  0  0  0  0  0
   35.1584  109.7213   58.3677 C   0  0  0  0  0  0  0  0  0  0  0  0
   35.7869  109.2007   59.5060 C   0  0  0  0  0  0  0  0  0  0  0  0
   34.3059  105.0183   63.4666 C   0  0  0  0  0  0  0  0  0  0  0  0
   33.3930  104.0861   63.7270 N   0  0  0  0  0  0  0  0  0  0  0  0
   35.5993  107.9412   60.2264 C   0  0  0  0  0  0  0  0  0  0  0  0
   35.4221  104.8484   64.2763 N   0  0  0  0  0  0  0  0  0  0  0  0
   34.1299  109.0463   57.5475 C   0  0  0  0  0  0  0  0  0  0  0  0
   33.9405  103.2990   64.7363 C   0  0  0  0  0  0  0  0  0  0  0  0
   34.2935  106.0827   62.5340 C   0  0  0  0  0  0  0  0  0  0  0  0
   36.6702  110.1446   59.9165 N   0  0  0  0  0  0  0  0  0  0  0  0
   36.6527  111.2453   59.1075 N   0  0  0  0  0  0  0  0  0  0  0  0
   35.7531  110.9779   58.1784 C   0  0  0  0  0  0  0  0  0  0  0  0
   35.3707  106.9251   62.4585 C   0  0  0  0  0  0  0  0  0  0  0  0
   35.5278  108.0221   61.5932 N   0  0  0  0  0  0  0  0  0  0  0  0
   32.7596  109.3593   57.7450 N   0  0  0  0  0  0  0  0  0  0  0  0
   35.5341  106.8757   59.6206 O   0  0  0  0  0  0  0  0  0  0  0  0
   34.4607  108.2348   56.6863 O   0  0  0  0  0  0  0  0  0  0  0  0
   29.6951  109.9877   56.4329 N   0  0  0  0  0  0  0  0  0  0  0  0
   28.2283  110.0114   56.4137 C   0  0  0  0  0  0  0  0  0  0  0  0
   33.0885   99.6955   65.3639 C   0  0  0  0  0  0  0  0  0  0  0  0
   31.2549  101.0348   66.0818 C   0  0  0  0  0  0  0  0  0  0  0  0
   31.8264   99.7929   65.9010 C   0  0  0  0  0  0  0  0  0  0  0  0
   35.8741  103.3106   65.8138 H   0  0  0  0  0  0  0  0  0  0  0  0
   37.3773  105.5254   64.8411 H   0  0  0  0  0  0  0  0  0  0  0  0
   37.3929  107.3748   63.2522 H   0  0  0  0  0  0  0  0  0  0  0  0
   36.9905  110.1424   61.9907 H   0  0  0  0  0  0  0  0  0  0  0  0
   38.2035  109.2358   61.0246 H   0  0  0  0  0  0  0  0  0  0  0  0
   38.2160  111.0320   61.0246 H   0  0  0  0  0  0  0  0  0  0  0  0
   31.9440  107.6092   56.9331 H   0  0  0  0  0  0  0  0  0  0  0  0
   31.8873  109.0852   55.8739 H   0  0  0  0  0  0  0  0  0  0  0  0
   32.4542  109.9156   59.7449 H   0  0  0  0  0  0  0  0  0  0  0  0
   32.7329  111.2739   58.6031 H   0  0  0  0  0  0  0  0  0  0  0  0
   31.1584  110.4093   58.6031 H   0  0  0  0  0  0  0  0  0  0  0  0
   31.4679  103.1643   65.8341 H   0  0  0  0  0  0  0  0  0  0  0  0
   34.7732  100.7418   64.5271 H   0  0  0  0  0  0  0  0  0  0  0  0
   29.7668  108.0423   57.3146 H   0  0  0  0  0  0  0  0  0  0  0  0
   30.3683  109.3830   58.3632 H   0  0  0  0  0  0  0  0  0  0  0  0
   33.4256  106.2322   61.8749 H   0  0  0  0  0  0  0  0  0  0  0  0
   35.4999  111.6600   57.3534 H   0  0  0  0  0  0  0  0  0  0  0  0
   35.5941  108.9578   62.0185 H   0  0  0  0  0  0  0  0  0  0  0  0
   30.0182  110.9215   56.7234 H   0  0  0  0  0  0  0  0  0  0  0  0
   29.9729  109.7122   55.4801 H   0  0  0  0  0  0  0  0  0  0  0  0
   27.8482  110.0176   57.4459 H   0  0  0  0  0  0  0  0  0  0  0  0
   27.8831  110.9153   55.8904 H   0  0  0  0  0  0  0  0  0  0  0  0
   27.8540  109.1192   55.8904 H   0  0  0  0  0  0  0  0  0  0  0  0
   33.5498   98.7062   65.2273 H   0  0  0  0  0  0  0  0  0  0  0  0
   30.2476  101.1166   66.5162 H   0  0  0  0  0  0  0  0  0  0  0  0
   31.2752   98.8844   66.1851 H   0  0  0  0  0  0  0  0  0  0  0  0
  1 16  1  0
  1 18  2  0
  2  3  2  0
  2 16  1  0
  3 23  1  0
  4  8  2  0
  4  9  1  0
  4 18  1  0
  5 20  1  0
  6 10  1  0
  6 25  1  0
  7 25  1  0
  8 31  1  0
  9 30  2  0
 10 28  1  0
 11 12  2  0
 11 17  1  0
 11 22  1  0
 12 15  1  0
 12 20  1  0
 13 14  2  0
 13 16  1  0
 13 19  1  0
 14 18  1  0
 15 24  1  0
 15 26  2  0
 17 25  1  0
 17 27  2  0
 19 23  2  0
 20 21  1  0
 21 22  2  0
 23 24  1  0
 28 29  1  0
 30 32  1  0
 31 32  2  0
  1 33  1  0
  2 34  1  0
  3 35  1  0
  5 36  1  0
  5 37  1  0
  5 38  1  0
  6 39  1  0
  6 40  1  0
  7 41  1  0
  7 42  1  0
  7 43  1  0
  8 44  1  0
  9 45  1  0
 10 46  1  0
 10 47  1  0
 19 48  1  0
 22 49  1  0
 24 50  1  0
 28 51  1  0
 28 52  1  0
 29 53  1  0
 29 54  1  0
 29 55  1  0
 30 56  1  0
 31 57  1  0
 32 58  1  0
M  CHG  1  28   1
M  END
>  <filename_input>  (15) 
5SIS_JSM_docked.sdf

>  <pdb_id>  (15) 
5SIS_JSM

>  <pose_rank>  (15) 
14

>  <num_atoms_heavy>  (15) 
32

>  <num_torsions>  (15) 
7

>  <pose>  (15) 
[35.599335500168, 107.94118550322256, 60.2263927280427, -1.172606761528966, 0.7641826234113696, 1.2890095790080367, -1.4290337979979233, -1.2180952957198865, -2.9645644101182502, -0.6024616921486021, 4.318920106992764, 2.9214643232092357, 0.9613933929401657]

>  <energy>  (15) 
-692.8322427225173

>  <inter_energy>  (15) 
-697.8541719672977

>  <intra_energy>  (15) 
23.743759067007222

>  <rmsd>  (15) 
9.62058

>  <sdf_rank>  (15) 
0

$$$$

     RDKit          3D

 58 61  0  0  0  0  0  0  0  0999 V2000
   29.4637  109.6157   55.5060 C   0  0  0  0  0  0  0  0  0  0  0  0
   30.3060  109.7772   57.8632 C   0  0  0  0  0  0  0  0  0  0  0  0
   29.9586  109.8138   59.1575 C   0  0  0  0  0  0  0  0  0  0  0  0
   27.7210  109.4846   53.6318 C   0  0  0  0  0  0  0  0  0  0  0  0
   30.1309  109.4556   63.4903 C   0  0  0  0  0  0  0  0  0  0  0  0
   24.6903  114.1445   62.9980 C   0  0  0  0  0  0  0  0  0  0  0  0
   27.0848  114.1780   63.6607 C   0  0  0  0  0  0  0  0  0  0  0  0
   26.6164  110.2390   53.2515 C   0  0  0  0  0  0  0  0  0  0  0  0
   28.4765  108.8708   52.6393 C   0  0  0  0  0  0  0  0  0  0  0  0
   24.9814  115.1090   61.8610 C   0  0  0  0  0  0  0  0  0  0  0  0
   26.9637  111.1995   63.9244 C   0  0  0  0  0  0  0  0  0  0  0  0
   27.9969  110.7839   63.0750 C   0  0  0  0  0  0  0  0  0  0  0  0
   27.9990  109.5739   57.1866 C   0  0  0  0  0  0  0  0  0  0  0  0
   27.2720  109.4697   56.0773 N   0  0  0  0  0  0  0  0  0  0  0  0
   28.1863  110.9363   61.6322 C   0  0  0  0  0  0  0  0  0  0  0  0
   29.3513  109.6566   56.8783 N   0  0  0  0  0  0  0  0  0  0  0  0
   25.7742  111.9883   63.5381 C   0  0  0  0  0  0  0  0  0  0  0  0
   28.1873  109.4821   55.0285 C   0  0  0  0  0  0  0  0  0  0  0  0
   27.6039  109.6151   58.5449 C   0  0  0  0  0  0  0  0  0  0  0  0
   28.8829  110.1154   63.8545 N   0  0  0  0  0  0  0  0  0  0  0  0
   28.4849  110.0771   65.1609 N   0  0  0  0  0  0  0  0  0  0  0  0
   27.3416  110.7372   65.1940 C   0  0  0  0  0  0  0  0  0  0  0  0
   28.5581  109.7225   59.5215 C   0  0  0  0  0  0  0  0  0  0  0  0
   28.3447  109.7818   60.9099 N   0  0  0  0  0  0  0  0  0  0  0  0
   25.8794  113.3981   63.4110 N   0  0  0  0  0  0  0  0  0  0  0  0
   28.2207  112.0504   61.1182 O   0  0  0  0  0  0  0  0  0  0  0  0
   24.7068  111.4249   63.3084 O   0  0  0  0  0  0  0  0  0  0  0  0
   23.7570  115.9191   61.5242 N   0  0  0  0  0  0  0  0  0  0  0  0
   23.6649  116.4401   60.1558 C   0  0  0  0  0  0  0  0  0  0  0  0
   28.0850  108.9375   51.3138 C   0  0  0  0  0  0  0  0  0  0  0  0
   26.2328  110.3054   51.9217 C   0  0  0  0  0  0  0  0  0  0  0  0
   26.9699  109.6569   50.9534 C   0  0  0  0  0  0  0  0  0  0  0  0
   30.3893  109.6778   54.9149 H   0  0  0  0  0  0  0  0  0  0  0  0
   31.3679  109.8443   57.5842 H   0  0  0  0  0  0  0  0  0  0  0  0
   30.7291  109.9123   59.9364 H   0  0  0  0  0  0  0  0  0  0  0  0
   30.6739  109.1685   64.4029 H   0  0  0  0  0  0  0  0  0  0  0  0
   29.9105  108.5562   62.8966 H   0  0  0  0  0  0  0  0  0  0  0  0
   30.7501  110.1442   62.8966 H   0  0  0  0  0  0  0  0  0  0  0  0
   24.3145  114.7162   63.8594 H   0  0  0  0  0  0  0  0  0  0  0  0
   23.9444  113.4190   62.6414 H   0  0  0  0  0  0  0  0  0  0  0  0
   27.2389  114.2777   64.7453 H   0  0  0  0  0  0  0  0  0  0  0  0
   27.9506  113.6685   63.2126 H   0  0  0  0  0  0  0  0  0  0  0  0
   26.9748  115.1766   63.2126 H   0  0  0  0  0  0  0  0  0  0  0  0
   26.0423  110.7876   54.0128 H   0  0  0  0  0  0  0  0  0  0  0  0
   29.3936  108.3272   52.9102 H   0  0  0  0  0  0  0  0  0  0  0  0
   25.7924  115.7884   62.1623 H   0  0  0  0  0  0  0  0  0  0  0  0
   25.2783  114.5308   60.9736 H   0  0  0  0  0  0  0  0  0  0  0  0
   26.5387  109.5612   58.8143 H   0  0  0  0  0  0  0  0  0  0  0  0
   26.7547  110.9047   66.1091 H   0  0  0  0  0  0  0  0  0  0  0  0
   28.3043  108.8899   61.4235 H   0  0  0  0  0  0  0  0  0  0  0  0
   22.9338  115.3217   61.6864 H   0  0  0  0  0  0  0  0  0  0  0  0
   23.8108  116.7525   62.1271 H   0  0  0  0  0  0  0  0  0  0  0  0
   23.4735  117.5229   60.1879 H   0  0  0  0  0  0  0  0  0  0  0  0
   24.6105  116.2505   59.6268 H   0  0  0  0  0  0  0  0  0  0  0  0
   22.8417  115.9377   59.6268 H   0  0  0  0  0  0  0  0  0  0  0  0
   28.6691  108.4119   50.5440 H   0  0  0  0  0  0  0  0  0  0  0  0
   25.3372  110.8774   51.6375 H   0  0  0  0  0  0  0  0  0  0  0  0
   26.6673  109.7148   49.8974 H   0  0  0  0  0  0  0  0  0  0  0  0
  1 16  1  0
  1 18  2  0
  2  3  2  0
  2 16  1  0
  3 23  1  0
  4  8  2  0
  4  9  1  0
  4 18  1  0
  5 20  1  0
  6 10  1  0
  6 25  1  0
  7 25  1  0
  8 31  1  0
  9 30  2  0
 10 28  1  0
 11 12  2  0
 11 17  1  0
 11 22  1  0
 12 15  1  0
 12 20  1  0
 13 14  2  0
 13 16  1  0
 13 19  1  0
 14 18  1  0
 15 24  1  0
 15 26  2  0
 17 25  1  0
 17 27  2  0
 19 23  2  0
 20 21  1  0
 21 22  2  0
 23 24  1  0
 28 29  1  0
 30 32  1  0
 31 32  2  0
  1 33  1  0
  2 34  1  0
  3 35  1  0
  5 36  1  0
  5 37  1  0
  5 38  1  0
  6 39  1  0
  6 40  1  0
  7 41  1  0
  7 42  1  0
  7 43  1  0
  8 44  1  0
  9 45  1  0
 10 46  1  0
 10 47  1  0
 19 48  1  0
 22 49  1  0
 24 50  1  0
 28 51  1  0
 28 52  1  0
 29 53  1  0
 29 54  1  0
 29 55  1  0
 30 56  1  0
 31 57  1  0
 32 58  1  0
M  CHG  1  28   1
M  END
>  <filename_input>  (16) 
5SIS_JSM_docked.sdf

>  <pdb_id>  (16) 
5SIS_JSM

>  <pose_rank>  (16) 
15

>  <num_atoms_heavy>  (16) 
32

>  <num_torsions>  (16) 
7

>  <pose>  (16) 
[28.186343819270252, 110.93634763674147, 61.63223630017007, 0.49951450550207216, -0.9712143068203838, 1.3323447026368975, -1.9049281920142265, 0.4852103166163441, 3.528844161054553, 2.5360362834146817, 5.314881086079163, 4.317813084448715, 1.7838009055541262]

>  <energy>  (16) 
-702.2577096048382

>  <inter_energy>  (16) 
-691.8536836885855

>  <intra_energy>  (16) 
12.354533876063826

>  <rmsd>  (16) 
8.05385

>  <sdf_rank>  (16) 
0

$$$$

     RDKit          3D

 58 61  0  0  0  0  0  0  0  0999 V2000
   33.5538  108.4121   58.3606 C   0  0  0  0  0  0  0  0  0  0  0  0
   31.7385  109.3004   56.8751 C   0  0  0  0  0  0  0  0  0  0  0  0
   30.4541  109.6795   56.8104 C   0  0  0  0  0  0  0  0  0  0  0  0
   34.5978  107.5015   60.5166 C   0  0  0  0  0  0  0  0  0  0  0  0
   25.2838  110.3974   60.0606 C   0  0  0  0  0  0  0  0  0  0  0  0
   26.2011  110.3298   52.7304 C   0  0  0  0  0  0  0  0  0  0  0  0
   25.1023  112.0315   54.1694 C   0  0  0  0  0  0  0  0  0  0  0  0
   34.4346  106.2333   61.0634 C   0  0  0  0  0  0  0  0  0  0  0  0
   35.8439  108.1097   60.6161 C   0  0  0  0  0  0  0  0  0  0  0  0
   27.5632  109.6639   52.8255 C   0  0  0  0  0  0  0  0  0  0  0  0
   25.2389  110.0790   56.4332 C   0  0  0  0  0  0  0  0  0  0  0  0
   25.9106  109.8796   57.6460 C   0  0  0  0  0  0  0  0  0  0  0  0
   31.5333  108.7903   59.2242 C   0  0  0  0  0  0  0  0  0  0  0  0
   32.2722  108.3341   60.2322 N   0  0  0  0  0  0  0  0  0  0  0  0
   27.2007  109.2598   57.9493 C   0  0  0  0  0  0  0  0  0  0  0  0
   32.2871  108.8614   58.0593 N   0  0  0  0  0  0  0  0  0  0  0  0
   25.7401  109.7334   55.0858 C   0  0  0  0  0  0  0  0  0  0  0  0
   33.5375  108.1108   59.6964 C   0  0  0  0  0  0  0  0  0  0  0  0
   30.1733  109.1797   59.1833 C   0  0  0  0  0  0  0  0  0  0  0  0
   25.0948  110.3639   58.6153 N   0  0  0  0  0  0  0  0  0  0  0  0
   23.9348  110.8689   58.0999 N   0  0  0  0  0  0  0  0  0  0  0  0
   24.0353  110.7034   56.7936 C   0  0  0  0  0  0  0  0  0  0  0  0
   29.6356  109.6274   58.0060 C   0  0  0  0  0  0  0  0  0  0  0  0
   28.3117  110.0465   57.7859 N   0  0  0  0  0  0  0  0  0  0  0  0
   25.6687  110.6947   54.0438 N   0  0  0  0  0  0  0  0  0  0  0  0
   27.2647  108.0879   58.3086 O   0  0  0  0  0  0  0  0  0  0  0  0
   26.2341  108.6285   54.8746 O   0  0  0  0  0  0  0  0  0  0  0  0
   27.7130  108.6056   51.7641 N   0  0  0  0  0  0  0  0  0  0  0  0
   29.0710  108.1124   51.5094 C   0  0  0  0  0  0  0  0  0  0  0  0
   36.8692  107.5030   61.3199 C   0  0  0  0  0  0  0  0  0  0  0  0
   35.4672  105.6297   61.7627 C   0  0  0  0  0  0  0  0  0  0  0  0
   36.6852  106.2641   61.8874 C   0  0  0  0  0  0  0  0  0  0  0  0
   34.4043  108.3152   57.6698 H   0  0  0  0  0  0  0  0  0  0  0  0
   32.3624  109.3407   55.9700 H   0  0  0  0  0  0  0  0  0  0  0  0
   30.0252  110.0268   55.8589 H   0  0  0  0  0  0  0  0  0  0  0  0
   24.3191  110.2264   60.5606 H   0  0  0  0  0  0  0  0  0  0  0  0
   25.9943  109.6113   60.3558 H   0  0  0  0  0  0  0  0  0  0  0  0
   25.6807  111.3800   60.3558 H   0  0  0  0  0  0  0  0  0  0  0  0
   26.2943  111.2407   52.1209 H   0  0  0  0  0  0  0  0  0  0  0  0
   25.5058  109.6102   52.2734 H   0  0  0  0  0  0  0  0  0  0  0  0
   24.9947  112.2856   55.2343 H   0  0  0  0  0  0  0  0  0  0  0  0
   25.7694  112.7594   53.6844 H   0  0  0  0  0  0  0  0  0  0  0  0
   24.1154  112.0587   53.6844 H   0  0  0  0  0  0  0  0  0  0  0  0
   33.4777  105.7050   60.9396 H   0  0  0  0  0  0  0  0  0  0  0  0
   36.0164  109.0818   60.1310 H   0  0  0  0  0  0  0  0  0  0  0  0
   28.3470  110.4239   52.6909 H   0  0  0  0  0  0  0  0  0  0  0  0
   27.6573  109.1899   53.8137 H   0  0  0  0  0  0  0  0  0  0  0  0
   29.5530  109.1231   60.0900 H   0  0  0  0  0  0  0  0  0  0  0  0
   23.2661  111.0181   56.0730 H   0  0  0  0  0  0  0  0  0  0  0  0
   28.1653  111.0186   57.4786 H   0  0  0  0  0  0  0  0  0  0  0  0
   27.1360  107.7996   52.0440 H   0  0  0  0  0  0  0  0  0  0  0  0
   27.4222  109.0604   50.8869 H   0  0  0  0  0  0  0  0  0  0  0  0
   29.5797  107.9277   52.4671 H   0  0  0  0  0  0  0  0  0  0  0  0
   29.0192  107.1757   50.9351 H   0  0  0  0  0  0  0  0  0  0  0  0
   29.6324  108.8641   50.9351 H   0  0  0  0  0  0  0  0  0  0  0  0
   37.8372  108.0148   61.4260 H   0  0  0  0  0  0  0  0  0  0  0  0
   35.3149  104.6409   62.2201 H   0  0  0  0  0  0  0  0  0  0  0  0
   37.5058  105.7813   62.4384 H   0  0  0  0  0  0  0  0  0  0  0  0
  1 16  1  0
  1 18  2  0
  2  3  2  0
  2 16  1  0
  3 23  1  0
  4  8  2  0
  4  9  1  0
  4 18  1  0
  5 20  1  0
  6 10  1  0
  6 25  1  0
  7 25  1  0
  8 31  1  0
  9 30  2  0
 10 28  1  0
 11 12  2  0
 11 17  1  0
 11 22  1  0
 12 15  1  0
 12 20  1  0
 13 14  2  0
 13 16  1  0
 13 19  1  0
 14 18  1  0
 15 24  1  0
 15 26  2  0
 17 25  1  0
 17 27  2  0
 19 23  2  0
 20 21  1  0
 21 22  2  0
 23 24  1  0
 28 29  1  0
 30 32  1  0
 31 32  2  0
  1 33  1  0
  2 34  1  0
  3 35  1  0
  5 36  1  0
  5 37  1  0
  5 38  1  0
  6 39  1  0
  6 40  1  0
  7 41  1  0
  7 42  1  0
  7 43  1  0
  8 44  1  0
  9 45  1  0
 10 46  1  0
 10 47  1  0
 19 48  1  0
 22 49  1  0
 24 50  1  0
 28 51  1  0
 28 52  1  0
 29 53  1  0
 29 54  1  0
 29 55  1  0
 30 56  1  0
 31 57  1  0
 32 58  1  0
M  CHG  1  28   1
M  END
>  <filename_input>  (17) 
5SIS_JSM_docked.sdf

>  <pdb_id>  (17) 
5SIS_JSM

>  <pose_rank>  (17) 
16

>  <num_atoms_heavy>  (17) 
32

>  <num_torsions>  (17) 
7

>  <pose>  (17) 
[27.200743216583927, 109.25980672081799, 57.94926378934576, 0.3800152353238465, -2.159381288892528, -2.070027613648709, -1.3746720498491862, 0.8400523258135403, 0.8136924236402323, -4.623927751973878, 0.5113906939753916, -2.637525297646922, 1.075834040156618]

>  <energy>  (17) 
-589.642345517277

>  <inter_energy>  (17) 
-623.8716484048766

>  <intra_energy>  (17) 
47.917309571827246

>  <rmsd>  (17) 
10.3939

>  <sdf_rank>  (17) 
0

$$$$

     RDKit          3D

 58 61  0  0  0  0  0  0  0  0999 V2000
   34.3617  109.4119   58.5020 C   0  0  0  0  0  0  0  0  0  0  0  0
   32.2254  109.8791   57.2733 C   0  0  0  0  0  0  0  0  0  0  0  0
   30.8985  109.6881   57.2579 C   0  0  0  0  0  0  0  0  0  0  0  0
   35.8627  108.3948   60.3129 C   0  0  0  0  0  0  0  0  0  0  0  0
   26.7150  109.6247   56.1433 C   0  0  0  0  0  0  0  0  0  0  0  0
   25.3179  109.3148   63.2592 C   0  0  0  0  0  0  0  0  0  0  0  0
   25.0043  110.9860   61.4473 C   0  0  0  0  0  0  0  0  0  0  0  0
   36.9389  109.2739   60.2572 C   0  0  0  0  0  0  0  0  0  0  0  0
   35.9647  107.2749   61.1302 C   0  0  0  0  0  0  0  0  0  0  0  0
   26.6940  109.5408   63.8618 C   0  0  0  0  0  0  0  0  0  0  0  0
   25.4713  108.7944   59.4638 C   0  0  0  0  0  0  0  0  0  0  0  0
   26.5459  109.1581   58.6423 C   0  0  0  0  0  0  0  0  0  0  0  0
   32.4440  108.6232   59.3217 C   0  0  0  0  0  0  0  0  0  0  0  0
   33.3859  108.2262   60.1734 N   0  0  0  0  0  0  0  0  0  0  0  0
   27.9487  109.4390   58.9487 C   0  0  0  0  0  0  0  0  0  0  0  0
   33.0022  109.3623   58.2860 N   0  0  0  0  0  0  0  0  0  0  0  0
   25.5265  108.5413   60.9194 C   0  0  0  0  0  0  0  0  0  0  0  0
   34.5816  108.7300   59.6690 C   0  0  0  0  0  0  0  0  0  0  0  0
   31.0462  108.4021   59.3277 C   0  0  0  0  0  0  0  0  0  0  0  0
   26.0453  109.2591   57.3857 N   0  0  0  0  0  0  0  0  0  0  0  0
   24.7090  108.9781   57.3453 N   0  0  0  0  0  0  0  0  0  0  0  0
   24.3777  108.6912   58.5910 C   0  0  0  0  0  0  0  0  0  0  0  0
   30.2763  108.9288   58.3249 C   0  0  0  0  0  0  0  0  0  0  0  0
   28.8841  108.8042   58.1729 N   0  0  0  0  0  0  0  0  0  0  0  0
   25.2849  109.6069   61.8255 N   0  0  0  0  0  0  0  0  0  0  0  0
   28.2511  110.1901   59.8711 O   0  0  0  0  0  0  0  0  0  0  0  0
   25.7595  107.4114   61.3420 O   0  0  0  0  0  0  0  0  0  0  0  0
   26.9421  108.5809   64.9957 N   0  0  0  0  0  0  0  0  0  0  0  0
   26.0461  108.6794   66.1533 C   0  0  0  0  0  0  0  0  0  0  0  0
   37.1426  106.9980   61.8014 C   0  0  0  0  0  0  0  0  0  0  0  0
   38.1138  108.9927   60.9357 C   0  0  0  0  0  0  0  0  0  0  0  0
   38.2133  107.8562   61.7102 C   0  0  0  0  0  0  0  0  0  0  0  0
   35.1161  109.8994   57.8671 H   0  0  0  0  0  0  0  0  0  0  0  0
   32.6999  110.4564   56.4661 H   0  0  0  0  0  0  0  0  0  0  0  0
   30.2874  110.1037   56.4432 H   0  0  0  0  0  0  0  0  0  0  0  0
   27.6590  110.1402   56.3735 H   0  0  0  0  0  0  0  0  0  0  0  0
   26.9259  108.7166   55.5595 H   0  0  0  0  0  0  0  0  0  0  0  0
   26.0651  110.2931   55.5595 H   0  0  0  0  0  0  0  0  0  0  0  0
   25.0327  108.2635   63.4127 H   0  0  0  0  0  0  0  0  0  0  0  0
   24.6154  109.9984   63.7583 H   0  0  0  0  0  0  0  0  0  0  0  0
   24.8800  111.5967   62.3537 H   0  0  0  0  0  0  0  0  0  0  0  0
   25.8406  111.3802   60.8514 H   0  0  0  0  0  0  0  0  0  0  0  0
   24.0804  111.0220   60.8514 H   0  0  0  0  0  0  0  0  0  0  0  0
   36.8567  110.2001   59.6695 H   0  0  0  0  0  0  0  0  0  0  0  0
   35.1013  106.6030   61.2444 H   0  0  0  0  0  0  0  0  0  0  0  0
   27.4579  109.3877   63.0852 H   0  0  0  0  0  0  0  0  0  0  0  0
   26.7458  110.5686   64.2503 H   0  0  0  0  0  0  0  0  0  0  0  0
   30.5817  107.8119   60.1314 H   0  0  0  0  0  0  0  0  0  0  0  0
   23.3637  108.4050   58.9071 H   0  0  0  0  0  0  0  0  0  0  0  0
   28.5408  108.1890   57.4215 H   0  0  0  0  0  0  0  0  0  0  0  0
   26.8606  107.6257   64.6190 H   0  0  0  0  0  0  0  0  0  0  0  0
   27.8758  108.8244   65.3558 H   0  0  0  0  0  0  0  0  0  0  0  0
   26.6356  108.6146   67.0797 H   0  0  0  0  0  0  0  0  0  0  0  0
   25.5137  109.6416   66.1240 H   0  0  0  0  0  0  0  0  0  0  0  0
   25.3173  107.8561   66.1240 H   0  0  0  0  0  0  0  0  0  0  0  0
   37.2231  106.0862   62.4114 H   0  0  0  0  0  0  0  0  0  0  0  0
   38.9701  109.6785   60.8563 H   0  0  0  0  0  0  0  0  0  0  0  0
   39.1448  107.6370   62.2526 H   0  0  0  0  0  0  0  0  0  0  0  0
  1 16  1  0
  1 18  2  0
  2  3  2  0
  2 16  1  0
  3 23  1  0
  4  8  2  0
  4  9  1  0
  4 18  1  0
  5 20  1  0
  6 10  1  0
  6 25  1  0
  7 25  1  0
  8 31  1  0
  9 30  2  0
 10 28  1  0
 11 12  2  0
 11 17  1  0
 11 22  1  0
 12 15  1  0
 12 20  1  0
 13 14  2  0
 13 16  1  0
 13 19  1  0
 14 18  1  0
 15 24  1  0
 15 26  2  0
 17 25  1  0
 17 27  2  0
 19 23  2  0
 20 21  1  0
 21 22  2  0
 23 24  1  0
 28 29  1  0
 30 32  1  0
 31 32  2  0
  1 33  1  0
  2 34  1  0
  3 35  1  0
  5 36  1  0
  5 37  1  0
  5 38  1  0
  6 39  1  0
  6 40  1  0
  7 41  1  0
  7 42  1  0
  7 43  1  0
  8 44  1  0
  9 45  1  0
 10 46  1  0
 10 47  1  0
 19 48  1  0
 22 49  1  0
 24 50  1  0
 28 51  1  0
 28 52  1  0
 29 53  1  0
 29 54  1  0
 29 55  1  0
 30 56  1  0
 31 57  1  0
 32 58  1  0
M  CHG  1  28   1
M  END
>  <filename_input>  (18) 
5SIS_JSM_docked.sdf

>  <pdb_id>  (18) 
5SIS_JSM

>  <pose_rank>  (18) 
17

>  <num_atoms_heavy>  (18) 
32

>  <num_torsions>  (18) 
7

>  <pose>  (18) 
[27.94868304899649, 109.43899373175276, 58.94865177647818, -0.15561009631278, -2.6542689623062685, 0.5580133052375903, 0.9547307255403445, -2.8441413548501586, 1.666247880917575, -7.0178273237313435, 2.9240353252339464, -1.4703553527345965, -2.892770970991517]

>  <energy>  (18) 
-529.2870000840527

>  <inter_energy>  (18) 
-545.3287124237535

>  <intra_energy>  (18) 
16.469290383255274

>  <rmsd>  (18) 
9.35959

>  <sdf_rank>  (18) 
0

$$$$

     RDKit          3D

 58 61  0  0  0  0  0  0  0  0999 V2000
   34.1094  102.5978   65.6162 C   0  0  0  0  0  0  0  0  0  0  0  0
   35.6073  104.4921   64.9384 C   0  0  0  0  0  0  0  0  0  0  0  0
   35.8490  105.4278   64.0091 C   0  0  0  0  0  0  0  0  0  0  0  0
   32.1918  100.9135   65.3860 C   0  0  0  0  0  0  0  0  0  0  0  0
   37.7715  109.0570   61.9817 C   0  0  0  0  0  0  0  0  0  0  0  0
   31.7699  108.7131   57.6169 C   0  0  0  0  0  0  0  0  0  0  0  0
   34.0970  109.2988   56.9720 C   0  0  0  0  0  0  0  0  0  0  0  0
   30.8711  100.7881   64.9688 C   0  0  0  0  0  0  0  0  0  0  0  0
   32.7908   99.8316   66.0209 C   0  0  0  0  0  0  0  0  0  0  0  0
   30.7358  109.4821   58.4215 C   0  0  0  0  0  0  0  0  0  0  0  0
   34.8087  109.3042   59.8787 C   0  0  0  0  0  0  0  0  0  0  0  0
   35.4361  108.7612   61.0071 C   0  0  0  0  0  0  0  0  0  0  0  0
   33.6804  103.6963   63.7239 C   0  0  0  0  0  0  0  0  0  0  0  0
   32.7338  102.7663   63.8188 N   0  0  0  0  0  0  0  0  0  0  0  0
   34.9454  107.8590   62.0492 C   0  0  0  0  0  0  0  0  0  0  0  0
   34.5398  103.6314   64.8138 N   0  0  0  0  0  0  0  0  0  0  0  0
   33.4296  109.0270   59.4232 C   0  0  0  0  0  0  0  0  0  0  0  0
   32.9935  102.0891   65.0071 C   0  0  0  0  0  0  0  0  0  0  0  0
   33.9152  104.6714   62.7255 C   0  0  0  0  0  0  0  0  0  0  0  0
   36.6934  109.2696   61.0234 N   0  0  0  0  0  0  0  0  0  0  0  0
   36.9179  110.1080   59.9683 N   0  0  0  0  0  0  0  0  0  0  0  0
   35.7884  110.1136   59.2842 C   0  0  0  0  0  0  0  0  0  0  0  0
   34.9709  105.5334   62.8602 C   0  0  0  0  0  0  0  0  0  0  0  0
   35.3507  106.5517   61.9683 N   0  0  0  0  0  0  0  0  0  0  0  0
   33.1386  109.0206   58.0340 N   0  0  0  0  0  0  0  0  0  0  0  0
   34.1926  108.2670   62.9287 O   0  0  0  0  0  0  0  0  0  0  0  0
   32.5458  108.7833   60.2411 O   0  0  0  0  0  0  0  0  0  0  0  0
   29.3971  109.4539   57.7317 N   0  0  0  0  0  0  0  0  0  0  0  0
   29.3819  109.7906   56.3038 C   0  0  0  0  0  0  0  0  0  0  0  0
   32.0610   98.6917   66.3085 C   0  0  0  0  0  0  0  0  0  0  0  0
   30.1477   99.6418   65.2559 C   0  0  0  0  0  0  0  0  0  0  0  0
   30.7447   98.5929   65.9229 C   0  0  0  0  0  0  0  0  0  0  0  0
   34.5682  102.2519   66.5542 H   0  0  0  0  0  0  0  0  0  0  0  0
   36.2707  104.4110   65.8120 H   0  0  0  0  0  0  0  0  0  0  0  0
   36.7057  106.1092   64.1173 H   0  0  0  0  0  0  0  0  0  0  0  0
   37.3738  109.1354   63.0043 H   0  0  0  0  0  0  0  0  0  0  0  0
   38.2032  108.0564   61.8318 H   0  0  0  0  0  0  0  0  0  0  0  0
   38.5508  109.8188   61.8318 H   0  0  0  0  0  0  0  0  0  0  0  0
   31.5928  107.6358   57.7509 H   0  0  0  0  0  0  0  0  0  0  0  0
   31.6646  109.0093   56.5628 H   0  0  0  0  0  0  0  0  0  0  0  0
   35.0639  109.5794   57.4150 H   0  0  0  0  0  0  0  0  0  0  0  0
   34.2255  108.4009   56.3497 H   0  0  0  0  0  0  0  0  0  0  0  0
   33.7248  110.1260   56.3497 H   0  0  0  0  0  0  0  0  0  0  0  0
   30.3968  101.6058   64.4062 H   0  0  0  0  0  0  0  0  0  0  0  0
   33.8543   99.8821   66.2972 H   0  0  0  0  0  0  0  0  0  0  0  0
   30.6390  109.0240   59.4169 H   0  0  0  0  0  0  0  0  0  0  0  0
   31.0648  110.5277   58.5132 H   0  0  0  0  0  0  0  0  0  0  0  0
   33.2548  104.7366   61.8481 H   0  0  0  0  0  0  0  0  0  0  0  0
   35.6339  110.6855   58.3573 H   0  0  0  0  0  0  0  0  0  0  0  0
   35.9815  106.2962   61.1952 H   0  0  0  0  0  0  0  0  0  0  0  0
   29.0149  108.5027   57.8317 H   0  0  0  0  0  0  0  0  0  0  0  0
   28.8426  110.1919   58.1887 H   0  0  0  0  0  0  0  0  0  0  0  0
   29.3327  110.8831   56.1852 H   0  0  0  0  0  0  0  0  0  0  0  0
   30.2981  109.4110   55.8278 H   0  0  0  0  0  0  0  0  0  0  0  0
   28.5036  109.3302   55.8278 H   0  0  0  0  0  0  0  0  0  0  0  0
   32.5365   97.8597   66.8486 H   0  0  0  0  0  0  0  0  0  0  0  0
   29.0934   99.5682   64.9508 H   0  0  0  0  0  0  0  0  0  0  0  0
   30.1707   97.6814   66.1455 H   0  0  0  0  0  0  0  0  0  0  0  0
  1 16  1  0
  1 18  2  0
  2  3  2  0
  2 16  1  0
  3 23  1  0
  4  8  2  0
  4  9  1  0
  4 18  1  0
  5 20  1  0
  6 10  1  0
  6 25  1  0
  7 25  1  0
  8 31  1  0
  9 30  2  0
 10 28  1  0
 11 12  2  0
 11 17  1  0
 11 22  1  0
 12 15  1  0
 12 20  1  0
 13 14  2  0
 13 16  1  0
 13 19  1  0
 14 18  1  0
 15 24  1  0
 15 26  2  0
 17 25  1  0
 17 27  2  0
 19 23  2  0
 20 21  1  0
 21 22  2  0
 23 24  1  0
 28 29  1  0
 30 32  1  0
 31 32  2  0
  1 33  1  0
  2 34  1  0
  3 35  1  0
  5 36  1  0
  5 37  1  0
  5 38  1  0
  6 39  1  0
  6 40  1  0
  7 41  1  0
  7 42  1  0
  7 43  1  0
  8 44  1  0
  9 45  1  0
 10 46  1  0
 10 47  1  0
 19 48  1  0
 22 49  1  0
 24 50  1  0
 28 51  1  0
 28 52  1  0
 29 53  1  0
 29 54  1  0
 29 55  1  0
 30 56  1  0
 31 57  1  0
 32 58  1  0
M  CHG  1  28   1
M  END
>  <filename_input>  (19) 
5SIS_JSM_docked.sdf

>  <pdb_id>  (19) 
5SIS_JSM

>  <pose_rank>  (19) 
18

>  <num_atoms_heavy>  (19) 
32

>  <num_torsions>  (19) 
7

>  <pose>  (19) 
[34.94535632298877, 107.85902803031223, 62.04918170554101, 1.3676380668623276, 1.8465505506292046, 0.5692195833815381, 1.3120336783794302, -0.7106194745459493, 1.1907380759254964, 1.3912161801490788, 2.1286677830233103, 3.9740634136097794, 3.6264188351859166]

>  <energy>  (19) 
-565.765400869548

>  <inter_energy>  (19) 
-626.0734051234031

>  <intra_energy>  (19) 
56.277174128187056

>  <rmsd>  (19) 
9.79718

>  <sdf_rank>  (19) 
0

$$$$

     RDKit          3D

 58 61  0  0  0  0  0  0  0  0999 V2000
   32.3400  108.1803   61.1570 C   0  0  0  0  0  0  0  0  0  0  0  0
   29.8567  108.5309   61.2011 C   0  0  0  0  0  0  0  0  0  0  0  0
   28.7992  109.0100   60.5306 C   0  0  0  0  0  0  0  0  0  0  0  0
   34.7247  108.3397   60.2324 C   0  0  0  0  0  0  0  0  0  0  0  0
   25.9388  112.1991   58.9408 C   0  0  0  0  0  0  0  0  0  0  0  0
   25.9721  109.1353   52.2136 C   0  0  0  0  0  0  0  0  0  0  0  0
   25.0431  111.3213   52.9432 C   0  0  0  0  0  0  0  0  0  0  0  0
   35.5453  109.2664   59.5986 C   0  0  0  0  0  0  0  0  0  0  0  0
   35.3150  107.3841   61.0515 C   0  0  0  0  0  0  0  0  0  0  0  0
   27.4779  108.9981   52.0667 C   0  0  0  0  0  0  0  0  0  0  0  0
   25.4695  110.4583   55.7768 C   0  0  0  0  0  0  0  0  0  0  0  0
   26.2736  110.7204   56.8933 C   0  0  0  0  0  0  0  0  0  0  0  0
   31.3486  109.1398   59.4054 C   0  0  0  0  0  0  0  0  0  0  0  0
   32.6418  109.0857   59.0977 N   0  0  0  0  0  0  0  0  0  0  0  0
   27.5800  110.1957   57.2918 C   0  0  0  0  0  0  0  0  0  0  0  0
   31.1212  108.5851   60.6588 N   0  0  0  0  0  0  0  0  0  0  0  0
   25.8058  109.5721   54.6421 C   0  0  0  0  0  0  0  0  0  0  0  0
   33.2591  108.4743   60.1854 C   0  0  0  0  0  0  0  0  0  0  0  0
   30.2508  109.6576   58.6777 C   0  0  0  0  0  0  0  0  0  0  0  0
   25.5833  111.6014   57.6593 N   0  0  0  0  0  0  0  0  0  0  0  0
   24.3798  111.9282   57.1016 N   0  0  0  0  0  0  0  0  0  0  0  0
   24.3259  111.2476   55.9712 C   0  0  0  0  0  0  0  0  0  0  0  0
   28.9932  109.5900   59.2160 C   0  0  0  0  0  0  0  0  0  0  0  0
   27.7994  110.0563   58.6379 N   0  0  0  0  0  0  0  0  0  0  0  0
   25.6006  110.0267   53.3132 N   0  0  0  0  0  0  0  0  0  0  0  0
   28.4295  109.9217   56.4493 O   0  0  0  0  0  0  0  0  0  0  0  0
   26.2792  108.4572   54.8478 O   0  0  0  0  0  0  0  0  0  0  0  0
   27.8201  108.1362   50.8798 N   0  0  0  0  0  0  0  0  0  0  0  0
   29.0188  107.2982   50.9950 C   0  0  0  0  0  0  0  0  0  0  0  0
   36.6921  107.3045   61.1611 C   0  0  0  0  0  0  0  0  0  0  0  0
   36.9234  109.1837   59.7166 C   0  0  0  0  0  0  0  0  0  0  0  0
   37.4955  108.2043   60.5008 C   0  0  0  0  0  0  0  0  0  0  0  0
   32.5350  107.7160   62.1349 H   0  0  0  0  0  0  0  0  0  0  0  0
   29.7122  108.0885   62.1978 H   0  0  0  0  0  0  0  0  0  0  0  0
   27.7935  108.9635   60.9737 H   0  0  0  0  0  0  0  0  0  0  0  0
   25.5622  111.5660   59.7577 H   0  0  0  0  0  0  0  0  0  0  0  0
   27.0331  112.2821   59.0158 H   0  0  0  0  0  0  0  0  0  0  0  0
   25.4892  113.2002   59.0158 H   0  0  0  0  0  0  0  0  0  0  0  0
   25.5605  109.5387   51.2766 H   0  0  0  0  0  0  0  0  0  0  0  0
   25.5633  108.1385   52.4355 H   0  0  0  0  0  0  0  0  0  0  0  0
   24.7986  111.8888   53.8533 H   0  0  0  0  0  0  0  0  0  0  0  0
   25.7797  111.8814   52.3486 H   0  0  0  0  0  0  0  0  0  0  0  0
   24.1299  111.1709   52.3486 H   0  0  0  0  0  0  0  0  0  0  0  0
   35.0966  110.0718   58.9986 H   0  0  0  0  0  0  0  0  0  0  0  0
   34.6818  106.6851   61.6176 H   0  0  0  0  0  0  0  0  0  0  0  0
   27.9197  109.9959   51.9280 H   0  0  0  0  0  0  0  0  0  0  0  0
   27.8806  108.5258   52.9749 H   0  0  0  0  0  0  0  0  0  0  0  0
   30.4063  110.1107   57.6875 H   0  0  0  0  0  0  0  0  0  0  0  0
   23.4837  111.2941   55.2651 H   0  0  0  0  0  0  0  0  0  0  0  0
   27.0311  110.3126   59.2743 H   0  0  0  0  0  0  0  0  0  0  0  0
   27.0191  107.5123   50.7064 H   0  0  0  0  0  0  0  0  0  0  0  0
   28.0253  108.7970   50.1168 H   0  0  0  0  0  0  0  0  0  0  0  0
   29.2516  107.1354   52.0576 H   0  0  0  0  0  0  0  0  0  0  0  0
   28.8371  106.3293   50.5068 H   0  0  0  0  0  0  0  0  0  0  0  0
   29.8663  107.8015   50.5068 H   0  0  0  0  0  0  0  0  0  0  0  0
   37.1468  106.5169   61.7799 H   0  0  0  0  0  0  0  0  0  0  0  0
   37.5633  109.9017   59.1828 H   0  0  0  0  0  0  0  0  0  0  0  0
   38.5895  108.1431   60.5978 H   0  0  0  0  0  0  0  0  0  0  0  0
  1 16  1  0
  1 18  2  0
  2  3  2  0
  2 16  1  0
  3 23  1  0
  4  8  2  0
  4  9  1  0
  4 18  1  0
  5 20  1  0
  6 10  1  0
  6 25  1  0
  7 25  1  0
  8 31  1  0
  9 30  2  0
 10 28  1  0
 11 12  2  0
 11 17  1  0
 11 22  1  0
 12 15  1  0
 12 20  1  0
 13 14  2  0
 13 16  1  0
 13 19  1  0
 14 18  1  0
 15 24  1  0
 15 26  2  0
 17 25  1  0
 17 27  2  0
 19 23  2  0
 20 21  1  0
 21 22  2  0
 23 24  1  0
 28 29  1  0
 30 32  1  0
 31 32  2  0
  1 33  1  0
  2 34  1  0
  3 35  1  0
  5 36  1  0
  5 37  1  0
  5 38  1  0
  6 39  1  0
  6 40  1  0
  7 41  1  0
  7 42  1  0
  7 43  1  0
  8 44  1  0
  9 45  1  0
 10 46  1  0
 10 47  1  0
 19 48  1  0
 22 49  1  0
 24 50  1  0
 28 51  1  0
 28 52  1  0
 29 53  1  0
 29 54  1  0
 29 55  1  0
 30 56  1  0
 31 57  1  0
 32 58  1  0
M  CHG  1  28   1
M  END
>  <filename_input>  (20) 
5SIS_JSM_docked.sdf

>  <pdb_id>  (20) 
5SIS_JSM

>  <pose_rank>  (20) 
19

>  <num_atoms_heavy>  (20) 
32

>  <num_torsions>  (20) 
7

>  <pose>  (20) 
[27.57996950145203, 110.19571222033633, 57.29175115402293, 1.722075480872109, 0.2181290676116876, -2.9562662816205374, 0.1419197061111416, 0.30432629799790384, 3.1053294420793276, 1.6337219329470156, 0.06857032405921484, -1.973069350164802, 1.9232222525271567]

>  <energy>  (20) 
-506.5344830402119

>  <inter_energy>  (20) 
-577.534972456158

>  <intra_energy>  (20) 
70.5295601579649

>  <rmsd>  (20) 
10.3577

>  <sdf_rank>  (20) 
0

$$$$

     RDKit          3D

 58 61  0  0  0  0  0  0  0  0999 V2000
   31.8733  106.4749   62.2241 C   0  0  0  0  0  0  0  0  0  0  0  0
   29.3962  106.6821   62.5599 C   0  0  0  0  0  0  0  0  0  0  0  0
   28.2621  107.2227   62.0922 C   0  0  0  0  0  0  0  0  0  0  0  0
   34.1480  106.9273   61.1340 C   0  0  0  0  0  0  0  0  0  0  0  0
   24.5473  109.4391   61.8865 C   0  0  0  0  0  0  0  0  0  0  0  0
   26.1289  110.3668   54.8424 C   0  0  0  0  0  0  0  0  0  0  0  0
   24.9265  108.6388   56.1624 C   0  0  0  0  0  0  0  0  0  0  0  0
   34.8699  105.9411   61.7974 C   0  0  0  0  0  0  0  0  0  0  0  0
   34.8182  107.7423   60.2290 C   0  0  0  0  0  0  0  0  0  0  0  0
   27.2329  109.4059   54.4352 C   0  0  0  0  0  0  0  0  0  0  0  0
   24.8158  110.5788   58.4383 C   0  0  0  0  0  0  0  0  0  0  0  0
   25.4415  110.0846   59.5898 C   0  0  0  0  0  0  0  0  0  0  0  0
   30.6815  107.6921   60.7854 C   0  0  0  0  0  0  0  0  0  0  0  0
   31.9390  107.7634   60.3567 N   0  0  0  0  0  0  0  0  0  0  0  0
   26.8343  109.7257   59.8582 C   0  0  0  0  0  0  0  0  0  0  0  0
   30.5983  106.9020   61.9253 N   0  0  0  0  0  0  0  0  0  0  0  0
   25.4759  110.9252   57.1614 C   0  0  0  0  0  0  0  0  0  0  0  0
   32.6813  106.9924   61.2470 C   0  0  0  0  0  0  0  0  0  0  0  0
   29.5003  108.2792   60.2729 C   0  0  0  0  0  0  0  0  0  0  0  0
   24.4639  109.9348   60.5179 N   0  0  0  0  0  0  0  0  0  0  0  0
   23.2413  110.3070   60.0351 N   0  0  0  0  0  0  0  0  0  0  0  0
   23.4642  110.7004   58.7944 C   0  0  0  0  0  0  0  0  0  0  0  0
   28.3053  108.0473   60.9005 C   0  0  0  0  0  0  0  0  0  0  0  0
   27.0451  108.5510   60.5330 N   0  0  0  0  0  0  0  0  0  0  0  0
   25.4933  109.9800   56.1026 N   0  0  0  0  0  0  0  0  0  0  0  0
   27.7508  110.4634   59.5083 O   0  0  0  0  0  0  0  0  0  0  0  0
   25.9880  112.0318   57.0106 O   0  0  0  0  0  0  0  0  0  0  0  0
   27.3123  109.2922   52.9353 N   0  0  0  0  0  0  0  0  0  0  0  0
   28.6295  108.9902   52.3641 C   0  0  0  0  0  0  0  0  0  0  0  0
   36.1871  107.6306   60.0607 C   0  0  0  0  0  0  0  0  0  0  0  0
   36.2398  105.8318   61.6205 C   0  0  0  0  0  0  0  0  0  0  0  0
   36.8968  106.6750   60.7493 C   0  0  0  0  0  0  0  0  0  0  0  0
   32.1797  105.8469   63.0736 H   0  0  0  0  0  0  0  0  0  0  0  0
   29.3661  106.0545   63.4628 H   0  0  0  0  0  0  0  0  0  0  0  0
   27.3074  107.0423   62.6079 H   0  0  0  0  0  0  0  0  0  0  0  0
   24.4067  110.2744   62.5883 H   0  0  0  0  0  0  0  0  0  0  0  0
   23.7633  108.6854   62.0519 H   0  0  0  0  0  0  0  0  0  0  0  0
   25.5347  108.9834   62.0519 H   0  0  0  0  0  0  0  0  0  0  0  0
   26.5598  111.3723   54.9575 H   0  0  0  0  0  0  0  0  0  0  0  0
   25.3589  110.3473   54.0571 H   0  0  0  0  0  0  0  0  0  0  0  0
   24.8005  108.3405   57.2137 H   0  0  0  0  0  0  0  0  0  0  0  0
   23.9484  108.6313   55.6593 H   0  0  0  0  0  0  0  0  0  0  0  0
   25.6030  107.9321   55.6593 H   0  0  0  0  0  0  0  0  0  0  0  0
   34.3491  105.2419   62.4682 H   0  0  0  0  0  0  0  0  0  0  0  0
   34.2553  108.4826   59.6414 H   0  0  0  0  0  0  0  0  0  0  0  0
   28.1943  109.7760   54.8208 H   0  0  0  0  0  0  0  0  0  0  0  0
   27.0106  108.4134   54.8541 H   0  0  0  0  0  0  0  0  0  0  0  0
   29.5416  108.9168   59.3774 H   0  0  0  0  0  0  0  0  0  0  0  0
   22.6823  111.0789   58.1196 H   0  0  0  0  0  0  0  0  0  0  0  0
   26.2171  107.9950   60.7904 H   0  0  0  0  0  0  0  0  0  0  0  0
   26.6675  108.5433   52.6449 H   0  0  0  0  0  0  0  0  0  0  0  0
   27.0729  110.2291   52.5807 H   0  0  0  0  0  0  0  0  0  0  0  0
   29.3522  108.8245   53.1766 H   0  0  0  0  0  0  0  0  0  0  0  0
   28.5611  108.0844   51.7437 H   0  0  0  0  0  0  0  0  0  0  0  0
   28.9626  109.8353   51.7437 H   0  0  0  0  0  0  0  0  0  0  0  0
   36.7106  108.3102   59.3722 H   0  0  0  0  0  0  0  0  0  0  0  0
   36.8053  105.0698   62.1769 H   0  0  0  0  0  0  0  0  0  0  0  0
   37.9835  106.5837   60.6058 H   0  0  0  0  0  0  0  0  0  0  0  0
  1 16  1  0
  1 18  2  0
  2  3  2  0
  2 16  1  0
  3 23  1  0
  4  8  2  0
  4  9  1  0
  4 18  1  0
  5 20  1  0
  6 10  1  0
  6 25  1  0
  7 25  1  0
  8 31  1  0
  9 30  2  0
 10 28  1  0
 11 12  2  0
 11 17  1  0
 11 22  1  0
 12 15  1  0
 12 20  1  0
 13 14  2  0
 13 16  1  0
 13 19  1  0
 14 18  1  0
 15 24  1  0
 15 26  2  0
 17 25  1  0
 17 27  2  0
 19 23  2  0
 20 21  1  0
 21 22  2  0
 23 24  1  0
 28 29  1  0
 30 32  1  0
 31 32  2  0
  1 33  1  0
  2 34  1  0
  3 35  1  0
  5 36  1  0
  5 37  1  0
  5 38  1  0
  6 39  1  0
  6 40  1  0
  7 41  1  0
  7 42  1  0
  7 43  1  0
  8 44  1  0
  9 45  1  0
 10 46  1  0
 10 47  1  0
 19 48  1  0
 22 49  1  0
 24 50  1  0
 28 51  1  0
 28 52  1  0
 29 53  1  0
 29 54  1  0
 29 55  1  0
 30 56  1  0
 31 57  1  0
 32 58  1  0
M  CHG  1  28   1
M  END
>  <filename_input>  (21) 
5SIS_JSM_docked.sdf

>  <pdb_id>  (21) 
5SIS_JSM

>  <pose_rank>  (21) 
20

>  <num_atoms_heavy>  (21) 
32

>  <num_torsions>  (21) 
7

>  <pose>  (21) 
[26.83429769999828, 109.72572613168232, 59.85823455947801, -1.2385273197198048, -1.5597384248513992, 1.861882747302061, -0.786111307993697, -3.085508875415037, -2.987449530250675, -0.6446582617760119, 3.470941805277273, -2.603109751993008, 0.822245959327983]

>  <energy>  (21) 
-487.9865347685299

>  <inter_energy>  (21) 
-526.4003642056679

>  <intra_energy>  (21) 
33.78636843900273

>  <rmsd>  (21) 
10.3445

>  <sdf_rank>  (21) 
0

$$$$

     RDKit          3D

 58 61  0  0  0  0  0  0  0  0999 V2000
   35.0057  109.4857   59.6485 C   0  0  0  0  0  0  0  0  0  0  0  0
   33.4200  110.5961   58.0534 C   0  0  0  0  0  0  0  0  0  0  0  0
   32.2632  110.4758   57.3866 C   0  0  0  0  0  0  0  0  0  0  0  0
   35.9186  107.6126   61.1402 C   0  0  0  0  0  0  0  0  0  0  0  0
   29.3727  109.0001   54.2528 C   0  0  0  0  0  0  0  0  0  0  0  0
   24.8609  112.0035   59.1336 C   0  0  0  0  0  0  0  0  0  0  0  0
   25.8560  112.7642   56.9876 C   0  0  0  0  0  0  0  0  0  0  0  0
   36.4676  108.2742   62.2333 C   0  0  0  0  0  0  0  0  0  0  0  0
   36.1996  106.2612   60.9751 C   0  0  0  0  0  0  0  0  0  0  0  0
   25.8089  112.4558   60.2310 C   0  0  0  0  0  0  0  0  0  0  0  0
   26.5973  109.9203   56.4235 C   0  0  0  0  0  0  0  0  0  0  0  0
   27.9686  109.6826   56.2662 C   0  0  0  0  0  0  0  0  0  0  0  0
   33.1340  108.4241   59.0641 C   0  0  0  0  0  0  0  0  0  0  0  0
   33.7602  107.6058   59.9059 N   0  0  0  0  0  0  0  0  0  0  0  0
   29.0846  109.7867   57.2066 C   0  0  0  0  0  0  0  0  0  0  0  0
   33.8628  109.5937   58.8872 N   0  0  0  0  0  0  0  0  0  0  0  0
   25.9115  110.3043   57.6758 C   0  0  0  0  0  0  0  0  0  0  0  0
   34.9222  108.2742   60.2814 C   0  0  0  0  0  0  0  0  0  0  0  0
   31.9115  108.2686   58.3685 C   0  0  0  0  0  0  0  0  0  0  0  0
   28.1469  109.3358   54.9672 N   0  0  0  0  0  0  0  0  0  0  0  0
   26.9693  109.3316   54.2746 N   0  0  0  0  0  0  0  0  0  0  0  0
   26.0475  109.6721   55.1567 C   0  0  0  0  0  0  0  0  0  0  0  0
   31.4692  109.2738   57.5500 C   0  0  0  0  0  0  0  0  0  0  0  0
   30.2892  109.2848   56.7857 N   0  0  0  0  0  0  0  0  0  0  0  0
   25.5655  111.6631   57.8969 N   0  0  0  0  0  0  0  0  0  0  0  0
   28.9241  110.2812   58.3185 O   0  0  0  0  0  0  0  0  0  0  0  0
   25.6245  109.4497   58.5105 O   0  0  0  0  0  0  0  0  0  0  0  0
   25.2236  112.1721   61.5896 N   0  0  0  0  0  0  0  0  0  0  0  0
   23.9922  112.8879   61.9415 C   0  0  0  0  0  0  0  0  0  0  0  0
   37.0755  105.6147   61.8291 C   0  0  0  0  0  0  0  0  0  0  0  0
   37.3403  107.6193   63.0874 C   0  0  0  0  0  0  0  0  0  0  0  0
   37.6408  106.2886   62.8862 C   0  0  0  0  0  0  0  0  0  0  0  0
   35.8189  110.2218   59.7311 H   0  0  0  0  0  0  0  0  0  0  0  0
   34.0235  111.5078   57.9328 H   0  0  0  0  0  0  0  0  0  0  0  0
   31.9195  111.2817   56.7216 H   0  0  0  0  0  0  0  0  0  0  0  0
   30.1711  108.7814   54.9773 H   0  0  0  0  0  0  0  0  0  0  0  0
   29.1987  108.1165   53.6211 H   0  0  0  0  0  0  0  0  0  0  0  0
   29.6732  109.8490   53.6211 H   0  0  0  0  0  0  0  0  0  0  0  0
   24.3119  111.1169   59.4835 H   0  0  0  0  0  0  0  0  0  0  0  0
   24.1783  112.8376   58.9135 H   0  0  0  0  0  0  0  0  0  0  0  0
   26.0941  113.6670   57.5692 H   0  0  0  0  0  0  0  0  0  0  0  0
   26.7150  112.4993   56.3536 H   0  0  0  0  0  0  0  0  0  0  0  0
   24.9781  112.9575   56.3536 H   0  0  0  0  0  0  0  0  0  0  0  0
   36.2069  109.3261   62.4215 H   0  0  0  0  0  0  0  0  0  0  0  0
   35.7213  105.7008   60.1582 H   0  0  0  0  0  0  0  0  0  0  0  0
   26.7627  111.9175   60.1290 H   0  0  0  0  0  0  0  0  0  0  0  0
   25.9706  113.5396   60.1347 H   0  0  0  0  0  0  0  0  0  0  0  0
   31.3211  107.3477   58.4842 H   0  0  0  0  0  0  0  0  0  0  0  0
   24.9750  109.7518   54.9256 H   0  0  0  0  0  0  0  0  0  0  0  0
   30.3329  108.8854   55.8373 H   0  0  0  0  0  0  0  0  0  0  0  0
   25.0222  111.1631   61.6376 H   0  0  0  0  0  0  0  0  0  0  0  0
   25.9298  112.5035   62.2621 H   0  0  0  0  0  0  0  0  0  0  0  0
   23.8995  112.9417   63.0363 H   0  0  0  0  0  0  0  0  0  0  0  0
   24.0283  113.9057   61.5260 H   0  0  0  0  0  0  0  0  0  0  0  0
   23.1256  112.3528   61.5260 H   0  0  0  0  0  0  0  0  0  0  0  0
   37.3211  104.5557   61.6616 H   0  0  0  0  0  0  0  0  0  0  0  0
   37.7949  108.1627   63.9288 H   0  0  0  0  0  0  0  0  0  0  0  0
   38.3297  105.7685   63.5681 H   0  0  0  0  0  0  0  0  0  0  0  0
  1 16  1  0
  1 18  2  0
  2  3  2  0
  2 16  1  0
  3 23  1  0
  4  8  2  0
  4  9  1  0
  4 18  1  0
  5 20  1  0
  6 10  1  0
  6 25  1  0
  7 25  1  0
  8 31  1  0
  9 30  2  0
 10 28  1  0
 11 12  2  0
 11 17  1  0
 11 22  1  0
 12 15  1  0
 12 20  1  0
 13 14  2  0
 13 16  1  0
 13 19  1  0
 14 18  1  0
 15 24  1  0
 15 26  2  0
 17 25  1  0
 17 27  2  0
 19 23  2  0
 20 21  1  0
 21 22  2  0
 23 24  1  0
 28 29  1  0
 30 32  1  0
 31 32  2  0
  1 33  1  0
  2 34  1  0
  3 35  1  0
  5 36  1  0
  5 37  1  0
  5 38  1  0
  6 39  1  0
  6 40  1  0
  7 41  1  0
  7 42  1  0
  7 43  1  0
  8 44  1  0
  9 45  1  0
 10 46  1  0
 10 47  1  0
 19 48  1  0
 22 49  1  0
 24 50  1  0
 28 51  1  0
 28 52  1  0
 29 53  1  0
 29 54  1  0
 29 55  1  0
 30 56  1  0
 31 57  1  0
 32 58  1  0
M  CHG  1  28   1
M  END
>  <filename_input>  (22) 
5SIS_JSM_docked.sdf

>  <pdb_id>  (22) 
5SIS_JSM

>  <pose_rank>  (22) 
21

>  <num_atoms_heavy>  (22) 
32

>  <num_torsions>  (22) 
7

>  <pose>  (22) 
[29.084644985570964, 109.78665623208583, 57.20662697435544, -0.25522922048987146, -3.129756860407926, 0.20132232339259376, 1.2980939401722262, -2.537784107945023, 2.3551338109680597, -6.861725136781539, 2.9666192794653248, -1.5573839875586108, -2.9262869959417874]

>  <energy>  (22) 
-638.7493069992496

>  <inter_energy>  (22) 
-667.6484030628217

>  <intra_energy>  (22) 
39.80806950796645

>  <rmsd>  (22) 
9.93636

>  <sdf_rank>  (22) 
0

$$$$

     RDKit          3D

 58 61  0  0  0  0  0  0  0  0999 V2000
   33.8706  109.7013   57.8286 C   0  0  0  0  0  0  0  0  0  0  0  0
   31.6023  110.0781   56.8264 C   0  0  0  0  0  0  0  0  0  0  0  0
   30.2805  109.9526   57.0125 C   0  0  0  0  0  0  0  0  0  0  0  0
   35.5727  108.9029   59.5700 C   0  0  0  0  0  0  0  0  0  0  0  0
   25.3747  109.5321   55.0605 C   0  0  0  0  0  0  0  0  0  0  0  0
   26.5574  107.7376   62.0317 C   0  0  0  0  0  0  0  0  0  0  0  0
   25.3715  106.6102   60.1617 C   0  0  0  0  0  0  0  0  0  0  0  0
   36.5093  109.9174   59.7359 C   0  0  0  0  0  0  0  0  0  0  0  0
   35.8730  107.6381   60.0623 C   0  0  0  0  0  0  0  0  0  0  0  0
   27.9011  107.0294   62.0047 C   0  0  0  0  0  0  0  0  0  0  0  0
   25.4003  109.2148   58.6882 C   0  0  0  0  0  0  0  0  0  0  0  0
   26.1159  109.3281   57.4895 C   0  0  0  0  0  0  0  0  0  0  0  0
   32.0594  109.1438   59.0033 C   0  0  0  0  0  0  0  0  0  0  0  0
   33.0959  108.8369   59.7790 N   0  0  0  0  0  0  0  0  0  0  0  0
   27.5519  109.4111   57.2219 C   0  0  0  0  0  0  0  0  0  0  0  0
   32.4935  109.6860   57.8000 N   0  0  0  0  0  0  0  0  0  0  0  0
   25.9752  109.0901   60.0447 C   0  0  0  0  0  0  0  0  0  0  0  0
   34.2265  109.1975   59.0511 C   0  0  0  0  0  0  0  0  0  0  0  0
   30.6694  108.9954   59.2243 C   0  0  0  0  0  0  0  0  0  0  0  0
   25.1905  109.3916   56.5000 N   0  0  0  0  0  0  0  0  0  0  0  0
   23.9165  109.3223   56.9883 N   0  0  0  0  0  0  0  0  0  0  0  0
   24.0530  109.2061   58.2966 C   0  0  0  0  0  0  0  0  0  0  0  0
   29.7866  109.3985   58.2579 C   0  0  0  0  0  0  0  0  0  0  0  0
   28.3837  109.3205   58.3081 N   0  0  0  0  0  0  0  0  0  0  0  0
   25.9530  107.8323   60.7022 N   0  0  0  0  0  0  0  0  0  0  0  0
   27.9686  109.5756   56.0792 O   0  0  0  0  0  0  0  0  0  0  0  0
   26.4874  110.0641   60.5909 O   0  0  0  0  0  0  0  0  0  0  0  0
   27.9188  105.8852   62.9841 N   0  0  0  0  0  0  0  0  0  0  0  0
   29.1282  105.7324   63.8004 C   0  0  0  0  0  0  0  0  0  0  0  0
   37.1103  107.3766   60.6239 C   0  0  0  0  0  0  0  0  0  0  0  0
   37.7446  109.6495   60.3035 C   0  0  0  0  0  0  0  0  0  0  0  0
   38.0426  108.3794   60.7502 C   0  0  0  0  0  0  0  0  0  0  0  0
   34.5460  110.0474   57.0323 H   0  0  0  0  0  0  0  0  0  0  0  0
   31.9798  110.5000   55.8833 H   0  0  0  0  0  0  0  0  0  0  0  0
   29.5772  110.2672   56.2274 H   0  0  0  0  0  0  0  0  0  0  0  0
   26.2349  110.1887   54.8633 H   0  0  0  0  0  0  0  0  0  0  0  0
   25.5589  108.5429   54.6161 H   0  0  0  0  0  0  0  0  0  0  0  0
   24.4691  109.9708   54.6161 H   0  0  0  0  0  0  0  0  0  0  0  0
   25.8764  107.1795   62.6910 H   0  0  0  0  0  0  0  0  0  0  0  0
   26.7235  108.7609   62.3996 H   0  0  0  0  0  0  0  0  0  0  0  0
   25.0600  105.9554   60.9888 H   0  0  0  0  0  0  0  0  0  0  0  0
   24.4969  106.8623   59.5441 H   0  0  0  0  0  0  0  0  0  0  0  0
   26.1189  106.0905   59.5441 H   0  0  0  0  0  0  0  0  0  0  0  0
   36.2675  110.9410   59.4138 H   0  0  0  0  0  0  0  0  0  0  0  0
   35.1203  106.8379   60.0050 H   0  0  0  0  0  0  0  0  0  0  0  0
   28.0844  106.6409   60.9920 H   0  0  0  0  0  0  0  0  0  0  0  0
   28.6855  107.7476   62.2853 H   0  0  0  0  0  0  0  0  0  0  0  0
   30.3010  108.5597   60.1647 H   0  0  0  0  0  0  0  0  0  0  0  0
   23.2098  109.1134   58.9969 H   0  0  0  0  0  0  0  0  0  0  0  0
   27.9475  109.1851   59.2313 H   0  0  0  0  0  0  0  0  0  0  0  0
   27.1234  106.0121   63.6261 H   0  0  0  0  0  0  0  0  0  0  0  0
   27.8746  105.0342   62.4055 H   0  0  0  0  0  0  0  0  0  0  0  0
   28.8580  105.7665   64.8662 H   0  0  0  0  0  0  0  0  0  0  0  0
   29.6042  104.7670   63.5736 H   0  0  0  0  0  0  0  0  0  0  0  0
   29.8293  106.5491   63.5736 H   0  0  0  0  0  0  0  0  0  0  0  0
   37.3494  106.3607   60.9713 H   0  0  0  0  0  0  0  0  0  0  0  0
   38.4901  110.4528   60.3981 H   0  0  0  0  0  0  0  0  0  0  0  0
   39.0217  108.1695   61.2055 H   0  0  0  0  0  0  0  0  0  0  0  0
  1 16  1  0
  1 18  2  0
  2  3  2  0
  2 16  1  0
  3 23  1  0
  4  8  2  0
  4  9  1  0
  4 18  1  0
  5 20  1  0
  6 10  1  0
  6 25  1  0
  7 25  1  0
  8 31  1  0
  9 30  2  0
 10 28  1  0
 11 12  2  0
 11 17  1  0
 11 22  1  0
 12 15  1  0
 12 20  1  0
 13 14  2  0
 13 16  1  0
 13 19  1  0
 14 18  1  0
 15 24  1  0
 15 26  2  0
 17 25  1  0
 17 27  2  0
 19 23  2  0
 20 21  1  0
 21 22  2  0
 23 24  1  0
 28 29  1  0
 30 32  1  0
 31 32  2  0
  1 33  1  0
  2 34  1  0
  3 35  1  0
  5 36  1  0
  5 37  1  0
  5 38  1  0
  6 39  1  0
  6 40  1  0
  7 41  1  0
  7 42  1  0
  7 43  1  0
  8 44  1  0
  9 45  1  0
 10 46  1  0
 10 47  1  0
 19 48  1  0
 22 49  1  0
 24 50  1  0
 28 51  1  0
 28 52  1  0
 29 53  1  0
 29 54  1  0
 29 55  1  0
 30 56  1  0
 31 57  1  0
 32 58  1  0
M  CHG  1  28   1
M  END
>  <filename_input>  (23) 
5SIS_JSM_docked.sdf

>  <pdb_id>  (23) 
5SIS_JSM

>  <pose_rank>  (23) 
22

>  <num_atoms_heavy>  (23) 
32

>  <num_torsions>  (23) 
7

>  <pose>  (23) 
[27.55191724593029, 109.4110726006686, 57.221928463414024, -0.8192196486686553, -0.6189478084844438, 2.96209093325926, 3.135857216539215, -2.3706934529621972, -0.574374821066836, 2.1176733180554304, -0.5196806840329412, -1.088423465858072, -4.194162991981065]

>  <energy>  (23) 
-495.8287811280036

>  <inter_energy>  (23) 
-570.6387448922029

>  <intra_energy>  (23) 
79.68759652800983

>  <rmsd>  (23) 
8.96921

>  <sdf_rank>  (23) 
0

$$$$

     RDKit          3D

 58 61  0  0  0  0  0  0  0  0999 V2000
   31.2992  109.3534   59.7799 C   0  0  0  0  0  0  0  0  0  0  0  0
   28.7932  109.3519   59.6721 C   0  0  0  0  0  0  0  0  0  0  0  0
   27.7211  109.7006   58.9465 C   0  0  0  0  0  0  0  0  0  0  0  0
   33.6888  109.8749   59.0154 C   0  0  0  0  0  0  0  0  0  0  0  0
   23.1921  109.8756   57.6980 C   0  0  0  0  0  0  0  0  0  0  0  0
   27.0987  110.1435   51.7174 C   0  0  0  0  0  0  0  0  0  0  0  0
   25.9421  108.5248   53.2061 C   0  0  0  0  0  0  0  0  0  0  0  0
   34.3840  111.0235   58.6526 C   0  0  0  0  0  0  0  0  0  0  0  0
   34.3806  108.8613   59.6684 C   0  0  0  0  0  0  0  0  0  0  0  0
   26.9031  109.1881   50.5525 C   0  0  0  0  0  0  0  0  0  0  0  0
   24.4719  110.8289   54.4246 C   0  0  0  0  0  0  0  0  0  0  0  0
   24.7138  110.3019   55.6996 C   0  0  0  0  0  0  0  0  0  0  0  0
   30.2897  110.2226   57.9919 C   0  0  0  0  0  0  0  0  0  0  0  0
   31.5938  110.3599   57.7671 N   0  0  0  0  0  0  0  0  0  0  0  0
   25.9306  109.7700   56.3138 C   0  0  0  0  0  0  0  0  0  0  0  0
   30.0678  109.6002   59.2141 N   0  0  0  0  0  0  0  0  0  0  0  0
   25.4722  111.0317   53.3549 C   0  0  0  0  0  0  0  0  0  0  0  0
   32.2245  109.8050   58.8772 C   0  0  0  0  0  0  0  0  0  0  0  0
   29.1758  110.6058   57.2076 C   0  0  0  0  0  0  0  0  0  0  0  0
   23.5241  110.3224   56.3505 N   0  0  0  0  0  0  0  0  0  0  0  0
   22.5259  110.8360   55.5719 N   0  0  0  0  0  0  0  0  0  0  0  0
   23.1050  111.1455   54.4262 C   0  0  0  0  0  0  0  0  0  0  0  0
   27.9102  110.3454   57.6618 C   0  0  0  0  0  0  0  0  0  0  0  0
   26.6996  110.6592   57.0194 N   0  0  0  0  0  0  0  0  0  0  0  0
   26.1365  109.9093   52.7949 N   0  0  0  0  0  0  0  0  0  0  0  0
   26.2401  108.5905   56.1738 O   0  0  0  0  0  0  0  0  0  0  0  0
   25.7118  112.1627   52.9391 O   0  0  0  0  0  0  0  0  0  0  0  0
   28.1428  108.3627   50.3279 N   0  0  0  0  0  0  0  0  0  0  0  0
   29.2755  108.6132   51.2261 C   0  0  0  0  0  0  0  0  0  0  0  0
   35.7459  108.9584   59.8717 C   0  0  0  0  0  0  0  0  0  0  0  0
   35.7503  111.1159   58.8636 C   0  0  0  0  0  0  0  0  0  0  0  0
   36.4295  110.0840   59.4762 C   0  0  0  0  0  0  0  0  0  0  0  0
   31.4984  108.8886   60.7568 H   0  0  0  0  0  0  0  0  0  0  0  0
   28.6527  108.8608   60.6463 H   0  0  0  0  0  0  0  0  0  0  0  0
   26.7072  109.4993   59.3226 H   0  0  0  0  0  0  0  0  0  0  0  0
   23.6802  110.5326   58.4329 H   0  0  0  0  0  0  0  0  0  0  0  0
   22.1018  109.9141   57.8389 H   0  0  0  0  0  0  0  0  0  0  0  0
   23.5437  108.8428   57.8389 H   0  0  0  0  0  0  0  0  0  0  0  0
   28.1154  110.0118   52.1161 H   0  0  0  0  0  0  0  0  0  0  0  0
   26.9433  111.1663   51.3437 H   0  0  0  0  0  0  0  0  0  0  0  0
   25.9338  108.4662   54.3045 H   0  0  0  0  0  0  0  0  0  0  0  0
   24.9834  108.1564   52.8121 H   0  0  0  0  0  0  0  0  0  0  0  0
   26.7622  107.9067   52.8121 H   0  0  0  0  0  0  0  0  0  0  0  0
   33.8446  111.8656   58.1944 H   0  0  0  0  0  0  0  0  0  0  0  0
   33.8378  107.9742   60.0267 H   0  0  0  0  0  0  0  0  0  0  0  0
   26.0583  108.5188   50.7722 H   0  0  0  0  0  0  0  0  0  0  0  0
   26.6989  109.7744   49.6444 H   0  0  0  0  0  0  0  0  0  0  0  0
   29.3252  111.1088   56.2409 H   0  0  0  0  0  0  0  0  0  0  0  0
   22.5778  111.5983   53.5734 H   0  0  0  0  0  0  0  0  0  0  0  0
   26.3649  111.6312   57.0837 H   0  0  0  0  0  0  0  0  0  0  0  0
   27.8797  107.3718   50.4270 H   0  0  0  0  0  0  0  0  0  0  0  0
   28.4778  108.6284   49.3909 H   0  0  0  0  0  0  0  0  0  0  0  0
   28.9387  108.5387   52.2706 H   0  0  0  0  0  0  0  0  0  0  0  0
   30.0625  107.8674   51.0406 H   0  0  0  0  0  0  0  0  0  0  0  0
   29.6746  109.6213   51.0406 H   0  0  0  0  0  0  0  0  0  0  0  0
   36.2874  108.1303   60.3524 H   0  0  0  0  0  0  0  0  0  0  0  0
   36.2951  112.0155   58.5412 H   0  0  0  0  0  0  0  0  0  0  0  0
   37.5133  110.1610   59.6479 H   0  0  0  0  0  0  0  0  0  0  0  0
  1 16  1  0
  1 18  2  0
  2  3  2  0
  2 16  1  0
  3 23  1  0
  4  8  2  0
  4  9  1  0
  4 18  1  0
  5 20  1  0
  6 10  1  0
  6 25  1  0
  7 25  1  0
  8 31  1  0
  9 30  2  0
 10 28  1  0
 11 12  2  0
 11 17  1  0
 11 22  1  0
 12 15  1  0
 12 20  1  0
 13 14  2  0
 13 16  1  0
 13 19  1  0
 14 18  1  0
 15 24  1  0
 15 26  2  0
 17 25  1  0
 17 27  2  0
 19 23  2  0
 20 21  1  0
 21 22  2  0
 23 24  1  0
 28 29  1  0
 30 32  1  0
 31 32  2  0
  1 33  1  0
  2 34  1  0
  3 35  1  0
  5 36  1  0
  5 37  1  0
  5 38  1  0
  6 39  1  0
  6 40  1  0
  7 41  1  0
  7 42  1  0
  7 43  1  0
  8 44  1  0
  9 45  1  0
 10 46  1  0
 10 47  1  0
 19 48  1  0
 22 49  1  0
 24 50  1  0
 28 51  1  0
 28 52  1  0
 29 53  1  0
 29 54  1  0
 29 55  1  0
 30 56  1  0
 31 57  1  0
 32 58  1  0
M  CHG  1  28   1
M  END
>  <filename_input>  (24) 
5SIS_JSM_docked.sdf

>  <pdb_id>  (24) 
5SIS_JSM

>  <pose_rank>  (24) 
23

>  <num_atoms_heavy>  (24) 
32

>  <num_torsions>  (24) 
7

>  <pose>  (24) 
[25.930608417572632, 109.77002127342753, 56.31378811196659, 1.2050440424919708, -1.6507714802043498, -2.5141114700759646, 1.4552396492467157, 0.48660506625824385, 0.9895796718569232, -7.504518144838447, -1.0141879213840281, -0.9762181619741997, -1.8104260531215965]

>  <energy>  (24) 
-534.2991817644986

>  <inter_energy>  (24) 
-556.2509696631083

>  <intra_energy>  (24) 
28.298042487763666

>  <rmsd>  (24) 
10.6931

>  <sdf_rank>  (24) 
0

$$$$

     RDKit          3D

 58 61  0  0  0  0  0  0  0  0999 V2000
   27.7411  107.3096   61.7239 C   0  0  0  0  0  0  0  0  0  0  0  0
   29.9750  106.2101   62.0272 C   0  0  0  0  0  0  0  0  0  0  0  0
   31.2818  106.2701   61.7337 C   0  0  0  0  0  0  0  0  0  0  0  0
   26.0628  109.0230   60.8213 C   0  0  0  0  0  0  0  0  0  0  0  0
   36.1461  105.6181   62.7452 C   0  0  0  0  0  0  0  0  0  0  0  0
   35.7887  111.6500   58.5489 C   0  0  0  0  0  0  0  0  0  0  0  0
   37.3225  111.0134   60.3971 C   0  0  0  0  0  0  0  0  0  0  0  0
   25.8669  110.0100   59.8613 C   0  0  0  0  0  0  0  0  0  0  0  0
   24.9465  108.4620   61.4308 C   0  0  0  0  0  0  0  0  0  0  0  0
   36.5452  111.6903   57.2321 C   0  0  0  0  0  0  0  0  0  0  0  0
   36.2580  108.2233   60.2031 C   0  0  0  0  0  0  0  0  0  0  0  0
   35.5211  107.5094   61.1566 C   0  0  0  0  0  0  0  0  0  0  0  0
   29.5409  108.2330   60.7861 C   0  0  0  0  0  0  0  0  0  0  0  0
   28.5230  109.0257   60.4610 N   0  0  0  0  0  0  0  0  0  0  0  0
   34.1331  107.6349   61.6020 C   0  0  0  0  0  0  0  0  0  0  0  0
   29.1029  107.1723   61.5694 N   0  0  0  0  0  0  0  0  0  0  0  0
   35.7503  109.3044   59.3316 C   0  0  0  0  0  0  0  0  0  0  0  0
   27.4013  108.4568   61.0578 C   0  0  0  0  0  0  0  0  0  0  0  0
   30.9146  108.3182   60.4571 C   0  0  0  0  0  0  0  0  0  0  0  0
   36.3754  106.6049   61.6967 N   0  0  0  0  0  0  0  0  0  0  0  0
   37.6225  106.6893   61.1454 N   0  0  0  0  0  0  0  0  0  0  0  0
   37.5391  107.6527   60.2461 C   0  0  0  0  0  0  0  0  0  0  0  0
   31.7801  107.3655   60.9253 C   0  0  0  0  0  0  0  0  0  0  0  0
   33.1649  107.2934   60.6932 N   0  0  0  0  0  0  0  0  0  0  0  0
   36.2932  110.6108   59.4474 N   0  0  0  0  0  0  0  0  0  0  0  0
   33.8704  108.0477   62.7276 O   0  0  0  0  0  0  0  0  0  0  0  0
   34.8788  109.0688   58.4984 O   0  0  0  0  0  0  0  0  0  0  0  0
   37.7797  112.5447   57.3541 N   0  0  0  0  0  0  0  0  0  0  0  0
   37.6974  113.9062   56.8138 C   0  0  0  0  0  0  0  0  0  0  0  0
   23.6778  108.9383   61.1515 C   0  0  0  0  0  0  0  0  0  0  0  0
   24.5931  110.4790   59.5831 C   0  0  0  0  0  0  0  0  0  0  0  0
   23.4990  109.9399   60.2265 C   0  0  0  0  0  0  0  0  0  0  0  0
   27.0649  106.6358   62.2705 H   0  0  0  0  0  0  0  0  0  0  0  0
   29.5944  105.3812   62.6420 H   0  0  0  0  0  0  0  0  0  0  0  0
   31.9696  105.4952   62.1030 H   0  0  0  0  0  0  0  0  0  0  0  0
   36.2573  106.0965   63.7295 H   0  0  0  0  0  0  0  0  0  0  0  0
   35.1292  105.2100   62.6486 H   0  0  0  0  0  0  0  0  0  0  0  0
   36.8789  104.8035   62.6486 H   0  0  0  0  0  0  0  0  0  0  0  0
   35.8899  112.6265   59.0451 H   0  0  0  0  0  0  0  0  0  0  0  0
   34.7364  111.4202   58.3256 H   0  0  0  0  0  0  0  0  0  0  0  0
   36.9520  110.8685   61.4227 H   0  0  0  0  0  0  0  0  0  0  0  0
   38.2234  110.4013   60.2428 H   0  0  0  0  0  0  0  0  0  0  0  0
   37.5692  112.0742   60.2428 H   0  0  0  0  0  0  0  0  0  0  0  0
   26.7304  110.4219   59.3184 H   0  0  0  0  0  0  0  0  0  0  0  0
   25.0729  107.6320   62.1416 H   0  0  0  0  0  0  0  0  0  0  0  0
   36.8397  110.6678   56.9533 H   0  0  0  0  0  0  0  0  0  0  0  0
   35.8906  112.1223   56.4609 H   0  0  0  0  0  0  0  0  0  0  0  0
   31.2844  109.1430   59.8302 H   0  0  0  0  0  0  0  0  0  0  0  0
   38.3754  107.9705   59.6061 H   0  0  0  0  0  0  0  0  0  0  0  0
   33.4758  106.9586   59.7701 H   0  0  0  0  0  0  0  0  0  0  0  0
   38.0089  112.6201   58.3555 H   0  0  0  0  0  0  0  0  0  0  0  0
   38.4935  112.0704   56.7828 H   0  0  0  0  0  0  0  0  0  0  0  0
   37.6538  114.6277   57.6429 H   0  0  0  0  0  0  0  0  0  0  0  0
   38.5849  114.1100   56.1966 H   0  0  0  0  0  0  0  0  0  0  0  0
   36.7919  114.0016   56.1966 H   0  0  0  0  0  0  0  0  0  0  0  0
   22.8071  108.5133   61.6724 H   0  0  0  0  0  0  0  0  0  0  0  0
   24.4542  111.2840   58.8465 H   0  0  0  0  0  0  0  0  0  0  0  0
   22.4878  110.3095   60.0007 H   0  0  0  0  0  0  0  0  0  0  0  0
  1 16  1  0
  1 18  2  0
  2  3  2  0
  2 16  1  0
  3 23  1  0
  4  8  2  0
  4  9  1  0
  4 18  1  0
  5 20  1  0
  6 10  1  0
  6 25  1  0
  7 25  1  0
  8 31  1  0
  9 30  2  0
 10 28  1  0
 11 12  2  0
 11 17  1  0
 11 22  1  0
 12 15  1  0
 12 20  1  0
 13 14  2  0
 13 16  1  0
 13 19  1  0
 14 18  1  0
 15 24  1  0
 15 26  2  0
 17 25  1  0
 17 27  2  0
 19 23  2  0
 20 21  1  0
 21 22  2  0
 23 24  1  0
 28 29  1  0
 30 32  1  0
 31 32  2  0
  1 33  1  0
  2 34  1  0
  3 35  1  0
  5 36  1  0
  5 37  1  0
  5 38  1  0
  6 39  1  0
  6 40  1  0
  7 41  1  0
  7 42  1  0
  7 43  1  0
  8 44  1  0
  9 45  1  0
 10 46  1  0
 10 47  1  0
 19 48  1  0
 22 49  1  0
 24 50  1  0
 28 51  1  0
 28 52  1  0
 29 53  1  0
 29 54  1  0
 29 55  1  0
 30 56  1  0
 31 57  1  0
 32 58  1  0
M  CHG  1  28   1
M  END
>  <filename_input>  (25) 
5SIS_JSM_docked.sdf

>  <pdb_id>  (25) 
5SIS_JSM

>  <pose_rank>  (25) 
24

>  <num_atoms_heavy>  (25) 
32

>  <num_torsions>  (25) 
7

>  <pose>  (25) 
[34.13311326942667, 107.63491748126337, 61.60195657419882, 2.4777560232685216, 0.15768092209590234, 0.5166759801096404, 1.5000905533143094, -0.04922324798548362, 0.5715202299502542, -0.2812836757002978, -0.21402212377644492, -0.3840362554479442, 2.7166796702591958]

>  <energy>  (25) 
-605.136648826288

>  <inter_energy>  (25) 
-610.3327945510531

>  <intra_energy>  (25) 
16.595857705902166

>  <rmsd>  (25) 
6.12936

>  <sdf_rank>  (25) 
0

$$$$

     RDKit          3D

 58 61  0  0  0  0  0  0  0  0999 V2000
   28.2340  109.5070   56.5030 C   0  0  0  0  0  0  0  0  0  0  0  0
   29.4390  109.4450   58.7020 C   0  0  0  0  0  0  0  0  0  0  0  0
   30.6360  109.3690   59.3010 C   0  0  0  0  0  0  0  0  0  0  0  0
   27.9800  109.4350   53.9540 C   0  0  0  0  0  0  0  0  0  0  0  0
   36.8360  111.1530   58.7780 C   0  0  0  0  0  0  0  0  0  0  0  0
   34.0980  105.0480   61.9550 C   0  0  0  0  0  0  0  0  0  0  0  0
   36.4350  105.5730   61.2940 C   0  0  0  0  0  0  0  0  0  0  0  0
   28.6110  109.0470   52.7770 C   0  0  0  0  0  0  0  0  0  0  0  0
   26.6000  109.6020   53.9410 C   0  0  0  0  0  0  0  0  0  0  0  0
   33.7470  105.2440   63.4200 C   0  0  0  0  0  0  0  0  0  0  0  0
   35.5650  108.3900   60.7810 C   0  0  0  0  0  0  0  0  0  0  0  0
   35.3750  109.2950   59.7290 C   0  0  0  0  0  0  0  0  0  0  0  0
   30.4600  109.3800   56.5170 C   0  0  0  0  0  0  0  0  0  0  0  0
   30.1120  109.3990   55.2330 N   0  0  0  0  0  0  0  0  0  0  0  0
   34.2760  109.4580   58.7770 C   0  0  0  0  0  0  0  0  0  0  0  0
   29.3350  109.4540   57.3290 N   0  0  0  0  0  0  0  0  0  0  0  0
   34.6080  107.3580   61.2340 C   0  0  0  0  0  0  0  0  0  0  0  0
   28.7230  109.4920   55.2240 C   0  0  0  0  0  0  0  0  0  0  0  0
   31.7360  109.2940   57.1230 C   0  0  0  0  0  0  0  0  0  0  0  0
   36.4900  110.0660   59.6860 N   0  0  0  0  0  0  0  0  0  0  0  0
   37.3900  109.7150   60.6520 N   0  0  0  0  0  0  0  0  0  0  0  0
   36.8230  108.7190   61.3080 C   0  0  0  0  0  0  0  0  0  0  0  0
   31.8350  109.2980   58.4890 C   0  0  0  0  0  0  0  0  0  0  0  0
   33.0130  109.2150   59.2520 N   0  0  0  0  0  0  0  0  0  0  0  0
   35.0660  106.0370   61.4790 N   0  0  0  0  0  0  0  0  0  0  0  0
   34.4970  109.7750   57.6120 O   0  0  0  0  0  0  0  0  0  0  0  0
   33.4280  107.6470   61.4170 O   0  0  0  0  0  0  0  0  0  0  0  0
   34.9580  105.0310   64.2900 N   0  0  0  0  0  0  0  0  0  0  0  0
   35.6080  106.2330   64.8240 C   0  0  0  0  0  0  0  0  0  0  0  0
   25.8860  109.4710   52.7630 C   0  0  0  0  0  0  0  0  0  0  0  0
   27.8890  108.9130   51.6020 C   0  0  0  0  0  0  0  0  0  0  0  0
   26.5260  109.1220   51.5970 C   0  0  0  0  0  0  0  0  0  0  0  0
   27.1782  109.5521   56.8083 H   0  0  0  0  0  0  0  0  0  0  0  0
   28.5277  109.5009   59.3156 H   0  0  0  0  0  0  0  0  0  0  0  0
   30.7078  109.3606   60.3986 H   0  0  0  0  0  0  0  0  0  0  0  0
   37.1189  112.0418   59.3611 H   0  0  0  0  0  0  0  0  0  0  0  0
   37.6809  110.8462   58.1439 H   0  0  0  0  0  0  0  0  0  0  0  0
   35.9692  111.3911   58.1439 H   0  0  0  0  0  0  0  0  0  0  0  0
   34.5260  104.0430   61.8251 H   0  0  0  0  0  0  0  0  0  0  0  0
   33.1755  105.1705   61.3685 H   0  0  0  0  0  0  0  0  0  0  0  0
   36.9041  105.4140   62.2761 H   0  0  0  0  0  0  0  0  0  0  0  0
   36.4288  104.6268   60.7331 H   0  0  0  0  0  0  0  0  0  0  0  0
   37.0054  106.3280   60.7331 H   0  0  0  0  0  0  0  0  0  0  0  0
   29.6923  108.8448   52.7789 H   0  0  0  0  0  0  0  0  0  0  0  0
   26.0709  109.8404   54.8755 H   0  0  0  0  0  0  0  0  0  0  0  0
   33.3716  106.2673   63.5677 H   0  0  0  0  0  0  0  0  0  0  0  0
   32.9763  104.5109   63.7005 H   0  0  0  0  0  0  0  0  0  0  0  0
   32.6411  109.2245   56.5018 H   0  0  0  0  0  0  0  0  0  0  0  0
   37.2828  108.2075   62.1665 H   0  0  0  0  0  0  0  0  0  0  0  0
   32.9201  108.9516   60.2434 H   0  0  0  0  0  0  0  0  0  0  0  0
   34.6685  104.4514   65.0907 H   0  0  0  0  0  0  0  0  0  0  0  0
   35.6596  104.5961   63.6739 H   0  0  0  0  0  0  0  0  0  0  0  0
   35.5909  106.2014   65.9234 H   0  0  0  0  0  0  0  0  0  0  0  0
   36.6503  106.2722   64.4745 H   0  0  0  0  0  0  0  0  0  0  0  0
   35.0702  107.1266   64.4745 H   0  0  0  0  0  0  0  0  0  0  0  0
   24.8002  109.6470   52.7592 H   0  0  0  0  0  0  0  0  0  0  0  0
   28.4049  108.6389   50.6699 H   0  0  0  0  0  0  0  0  0  0  0  0
   25.9533  109.0101   50.6646 H   0  0  0  0  0  0  0  0  0  0  0  0
  1 16  1  0
  1 18  2  0
  2  3  2  0
  2 16  1  0
  3 23  1  0
  4  8  2  0
  4  9  1  0
  4 18  1  0
  5 20  1  0
  6 10  1  0
  6 25  1  0
  7 25  1  0
  8 31  1  0
  9 30  2  0
 10 28  1  0
 11 12  2  0
 11 17  1  0
 11 22  1  0
 12 15  1  0
 12 20  1  0
 13 14  2  0
 13 16  1  0
 13 19  1  0
 14 18  1  0
 15 24  1  0
 15 26  2  0
 17 25  1  0
 17 27  2  0
 19 23  2  0
 20 21  1  0
 21 22  2  0
 23 24  1  0
 28 29  1  0
 30 32  1  0
 31 32  2  0
  1 33  1  0
  2 34  1  0
  3 35  1  0
  5 36  1  0
  5 37  1  0
  5 38  1  0
  6 39  1  0
  6 40  1  0
  7 41  1  0
  7 42  1  0
  7 43  1  0
  8 44  1  0
  9 45  1  0
 10 46  1  0
 10 47  1  0
 19 48  1  0
 22 49  1  0
 24 50  1  0
 28 51  1  0
 28 52  1  0
 29 53  1  0
 29 54  1  0
 29 55  1  0
 30 56  1  0
 31 57  1  0
 32 58  1  0
M  CHG  1  28   1
M  END
>  <filename_input>  (26) 
5SIS_JSM_docked.sdf

>  <pdb_id>  (26) 
5SIS_JSM

>  <pose_rank>  (26) 
25

>  <num_atoms_heavy>  (26) 
32

>  <num_torsions>  (26) 
7

>  <pose>  (26) 
[34.276, 109.458, 58.777, 1e-06, 1e-06, 1e-06, 0.0, 0.0, 0.0, 0.0, 0.0, 0.0, 0.0]

>  <energy>  (26) 
-1309.2909226877998

>  <inter_energy>  (26) 
-1388.8639554359706

>  <intra_energy>  (26) 
84.4590659634269

>  <rmsd>  (26) 
0.0

>  <sdf_rank>  (26) 
0

$$$$
