
     RDKit          3D

 38 40  0  0  0  0  0  0  0  0999 V2000
   33.3560  -21.8522   22.0787 C   0  0  0  0  0  0  0  0  0  0  0  0
   32.3119  -22.2463   21.2565 C   0  0  0  0  0  0  0  0  0  0  0  0
   31.0687  -22.3917   21.7979 C   0  0  0  0  0  0  0  0  0  0  0  0
   30.8133  -22.1310   23.1472 C   0  0  0  0  0  0  0  0  0  0  0  0
   31.8482  -21.7719   23.9803 C   0  0  0  0  0  0  0  0  0  0  0  0
   33.1135  -21.6138   23.4272 C   0  0  0  0  0  0  0  0  0  0  0  0
   31.6848  -21.4997   25.4479 C   0  0  0  0  0  0  0  0  0  0  0  0
   29.4408  -22.2894   23.6459 C   0  0  0  0  0  0  0  0  0  0  0  0
   26.3040  -22.7936   22.4921 C   0  0  0  0  0  0  0  0  0  0  0  0
   30.6114  -21.7371   26.0496 O   0  0  0  0  0  0  0  0  0  0  0  0
   32.6955  -21.0229   26.1327 O   0  0  0  0  0  0  0  0  0  0  0  0
   28.5605  -22.8735   22.9933 N   0  0  0  0  0  0  0  0  0  0  0  0
   27.2625  -22.9785   23.4367 N   0  0  0  0  0  0  0  0  0  0  0  0
   25.0545  -23.2418   22.6265 N   0  0  0  0  0  0  0  0  0  0  0  0
   24.2817  -23.0330   21.5164 C   0  0  0  0  0  0  0  0  0  0  0  0
   25.0170  -22.4355   20.5154 C   0  0  0  0  0  0  0  0  0  0  0  0
   26.6369  -22.1286   20.9589 S   0  0  0  0  0  0  0  0  0  0  0  0
   22.9007  -23.5479   21.4024 C   0  0  0  0  0  0  0  0  0  0  0  0
   21.9406  -23.4140   22.3635 C   0  0  0  0  0  0  0  0  0  0  0  0
   20.6665  -23.9731   22.2435 C   0  0  0  0  0  0  0  0  0  0  0  0
   20.4116  -24.7238   21.1133 C   0  0  0  0  0  0  0  0  0  0  0  0
   21.3816  -24.8765   20.1251 C   0  0  0  0  0  0  0  0  0  0  0  0
   22.6363  -24.3422   20.2658 C   0  0  0  0  0  0  0  0  0  0  0  0
   22.2787  -22.4270   23.7761 Cl  0  0  0  0  0  0  0  0  0  0  0  0
   26.9833  -23.6951   24.7035 C   0  0  0  0  0  0  0  0  0  0  0  0
   34.3688  -21.7289   21.6676 H   0  0  0  0  0  0  0  0  0  0  0  0
   32.4830  -22.4383   20.1870 H   0  0  0  0  0  0  0  0  0  0  0  0
   30.2418  -22.7242   21.1532 H   0  0  0  0  0  0  0  0  0  0  0  0
   33.9442  -21.2920   24.0725 H   0  0  0  0  0  0  0  0  0  0  0  0
   29.1836  -21.8760   24.6323 H   0  0  0  0  0  0  0  0  0  0  0  0
   24.6015  -22.1817   19.5290 H   0  0  0  0  0  0  0  0  0  0  0  0
   19.8987  -23.8217   23.0165 H   0  0  0  0  0  0  0  0  0  0  0  0
   19.4310  -25.2072   20.9917 H   0  0  0  0  0  0  0  0  0  0  0  0
   21.1353  -25.4381   19.2119 H   0  0  0  0  0  0  0  0  0  0  0  0
   23.4165  -24.5276   19.5128 H   0  0  0  0  0  0  0  0  0  0  0  0
   27.2360  -23.0464   25.5551 H   0  0  0  0  0  0  0  0  0  0  0  0
   25.9164  -23.9594   24.7479 H   0  0  0  0  0  0  0  0  0  0  0  0
   27.5902  -24.6115   24.7479 H   0  0  0  0  0  0  0  0  0  0  0  0
  1  2  2  0
  1  6  1  0
  2  3  1  0
  3  4  2  0
  4  5  1  0
  4  8  1  0
  5  6  2  0
  5  7  1  0
  7 10  1  0
  7 11  2  0
  8 12  2  3
  9 13  1  0
  9 14  2  0
  9 17  1  0
 12 13  1  0
 13 25  1  0
 14 15  1  0
 15 16  2  0
 15 18  1  0
 16 17  1  0
 18 19  2  0
 18 23  1  0
 19 20  1  0
 19 24  1  0
 20 21  2  0
 21 22  1  0
 22 23  2  0
  1 26  1  0
  2 27  1  0
  3 28  1  0
  6 29  1  0
  8 30  1  0
 16 31  1  0
 20 32  1  0
 21 33  1  0
 22 34  1  0
 23 35  1  0
 25 36  1  0
 25 37  1  0
 25 38  1  0
M  CHG  1  10  -1
M  END
>  <filename_input>  (1) 
6M2B_EZO_docked.sdf

>  <pdb_id>  (1) 
6M2B_EZO

>  <pose_rank>  (1) 
0

>  <num_atoms_heavy>  (1) 
25

>  <num_torsions>  (1) 
4

>  <pose>  (1) 
[26.304033326502854, -22.7936002295823, 22.492103334753544, 2.773572436648553, 1.05984631326738, 5.430638042681342, -0.005982541949408533, -0.7422225664441968, -5.516607819259379, -0.32618185701484925]

>  <energy>  (1) 
-1530.800323428623

>  <inter_energy>  (1) 
-1547.3190371789813

>  <intra_energy>  (1) 
29.823057010292995

>  <rmsd>  (1) 
0.394724

>  <sdf_rank>  (1) 
0

$$$$

     RDKit          3D

 38 40  0  0  0  0  0  0  0  0999 V2000
   33.4862  -21.3701   22.4548 C   0  0  0  0  0  0  0  0  0  0  0  0
   33.1322  -21.2313   23.7878 C   0  0  0  0  0  0  0  0  0  0  0  0
   31.8564  -21.5335   24.1632 C   0  0  0  0  0  0  0  0  0  0  0  0
   30.9069  -22.0016   23.2506 C   0  0  0  0  0  0  0  0  0  0  0  0
   31.2368  -22.1112   21.9189 C   0  0  0  0  0  0  0  0  0  0  0  0
   32.5396  -21.8130   21.5372 C   0  0  0  0  0  0  0  0  0  0  0  0
   30.2826  -22.5743   20.8561 C   0  0  0  0  0  0  0  0  0  0  0  0
   29.5611  -22.3266   23.7413 C   0  0  0  0  0  0  0  0  0  0  0  0
   26.3002  -22.4797   22.5530 C   0  0  0  0  0  0  0  0  0  0  0  0
   29.8206  -23.7392   20.8433 O   0  0  0  0  0  0  0  0  0  0  0  0
   29.8973  -21.7365   19.9247 O   0  0  0  0  0  0  0  0  0  0  0  0
   28.5593  -22.2850   23.0088 N   0  0  0  0  0  0  0  0  0  0  0  0
   27.2919  -22.5400   23.4791 N   0  0  0  0  0  0  0  0  0  0  0  0
   25.1160  -23.0725   22.7158 N   0  0  0  0  0  0  0  0  0  0  0  0
   24.3024  -22.9678   21.6201 C   0  0  0  0  0  0  0  0  0  0  0  0
   24.9416  -22.2962   20.6003 C   0  0  0  0  0  0  0  0  0  0  0  0
   26.5215  -21.7940   21.0088 S   0  0  0  0  0  0  0  0  0  0  0  0
   22.9909  -23.6448   21.5378 C   0  0  0  0  0  0  0  0  0  0  0  0
   22.0434  -23.6235   22.5201 C   0  0  0  0  0  0  0  0  0  0  0  0
   20.8431  -24.3316   22.4294 C   0  0  0  0  0  0  0  0  0  0  0  0
   20.6550  -25.1116   21.3060 C   0  0  0  0  0  0  0  0  0  0  0  0
   21.6140  -25.1506   20.2963 C   0  0  0  0  0  0  0  0  0  0  0  0
   22.7985  -24.4693   20.4082 C   0  0  0  0  0  0  0  0  0  0  0  0
   22.2920  -22.5979   23.9238 Cl  0  0  0  0  0  0  0  0  0  0  0  0
   27.1249  -23.2730   24.7563 C   0  0  0  0  0  0  0  0  0  0  0  0
   34.5082  -21.1318   22.1252 H   0  0  0  0  0  0  0  0  0  0  0  0
   33.8668  -20.8839   24.5292 H   0  0  0  0  0  0  0  0  0  0  0  0
   31.5658  -21.4050   25.2163 H   0  0  0  0  0  0  0  0  0  0  0  0
   32.8293  -21.9303   20.4825 H   0  0  0  0  0  0  0  0  0  0  0  0
   29.4364  -22.6171   24.7949 H   0  0  0  0  0  0  0  0  0  0  0  0
   24.4798  -22.1029   19.6208 H   0  0  0  0  0  0  0  0  0  0  0  0
   20.0801  -24.2704   23.2194 H   0  0  0  0  0  0  0  0  0  0  0  0
   19.7369  -25.7094   21.2069 H   0  0  0  0  0  0  0  0  0  0  0  0
   21.4167  -25.7410   19.3894 H   0  0  0  0  0  0  0  0  0  0  0  0
   23.5783  -24.5627   19.6381 H   0  0  0  0  0  0  0  0  0  0  0  0
   27.2821  -22.5830   25.5984 H   0  0  0  0  0  0  0  0  0  0  0  0
   26.1086  -23.6906   24.8093 H   0  0  0  0  0  0  0  0  0  0  0  0
   27.8600  -24.0896   24.8093 H   0  0  0  0  0  0  0  0  0  0  0  0
  1  2  2  0
  1  6  1  0
  2  3  1  0
  3  4  2  0
  4  5  1  0
  4  8  1  0
  5  6  2  0
  5  7  1  0
  7 10  1  0
  7 11  2  0
  8 12  2  3
  9 13  1  0
  9 14  2  0
  9 17  1  0
 12 13  1  0
 13 25  1  0
 14 15  1  0
 15 16  2  0
 15 18  1  0
 16 17  1  0
 18 19  2  0
 18 23  1  0
 19 20  1  0
 19 24  1  0
 20 21  2  0
 21 22  1  0
 22 23  2  0
  1 26  1  0
  2 27  1  0
  3 28  1  0
  6 29  1  0
  8 30  1  0
 16 31  1  0
 20 32  1  0
 21 33  1  0
 22 34  1  0
 23 35  1  0
 25 36  1  0
 25 37  1  0
 25 38  1  0
M  CHG  1  10  -1
M  END
>  <filename_input>  (2) 
6M2B_EZO_docked.sdf

>  <pdb_id>  (2) 
6M2B_EZO

>  <pose_rank>  (2) 
1

>  <num_atoms_heavy>  (2) 
25

>  <num_torsions>  (2) 
4

>  <pose>  (2) 
[26.30016218666396, -22.479652037289153, 22.552953164950452, 4.958423630900984, -0.09263121344059462, -3.7550111495650005, 6.270833234503008, 6.28511715782503, -3.0683210574930704, 4.672294365753861]

>  <energy>  (2) 
-1093.9522979565156

>  <inter_energy>  (2) 
-1126.9128506697175

>  <intra_energy>  (2) 
49.02955228225801

>  <rmsd>  (2) 
2.24557

>  <sdf_rank>  (2) 
0

$$$$

     RDKit          3D

 38 40  0  0  0  0  0  0  0  0999 V2000
   32.4310  -20.8398   25.9208 C   0  0  0  0  0  0  0  0  0  0  0  0
   31.0598  -20.8057   26.1210 C   0  0  0  0  0  0  0  0  0  0  0  0
   30.2399  -21.2524   25.1271 C   0  0  0  0  0  0  0  0  0  0  0  0
   30.7414  -21.7652   23.9274 C   0  0  0  0  0  0  0  0  0  0  0  0
   32.0994  -21.7728   23.7037 C   0  0  0  0  0  0  0  0  0  0  0  0
   32.9361  -21.3270   24.7200 C   0  0  0  0  0  0  0  0  0  0  0  0
   32.7361  -22.2735   22.4393 C   0  0  0  0  0  0  0  0  0  0  0  0
   29.7903  -22.2476   22.9173 C   0  0  0  0  0  0  0  0  0  0  0  0
   26.6873  -22.7625   22.3325 C   0  0  0  0  0  0  0  0  0  0  0  0
   32.3341  -21.9135   21.3082 O   0  0  0  0  0  0  0  0  0  0  0  0
   33.7575  -23.0917   22.5109 O   0  0  0  0  0  0  0  0  0  0  0  0
   28.7007  -21.6891   22.7110 N   0  0  0  0  0  0  0  0  0  0  0  0
   27.7875  -22.1692   21.8010 N   0  0  0  0  0  0  0  0  0  0  0  0
   25.5458  -22.9144   21.6587 N   0  0  0  0  0  0  0  0  0  0  0  0
   24.5371  -23.4474   22.4147 C   0  0  0  0  0  0  0  0  0  0  0  0
   24.9581  -23.6599   23.7097 C   0  0  0  0  0  0  0  0  0  0  0  0
   26.5856  -23.2155   23.9721 S   0  0  0  0  0  0  0  0  0  0  0  0
   23.1578  -23.5985   21.9047 C   0  0  0  0  0  0  0  0  0  0  0  0
   22.0303  -23.4460   22.6588 C   0  0  0  0  0  0  0  0  0  0  0  0
   20.7466  -23.6624   22.1533 C   0  0  0  0  0  0  0  0  0  0  0  0
   20.6487  -24.0898   20.8443 C   0  0  0  0  0  0  0  0  0  0  0  0
   21.7889  -24.2570   20.0616 C   0  0  0  0  0  0  0  0  0  0  0  0
   23.0447  -24.0640   20.5768 C   0  0  0  0  0  0  0  0  0  0  0  0
   22.1800  -22.8699   24.3110 Cl  0  0  0  0  0  0  0  0  0  0  0  0
   27.8007  -21.6469   20.4141 C   0  0  0  0  0  0  0  0  0  0  0  0
   33.1146  -20.4840   26.7057 H   0  0  0  0  0  0  0  0  0  0  0  0
   30.6408  -20.4253   27.0642 H   0  0  0  0  0  0  0  0  0  0  0  0
   29.1507  -21.2078   25.2739 H   0  0  0  0  0  0  0  0  0  0  0  0
   34.0254  -21.3604   24.5709 H   0  0  0  0  0  0  0  0  0  0  0  0
   30.0527  -23.1350   22.3226 H   0  0  0  0  0  0  0  0  0  0  0  0
   24.3101  -24.0744   24.4960 H   0  0  0  0  0  0  0  0  0  0  0  0
   19.8517  -23.4991   22.7717 H   0  0  0  0  0  0  0  0  0  0  0  0
   19.6585  -24.3009   20.4141 H   0  0  0  0  0  0  0  0  0  0  0  0
   21.6793  -24.5503   19.0071 H   0  0  0  0  0  0  0  0  0  0  0  0
   23.9405  -24.2665   19.9713 H   0  0  0  0  0  0  0  0  0  0  0  0
   27.8284  -20.5475   20.4366 H   0  0  0  0  0  0  0  0  0  0  0  0
   28.6896  -22.0254   19.8882 H   0  0  0  0  0  0  0  0  0  0  0  0
   26.8938  -21.9801   19.8882 H   0  0  0  0  0  0  0  0  0  0  0  0
  1  2  2  0
  1  6  1  0
  2  3  1  0
  3  4  2  0
  4  5  1  0
  4  8  1  0
  5  6  2  0
  5  7  1  0
  7 10  1  0
  7 11  2  0
  8 12  2  3
  9 13  1  0
  9 14  2  0
  9 17  1  0
 12 13  1  0
 13 25  1  0
 14 15  1  0
 15 16  2  0
 15 18  1  0
 16 17  1  0
 18 19  2  0
 18 23  1  0
 19 20  1  0
 19 24  1  0
 20 21  2  0
 21 22  1  0
 22 23  2  0
  1 26  1  0
  2 27  1  0
  3 28  1  0
  6 29  1  0
  8 30  1  0
 16 31  1  0
 20 32  1  0
 21 33  1  0
 22 34  1  0
 23 35  1  0
 25 36  1  0
 25 37  1  0
 25 38  1  0
M  CHG  1  10  -1
M  END
>  <filename_input>  (3) 
6M2B_EZO_docked.sdf

>  <pdb_id>  (3) 
6M2B_EZO

>  <pose_rank>  (3) 
2

>  <num_atoms_heavy>  (3) 
25

>  <num_torsions>  (3) 
4

>  <pose>  (3) 
[26.687307337384368, -22.762542431741757, 22.332542961197916, -3.1138512524457065, -0.8492737661311806, -0.6733299466701724, -3.3664512250278915, -1.2980881861119755, 1.1739310435362442, 0.3720040472319459]

>  <energy>  (3) 
-1011.3091430414723

>  <inter_energy>  (3) 
-1035.1432984554765

>  <intra_energy>  (3) 
31.235636119297766

>  <rmsd>  (3) 
2.61616

>  <sdf_rank>  (3) 
0

$$$$

     RDKit          3D

 38 40  0  0  0  0  0  0  0  0999 V2000
   32.1887  -20.9308   25.3415 C   0  0  0  0  0  0  0  0  0  0  0  0
   32.3990  -21.5218   24.1054 C   0  0  0  0  0  0  0  0  0  0  0  0
   31.3263  -22.0134   23.4216 C   0  0  0  0  0  0  0  0  0  0  0  0
   30.0234  -21.9157   23.9181 C   0  0  0  0  0  0  0  0  0  0  0  0
   29.8060  -21.3615   25.1590 C   0  0  0  0  0  0  0  0  0  0  0  0
   30.8975  -20.8513   25.8520 C   0  0  0  0  0  0  0  0  0  0  0  0
   28.4510  -21.2373   25.7940 C   0  0  0  0  0  0  0  0  0  0  0  0
   28.9208  -22.4499   23.1078 C   0  0  0  0  0  0  0  0  0  0  0  0
   26.2233  -22.8229   22.3341 C   0  0  0  0  0  0  0  0  0  0  0  0
   27.9533  -20.1230   26.0791 O   0  0  0  0  0  0  0  0  0  0  0  0
   27.7511  -22.3180   26.0388 O   0  0  0  0  0  0  0  0  0  0  0  0
   28.2671  -21.7404   22.3259 N   0  0  0  0  0  0  0  0  0  0  0  0
   27.2021  -22.2277   21.6043 N   0  0  0  0  0  0  0  0  0  0  0  0
   24.9767  -22.9818   21.8860 N   0  0  0  0  0  0  0  0  0  0  0  0
   24.1293  -23.5154   22.8191 C   0  0  0  0  0  0  0  0  0  0  0  0
   24.7859  -23.7209   24.0134 C   0  0  0  0  0  0  0  0  0  0  0  0
   26.4318  -23.2694   23.9653 S   0  0  0  0  0  0  0  0  0  0  0  0
   22.6798  -23.6738   22.5764 C   0  0  0  0  0  0  0  0  0  0  0  0
   22.1209  -23.9390   21.3597 C   0  0  0  0  0  0  0  0  0  0  0  0
   20.7406  -24.0159   21.1613 C   0  0  0  0  0  0  0  0  0  0  0  0
   19.9324  -23.7654   22.2521 C   0  0  0  0  0  0  0  0  0  0  0  0
   20.4852  -23.4867   23.5001 C   0  0  0  0  0  0  0  0  0  0  0  0
   21.8414  -23.3910   23.6764 C   0  0  0  0  0  0  0  0  0  0  0  0
   23.1709  -24.2862   19.9955 Cl  0  0  0  0  0  0  0  0  0  0  0  0
   26.9535  -21.7112   20.2376 C   0  0  0  0  0  0  0  0  0  0  0  0
   33.0368  -20.5276   25.9143 H   0  0  0  0  0  0  0  0  0  0  0  0
   33.4125  -21.5930   23.6837 H   0  0  0  0  0  0  0  0  0  0  0  0
   31.4915  -22.5015   22.4499 H   0  0  0  0  0  0  0  0  0  0  0  0
   30.7359  -20.3726   26.8291 H   0  0  0  0  0  0  0  0  0  0  0  0
   28.6651  -23.5160   23.1968 H   0  0  0  0  0  0  0  0  0  0  0  0
   24.2981  -24.1346   24.9083 H   0  0  0  0  0  0  0  0  0  0  0  0
   20.3156  -24.2654   20.1779 H   0  0  0  0  0  0  0  0  0  0  0  0
   18.8389  -23.7860   22.1344 H   0  0  0  0  0  0  0  0  0  0  0  0
   19.8189  -23.3404   24.3630 H   0  0  0  0  0  0  0  0  0  0  0  0
   22.2651  -23.1014   24.6494 H   0  0  0  0  0  0  0  0  0  0  0  0
   26.4773  -20.7217   20.3006 H   0  0  0  0  0  0  0  0  0  0  0  0
   27.9087  -21.6248   19.6989 H   0  0  0  0  0  0  0  0  0  0  0  0
   26.2901  -22.4038   19.6989 H   0  0  0  0  0  0  0  0  0  0  0  0
  1  2  2  0
  1  6  1  0
  2  3  1  0
  3  4  2  0
  4  5  1  0
  4  8  1  0
  5  6  2  0
  5  7  1  0
  7 10  1  0
  7 11  2  0
  8 12  2  3
  9 13  1  0
  9 14  2  0
  9 17  1  0
 12 13  1  0
 13 25  1  0
 14 15  1  0
 15 16  2  0
 15 18  1  0
 16 17  1  0
 18 19  2  0
 18 23  1  0
 19 20  1  0
 19 24  1  0
 20 21  2  0
 21 22  1  0
 22 23  2  0
  1 26  1  0
  2 27  1  0
  3 28  1  0
  6 29  1  0
  8 30  1  0
 16 31  1  0
 20 32  1  0
 21 33  1  0
 22 34  1  0
 23 35  1  0
 25 36  1  0
 25 37  1  0
 25 38  1  0
M  CHG  1  10  -1
M  END
>  <filename_input>  (4) 
6M2B_EZO_docked.sdf

>  <pdb_id>  (4) 
6M2B_EZO

>  <pose_rank>  (4) 
3

>  <num_atoms_heavy>  (4) 
25

>  <num_torsions>  (4) 
4

>  <pose>  (4) 
[26.223292220810777, -22.822940091598607, 22.334137600946097, 2.9027860692982874, 0.8056208845608872, 0.3461707229265831, -0.27271315711854494, 4.078473870923907, -1.1105777084371238, -2.537877642421504]

>  <energy>  (4) 
-796.2212145969195

>  <inter_energy>  (4) 
-917.1940626227046

>  <intra_energy>  (4) 
101.58569540858439

>  <rmsd>  (4) 
2.87088

>  <sdf_rank>  (4) 
0

$$$$

     RDKit          3D

 38 40  0  0  0  0  0  0  0  0999 V2000
   34.3647  -20.0670   24.0483 C   0  0  0  0  0  0  0  0  0  0  0  0
   34.3122  -20.3161   22.6857 C   0  0  0  0  0  0  0  0  0  0  0  0
   33.2523  -21.0137   22.1861 C   0  0  0  0  0  0  0  0  0  0  0  0
   32.2089  -21.4606   23.0017 C   0  0  0  0  0  0  0  0  0  0  0  0
   32.2666  -21.2489   24.3604 C   0  0  0  0  0  0  0  0  0  0  0  0
   33.3415  -20.5293   24.8690 C   0  0  0  0  0  0  0  0  0  0  0  0
   31.2141  -21.7143   25.3250 C   0  0  0  0  0  0  0  0  0  0  0  0
   31.0922  -22.1849   22.3805 C   0  0  0  0  0  0  0  0  0  0  0  0
   27.8529  -22.9279   22.9402 C   0  0  0  0  0  0  0  0  0  0  0  0
   30.5445  -20.9090   26.0132 O   0  0  0  0  0  0  0  0  0  0  0  0
   30.9649  -22.9958   25.4398 O   0  0  0  0  0  0  0  0  0  0  0  0
   29.9058  -21.9107   22.6236 N   0  0  0  0  0  0  0  0  0  0  0  0
   28.8597  -22.6209   22.0816 N   0  0  0  0  0  0  0  0  0  0  0  0
   26.6196  -23.2356   22.5345 N   0  0  0  0  0  0  0  0  0  0  0  0
   25.7384  -23.4139   23.5665 C   0  0  0  0  0  0  0  0  0  0  0  0
   26.3550  -23.1901   24.7786 C   0  0  0  0  0  0  0  0  0  0  0  0
   28.0057  -22.7794   24.6308 S   0  0  0  0  0  0  0  0  0  0  0  0
   24.2959  -23.6501   23.3465 C   0  0  0  0  0  0  0  0  0  0  0  0
   23.6886  -24.8702   23.4229 C   0  0  0  0  0  0  0  0  0  0  0  0
   22.3336  -25.0601   23.1430 C   0  0  0  0  0  0  0  0  0  0  0  0
   21.6142  -23.9558   22.7323 C   0  0  0  0  0  0  0  0  0  0  0  0
   22.2189  -22.7040   22.6424 C   0  0  0  0  0  0  0  0  0  0  0  0
   23.5554  -22.5353   22.8973 C   0  0  0  0  0  0  0  0  0  0  0  0
   24.6177  -26.2527   23.9793 Cl  0  0  0  0  0  0  0  0  0  0  0  0
   28.6591  -22.6120   20.6133 C   0  0  0  0  0  0  0  0  0  0  0  0
   35.2093  -19.5079   24.4773 H   0  0  0  0  0  0  0  0  0  0  0  0
   35.1109  -19.9576   22.0196 H   0  0  0  0  0  0  0  0  0  0  0  0
   33.2174  -21.2312   21.1084 H   0  0  0  0  0  0  0  0  0  0  0  0
   33.3840  -20.3202   25.9481 H   0  0  0  0  0  0  0  0  0  0  0  0
   31.3148  -22.9990   21.6749 H   0  0  0  0  0  0  0  0  0  0  0  0
   25.8355  -23.2682   25.7451 H   0  0  0  0  0  0  0  0  0  0  0  0
   21.8598  -26.0476   23.2455 H   0  0  0  0  0  0  0  0  0  0  0  0
   20.5509  -24.0656   22.4729 H   0  0  0  0  0  0  0  0  0  0  0  0
   21.6107  -21.8318   22.3608 H   0  0  0  0  0  0  0  0  0  0  0  0
   24.0381  -21.5571   22.7554 H   0  0  0  0  0  0  0  0  0  0  0  0
   27.5830  -22.5641   20.3905 H   0  0  0  0  0  0  0  0  0  0  0  0
   29.1627  -21.7354   20.1797 H   0  0  0  0  0  0  0  0  0  0  0  0
   29.0828  -23.5299   20.1797 H   0  0  0  0  0  0  0  0  0  0  0  0
  1  2  2  0
  1  6  1  0
  2  3  1  0
  3  4  2  0
  4  5  1  0
  4  8  1  0
  5  6  2  0
  5  7  1  0
  7 10  1  0
  7 11  2  0
  8 12  2  3
  9 13  1  0
  9 14  2  0
  9 17  1  0
 12 13  1  0
 13 25  1  0
 14 15  1  0
 15 16  2  0
 15 18  1  0
 16 17  1  0
 18 19  2  0
 18 23  1  0
 19 20  1  0
 19 24  1  0
 20 21  2  0
 21 22  1  0
 22 23  2  0
  1 26  1  0
  2 27  1  0
  3 28  1  0
  6 29  1  0
  8 30  1  0
 16 31  1  0
 20 32  1  0
 21 33  1  0
 22 34  1  0
 23 35  1  0
 25 36  1  0
 25 37  1  0
 25 38  1  0
M  CHG  1  10  -1
M  END
>  <filename_input>  (5) 
6M2B_EZO_docked.sdf

>  <pdb_id>  (5) 
6M2B_EZO

>  <pose_rank>  (5) 
4

>  <num_atoms_heavy>  (5) 
25

>  <num_torsions>  (5) 
4

>  <pose>  (5) 
[27.85287734967617, -22.927909128061614, 22.940204691291022, 2.561821781399387, 0.7679157321578749, 0.22296412825457823, 0.9295627871432776, 5.502991460638424, 4.500366544807107, -2.526333528770523]

>  <energy>  (5) 
-892.5878461319776

>  <inter_energy>  (5) 
-925.8329096100538

>  <intra_energy>  (5) 
42.70796196652842

>  <rmsd>  (5) 
2.62947

>  <sdf_rank>  (5) 
0

$$$$

     RDKit          3D

 38 40  0  0  0  0  0  0  0  0999 V2000
   34.1554  -20.4677   23.1557 C   0  0  0  0  0  0  0  0  0  0  0  0
   33.6330  -20.2206   24.4157 C   0  0  0  0  0  0  0  0  0  0  0  0
   32.4117  -20.7378   24.7330 C   0  0  0  0  0  0  0  0  0  0  0  0
   31.6863  -21.5278   23.8367 C   0  0  0  0  0  0  0  0  0  0  0  0
   32.1792  -21.7518   22.5714 C   0  0  0  0  0  0  0  0  0  0  0  0
   33.4283  -21.2334   22.2507 C   0  0  0  0  0  0  0  0  0  0  0  0
   31.4651  -22.5595   21.5263 C   0  0  0  0  0  0  0  0  0  0  0  0
   30.3885  -22.0660   24.2656 C   0  0  0  0  0  0  0  0  0  0  0  0
   27.1121  -22.2105   23.2189 C   0  0  0  0  0  0  0  0  0  0  0  0
   31.8678  -22.6120   20.3407 O   0  0  0  0  0  0  0  0  0  0  0  0
   30.4034  -23.2521   21.8593 O   0  0  0  0  0  0  0  0  0  0  0  0
   29.3222  -21.7446   23.7164 N   0  0  0  0  0  0  0  0  0  0  0  0
   28.1017  -22.2086   24.1493 N   0  0  0  0  0  0  0  0  0  0  0  0
   26.0209  -22.9716   23.3193 N   0  0  0  0  0  0  0  0  0  0  0  0
   25.2018  -22.8916   22.2257 C   0  0  0  0  0  0  0  0  0  0  0  0
   25.7433  -22.0583   21.2707 C   0  0  0  0  0  0  0  0  0  0  0  0
   27.2383  -21.3784   21.7372 S   0  0  0  0  0  0  0  0  0  0  0  0
   23.9964  -23.7336   22.0736 C   0  0  0  0  0  0  0  0  0  0  0  0
   23.6099  -24.7021   22.9544 C   0  0  0  0  0  0  0  0  0  0  0  0
   22.4990  -25.5208   22.7397 C   0  0  0  0  0  0  0  0  0  0  0  0
   21.8083  -25.3483   21.5569 C   0  0  0  0  0  0  0  0  0  0  0  0
   22.1922  -24.3691   20.6434 C   0  0  0  0  0  0  0  0  0  0  0  0
   23.2987  -23.5877   20.8551 C   0  0  0  0  0  0  0  0  0  0  0  0
   24.4853  -24.8794   24.4664 Cl  0  0  0  0  0  0  0  0  0  0  0  0
   28.0360  -23.0583   25.3617 C   0  0  0  0  0  0  0  0  0  0  0  0
   35.1379  -20.0610   22.8738 H   0  0  0  0  0  0  0  0  0  0  0  0
   34.1933  -19.6185   25.1462 H   0  0  0  0  0  0  0  0  0  0  0  0
   31.9845  -20.5269   25.7244 H   0  0  0  0  0  0  0  0  0  0  0  0
   33.8525  -21.4340   21.2558 H   0  0  0  0  0  0  0  0  0  0  0  0
   30.3603  -22.7788   25.1029 H   0  0  0  0  0  0  0  0  0  0  0  0
   25.2603  -21.8519   20.3042 H   0  0  0  0  0  0  0  0  0  0  0  0
   22.1876  -26.2710   23.4814 H   0  0  0  0  0  0  0  0  0  0  0  0
   20.9446  -25.9916   21.3331 H   0  0  0  0  0  0  0  0  0  0  0  0
   21.5945  -24.2196   19.7321 H   0  0  0  0  0  0  0  0  0  0  0  0
   23.6339  -22.8662   20.0955 H   0  0  0  0  0  0  0  0  0  0  0  0
   28.0851  -22.4227   26.2581 H   0  0  0  0  0  0  0  0  0  0  0  0
   27.0916  -23.6224   25.3635 H   0  0  0  0  0  0  0  0  0  0  0  0
   28.8826  -23.7607   25.3635 H   0  0  0  0  0  0  0  0  0  0  0  0
  1  2  2  0
  1  6  1  0
  2  3  1  0
  3  4  2  0
  4  5  1  0
  4  8  1  0
  5  6  2  0
  5  7  1  0
  7 10  1  0
  7 11  2  0
  8 12  2  3
  9 13  1  0
  9 14  2  0
  9 17  1  0
 12 13  1  0
 13 25  1  0
 14 15  1  0
 15 16  2  0
 15 18  1  0
 16 17  1  0
 18 19  2  0
 18 23  1  0
 19 20  1  0
 19 24  1  0
 20 21  2  0
 21 22  1  0
 22 23  2  0
  1 26  1  0
  2 27  1  0
  3 28  1  0
  6 29  1  0
  8 30  1  0
 16 31  1  0
 20 32  1  0
 21 33  1  0
 22 34  1  0
 23 35  1  0
 25 36  1  0
 25 37  1  0
 25 38  1  0
M  CHG  1  10  -1
M  END
>  <filename_input>  (6) 
6M2B_EZO_docked.sdf

>  <pdb_id>  (6) 
6M2B_EZO

>  <pose_rank>  (6) 
5

>  <num_atoms_heavy>  (6) 
25

>  <num_torsions>  (6) 
4

>  <pose>  (6) 
[27.11206944417099, -22.210462132726175, 23.218867216496463, -1.0445152124231063, 0.36546314737396257, -6.003158158727443, -0.8977439337833241, 0.3970859155683877, 2.5567614973512733, -3.7674642235716527]

>  <energy>  (6) 
-781.2290602994605

>  <inter_energy>  (6) 
-851.7084687392866

>  <intra_energy>  (6) 
80.94332123384689

>  <rmsd>  (6) 
2.40246

>  <sdf_rank>  (6) 
0

$$$$

     RDKit          3D

 38 40  0  0  0  0  0  0  0  0999 V2000
   28.9225  -23.3425   22.6866 C   0  0  0  0  0  0  0  0  0  0  0  0
   29.6231  -23.2135   21.4975 C   0  0  0  0  0  0  0  0  0  0  0  0
   30.8521  -22.6230   21.5204 C   0  0  0  0  0  0  0  0  0  0  0  0
   31.4339  -22.1692   22.7075 C   0  0  0  0  0  0  0  0  0  0  0  0
   30.7339  -22.2612   23.8889 C   0  0  0  0  0  0  0  0  0  0  0  0
   29.4855  -22.8719   23.8680 C   0  0  0  0  0  0  0  0  0  0  0  0
   31.2562  -21.7769   25.2107 C   0  0  0  0  0  0  0  0  0  0  0  0
   32.7718  -21.5657   22.6485 C   0  0  0  0  0  0  0  0  0  0  0  0
   34.2833  -18.6969   21.6911 C   0  0  0  0  0  0  0  0  0  0  0  0
   32.3858  -22.1110   25.6386 O   0  0  0  0  0  0  0  0  0  0  0  0
   30.5274  -20.9622   25.9337 O   0  0  0  0  0  0  0  0  0  0  0  0
   32.9452  -20.3364   22.6243 N   0  0  0  0  0  0  0  0  0  0  0  0
   34.1947  -19.7708   22.5181 N   0  0  0  0  0  0  0  0  0  0  0  0
   35.2665  -17.7983   21.7688 N   0  0  0  0  0  0  0  0  0  0  0  0
   35.1086  -16.7466   20.9073 C   0  0  0  0  0  0  0  0  0  0  0  0
   33.9354  -16.8714   20.1950 C   0  0  0  0  0  0  0  0  0  0  0  0
   33.0558  -18.2819   20.5846 S   0  0  0  0  0  0  0  0  0  0  0  0
   36.0182  -15.5812   20.9024 C   0  0  0  0  0  0  0  0  0  0  0  0
   35.8052  -14.4274   21.5999 C   0  0  0  0  0  0  0  0  0  0  0  0
   36.6571  -13.3240   21.5159 C   0  0  0  0  0  0  0  0  0  0  0  0
   37.7274  -13.4188   20.6491 C   0  0  0  0  0  0  0  0  0  0  0  0
   37.9567  -14.5862   19.9244 C   0  0  0  0  0  0  0  0  0  0  0  0
   37.0997  -15.6538   19.9980 C   0  0  0  0  0  0  0  0  0  0  0  0
   34.4555  -14.3441   22.7204 Cl  0  0  0  0  0  0  0  0  0  0  0  0
   35.2007  -20.0278   23.5757 C   0  0  0  0  0  0  0  0  0  0  0  0
   27.9285  -23.8137   22.6957 H   0  0  0  0  0  0  0  0  0  0  0  0
   29.1956  -23.5806   20.5528 H   0  0  0  0  0  0  0  0  0  0  0  0
   31.4024  -22.5000   20.5759 H   0  0  0  0  0  0  0  0  0  0  0  0
   28.9287  -22.9859   24.8098 H   0  0  0  0  0  0  0  0  0  0  0  0
   33.6512  -22.2262   22.6250 H   0  0  0  0  0  0  0  0  0  0  0  0
   33.5992  -16.1355   19.4496 H   0  0  0  0  0  0  0  0  0  0  0  0
   36.4828  -12.4180   22.1149 H   0  0  0  0  0  0  0  0  0  0  0  0
   38.4072  -12.5624   20.5293 H   0  0  0  0  0  0  0  0  0  0  0  0
   38.8448  -14.6529   19.2788 H   0  0  0  0  0  0  0  0  0  0  0  0
   37.2508  -16.5434   19.3689 H   0  0  0  0  0  0  0  0  0  0  0  0
   34.7326  -19.9082   24.5639 H   0  0  0  0  0  0  0  0  0  0  0  0
   35.5858  -21.0532   23.4740 H   0  0  0  0  0  0  0  0  0  0  0  0
   36.0304  -19.3128   23.4740 H   0  0  0  0  0  0  0  0  0  0  0  0
  1  2  2  0
  1  6  1  0
  2  3  1  0
  3  4  2  0
  4  5  1  0
  4  8  1  0
  5  6  2  0
  5  7  1  0
  7 10  1  0
  7 11  2  0
  8 12  2  3
  9 13  1  0
  9 14  2  0
  9 17  1  0
 12 13  1  0
 13 25  1  0
 14 15  1  0
 15 16  2  0
 15 18  1  0
 16 17  1  0
 18 19  2  0
 18 23  1  0
 19 20  1  0
 19 24  1  0
 20 21  2  0
 21 22  1  0
 22 23  2  0
  1 26  1  0
  2 27  1  0
  3 28  1  0
  6 29  1  0
  8 30  1  0
 16 31  1  0
 20 32  1  0
 21 33  1  0
 22 34  1  0
 23 35  1  0
 25 36  1  0
 25 37  1  0
 25 38  1  0
M  CHG  1  10  -1
M  END
>  <filename_input>  (7) 
6M2B_EZO_docked.sdf

>  <pdb_id>  (7) 
6M2B_EZO

>  <pose_rank>  (7) 
6

>  <num_atoms_heavy>  (7) 
25

>  <num_torsions>  (7) 
4

>  <pose>  (7) 
[34.28333004434812, -18.69691716759195, 21.691084382582073, 1.1489751921100038, -1.6215161704154653, 2.863578820347655, 3.809890159184516, -0.7381705701959227, 2.245006333963116, -1.3711756047726473]

>  <energy>  (7) 
-482.9671944038111

>  <inter_energy>  (7) 
-481.34741380507535

>  <intra_energy>  (7) 
11.420264092340153

>  <rmsd>  (7) 
10.6941

>  <sdf_rank>  (7) 
0

$$$$

     RDKit          3D

 38 40  0  0  0  0  0  0  0  0999 V2000
   18.1350  -27.6129   30.3010 C   0  0  0  0  0  0  0  0  0  0  0  0
   19.3934  -28.1943   30.3037 C   0  0  0  0  0  0  0  0  0  0  0  0
   20.0922  -28.2524   29.1340 C   0  0  0  0  0  0  0  0  0  0  0  0
   19.5886  -27.7217   27.9431 C   0  0  0  0  0  0  0  0  0  0  0  0
   18.3269  -27.1725   27.9208 C   0  0  0  0  0  0  0  0  0  0  0  0
   17.6181  -27.1039   29.1145 C   0  0  0  0  0  0  0  0  0  0  0  0
   17.6836  -26.6037   26.6890 C   0  0  0  0  0  0  0  0  0  0  0  0
   20.4155  -27.8045   26.7318 C   0  0  0  0  0  0  0  0  0  0  0  0
   21.5963  -25.8015   24.2523 C   0  0  0  0  0  0  0  0  0  0  0  0
   17.1796  -27.3373   25.8067 O   0  0  0  0  0  0  0  0  0  0  0  0
   17.6213  -25.3037   26.5347 O   0  0  0  0  0  0  0  0  0  0  0  0
   20.9704  -26.8098   26.2375 N   0  0  0  0  0  0  0  0  0  0  0  0
   21.7033  -26.8768   25.0752 N   0  0  0  0  0  0  0  0  0  0  0  0
   22.5044  -25.5055   23.3206 N   0  0  0  0  0  0  0  0  0  0  0  0
   22.2511  -24.3272   22.6720 C   0  0  0  0  0  0  0  0  0  0  0  0
   21.1230  -23.7220   23.1828 C   0  0  0  0  0  0  0  0  0  0  0  0
   20.3871  -24.6153   24.4380 S   0  0  0  0  0  0  0  0  0  0  0  0
   23.1845  -23.7496   21.6820 C   0  0  0  0  0  0  0  0  0  0  0  0
   24.2304  -22.9278   21.9885 C   0  0  0  0  0  0  0  0  0  0  0  0
   25.0494  -22.3502   21.0159 C   0  0  0  0  0  0  0  0  0  0  0  0
   24.7360  -22.6051   19.6959 C   0  0  0  0  0  0  0  0  0  0  0  0
   23.6684  -23.4362   19.3642 C   0  0  0  0  0  0  0  0  0  0  0  0
   22.8577  -23.9783   20.3278 C   0  0  0  0  0  0  0  0  0  0  0  0
   24.6282  -22.6457   23.6756 Cl  0  0  0  0  0  0  0  0  0  0  0  0
   22.8483  -27.8141   24.9915 C   0  0  0  0  0  0  0  0  0  0  0  0
   17.5497  -27.5546   31.2305 H   0  0  0  0  0  0  0  0  0  0  0  0
   19.8204  -28.6014   31.2321 H   0  0  0  0  0  0  0  0  0  0  0  0
   21.0824  -28.7315   29.1277 H   0  0  0  0  0  0  0  0  0  0  0  0
   16.6230  -26.6351   29.1209 H   0  0  0  0  0  0  0  0  0  0  0  0
   20.5478  -28.7823   26.2456 H   0  0  0  0  0  0  0  0  0  0  0  0
   20.7355  -22.7593   22.8180 H   0  0  0  0  0  0  0  0  0  0  0  0
   25.9075  -21.7190   21.2901 H   0  0  0  0  0  0  0  0  0  0  0  0
   25.3366  -22.1465   18.8964 H   0  0  0  0  0  0  0  0  0  0  0  0
   23.4715  -23.6626   18.3059 H   0  0  0  0  0  0  0  0  0  0  0  0
   21.9758  -24.5756   20.0530 H   0  0  0  0  0  0  0  0  0  0  0  0
   23.1768  -28.0831   26.0063 H   0  0  0  0  0  0  0  0  0  0  0  0
   22.5400  -28.7224   24.4531 H   0  0  0  0  0  0  0  0  0  0  0  0
   23.6778  -27.3325   24.4531 H   0  0  0  0  0  0  0  0  0  0  0  0
  1  2  2  0
  1  6  1  0
  2  3  1  0
  3  4  2  0
  4  5  1  0
  4  8  1  0
  5  6  2  0
  5  7  1  0
  7 10  1  0
  7 11  2  0
  8 12  2  3
  9 13  1  0
  9 14  2  0
  9 17  1  0
 12 13  1  0
 13 25  1  0
 14 15  1  0
 15 16  2  0
 15 18  1  0
 16 17  1  0
 18 19  2  0
 18 23  1  0
 19 20  1  0
 19 24  1  0
 20 21  2  0
 21 22  1  0
 22 23  2  0
  1 26  1  0
  2 27  1  0
  3 28  1  0
  6 29  1  0
  8 30  1  0
 16 31  1  0
 20 32  1  0
 21 33  1  0
 22 34  1  0
 23 35  1  0
 25 36  1  0
 25 37  1  0
 25 38  1  0
M  CHG  1  10  -1
M  END
>  <filename_input>  (8) 
6M2B_EZO_docked.sdf

>  <pdb_id>  (8) 
6M2B_EZO

>  <pose_rank>  (8) 
7

>  <num_atoms_heavy>  (8) 
25

>  <num_torsions>  (8) 
4

>  <pose>  (8) 
[21.59631994520928, -25.801500927954383, 24.25228342640554, 1.3905043948629219, -1.4816333119179366, 1.5768888774195253, -2.3639465849694794, -13.22841871038722, -7.635057241261121, 0.8821613888783649]

>  <energy>  (8) 
-509.0681230077707

>  <inter_energy>  (8) 
-507.03031439878106

>  <intra_energy>  (8) 
6.2637832987075655

>  <rmsd>  (8) 
10.6083

>  <sdf_rank>  (8) 
0

$$$$

     RDKit          3D

 38 40  0  0  0  0  0  0  0  0999 V2000
   19.7736  -28.5730   27.9717 C   0  0  0  0  0  0  0  0  0  0  0  0
   21.0356  -28.0933   27.6573 C   0  0  0  0  0  0  0  0  0  0  0  0
   21.1630  -27.2027   26.6325 C   0  0  0  0  0  0  0  0  0  0  0  0
   20.0589  -26.7422   25.9097 C   0  0  0  0  0  0  0  0  0  0  0  0
   18.8055  -27.2367   26.1903 C   0  0  0  0  0  0  0  0  0  0  0  0
   18.6735  -28.1368   27.2412 C   0  0  0  0  0  0  0  0  0  0  0  0
   17.5616  -26.8301   25.4540 C   0  0  0  0  0  0  0  0  0  0  0  0
   20.2800  -25.7648   24.8358 C   0  0  0  0  0  0  0  0  0  0  0  0
   22.4286  -24.3814   23.0098 C   0  0  0  0  0  0  0  0  0  0  0  0
   16.9832  -27.6029   24.6548 O   0  0  0  0  0  0  0  0  0  0  0  0
   17.0451  -25.6441   25.6647 O   0  0  0  0  0  0  0  0  0  0  0  0
   21.0159  -26.0013   23.8639 N   0  0  0  0  0  0  0  0  0  0  0  0
   21.2638  -25.0686   22.8836 N   0  0  0  0  0  0  0  0  0  0  0  0
   23.0198  -23.7586   21.9887 N   0  0  0  0  0  0  0  0  0  0  0  0
   24.2319  -23.2130   22.3152 C   0  0  0  0  0  0  0  0  0  0  0  0
   24.5508  -23.4838   23.6284 C   0  0  0  0  0  0  0  0  0  0  0  0
   23.3531  -24.3894   24.4412 S   0  0  0  0  0  0  0  0  0  0  0  0
   25.1109  -22.5747   21.3127 C   0  0  0  0  0  0  0  0  0  0  0  0
   25.0113  -22.7585   19.9638 C   0  0  0  0  0  0  0  0  0  0  0  0
   25.9042  -22.1878   19.0542 C   0  0  0  0  0  0  0  0  0  0  0  0
   26.9466  -21.4473   19.5746 C   0  0  0  0  0  0  0  0  0  0  0  0
   27.0677  -21.2545   20.9490 C   0  0  0  0  0  0  0  0  0  0  0  0
   26.1981  -21.8396   21.8327 C   0  0  0  0  0  0  0  0  0  0  0  0
   23.6578  -23.6773   19.3252 Cl  0  0  0  0  0  0  0  0  0  0  0  0
   20.5538  -25.1716   21.5868 C   0  0  0  0  0  0  0  0  0  0  0  0
   19.6433  -29.2932   28.7928 H   0  0  0  0  0  0  0  0  0  0  0  0
   21.9181  -28.4250   28.2241 H   0  0  0  0  0  0  0  0  0  0  0  0
   22.1653  -26.8356   26.3665 H   0  0  0  0  0  0  0  0  0  0  0  0
   17.6735  -28.5137   27.5017 H   0  0  0  0  0  0  0  0  0  0  0  0
   19.7759  -24.7888   24.8945 H   0  0  0  0  0  0  0  0  0  0  0  0
   25.4840  -23.1497   24.1054 H   0  0  0  0  0  0  0  0  0  0  0  0
   25.7821  -22.3226   17.9693 H   0  0  0  0  0  0  0  0  0  0  0  0
   27.6904  -21.0043   18.8960 H   0  0  0  0  0  0  0  0  0  0  0  0
   27.8789  -20.6188   21.3336 H   0  0  0  0  0  0  0  0  0  0  0  0
   26.3437  -21.7389   22.9184 H   0  0  0  0  0  0  0  0  0  0  0  0
   19.4800  -25.3275   21.7680 H   0  0  0  0  0  0  0  0  0  0  0  0
   20.6981  -24.2431   21.0149 H   0  0  0  0  0  0  0  0  0  0  0  0
   20.9562  -26.0208   21.0149 H   0  0  0  0  0  0  0  0  0  0  0  0
  1  2  2  0
  1  6  1  0
  2  3  1  0
  3  4  2  0
  4  5  1  0
  4  8  1  0
  5  6  2  0
  5  7  1  0
  7 10  1  0
  7 11  2  0
  8 12  2  3
  9 13  1  0
  9 14  2  0
  9 17  1  0
 12 13  1  0
 13 25  1  0
 14 15  1  0
 15 16  2  0
 15 18  1  0
 16 17  1  0
 18 19  2  0
 18 23  1  0
 19 20  1  0
 19 24  1  0
 20 21  2  0
 21 22  1  0
 22 23  2  0
  1 26  1  0
  2 27  1  0
  3 28  1  0
  6 29  1  0
  8 30  1  0
 16 31  1  0
 20 32  1  0
 21 33  1  0
 22 34  1  0
 23 35  1  0
 25 36  1  0
 25 37  1  0
 25 38  1  0
M  CHG  1  10  -1
M  END
>  <filename_input>  (9) 
6M2B_EZO_docked.sdf

>  <pdb_id>  (9) 
6M2B_EZO

>  <pose_rank>  (9) 
8

>  <num_atoms_heavy>  (9) 
25

>  <num_torsions>  (9) 
4

>  <pose>  (9) 
[22.428570772152845, -24.381362330142135, 23.009804771176334, 0.8592392722677754, -2.015960196651136, -0.7191417598949371, 11.405300439293493, -1.446237596126559, 7.842494476604618, 1.4070097584174786]

>  <energy>  (9) 
-446.02426300653053

>  <inter_energy>  (9) 
-492.00437103805973

>  <intra_energy>  (9) 
31.996645174584266

>  <rmsd>  (9) 
10.0996

>  <sdf_rank>  (9) 
0

$$$$

     RDKit          3D

 38 40  0  0  0  0  0  0  0  0999 V2000
   31.0473  -23.1191   22.7937 C   0  0  0  0  0  0  0  0  0  0  0  0
   31.4050  -22.5696   21.5725 C   0  0  0  0  0  0  0  0  0  0  0  0
   32.1090  -21.4016   21.5591 C   0  0  0  0  0  0  0  0  0  0  0  0
   32.5004  -20.7591   22.7370 C   0  0  0  0  0  0  0  0  0  0  0  0
   32.1221  -21.2771   23.9547 C   0  0  0  0  0  0  0  0  0  0  0  0
   31.4133  -22.4726   23.9694 C   0  0  0  0  0  0  0  0  0  0  0  0
   32.4652  -20.6482   25.2743 C   0  0  0  0  0  0  0  0  0  0  0  0
   33.2771  -19.5165   22.6349 C   0  0  0  0  0  0  0  0  0  0  0  0
   34.2527  -17.2422   20.6130 C   0  0  0  0  0  0  0  0  0  0  0  0
   31.6602  -20.6442   26.2348 O   0  0  0  0  0  0  0  0  0  0  0  0
   33.6468  -20.1070   25.4439 O   0  0  0  0  0  0  0  0  0  0  0  0
   32.8966  -18.5496   21.9550 N   0  0  0  0  0  0  0  0  0  0  0  0
   33.6470  -17.4048   21.8179 N   0  0  0  0  0  0  0  0  0  0  0  0
   34.6648  -16.0567   20.1604 N   0  0  0  0  0  0  0  0  0  0  0  0
   35.1578  -16.1054   18.8845 C   0  0  0  0  0  0  0  0  0  0  0  0
   35.0662  -17.3826   18.3746 C   0  0  0  0  0  0  0  0  0  0  0  0
   34.3908  -18.5014   19.4733 S   0  0  0  0  0  0  0  0  0  0  0  0
   35.5657  -14.8925   18.1444 C   0  0  0  0  0  0  0  0  0  0  0  0
   36.6647  -14.1376   18.4369 C   0  0  0  0  0  0  0  0  0  0  0  0
   36.9783  -12.9608   17.7534 C   0  0  0  0  0  0  0  0  0  0  0  0
   36.0969  -12.5464   16.7750 C   0  0  0  0  0  0  0  0  0  0  0  0
   34.9669  -13.3007   16.4675 C   0  0  0  0  0  0  0  0  0  0  0  0
   34.6578  -14.4418   17.1618 C   0  0  0  0  0  0  0  0  0  0  0  0
   37.7873  -14.7036   19.6630 Cl  0  0  0  0  0  0  0  0  0  0  0  0
   33.4032  -16.2628   22.7305 C   0  0  0  0  0  0  0  0  0  0  0  0
   30.4782  -24.0596   22.8327 H   0  0  0  0  0  0  0  0  0  0  0  0
   31.1262  -23.0664   20.6315 H   0  0  0  0  0  0  0  0  0  0  0  0
   32.3768  -20.9515   20.5918 H   0  0  0  0  0  0  0  0  0  0  0  0
   31.1348  -22.9188   24.9356 H   0  0  0  0  0  0  0  0  0  0  0  0
   34.2295  -19.4398   23.1800 H   0  0  0  0  0  0  0  0  0  0  0  0
   35.3954  -17.6540   17.3607 H   0  0  0  0  0  0  0  0  0  0  0  0
   37.8888  -12.3885   17.9848 H   0  0  0  0  0  0  0  0  0  0  0  0
   36.2892  -11.6094   16.2318 H   0  0  0  0  0  0  0  0  0  0  0  0
   34.3080  -12.9737   15.6496 H   0  0  0  0  0  0  0  0  0  0  0  0
   33.7270  -14.9916   16.9586 H   0  0  0  0  0  0  0  0  0  0  0  0
   33.4762  -16.6049   23.7734 H   0  0  0  0  0  0  0  0  0  0  0  0
   34.1546  -15.4805   22.5477 H   0  0  0  0  0  0  0  0  0  0  0  0
   32.3979  -15.8555   22.5477 H   0  0  0  0  0  0  0  0  0  0  0  0
  1  2  2  0
  1  6  1  0
  2  3  1  0
  3  4  2  0
  4  5  1  0
  4  8  1  0
  5  6  2  0
  5  7  1  0
  7 10  1  0
  7 11  2  0
  8 12  2  3
  9 13  1  0
  9 14  2  0
  9 17  1  0
 12 13  1  0
 13 25  1  0
 14 15  1  0
 15 16  2  0
 15 18  1  0
 16 17  1  0
 18 19  2  0
 18 23  1  0
 19 20  1  0
 19 24  1  0
 20 21  2  0
 21 22  1  0
 22 23  2  0
  1 26  1  0
  2 27  1  0
  3 28  1  0
  6 29  1  0
  8 30  1  0
 16 31  1  0
 20 32  1  0
 21 33  1  0
 22 34  1  0
 23 35  1  0
 25 36  1  0
 25 37  1  0
 25 38  1  0
M  CHG  1  10  -1
M  END
>  <filename_input>  (10) 
6M2B_EZO_docked.sdf

>  <pdb_id>  (10) 
6M2B_EZO

>  <pose_rank>  (10) 
9

>  <num_atoms_heavy>  (10) 
25

>  <num_torsions>  (10) 
4

>  <pose>  (10) 
[34.25270295580877, -17.242209168248436, 20.613022614917547, 0.6685911815901008, 0.6598610470421709, 3.8082993455518412, 0.3817932375876485, -1.307693584178053, -4.8263844006783785, 2.008904798111574]

>  <energy>  (10) 
-296.7761334737623

>  <inter_energy>  (10) 
-305.05617365311895

>  <intra_energy>  (10) 
20.4688104648014

>  <rmsd>  (10) 
11.0522

>  <sdf_rank>  (10) 
0

$$$$

     RDKit          3D

 38 40  0  0  0  0  0  0  0  0999 V2000
   20.6136  -30.2073   28.3149 C   0  0  0  0  0  0  0  0  0  0  0  0
   21.7499  -29.8079   27.6288 C   0  0  0  0  0  0  0  0  0  0  0  0
   21.6977  -28.6707   26.8779 C   0  0  0  0  0  0  0  0  0  0  0  0
   20.5436  -27.8859   26.8013 C   0  0  0  0  0  0  0  0  0  0  0  0
   19.3995  -28.2902   27.4507 C   0  0  0  0  0  0  0  0  0  0  0  0
   19.4548  -29.4437   28.2242 C   0  0  0  0  0  0  0  0  0  0  0  0
   18.1019  -27.5359   27.4072 C   0  0  0  0  0  0  0  0  0  0  0  0
   20.5782  -26.6629   25.9886 C   0  0  0  0  0  0  0  0  0  0  0  0
   22.1852  -25.0511   23.8212 C   0  0  0  0  0  0  0  0  0  0  0  0
   17.3353  -27.5942   26.4176 O   0  0  0  0  0  0  0  0  0  0  0  0
   17.7408  -26.8123   28.4386 O   0  0  0  0  0  0  0  0  0  0  0  0
   20.8479  -26.6784   24.7766 N   0  0  0  0  0  0  0  0  0  0  0  0
   20.9302  -25.5288   24.0255 N   0  0  0  0  0  0  0  0  0  0  0  0
   22.4941  -24.2222   22.8223 N   0  0  0  0  0  0  0  0  0  0  0  0
   23.8319  -23.9444   22.7429 C   0  0  0  0  0  0  0  0  0  0  0  0
   24.5315  -24.6333   23.7102 C   0  0  0  0  0  0  0  0  0  0  0  0
   23.5348  -25.5970   24.7067 S   0  0  0  0  0  0  0  0  0  0  0  0
   24.4117  -23.1396   21.6468 C   0  0  0  0  0  0  0  0  0  0  0  0
   24.1302  -23.3145   20.3227 C   0  0  0  0  0  0  0  0  0  0  0  0
   24.7503  -22.5754   19.3130 C   0  0  0  0  0  0  0  0  0  0  0  0
   25.7160  -21.6676   19.6991 C   0  0  0  0  0  0  0  0  0  0  0  0
   26.0209  -21.4804   21.0454 C   0  0  0  0  0  0  0  0  0  0  0  0
   25.4218  -22.2290   22.0253 C   0  0  0  0  0  0  0  0  0  0  0  0
   22.8747  -24.4519   19.8600 Cl  0  0  0  0  0  0  0  0  0  0  0  0
   19.7982  -25.1535   23.1456 C   0  0  0  0  0  0  0  0  0  0  0  0
   20.6284  -31.1214   28.9266 H   0  0  0  0  0  0  0  0  0  0  0  0
   22.6767  -30.3974   27.6888 H   0  0  0  0  0  0  0  0  0  0  0  0
   22.5911  -28.3615   26.3155 H   0  0  0  0  0  0  0  0  0  0  0  0
   18.5592  -29.7607   28.7787 H   0  0  0  0  0  0  0  0  0  0  0  0
   20.3573  -25.6991   26.4706 H   0  0  0  0  0  0  0  0  0  0  0  0
   25.6232  -24.5687   23.8283 H   0  0  0  0  0  0  0  0  0  0  0  0
   24.4808  -22.7109   18.2551 H   0  0  0  0  0  0  0  0  0  0  0  0
   26.2510  -21.0851   18.9345 H   0  0  0  0  0  0  0  0  0  0  0  0
   26.7587  -20.7151   21.3285 H   0  0  0  0  0  0  0  0  0  0  0  0
   25.7203  -22.1228   23.0787 H   0  0  0  0  0  0  0  0  0  0  0  0
   18.9337  -24.8668   23.7625 H   0  0  0  0  0  0  0  0  0  0  0  0
   20.0930  -24.3050   22.5107 H   0  0  0  0  0  0  0  0  0  0  0  0
   19.5276  -26.0100   22.5107 H   0  0  0  0  0  0  0  0  0  0  0  0
  1  2  2  0
  1  6  1  0
  2  3  1  0
  3  4  2  0
  4  5  1  0
  4  8  1  0
  5  6  2  0
  5  7  1  0
  7 10  1  0
  7 11  2  0
  8 12  2  3
  9 13  1  0
  9 14  2  0
  9 17  1  0
 12 13  1  0
 13 25  1  0
 14 15  1  0
 15 16  2  0
 15 18  1  0
 16 17  1  0
 18 19  2  0
 18 23  1  0
 19 20  1  0
 19 24  1  0
 20 21  2  0
 21 22  1  0
 22 23  2  0
  1 26  1  0
  2 27  1  0
  3 28  1  0
  6 29  1  0
  8 30  1  0
 16 31  1  0
 20 32  1  0
 21 33  1  0
 22 34  1  0
 23 35  1  0
 25 36  1  0
 25 37  1  0
 25 38  1  0
M  CHG  1  10  -1
M  END
>  <filename_input>  (11) 
6M2B_EZO_docked.sdf

>  <pdb_id>  (11) 
6M2B_EZO

>  <pose_rank>  (11) 
10

>  <num_atoms_heavy>  (11) 
25

>  <num_torsions>  (11) 
4

>  <pose>  (11) 
[22.185164120200042, -25.051089648783226, 23.82119428502249, 0.6300583532755824, -1.6659458149243764, -1.1935186972805005, 10.9087849517641, -1.4409673265914196, 7.831944958164392, 0.8866090652226309]

>  <energy>  (11) 
-446.9559135132117

>  <inter_energy>  (11) 
-462.3179537064536

>  <intra_energy>  (11) 
19.82170888159864

>  <rmsd>  (11) 
10.1409

>  <sdf_rank>  (11) 
0

$$$$

     RDKit          3D

 38 40  0  0  0  0  0  0  0  0999 V2000
   24.6384  -22.6879   21.3227 C   0  0  0  0  0  0  0  0  0  0  0  0
   24.6428  -22.5442   22.7013 C   0  0  0  0  0  0  0  0  0  0  0  0
   23.6173  -23.0830   23.4209 C   0  0  0  0  0  0  0  0  0  0  0  0
   22.5797  -23.7952   22.8127 C   0  0  0  0  0  0  0  0  0  0  0  0
   22.5467  -23.9154   21.4421 C   0  0  0  0  0  0  0  0  0  0  0  0
   23.5967  -23.3752   20.7089 C   0  0  0  0  0  0  0  0  0  0  0  0
   21.4624  -24.6330   20.6911 C   0  0  0  0  0  0  0  0  0  0  0  0
   21.5253  -24.3639   23.6627 C   0  0  0  0  0  0  0  0  0  0  0  0
   20.9132  -27.0192   25.7062 C   0  0  0  0  0  0  0  0  0  0  0  0
   20.2569  -24.5418   21.0212 O   0  0  0  0  0  0  0  0  0  0  0  0
   21.7731  -25.3584   19.6446 O   0  0  0  0  0  0  0  0  0  0  0  0
   21.5389  -25.5486   24.0344 N   0  0  0  0  0  0  0  0  0  0  0  0
   20.5266  -26.0958   24.7882 N   0  0  0  0  0  0  0  0  0  0  0  0
   20.1715  -27.3457   26.7661 N   0  0  0  0  0  0  0  0  0  0  0  0
   20.7931  -28.2232   27.6129 C   0  0  0  0  0  0  0  0  0  0  0  0
   22.0615  -28.5201   27.1626 C   0  0  0  0  0  0  0  0  0  0  0  0
   22.4622  -27.7294   25.7034 S   0  0  0  0  0  0  0  0  0  0  0  0
   20.2023  -28.6334   28.9043 C   0  0  0  0  0  0  0  0  0  0  0  0
   20.1212  -29.9223   29.3463 C   0  0  0  0  0  0  0  0  0  0  0  0
   19.4955  -30.2737   30.5443 C   0  0  0  0  0  0  0  0  0  0  0  0
   18.9055  -29.2574   31.2688 C   0  0  0  0  0  0  0  0  0  0  0  0
   18.9728  -27.9370   30.8299 C   0  0  0  0  0  0  0  0  0  0  0  0
   19.5696  -27.6082   29.6402 C   0  0  0  0  0  0  0  0  0  0  0  0
   20.9081  -31.1923   28.4232 Cl  0  0  0  0  0  0  0  0  0  0  0  0
   19.2333  -25.3802   24.8963 C   0  0  0  0  0  0  0  0  0  0  0  0
   25.4528  -22.2616   20.7185 H   0  0  0  0  0  0  0  0  0  0  0  0
   25.4584  -22.0053   23.2057 H   0  0  0  0  0  0  0  0  0  0  0  0
   23.6064  -22.9533   24.5132 H   0  0  0  0  0  0  0  0  0  0  0  0
   23.6039  -23.4942   19.6154 H   0  0  0  0  0  0  0  0  0  0  0  0
   20.6942  -23.7174   23.9811 H   0  0  0  0  0  0  0  0  0  0  0  0
   22.7473  -29.1989   27.6907 H   0  0  0  0  0  0  0  0  0  0  0  0
   19.4737  -31.3158   30.8958 H   0  0  0  0  0  0  0  0  0  0  0  0
   18.3759  -29.4931   32.2037 H   0  0  0  0  0  0  0  0  0  0  0  0
   18.5375  -27.1407   31.4515 H   0  0  0  0  0  0  0  0  0  0  0  0
   19.5557  -26.5729   29.2688 H   0  0  0  0  0  0  0  0  0  0  0  0
   18.9795  -25.2398   25.9574 H   0  0  0  0  0  0  0  0  0  0  0  0
   19.3150  -24.3990   24.4059 H   0  0  0  0  0  0  0  0  0  0  0  0
   18.4454  -25.9707   24.4059 H   0  0  0  0  0  0  0  0  0  0  0  0
  1  2  2  0
  1  6  1  0
  2  3  1  0
  3  4  2  0
  4  5  1  0
  4  8  1  0
  5  6  2  0
  5  7  1  0
  7 10  1  0
  7 11  2  0
  8 12  2  3
  9 13  1  0
  9 14  2  0
  9 17  1  0
 12 13  1  0
 13 25  1  0
 14 15  1  0
 15 16  2  0
 15 18  1  0
 16 17  1  0
 18 19  2  0
 18 23  1  0
 19 20  1  0
 19 24  1  0
 20 21  2  0
 21 22  1  0
 22 23  2  0
  1 26  1  0
  2 27  1  0
  3 28  1  0
  6 29  1  0
  8 30  1  0
 16 31  1  0
 20 32  1  0
 21 33  1  0
 22 34  1  0
 23 35  1  0
 25 36  1  0
 25 37  1  0
 25 38  1  0
M  CHG  1  10  -1
M  END
>  <filename_input>  (12) 
6M2B_EZO_docked.sdf

>  <pdb_id>  (12) 
6M2B_EZO

>  <pose_rank>  (12) 
11

>  <num_atoms_heavy>  (12) 
25

>  <num_torsions>  (12) 
4

>  <pose>  (12) 
[20.9132258461359, -27.01923269221508, 25.706194095301385, -2.1885879597099787, -0.6502913360005081, 1.256597264187745, 1.477455136034104, -5.687845404359457, -1.1656909460758225, 0.22120914723985663]

>  <energy>  (12) 
-322.80857564862447

>  <inter_energy>  (12) 
-332.13740924930283

>  <intra_energy>  (12) 
23.404978466579138

>  <rmsd>  (12) 
9.80288

>  <sdf_rank>  (12) 
0

$$$$

     RDKit          3D

 38 40  0  0  0  0  0  0  0  0999 V2000
   20.6878  -29.7241   28.8931 C   0  0  0  0  0  0  0  0  0  0  0  0
   21.7773  -29.1128   28.2926 C   0  0  0  0  0  0  0  0  0  0  0  0
   21.5548  -28.1786   27.3242 C   0  0  0  0  0  0  0  0  0  0  0  0
   20.2645  -27.8032   26.9398 C   0  0  0  0  0  0  0  0  0  0  0  0
   19.1757  -28.4272   27.5047 C   0  0  0  0  0  0  0  0  0  0  0  0
   19.4014  -29.3721   28.4987 C   0  0  0  0  0  0  0  0  0  0  0  0
   17.7521  -28.1185   27.1400 C   0  0  0  0  0  0  0  0  0  0  0  0
   20.1118  -26.7718   25.9050 C   0  0  0  0  0  0  0  0  0  0  0  0
   21.5493  -25.3260   23.4718 C   0  0  0  0  0  0  0  0  0  0  0  0
   16.9765  -28.9981   26.6981 O   0  0  0  0  0  0  0  0  0  0  0  0
   17.2916  -26.9030   27.3078 O   0  0  0  0  0  0  0  0  0  0  0  0
   20.4851  -26.9461   24.7337 N   0  0  0  0  0  0  0  0  0  0  0  0
   20.3889  -25.9632   23.7760 N   0  0  0  0  0  0  0  0  0  0  0  0
   21.7364  -24.6616   22.3300 N   0  0  0  0  0  0  0  0  0  0  0  0
   23.0093  -24.1798   22.1858 C   0  0  0  0  0  0  0  0  0  0  0  0
   23.7929  -24.5428   23.2599 C   0  0  0  0  0  0  0  0  0  0  0  0
   22.9510  -25.4553   24.4320 S   0  0  0  0  0  0  0  0  0  0  0  0
   23.4696  -23.5110   20.9504 C   0  0  0  0  0  0  0  0  0  0  0  0
   22.9140  -23.6916   19.7168 C   0  0  0  0  0  0  0  0  0  0  0  0
   23.4213  -23.0904   18.5629 C   0  0  0  0  0  0  0  0  0  0  0  0
   24.5595  -22.3215   18.7012 C   0  0  0  0  0  0  0  0  0  0  0  0
   25.1438  -22.1314   19.9514 C   0  0  0  0  0  0  0  0  0  0  0  0
   24.6498  -22.7462   21.0728 C   0  0  0  0  0  0  0  0  0  0  0  0
   21.4478  -24.6474   19.5727 Cl  0  0  0  0  0  0  0  0  0  0  0  0
   19.2303  -25.9605   22.8518 C   0  0  0  0  0  0  0  0  0  0  0  0
   20.8395  -30.4819   29.6758 H   0  0  0  0  0  0  0  0  0  0  0  0
   22.8026  -29.3763   28.5915 H   0  0  0  0  0  0  0  0  0  0  0  0
   22.4170  -27.7063   26.8308 H   0  0  0  0  0  0  0  0  0  0  0  0
   18.5407  -29.8538   28.9858 H   0  0  0  0  0  0  0  0  0  0  0  0
   19.6503  -25.8112   26.1775 H   0  0  0  0  0  0  0  0  0  0  0  0
   24.8549  -24.2717   23.3528 H   0  0  0  0  0  0  0  0  0  0  0  0
   22.9347  -23.2239   17.5854 H   0  0  0  0  0  0  0  0  0  0  0  0
   25.0103  -21.8535   17.8137 H   0  0  0  0  0  0  0  0  0  0  0  0
   26.0209  -21.4736   20.0408 H   0  0  0  0  0  0  0  0  0  0  0  0
   25.1596  -22.6461   22.0424 H   0  0  0  0  0  0  0  0  0  0  0  0
   18.2970  -25.9583   23.4339 H   0  0  0  0  0  0  0  0  0  0  0  0
   19.2691  -25.0624   22.2178 H   0  0  0  0  0  0  0  0  0  0  0  0
   19.2649  -26.8587   22.2178 H   0  0  0  0  0  0  0  0  0  0  0  0
  1  2  2  0
  1  6  1  0
  2  3  1  0
  3  4  2  0
  4  5  1  0
  4  8  1  0
  5  6  2  0
  5  7  1  0
  7 10  1  0
  7 11  2  0
  8 12  2  3
  9 13  1  0
  9 14  2  0
  9 17  1  0
 12 13  1  0
 13 25  1  0
 14 15  1  0
 15 16  2  0
 15 18  1  0
 16 17  1  0
 18 19  2  0
 18 23  1  0
 19 20  1  0
 19 24  1  0
 20 21  2  0
 21 22  1  0
 22 23  2  0
  1 26  1  0
  2 27  1  0
  3 28  1  0
  6 29  1  0
  8 30  1  0
 16 31  1  0
 20 32  1  0
 21 33  1  0
 22 34  1  0
 23 35  1  0
 25 36  1  0
 25 37  1  0
 25 38  1  0
M  CHG  1  10  -1
M  END
>  <filename_input>  (13) 
6M2B_EZO_docked.sdf

>  <pdb_id>  (13) 
6M2B_EZO

>  <pose_rank>  (13) 
12

>  <num_atoms_heavy>  (13) 
25

>  <num_torsions>  (13) 
4

>  <pose>  (13) 
[21.549255419508455, -25.32598599250103, 23.47180629267933, 0.6423271975053222, -1.6722251524026883, -0.8975450162704846, 11.308094752787326, -1.3618913942034545, 7.94992283628996, 1.6438467221380353]

>  <energy>  (13) 
-381.6588670259461

>  <inter_energy>  (13) 
-420.8506428125971

>  <intra_energy>  (13) 
32.39143280189638

>  <rmsd>  (13) 
10.3126

>  <sdf_rank>  (13) 
0

$$$$

     RDKit          3D

 38 40  0  0  0  0  0  0  0  0999 V2000
   27.8955  -19.4053   13.3391 C   0  0  0  0  0  0  0  0  0  0  0  0
   28.1611  -19.8042   14.6398 C   0  0  0  0  0  0  0  0  0  0  0  0
   27.1229  -19.9175   15.5167 C   0  0  0  0  0  0  0  0  0  0  0  0
   25.8012  -19.6686   15.1361 C   0  0  0  0  0  0  0  0  0  0  0  0
   25.5290  -19.2394   13.8571 C   0  0  0  0  0  0  0  0  0  0  0  0
   26.5853  -19.1334   12.9599 C   0  0  0  0  0  0  0  0  0  0  0  0
   24.1498  -18.9170   13.3586 C   0  0  0  0  0  0  0  0  0  0  0  0
   24.7385  -19.8365   16.1361 C   0  0  0  0  0  0  0  0  0  0  0  0
   23.9419  -21.9355   18.7863 C   0  0  0  0  0  0  0  0  0  0  0  0
   23.5572  -17.8625   13.6866 O   0  0  0  0  0  0  0  0  0  0  0  0
   23.5502  -19.7441   12.5376 O   0  0  0  0  0  0  0  0  0  0  0  0
   24.7926  -20.7035   17.0233 N   0  0  0  0  0  0  0  0  0  0  0  0
   23.7751  -20.8950   17.9292 N   0  0  0  0  0  0  0  0  0  0  0  0
   23.2974  -22.0288   19.9508 N   0  0  0  0  0  0  0  0  0  0  0  0
   23.6870  -23.1053   20.7009 C   0  0  0  0  0  0  0  0  0  0  0  0
   24.6881  -23.8068   20.0643 C   0  0  0  0  0  0  0  0  0  0  0  0
   25.1224  -23.1419   18.5528 S   0  0  0  0  0  0  0  0  0  0  0  0
   23.1865  -23.3402   22.0719 C   0  0  0  0  0  0  0  0  0  0  0  0
   23.9786  -23.5869   23.1558 C   0  0  0  0  0  0  0  0  0  0  0  0
   23.4621  -23.8691   24.4222 C   0  0  0  0  0  0  0  0  0  0  0  0
   22.0884  -23.9371   24.5416 C   0  0  0  0  0  0  0  0  0  0  0  0
   21.2645  -23.6945   23.4448 C   0  0  0  0  0  0  0  0  0  0  0  0
   21.7844  -23.4418   22.2017 C   0  0  0  0  0  0  0  0  0  0  0  0
   25.7220  -23.4620   22.9850 Cl  0  0  0  0  0  0  0  0  0  0  0  0
   22.8482  -19.7777   18.2273 C   0  0  0  0  0  0  0  0  0  0  0  0
   28.7149  -19.3046   12.6121 H   0  0  0  0  0  0  0  0  0  0  0  0
   29.1903  -20.0253   14.9587 H   0  0  0  0  0  0  0  0  0  0  0  0
   27.3319  -20.2137   16.5552 H   0  0  0  0  0  0  0  0  0  0  0  0
   26.3798  -18.8265   11.9238 H   0  0  0  0  0  0  0  0  0  0  0  0
   23.8638  -19.1705   16.0977 H   0  0  0  0  0  0  0  0  0  0  0  0
   25.1602  -24.7056   20.4877 H   0  0  0  0  0  0  0  0  0  0  0  0
   24.1216  -24.0302   25.2877 H   0  0  0  0  0  0  0  0  0  0  0  0
   21.6391  -24.1858   25.5144 H   0  0  0  0  0  0  0  0  0  0  0  0
   20.1728  -23.7060   23.5791 H   0  0  0  0  0  0  0  0  0  0  0  0
   21.1265  -23.3212   21.3284 H   0  0  0  0  0  0  0  0  0  0  0  0
   22.7521  -19.6618   19.3170 H   0  0  0  0  0  0  0  0  0  0  0  0
   23.2436  -18.8475   17.7932 H   0  0  0  0  0  0  0  0  0  0  0  0
   21.8610  -19.9944   17.7932 H   0  0  0  0  0  0  0  0  0  0  0  0
  1  2  2  0
  1  6  1  0
  2  3  1  0
  3  4  2  0
  4  5  1  0
  4  8  1  0
  5  6  2  0
  5  7  1  0
  7 10  1  0
  7 11  2  0
  8 12  2  3
  9 13  1  0
  9 14  2  0
  9 17  1  0
 12 13  1  0
 13 25  1  0
 14 15  1  0
 15 16  2  0
 15 18  1  0
 16 17  1  0
 18 19  2  0
 18 23  1  0
 19 20  1  0
 19 24  1  0
 20 21  2  0
 21 22  1  0
 22 23  2  0
  1 26  1  0
  2 27  1  0
  3 28  1  0
  6 29  1  0
  8 30  1  0
 16 31  1  0
 20 32  1  0
 21 33  1  0
 22 34  1  0
 23 35  1  0
 25 36  1  0
 25 37  1  0
 25 38  1  0
M  CHG  1  10  -1
M  END
>  <filename_input>  (14) 
6M2B_EZO_docked.sdf

>  <pdb_id>  (14) 
6M2B_EZO

>  <pose_rank>  (14) 
13

>  <num_atoms_heavy>  (14) 
25

>  <num_torsions>  (14) 
4

>  <pose>  (14) 
[23.94186163698136, -21.935463369402257, 18.786258939688473, -2.052695117428217, -0.19203500163321255, 1.203344131219314, 3.186709732994459, -0.08726160064371967, -0.062473087621754436, 0.8328419714112205]

>  <energy>  (14) 
-356.8350209601996

>  <inter_energy>  (14) 
-355.081131847513

>  <intra_energy>  (14) 
11.903383811463653

>  <rmsd>  (14) 
8.24685

>  <sdf_rank>  (14) 
0

$$$$

     RDKit          3D

 38 40  0  0  0  0  0  0  0  0999 V2000
   27.5327  -22.3958   22.3550 C   0  0  0  0  0  0  0  0  0  0  0  0
   27.3133  -22.7183   23.6851 C   0  0  0  0  0  0  0  0  0  0  0  0
   26.0500  -23.0446   24.0818 C   0  0  0  0  0  0  0  0  0  0  0  0
   24.9796  -23.0878   23.1841 C   0  0  0  0  0  0  0  0  0  0  0  0
   25.1784  -22.7370   21.8682 C   0  0  0  0  0  0  0  0  0  0  0  0
   26.4675  -22.4140   21.4610 C   0  0  0  0  0  0  0  0  0  0  0  0
   24.0908  -22.7216   20.8330 C   0  0  0  0  0  0  0  0  0  0  0  0
   23.6545  -23.4718   23.6884 C   0  0  0  0  0  0  0  0  0  0  0  0
   21.9500  -26.1200   24.9223 C   0  0  0  0  0  0  0  0  0  0  0  0
   24.2819  -22.2723   19.6788 O   0  0  0  0  0  0  0  0  0  0  0  0
   22.9117  -23.2119   21.1280 O   0  0  0  0  0  0  0  0  0  0  0  0
   23.2724  -24.6528   23.7190 N   0  0  0  0  0  0  0  0  0  0  0  0
   22.0133  -25.0088   24.1437 N   0  0  0  0  0  0  0  0  0  0  0  0
   20.9254  -26.3803   25.7363 N   0  0  0  0  0  0  0  0  0  0  0  0
   21.1114  -27.5005   26.5004 C   0  0  0  0  0  0  0  0  0  0  0  0
   22.3465  -28.0599   26.2534 C   0  0  0  0  0  0  0  0  0  0  0  0
   23.2499  -27.2105   25.0796 S   0  0  0  0  0  0  0  0  0  0  0  0
   20.1556  -27.9130   27.5499 C   0  0  0  0  0  0  0  0  0  0  0  0
   18.7973  -27.8853   27.4172 C   0  0  0  0  0  0  0  0  0  0  0  0
   17.9282  -28.2216   28.4572 C   0  0  0  0  0  0  0  0  0  0  0  0
   18.4962  -28.5499   29.6719 C   0  0  0  0  0  0  0  0  0  0  0  0
   19.8803  -28.5773   29.8275 C   0  0  0  0  0  0  0  0  0  0  0  0
   20.7222  -28.2222   28.8054 C   0  0  0  0  0  0  0  0  0  0  0  0
   18.1004  -27.4963   25.8529 Cl  0  0  0  0  0  0  0  0  0  0  0  0
   20.9313  -23.9960   24.1379 C   0  0  0  0  0  0  0  0  0  0  0  0
   28.5418  -22.1275   22.0091 H   0  0  0  0  0  0  0  0  0  0  0  0
   28.1429  -22.7111   24.4074 H   0  0  0  0  0  0  0  0  0  0  0  0
   25.8679  -23.2810   25.1406 H   0  0  0  0  0  0  0  0  0  0  0  0
   26.6498  -22.1664   20.4048 H   0  0  0  0  0  0  0  0  0  0  0  0
   22.9768  -22.6852   24.0519 H   0  0  0  0  0  0  0  0  0  0  0  0
   22.7137  -28.9636   26.7617 H   0  0  0  0  0  0  0  0  0  0  0  0
   16.8375  -28.2248   28.3147 H   0  0  0  0  0  0  0  0  0  0  0  0
   17.8483  -28.7927   30.5270 H   0  0  0  0  0  0  0  0  0  0  0  0
   20.3071  -28.8906   30.7917 H   0  0  0  0  0  0  0  0  0  0  0  0
   21.8105  -28.1793   28.9595 H   0  0  0  0  0  0  0  0  0  0  0  0
   20.6607  -23.7427   25.1736 H   0  0  0  0  0  0  0  0  0  0  0  0
   21.2789  -23.0911   23.6180 H   0  0  0  0  0  0  0  0  0  0  0  0
   20.0513  -24.4025   23.6180 H   0  0  0  0  0  0  0  0  0  0  0  0
  1  2  2  0
  1  6  1  0
  2  3  1  0
  3  4  2  0
  4  5  1  0
  4  8  1  0
  5  6  2  0
  5  7  1  0
  7 10  1  0
  7 11  2  0
  8 12  2  3
  9 13  1  0
  9 14  2  0
  9 17  1  0
 12 13  1  0
 13 25  1  0
 14 15  1  0
 15 16  2  0
 15 18  1  0
 16 17  1  0
 18 19  2  0
 18 23  1  0
 19 20  1  0
 19 24  1  0
 20 21  2  0
 21 22  1  0
 22 23  2  0
  1 26  1  0
  2 27  1  0
  3 28  1  0
  6 29  1  0
  8 30  1  0
 16 31  1  0
 20 32  1  0
 21 33  1  0
 22 34  1  0
 23 35  1  0
 25 36  1  0
 25 37  1  0
 25 38  1  0
M  CHG  1  10  -1
M  END
>  <filename_input>  (15) 
6M2B_EZO_docked.sdf

>  <pdb_id>  (15) 
6M2B_EZO

>  <pose_rank>  (15) 
14

>  <num_atoms_heavy>  (15) 
25

>  <num_torsions>  (15) 
4

>  <pose>  (15) 
[21.950012569097503, -26.120020370786776, 24.922326218469156, -2.200878739415291, -0.5203708532218777, 0.8114271323657509, -0.10187591738561728, -5.586570712004104, -1.032801773634837, 2.5399526480724934]

>  <energy>  (15) 
-367.60006816137013

>  <inter_energy>  (15) 
-419.8169898544844

>  <intra_energy>  (15) 
43.31753633998916

>  <rmsd>  (15) 
7.80291

>  <sdf_rank>  (15) 
0

$$$$

     RDKit          3D

 38 40  0  0  0  0  0  0  0  0999 V2000
   28.5345  -18.7611   12.6069 C   0  0  0  0  0  0  0  0  0  0  0  0
   28.0855  -20.0457   12.8708 C   0  0  0  0  0  0  0  0  0  0  0  0
   27.0905  -20.2182   13.7873 C   0  0  0  0  0  0  0  0  0  0  0  0
   26.4954  -19.1389   14.4465 C   0  0  0  0  0  0  0  0  0  0  0  0
   26.9556  -17.8621   14.2179 C   0  0  0  0  0  0  0  0  0  0  0  0
   27.9628  -17.6846   13.2766 C   0  0  0  0  0  0  0  0  0  0  0  0
   26.4055  -16.6406   14.8960 C   0  0  0  0  0  0  0  0  0  0  0  0
   25.4133  -19.4093   15.4023 C   0  0  0  0  0  0  0  0  0  0  0  0
   24.5364  -21.7795   17.7808 C   0  0  0  0  0  0  0  0  0  0  0  0
   26.9137  -16.1806   15.9452 O   0  0  0  0  0  0  0  0  0  0  0  0
   25.3799  -16.0168   14.3701 O   0  0  0  0  0  0  0  0  0  0  0  0
   25.3860  -20.4351   16.1015 N   0  0  0  0  0  0  0  0  0  0  0  0
   24.3478  -20.7139   16.9600 N   0  0  0  0  0  0  0  0  0  0  0  0
   23.8563  -21.9528   18.9155 N   0  0  0  0  0  0  0  0  0  0  0  0
   24.2730  -23.0390   19.6366 C   0  0  0  0  0  0  0  0  0  0  0  0
   25.3305  -23.6633   19.0108 C   0  0  0  0  0  0  0  0  0  0  0  0
   25.7842  -22.9156   17.5444 S   0  0  0  0  0  0  0  0  0  0  0  0
   23.7364  -23.3550   20.9772 C   0  0  0  0  0  0  0  0  0  0  0  0
   22.6303  -24.1202   21.2100 C   0  0  0  0  0  0  0  0  0  0  0  0
   22.1181  -24.3404   22.4904 C   0  0  0  0  0  0  0  0  0  0  0  0
   22.7536  -23.7086   23.5406 C   0  0  0  0  0  0  0  0  0  0  0  0
   23.8800  -22.9188   23.3211 C   0  0  0  0  0  0  0  0  0  0  0  0
   24.3589  -22.6915   22.0567 C   0  0  0  0  0  0  0  0  0  0  0  0
   21.8599  -24.9394   19.8612 Cl  0  0  0  0  0  0  0  0  0  0  0  0
   23.3554  -19.6569   17.2671 C   0  0  0  0  0  0  0  0  0  0  0  0
   29.3369  -18.5944   11.8732 H   0  0  0  0  0  0  0  0  0  0  0  0
   28.5238  -20.9102   12.3505 H   0  0  0  0  0  0  0  0  0  0  0  0
   26.7457  -21.2377   14.0146 H   0  0  0  0  0  0  0  0  0  0  0  0
   28.3168  -16.6668   13.0558 H   0  0  0  0  0  0  0  0  0  0  0  0
   24.5983  -18.6773   15.5022 H   0  0  0  0  0  0  0  0  0  0  0  0
   25.8322  -24.5546   19.4158 H   0  0  0  0  0  0  0  0  0  0  0  0
   21.2455  -24.9896   22.6552 H   0  0  0  0  0  0  0  0  0  0  0  0
   22.3660  -23.8303   24.5628 H   0  0  0  0  0  0  0  0  0  0  0  0
   24.3965  -22.4676   24.1811 H   0  0  0  0  0  0  0  0  0  0  0  0
   25.2057  -22.0102   21.8878 H   0  0  0  0  0  0  0  0  0  0  0  0
   23.2569  -19.5520   18.3577 H   0  0  0  0  0  0  0  0  0  0  0  0
   23.6910  -18.7023   16.8358 H   0  0  0  0  0  0  0  0  0  0  0  0
   22.3815  -19.9318   16.8358 H   0  0  0  0  0  0  0  0  0  0  0  0
  1  2  2  0
  1  6  1  0
  2  3  1  0
  3  4  2  0
  4  5  1  0
  4  8  1  0
  5  6  2  0
  5  7  1  0
  7 10  1  0
  7 11  2  0
  8 12  2  3
  9 13  1  0
  9 14  2  0
  9 17  1  0
 12 13  1  0
 13 25  1  0
 14 15  1  0
 15 16  2  0
 15 18  1  0
 16 17  1  0
 18 19  2  0
 18 23  1  0
 19 20  1  0
 19 24  1  0
 20 21  2  0
 21 22  1  0
 22 23  2  0
  1 26  1  0
  2 27  1  0
  3 28  1  0
  6 29  1  0
  8 30  1  0
 16 31  1  0
 20 32  1  0
 21 33  1  0
 22 34  1  0
 23 35  1  0
 25 36  1  0
 25 37  1  0
 25 38  1  0
M  CHG  1  10  -1
M  END
>  <filename_input>  (16) 
6M2B_EZO_docked.sdf

>  <pdb_id>  (16) 
6M2B_EZO

>  <pose_rank>  (16) 
15

>  <num_atoms_heavy>  (16) 
25

>  <num_torsions>  (16) 
4

>  <pose>  (16) 
[24.536435141069315, -21.779539672132866, 17.780829450513494, -2.04656682922361, -0.28469844985561105, 1.182917822790627, 0.7018464629814954, 0.12315657905506258, 1.1141037304588477, 1.1539351031555498]

>  <energy>  (16) 
-313.0612392571092

>  <inter_energy>  (16) 
-307.28583711895067

>  <intra_energy>  (16) 
0.08677076674582977

>  <rmsd>  (16) 
8.03133

>  <sdf_rank>  (16) 
0

$$$$

     RDKit          3D

 38 40  0  0  0  0  0  0  0  0999 V2000
   32.7579  -32.3191   26.9569 C   0  0  0  0  0  0  0  0  0  0  0  0
   31.6916  -32.3995   26.0749 C   0  0  0  0  0  0  0  0  0  0  0  0
   31.9270  -32.2265   24.7428 C   0  0  0  0  0  0  0  0  0  0  0  0
   33.2112  -31.9967   24.2412 C   0  0  0  0  0  0  0  0  0  0  0  0
   34.2723  -31.8812   25.1100 C   0  0  0  0  0  0  0  0  0  0  0  0
   34.0349  -32.0673   26.4668 C   0  0  0  0  0  0  0  0  0  0  0  0
   35.6830  -31.6058   24.6757 C   0  0  0  0  0  0  0  0  0  0  0  0
   33.3820  -31.8445   22.7902 C   0  0  0  0  0  0  0  0  0  0  0  0
   31.5431  -31.6698   19.9120 C   0  0  0  0  0  0  0  0  0  0  0  0
   36.3582  -30.6736   25.1714 O   0  0  0  0  0  0  0  0  0  0  0  0
   36.2410  -32.3717   23.7702 O   0  0  0  0  0  0  0  0  0  0  0  0
   32.4744  -32.1052   21.9839 N   0  0  0  0  0  0  0  0  0  0  0  0
   32.6492  -32.0114   20.6226 N   0  0  0  0  0  0  0  0  0  0  0  0
   31.5993  -31.1478   18.6855 N   0  0  0  0  0  0  0  0  0  0  0  0
   30.3741  -30.7867   18.1937 C   0  0  0  0  0  0  0  0  0  0  0  0
   29.3853  -31.0265   19.1234 C   0  0  0  0  0  0  0  0  0  0  0  0
   29.9743  -31.7026   20.5763 S   0  0  0  0  0  0  0  0  0  0  0  0
   30.2123  -30.0868   16.9017 C   0  0  0  0  0  0  0  0  0  0  0  0
   30.4665  -28.7609   16.7000 C   0  0  0  0  0  0  0  0  0  0  0  0
   30.2377  -28.1236   15.4786 C   0  0  0  0  0  0  0  0  0  0  0  0
   29.6899  -28.8833   14.4644 C   0  0  0  0  0  0  0  0  0  0  0  0
   29.4179  -30.2364   14.6543 C   0  0  0  0  0  0  0  0  0  0  0  0
   29.6253  -30.8445   15.8654 C   0  0  0  0  0  0  0  0  0  0  0  0
   31.1937  -27.8245   17.9955 Cl  0  0  0  0  0  0  0  0  0  0  0  0
   34.0152  -31.8323   20.0762 C   0  0  0  0  0  0  0  0  0  0  0  0
   32.5953  -32.4533   28.0365 H   0  0  0  0  0  0  0  0  0  0  0  0
   30.6743  -32.5992   26.4426 H   0  0  0  0  0  0  0  0  0  0  0  0
   31.0804  -32.2690   24.0418 H   0  0  0  0  0  0  0  0  0  0  0  0
   34.8784  -32.0142   27.1708 H   0  0  0  0  0  0  0  0  0  0  0  0
   34.3480  -31.4868   22.4043 H   0  0  0  0  0  0  0  0  0  0  0  0
   28.3225  -30.8044   18.9469 H   0  0  0  0  0  0  0  0  0  0  0  0
   30.4834  -27.0617   15.3310 H   0  0  0  0  0  0  0  0  0  0  0  0
   29.4654  -28.4147   13.4948 H   0  0  0  0  0  0  0  0  0  0  0  0
   29.0283  -30.8298   13.8140 H   0  0  0  0  0  0  0  0  0  0  0  0
   29.3417  -31.8952   16.0253 H   0  0  0  0  0  0  0  0  0  0  0  0
   34.7322  -31.7383   20.9051 H   0  0  0  0  0  0  0  0  0  0  0  0
   34.2804  -32.7034   19.4590 H   0  0  0  0  0  0  0  0  0  0  0  0
   34.0469  -30.9223   19.4590 H   0  0  0  0  0  0  0  0  0  0  0  0
  1  2  2  0
  1  6  1  0
  2  3  1  0
  3  4  2  0
  4  5  1  0
  4  8  1  0
  5  6  2  0
  5  7  1  0
  7 10  1  0
  7 11  2  0
  8 12  2  3
  9 13  1  0
  9 14  2  0
  9 17  1  0
 12 13  1  0
 13 25  1  0
 14 15  1  0
 15 16  2  0
 15 18  1  0
 16 17  1  0
 18 19  2  0
 18 23  1  0
 19 20  1  0
 19 24  1  0
 20 21  2  0
 21 22  1  0
 22 23  2  0
  1 26  1  0
  2 27  1  0
  3 28  1  0
  6 29  1  0
  8 30  1  0
 16 31  1  0
 20 32  1  0
 21 33  1  0
 22 34  1  0
 23 35  1  0
 25 36  1  0
 25 37  1  0
 25 38  1  0
M  CHG  1  10  -1
M  END
>  <filename_input>  (17) 
6M2B_EZO_docked.sdf

>  <pdb_id>  (17) 
6M2B_EZO

>  <pose_rank>  (17) 
16

>  <num_atoms_heavy>  (17) 
25

>  <num_torsions>  (17) 
4

>  <pose>  (17) 
[31.543137320475356, -31.66979576177282, 19.912042430557296, -2.7137397212903247, 0.5739420623679276, -2.0645434523465935, -2.1781515674932104, 0.5283061864876826, 0.33979224478534764, 1.7549427239552595]

>  <energy>  (17) 
-242.28070912740998

>  <inter_energy>  (17) 
-228.43271590257953

>  <intra_energy>  (17) 
9.483211151419903

>  <rmsd>  (17) 
10.9378

>  <sdf_rank>  (17) 
0

$$$$

     RDKit          3D

 38 40  0  0  0  0  0  0  0  0999 V2000
   37.6978  -27.1804   15.7044 C   0  0  0  0  0  0  0  0  0  0  0  0
   36.6107  -26.5602   15.1085 C   0  0  0  0  0  0  0  0  0  0  0  0
   35.3542  -26.9402   15.4781 C   0  0  0  0  0  0  0  0  0  0  0  0
   35.1323  -27.9150   16.4549 C   0  0  0  0  0  0  0  0  0  0  0  0
   36.2031  -28.5615   17.0290 C   0  0  0  0  0  0  0  0  0  0  0  0
   37.4840  -28.1679   16.6602 C   0  0  0  0  0  0  0  0  0  0  0  0
   36.0714  -29.6419   18.0635 C   0  0  0  0  0  0  0  0  0  0  0  0
   33.7473  -28.2496   16.8118 C   0  0  0  0  0  0  0  0  0  0  0  0
   30.9120  -29.3572   15.4277 C   0  0  0  0  0  0  0  0  0  0  0  0
   36.5318  -30.7930   17.8806 O   0  0  0  0  0  0  0  0  0  0  0  0
   35.4810  -29.3762   19.2030 O   0  0  0  0  0  0  0  0  0  0  0  0
   33.0823  -29.0864   16.1797 N   0  0  0  0  0  0  0  0  0  0  0  0
   31.7691  -29.3638   16.4814 N   0  0  0  0  0  0  0  0  0  0  0  0
   29.7313  -29.9784   15.4468 N   0  0  0  0  0  0  0  0  0  0  0  0
   29.0726  -29.9271   14.2482 C   0  0  0  0  0  0  0  0  0  0  0  0
   29.8286  -29.2664   13.3040 C   0  0  0  0  0  0  0  0  0  0  0  0
   31.3254  -28.7087   13.9072 S   0  0  0  0  0  0  0  0  0  0  0  0
   27.8014  -30.6429   14.0099 C   0  0  0  0  0  0  0  0  0  0  0  0
   26.7186  -30.1105   13.3718 C   0  0  0  0  0  0  0  0  0  0  0  0
   25.5123  -30.7988   13.2253 C   0  0  0  0  0  0  0  0  0  0  0  0
   25.4281  -32.0518   13.7988 C   0  0  0  0  0  0  0  0  0  0  0  0
   26.5210  -32.6084   14.4595 C   0  0  0  0  0  0  0  0  0  0  0  0
   27.6919  -31.9129   14.6167 C   0  0  0  0  0  0  0  0  0  0  0  0
   26.8620  -28.5287   12.6226 Cl  0  0  0  0  0  0  0  0  0  0  0  0
   31.4471  -30.0655   17.7465 C   0  0  0  0  0  0  0  0  0  0  0  0
   38.7219  -26.8938   15.4234 H   0  0  0  0  0  0  0  0  0  0  0  0
   36.7589  -25.7760   14.3515 H   0  0  0  0  0  0  0  0  0  0  0  0
   34.4890  -26.4650   14.9927 H   0  0  0  0  0  0  0  0  0  0  0  0
   38.3508  -28.6495   17.1364 H   0  0  0  0  0  0  0  0  0  0  0  0
   33.2827  -27.7409   17.6694 H   0  0  0  0  0  0  0  0  0  0  0  0
   29.5003  -29.1135   12.2653 H   0  0  0  0  0  0  0  0  0  0  0  0
   24.6654  -30.3613   12.6764 H   0  0  0  0  0  0  0  0  0  0  0  0
   24.4869  -32.6173   13.7334 H   0  0  0  0  0  0  0  0  0  0  0  0
   26.4427  -33.6284   14.8638 H   0  0  0  0  0  0  0  0  0  0  0  0
   28.5242  -32.3332   15.2004 H   0  0  0  0  0  0  0  0  0  0  0  0
   31.7367  -29.4345   18.5997 H   0  0  0  0  0  0  0  0  0  0  0  0
   30.3665  -30.2667   17.7893 H   0  0  0  0  0  0  0  0  0  0  0  0
   31.9991  -31.0160   17.7893 H   0  0  0  0  0  0  0  0  0  0  0  0
  1  2  2  0
  1  6  1  0
  2  3  1  0
  3  4  2  0
  4  5  1  0
  4  8  1  0
  5  6  2  0
  5  7  1  0
  7 10  1  0
  7 11  2  0
  8 12  2  3
  9 13  1  0
  9 14  2  0
  9 17  1  0
 12 13  1  0
 13 25  1  0
 14 15  1  0
 15 16  2  0
 15 18  1  0
 16 17  1  0
 18 19  2  0
 18 23  1  0
 19 20  1  0
 19 24  1  0
 20 21  2  0
 21 22  1  0
 22 23  2  0
  1 26  1  0
  2 27  1  0
  3 28  1  0
  6 29  1  0
  8 30  1  0
 16 31  1  0
 20 32  1  0
 21 33  1  0
 22 34  1  0
 23 35  1  0
 25 36  1  0
 25 37  1  0
 25 38  1  0
M  CHG  1  10  -1
M  END
>  <filename_input>  (18) 
6M2B_EZO_docked.sdf

>  <pdb_id>  (18) 
6M2B_EZO

>  <pose_rank>  (18) 
17

>  <num_atoms_heavy>  (18) 
25

>  <num_torsions>  (18) 
4

>  <pose>  (18) 
[30.911959166582278, -29.35718154377085, 15.42773320393448, 2.957103502710544, 4.885431829109461, -2.182020903296178, 1.532403934694358, -0.875369374393051, 2.023709401189125, 1.63264815468785]

>  <energy>  (18) 
-222.4985056482499

>  <inter_energy>  (18) 
-237.7739769877866

>  <intra_energy>  (18) 
16.157858877873313

>  <rmsd>  (18) 
10.8316

>  <sdf_rank>  (18) 
0

$$$$

     RDKit          3D

 38 40  0  0  0  0  0  0  0  0999 V2000
   36.8399  -31.9333   23.2980 C   0  0  0  0  0  0  0  0  0  0  0  0
   35.5696  -31.9156   23.8527 C   0  0  0  0  0  0  0  0  0  0  0  0
   34.4905  -31.8652   23.0204 C   0  0  0  0  0  0  0  0  0  0  0  0
   34.6275  -31.8568   21.6294 C   0  0  0  0  0  0  0  0  0  0  0  0
   35.8839  -31.8399   21.0679 C   0  0  0  0  0  0  0  0  0  0  0  0
   36.9841  -31.9013   21.9151 C   0  0  0  0  0  0  0  0  0  0  0  0
   36.1387  -31.8004   19.5886 C   0  0  0  0  0  0  0  0  0  0  0  0
   33.4130  -31.8253   20.8038 C   0  0  0  0  0  0  0  0  0  0  0  0
   31.7122  -29.9184   18.6489 C   0  0  0  0  0  0  0  0  0  0  0  0
   36.9147  -32.6097   19.0288 O   0  0  0  0  0  0  0  0  0  0  0  0
   35.5179  -30.9133   18.8500 O   0  0  0  0  0  0  0  0  0  0  0  0
   32.8668  -30.7624   20.4665 N   0  0  0  0  0  0  0  0  0  0  0  0
   31.7015  -30.7326   19.7360 N   0  0  0  0  0  0  0  0  0  0  0  0
   30.8659  -30.0586   17.6270 N   0  0  0  0  0  0  0  0  0  0  0  0
   31.1154  -29.1955   16.5945 C   0  0  0  0  0  0  0  0  0  0  0  0
   32.2184  -28.4152   16.8667 C   0  0  0  0  0  0  0  0  0  0  0  0
   32.9196  -28.7446   18.3882 S   0  0  0  0  0  0  0  0  0  0  0  0
   30.3733  -29.2504   15.3171 C   0  0  0  0  0  0  0  0  0  0  0  0
   29.4590  -28.3223   14.9101 C   0  0  0  0  0  0  0  0  0  0  0  0
   28.7310  -28.4462   13.7247 C   0  0  0  0  0  0  0  0  0  0  0  0
   28.9354  -29.5880   12.9762 C   0  0  0  0  0  0  0  0  0  0  0  0
   29.8598  -30.5489   13.3794 C   0  0  0  0  0  0  0  0  0  0  0  0
   30.5509  -30.4268   14.5572 C   0  0  0  0  0  0  0  0  0  0  0  0
   29.2415  -26.8633   15.8631 Cl  0  0  0  0  0  0  0  0  0  0  0  0
   30.7319  -31.8455   19.8694 C   0  0  0  0  0  0  0  0  0  0  0  0
   37.7273  -31.9722   23.9469 H   0  0  0  0  0  0  0  0  0  0  0  0
   35.4345  -31.9417   24.9440 H   0  0  0  0  0  0  0  0  0  0  0  0
   33.4815  -31.8302   23.4570 H   0  0  0  0  0  0  0  0  0  0  0  0
   37.9944  -31.9253   21.4809 H   0  0  0  0  0  0  0  0  0  0  0  0
   32.9718  -32.7770   20.4727 H   0  0  0  0  0  0  0  0  0  0  0  0
   32.6081  -27.6558   16.1728 H   0  0  0  0  0  0  0  0  0  0  0  0
   28.0250  -27.6671   13.4013 H   0  0  0  0  0  0  0  0  0  0  0  0
   28.3614  -29.7408   12.0503 H   0  0  0  0  0  0  0  0  0  0  0  0
   30.0392  -31.4250   12.7388 H   0  0  0  0  0  0  0  0  0  0  0  0
   31.2260  -31.2243   14.9009 H   0  0  0  0  0  0  0  0  0  0  0  0
   30.5534  -32.0505   20.9353 H   0  0  0  0  0  0  0  0  0  0  0  0
   29.7842  -31.5661   19.3860 H   0  0  0  0  0  0  0  0  0  0  0  0
   31.1386  -32.7460   19.3860 H   0  0  0  0  0  0  0  0  0  0  0  0
  1  2  2  0
  1  6  1  0
  2  3  1  0
  3  4  2  0
  4  5  1  0
  4  8  1  0
  5  6  2  0
  5  7  1  0
  7 10  1  0
  7 11  2  0
  8 12  2  3
  9 13  1  0
  9 14  2  0
  9 17  1  0
 12 13  1  0
 13 25  1  0
 14 15  1  0
 15 16  2  0
 15 18  1  0
 16 17  1  0
 18 19  2  0
 18 23  1  0
 19 20  1  0
 19 24  1  0
 20 21  2  0
 21 22  1  0
 22 23  2  0
  1 26  1  0
  2 27  1  0
  3 28  1  0
  6 29  1  0
  8 30  1  0
 16 31  1  0
 20 32  1  0
 21 33  1  0
 22 34  1  0
 23 35  1  0
 25 36  1  0
 25 37  1  0
 25 38  1  0
M  CHG  1  10  -1
M  END
>  <filename_input>  (19) 
6M2B_EZO_docked.sdf

>  <pdb_id>  (19) 
6M2B_EZO

>  <pose_rank>  (19) 
18

>  <num_atoms_heavy>  (19) 
25

>  <num_torsions>  (19) 
4

>  <pose>  (19) 
[31.712181349543528, -29.918403998733858, 18.648858091448922, 0.5443617102998026, -0.843223764312152, -0.13333071225323806, 1.0590562117533349, 0.8438039399377015, -4.214658700500292, -2.731938475639298]

>  <energy>  (19) 
-179.47379937089934

>  <inter_energy>  (19) 
-194.9999930672416

>  <intra_energy>  (19) 
19.236124749255875

>  <rmsd>  (19) 
11.0585

>  <sdf_rank>  (19) 
0

$$$$

     RDKit          3D

 38 40  0  0  0  0  0  0  0  0999 V2000
   33.1488  -21.2568   22.7509 C   0  0  0  0  0  0  0  0  0  0  0  0
   32.6411  -21.1150   24.0329 C   0  0  0  0  0  0  0  0  0  0  0  0
   31.3920  -21.5922   24.3009 C   0  0  0  0  0  0  0  0  0  0  0  0
   30.6226  -22.2401   23.3305 C   0  0  0  0  0  0  0  0  0  0  0  0
   31.1021  -22.3568   22.0457 C   0  0  0  0  0  0  0  0  0  0  0  0
   32.3791  -21.8797   21.7743 C   0  0  0  0  0  0  0  0  0  0  0  0
   30.3430  -23.0072   20.9253 C   0  0  0  0  0  0  0  0  0  0  0  0
   29.2959  -22.7455   23.7076 C   0  0  0  0  0  0  0  0  0  0  0  0
   26.2671  -22.5143   23.7599 C   0  0  0  0  0  0  0  0  0  0  0  0
   30.7497  -22.9688   19.7405 O   0  0  0  0  0  0  0  0  0  0  0  0
   29.2352  -23.6565   21.1875 O   0  0  0  0  0  0  0  0  0  0  0  0
   28.4646  -22.0451   24.3078 N   0  0  0  0  0  0  0  0  0  0  0  0
   27.2414  -22.5325   24.7062 N   0  0  0  0  0  0  0  0  0  0  0  0
   25.1814  -23.2875   23.8191 N   0  0  0  0  0  0  0  0  0  0  0  0
   24.3795  -23.1810   22.7151 C   0  0  0  0  0  0  0  0  0  0  0  0
   24.9288  -22.3143   21.7950 C   0  0  0  0  0  0  0  0  0  0  0  0
   26.4099  -21.6363   22.3066 S   0  0  0  0  0  0  0  0  0  0  0  0
   23.1843  -24.0283   22.5176 C   0  0  0  0  0  0  0  0  0  0  0  0
   23.0146  -25.2696   23.0594 C   0  0  0  0  0  0  0  0  0  0  0  0
   21.8978  -26.0650   22.7941 C   0  0  0  0  0  0  0  0  0  0  0  0
   20.9643  -25.5652   21.9084 C   0  0  0  0  0  0  0  0  0  0  0  0
   21.1241  -24.3030   21.3408 C   0  0  0  0  0  0  0  0  0  0  0  0
   22.2366  -23.5419   21.5912 C   0  0  0  0  0  0  0  0  0  0  0  0
   24.2000  -25.8687   24.2083 Cl  0  0  0  0  0  0  0  0  0  0  0  0
   27.1638  -23.4195   25.8909 C   0  0  0  0  0  0  0  0  0  0  0  0
   34.1530  -20.8795   22.5078 H   0  0  0  0  0  0  0  0  0  0  0  0
   33.2348  -20.6266   24.8197 H   0  0  0  0  0  0  0  0  0  0  0  0
   30.9773  -21.4632   25.3116 H   0  0  0  0  0  0  0  0  0  0  0  0
   32.7913  -21.9977   20.7613 H   0  0  0  0  0  0  0  0  0  0  0  0
   29.0295  -23.7810   23.4493 H   0  0  0  0  0  0  0  0  0  0  0  0
   24.4597  -22.0825   20.8274 H   0  0  0  0  0  0  0  0  0  0  0  0
   21.7676  -27.0479   23.2705 H   0  0  0  0  0  0  0  0  0  0  0  0
   20.0837  -26.1707   21.6477 H   0  0  0  0  0  0  0  0  0  0  0  0
   20.3406  -23.9084   20.6772 H   0  0  0  0  0  0  0  0  0  0  0  0
   22.3868  -22.5776   21.0836 H   0  0  0  0  0  0  0  0  0  0  0  0
   27.2168  -22.8131   26.8071 H   0  0  0  0  0  0  0  0  0  0  0  0
   26.2137  -23.9736   25.8725 H   0  0  0  0  0  0  0  0  0  0  0  0
   28.0032  -24.1302   25.8725 H   0  0  0  0  0  0  0  0  0  0  0  0
  1  2  2  0
  1  6  1  0
  2  3  1  0
  3  4  2  0
  4  5  1  0
  4  8  1  0
  5  6  2  0
  5  7  1  0
  7 10  1  0
  7 11  2  0
  8 12  2  3
  9 13  1  0
  9 14  2  0
  9 17  1  0
 12 13  1  0
 13 25  1  0
 14 15  1  0
 15 16  2  0
 15 18  1  0
 16 17  1  0
 18 19  2  0
 18 23  1  0
 19 20  1  0
 19 24  1  0
 20 21  2  0
 21 22  1  0
 22 23  2  0
  1 26  1  0
  2 27  1  0
  3 28  1  0
  6 29  1  0
  8 30  1  0
 16 31  1  0
 20 32  1  0
 21 33  1  0
 22 34  1  0
 23 35  1  0
 25 36  1  0
 25 37  1  0
 25 38  1  0
M  CHG  1  10  -1
M  END
>  <filename_input>  (20) 
6M2B_EZO_docked.sdf

>  <pdb_id>  (20) 
6M2B_EZO

>  <pose_rank>  (20) 
19

>  <num_atoms_heavy>  (20) 
25

>  <num_torsions>  (20) 
4

>  <pose>  (20) 
[26.267100582193233, -22.514340357958016, 23.75994479930327, 1.9689361487917139, -0.9763664128409549, 6.095549491182177, -1.2987132108174835, 1.6579509916497983, 1.3889569655602172, -3.7541900693990344]

>  <energy>  (20) 
-856.2163108111397

>  <inter_energy>  (20) 
-902.7703433361365

>  <intra_energy>  (20) 
52.85467047359772

>  <rmsd>  (20) 
2.68317

>  <sdf_rank>  (20) 
0

$$$$

     RDKit          3D

 38 40  0  0  0  0  0  0  0  0999 V2000
   32.9815  -18.2204   12.6266 C   0  0  0  0  0  0  0  0  0  0  0  0
   31.7236  -18.7986   12.5582 C   0  0  0  0  0  0  0  0  0  0  0  0
   30.6259  -18.0000   12.6890 C   0  0  0  0  0  0  0  0  0  0  0  0
   30.7324  -16.6173   12.8637 C   0  0  0  0  0  0  0  0  0  0  0  0
   31.9758  -16.0366   12.9669 C   0  0  0  0  0  0  0  0  0  0  0  0
   33.0950  -16.8484   12.8237 C   0  0  0  0  0  0  0  0  0  0  0  0
   32.1976  -14.5676   13.1847 C   0  0  0  0  0  0  0  0  0  0  0  0
   29.4997  -15.8259   12.9727 C   0  0  0  0  0  0  0  0  0  0  0  0
   26.5077  -15.7734   14.5311 C   0  0  0  0  0  0  0  0  0  0  0  0
   31.3794  -13.7078   12.7823 O   0  0  0  0  0  0  0  0  0  0  0  0
   33.2622  -14.1647   13.8343 O   0  0  0  0  0  0  0  0  0  0  0  0
   28.4276  -16.3170   13.3614 N   0  0  0  0  0  0  0  0  0  0  0  0
   27.2611  -15.5897   13.4159 N   0  0  0  0  0  0  0  0  0  0  0  0
   25.5937  -14.8937   14.9443 N   0  0  0  0  0  0  0  0  0  0  0  0
   25.0211  -15.2290   16.1413 C   0  0  0  0  0  0  0  0  0  0  0  0
   25.5723  -16.3909   16.6372 C   0  0  0  0  0  0  0  0  0  0  0  0
   26.7712  -17.0570   15.6204 S   0  0  0  0  0  0  0  0  0  0  0  0
   24.0664  -14.3430   16.8404 C   0  0  0  0  0  0  0  0  0  0  0  0
   22.9417  -13.8144   16.2758 C   0  0  0  0  0  0  0  0  0  0  0  0
   22.1004  -12.9279   16.9517 C   0  0  0  0  0  0  0  0  0  0  0  0
   22.4721  -12.5557   18.2280 C   0  0  0  0  0  0  0  0  0  0  0  0
   23.6200  -13.0801   18.8179 C   0  0  0  0  0  0  0  0  0  0  0  0
   24.4500  -13.9313   18.1351 C   0  0  0  0  0  0  0  0  0  0  0  0
   22.4734  -14.3291   14.6634 Cl  0  0  0  0  0  0  0  0  0  0  0  0
   27.1152  -14.3859   12.5638 C   0  0  0  0  0  0  0  0  0  0  0  0
   33.8833  -18.8421   12.5256 H   0  0  0  0  0  0  0  0  0  0  0  0
   31.6127  -19.8817   12.4014 H   0  0  0  0  0  0  0  0  0  0  0  0
   29.6263  -18.4579   12.6560 H   0  0  0  0  0  0  0  0  0  0  0  0
   34.0958  -16.3941   12.8674 H   0  0  0  0  0  0  0  0  0  0  0  0
   29.5275  -14.7605   12.7004 H   0  0  0  0  0  0  0  0  0  0  0  0
   25.2699  -16.8438   17.5929 H   0  0  0  0  0  0  0  0  0  0  0  0
   21.1809  -12.5427   16.4868 H   0  0  0  0  0  0  0  0  0  0  0  0
   21.8544  -11.8365   18.7860 H   0  0  0  0  0  0  0  0  0  0  0  0
   23.8659  -12.8052   19.8542 H   0  0  0  0  0  0  0  0  0  0  0  0
   25.3901  -14.2841   18.5842 H   0  0  0  0  0  0  0  0  0  0  0  0
   27.0074  -13.4961   13.2015 H   0  0  0  0  0  0  0  0  0  0  0  0
   28.0066  -14.2760   11.9287 H   0  0  0  0  0  0  0  0  0  0  0  0
   26.2234  -14.4921   11.9287 H   0  0  0  0  0  0  0  0  0  0  0  0
  1  2  2  0
  1  6  1  0
  2  3  1  0
  3  4  2  0
  4  5  1  0
  4  8  1  0
  5  6  2  0
  5  7  1  0
  7 10  1  0
  7 11  2  0
  8 12  2  3
  9 13  1  0
  9 14  2  0
  9 17  1  0
 12 13  1  0
 13 25  1  0
 14 15  1  0
 15 16  2  0
 15 18  1  0
 16 17  1  0
 18 19  2  0
 18 23  1  0
 19 20  1  0
 19 24  1  0
 20 21  2  0
 21 22  1  0
 22 23  2  0
  1 26  1  0
  2 27  1  0
  3 28  1  0
  6 29  1  0
  8 30  1  0
 16 31  1  0
 20 32  1  0
 21 33  1  0
 22 34  1  0
 23 35  1  0
 25 36  1  0
 25 37  1  0
 25 38  1  0
M  CHG  1  10  -1
M  END
>  <filename_input>  (21) 
6M2B_EZO_docked.sdf

>  <pdb_id>  (21) 
6M2B_EZO

>  <pose_rank>  (21) 
20

>  <num_atoms_heavy>  (21) 
25

>  <num_torsions>  (21) 
4

>  <pose>  (21) 
[26.507690030706367, -15.77343165747559, 14.531051034545369, 3.383725744163224, -0.5941889283334905, -0.4835376678548888, 0.08166027464462187, 0.7301286733195735, 0.9619417413052828, -0.9778170410331416]

>  <energy>  (21) 
-173.91266908248443

>  <inter_energy>  (21) 
-204.41585218020526

>  <intra_energy>  (21) 
22.617198855250113

>  <rmsd>  (21) 
11.5352

>  <sdf_rank>  (21) 
0

$$$$

     RDKit          3D

 38 40  0  0  0  0  0  0  0  0999 V2000
   23.2819  -12.5092   23.3934 C   0  0  0  0  0  0  0  0  0  0  0  0
   22.2293  -12.8591   22.5621 C   0  0  0  0  0  0  0  0  0  0  0  0
   22.5083  -13.3990   21.3412 C   0  0  0  0  0  0  0  0  0  0  0  0
   23.8194  -13.6321   20.9166 C   0  0  0  0  0  0  0  0  0  0  0  0
   24.8731  -13.2578   21.7189 C   0  0  0  0  0  0  0  0  0  0  0  0
   24.5894  -12.7167   22.9674 C   0  0  0  0  0  0  0  0  0  0  0  0
   26.3157  -13.4368   21.3429 C   0  0  0  0  0  0  0  0  0  0  0  0
   24.0329  -14.2391   19.5961 C   0  0  0  0  0  0  0  0  0  0  0  0
   25.7530  -14.4149   16.9858 C   0  0  0  0  0  0  0  0  0  0  0  0
   26.9733  -12.5251   20.7888 O   0  0  0  0  0  0  0  0  0  0  0  0
   26.9198  -14.5665   21.6199 O   0  0  0  0  0  0  0  0  0  0  0  0
   24.3257  -13.5652   18.5951 N   0  0  0  0  0  0  0  0  0  0  0  0
   24.4762  -14.1259   17.3479 N   0  0  0  0  0  0  0  0  0  0  0  0
   26.0565  -15.2995   16.0342 N   0  0  0  0  0  0  0  0  0  0  0  0
   27.4021  -15.5096   15.8988 C   0  0  0  0  0  0  0  0  0  0  0  0
   28.1070  -14.7669   16.8213 C   0  0  0  0  0  0  0  0  0  0  0  0
   27.1080  -13.8152   17.8271 S   0  0  0  0  0  0  0  0  0  0  0  0
   27.9583  -16.5290   14.9841 C   0  0  0  0  0  0  0  0  0  0  0  0
   27.3819  -17.7397   14.7285 C   0  0  0  0  0  0  0  0  0  0  0  0
   27.9743  -18.7017   13.9076 C   0  0  0  0  0  0  0  0  0  0  0  0
   29.2155  -18.4036   13.3819 C   0  0  0  0  0  0  0  0  0  0  0  0
   29.8217  -17.1756   13.6372 C   0  0  0  0  0  0  0  0  0  0  0  0
   29.2404  -16.2491   14.4637 C   0  0  0  0  0  0  0  0  0  0  0  0
   25.7883  -18.0814   15.3825 Cl  0  0  0  0  0  0  0  0  0  0  0  0
   23.3134  -14.7763   16.6987 C   0  0  0  0  0  0  0  0  0  0  0  0
   23.0844  -12.0705   24.3826 H   0  0  0  0  0  0  0  0  0  0  0  0
   21.1881  -12.7042   22.8813 H   0  0  0  0  0  0  0  0  0  0  0  0
   21.6763  -13.6590   20.6703 H   0  0  0  0  0  0  0  0  0  0  0  0
   25.4202  -12.4458   23.6355 H   0  0  0  0  0  0  0  0  0  0  0  0
   23.9297  -15.3291   19.4902 H   0  0  0  0  0  0  0  0  0  0  0  0
   29.2039  -14.7854   16.9017 H   0  0  0  0  0  0  0  0  0  0  0  0
   27.4733  -19.6564   13.6893 H   0  0  0  0  0  0  0  0  0  0  0  0
   29.7319  -19.1445   12.7539 H   0  0  0  0  0  0  0  0  0  0  0  0
   30.7879  -16.9442   13.1652 H   0  0  0  0  0  0  0  0  0  0  0  0
   29.7593  -15.3122   14.7149 H   0  0  0  0  0  0  0  0  0  0  0  0
   22.6293  -15.1590   17.4705 H   0  0  0  0  0  0  0  0  0  0  0  0
   22.7855  -14.0425   16.0720 H   0  0  0  0  0  0  0  0  0  0  0  0
   23.6625  -15.6102   16.0720 H   0  0  0  0  0  0  0  0  0  0  0  0
  1  2  2  0
  1  6  1  0
  2  3  1  0
  3  4  2  0
  4  5  1  0
  4  8  1  0
  5  6  2  0
  5  7  1  0
  7 10  1  0
  7 11  2  0
  8 12  2  3
  9 13  1  0
  9 14  2  0
  9 17  1  0
 12 13  1  0
 13 25  1  0
 14 15  1  0
 15 16  2  0
 15 18  1  0
 16 17  1  0
 18 19  2  0
 18 23  1  0
 19 20  1  0
 19 24  1  0
 20 21  2  0
 21 22  1  0
 22 23  2  0
  1 26  1  0
  2 27  1  0
  3 28  1  0
  6 29  1  0
  8 30  1  0
 16 31  1  0
 20 32  1  0
 21 33  1  0
 22 34  1  0
 23 35  1  0
 25 36  1  0
 25 37  1  0
 25 38  1  0
M  CHG  1  10  -1
M  END
>  <filename_input>  (22) 
6M2B_EZO_docked.sdf

>  <pdb_id>  (22) 
6M2B_EZO

>  <pose_rank>  (22) 
21

>  <num_atoms_heavy>  (22) 
25

>  <num_torsions>  (22) 
4

>  <pose>  (22) 
[25.753017808781905, -14.4149498834241, 16.985766105679655, 0.8084979888073793, 4.0785279440627376, -0.11421966942708295, -1.4614080746001759, 1.4343369091471936, 2.262196692980725, 1.1607340113718592]

>  <energy>  (22) 
-181.8708626854812

>  <inter_energy>  (22) 
-201.24241951709226

>  <intra_energy>  (22) 
30.925230303773517

>  <rmsd>  (22) 
11.223

>  <sdf_rank>  (22) 
0

$$$$

     RDKit          3D

 38 40  0  0  0  0  0  0  0  0999 V2000
   20.4228  -31.3056   31.8471 C   0  0  0  0  0  0  0  0  0  0  0  0
   21.5587  -32.0998   31.8298 C   0  0  0  0  0  0  0  0  0  0  0  0
   22.7646  -31.5154   31.5771 C   0  0  0  0  0  0  0  0  0  0  0  0
   22.8906  -30.1402   31.3612 C   0  0  0  0  0  0  0  0  0  0  0  0
   21.7662  -29.3468   31.3425 C   0  0  0  0  0  0  0  0  0  0  0  0
   20.5380  -29.9400   31.6099 C   0  0  0  0  0  0  0  0  0  0  0  0
   21.7907  -27.8668   31.0903 C   0  0  0  0  0  0  0  0  0  0  0  0
   24.2295  -29.5867   31.1190 C   0  0  0  0  0  0  0  0  0  0  0  0
   27.3877  -29.8237   31.8724 C   0  0  0  0  0  0  0  0  0  0  0  0
   21.5246  -27.3826   29.9654 O   0  0  0  0  0  0  0  0  0  0  0  0
   22.0738  -27.0488   32.0744 O   0  0  0  0  0  0  0  0  0  0  0  0
   25.0969  -29.5344   32.0060 N   0  0  0  0  0  0  0  0  0  0  0  0
   26.3337  -28.9705   31.7946 N   0  0  0  0  0  0  0  0  0  0  0  0
   28.5733  -29.5675   31.3169 N   0  0  0  0  0  0  0  0  0  0  0  0
   29.4607  -30.6032   31.4318 C   0  0  0  0  0  0  0  0  0  0  0  0
   28.8781  -31.6761   32.0712 C   0  0  0  0  0  0  0  0  0  0  0  0
   27.2591  -31.3898   32.5317 S   0  0  0  0  0  0  0  0  0  0  0  0
   30.7935  -30.5809   30.7927 C   0  0  0  0  0  0  0  0  0  0  0  0
   31.0330  -30.8933   29.4857 C   0  0  0  0  0  0  0  0  0  0  0  0
   32.3172  -30.9234   28.9378 C   0  0  0  0  0  0  0  0  0  0  0  0
   33.3721  -30.6643   29.7898 C   0  0  0  0  0  0  0  0  0  0  0  0
   33.1470  -30.3500   31.1282 C   0  0  0  0  0  0  0  0  0  0  0  0
   31.8831  -30.3467   31.6593 C   0  0  0  0  0  0  0  0  0  0  0  0
   29.6722  -31.1867   28.4151 Cl  0  0  0  0  0  0  0  0  0  0  0  0
   26.4287  -27.6739   31.0830 C   0  0  0  0  0  0  0  0  0  0  0  0
   19.4375  -31.7520   32.0470 H   0  0  0  0  0  0  0  0  0  0  0  0
   21.4886  -33.1816   32.0164 H   0  0  0  0  0  0  0  0  0  0  0  0
   23.6656  -32.1455   31.5420 H   0  0  0  0  0  0  0  0  0  0  0  0
   19.6342  -29.3136   31.6345 H   0  0  0  0  0  0  0  0  0  0  0  0
   24.4724  -29.2051   30.1163 H   0  0  0  0  0  0  0  0  0  0  0  0
   29.4038  -32.6226   32.2656 H   0  0  0  0  0  0  0  0  0  0  0  0
   32.4812  -31.1443   27.8727 H   0  0  0  0  0  0  0  0  0  0  0  0
   34.4026  -30.7065   29.4073 H   0  0  0  0  0  0  0  0  0  0  0  0
   34.0021  -30.0989   31.7729 H   0  0  0  0  0  0  0  0  0  0  0  0
   31.7222  -30.1664   32.7324 H   0  0  0  0  0  0  0  0  0  0  0  0
   26.4887  -26.8565   31.8167 H   0  0  0  0  0  0  0  0  0  0  0  0
   27.3298  -27.6671   30.4521 H   0  0  0  0  0  0  0  0  0  0  0  0
   25.5383  -27.5357   30.4521 H   0  0  0  0  0  0  0  0  0  0  0  0
  1  2  2  0
  1  6  1  0
  2  3  1  0
  3  4  2  0
  4  5  1  0
  4  8  1  0
  5  6  2  0
  5  7  1  0
  7 10  1  0
  7 11  2  0
  8 12  2  3
  9 13  1  0
  9 14  2  0
  9 17  1  0
 12 13  1  0
 13 25  1  0
 14 15  1  0
 15 16  2  0
 15 18  1  0
 16 17  1  0
 18 19  2  0
 18 23  1  0
 19 20  1  0
 19 24  1  0
 20 21  2  0
 21 22  1  0
 22 23  2  0
  1 26  1  0
  2 27  1  0
  3 28  1  0
  6 29  1  0
  8 30  1  0
 16 31  1  0
 20 32  1  0
 21 33  1  0
 22 34  1  0
 23 35  1  0
 25 36  1  0
 25 37  1  0
 25 38  1  0
M  CHG  1  10  -1
M  END
>  <filename_input>  (23) 
6M2B_EZO_docked.sdf

>  <pdb_id>  (23) 
6M2B_EZO

>  <pose_rank>  (23) 
22

>  <num_atoms_heavy>  (23) 
25

>  <num_torsions>  (23) 
4

>  <pose>  (23) 
[27.387653112592417, -29.823739523262844, 31.872444635234793, 0.06921162451832408, -2.1096706117877946, -2.2453647844223945, -2.2719756001689464, 1.1114119904406843, -0.6811352639292984, 1.2558895005864161]

>  <energy>  (23) 
-142.67936901873446

>  <inter_energy>  (23) 
-147.62478449017684

>  <intra_energy>  (23) 
1.1647841821323122

>  <rmsd>  (23) 
14.3846

>  <sdf_rank>  (23) 
0

$$$$

     RDKit          3D

 38 40  0  0  0  0  0  0  0  0999 V2000
   36.1897  -31.1431   31.2833 C   0  0  0  0  0  0  0  0  0  0  0  0
   37.3018  -31.5521   30.5640 C   0  0  0  0  0  0  0  0  0  0  0  0
   37.2621  -31.4901   29.2023 C   0  0  0  0  0  0  0  0  0  0  0  0
   36.1462  -31.0042   28.5150 C   0  0  0  0  0  0  0  0  0  0  0  0
   35.0239  -30.6271   29.2167 C   0  0  0  0  0  0  0  0  0  0  0  0
   35.0672  -30.6804   30.6049 C   0  0  0  0  0  0  0  0  0  0  0  0
   33.7654  -30.1210   28.5727 C   0  0  0  0  0  0  0  0  0  0  0  0
   36.1937  -30.9488   27.0480 C   0  0  0  0  0  0  0  0  0  0  0  0
   34.4322  -31.9568   24.3014 C   0  0  0  0  0  0  0  0  0  0  0  0
   32.6950  -30.7716   28.6100 O   0  0  0  0  0  0  0  0  0  0  0  0
   33.7706  -28.9556   27.9730 O   0  0  0  0  0  0  0  0  0  0  0  0
   35.5069  -31.6963   26.3328 N   0  0  0  0  0  0  0  0  0  0  0  0
   35.5878  -31.6802   24.9596 N   0  0  0  0  0  0  0  0  0  0  0  0
   34.2142  -31.6015   23.0340 N   0  0  0  0  0  0  0  0  0  0  0  0
   32.9490  -31.8914   22.5999 C   0  0  0  0  0  0  0  0  0  0  0  0
   32.2023  -32.4526   23.6132 C   0  0  0  0  0  0  0  0  0  0  0  0
   33.0692  -32.6270   25.0738 S   0  0  0  0  0  0  0  0  0  0  0  0
   32.4544  -31.4847   21.2675 C   0  0  0  0  0  0  0  0  0  0  0  0
   31.2272  -31.8062   20.7638 C   0  0  0  0  0  0  0  0  0  0  0  0
   30.8238  -31.4574   19.4731 C   0  0  0  0  0  0  0  0  0  0  0  0
   31.7432  -30.7979   18.6821 C   0  0  0  0  0  0  0  0  0  0  0  0
   33.0026  -30.4673   19.1773 C   0  0  0  0  0  0  0  0  0  0  0  0
   33.3949  -30.8362   20.4382 C   0  0  0  0  0  0  0  0  0  0  0  0
   30.0643  -32.6161   21.8009 Cl  0  0  0  0  0  0  0  0  0  0  0  0
   36.7062  -30.9601   24.3061 C   0  0  0  0  0  0  0  0  0  0  0  0
   36.1949  -31.1842   32.3825 H   0  0  0  0  0  0  0  0  0  0  0  0
   38.1998  -31.9198   31.0821 H   0  0  0  0  0  0  0  0  0  0  0  0
   38.1349  -31.8331   28.6272 H   0  0  0  0  0  0  0  0  0  0  0  0
   34.1914  -30.3483   31.1817 H   0  0  0  0  0  0  0  0  0  0  0  0
   36.8613  -30.2195   26.5659 H   0  0  0  0  0  0  0  0  0  0  0  0
   31.1523  -32.7579   23.4930 H   0  0  0  0  0  0  0  0  0  0  0  0
   29.8164  -31.6978   19.1025 H   0  0  0  0  0  0  0  0  0  0  0  0
   31.4782  -30.5303   17.6486 H   0  0  0  0  0  0  0  0  0  0  0  0
   33.6977  -29.8979   18.5428 H   0  0  0  0  0  0  0  0  0  0  0  0
   34.4155  -30.6321   20.7942 H   0  0  0  0  0  0  0  0  0  0  0  0
   37.3674  -30.5344   25.0753 H   0  0  0  0  0  0  0  0  0  0  0  0
   37.2769  -31.6609   23.6790 H   0  0  0  0  0  0  0  0  0  0  0  0
   36.3045  -30.1506   23.6790 H   0  0  0  0  0  0  0  0  0  0  0  0
  1  2  2  0
  1  6  1  0
  2  3  1  0
  3  4  2  0
  4  5  1  0
  4  8  1  0
  5  6  2  0
  5  7  1  0
  7 10  1  0
  7 11  2  0
  8 12  2  3
  9 13  1  0
  9 14  2  0
  9 17  1  0
 12 13  1  0
 13 25  1  0
 14 15  1  0
 15 16  2  0
 15 18  1  0
 16 17  1  0
 18 19  2  0
 18 23  1  0
 19 20  1  0
 19 24  1  0
 20 21  2  0
 21 22  1  0
 22 23  2  0
  1 26  1  0
  2 27  1  0
  3 28  1  0
  6 29  1  0
  8 30  1  0
 16 31  1  0
 20 32  1  0
 21 33  1  0
 22 34  1  0
 23 35  1  0
 25 36  1  0
 25 37  1  0
 25 38  1  0
M  CHG  1  10  -1
M  END
>  <filename_input>  (24) 
6M2B_EZO_docked.sdf

>  <pdb_id>  (24) 
6M2B_EZO

>  <pose_rank>  (24) 
23

>  <num_atoms_heavy>  (24) 
25

>  <num_torsions>  (24) 
4

>  <pose>  (24) 
[34.43222750800379, -31.956811216671195, 24.301389284483314, -2.5976770486538734, -0.18337702462059136, -1.9519114173953942, 2.2383243979514247, 0.5527183901572773, 2.457525512266747, 1.494184215332185]

>  <energy>  (24) 
-159.79514629601863

>  <inter_energy>  (24) 
-197.23050605218526

>  <intra_energy>  (24) 
33.346362314968715

>  <rmsd>  (24) 
12.1436

>  <sdf_rank>  (24) 
0

$$$$

     RDKit          3D

 38 40  0  0  0  0  0  0  0  0999 V2000
   23.6569  -17.8285   14.5090 C   0  0  0  0  0  0  0  0  0  0  0  0
   24.7941  -18.3643   13.9250 C   0  0  0  0  0  0  0  0  0  0  0  0
   25.9888  -17.7350   14.1159 C   0  0  0  0  0  0  0  0  0  0  0  0
   26.1029  -16.5845   14.9013 C   0  0  0  0  0  0  0  0  0  0  0  0
   24.9759  -16.0243   15.4583 C   0  0  0  0  0  0  0  0  0  0  0  0
   23.7595  -16.6706   15.2725 C   0  0  0  0  0  0  0  0  0  0  0  0
   24.9869  -14.7753   16.2916 C   0  0  0  0  0  0  0  0  0  0  0  0
   27.4309  -15.9815   15.0756 C   0  0  0  0  0  0  0  0  0  0  0  0
   30.4501  -16.1410   15.1190 C   0  0  0  0  0  0  0  0  0  0  0  0
   25.1282  -14.8113   17.5363 O   0  0  0  0  0  0  0  0  0  0  0  0
   24.8705  -13.6080   15.7070 O   0  0  0  0  0  0  0  0  0  0  0  0
   28.2783  -16.4542   15.8503 N   0  0  0  0  0  0  0  0  0  0  0  0
   29.5034  -15.8619   16.0522 N   0  0  0  0  0  0  0  0  0  0  0  0
   31.5227  -15.3731   14.9189 N   0  0  0  0  0  0  0  0  0  0  0  0
   32.2941  -15.7836   13.8655 C   0  0  0  0  0  0  0  0  0  0  0  0
   31.7343  -16.8824   13.2500 C   0  0  0  0  0  0  0  0  0  0  0  0
   30.2813  -17.3995   13.9826 S   0  0  0  0  0  0  0  0  0  0  0  0
   33.4673  -15.0173   13.3947 C   0  0  0  0  0  0  0  0  0  0  0  0
   34.7021  -15.5516   13.1650 C   0  0  0  0  0  0  0  0  0  0  0  0
   35.8017  -14.7798   12.7835 C   0  0  0  0  0  0  0  0  0  0  0  0
   35.6107  -13.4161   12.6851 C   0  0  0  0  0  0  0  0  0  0  0  0
   34.3589  -12.8526   12.9221 C   0  0  0  0  0  0  0  0  0  0  0  0
   33.2932  -13.6184   13.3189 C   0  0  0  0  0  0  0  0  0  0  0  0
   34.9110  -17.2924   13.2649 Cl  0  0  0  0  0  0  0  0  0  0  0  0
   29.5991  -14.6723   16.9310 C   0  0  0  0  0  0  0  0  0  0  0  0
   22.6805  -18.3156   14.3696 H   0  0  0  0  0  0  0  0  0  0  0  0
   24.7340  -19.2802   13.3188 H   0  0  0  0  0  0  0  0  0  0  0  0
   26.8902  -18.1454   13.6372 H   0  0  0  0  0  0  0  0  0  0  0  0
   22.8550  -16.2557   15.7413 H   0  0  0  0  0  0  0  0  0  0  0  0
   27.6836  -15.0792   14.4994 H   0  0  0  0  0  0  0  0  0  0  0  0
   32.1793  -17.3770   12.3740 H   0  0  0  0  0  0  0  0  0  0  0  0
   36.7784  -15.2388   12.5704 H   0  0  0  0  0  0  0  0  0  0  0  0
   36.4569  -12.7667   12.4163 H   0  0  0  0  0  0  0  0  0  0  0  0
   34.2225  -11.7693   12.7880 H   0  0  0  0  0  0  0  0  0  0  0  0
   32.3281  -13.1551   13.5714 H   0  0  0  0  0  0  0  0  0  0  0  0
   29.5735  -14.9909   17.9835 H   0  0  0  0  0  0  0  0  0  0  0  0
   30.5427  -14.1435   16.7308 H   0  0  0  0  0  0  0  0  0  0  0  0
   28.7522  -13.9995   16.7308 H   0  0  0  0  0  0  0  0  0  0  0  0
  1  2  2  0
  1  6  1  0
  2  3  1  0
  3  4  2  0
  4  5  1  0
  4  8  1  0
  5  6  2  0
  5  7  1  0
  7 10  1  0
  7 11  2  0
  8 12  2  3
  9 13  1  0
  9 14  2  0
  9 17  1  0
 12 13  1  0
 13 25  1  0
 14 15  1  0
 15 16  2  0
 15 18  1  0
 16 17  1  0
 18 19  2  0
 18 23  1  0
 19 20  1  0
 19 24  1  0
 20 21  2  0
 21 22  1  0
 22 23  2  0
  1 26  1  0
  2 27  1  0
  3 28  1  0
  6 29  1  0
  8 30  1  0
 16 31  1  0
 20 32  1  0
 21 33  1  0
 22 34  1  0
 23 35  1  0
 25 36  1  0
 25 37  1  0
 25 38  1  0
M  CHG  1  10  -1
M  END
>  <filename_input>  (25) 
6M2B_EZO_docked.sdf

>  <pdb_id>  (25) 
6M2B_EZO

>  <pose_rank>  (25) 
24

>  <num_atoms_heavy>  (25) 
25

>  <num_torsions>  (25) 
4

>  <pose>  (25) 
[30.450054323887155, -16.140994083255503, 15.118951175498475, 0.14521142417810295, 0.576074853505392, 3.281642083632172, 1.4352277590301339, 1.692171391430789, -0.8202471199431381, -2.0536285582325466]

>  <energy>  (25) 
-174.59701850925921

>  <inter_energy>  (25) 
-184.6650460729223

>  <intra_energy>  (25) 
16.07343691719072

>  <rmsd>  (25) 
13.7537

>  <sdf_rank>  (25) 
0

$$$$

     RDKit          3D

 38 40  0  0  0  0  0  0  0  0999 V2000
   33.6180  -21.6300   21.9810 C   0  0  0  0  0  0  0  0  0  0  0  0
   32.6260  -22.0990   21.1340 C   0  0  0  0  0  0  0  0  0  0  0  0
   31.3950  -22.3730   21.6530 C   0  0  0  0  0  0  0  0  0  0  0  0
   31.0990  -22.1710   23.0040 C   0  0  0  0  0  0  0  0  0  0  0  0
   32.0850  -21.7380   23.8610 C   0  0  0  0  0  0  0  0  0  0  0  0
   33.3370  -21.4490   23.3310 C   0  0  0  0  0  0  0  0  0  0  0  0
   31.8780  -21.5190   25.3320 C   0  0  0  0  0  0  0  0  0  0  0  0
   29.7410  -22.4690   23.4780 C   0  0  0  0  0  0  0  0  0  0  0  0
   26.4790  -22.4410   22.2830 C   0  0  0  0  0  0  0  0  0  0  0  0
   31.0120  -22.1520   25.9800 O   0  0  0  0  0  0  0  0  0  0  0  0
   32.6360  -20.6610   25.9700 O   0  0  0  0  0  0  0  0  0  0  0  0
   28.7430  -22.3550   22.7480 N   0  0  0  0  0  0  0  0  0  0  0  0
   27.4660  -22.5850   23.2050 N   0  0  0  0  0  0  0  0  0  0  0  0
   25.2730  -22.9960   22.4160 N   0  0  0  0  0  0  0  0  0  0  0  0
   24.4660  -22.8060   21.3270 C   0  0  0  0  0  0  0  0  0  0  0  0
   25.1320  -22.1090   20.3420 C   0  0  0  0  0  0  0  0  0  0  0  0
   26.7290  -21.6880   20.7750 S   0  0  0  0  0  0  0  0  0  0  0  0
   23.1300  -23.4280   21.2110 C   0  0  0  0  0  0  0  0  0  0  0  0
   22.1770  -23.4080   22.1880 C   0  0  0  0  0  0  0  0  0  0  0  0
   20.9510  -24.0650   22.0630 C   0  0  0  0  0  0  0  0  0  0  0  0
   20.7410  -24.7930   20.9090 C   0  0  0  0  0  0  0  0  0  0  0  0
   21.7050  -24.8300   19.9040 C   0  0  0  0  0  0  0  0  0  0  0  0
   22.9140  -24.2000   20.0490 C   0  0  0  0  0  0  0  0  0  0  0  0
   22.4550  -22.4480   23.6320 Cl  0  0  0  0  0  0  0  0  0  0  0  0
   27.2690  -23.3740   24.4440 C   0  0  0  0  0  0  0  0  0  0  0  0
   34.6200  -21.4027   21.5883 H   0  0  0  0  0  0  0  0  0  0  0  0
   32.8280  -22.2474   20.0629 H   0  0  0  0  0  0  0  0  0  0  0  0
   30.6112  -22.7649   20.9882 H   0  0  0  0  0  0  0  0  0  0  0  0
   34.1256  -21.0674   23.9962 H   0  0  0  0  0  0  0  0  0  0  0  0
   29.6033  -22.8050   24.5163 H   0  0  0  0  0  0  0  0  0  0  0  0
   24.6797  -21.8498   19.3734 H   0  0  0  0  0  0  0  0  0  0  0  0
   20.1853  -24.0050   22.8505 H   0  0  0  0  0  0  0  0  0  0  0  0
   19.8013  -25.3505   20.7815 H   0  0  0  0  0  0  0  0  0  0  0  0
   21.4915  -25.3767   18.9737 H   0  0  0  0  0  0  0  0  0  0  0  0
   23.6951  -24.2936   19.2802 H   0  0  0  0  0  0  0  0  0  0  0  0
   27.4303  -22.7280   25.3196 H   0  0  0  0  0  0  0  0  0  0  0  0
   26.2439  -23.7722   24.4660 H   0  0  0  0  0  0  0  0  0  0  0  0
   27.9866  -24.2074   24.4660 H   0  0  0  0  0  0  0  0  0  0  0  0
  1  2  2  0
  1  6  1  0
  2  3  1  0
  3  4  2  0
  4  5  1  0
  4  8  1  0
  5  6  2  0
  5  7  1  0
  7 10  1  0
  7 11  2  0
  8 12  2  3
  9 13  1  0
  9 14  2  0
  9 17  1  0
 12 13  1  0
 13 25  1  0
 14 15  1  0
 15 16  2  0
 15 18  1  0
 16 17  1  0
 18 19  2  0
 18 23  1  0
 19 20  1  0
 19 24  1  0
 20 21  2  0
 21 22  1  0
 22 23  2  0
  1 26  1  0
  2 27  1  0
  3 28  1  0
  6 29  1  0
  8 30  1  0
 16 31  1  0
 20 32  1  0
 21 33  1  0
 22 34  1  0
 23 35  1  0
 25 36  1  0
 25 37  1  0
 25 38  1  0
M  CHG  1  10  -1
M  END
>  <filename_input>  (26) 
6M2B_EZO_docked.sdf

>  <pdb_id>  (26) 
6M2B_EZO

>  <pose_rank>  (26) 
25

>  <num_atoms_heavy>  (26) 
25

>  <num_torsions>  (26) 
4

>  <pose>  (26) 
[26.479, -22.441, 22.283, 1e-06, 1e-06, 1e-06, 0.0, 0.0, 0.0, 0.0]

>  <energy>  (26) 
-1407.5804902951154

>  <inter_energy>  (26) 
-1445.6311966281032

>  <intra_energy>  (26) 
25.035640343964275

>  <rmsd>  (26) 
0.0

>  <sdf_rank>  (26) 
0

$$$$
