
     RDKit          3D

 52 54  0  0  0  0  0  0  0  0999 V2000
   27.7007    9.6145   36.9095 C   0  0  0  0  0  0  0  0  0  0  0  0
   28.0196    9.5223   38.2897 N   0  0  0  0  0  0  0  0  0  0  0  0
   29.3413    9.6020   38.6939 C   0  0  0  0  0  0  0  0  0  0  0  0
   29.6405    9.6686   40.0249 N   0  0  0  0  0  0  0  0  0  0  0  0
   30.9163    9.8429   40.4741 C   0  0  0  0  0  0  0  0  0  0  0  0
   31.1452    9.9064   41.6735 O   0  0  0  0  0  0  0  0  0  0  0  0
   31.8935    9.9610   39.5186 N   0  0  0  0  0  0  0  0  0  0  0  0
   31.6884    9.8956   38.1502 C   0  0  0  0  0  0  0  0  0  0  0  0
   32.6510   10.0067   37.3817 O   0  0  0  0  0  0  0  0  0  0  0  0
   30.3679    9.7200   37.7245 C   0  0  0  0  0  0  0  0  0  0  0  0
   30.0567    9.5974   36.4060 N   0  0  0  0  0  0  0  0  0  0  0  0
   28.7471    9.6372   35.9658 C   0  0  0  0  0  0  0  0  0  0  0  0
   28.4611    9.7242   34.6175 C   0  0  0  0  0  0  0  0  0  0  0  0
   27.1714    9.8408   34.1744 C   0  0  0  0  0  0  0  0  0  0  0  0
   26.8854    9.9799   32.7036 C   0  0  0  0  0  0  0  0  0  0  0  0
   26.1007    9.8541   35.1275 C   0  0  0  0  0  0  0  0  0  0  0  0
   24.6797    9.9895   34.6547 C   0  0  0  0  0  0  0  0  0  0  0  0
   26.3838    9.7434   36.4676 C   0  0  0  0  0  0  0  0  0  0  0  0
   26.9278    9.5556   39.3064 C   0  0  0  0  0  0  0  0  0  0  0  0
   26.3867   10.9712   39.5448 C   0  0  2  0  0  0  0  0  0  0  0  0
   27.2205   11.6826   40.4661 O   0  0  0  0  0  0  0  0  0  0  0  0
   24.9663   11.0008   40.1207 C   0  0  2  0  0  0  0  0  0  0  0  0
   24.8040    9.8929   41.0316 O   0  0  0  0  0  0  0  0  0  0  0  0
   23.8305   10.9983   39.0909 C   0  0  2  0  0  0  0  0  0  0  0  0
   24.2224   11.7054   37.9080 O   0  0  0  0  0  0  0  0  0  0  0  0
   22.5818   11.6377   39.6557 C   0  0  0  0  0  0  0  0  0  0  0  0
   21.4010   11.2137   38.9334 O   0  0  0  0  0  0  0  0  0  0  0  0
   20.4806   12.2925   38.1241 P   0  0  2  0  0  0  0  0  0  0  0  0
   20.1488   13.3346   39.1532 O   0  0  0  0  0  0  0  0  0  0  0  0
   19.2500   11.5746   37.6308 O   0  0  0  0  0  0  0  0  0  0  0  0
   21.2715   12.8642   36.9577 O   0  0  0  0  0  0  0  0  0  0  0  0
   28.8777    9.5843   40.7118 H   0  0  0  0  0  0  0  0  0  0  0  0
   32.8588   10.1104   39.8454 H   0  0  0  0  0  0  0  0  0  0  0  0
   30.8146    9.4720   35.7199 H   0  0  0  0  0  0  0  0  0  0  0  0
   29.2836    9.6995   33.8875 H   0  0  0  0  0  0  0  0  0  0  0  0
   25.9042   10.4573   32.5644 H   0  0  0  0  0  0  0  0  0  0  0  0
   27.6644   10.5998   32.2356 H   0  0  0  0  0  0  0  0  0  0  0  0
   26.8786    8.9845   32.2356 H   0  0  0  0  0  0  0  0  0  0  0  0
   24.0086   10.0535   35.5240 H   0  0  0  0  0  0  0  0  0  0  0  0
   24.5807   10.9012   34.0472 H   0  0  0  0  0  0  0  0  0  0  0  0
   24.4102    9.1130   34.0472 H   0  0  0  0  0  0  0  0  0  0  0  0
   25.5630    9.7566   37.1999 H   0  0  0  0  0  0  0  0  0  0  0  0
   26.1026    8.9169   38.9582 H   0  0  0  0  0  0  0  0  0  0  0  0
   27.3468    9.1945   40.2572 H   0  0  0  0  0  0  0  0  0  0  0  0
   26.3768   11.4398   38.5496 H   0  0  0  0  0  0  0  0  0  0  0  0
   26.9558   11.4567   41.3929 H   0  0  0  0  0  0  0  0  0  0  0  0
   24.8762   11.9703   40.6326 H   0  0  0  0  0  0  0  0  0  0  0  0
   24.8523   10.2224   41.9639 H   0  0  0  0  0  0  0  0  0  0  0  0
   23.6150    9.9492   38.8399 H   0  0  0  0  0  0  0  0  0  0  0  0
   24.6861   12.5423   38.1623 H   0  0  0  0  0  0  0  0  0  0  0  0
   22.4782   11.3497   40.7123 H   0  0  0  0  0  0  0  0  0  0  0  0
   22.6757   12.7293   39.5573 H   0  0  0  0  0  0  0  0  0  0  0  0
  1  2  1  0
  1 12  2  0
  1 18  1  0
  2  3  1  0
  2 19  1  0
  3  4  1  0
  3 10  2  0
  4  5  1  0
  5  6  2  0
  5  7  1  0
  7  8  1  0
  8  9  2  0
  8 10  1  0
 10 11  1  0
 11 12  1  0
 12 13  1  0
 13 14  2  0
 14 15  1  0
 14 16  1  0
 16 17  1  0
 16 18  2  0
 19 20  1  0
 20 21  1  0
 20 22  1  0
 22 23  1  0
 22 24  1  0
 24 25  1  0
 24 26  1  0
 26 27  1  0
 27 28  1  0
 28 29  1  1
 28 30  2  0
 28 31  1  0
  4 32  1  0
  7 33  1  0
 11 34  1  0
 13 35  1  0
 15 36  1  0
 15 37  1  0
 15 38  1  0
 17 39  1  0
 17 40  1  0
 17 41  1  0
 18 42  1  0
 19 43  1  0
 19 44  1  0
 20 45  1  6
 21 46  1  0
 22 47  1  1
 23 48  1  0
 24 49  1  6
 25 50  1  0
 26 51  1  0
 26 52  1  0
M  CHG  2  29  -1  31  -1
M  END
>  <filename_input>  (1) 
6M73_FNR_docked.sdf

>  <pdb_id>  (1) 
6M73_FNR

>  <pose_rank>  (1) 
0

>  <num_atoms_heavy>  (1) 
31

>  <num_torsions>  (1) 
7

>  <pose>  (1) 
[27.700716202692487, 9.614483679466279, 36.909487940094934, -4.236134080810514, -4.177851298711432, -1.745031733339265, 0.11799565891118544, -0.11314075187078007, -0.337935783827263, 0.14594873785188892, 0.22254949881091857, -0.3355431931140408, 1.9554888934238517]

>  <energy>  (1) 
-1297.9987093593918

>  <inter_energy>  (1) 
-1287.7422783546285

>  <intra_energy>  (1) 
15.395305663039323

>  <rmsd>  (1) 
0.492058

>  <sdf_rank>  (1) 
0

$$$$

     RDKit          3D

 52 54  0  0  0  0  0  0  0  0999 V2000
   27.7347    9.7056   37.6814 C   0  0  0  0  0  0  0  0  0  0  0  0
   27.8678    9.6602   39.0940 N   0  0  0  0  0  0  0  0  0  0  0  0
   29.1297    9.6163   39.6618 C   0  0  0  0  0  0  0  0  0  0  0  0
   29.2681    9.7276   41.0160 N   0  0  0  0  0  0  0  0  0  0  0  0
   30.4903    9.7854   41.6183 C   0  0  0  0  0  0  0  0  0  0  0  0
   30.5753    9.8937   42.8332 O   0  0  0  0  0  0  0  0  0  0  0  0
   31.5850    9.7376   40.7929 N   0  0  0  0  0  0  0  0  0  0  0  0
   31.5440    9.6149   39.4137 C   0  0  0  0  0  0  0  0  0  0  0  0
   32.6004    9.5728   38.7720 O   0  0  0  0  0  0  0  0  0  0  0  0
   30.2747    9.5622   38.8290 C   0  0  0  0  0  0  0  0  0  0  0  0
   30.1163    9.3973   37.4882 N   0  0  0  0  0  0  0  0  0  0  0  0
   28.8849    9.5563   36.8808 C   0  0  0  0  0  0  0  0  0  0  0  0
   28.7797    9.5949   35.5044 C   0  0  0  0  0  0  0  0  0  0  0  0
   27.5773    9.8276   34.8934 C   0  0  0  0  0  0  0  0  0  0  0  0
   27.4933    9.9107   33.3933 C   0  0  0  0  0  0  0  0  0  0  0  0
   26.4062   10.0159   35.6985 C   0  0  0  0  0  0  0  0  0  0  0  0
   25.0802   10.2802   35.0404 C   0  0  0  0  0  0  0  0  0  0  0  0
   26.5067    9.9537   37.0675 C   0  0  0  0  0  0  0  0  0  0  0  0
   26.6704    9.8744   39.9584 C   0  0  0  0  0  0  0  0  0  0  0  0
   25.6215   10.7795   39.2994 C   0  0  2  0  0  0  0  0  0  0  0  0
   25.8235   12.1457   39.6777 O   0  0  0  0  0  0  0  0  0  0  0  0
   24.1776   10.4262   39.6741 C   0  0  2  0  0  0  0  0  0  0  0  0
   24.1919    9.4029   40.6920 O   0  0  0  0  0  0  0  0  0  0  0  0
   23.2761    9.9919   38.5125 C   0  0  2  0  0  0  0  0  0  0  0  0
   23.7699    8.7865   37.9159 O   0  0  0  0  0  0  0  0  0  0  0  0
   23.1961   11.0685   37.4532 C   0  0  0  0  0  0  0  0  0  0  0  0
   21.8557   11.6051   37.3490 O   0  0  0  0  0  0  0  0  0  0  0  0
   21.4238   12.9481   38.1711 P   0  0  2  0  0  0  0  0  0  0  0  0
   21.1718   13.9681   37.0981 O   0  0  0  0  0  0  0  0  0  0  0  0
   22.5766   13.3382   39.0610 O   0  0  0  0  0  0  0  0  0  0  0  0
   20.1805   12.6616   38.9989 O   0  0  0  0  0  0  0  0  0  0  0  0
   28.4217    9.7692   41.6016 H   0  0  0  0  0  0  0  0  0  0  0  0
   32.5134    9.7980   41.2348 H   0  0  0  0  0  0  0  0  0  0  0  0
   30.9330    9.1483   36.9120 H   0  0  0  0  0  0  0  0  0  0  0  0
   29.6773    9.4359   34.8888 H   0  0  0  0  0  0  0  0  0  0  0  0
   26.7378   10.6580   33.1092 H   0  0  0  0  0  0  0  0  0  0  0  0
   28.4720   10.2059   32.9871 H   0  0  0  0  0  0  0  0  0  0  0  0
   27.2088    8.9288   32.9871 H   0  0  0  0  0  0  0  0  0  0  0  0
   24.3117   10.4334   35.8124 H   0  0  0  0  0  0  0  0  0  0  0  0
   25.1551   11.1811   34.4136 H   0  0  0  0  0  0  0  0  0  0  0  0
   24.8039    9.4195   34.4136 H   0  0  0  0  0  0  0  0  0  0  0  0
   25.6092   10.1011   37.6862 H   0  0  0  0  0  0  0  0  0  0  0  0
   26.2100    8.8982   40.1706 H   0  0  0  0  0  0  0  0  0  0  0  0
   27.0089   10.3721   40.8791 H   0  0  0  0  0  0  0  0  0  0  0  0
   25.7564   10.6256   38.2186 H   0  0  0  0  0  0  0  0  0  0  0  0
   25.8339   12.2166   40.6651 H   0  0  0  0  0  0  0  0  0  0  0  0
   23.7304   11.3626   40.0390 H   0  0  0  0  0  0  0  0  0  0  0  0
   24.1860    9.8271   41.5865 H   0  0  0  0  0  0  0  0  0  0  0  0
   22.2708    9.8161   38.9229 H   0  0  0  0  0  0  0  0  0  0  0  0
   24.0310    8.1492   38.6270 H   0  0  0  0  0  0  0  0  0  0  0  0
   23.8884   11.8819   37.7161 H   0  0  0  0  0  0  0  0  0  0  0  0
   23.4683   10.6236   36.4847 H   0  0  0  0  0  0  0  0  0  0  0  0
  1  2  1  0
  1 12  2  0
  1 18  1  0
  2  3  1  0
  2 19  1  0
  3  4  1  0
  3 10  2  0
  4  5  1  0
  5  6  2  0
  5  7  1  0
  7  8  1  0
  8  9  2  0
  8 10  1  0
 10 11  1  0
 11 12  1  0
 12 13  1  0
 13 14  2  0
 14 15  1  0
 14 16  1  0
 16 17  1  0
 16 18  2  0
 19 20  1  0
 20 21  1  0
 20 22  1  0
 22 23  1  0
 22 24  1  0
 24 25  1  0
 24 26  1  0
 26 27  1  0
 27 28  1  0
 28 29  1  6
 28 30  2  0
 28 31  1  0
  4 32  1  0
  7 33  1  0
 11 34  1  0
 13 35  1  0
 15 36  1  0
 15 37  1  0
 15 38  1  0
 17 39  1  0
 17 40  1  0
 17 41  1  0
 18 42  1  0
 19 43  1  0
 19 44  1  0
 20 45  1  6
 21 46  1  0
 22 47  1  1
 23 48  1  0
 24 49  1  1
 25 50  1  0
 26 51  1  0
 26 52  1  0
M  CHG  2  29  -1  31  -1
M  END
>  <filename_input>  (2) 
6M73_FNR_docked.sdf

>  <pdb_id>  (2) 
6M73_FNR

>  <pose_rank>  (2) 
1

>  <num_atoms_heavy>  (2) 
31

>  <num_torsions>  (2) 
7

>  <pose>  (2) 
[27.73472739874669, 9.705626874003784, 37.68136278448947, -0.33024070410902984, 3.9229085499656664, 4.74701029542701, 7.241854205398974, 5.992016530973545, -0.8480195398368274, 1.8212298571135488, 7.271362115944333, -2.9162345211966914, -1.4029496538689776]

>  <energy>  (2) 
-907.1016788677629

>  <inter_energy>  (2) 
-984.9791809229063

>  <intra_energy>  (2) 
77.19824062641294

>  <rmsd>  (2) 
1.44644

>  <sdf_rank>  (2) 
0

$$$$

     RDKit          3D

 52 54  0  0  0  0  0  0  0  0999 V2000
   27.5942    9.6867   36.7960 C   0  0  0  0  0  0  0  0  0  0  0  0
   27.9032    9.5412   38.1739 N   0  0  0  0  0  0  0  0  0  0  0  0
   29.2229    9.5935   38.5890 C   0  0  0  0  0  0  0  0  0  0  0  0
   29.5139    9.6085   39.9234 N   0  0  0  0  0  0  0  0  0  0  0  0
   30.7882    9.7541   40.3866 C   0  0  0  0  0  0  0  0  0  0  0  0
   31.0098    9.7716   41.5890 O   0  0  0  0  0  0  0  0  0  0  0  0
   31.7728    9.8977   39.4422 N   0  0  0  0  0  0  0  0  0  0  0  0
   31.5760    9.8844   38.0711 C   0  0  0  0  0  0  0  0  0  0  0  0
   32.5447   10.0143   37.3131 O   0  0  0  0  0  0  0  0  0  0  0  0
   30.2568    9.7370   37.6310 C   0  0  0  0  0  0  0  0  0  0  0  0
   29.9532    9.6656   36.3070 N   0  0  0  0  0  0  0  0  0  0  0  0
   28.6469    9.7339   35.8603 C   0  0  0  0  0  0  0  0  0  0  0  0
   28.3707    9.8729   34.5144 C   0  0  0  0  0  0  0  0  0  0  0  0
   27.0851   10.0178   34.0678 C   0  0  0  0  0  0  0  0  0  0  0  0
   26.8101   10.2133   32.6013 C   0  0  0  0  0  0  0  0  0  0  0  0
   26.0082   10.0065   35.0140 C   0  0  0  0  0  0  0  0  0  0  0  0
   24.5917   10.1726   34.5377 C   0  0  0  0  0  0  0  0  0  0  0  0
   26.2815    9.8442   36.3509 C   0  0  0  0  0  0  0  0  0  0  0  0
   26.8050    9.5476   39.1843 C   0  0  0  0  0  0  0  0  0  0  0  0
   25.9698   10.8338   39.1395 C   0  0  2  0  0  0  0  0  0  0  0  0
   24.9759   10.7556   38.1119 O   0  0  0  0  0  0  0  0  0  0  0  0
   26.7940   12.0962   38.8620 C   0  0  2  0  0  0  0  0  0  0  0  0
   27.5130   12.4622   40.0589 O   0  0  0  0  0  0  0  0  0  0  0  0
   26.0065   13.3032   38.3387 C   0  0  2  0  0  0  0  0  0  0  0  0
   24.8839   12.8721   37.5598 O   0  0  0  0  0  0  0  0  0  0  0  0
   26.8814   14.1971   37.4884 C   0  0  0  0  0  0  0  0  0  0  0  0
   26.2401   15.4689   37.2302 O   0  0  0  0  0  0  0  0  0  0  0  0
   26.9302   16.5709   36.2426 P   0  0  2  0  0  0  0  0  0  0  0  0
   26.2659   16.3392   34.9158 O   0  0  0  0  0  0  0  0  0  0  0  0
   28.4097   16.2851   36.1904 O   0  0  0  0  0  0  0  0  0  0  0  0
   26.6730   17.9699   36.7805 O   0  0  0  0  0  0  0  0  0  0  0  0
   28.7458    9.5064   40.6020 H   0  0  0  0  0  0  0  0  0  0  0  0
   32.7372   10.0260   39.7803 H   0  0  0  0  0  0  0  0  0  0  0  0
   30.7144    9.5581   35.6215 H   0  0  0  0  0  0  0  0  0  0  0  0
   29.1977    9.8670   33.7891 H   0  0  0  0  0  0  0  0  0  0  0  0
   25.9193   10.8465   32.4766 H   0  0  0  0  0  0  0  0  0  0  0  0
   27.6754   10.7002   32.1277 H   0  0  0  0  0  0  0  0  0  0  0  0
   26.6346    9.2361   32.1277 H   0  0  0  0  0  0  0  0  0  0  0  0
   23.9200   10.2514   35.4052 H   0  0  0  0  0  0  0  0  0  0  0  0
   24.5141   11.0860   33.9297 H   0  0  0  0  0  0  0  0  0  0  0  0
   24.3048    9.3019   33.9297 H   0  0  0  0  0  0  0  0  0  0  0  0
   25.4561    9.8385   37.0781 H   0  0  0  0  0  0  0  0  0  0  0  0
   26.1430    8.6907   38.9906 H   0  0  0  0  0  0  0  0  0  0  0  0
   27.2681    9.4855   40.1801 H   0  0  0  0  0  0  0  0  0  0  0  0
   25.5230   10.9138   40.1415 H   0  0  0  0  0  0  0  0  0  0  0  0
   24.0790   10.6850   38.5249 H   0  0  0  0  0  0  0  0  0  0  0  0
   27.4739   11.8292   38.0396 H   0  0  0  0  0  0  0  0  0  0  0  0
   26.9877   12.1948   40.8542 H   0  0  0  0  0  0  0  0  0  0  0  0
   25.6540   13.8712   39.2122 H   0  0  0  0  0  0  0  0  0  0  0  0
   24.1517   12.5910   38.1639 H   0  0  0  0  0  0  0  0  0  0  0  0
   27.8308   14.3748   38.0147 H   0  0  0  0  0  0  0  0  0  0  0  0
   27.0582   13.6956   36.5255 H   0  0  0  0  0  0  0  0  0  0  0  0
  1  2  1  0
  1 12  2  0
  1 18  1  0
  2  3  1  0
  2 19  1  0
  3  4  1  0
  3 10  2  0
  4  5  1  0
  5  6  2  0
  5  7  1  0
  7  8  1  0
  8  9  2  0
  8 10  1  0
 10 11  1  0
 11 12  1  0
 12 13  1  0
 13 14  2  0
 14 15  1  0
 14 16  1  0
 16 17  1  0
 16 18  2  0
 19 20  1  0
 20 21  1  0
 20 22  1  0
 22 23  1  0
 22 24  1  0
 24 25  1  0
 24 26  1  0
 26 27  1  0
 27 28  1  0
 28 29  1  6
 28 30  2  0
 28 31  1  0
  4 32  1  0
  7 33  1  0
 11 34  1  0
 13 35  1  0
 15 36  1  0
 15 37  1  0
 15 38  1  0
 17 39  1  0
 17 40  1  0
 17 41  1  0
 18 42  1  0
 19 43  1  0
 19 44  1  0
 20 45  1  1
 21 46  1  0
 22 47  1  6
 23 48  1  0
 24 49  1  1
 25 50  1  0
 26 51  1  0
 26 52  1  0
M  CHG  2  29  -1  31  -1
M  END
>  <filename_input>  (3) 
6M73_FNR_docked.sdf

>  <pdb_id>  (3) 
6M73_FNR

>  <pose_rank>  (3) 
2

>  <num_atoms_heavy>  (3) 
31

>  <num_torsions>  (3) 
7

>  <pose>  (3) 
[27.594223298693763, 9.686707736368664, 36.79602768400172, 0.09333293239997635, 0.04870316676255667, 0.015117732055101257, 19.299379127951394, 2.769010393268483, -2.282223925627102, -6.100262955859642, 0.06307176053491782, -1.3408517337791792, -1.7035163745670012]

>  <energy>  (3) 
-767.8172568277942

>  <inter_energy>  (3) 
-903.1467250320969

>  <intra_energy>  (3) 
133.9375154283927

>  <rmsd>  (3) 
3.46052

>  <sdf_rank>  (3) 
0

$$$$

     RDKit          3D

 52 54  0  0  0  0  0  0  0  0999 V2000
   29.0969   10.4344   37.5430 C   0  0  0  0  0  0  0  0  0  0  0  0
   27.7491   10.8754   37.6076 N   0  0  0  0  0  0  0  0  0  0  0  0
   26.9193   10.7037   36.5128 C   0  0  0  0  0  0  0  0  0  0  0  0
   25.5869   10.9840   36.6213 N   0  0  0  0  0  0  0  0  0  0  0  0
   24.7097   10.7440   35.6051 C   0  0  0  0  0  0  0  0  0  0  0  0
   23.5219   10.9999   35.7416 O   0  0  0  0  0  0  0  0  0  0  0  0
   25.2298   10.1923   34.4619 N   0  0  0  0  0  0  0  0  0  0  0  0
   26.5646    9.8846   34.2559 C   0  0  0  0  0  0  0  0  0  0  0  0
   26.9201    9.3969   33.1764 O   0  0  0  0  0  0  0  0  0  0  0  0
   27.4355   10.1400   35.3199 C   0  0  0  0  0  0  0  0  0  0  0  0
   28.7732    9.9182   35.2121 N   0  0  0  0  0  0  0  0  0  0  0  0
   29.6048    9.9647   36.3152 C   0  0  0  0  0  0  0  0  0  0  0  0
   30.9135    9.5325   36.2277 C   0  0  0  0  0  0  0  0  0  0  0  0
   31.7235    9.5026   37.3305 C   0  0  0  0  0  0  0  0  0  0  0  0
   33.1324    8.9854   37.2218 C   0  0  0  0  0  0  0  0  0  0  0  0
   31.2070    9.9452   38.5924 C   0  0  0  0  0  0  0  0  0  0  0  0
   32.0837    9.9102   39.8136 C   0  0  0  0  0  0  0  0  0  0  0  0
   29.9121   10.3977   38.6746 C   0  0  0  0  0  0  0  0  0  0  0  0
   27.1770   11.3213   38.9117 C   0  0  0  0  0  0  0  0  0  0  0  0
   26.2842   10.2550   39.5596 C   0  0  2  0  0  0  0  0  0  0  0  0
   25.7397    9.3798   38.5658 O   0  0  0  0  0  0  0  0  0  0  0  0
   25.0966   10.8333   40.3376 C   0  0  2  0  0  0  0  0  0  0  0  0
   24.0916    9.8090   40.4934 O   0  0  0  0  0  0  0  0  0  0  0  0
   24.4637   12.0970   39.7433 C   0  0  2  0  0  0  0  0  0  0  0  0
   24.0210   12.9755   40.7849 O   0  0  0  0  0  0  0  0  0  0  0  0
   23.2876   11.7520   38.8573 C   0  0  0  0  0  0  0  0  0  0  0  0
   22.3508   12.8525   38.7746 O   0  0  0  0  0  0  0  0  0  0  0  0
   20.7644   12.5843   38.4966 P   0  0  2  0  0  0  0  0  0  0  0  0
   20.6000   12.8542   37.0284 O   0  0  0  0  0  0  0  0  0  0  0  0
   19.9752   13.5531   39.3402 O   0  0  0  0  0  0  0  0  0  0  0  0
   20.4179   11.1493   38.8622 O   0  0  0  0  0  0  0  0  0  0  0  0
   25.2331   11.3899   37.4994 H   0  0  0  0  0  0  0  0  0  0  0  0
   24.5740    9.9903   33.6937 H   0  0  0  0  0  0  0  0  0  0  0  0
   29.1758    9.7108   34.2870 H   0  0  0  0  0  0  0  0  0  0  0  0
   31.3116    9.2069   35.2553 H   0  0  0  0  0  0  0  0  0  0  0  0
   33.5460    8.8336   38.2297 H   0  0  0  0  0  0  0  0  0  0  0  0
   33.1310    8.0292   36.6781 H   0  0  0  0  0  0  0  0  0  0  0  0
   33.7501    9.7154   36.6781 H   0  0  0  0  0  0  0  0  0  0  0  0
   31.4560    9.9353   40.7165 H   0  0  0  0  0  0  0  0  0  0  0  0
   32.6825    8.9875   39.8088 H   0  0  0  0  0  0  0  0  0  0  0  0
   32.7541   10.7824   39.8088 H   0  0  0  0  0  0  0  0  0  0  0  0
   29.5140   10.7346   39.6431 H   0  0  0  0  0  0  0  0  0  0  0  0
   28.0044   11.5528   39.5986 H   0  0  0  0  0  0  0  0  0  0  0  0
   26.5523   12.2054   38.7166 H   0  0  0  0  0  0  0  0  0  0  0  0
   26.9443    9.7240   40.2611 H   0  0  0  0  0  0  0  0  0  0  0  0
   25.2719    8.6280   39.0087 H   0  0  0  0  0  0  0  0  0  0  0  0
   25.5077   11.1562   41.3055 H   0  0  0  0  0  0  0  0  0  0  0  0
   23.9323    9.6468   41.4569 H   0  0  0  0  0  0  0  0  0  0  0  0
   25.2338   12.5989   39.1391 H   0  0  0  0  0  0  0  0  0  0  0  0
   24.2244   12.5718   41.6657 H   0  0  0  0  0  0  0  0  0  0  0  0
   23.6561   11.5185   37.8475 H   0  0  0  0  0  0  0  0  0  0  0  0
   22.7679   10.8855   39.2919 H   0  0  0  0  0  0  0  0  0  0  0  0
  1  2  1  0
  1 12  2  0
  1 18  1  0
  2  3  1  0
  2 19  1  0
  3  4  1  0
  3 10  2  0
  4  5  1  0
  5  6  2  0
  5  7  1  0
  7  8  1  0
  8  9  2  0
  8 10  1  0
 10 11  1  0
 11 12  1  0
 12 13  1  0
 13 14  2  0
 14 15  1  0
 14 16  1  0
 16 17  1  0
 16 18  2  0
 19 20  1  0
 20 21  1  0
 20 22  1  0
 22 23  1  0
 22 24  1  0
 24 25  1  0
 24 26  1  0
 26 27  1  0
 27 28  1  0
 28 29  1  6
 28 30  2  0
 28 31  1  0
  4 32  1  0
  7 33  1  0
 11 34  1  0
 13 35  1  0
 15 36  1  0
 15 37  1  0
 15 38  1  0
 17 39  1  0
 17 40  1  0
 17 41  1  0
 18 42  1  0
 19 43  1  0
 19 44  1  0
 20 45  1  1
 21 46  1  0
 22 47  1  1
 23 48  1  0
 24 49  1  6
 25 50  1  0
 26 51  1  0
 26 52  1  0
M  CHG  2  29  -1  31  -1
M  END
>  <filename_input>  (4) 
6M73_FNR_docked.sdf

>  <pdb_id>  (4) 
6M73_FNR

>  <pose_rank>  (4) 
3

>  <num_atoms_heavy>  (4) 
31

>  <num_torsions>  (4) 
7

>  <pose>  (4) 
[29.09692236821471, 10.434396654631593, 37.54301692166005, 1.8989498961770037, -0.635128017546277, -2.478983448268454, -0.3146202307798393, 0.8810448686309007, 1.8289381814536003, -1.7989303517067095, -0.5951799349960868, -0.9331497632068458, 1.159133025483018]

>  <energy>  (4) 
-729.9630262023708

>  <inter_energy>  (4) 
-793.7894976757564

>  <intra_energy>  (4) 
75.60559892681853

>  <rmsd>  (4) 
4.62955

>  <sdf_rank>  (4) 
0

$$$$

     RDKit          3D

 52 54  0  0  0  0  0  0  0  0999 V2000
   27.4678   10.2108   37.3146 C   0  0  0  0  0  0  0  0  0  0  0  0
   26.4438   10.4052   36.3507 N   0  0  0  0  0  0  0  0  0  0  0  0
   26.7578   10.3754   35.0027 C   0  0  0  0  0  0  0  0  0  0  0  0
   25.7579   10.4077   34.0727 N   0  0  0  0  0  0  0  0  0  0  0  0
   26.0049   10.2860   32.7371 C   0  0  0  0  0  0  0  0  0  0  0  0
   25.0832   10.3109   31.9341 O   0  0  0  0  0  0  0  0  0  0  0  0
   27.3150   10.1164   32.3674 N   0  0  0  0  0  0  0  0  0  0  0  0
   28.3945   10.0817   33.2348 C   0  0  0  0  0  0  0  0  0  0  0  0
   29.5365    9.9321   32.7841 O   0  0  0  0  0  0  0  0  0  0  0  0
   28.1047   10.2057   34.5973 C   0  0  0  0  0  0  0  0  0  0  0  0
   29.0907   10.2300   35.5341 N   0  0  0  0  0  0  0  0  0  0  0  0
   28.8076   10.1383   36.8839 C   0  0  0  0  0  0  0  0  0  0  0  0
   29.8209    9.9517   37.8035 C   0  0  0  0  0  0  0  0  0  0  0  0
   29.5463    9.7836   39.1337 C   0  0  0  0  0  0  0  0  0  0  0  0
   30.6624    9.5364   40.1123 C   0  0  0  0  0  0  0  0  0  0  0  0
   28.1841    9.8205   39.5790 C   0  0  0  0  0  0  0  0  0  0  0  0
   27.8678    9.6293   41.0365 C   0  0  0  0  0  0  0  0  0  0  0  0
   27.1777   10.0300   38.6671 C   0  0  0  0  0  0  0  0  0  0  0  0
   25.0152   10.4264   36.7812 C   0  0  0  0  0  0  0  0  0  0  0  0
   24.6901    9.3271   37.8009 C   0  0  2  0  0  0  0  0  0  0  0  0
   23.9337    8.2770   37.1882 O   0  0  0  0  0  0  0  0  0  0  0  0
   23.8717    9.8193   39.0001 C   0  0  2  0  0  0  0  0  0  0  0  0
   22.4782    9.5168   38.7757 O   0  0  0  0  0  0  0  0  0  0  0  0
   24.0320   11.3031   39.3510 C   0  0  2  0  0  0  0  0  0  0  0  0
   24.9253   11.4642   40.4595 O   0  0  0  0  0  0  0  0  0  0  0  0
   22.6991   11.9277   39.6983 C   0  0  0  0  0  0  0  0  0  0  0  0
   22.0260   12.4222   38.5159 O   0  0  0  0  0  0  0  0  0  0  0  0
   20.4833   11.9982   38.1899 P   0  0  2  0  0  0  0  0  0  0  0  0
   19.7173   13.2841   38.3122 O   0  0  0  0  0  0  0  0  0  0  0  0
   20.0531   10.9849   39.2202 O   0  0  0  0  0  0  0  0  0  0  0  0
   20.4012   11.4081   36.7907 O   0  0  0  0  0  0  0  0  0  0  0  0
   24.7856   10.5281   34.3906 H   0  0  0  0  0  0  0  0  0  0  0  0
   27.5122   10.0058   31.3625 H   0  0  0  0  0  0  0  0  0  0  0  0
   30.0709   10.3188   35.2305 H   0  0  0  0  0  0  0  0  0  0  0  0
   30.8662    9.9380   37.4611 H   0  0  0  0  0  0  0  0  0  0  0  0
   30.2758    9.6220   41.1386 H   0  0  0  0  0  0  0  0  0  0  0  0
   31.0694    8.5264   39.9568 H   0  0  0  0  0  0  0  0  0  0  0  0
   31.4577   10.2802   39.9568 H   0  0  0  0  0  0  0  0  0  0  0  0
   28.6510   10.1027   41.6469 H   0  0  0  0  0  0  0  0  0  0  0  0
   26.8959   10.0913   41.2645 H   0  0  0  0  0  0  0  0  0  0  0  0
   27.8251    8.5540   41.2645 H   0  0  0  0  0  0  0  0  0  0  0  0
   26.1319   10.0554   39.0074 H   0  0  0  0  0  0  0  0  0  0  0  0
   24.7988   11.4042   37.2363 H   0  0  0  0  0  0  0  0  0  0  0  0
   24.3959   10.2478   35.8899 H   0  0  0  0  0  0  0  0  0  0  0  0
   25.6695    8.9766   38.1584 H   0  0  0  0  0  0  0  0  0  0  0  0
   23.5260    7.7109   37.8905 H   0  0  0  0  0  0  0  0  0  0  0  0
   24.2737    9.2817   39.8715 H   0  0  0  0  0  0  0  0  0  0  0  0
   22.0179    9.4169   39.6464 H   0  0  0  0  0  0  0  0  0  0  0  0
   24.4461   11.8086   38.4662 H   0  0  0  0  0  0  0  0  0  0  0  0
   24.4204   11.3732   41.3062 H   0  0  0  0  0  0  0  0  0  0  0  0
   22.0639   11.1710   40.1820 H   0  0  0  0  0  0  0  0  0  0  0  0
   22.8788   12.7755   40.3756 H   0  0  0  0  0  0  0  0  0  0  0  0
  1  2  1  0
  1 12  2  0
  1 18  1  0
  2  3  1  0
  2 19  1  0
  3  4  1  0
  3 10  2  0
  4  5  1  0
  5  6  2  0
  5  7  1  0
  7  8  1  0
  8  9  2  0
  8 10  1  0
 10 11  1  0
 11 12  1  0
 12 13  1  0
 13 14  2  0
 14 15  1  0
 14 16  1  0
 16 17  1  0
 16 18  2  0
 19 20  1  0
 20 21  1  0
 20 22  1  0
 22 23  1  0
 22 24  1  0
 24 25  1  0
 24 26  1  0
 26 27  1  0
 27 28  1  0
 28 29  1  6
 28 30  2  0
 28 31  1  0
  4 32  1  0
  7 33  1  0
 11 34  1  0
 13 35  1  0
 15 36  1  0
 15 37  1  0
 15 38  1  0
 17 39  1  0
 17 40  1  0
 17 41  1  0
 18 42  1  0
 19 43  1  0
 19 44  1  0
 20 45  1  1
 21 46  1  0
 22 47  1  1
 23 48  1  0
 24 49  1  6
 25 50  1  0
 26 51  1  0
 26 52  1  0
M  CHG  2  29  -1  31  -1
M  END
>  <filename_input>  (5) 
6M73_FNR_docked.sdf

>  <pdb_id>  (5) 
6M73_FNR

>  <pose_rank>  (5) 
4

>  <num_atoms_heavy>  (5) 
31

>  <num_torsions>  (5) 
7

>  <pose>  (5) 
[27.467758604364644, 10.210786824589043, 37.314559616417775, -2.670839288430721, 0.10877584142392145, 1.438549574694115, 0.7156672653314993, -0.5205122769567403, 0.7479162371797304, -1.0327043385809969, 1.4604130317780675, 3.9561727817309977, -1.3970269236028077]

>  <energy>  (5) 
-709.8069154039395

>  <inter_energy>  (5) 
-777.2880547213241

>  <intra_energy>  (5) 
73.2681773950863

>  <rmsd>  (5) 
4.92122

>  <sdf_rank>  (5) 
0

$$$$

     RDKit          3D

 52 54  0  0  0  0  0  0  0  0999 V2000
   26.0668   10.9698   36.0427 C   0  0  0  0  0  0  0  0  0  0  0  0
   25.7143   11.4477   37.3321 N   0  0  0  0  0  0  0  0  0  0  0  0
   24.3908   11.7374   37.6167 C   0  0  0  0  0  0  0  0  0  0  0  0
   24.0246   12.0488   38.8952 N   0  0  0  0  0  0  0  0  0  0  0  0
   22.7230   12.2498   39.2488 C   0  0  0  0  0  0  0  0  0  0  0  0
   22.4319   12.5188   40.4055 O   0  0  0  0  0  0  0  0  0  0  0  0
   21.7879   12.1125   38.2545 N   0  0  0  0  0  0  0  0  0  0  0  0
   22.0638   11.8103   36.9311 C   0  0  0  0  0  0  0  0  0  0  0  0
   21.1360   11.7207   36.1181 O   0  0  0  0  0  0  0  0  0  0  0  0
   23.4082   11.6070   36.6043 C   0  0  0  0  0  0  0  0  0  0  0  0
   23.7978   11.3493   35.3268 N   0  0  0  0  0  0  0  0  0  0  0  0
   25.0848   10.9400   35.0323 C   0  0  0  0  0  0  0  0  0  0  0  0
   25.4049   10.4813   33.7696 C   0  0  0  0  0  0  0  0  0  0  0  0
   26.6556   10.0025   33.4873 C   0  0  0  0  0  0  0  0  0  0  0  0
   26.9697    9.4654   32.1172 C   0  0  0  0  0  0  0  0  0  0  0  0
   27.6530    9.9953   34.5171 C   0  0  0  0  0  0  0  0  0  0  0  0
   29.0288    9.4647   34.2227 C   0  0  0  0  0  0  0  0  0  0  0  0
   27.3413   10.4740   35.7669 C   0  0  0  0  0  0  0  0  0  0  0  0
   26.7249   11.4322   38.4299 C   0  0  0  0  0  0  0  0  0  0  0  0
   26.2644   10.6152   39.6441 C   0  0  2  0  0  0  0  0  0  0  0  0
   26.0484   11.4673   40.7743 O   0  0  0  0  0  0  0  0  0  0  0  0
   27.2684    9.5435   40.0843 C   0  0  2  0  0  0  0  0  0  0  0  0
   26.8215    8.9614   41.3272 O   0  0  0  0  0  0  0  0  0  0  0  0
   28.7223   10.0102   40.2214 C   0  0  2  0  0  0  0  0  0  0  0  0
   28.8008   11.4390   40.1515 O   0  0  0  0  0  0  0  0  0  0  0  0
   29.5899    9.4158   39.1344 C   0  0  0  0  0  0  0  0  0  0  0  0
   30.9910    9.6948   39.3683 O   0  0  0  0  0  0  0  0  0  0  0  0
   31.9677   10.1649   38.1473 P   0  0  2  0  0  0  0  0  0  0  0  0
   33.1733    9.2797   38.2823 O   0  0  0  0  0  0  0  0  0  0  0  0
   32.3083   11.6184   38.3589 O   0  0  0  0  0  0  0  0  0  0  0  0
   31.2537    9.9695   36.8188 O   0  0  0  0  0  0  0  0  0  0  0  0
   24.7555   12.1347   39.6159 H   0  0  0  0  0  0  0  0  0  0  0  0
   20.7997   12.2448   38.5132 H   0  0  0  0  0  0  0  0  0  0  0  0
   23.1181   11.4619   34.5612 H   0  0  0  0  0  0  0  0  0  0  0  0
   24.6419   10.5011   32.9775 H   0  0  0  0  0  0  0  0  0  0  0  0
   27.5231    8.5195   32.2122 H   0  0  0  0  0  0  0  0  0  0  0  0
   26.0326    9.2886   31.5690 H   0  0  0  0  0  0  0  0  0  0  0  0
   27.5832   10.1956   31.5690 H   0  0  0  0  0  0  0  0  0  0  0  0
   29.5537    9.2623   35.1679 H   0  0  0  0  0  0  0  0  0  0  0  0
   28.9464    8.5339   33.6423 H   0  0  0  0  0  0  0  0  0  0  0  0
   29.5927   10.2099   33.6423 H   0  0  0  0  0  0  0  0  0  0  0  0
   28.1050   10.4661   36.5585 H   0  0  0  0  0  0  0  0  0  0  0  0
   27.6575   10.9949   38.0441 H   0  0  0  0  0  0  0  0  0  0  0  0
   26.8710   12.4704   38.7629 H   0  0  0  0  0  0  0  0  0  0  0  0
   25.3380   10.1213   39.3157 H   0  0  0  0  0  0  0  0  0  0  0  0
   26.1796   10.9496   41.6078 H   0  0  0  0  0  0  0  0  0  0  0  0
   27.2881    8.8058   39.2686 H   0  0  0  0  0  0  0  0  0  0  0  0
   27.2088    9.4659   42.0859 H   0  0  0  0  0  0  0  0  0  0  0  0
   29.0880    9.6674   41.2006 H   0  0  0  0  0  0  0  0  0  0  0  0
   28.8214   11.8136   41.0677 H   0  0  0  0  0  0  0  0  0  0  0  0
   29.4403    8.3263   39.1123 H   0  0  0  0  0  0  0  0  0  0  0  0
   29.3015    9.8678   38.1740 H   0  0  0  0  0  0  0  0  0  0  0  0
  1  2  1  0
  1 12  2  0
  1 18  1  0
  2  3  1  0
  2 19  1  0
  3  4  1  0
  3 10  2  0
  4  5  1  0
  5  6  2  0
  5  7  1  0
  7  8  1  0
  8  9  2  0
  8 10  1  0
 10 11  1  0
 11 12  1  0
 12 13  1  0
 13 14  2  0
 14 15  1  0
 14 16  1  0
 16 17  1  0
 16 18  2  0
 19 20  1  0
 20 21  1  0
 20 22  1  0
 22 23  1  0
 22 24  1  0
 24 25  1  0
 24 26  1  0
 26 27  1  0
 27 28  1  0
 28 29  1  6
 28 30  2  0
 28 31  1  0
  4 32  1  0
  7 33  1  0
 11 34  1  0
 13 35  1  0
 15 36  1  0
 15 37  1  0
 15 38  1  0
 17 39  1  0
 17 40  1  0
 17 41  1  0
 18 42  1  0
 19 43  1  0
 19 44  1  0
 20 45  1  6
 21 46  1  0
 22 47  1  6
 23 48  1  0
 24 49  1  1
 25 50  1  0
 26 51  1  0
 26 52  1  0
M  CHG  2  29  -1  31  -1
M  END
>  <filename_input>  (6) 
6M73_FNR_docked.sdf

>  <pdb_id>  (6) 
6M73_FNR

>  <pose_rank>  (6) 
5

>  <num_atoms_heavy>  (6) 
31

>  <num_torsions>  (6) 
7

>  <pose>  (6) 
[26.06676129468289, 10.969840132014529, 36.042651749197375, -0.17363368798136936, 0.43515755329194467, 2.91602187128965, -63.495539505116035, -57.19261699494982, -4.234756301496714, 19.768033941955196, 18.842143783767575, 5.619754889864363, 0.5994258167264563]

>  <energy>  (6) 
-723.7913442797944

>  <inter_energy>  (6) 
-812.5625424493963

>  <intra_energy>  (6) 
76.79084912299875

>  <rmsd>  (6) 
6.95965

>  <sdf_rank>  (6) 
0

$$$$

     RDKit          3D

 52 54  0  0  0  0  0  0  0  0999 V2000
   23.6804   11.6538   37.9935 C   0  0  0  0  0  0  0  0  0  0  0  0
   25.0304   11.2222   37.9131 N   0  0  0  0  0  0  0  0  0  0  0  0
   25.5416   10.7950   36.6995 C   0  0  0  0  0  0  0  0  0  0  0  0
   26.8756   10.5259   36.5826 N   0  0  0  0  0  0  0  0  0  0  0  0
   27.4470   10.1936   35.3898 C   0  0  0  0  0  0  0  0  0  0  0  0
   28.6468    9.9678   35.3217 O   0  0  0  0  0  0  0  0  0  0  0  0
   26.6149   10.1527   34.2999 N   0  0  0  0  0  0  0  0  0  0  0  0
   25.2519   10.3987   34.3226 C   0  0  0  0  0  0  0  0  0  0  0  0
   24.5994   10.3232   33.2747 O   0  0  0  0  0  0  0  0  0  0  0  0
   24.6997   10.7402   35.5613 C   0  0  0  0  0  0  0  0  0  0  0  0
   23.3652   10.9589   35.7083 N   0  0  0  0  0  0  0  0  0  0  0  0
   22.8450   11.4996   36.8691 C   0  0  0  0  0  0  0  0  0  0  0  0
   21.5275   11.9101   36.9245 C   0  0  0  0  0  0  0  0  0  0  0  0
   21.0222   12.5161   38.0427 C   0  0  0  0  0  0  0  0  0  0  0  0
   19.5963   12.9964   38.0652 C   0  0  0  0  0  0  0  0  0  0  0  0
   21.8725   12.7100   39.1805 C   0  0  0  0  0  0  0  0  0  0  0  0
   21.3323   13.3815   40.4127 C   0  0  0  0  0  0  0  0  0  0  0  0
   23.1768   12.2799   39.1339 C   0  0  0  0  0  0  0  0  0  0  0  0
   25.9453   11.4304   39.0735 C   0  0  0  0  0  0  0  0  0  0  0  0
   25.8177   10.3260   40.1308 C   0  0  2  0  0  0  0  0  0  0  0  0
   25.7690   10.8890   41.4464 O   0  0  0  0  0  0  0  0  0  0  0  0
   26.9784    9.3247   40.1213 C   0  0  2  0  0  0  0  0  0  0  0  0
   27.7021    9.4303   41.3658 O   0  0  0  0  0  0  0  0  0  0  0  0
   27.9510    9.4445   38.9422 C   0  0  2  0  0  0  0  0  0  0  0  0
   27.7780    8.3499   38.0341 O   0  0  0  0  0  0  0  0  0  0  0  0
   29.3859    9.4659   39.4198 C   0  0  0  0  0  0  0  0  0  0  0  0
   30.3111    9.4257   38.3072 O   0  0  0  0  0  0  0  0  0  0  0  0
   31.9045    9.7032   38.5311 P   0  0  2  0  0  0  0  0  0  0  0  0
   32.1264   11.0623   37.9319 O   0  0  0  0  0  0  0  0  0  0  0  0
   32.6697    8.6312   37.7973 O   0  0  0  0  0  0  0  0  0  0  0  0
   32.2244    9.6683   40.0175 O   0  0  0  0  0  0  0  0  0  0  0  0
   27.4693   10.5756   37.4227 H   0  0  0  0  0  0  0  0  0  0  0  0
   27.0382    9.9199   33.3903 H   0  0  0  0  0  0  0  0  0  0  0  0
   22.7276   10.7159   34.9367 H   0  0  0  0  0  0  0  0  0  0  0  0
   20.8734   11.7472   36.0552 H   0  0  0  0  0  0  0  0  0  0  0  0
   19.2636   13.1085   39.1077 H   0  0  0  0  0  0  0  0  0  0  0  0
   19.5283   13.9671   37.5522 H   0  0  0  0  0  0  0  0  0  0  0  0
   18.9548   12.2648   37.5522 H   0  0  0  0  0  0  0  0  0  0  0  0
   21.7333   12.8831   41.3076 H   0  0  0  0  0  0  0  0  0  0  0  0
   21.6340   14.4393   40.4160 H   0  0  0  0  0  0  0  0  0  0  0  0
   20.2344   13.3133   40.4160 H   0  0  0  0  0  0  0  0  0  0  0  0
   23.8309   12.4311   40.0053 H   0  0  0  0  0  0  0  0  0  0  0  0
   26.9819   11.4483   38.7060 H   0  0  0  0  0  0  0  0  0  0  0  0
   25.6674   12.3819   39.5503 H   0  0  0  0  0  0  0  0  0  0  0  0
   24.8887    9.7962   39.8733 H   0  0  0  0  0  0  0  0  0  0  0  0
   25.8317   10.1643   42.1180 H   0  0  0  0  0  0  0  0  0  0  0  0
   26.5130    8.3355   39.9993 H   0  0  0  0  0  0  0  0  0  0  0  0
   27.0712    9.3382   42.1232 H   0  0  0  0  0  0  0  0  0  0  0  0
   27.7297   10.3908   38.4268 H   0  0  0  0  0  0  0  0  0  0  0  0
   27.6458    7.5135   38.5469 H   0  0  0  0  0  0  0  0  0  0  0  0
   29.5581   10.3869   39.9960 H   0  0  0  0  0  0  0  0  0  0  0  0
   29.5567    8.5776   40.0457 H   0  0  0  0  0  0  0  0  0  0  0  0
  1  2  1  0
  1 12  2  0
  1 18  1  0
  2  3  1  0
  2 19  1  0
  3  4  1  0
  3 10  2  0
  4  5  1  0
  5  6  2  0
  5  7  1  0
  7  8  1  0
  8  9  2  0
  8 10  1  0
 10 11  1  0
 11 12  1  0
 12 13  1  0
 13 14  2  0
 14 15  1  0
 14 16  1  0
 16 17  1  0
 16 18  2  0
 19 20  1  0
 20 21  1  0
 20 22  1  0
 22 23  1  0
 22 24  1  0
 24 25  1  0
 24 26  1  0
 26 27  1  0
 27 28  1  0
 28 29  1  6
 28 30  2  0
 28 31  1  0
  4 32  1  0
  7 33  1  0
 11 34  1  0
 13 35  1  0
 15 36  1  0
 15 37  1  0
 15 38  1  0
 17 39  1  0
 17 40  1  0
 17 41  1  0
 18 42  1  0
 19 43  1  0
 19 44  1  0
 20 45  1  6
 21 46  1  0
 22 47  1  1
 23 48  1  0
 24 49  1  6
 25 50  1  0
 26 51  1  0
 26 52  1  0
M  CHG  2  29  -1  31  -1
M  END
>  <filename_input>  (7) 
6M73_FNR_docked.sdf

>  <pdb_id>  (7) 
6M73_FNR

>  <pose_rank>  (7) 
6

>  <num_atoms_heavy>  (7) 
31

>  <num_torsions>  (7) 
7

>  <pose>  (7) 
[23.68041838729893, 11.653771676058645, 37.993484757409064, -0.023155432787249613, 1.4823958166707754, -0.4297439067283466, -3.3617232842060827, -1.0323512242185249, 1.048623161408106, 5.124286268995669, -0.26528892381771246, -1.6113241032068668, 1.0196923650930747]

>  <energy>  (7) 
-699.7844744776305

>  <inter_energy>  (7) 
-750.7142406764634

>  <intra_energy>  (7) 
51.10904716068768

>  <rmsd>  (7) 
7.23425

>  <sdf_rank>  (7) 
0

$$$$

     RDKit          3D

 52 54  0  0  0  0  0  0  0  0999 V2000
   27.2114   10.4988   37.3951 C   0  0  0  0  0  0  0  0  0  0  0  0
   26.4381   10.9174   36.2806 N   0  0  0  0  0  0  0  0  0  0  0  0
   26.9536   10.7884   35.0023 C   0  0  0  0  0  0  0  0  0  0  0  0
   26.1586   11.0445   33.9215 N   0  0  0  0  0  0  0  0  0  0  0  0
   26.5859   10.8427   32.6422 C   0  0  0  0  0  0  0  0  0  0  0  0
   25.8430   11.0751   31.6993 O   0  0  0  0  0  0  0  0  0  0  0  0
   27.8590   10.3552   32.4893 N   0  0  0  0  0  0  0  0  0  0  0  0
   28.7399   10.0765   33.5214 C   0  0  0  0  0  0  0  0  0  0  0  0
   29.8704    9.6475   33.2614 O   0  0  0  0  0  0  0  0  0  0  0  0
   28.2678   10.2913   34.8202 C   0  0  0  0  0  0  0  0  0  0  0  0
   29.0620   10.0935   35.9066 N   0  0  0  0  0  0  0  0  0  0  0  0
   28.5464   10.0971   37.1891 C   0  0  0  0  0  0  0  0  0  0  0  0
   29.3187    9.6880   38.2584 C   0  0  0  0  0  0  0  0  0  0  0  0
   28.7960    9.6151   39.5212 C   0  0  0  0  0  0  0  0  0  0  0  0
   29.6422    9.1233   40.6641 C   0  0  0  0  0  0  0  0  0  0  0  0
   27.4286    9.9878   39.7370 C   0  0  0  0  0  0  0  0  0  0  0  0
   26.8395    9.9049   41.1180 C   0  0  0  0  0  0  0  0  0  0  0  0
   26.6671   10.4177   38.6770 C   0  0  0  0  0  0  0  0  0  0  0  0
   25.0058   11.2906   36.4707 C   0  0  0  0  0  0  0  0  0  0  0  0
   24.2767   10.3555   37.4443 C   0  0  2  0  0  0  0  0  0  0  0  0
   24.0552    9.0743   36.8444 O   0  0  0  0  0  0  0  0  0  0  0  0
   22.9063   10.8765   37.8921 C   0  0  2  0  0  0  0  0  0  0  0  0
   22.1898   11.3687   36.7397 O   0  0  0  0  0  0  0  0  0  0  0  0
   22.9278   11.9484   38.9881 C   0  0  2  0  0  0  0  0  0  0  0  0
   24.1523   11.8856   39.7292 O   0  0  0  0  0  0  0  0  0  0  0  0
   21.7662   11.7759   39.9412 C   0  0  0  0  0  0  0  0  0  0  0  0
   20.4994   11.9588   39.2650 O   0  0  0  0  0  0  0  0  0  0  0  0
   20.0061   13.4427   38.7951 P   0  0  2  0  0  0  0  0  0  0  0  0
   20.9421   14.3800   39.5028 O   0  0  0  0  0  0  0  0  0  0  0  0
   18.5791   13.6221   39.2473 O   0  0  0  0  0  0  0  0  0  0  0  0
   20.1077   13.5586   37.2821 O   0  0  0  0  0  0  0  0  0  0  0  0
   25.2053   11.4017   34.0778 H   0  0  0  0  0  0  0  0  0  0  0  0
   28.1868   10.1822   31.5283 H   0  0  0  0  0  0  0  0  0  0  0  0
   30.0710    9.9375   35.7705 H   0  0  0  0  0  0  0  0  0  0  0  0
   30.3716    9.4162   38.0923 H   0  0  0  0  0  0  0  0  0  0  0  0
   29.1673    9.3993   41.6172 H   0  0  0  0  0  0  0  0  0  0  0  0
   29.7378    8.0291   40.6053 H   0  0  0  0  0  0  0  0  0  0  0  0
   30.6402    9.5822   40.6053 H   0  0  0  0  0  0  0  0  0  0  0  0
   27.6390   10.0174   41.8651 H   0  0  0  0  0  0  0  0  0  0  0  0
   26.0990   10.7076   41.2496 H   0  0  0  0  0  0  0  0  0  0  0  0
   26.3494    8.9289   41.2496 H   0  0  0  0  0  0  0  0  0  0  0  0
   25.6169   10.7009   38.8411 H   0  0  0  0  0  0  0  0  0  0  0  0
   24.9584   12.3163   36.8652 H   0  0  0  0  0  0  0  0  0  0  0  0
   24.5075   11.2083   35.4935 H   0  0  0  0  0  0  0  0  0  0  0  0
   24.9374   10.2925   38.3215 H   0  0  0  0  0  0  0  0  0  0  0  0
   23.9376    8.3937   37.5537 H   0  0  0  0  0  0  0  0  0  0  0  0
   22.4005   10.0158   38.3538 H   0  0  0  0  0  0  0  0  0  0  0  0
   21.4117   11.9030   37.0384 H   0  0  0  0  0  0  0  0  0  0  0  0
   22.8447   12.9275   38.4938 H   0  0  0  0  0  0  0  0  0  0  0  0
   23.9522   11.8959   40.6987 H   0  0  0  0  0  0  0  0  0  0  0  0
   21.8010   10.7632   40.3691 H   0  0  0  0  0  0  0  0  0  0  0  0
   21.8504   12.5357   40.7322 H   0  0  0  0  0  0  0  0  0  0  0  0
  1  2  1  0
  1 12  2  0
  1 18  1  0
  2  3  1  0
  2 19  1  0
  3  4  1  0
  3 10  2  0
  4  5  1  0
  5  6  2  0
  5  7  1  0
  7  8  1  0
  8  9  2  0
  8 10  1  0
 10 11  1  0
 11 12  1  0
 12 13  1  0
 13 14  2  0
 14 15  1  0
 14 16  1  0
 16 17  1  0
 16 18  2  0
 19 20  1  0
 20 21  1  0
 20 22  1  0
 22 23  1  0
 22 24  1  0
 24 25  1  0
 24 26  1  0
 26 27  1  0
 27 28  1  0
 28 29  1  1
 28 30  2  0
 28 31  1  0
  4 32  1  0
  7 33  1  0
 11 34  1  0
 13 35  1  0
 15 36  1  0
 15 37  1  0
 15 38  1  0
 17 39  1  0
 17 40  1  0
 17 41  1  0
 18 42  1  0
 19 43  1  0
 19 44  1  0
 20 45  1  1
 21 46  1  0
 22 47  1  1
 23 48  1  0
 24 49  1  6
 25 50  1  0
 26 51  1  0
 26 52  1  0
M  CHG  2  29  -1  31  -1
M  END
>  <filename_input>  (8) 
6M73_FNR_docked.sdf

>  <pdb_id>  (8) 
6M73_FNR

>  <pose_rank>  (8) 
7

>  <num_atoms_heavy>  (8) 
31

>  <num_torsions>  (8) 
7

>  <pose>  (8) 
[27.211350244679966, 10.498778680801264, 37.39506146307996, -2.650381392244037, 0.4033804273642456, 1.1388862746218509, 0.7579636695497759, 0.06751450679029203, 6.10939523509272, 0.33414878989268504, 1.882845423002672, 0.4543462937327127, 2.6739549478592726]

>  <energy>  (8) 
-695.056580791542

>  <inter_energy>  (8) 
-746.6013270997

>  <intra_energy>  (8) 
58.393597407829446

>  <rmsd>  (8) 
4.97038

>  <sdf_rank>  (8) 
0

$$$$

     RDKit          3D

 52 54  0  0  0  0  0  0  0  0999 V2000
   26.9499   10.1682   37.9040 C   0  0  0  0  0  0  0  0  0  0  0  0
   28.1220    9.9840   37.1245 N   0  0  0  0  0  0  0  0  0  0  0  0
   29.3554    9.9123   37.7491 C   0  0  0  0  0  0  0  0  0  0  0  0
   30.4648    9.5827   37.0237 N   0  0  0  0  0  0  0  0  0  0  0  0
   31.6858    9.4059   37.6047 C   0  0  0  0  0  0  0  0  0  0  0  0
   32.6552    9.1025   36.9241 O   0  0  0  0  0  0  0  0  0  0  0  0
   31.7473    9.5647   38.9659 N   0  0  0  0  0  0  0  0  0  0  0  0
   30.6817    9.9079   39.7817 C   0  0  0  0  0  0  0  0  0  0  0  0
   30.8592   10.0323   40.9994 O   0  0  0  0  0  0  0  0  0  0  0  0
   29.4438   10.0777   39.1535 C   0  0  0  0  0  0  0  0  0  0  0  0
   28.3396   10.4584   39.8505 N   0  0  0  0  0  0  0  0  0  0  0  0
   27.0793   10.4222   39.2841 C   0  0  0  0  0  0  0  0  0  0  0  0
   25.9534   10.6069   40.0622 C   0  0  0  0  0  0  0  0  0  0  0  0
   24.6984   10.4980   39.5270 C   0  0  0  0  0  0  0  0  0  0  0  0
   23.4850   10.6582   40.4023 C   0  0  0  0  0  0  0  0  0  0  0  0
   24.5541   10.2052   38.1310 C   0  0  0  0  0  0  0  0  0  0  0  0
   23.1811   10.0750   37.5318 C   0  0  0  0  0  0  0  0  0  0  0  0
   25.6746   10.0451   37.3520 C   0  0  0  0  0  0  0  0  0  0  0  0
   28.0031    9.6566   35.6735 C   0  0  0  0  0  0  0  0  0  0  0  0
   27.3818   10.7994   34.8599 C   0  0  2  0  0  0  0  0  0  0  0  0
   26.2554   11.3551   35.5475 O   0  0  0  0  0  0  0  0  0  0  0  0
   26.8865   10.3724   33.4734 C   0  0  2  0  0  0  0  0  0  0  0  0
   25.7058    9.5561   33.6256 O   0  0  0  0  0  0  0  0  0  0  0  0
   27.9119    9.6456   32.5954 C   0  0  2  0  0  0  0  0  0  0  0  0
   29.2207    9.7353   33.1711 O   0  0  0  0  0  0  0  0  0  0  0  0
   27.9464   10.2302   31.2009 C   0  0  0  0  0  0  0  0  0  0  0  0
   29.2824   10.6569   30.8425 O   0  0  0  0  0  0  0  0  0  0  0  0
   29.5248   12.0312   29.9950 P   0  0  2  0  0  0  0  0  0  0  0  0
   30.4862   12.8168   30.8399 O   0  0  0  0  0  0  0  0  0  0  0  0
   28.1962   12.7299   29.8543 O   0  0  0  0  0  0  0  0  0  0  0  0
   30.1001   11.6931   28.6284 O   0  0  0  0  0  0  0  0  0  0  0  0
   30.3762    9.4637   36.0044 H   0  0  0  0  0  0  0  0  0  0  0  0
   32.6607    9.4167   39.4184 H   0  0  0  0  0  0  0  0  0  0  0  0
   28.4450   10.7812   40.8230 H   0  0  0  0  0  0  0  0  0  0  0  0
   26.0671   10.8456   41.1299 H   0  0  0  0  0  0  0  0  0  0  0  0
   23.7875   10.6183   41.4592 H   0  0  0  0  0  0  0  0  0  0  0  0
   23.0079   11.6272   40.1939 H   0  0  0  0  0  0  0  0  0  0  0  0
   22.7727    9.8464   40.1939 H   0  0  0  0  0  0  0  0  0  0  0  0
   22.4349   10.0043   38.3369 H   0  0  0  0  0  0  0  0  0  0  0  0
   22.9673   10.9569   36.9101 H   0  0  0  0  0  0  0  0  0  0  0  0
   23.1368    9.1686   36.9101 H   0  0  0  0  0  0  0  0  0  0  0  0
   25.5649    9.8173   36.2814 H   0  0  0  0  0  0  0  0  0  0  0  0
   29.0072    9.4467   35.2763 H   0  0  0  0  0  0  0  0  0  0  0  0
   27.3400    8.7837   35.5821 H   0  0  0  0  0  0  0  0  0  0  0  0
   28.1938   11.5313   34.7378 H   0  0  0  0  0  0  0  0  0  0  0  0
   26.3978   11.2848   36.5247 H   0  0  0  0  0  0  0  0  0  0  0  0
   26.6727   11.3081   32.9360 H   0  0  0  0  0  0  0  0  0  0  0  0
   25.5168    9.4254   34.5885 H   0  0  0  0  0  0  0  0  0  0  0  0
   27.6060    8.5907   32.5353 H   0  0  0  0  0  0  0  0  0  0  0  0
   29.1480    9.7303   34.1584 H   0  0  0  0  0  0  0  0  0  0  0  0
   27.6095    9.4670   30.4840 H   0  0  0  0  0  0  0  0  0  0  0  0
   27.2832   11.1075   31.1757 H   0  0  0  0  0  0  0  0  0  0  0  0
  1  2  1  0
  1 12  2  0
  1 18  1  0
  2  3  1  0
  2 19  1  0
  3  4  1  0
  3 10  2  0
  4  5  1  0
  5  6  2  0
  5  7  1  0
  7  8  1  0
  8  9  2  0
  8 10  1  0
 10 11  1  0
 11 12  1  0
 12 13  1  0
 13 14  2  0
 14 15  1  0
 14 16  1  0
 16 17  1  0
 16 18  2  0
 19 20  1  0
 20 21  1  0
 20 22  1  0
 22 23  1  0
 22 24  1  0
 24 25  1  0
 24 26  1  0
 26 27  1  0
 27 28  1  0
 28 29  1  1
 28 30  2  0
 28 31  1  0
  4 32  1  0
  7 33  1  0
 11 34  1  0
 13 35  1  0
 15 36  1  0
 15 37  1  0
 15 38  1  0
 17 39  1  0
 17 40  1  0
 17 41  1  0
 18 42  1  0
 19 43  1  0
 19 44  1  0
 20 45  1  6
 21 46  1  0
 22 47  1  6
 23 48  1  0
 24 49  1  6
 25 50  1  0
 26 51  1  0
 26 52  1  0
M  CHG  2  29  -1  31  -1
M  END
>  <filename_input>  (9) 
6M73_FNR_docked.sdf

>  <pdb_id>  (9) 
6M73_FNR

>  <pose_rank>  (9) 
8

>  <num_atoms_heavy>  (9) 
31

>  <num_torsions>  (9) 
7

>  <pose>  (9) 
[26.94993966700394, 10.168227949447786, 37.90397402556401, 2.7347932147733003, -0.012363737608904909, 1.1710338275508685, -3.674478167294928, 0.5656274069227595, 0.28247098944427274, 0.5345353714992419, -1.1255146068945425, -0.7391053539693677, -1.1996165654224196]

>  <energy>  (9) 
-588.7482720797888

>  <inter_energy>  (9) 
-692.6411480484139

>  <intra_energy>  (9) 
109.97071805480815

>  <rmsd>  (9) 
6.56874

>  <sdf_rank>  (9) 
0

$$$$

     RDKit          3D

 52 54  0  0  0  0  0  0  0  0999 V2000
   25.6477   10.7023   38.7301 C   0  0  0  0  0  0  0  0  0  0  0  0
   24.2982   10.8723   38.3238 N   0  0  0  0  0  0  0  0  0  0  0  0
   23.5475   11.9058   38.8575 C   0  0  0  0  0  0  0  0  0  0  0  0
   22.3031   12.1677   38.3590 N   0  0  0  0  0  0  0  0  0  0  0  0
   21.5605   13.2302   38.7824 C   0  0  0  0  0  0  0  0  0  0  0  0
   20.4534   13.4383   38.3069 O   0  0  0  0  0  0  0  0  0  0  0  0
   22.1306   14.0385   39.7330 N   0  0  0  0  0  0  0  0  0  0  0  0
   23.3782   13.8474   40.3038 C   0  0  0  0  0  0  0  0  0  0  0  0
   23.7858   14.6396   41.1618 O   0  0  0  0  0  0  0  0  0  0  0  0
   24.1139   12.7507   39.8438 C   0  0  0  0  0  0  0  0  0  0  0  0
   25.3314   12.4424   40.3661 N   0  0  0  0  0  0  0  0  0  0  0  0
   26.1519   11.4980   39.7782 C   0  0  0  0  0  0  0  0  0  0  0  0
   27.4610   11.3489   40.1921 C   0  0  0  0  0  0  0  0  0  0  0  0
   28.3044   10.4708   39.5671 C   0  0  0  0  0  0  0  0  0  0  0  0
   29.7396   10.3570   40.0049 C   0  0  0  0  0  0  0  0  0  0  0  0
   27.8124    9.6810   38.4765 C   0  0  0  0  0  0  0  0  0  0  0  0
   28.7306    8.7181   37.7759 C   0  0  0  0  0  0  0  0  0  0  0  0
   26.5032    9.8122   38.0803 C   0  0  0  0  0  0  0  0  0  0  0  0
   23.7639   10.0800   37.1777 C   0  0  0  0  0  0  0  0  0  0  0  0
   23.5305   10.9364   35.9263 C   0  0  2  0  0  0  0  0  0  0  0  0
   22.1298   11.0811   35.6669 O   0  0  0  0  0  0  0  0  0  0  0  0
   24.1578   10.3552   34.6541 C   0  0  2  0  0  0  0  0  0  0  0  0
   24.5274    8.9811   34.8963 O   0  0  0  0  0  0  0  0  0  0  0  0
   25.3585   11.1256   34.0925 C   0  0  2  0  0  0  0  0  0  0  0  0
   25.1468   12.5382   34.2041 O   0  0  0  0  0  0  0  0  0  0  0  0
   25.5984   10.7771   32.6405 C   0  0  0  0  0  0  0  0  0  0  0  0
   26.8323   11.3593   32.1567 O   0  0  0  0  0  0  0  0  0  0  0  0
   28.1014   10.4162   31.7493 P   0  0  2  0  0  0  0  0  0  0  0  0
   27.4690    9.1585   31.2263 O   0  0  0  0  0  0  0  0  0  0  0  0
   28.9114   10.1644   32.9957 O   0  0  0  0  0  0  0  0  0  0  0  0
   28.9428   11.1204   30.6962 O   0  0  0  0  0  0  0  0  0  0  0  0
   21.9128   11.5422   37.6398 H   0  0  0  0  0  0  0  0  0  0  0  0
   21.5864   14.8543   40.0481 H   0  0  0  0  0  0  0  0  0  0  0  0
   25.6493   12.9237   41.2194 H   0  0  0  0  0  0  0  0  0  0  0  0
   27.8319   11.9458   41.0383 H   0  0  0  0  0  0  0  0  0  0  0  0
   29.7885   10.3531   41.1038 H   0  0  0  0  0  0  0  0  0  0  0  0
   30.1687    9.4220   39.6155 H   0  0  0  0  0  0  0  0  0  0  0  0
   30.3107   11.2126   39.6155 H   0  0  0  0  0  0  0  0  0  0  0  0
   29.2879    8.1336   38.5227 H   0  0  0  0  0  0  0  0  0  0  0  0
   28.1377    8.0383   37.1462 H   0  0  0  0  0  0  0  0  0  0  0  0
   29.4377    9.2779   37.1462 H   0  0  0  0  0  0  0  0  0  0  0  0
   26.1255    9.2088   37.2417 H   0  0  0  0  0  0  0  0  0  0  0  0
   24.4846    9.2861   36.9319 H   0  0  0  0  0  0  0  0  0  0  0  0
   22.7921    9.6652   37.4836 H   0  0  0  0  0  0  0  0  0  0  0  0
   24.0108   11.9001   36.1516 H   0  0  0  0  0  0  0  0  0  0  0  0
   21.6388   11.1318   36.5251 H   0  0  0  0  0  0  0  0  0  0  0  0
   23.3832   10.4417   33.8778 H   0  0  0  0  0  0  0  0  0  0  0  0
   24.5712    8.8181   35.8718 H   0  0  0  0  0  0  0  0  0  0  0  0
   26.2411   10.8365   34.6819 H   0  0  0  0  0  0  0  0  0  0  0  0
   25.1088   12.7916   35.1604 H   0  0  0  0  0  0  0  0  0  0  0  0
   25.6544    9.6832   32.5390 H   0  0  0  0  0  0  0  0  0  0  0  0
   24.7668   11.1811   32.0445 H   0  0  0  0  0  0  0  0  0  0  0  0
  1  2  1  0
  1 12  2  0
  1 18  1  0
  2  3  1  0
  2 19  1  0
  3  4  1  0
  3 10  2  0
  4  5  1  0
  5  6  2  0
  5  7  1  0
  7  8  1  0
  8  9  2  0
  8 10  1  0
 10 11  1  0
 11 12  1  0
 12 13  1  0
 13 14  2  0
 14 15  1  0
 14 16  1  0
 16 17  1  0
 16 18  2  0
 19 20  1  0
 20 21  1  0
 20 22  1  0
 22 23  1  0
 22 24  1  0
 24 25  1  0
 24 26  1  0
 26 27  1  0
 27 28  1  0
 28 29  1  6
 28 30  2  0
 28 31  1  0
  4 32  1  0
  7 33  1  0
 11 34  1  0
 13 35  1  0
 15 36  1  0
 15 37  1  0
 15 38  1  0
 17 39  1  0
 17 40  1  0
 17 41  1  0
 18 42  1  0
 19 43  1  0
 19 44  1  0
 20 45  1  1
 21 46  1  0
 22 47  1  6
 23 48  1  0
 24 49  1  1
 25 50  1  0
 26 51  1  0
 26 52  1  0
M  CHG  2  29  -1  31  -1
M  END
>  <filename_input>  (10) 
6M73_FNR_docked.sdf

>  <pdb_id>  (10) 
6M73_FNR

>  <pose_rank>  (10) 
9

>  <num_atoms_heavy>  (10) 
31

>  <num_torsions>  (10) 
7

>  <pose>  (10) 
[25.647717836674985, 10.70225761898717, 38.730085797242516, 1.6839428806458203, 3.666851663819115, -1.0966263358901782, -0.42988389485972955, -0.5984051925949904, -0.7148386954411963, 0.035571132446488435, -0.016320101144839637, 3.6889254936165994, 3.4585136427083625]

>  <energy>  (10) 
-562.613776262053

>  <inter_energy>  (10) 
-596.0000829969619

>  <intra_energy>  (10) 
25.629790065044432

>  <rmsd>  (10) 
7.45102

>  <sdf_rank>  (10) 
0

$$$$

     RDKit          3D

 52 54  0  0  0  0  0  0  0  0999 V2000
   25.9006   10.5770   35.7963 C   0  0  0  0  0  0  0  0  0  0  0  0
   25.6522   10.5317   37.1932 N   0  0  0  0  0  0  0  0  0  0  0  0
   24.5228   11.1449   37.7082 C   0  0  0  0  0  0  0  0  0  0  0  0
   24.1989   10.9743   39.0241 N   0  0  0  0  0  0  0  0  0  0  0  0
   23.0498   11.4767   39.5596 C   0  0  0  0  0  0  0  0  0  0  0  0
   22.7888   11.2966   40.7405 O   0  0  0  0  0  0  0  0  0  0  0  0
   22.2205   12.1583   38.7055 N   0  0  0  0  0  0  0  0  0  0  0  0
   22.4688   12.3907   37.3626 C   0  0  0  0  0  0  0  0  0  0  0  0
   21.6494   13.0285   36.6908 O   0  0  0  0  0  0  0  0  0  0  0  0
   23.6541   11.8582   36.8457 C   0  0  0  0  0  0  0  0  0  0  0  0
   24.0202   12.0633   35.5518 N   0  0  0  0  0  0  0  0  0  0  0  0
   25.0708   11.3710   34.9795 C   0  0  0  0  0  0  0  0  0  0  0  0
   25.2945   11.4324   33.6181 C   0  0  0  0  0  0  0  0  0  0  0  0
   26.2840   10.6920   33.0301 C   0  0  0  0  0  0  0  0  0  0  0  0
   26.4811   10.7393   31.5391 C   0  0  0  0  0  0  0  0  0  0  0  0
   27.1121    9.8535   33.8465 C   0  0  0  0  0  0  0  0  0  0  0  0
   28.1978    9.0288   33.2123 C   0  0  0  0  0  0  0  0  0  0  0  0
   26.9049    9.8108   35.2042 C   0  0  0  0  0  0  0  0  0  0  0  0
   26.4835    9.6515   38.0655 C   0  0  0  0  0  0  0  0  0  0  0  0
   27.9405   10.1226   38.1614 C   0  0  2  0  0  0  0  0  0  0  0  0
   28.1560   11.2708   37.3336 O   0  0  0  0  0  0  0  0  0  0  0  0
   28.9615    9.0656   37.7253 C   0  0  2  0  0  0  0  0  0  0  0  0
   29.3153    8.2536   38.8651 O   0  0  0  0  0  0  0  0  0  0  0  0
   30.2314    9.6036   37.0556 C   0  0  2  0  0  0  0  0  0  0  0  0
   30.4493    8.9557   35.7964 O   0  0  0  0  0  0  0  0  0  0  0  0
   31.4432    9.3902   37.9351 C   0  0  0  0  0  0  0  0  0  0  0  0
   31.0668    9.2626   39.3271 O   0  0  0  0  0  0  0  0  0  0  0  0
   31.2946   10.4948   40.3738 P   0  0  2  0  0  0  0  0  0  0  0  0
   29.9594   11.1801   40.4276 O   0  0  0  0  0  0  0  0  0  0  0  0
   32.3667   11.3916   39.8084 O   0  0  0  0  0  0  0  0  0  0  0  0
   31.7155    9.9434   41.7271 O   0  0  0  0  0  0  0  0  0  0  0  0
   24.8436   10.4489   39.6317 H   0  0  0  0  0  0  0  0  0  0  0  0
   21.3412   12.5276   39.0945 H   0  0  0  0  0  0  0  0  0  0  0  0
   23.5026   12.7504   34.9854 H   0  0  0  0  0  0  0  0  0  0  0  0
   24.6669   12.0874   32.9960 H   0  0  0  0  0  0  0  0  0  0  0  0
   27.5285   10.9905   31.3154 H   0  0  0  0  0  0  0  0  0  0  0  0
   26.2390    9.7576   31.1059 H   0  0  0  0  0  0  0  0  0  0  0  0
   25.8200   11.5043   31.1059 H   0  0  0  0  0  0  0  0  0  0  0  0
   28.8108    8.5631   33.9980 H   0  0  0  0  0  0  0  0  0  0  0  0
   27.7451    8.2448   32.5875 H   0  0  0  0  0  0  0  0  0  0  0  0
   28.8317    9.6751   32.5875 H   0  0  0  0  0  0  0  0  0  0  0  0
   27.5377    9.1654   35.8311 H   0  0  0  0  0  0  0  0  0  0  0  0
   26.0484    9.6443   39.0758 H   0  0  0  0  0  0  0  0  0  0  0  0
   26.4870    8.6466   37.6182 H   0  0  0  0  0  0  0  0  0  0  0  0
   28.0939   10.3468   39.2274 H   0  0  0  0  0  0  0  0  0  0  0  0
   28.3052   12.0658   37.9044 H   0  0  0  0  0  0  0  0  0  0  0  0
   28.4607    8.4780   36.9418 H   0  0  0  0  0  0  0  0  0  0  0  0
   29.1018    8.7436   39.6984 H   0  0  0  0  0  0  0  0  0  0  0  0
   30.0886   10.6826   36.8962 H   0  0  0  0  0  0  0  0  0  0  0  0
   30.7608    8.0290   35.9517 H   0  0  0  0  0  0  0  0  0  0  0  0
   31.9590    8.4719   37.6178 H   0  0  0  0  0  0  0  0  0  0  0  0
   32.1045   10.2632   37.8329 H   0  0  0  0  0  0  0  0  0  0  0  0
  1  2  1  0
  1 12  2  0
  1 18  1  0
  2  3  1  0
  2 19  1  0
  3  4  1  0
  3 10  2  0
  4  5  1  0
  5  6  2  0
  5  7  1  0
  7  8  1  0
  8  9  2  0
  8 10  1  0
 10 11  1  0
 11 12  1  0
 12 13  1  0
 13 14  2  0
 14 15  1  0
 14 16  1  0
 16 17  1  0
 16 18  2  0
 19 20  1  0
 20 21  1  0
 20 22  1  0
 22 23  1  0
 22 24  1  0
 24 25  1  0
 24 26  1  0
 26 27  1  0
 27 28  1  0
 28 29  1  1
 28 30  2  0
 28 31  1  0
  4 32  1  0
  7 33  1  0
 11 34  1  0
 13 35  1  0
 15 36  1  0
 15 37  1  0
 15 38  1  0
 17 39  1  0
 17 40  1  0
 17 41  1  0
 18 42  1  0
 19 43  1  0
 19 44  1  0
 20 45  1  1
 21 46  1  0
 22 47  1  6
 23 48  1  0
 24 49  1  6
 25 50  1  0
 26 51  1  0
 26 52  1  0
M  CHG  2  29  -1  31  -1
M  END
>  <filename_input>  (11) 
6M73_FNR_docked.sdf

>  <pdb_id>  (11) 
6M73_FNR

>  <pose_rank>  (11) 
10

>  <num_atoms_heavy>  (11) 
31

>  <num_torsions>  (11) 
7

>  <pose>  (11) 
[25.900556744235512, 10.577030780740332, 35.79630117079592, -0.0003584842374115705, -0.19794339882467882, 2.5254575067083294, -3.6399068343184657, 1.283098512347314, 3.7761648556550442, -1.4969444200650697, 2.580014515086591, -0.09192369696845307, -1.694476839992861]

>  <energy>  (11) 
-544.4787795573252

>  <inter_energy>  (11) 
-668.9858024312474

>  <intra_energy>  (11) 
119.68741530381024

>  <rmsd>  (11) 
7.03689

>  <sdf_rank>  (11) 
0

$$$$

     RDKit          3D

 52 54  0  0  0  0  0  0  0  0999 V2000
   26.2729   10.5595   37.7279 C   0  0  0  0  0  0  0  0  0  0  0  0
   25.1792   10.9912   36.9324 N   0  0  0  0  0  0  0  0  0  0  0  0
   23.9603   11.2590   37.5316 C   0  0  0  0  0  0  0  0  0  0  0  0
   22.9531   11.8195   36.7988 N   0  0  0  0  0  0  0  0  0  0  0  0
   21.7668   12.1902   37.3601 C   0  0  0  0  0  0  0  0  0  0  0  0
   20.8909   12.6972   36.6740 O   0  0  0  0  0  0  0  0  0  0  0  0
   21.6342   11.9829   38.7097 N   0  0  0  0  0  0  0  0  0  0  0  0
   22.5932   11.4130   39.5310 C   0  0  0  0  0  0  0  0  0  0  0  0
   22.3574   11.2673   40.7363 O   0  0  0  0  0  0  0  0  0  0  0  0
   23.7987   11.0482   38.9233 C   0  0  0  0  0  0  0  0  0  0  0  0
   24.7925   10.4397   39.6249 N   0  0  0  0  0  0  0  0  0  0  0  0
   26.0557   10.2702   39.0899 C   0  0  0  0  0  0  0  0  0  0  0  0
   27.1039    9.8466   39.8830 C   0  0  0  0  0  0  0  0  0  0  0  0
   28.3741    9.7481   39.3828 C   0  0  0  0  0  0  0  0  0  0  0  0
   29.5096    9.3280   40.2763 C   0  0  0  0  0  0  0  0  0  0  0  0
   28.6135   10.0734   38.0073 C   0  0  0  0  0  0  0  0  0  0  0  0
   30.0056    9.9771   37.4469 C   0  0  0  0  0  0  0  0  0  0  0  0
   27.5661   10.4720   37.2121 C   0  0  0  0  0  0  0  0  0  0  0  0
   25.4017   11.3577   35.5031 C   0  0  0  0  0  0  0  0  0  0  0  0
   24.7757   10.3490   34.5311 C   0  0  2  0  0  0  0  0  0  0  0  0
   25.2832    9.0322   34.7729 O   0  0  0  0  0  0  0  0  0  0  0  0
   25.0469   10.6630   33.0554 C   0  0  2  0  0  0  0  0  0  0  0  0
   24.8001    9.4784   32.2685 O   0  0  0  0  0  0  0  0  0  0  0  0
   26.4408   11.2171   32.7383 C   0  0  2  0  0  0  0  0  0  0  0  0
   26.3410   12.4076   31.9475 O   0  0  0  0  0  0  0  0  0  0  0  0
   27.2748   10.1993   31.9926 C   0  0  0  0  0  0  0  0  0  0  0  0
   27.9376    9.2922   32.9055 O   0  0  0  0  0  0  0  0  0  0  0  0
   29.2860    9.7456   33.7068 P   0  0  2  0  0  0  0  0  0  0  0  0
   29.9824    8.4506   34.0123 O   0  0  0  0  0  0  0  0  0  0  0  0
   28.8602   10.4668   34.9606 O   0  0  0  0  0  0  0  0  0  0  0  0
   30.1231   10.6566   32.8223 O   0  0  0  0  0  0  0  0  0  0  0  0
   23.0941   11.9670   35.7892 H   0  0  0  0  0  0  0  0  0  0  0  0
   20.7492   12.2749   39.1482 H   0  0  0  0  0  0  0  0  0  0  0  0
   24.5993   10.0974   40.5770 H   0  0  0  0  0  0  0  0  0  0  0  0
   26.9148    9.5840   40.9343 H   0  0  0  0  0  0  0  0  0  0  0  0
   29.2088    9.4393   41.3285 H   0  0  0  0  0  0  0  0  0  0  0  0
   29.7634    8.2764   40.0767 H   0  0  0  0  0  0  0  0  0  0  0  0
   30.3867    9.9611   40.0767 H   0  0  0  0  0  0  0  0  0  0  0  0
   30.7306    9.9269   38.2727 H   0  0  0  0  0  0  0  0  0  0  0  0
   30.0902    9.0709   36.8291 H   0  0  0  0  0  0  0  0  0  0  0  0
   30.2143   10.8629   36.8291 H   0  0  0  0  0  0  0  0  0  0  0  0
   27.7494   10.7248   36.1573 H   0  0  0  0  0  0  0  0  0  0  0  0
   24.9566   12.3467   35.3195 H   0  0  0  0  0  0  0  0  0  0  0  0
   26.4873   11.3620   35.3253 H   0  0  0  0  0  0  0  0  0  0  0  0
   23.6933   10.4152   34.7158 H   0  0  0  0  0  0  0  0  0  0  0  0
   25.3435    8.8758   35.7486 H   0  0  0  0  0  0  0  0  0  0  0  0
   24.3568   11.4795   32.7964 H   0  0  0  0  0  0  0  0  0  0  0  0
   24.6399    8.7094   32.8711 H   0  0  0  0  0  0  0  0  0  0  0  0
   26.9293   11.4496   33.6961 H   0  0  0  0  0  0  0  0  0  0  0  0
   26.2750   13.1952   32.5436 H   0  0  0  0  0  0  0  0  0  0  0  0
   26.6205    9.6204   31.3242 H   0  0  0  0  0  0  0  0  0  0  0  0
   28.0434   10.7353   31.4165 H   0  0  0  0  0  0  0  0  0  0  0  0
  1  2  1  0
  1 12  2  0
  1 18  1  0
  2  3  1  0
  2 19  1  0
  3  4  1  0
  3 10  2  0
  4  5  1  0
  5  6  2  0
  5  7  1  0
  7  8  1  0
  8  9  2  0
  8 10  1  0
 10 11  1  0
 11 12  1  0
 12 13  1  0
 13 14  2  0
 14 15  1  0
 14 16  1  0
 16 17  1  0
 16 18  2  0
 19 20  1  0
 20 21  1  0
 20 22  1  0
 22 23  1  0
 22 24  1  0
 24 25  1  0
 24 26  1  0
 26 27  1  0
 27 28  1  0
 28 29  1  1
 28 30  2  0
 28 31  1  0
  4 32  1  0
  7 33  1  0
 11 34  1  0
 13 35  1  0
 15 36  1  0
 15 37  1  0
 15 38  1  0
 17 39  1  0
 17 40  1  0
 17 41  1  0
 18 42  1  0
 19 43  1  0
 19 44  1  0
 20 45  1  6
 21 46  1  0
 22 47  1  6
 23 48  1  0
 24 49  1  1
 25 50  1  0
 26 51  1  0
 26 52  1  0
M  CHG  2  29  -1  31  -1
M  END
>  <filename_input>  (12) 
6M73_FNR_docked.sdf

>  <pdb_id>  (12) 
6M73_FNR

>  <pose_rank>  (12) 
11

>  <num_atoms_heavy>  (12) 
31

>  <num_torsions>  (12) 
7

>  <pose>  (12) 
[26.272852755967204, 10.559489467926188, 37.72789042957927, -0.19876699419551902, -2.346672104695845, -0.36224566941835806, -34.30984452756531, -43.64983566636574, -16.98254861940441, 11.029872195000943, 7.784648016218964, -5.931577267427988, 0.18661495055003788]

>  <energy>  (12) 
-586.5259150444335

>  <inter_energy>  (12) 
-645.6743418171678

>  <intra_energy>  (12) 
69.05225272957769

>  <rmsd>  (12) 
7.65127

>  <sdf_rank>  (12) 
0

$$$$

     RDKit          3D

 52 54  0  0  0  0  0  0  0  0999 V2000
   26.0669   10.8743   36.4977 C   0  0  0  0  0  0  0  0  0  0  0  0
   25.6550   11.2716   37.7968 N   0  0  0  0  0  0  0  0  0  0  0  0
   24.3240   11.5719   38.0311 C   0  0  0  0  0  0  0  0  0  0  0  0
   23.8958   11.8043   39.3071 N   0  0  0  0  0  0  0  0  0  0  0  0
   22.5812   12.0110   39.6051 C   0  0  0  0  0  0  0  0  0  0  0  0
   22.2336   12.2075   40.7608 O   0  0  0  0  0  0  0  0  0  0  0  0
   21.6984   11.9630   38.5562 N   0  0  0  0  0  0  0  0  0  0  0  0
   22.0391   11.7450   37.2313 C   0  0  0  0  0  0  0  0  0  0  0  0
   21.1548   11.7322   36.3667 O   0  0  0  0  0  0  0  0  0  0  0  0
   23.3950   11.5332   36.9621 C   0  0  0  0  0  0  0  0  0  0  0  0
   23.8476   11.3539   35.6920 N   0  0  0  0  0  0  0  0  0  0  0  0
   25.1403   10.9358   35.4377 C   0  0  0  0  0  0  0  0  0  0  0  0
   25.5189   10.5565   34.1649 C   0  0  0  0  0  0  0  0  0  0  0  0
   26.7733   10.0691   33.9160 C   0  0  0  0  0  0  0  0  0  0  0  0
   27.1502    9.6191   32.5305 C   0  0  0  0  0  0  0  0  0  0  0  0
   27.7136    9.9691   34.9937 C   0  0  0  0  0  0  0  0  0  0  0  0
   29.0926    9.4279   34.7357 C   0  0  0  0  0  0  0  0  0  0  0  0
   27.3445   10.3689   36.2554 C   0  0  0  0  0  0  0  0  0  0  0  0
   26.6046   11.1584   38.9423 C   0  0  0  0  0  0  0  0  0  0  0  0
   26.7755    9.7125   39.4262 C   0  0  2  0  0  0  0  0  0  0  0  0
   26.1670    8.7972   38.5085 O   0  0  0  0  0  0  0  0  0  0  0  0
   26.1501    9.4426   40.7995 C   0  0  2  0  0  0  0  0  0  0  0  0
   25.1436   10.4429   41.0638 O   0  0  0  0  0  0  0  0  0  0  0  0
   27.1319    9.3694   41.9748 C   0  0  2  0  0  0  0  0  0  0  0  0
   28.3905    8.8353   41.5465 O   0  0  0  0  0  0  0  0  0  0  0  0
   26.5842    8.5056   43.0889 C   0  0  0  0  0  0  0  0  0  0  0  0
   27.5952    8.2326   44.0883 O   0  0  0  0  0  0  0  0  0  0  0  0
   27.1839    7.9600   45.6447 P   0  0  2  0  0  0  0  0  0  0  0  0
   28.4684    7.5277   46.2918 O   0  0  0  0  0  0  0  0  0  0  0  0
   26.1458    6.8668   45.6656 O   0  0  0  0  0  0  0  0  0  0  0  0
   26.6301    9.2370   46.2573 O   0  0  0  0  0  0  0  0  0  0  0  0
   24.5884   11.8241   40.0692 H   0  0  0  0  0  0  0  0  0  0  0  0
   20.7005   12.1004   38.7713 H   0  0  0  0  0  0  0  0  0  0  0  0
   23.2124   11.5338   34.9014 H   0  0  0  0  0  0  0  0  0  0  0  0
   24.8001   10.6476   33.3372 H   0  0  0  0  0  0  0  0  0  0  0  0
   27.8551    8.7773   32.5974 H   0  0  0  0  0  0  0  0  0  0  0  0
   26.2469    9.2989   31.9906 H   0  0  0  0  0  0  0  0  0  0  0  0
   27.6241   10.4521   31.9906 H   0  0  0  0  0  0  0  0  0  0  0  0
   29.5945    9.2310   35.6945 H   0  0  0  0  0  0  0  0  0  0  0  0
   29.0180    8.4924   34.1619 H   0  0  0  0  0  0  0  0  0  0  0  0
   29.6741   10.1646   34.1619 H   0  0  0  0  0  0  0  0  0  0  0  0
   28.0642   10.2897   37.0835 H   0  0  0  0  0  0  0  0  0  0  0  0
   27.5856   11.5423   38.6259 H   0  0  0  0  0  0  0  0  0  0  0  0
   26.1905   11.7424   39.7774 H   0  0  0  0  0  0  0  0  0  0  0  0
   27.8635    9.5661   39.4957 H   0  0  0  0  0  0  0  0  0  0  0  0
   25.6956    8.0880   39.0136 H   0  0  0  0  0  0  0  0  0  0  0  0
   25.7187    8.4330   40.7334 H   0  0  0  0  0  0  0  0  0  0  0  0
   25.0347   10.5512   42.0418 H   0  0  0  0  0  0  0  0  0  0  0  0
   27.2737   10.3934   42.3507 H   0  0  0  0  0  0  0  0  0  0  0  0
   28.9372    8.6033   42.3385 H   0  0  0  0  0  0  0  0  0  0  0  0
   25.7410    9.0272   43.5653 H   0  0  0  0  0  0  0  0  0  0  0  0
   26.2558    7.5487   42.6569 H   0  0  0  0  0  0  0  0  0  0  0  0
  1  2  1  0
  1 12  2  0
  1 18  1  0
  2  3  1  0
  2 19  1  0
  3  4  1  0
  3 10  2  0
  4  5  1  0
  5  6  2  0
  5  7  1  0
  7  8  1  0
  8  9  2  0
  8 10  1  0
 10 11  1  0
 11 12  1  0
 12 13  1  0
 13 14  2  0
 14 15  1  0
 14 16  1  0
 16 17  1  0
 16 18  2  0
 19 20  1  0
 20 21  1  0
 20 22  1  0
 22 23  1  0
 22 24  1  0
 24 25  1  0
 24 26  1  0
 26 27  1  0
 27 28  1  0
 28 29  1  1
 28 30  2  0
 28 31  1  0
  4 32  1  0
  7 33  1  0
 11 34  1  0
 13 35  1  0
 15 36  1  0
 15 37  1  0
 15 38  1  0
 17 39  1  0
 17 40  1  0
 17 41  1  0
 18 42  1  0
 19 43  1  0
 19 44  1  0
 20 45  1  1
 21 46  1  0
 22 47  1  6
 23 48  1  0
 24 49  1  1
 25 50  1  0
 26 51  1  0
 26 52  1  0
M  CHG  2  29  -1  31  -1
M  END
>  <filename_input>  (13) 
6M73_FNR_docked.sdf

>  <pdb_id>  (13) 
6M73_FNR

>  <pose_rank>  (13) 
12

>  <num_atoms_heavy>  (13) 
31

>  <num_torsions>  (13) 
7

>  <pose>  (13) 
[26.066922372591456, 10.874304548344812, 36.4976962581088, -0.23446671276339195, 0.32626191204154953, 2.8928889172874515, -6.140253001823222, 1.507951358183251, 5.697447012326282, -6.1229343011967385, 5.948746822103483, 4.36408914656619, -6.667559861071762]

>  <energy>  (13) 
-570.4190706993063

>  <inter_energy>  (13) 
-639.5618405642725

>  <intra_energy>  (13) 
68.17093594780418

>  <rmsd>  (13) 
6.85607

>  <sdf_rank>  (13) 
0

$$$$

     RDKit          3D

 52 54  0  0  0  0  0  0  0  0999 V2000
   25.2977   11.4604   36.5353 C   0  0  0  0  0  0  0  0  0  0  0  0
   25.0827   12.2280   37.7099 N   0  0  0  0  0  0  0  0  0  0  0  0
   23.7934   12.4189   38.1767 C   0  0  0  0  0  0  0  0  0  0  0  0
   23.5922   13.0232   39.3849 N   0  0  0  0  0  0  0  0  0  0  0  0
   22.3507   13.1513   39.9345 C   0  0  0  0  0  0  0  0  0  0  0  0
   22.2099   13.6908   41.0227 O   0  0  0  0  0  0  0  0  0  0  0  0
   21.3042   12.6302   39.2167 N   0  0  0  0  0  0  0  0  0  0  0  0
   21.4088   12.0112   37.9819 C   0  0  0  0  0  0  0  0  0  0  0  0
   20.3907   11.5865   37.4226 O   0  0  0  0  0  0  0  0  0  0  0  0
   22.6967   11.8936   37.4496 C   0  0  0  0  0  0  0  0  0  0  0  0
   22.9115   11.3437   36.2242 N   0  0  0  0  0  0  0  0  0  0  0  0
   24.1845   11.0315   35.7852 C   0  0  0  0  0  0  0  0  0  0  0  0
   24.3691   10.2855   34.6378 C   0  0  0  0  0  0  0  0  0  0  0  0
   25.6209    9.9060   34.2350 C   0  0  0  0  0  0  0  0  0  0  0  0
   25.7958    9.0549   33.0064 C   0  0  0  0  0  0  0  0  0  0  0  0
   26.7587   10.3068   35.0095 C   0  0  0  0  0  0  0  0  0  0  0  0
   28.1390    9.8901   34.5826 C   0  0  0  0  0  0  0  0  0  0  0  0
   26.5766   11.0694   36.1381 C   0  0  0  0  0  0  0  0  0  0  0  0
   26.2459   12.6414   38.5483 C   0  0  0  0  0  0  0  0  0  0  0  0
   26.5088   11.6745   39.7102 C   0  0  2  0  0  0  0  0  0  0  0  0
   26.9596   12.3863   40.8679 O   0  0  0  0  0  0  0  0  0  0  0  0
   27.5715   10.6134   39.4024 C   0  0  2  0  0  0  0  0  0  0  0  0
   27.7077   10.4841   37.9713 O   0  0  0  0  0  0  0  0  0  0  0  0
   27.3355    9.2342   40.0291 C   0  0  2  0  0  0  0  0  0  0  0  0
   25.9489    8.8806   39.9597 O   0  0  0  0  0  0  0  0  0  0  0  0
   27.7778    9.2102   41.4753 C   0  0  0  0  0  0  0  0  0  0  0  0
   26.7251    8.7190   42.3391 O   0  0  0  0  0  0  0  0  0  0  0  0
   27.0617    8.1549   43.8339 P   0  0  2  0  0  0  0  0  0  0  0  0
   26.6539    9.2749   44.7474 O   0  0  0  0  0  0  0  0  0  0  0  0
   28.5427    7.8806   43.9037 O   0  0  0  0  0  0  0  0  0  0  0  0
   26.2683    6.8830   44.0898 O   0  0  0  0  0  0  0  0  0  0  0  0
   24.4047   13.3944   39.8978 H   0  0  0  0  0  0  0  0  0  0  0  0
   20.3636   12.7054   39.6297 H   0  0  0  0  0  0  0  0  0  0  0  0
   22.1070   11.1555   35.6092 H   0  0  0  0  0  0  0  0  0  0  0  0
   23.4955    9.9913   34.0376 H   0  0  0  0  0  0  0  0  0  0  0  0
   26.0088    8.0181   33.3059 H   0  0  0  0  0  0  0  0  0  0  0  0
   24.8734    9.0814   32.4076 H   0  0  0  0  0  0  0  0  0  0  0  0
   26.6329    9.4430   32.4076 H   0  0  0  0  0  0  0  0  0  0  0  0
   28.7574    9.7034   35.4729 H   0  0  0  0  0  0  0  0  0  0  0  0
   28.0750    8.9713   33.9813 H   0  0  0  0  0  0  0  0  0  0  0  0
   28.5942   10.6909   33.9813 H   0  0  0  0  0  0  0  0  0  0  0  0
   27.4488   11.3748   36.7347 H   0  0  0  0  0  0  0  0  0  0  0  0
   27.1426   12.6800   37.9123 H   0  0  0  0  0  0  0  0  0  0  0  0
   26.0122   13.6256   38.9803 H   0  0  0  0  0  0  0  0  0  0  0  0
   25.5450   11.1732   39.8824 H   0  0  0  0  0  0  0  0  0  0  0  0
   26.6597   11.9127   41.6840 H   0  0  0  0  0  0  0  0  0  0  0  0
   28.4968   10.9783   39.8720 H   0  0  0  0  0  0  0  0  0  0  0  0
   28.4105    9.8178   37.7655 H   0  0  0  0  0  0  0  0  0  0  0  0
   27.9315    8.5063   39.4590 H   0  0  0  0  0  0  0  0  0  0  0  0
   25.5856    8.7879   40.8760 H   0  0  0  0  0  0  0  0  0  0  0  0
   28.6553    8.5539   41.5708 H   0  0  0  0  0  0  0  0  0  0  0  0
   28.0255   10.2378   41.7796 H   0  0  0  0  0  0  0  0  0  0  0  0
  1  2  1  0
  1 12  2  0
  1 18  1  0
  2  3  1  0
  2 19  1  0
  3  4  1  0
  3 10  2  0
  4  5  1  0
  5  6  2  0
  5  7  1  0
  7  8  1  0
  8  9  2  0
  8 10  1  0
 10 11  1  0
 11 12  1  0
 12 13  1  0
 13 14  2  0
 14 15  1  0
 14 16  1  0
 16 17  1  0
 16 18  2  0
 19 20  1  0
 20 21  1  0
 20 22  1  0
 22 23  1  0
 22 24  1  0
 24 25  1  0
 24 26  1  0
 26 27  1  0
 27 28  1  0
 28 29  1  1
 28 30  2  0
 28 31  1  0
  4 32  1  0
  7 33  1  0
 11 34  1  0
 13 35  1  0
 15 36  1  0
 15 37  1  0
 15 38  1  0
 17 39  1  0
 17 40  1  0
 17 41  1  0
 18 42  1  0
 19 43  1  0
 19 44  1  0
 20 45  1  1
 21 46  1  0
 22 47  1  1
 23 48  1  0
 24 49  1  6
 25 50  1  0
 26 51  1  0
 26 52  1  0
M  CHG  2  29  -1  31  -1
M  END
>  <filename_input>  (14) 
6M73_FNR_docked.sdf

>  <pdb_id>  (14) 
6M73_FNR

>  <pose_rank>  (14) 
13

>  <num_atoms_heavy>  (14) 
31

>  <num_torsions>  (14) 
7

>  <pose>  (14) 
[25.297749588707987, 11.460361271010493, 36.53534336815808, -0.03228765347470839, -0.876229787785935, -3.010032832896639, -0.19340855852534086, -1.1918032175406832, 4.962083283970697, 1.4287254456800489, 5.217012052713612, 10.808908573080416, -1.5944901371359068]

>  <energy>  (14) 
-519.481937727403

>  <inter_energy>  (14) 
-605.8547565265582

>  <intra_energy>  (14) 
92.57411518051384

>  <rmsd>  (14) 
6.77615

>  <sdf_rank>  (14) 
0

$$$$

     RDKit          3D

 52 54  0  0  0  0  0  0  0  0999 V2000
   25.1841   11.5473   36.7954 C   0  0  0  0  0  0  0  0  0  0  0  0
   24.8692   12.2402   37.9937 N   0  0  0  0  0  0  0  0  0  0  0  0
   23.5475   12.5209   38.2953 C   0  0  0  0  0  0  0  0  0  0  0  0
   23.2273   13.0479   39.5140 N   0  0  0  0  0  0  0  0  0  0  0  0
   21.9353   13.2552   39.8982 C   0  0  0  0  0  0  0  0  0  0  0  0
   21.6863   13.7211   41.0009 O   0  0  0  0  0  0  0  0  0  0  0  0
   20.9621   12.8961   39.0005 N   0  0  0  0  0  0  0  0  0  0  0  0
   21.1897   12.3661   37.7410 C   0  0  0  0  0  0  0  0  0  0  0  0
   20.2300   12.0879   37.0122 O   0  0  0  0  0  0  0  0  0  0  0  0
   22.5258   12.1633   37.3812 C   0  0  0  0  0  0  0  0  0  0  0  0
   22.8667   11.6903   36.1522 N   0  0  0  0  0  0  0  0  0  0  0  0
   24.1578   11.2889   35.8649 C   0  0  0  0  0  0  0  0  0  0  0  0
   24.4406   10.6183   34.6912 C   0  0  0  0  0  0  0  0  0  0  0  0
   25.6997   10.1493   34.4307 C   0  0  0  0  0  0  0  0  0  0  0  0
   25.9756    9.3816   33.1662 C   0  0  0  0  0  0  0  0  0  0  0  0
   26.7443   10.3757   35.3861 C   0  0  0  0  0  0  0  0  0  0  0  0
   28.1303    9.8589   35.1160 C   0  0  0  0  0  0  0  0  0  0  0  0
   26.4682   11.0638   36.5430 C   0  0  0  0  0  0  0  0  0  0  0  0
   25.9307   12.4716   39.0167 C   0  0  0  0  0  0  0  0  0  0  0  0
   26.2149   11.2248   39.8643 C   0  0  2  0  0  0  0  0  0  0  0  0
   25.9982   11.4977   41.2531 O   0  0  0  0  0  0  0  0  0  0  0  0
   27.6509   10.7041   39.7352 C   0  0  2  0  0  0  0  0  0  0  0  0
   28.5222   11.8039   39.3961 O   0  0  0  0  0  0  0  0  0  0  0  0
   27.8548    9.5537   38.7424 C   0  0  2  0  0  0  0  0  0  0  0  0
   26.8683    8.5344   38.9440 O   0  0  0  0  0  0  0  0  0  0  0  0
   29.2306    8.9435   38.8910 C   0  0  0  0  0  0  0  0  0  0  0  0
   29.9379    9.5097   40.0200 O   0  0  0  0  0  0  0  0  0  0  0  0
   31.5518    9.7511   39.9631 P   0  0  2  0  0  0  0  0  0  0  0  0
   31.6918   11.2179   39.6727 O   0  0  0  0  0  0  0  0  0  0  0  0
   32.1093    8.8999   38.8506 O   0  0  0  0  0  0  0  0  0  0  0  0
   32.1726    9.3647   41.2965 O   0  0  0  0  0  0  0  0  0  0  0  0
   23.9864   13.2969   40.1641 H   0  0  0  0  0  0  0  0  0  0  0  0
   19.9819   13.0318   39.2863 H   0  0  0  0  0  0  0  0  0  0  0  0
   22.1461   11.6299   35.4188 H   0  0  0  0  0  0  0  0  0  0  0  0
   23.6405   10.4584   33.9535 H   0  0  0  0  0  0  0  0  0  0  0  0
   26.3375    8.3744   33.4203 H   0  0  0  0  0  0  0  0  0  0  0  0
   25.0502    9.3009   32.5770 H   0  0  0  0  0  0  0  0  0  0  0  0
   26.7407    9.9083   32.5770 H   0  0  0  0  0  0  0  0  0  0  0  0
   28.6429    9.6679   36.0703 H   0  0  0  0  0  0  0  0  0  0  0  0
   28.0673    8.9239   34.5400 H   0  0  0  0  0  0  0  0  0  0  0  0
   28.6948   10.6070   34.5400 H   0  0  0  0  0  0  0  0  0  0  0  0
   27.2683   11.2353   37.2781 H   0  0  0  0  0  0  0  0  0  0  0  0
   26.8573   12.7668   38.5024 H   0  0  0  0  0  0  0  0  0  0  0  0
   25.5738   13.2611   39.6945 H   0  0  0  0  0  0  0  0  0  0  0  0
   25.5234   10.4603   39.4805 H   0  0  0  0  0  0  0  0  0  0  0  0
   26.5113   10.8517   41.8004 H   0  0  0  0  0  0  0  0  0  0  0  0
   27.8970   10.2724   40.7165 H   0  0  0  0  0  0  0  0  0  0  0  0
   28.8576   12.2271   40.2259 H   0  0  0  0  0  0  0  0  0  0  0  0
   27.7539    9.9703   37.7293 H   0  0  0  0  0  0  0  0  0  0  0  0
   26.7325    8.3941   39.9146 H   0  0  0  0  0  0  0  0  0  0  0  0
   29.1272    7.8586   39.0403 H   0  0  0  0  0  0  0  0  0  0  0  0
   29.8058    9.1575   37.9781 H   0  0  0  0  0  0  0  0  0  0  0  0
  1  2  1  0
  1 12  2  0
  1 18  1  0
  2  3  1  0
  2 19  1  0
  3  4  1  0
  3 10  2  0
  4  5  1  0
  5  6  2  0
  5  7  1  0
  7  8  1  0
  8  9  2  0
  8 10  1  0
 10 11  1  0
 11 12  1  0
 12 13  1  0
 13 14  2  0
 14 15  1  0
 14 16  1  0
 16 17  1  0
 16 18  2  0
 19 20  1  0
 20 21  1  0
 20 22  1  0
 22 23  1  0
 22 24  1  0
 24 25  1  0
 24 26  1  0
 26 27  1  0
 27 28  1  0
 28 29  1  6
 28 30  2  0
 28 31  1  0
  4 32  1  0
  7 33  1  0
 11 34  1  0
 13 35  1  0
 15 36  1  0
 15 37  1  0
 15 38  1  0
 17 39  1  0
 17 40  1  0
 17 41  1  0
 18 42  1  0
 19 43  1  0
 19 44  1  0
 20 45  1  6
 21 46  1  0
 22 47  1  1
 23 48  1  0
 24 49  1  6
 25 50  1  0
 26 51  1  0
 26 52  1  0
M  CHG  2  29  -1  31  -1
M  END
>  <filename_input>  (15) 
6M73_FNR_docked.sdf

>  <pdb_id>  (15) 
6M73_FNR

>  <pose_rank>  (15) 
14

>  <num_atoms_heavy>  (15) 
31

>  <num_torsions>  (15) 
7

>  <pose>  (15) 
[25.18410864677875, 11.54729426792987, 36.795412842715585, 0.14573811417358762, -0.777810263931702, -3.165696532274916, 0.09672599090368525, -0.7931204598556864, 5.797842748512238, -0.10861748603729308, 3.0953149646320672, 11.767994134878705, -1.6321003319656404]

>  <energy>  (15) 
-706.4172269610651

>  <inter_energy>  (15) 
-757.754585216162

>  <intra_energy>  (15) 
45.537578461059674

>  <rmsd>  (15) 
7.33646

>  <sdf_rank>  (15) 
0

$$$$

     RDKit          3D

 52 54  0  0  0  0  0  0  0  0999 V2000
   21.9848   11.0618   38.1345 C   0  0  0  0  0  0  0  0  0  0  0  0
   23.1844   11.5973   38.6723 N   0  0  0  0  0  0  0  0  0  0  0  0
   24.2532   11.8611   37.8328 C   0  0  0  0  0  0  0  0  0  0  0  0
   25.3496   12.5165   38.3165 N   0  0  0  0  0  0  0  0  0  0  0  0
   26.3881   12.8846   37.5129 C   0  0  0  0  0  0  0  0  0  0  0  0
   27.3498   13.4781   37.9798 O   0  0  0  0  0  0  0  0  0  0  0  0
   26.2751   12.5737   36.1815 N   0  0  0  0  0  0  0  0  0  0  0  0
   25.2099   11.9035   35.6027 C   0  0  0  0  0  0  0  0  0  0  0  0
   25.2219   11.6694   34.3883 O   0  0  0  0  0  0  0  0  0  0  0  0
   24.1609   11.5443   36.4550 C   0  0  0  0  0  0  0  0  0  0  0  0
   23.0860   10.8441   36.0027 N   0  0  0  0  0  0  0  0  0  0  0  0
   21.9566   10.6713   36.7807 C   0  0  0  0  0  0  0  0  0  0  0  0
   20.8015   10.1458   36.2360 C   0  0  0  0  0  0  0  0  0  0  0  0
   19.6550   10.0407   36.9761 C   0  0  0  0  0  0  0  0  0  0  0  0
   18.3952    9.5072   36.3496 C   0  0  0  0  0  0  0  0  0  0  0  0
   19.6620   10.4673   38.3447 C   0  0  0  0  0  0  0  0  0  0  0  0
   18.4071   10.3646   39.1669 C   0  0  0  0  0  0  0  0  0  0  0  0
   20.8180   10.9680   38.8935 C   0  0  0  0  0  0  0  0  0  0  0  0
   23.2160   12.0698   40.0874 C   0  0  0  0  0  0  0  0  0  0  0  0
   24.3241   11.3983   40.9090 C   0  0  2  0  0  0  0  0  0  0  0  0
   25.5932   12.0019   40.6345 O   0  0  0  0  0  0  0  0  0  0  0  0
   24.4782    9.8990   40.6294 C   0  0  2  0  0  0  0  0  0  0  0  0
   23.4643    9.1767   41.3599 O   0  0  0  0  0  0  0  0  0  0  0  0
   25.8590    9.3045   40.9303 C   0  0  2  0  0  0  0  0  0  0  0  0
   26.3474    9.7795   42.1907 O   0  0  0  0  0  0  0  0  0  0  0  0
   26.8541    9.6642   39.8496 C   0  0  0  0  0  0  0  0  0  0  0  0
   28.0935    8.9340   40.0117 O   0  0  0  0  0  0  0  0  0  0  0  0
   29.5289    9.6310   39.6659 P   0  0  2  0  0  0  0  0  0  0  0  0
   29.4909    9.8268   38.1775 O   0  0  0  0  0  0  0  0  0  0  0  0
   30.6200    8.6772   40.0819 O   0  0  0  0  0  0  0  0  0  0  0  0
   29.6515   10.9469   40.4184 O   0  0  0  0  0  0  0  0  0  0  0  0
   25.3935   12.7400   39.3210 H   0  0  0  0  0  0  0  0  0  0  0  0
   27.0454   12.8621   35.5616 H   0  0  0  0  0  0  0  0  0  0  0  0
   23.1142   10.4331   35.0587 H   0  0  0  0  0  0  0  0  0  0  0  0
   20.8028    9.8060   35.1898 H   0  0  0  0  0  0  0  0  0  0  0  0
   17.6906    9.2089   37.1399 H   0  0  0  0  0  0  0  0  0  0  0  0
   17.9368   10.2884   35.7255 H   0  0  0  0  0  0  0  0  0  0  0  0
   18.6372    8.6343   35.7255 H   0  0  0  0  0  0  0  0  0  0  0  0
   18.6663   10.3858   40.2357 H   0  0  0  0  0  0  0  0  0  0  0  0
   17.7453   11.2116   38.9332 H   0  0  0  0  0  0  0  0  0  0  0  0
   17.8918    9.4213   38.9332 H   0  0  0  0  0  0  0  0  0  0  0  0
   20.8235   11.2984   39.9427 H   0  0  0  0  0  0  0  0  0  0  0  0
   23.3835   13.1570   40.0921 H   0  0  0  0  0  0  0  0  0  0  0  0
   22.2528   11.8058   40.5484 H   0  0  0  0  0  0  0  0  0  0  0  0
   24.0193   11.5353   41.9570 H   0  0  0  0  0  0  0  0  0  0  0  0
   26.0472   12.2179   41.4873 H   0  0  0  0  0  0  0  0  0  0  0  0
   24.3582    9.7884   39.5415 H   0  0  0  0  0  0  0  0  0  0  0  0
   23.6172    9.2857   42.3319 H   0  0  0  0  0  0  0  0  0  0  0  0
   25.7468    8.2108   40.9659 H   0  0  0  0  0  0  0  0  0  0  0  0
   25.8713    9.3165   42.9248 H   0  0  0  0  0  0  0  0  0  0  0  0
   26.4207    9.4211   38.8682 H   0  0  0  0  0  0  0  0  0  0  0  0
   27.0727   10.7398   39.9229 H   0  0  0  0  0  0  0  0  0  0  0  0
  1  2  1  0
  1 12  2  0
  1 18  1  0
  2  3  1  0
  2 19  1  0
  3  4  1  0
  3 10  2  0
  4  5  1  0
  5  6  2  0
  5  7  1  0
  7  8  1  0
  8  9  2  0
  8 10  1  0
 10 11  1  0
 11 12  1  0
 12 13  1  0
 13 14  2  0
 14 15  1  0
 14 16  1  0
 16 17  1  0
 16 18  2  0
 19 20  1  0
 20 21  1  0
 20 22  1  0
 22 23  1  0
 22 24  1  0
 24 25  1  0
 24 26  1  0
 26 27  1  0
 27 28  1  0
 28 29  1  6
 28 30  2  0
 28 31  1  0
  4 32  1  0
  7 33  1  0
 11 34  1  0
 13 35  1  0
 15 36  1  0
 15 37  1  0
 15 38  1  0
 17 39  1  0
 17 40  1  0
 17 41  1  0
 18 42  1  0
 19 43  1  0
 19 44  1  0
 20 45  1  1
 21 46  1  0
 22 47  1  6
 23 48  1  0
 24 49  1  1
 25 50  1  0
 26 51  1  0
 26 52  1  0
M  CHG  2  29  -1  31  -1
M  END
>  <filename_input>  (16) 
6M73_FNR_docked.sdf

>  <pdb_id>  (16) 
6M73_FNR

>  <pose_rank>  (16) 
15

>  <num_atoms_heavy>  (16) 
31

>  <num_torsions>  (16) 
7

>  <pose>  (16) 
[21.98476098072406, 11.061764844047216, 38.134482046710026, 1.8593636524908062, -4.79238654190162, -1.0192076658784828, -27.77435201346375, -16.144098200078645, -8.642853537331609, -4.784341489489163, 6.2933613093595975, -0.7881725748813687, 1.725263480478332]

>  <energy>  (16) 
-315.7647229971794

>  <inter_energy>  (16) 
-404.5495331755059

>  <intra_energy>  (16) 
97.16381563778681

>  <rmsd>  (16) 
6.87195

>  <sdf_rank>  (16) 
0

$$$$

     RDKit          3D

 52 54  0  0  0  0  0  0  0  0999 V2000
   31.8992   17.8058   33.6829 C   0  0  0  0  0  0  0  0  0  0  0  0
   31.3790   18.4241   34.8500 N   0  0  0  0  0  0  0  0  0  0  0  0
   30.1293   19.0187   34.8108 C   0  0  0  0  0  0  0  0  0  0  0  0
   29.5602   19.4775   35.9646 N   0  0  0  0  0  0  0  0  0  0  0  0
   28.2948   19.9848   35.9977 C   0  0  0  0  0  0  0  0  0  0  0  0
   27.8149   20.3785   37.0512 O   0  0  0  0  0  0  0  0  0  0  0  0
   27.6087   20.0030   34.8100 N   0  0  0  0  0  0  0  0  0  0  0  0
   28.1050   19.5708   33.5911 C   0  0  0  0  0  0  0  0  0  0  0  0
   27.3950   19.6443   32.5811 O   0  0  0  0  0  0  0  0  0  0  0  0
   29.4042   19.0531   33.5941 C   0  0  0  0  0  0  0  0  0  0  0  0
   30.0077   18.6414   32.4467 N   0  0  0  0  0  0  0  0  0  0  0  0
   31.1974   17.9381   32.4680 C   0  0  0  0  0  0  0  0  0  0  0  0
   31.6853   17.3472   31.3191 C   0  0  0  0  0  0  0  0  0  0  0  0
   32.8219   16.5852   31.3439 C   0  0  0  0  0  0  0  0  0  0  0  0
   33.3108   15.9132   30.0895 C   0  0  0  0  0  0  0  0  0  0  0  0
   33.5253   16.4145   32.5814 C   0  0  0  0  0  0  0  0  0  0  0  0
   34.7710   15.5734   32.6242 C   0  0  0  0  0  0  0  0  0  0  0  0
   33.0529   17.0222   33.7197 C   0  0  0  0  0  0  0  0  0  0  0  0
   32.0772   18.2464   36.1568 C   0  0  0  0  0  0  0  0  0  0  0  0
   32.7124   19.5461   36.6678 C   0  0  2  0  0  0  0  0  0  0  0  0
   32.8285   20.5025   35.6085 O   0  0  0  0  0  0  0  0  0  0  0  0
   34.1180   19.3594   37.2504 C   0  0  2  0  0  0  0  0  0  0  0  0
   34.6812   18.1330   36.7384 O   0  0  0  0  0  0  0  0  0  0  0  0
   34.2114   19.3757   38.7807 C   0  0  2  0  0  0  0  0  0  0  0  0
   33.6728   20.5956   39.3046 O   0  0  0  0  0  0  0  0  0  0  0  0
   35.6453   19.2333   39.2403 C   0  0  0  0  0  0  0  0  0  0  0  0
   35.8563   19.8860   40.5150 O   0  0  0  0  0  0  0  0  0  0  0  0
   36.6227   19.1168   41.7344 P   0  0  2  0  0  0  0  0  0  0  0  0
   37.5270   20.1650   42.3164 O   0  0  0  0  0  0  0  0  0  0  0  0
   37.3986   17.9673   41.1429 O   0  0  0  0  0  0  0  0  0  0  0  0
   35.6008   18.6121   42.7413 O   0  0  0  0  0  0  0  0  0  0  0  0
   30.1046   19.4391   36.8381 H   0  0  0  0  0  0  0  0  0  0  0  0
   26.6456   20.3679   34.8258 H   0  0  0  0  0  0  0  0  0  0  0  0
   29.5679   18.8588   31.5410 H   0  0  0  0  0  0  0  0  0  0  0  0
   31.1515   17.4915   30.3682 H   0  0  0  0  0  0  0  0  0  0  0  0
   33.9387   15.0503   30.3566 H   0  0  0  0  0  0  0  0  0  0  0  0
   32.4494   15.5705   29.4974 H   0  0  0  0  0  0  0  0  0  0  0  0
   33.9019   16.6274   29.4974 H   0  0  0  0  0  0  0  0  0  0  0  0
   35.0502   15.3848   33.6713 H   0  0  0  0  0  0  0  0  0  0  0  0
   34.5843   14.6156   32.1163 H   0  0  0  0  0  0  0  0  0  0  0  0
   35.5896   16.1043   32.1163 H   0  0  0  0  0  0  0  0  0  0  0  0
   33.5902   16.8893   34.6703 H   0  0  0  0  0  0  0  0  0  0  0  0
   31.3477   17.8944   36.9010 H   0  0  0  0  0  0  0  0  0  0  0  0
   32.8866   17.5170   36.0055 H   0  0  0  0  0  0  0  0  0  0  0  0
   32.0396   19.8930   37.4659 H   0  0  0  0  0  0  0  0  0  0  0  0
   32.9384   21.4084   35.9924 H   0  0  0  0  0  0  0  0  0  0  0  0
   34.6905   20.2411   36.9268 H   0  0  0  0  0  0  0  0  0  0  0  0
   34.9482   17.5517   37.4941 H   0  0  0  0  0  0  0  0  0  0  0  0
   33.6273   18.5226   39.1561 H   0  0  0  0  0  0  0  0  0  0  0  0
   33.6867   20.5643   40.2940 H   0  0  0  0  0  0  0  0  0  0  0  0
   35.8847   18.1644   39.3410 H   0  0  0  0  0  0  0  0  0  0  0  0
   36.2980   19.7096   38.4940 H   0  0  0  0  0  0  0  0  0  0  0  0
  1  2  1  0
  1 12  2  0
  1 18  1  0
  2  3  1  0
  2 19  1  0
  3  4  1  0
  3 10  2  0
  4  5  1  0
  5  6  2  0
  5  7  1  0
  7  8  1  0
  8  9  2  0
  8 10  1  0
 10 11  1  0
 11 12  1  0
 12 13  1  0
 13 14  2  0
 14 15  1  0
 14 16  1  0
 16 17  1  0
 16 18  2  0
 19 20  1  0
 20 21  1  0
 20 22  1  0
 22 23  1  0
 22 24  1  0
 24 25  1  0
 24 26  1  0
 26 27  1  0
 27 28  1  0
 28 29  1  1
 28 30  2  0
 28 31  1  0
  4 32  1  0
  7 33  1  0
 11 34  1  0
 13 35  1  0
 15 36  1  0
 15 37  1  0
 15 38  1  0
 17 39  1  0
 17 40  1  0
 17 41  1  0
 18 42  1  0
 19 43  1  0
 19 44  1  0
 20 45  1  1
 21 46  1  0
 22 47  1  6
 23 48  1  0
 24 49  1  1
 25 50  1  0
 26 51  1  0
 26 52  1  0
M  CHG  2  29  -1  31  -1
M  END
>  <filename_input>  (17) 
6M73_FNR_docked.sdf

>  <pdb_id>  (17) 
6M73_FNR

>  <pose_rank>  (17) 
16

>  <num_atoms_heavy>  (17) 
31

>  <num_torsions>  (17) 
7

>  <pose>  (17) 
[31.89924809332398, 17.805824485633526, 33.68288448669307, 0.5856962202110216, -0.5722417814901308, -3.495813535901424, 3.4182633248643697, -5.255754870097244, -0.5964041707493152, -0.267358623550966, -0.6539794026341288, -2.2673041202149746, -0.9770886457680213]

>  <energy>  (17) 
-215.54707338512847

>  <inter_energy>  (17) 
-223.6416668062751

>  <intra_energy>  (17) 
12.712073610598633

>  <rmsd>  (17) 
12.3547

>  <sdf_rank>  (17) 
0

$$$$

     RDKit          3D

 52 54  0  0  0  0  0  0  0  0999 V2000
   26.3017    1.7874   41.0063 C   0  0  0  0  0  0  0  0  0  0  0  0
   27.5849    1.7559   41.6126 N   0  0  0  0  0  0  0  0  0  0  0  0
   27.6992    1.9185   42.9827 C   0  0  0  0  0  0  0  0  0  0  0  0
   28.9096    1.7363   43.5886 N   0  0  0  0  0  0  0  0  0  0  0  0
   29.0588    1.7912   44.9430 C   0  0  0  0  0  0  0  0  0  0  0  0
   30.1570    1.6144   45.4508 O   0  0  0  0  0  0  0  0  0  0  0  0
   27.9245    2.0288   45.6770 N   0  0  0  0  0  0  0  0  0  0  0  0
   26.6593    2.2361   45.1525 C   0  0  0  0  0  0  0  0  0  0  0  0
   25.7092    2.4512   45.9146 O   0  0  0  0  0  0  0  0  0  0  0  0
   26.5418    2.1692   43.7606 C   0  0  0  0  0  0  0  0  0  0  0  0
   25.3561    2.4011   43.1356 N   0  0  0  0  0  0  0  0  0  0  0  0
   25.1827    2.1308   41.7912 C   0  0  0  0  0  0  0  0  0  0  0  0
   23.9247    2.1703   41.2228 C   0  0  0  0  0  0  0  0  0  0  0  0
   23.7305    1.8308   39.9112 C   0  0  0  0  0  0  0  0  0  0  0  0
   22.3450    1.8371   39.3243 C   0  0  0  0  0  0  0  0  0  0  0  0
   24.8567    1.4459   39.1120 C   0  0  0  0  0  0  0  0  0  0  0  0
   24.6563    1.0630   37.6718 C   0  0  0  0  0  0  0  0  0  0  0  0
   26.1118    1.4298   39.6713 C   0  0  0  0  0  0  0  0  0  0  0  0
   28.7728    1.3382   40.8117 C   0  0  0  0  0  0  0  0  0  0  0  0
   29.5701    2.5327   40.2721 C   0  0  2  0  0  0  0  0  0  0  0  0
   29.3612    2.6851   38.8638 O   0  0  0  0  0  0  0  0  0  0  0  0
   31.0835    2.4116   40.4838 C   0  0  2  0  0  0  0  0  0  0  0  0
   31.5013    1.0726   40.1432 O   0  0  0  0  0  0  0  0  0  0  0  0
   31.5906    2.7743   41.8845 C   0  0  2  0  0  0  0  0  0  0  0  0
   32.0487    4.1314   41.9179 O   0  0  0  0  0  0  0  0  0  0  0  0
   32.7209    1.8627   42.3075 C   0  0  0  0  0  0  0  0  0  0  0  0
   33.8699    2.6219   42.7537 O   0  0  0  0  0  0  0  0  0  0  0  0
   35.0386    1.9227   43.6543 P   0  0  2  0  0  0  0  0  0  0  0  0
   34.5810    0.5005   43.8065 O   0  0  0  0  0  0  0  0  0  0  0  0
   35.0964    2.6416   44.9784 O   0  0  0  0  0  0  0  0  0  0  0  0
   36.3716    2.0260   42.9295 O   0  0  0  0  0  0  0  0  0  0  0  0
   29.7368    1.5514   43.0034 H   0  0  0  0  0  0  0  0  0  0  0  0
   28.0215    2.0551   46.7021 H   0  0  0  0  0  0  0  0  0  0  0  0
   24.5693    2.7871   43.6767 H   0  0  0  0  0  0  0  0  0  0  0  0
   23.0644    2.4797   41.8345 H   0  0  0  0  0  0  0  0  0  0  0  0
   21.6028    1.8404   40.1363 H   0  0  0  0  0  0  0  0  0  0  0  0
   22.2136    2.7358   38.7038 H   0  0  0  0  0  0  0  0  0  0  0  0
   22.2056    0.9395   38.7038 H   0  0  0  0  0  0  0  0  0  0  0  0
   24.1469    0.0895   37.6187 H   0  0  0  0  0  0  0  0  0  0  0  0
   24.0420    1.8261   37.1716 H   0  0  0  0  0  0  0  0  0  0  0  0
   25.6335    0.9933   37.1716 H   0  0  0  0  0  0  0  0  0  0  0  0
   26.9761    1.1316   39.0597 H   0  0  0  0  0  0  0  0  0  0  0  0
   29.4333    0.7333   41.4504 H   0  0  0  0  0  0  0  0  0  0  0  0
   28.4069    0.7641   39.9477 H   0  0  0  0  0  0  0  0  0  0  0  0
   29.1995    3.3982   40.8410 H   0  0  0  0  0  0  0  0  0  0  0  0
   28.5715    3.2614   38.7078 H   0  0  0  0  0  0  0  0  0  0  0  0
   31.5348    3.1641   39.8204 H   0  0  0  0  0  0  0  0  0  0  0  0
   31.6625    0.5562   40.9724 H   0  0  0  0  0  0  0  0  0  0  0  0
   30.7492    2.6510   42.5822 H   0  0  0  0  0  0  0  0  0  0  0  0
   32.1472    4.4234   42.8587 H   0  0  0  0  0  0  0  0  0  0  0  0
   32.3743    1.2203   43.1304 H   0  0  0  0  0  0  0  0  0  0  0  0
   33.0209    1.2563   41.4402 H   0  0  0  0  0  0  0  0  0  0  0  0
  1  2  1  0
  1 12  2  0
  1 18  1  0
  2  3  1  0
  2 19  1  0
  3  4  1  0
  3 10  2  0
  4  5  1  0
  5  6  2  0
  5  7  1  0
  7  8  1  0
  8  9  2  0
  8 10  1  0
 10 11  1  0
 11 12  1  0
 12 13  1  0
 13 14  2  0
 14 15  1  0
 14 16  1  0
 16 17  1  0
 16 18  2  0
 19 20  1  0
 20 21  1  0
 20 22  1  0
 22 23  1  0
 22 24  1  0
 24 25  1  0
 24 26  1  0
 26 27  1  0
 27 28  1  0
 28 29  1  1
 28 30  2  0
 28 31  1  0
  4 32  1  0
  7 33  1  0
 11 34  1  0
 13 35  1  0
 15 36  1  0
 15 37  1  0
 15 38  1  0
 17 39  1  0
 17 40  1  0
 17 41  1  0
 18 42  1  0
 19 43  1  0
 19 44  1  0
 20 45  1  1
 21 46  1  0
 22 47  1  6
 23 48  1  0
 24 49  1  1
 25 50  1  0
 26 51  1  0
 26 52  1  0
M  CHG  2  29  -1  31  -1
M  END
>  <filename_input>  (18) 
6M73_FNR_docked.sdf

>  <pdb_id>  (18) 
6M73_FNR

>  <pose_rank>  (18) 
17

>  <num_atoms_heavy>  (18) 
31

>  <num_torsions>  (18) 
7

>  <pose>  (18) 
[26.30171676852824, 1.7874280967291136, 41.006346839754634, 1.7733454991051583, 0.10080027414930622, 2.332145424083329, -3.109504549345857, -0.5326790971938932, -0.19083087705059915, -0.9554777255027112, -1.0558642680689858, -1.733247398324432, 2.9027506828739242]

>  <energy>  (18) 
-274.48935066503543

>  <inter_energy>  (18) 
-270.06309041172295

>  <intra_energy>  (18) 
5.830242162677092

>  <rmsd>  (18) 
12.0848

>  <sdf_rank>  (18) 
0

$$$$

     RDKit          3D

 52 54  0  0  0  0  0  0  0  0999 V2000
   26.0998    1.4920   41.9733 C   0  0  0  0  0  0  0  0  0  0  0  0
   24.9180    1.0160   41.3473 N   0  0  0  0  0  0  0  0  0  0  0  0
   23.6977    1.1666   41.9836 C   0  0  0  0  0  0  0  0  0  0  0  0
   22.5447    0.8517   41.3226 N   0  0  0  0  0  0  0  0  0  0  0  0
   21.3135    1.0693   41.8669 C   0  0  0  0  0  0  0  0  0  0  0  0
   20.3026    0.7825   41.2416 O   0  0  0  0  0  0  0  0  0  0  0  0
   21.2852    1.6351   43.1163 N   0  0  0  0  0  0  0  0  0  0  0  0
   22.3984    1.9777   43.8663 C   0  0  0  0  0  0  0  0  0  0  0  0
   22.2498    2.4751   44.9888 O   0  0  0  0  0  0  0  0  0  0  0  0
   23.6446    1.7443   43.2762 C   0  0  0  0  0  0  0  0  0  0  0  0
   24.8040    2.0010   43.9396 N   0  0  0  0  0  0  0  0  0  0  0  0
   26.0265    1.9756   43.2950 C   0  0  0  0  0  0  0  0  0  0  0  0
   27.1634    2.4417   43.9253 C   0  0  0  0  0  0  0  0  0  0  0  0
   28.3644    2.4920   43.2709 C   0  0  0  0  0  0  0  0  0  0  0  0
   29.5810    3.0459   43.9619 C   0  0  0  0  0  0  0  0  0  0  0  0
   28.4438    2.0354   41.9143 C   0  0  0  0  0  0  0  0  0  0  0  0
   29.7554    2.0924   41.1811 C   0  0  0  0  0  0  0  0  0  0  0  0
   27.3175    1.5493   41.2950 C   0  0  0  0  0  0  0  0  0  0  0  0
   24.9650    0.5545   39.9290 C   0  0  0  0  0  0  0  0  0  0  0  0
   25.1427    1.7119   38.9376 C   0  0  2  0  0  0  0  0  0  0  0  0
   24.5755    2.9177   39.4615 O   0  0  0  0  0  0  0  0  0  0  0  0
   24.4805    1.4670   37.5769 C   0  0  2  0  0  0  0  0  0  0  0  0
   23.4291    0.4905   37.7334 O   0  0  0  0  0  0  0  0  0  0  0  0
   25.4230    1.0397   36.4456 C   0  0  2  0  0  0  0  0  0  0  0  0
   26.7903    1.1844   36.8483 O   0  0  0  0  0  0  0  0  0  0  0  0
   25.1870    1.8639   35.1997 C   0  0  0  0  0  0  0  0  0  0  0  0
   23.7874    2.2023   35.0503 O   0  0  0  0  0  0  0  0  0  0  0  0
   22.8599    1.4595   33.9305 P   0  0  2  0  0  0  0  0  0  0  0  0
   23.8016    0.5096   33.2478 O   0  0  0  0  0  0  0  0  0  0  0  0
   22.3388    2.5134   32.9866 O   0  0  0  0  0  0  0  0  0  0  0  0
   21.7101    0.7389   34.6172 O   0  0  0  0  0  0  0  0  0  0  0  0
   22.6073    0.4361   40.3822 H   0  0  0  0  0  0  0  0  0  0  0  0
   20.3606    1.8204   43.5306 H   0  0  0  0  0  0  0  0  0  0  0  0
   24.7703    2.2194   44.9456 H   0  0  0  0  0  0  0  0  0  0  0  0
   27.1027    2.7782   44.9708 H   0  0  0  0  0  0  0  0  0  0  0  0
   29.4440    2.9835   45.0515 H   0  0  0  0  0  0  0  0  0  0  0  0
   30.4663    2.4621   43.6696 H   0  0  0  0  0  0  0  0  0  0  0  0
   29.7220    4.0969   43.6696 H   0  0  0  0  0  0  0  0  0  0  0  0
   30.5804    2.1283   41.9077 H   0  0  0  0  0  0  0  0  0  0  0  0
   29.8616    1.1981   40.5495 H   0  0  0  0  0  0  0  0  0  0  0  0
   29.7835    2.9927   40.5495 H   0  0  0  0  0  0  0  0  0  0  0  0
   27.3768    1.2015   40.2531 H   0  0  0  0  0  0  0  0  0  0  0  0
   25.8088   -0.1415   39.8128 H   0  0  0  0  0  0  0  0  0  0  0  0
   24.0041    0.0683   39.7047 H   0  0  0  0  0  0  0  0  0  0  0  0
   26.2301    1.7949   38.7943 H   0  0  0  0  0  0  0  0  0  0  0  0
   24.5901    2.8866   40.4509 H   0  0  0  0  0  0  0  0  0  0  0  0
   24.0893    2.4448   37.2595 H   0  0  0  0  0  0  0  0  0  0  0  0
   23.2628    0.3362   38.6971 H   0  0  0  0  0  0  0  0  0  0  0  0
   25.2132   -0.0168   36.2227 H   0  0  0  0  0  0  0  0  0  0  0  0
   26.8444    1.1902   37.8368 H   0  0  0  0  0  0  0  0  0  0  0  0
   25.7747    2.7913   35.2668 H   0  0  0  0  0  0  0  0  0  0  0  0
   25.4957    1.2699   34.3268 H   0  0  0  0  0  0  0  0  0  0  0  0
  1  2  1  0
  1 12  2  0
  1 18  1  0
  2  3  1  0
  2 19  1  0
  3  4  1  0
  3 10  2  0
  4  5  1  0
  5  6  2  0
  5  7  1  0
  7  8  1  0
  8  9  2  0
  8 10  1  0
 10 11  1  0
 11 12  1  0
 12 13  1  0
 13 14  2  0
 14 15  1  0
 14 16  1  0
 16 17  1  0
 16 18  2  0
 19 20  1  0
 20 21  1  0
 20 22  1  0
 22 23  1  0
 22 24  1  0
 24 25  1  0
 24 26  1  0
 26 27  1  0
 27 28  1  0
 28 29  1  6
 28 30  2  0
 28 31  1  0
  4 32  1  0
  7 33  1  0
 11 34  1  0
 13 35  1  0
 15 36  1  0
 15 37  1  0
 15 38  1  0
 17 39  1  0
 17 40  1  0
 17 41  1  0
 18 42  1  0
 19 43  1  0
 19 44  1  0
 20 45  1  6
 21 46  1  0
 22 47  1  6
 23 48  1  0
 24 49  1  6
 25 50  1  0
 26 51  1  0
 26 52  1  0
M  CHG  2  29  -1  31  -1
M  END
>  <filename_input>  (19) 
6M73_FNR_docked.sdf

>  <pdb_id>  (19) 
6M73_FNR

>  <pose_rank>  (19) 
18

>  <num_atoms_heavy>  (19) 
31

>  <num_torsions>  (19) 
7

>  <pose>  (19) 
[26.099782040292112, 1.4920131914711279, 41.97331058462667, -0.03381792528675172, -2.2359435030158017, 0.5272332904996336, 31.632950360392456, -11.742911219212148, 18.28911453036485, -12.020247799664785, 8.6666727761502, -12.694040711984622, 2.88725954112414]

>  <energy>  (19) 
-270.3883554311974

>  <inter_energy>  (19) 
-268.1067955329948

>  <intra_energy>  (19) 
20.137288579982265

>  <rmsd>  (19) 
11.5424

>  <sdf_rank>  (19) 
0

$$$$

     RDKit          3D

 52 54  0  0  0  0  0  0  0  0999 V2000
   20.9743    1.9664   40.6672 C   0  0  0  0  0  0  0  0  0  0  0  0
   22.2956    1.7087   41.1177 N   0  0  0  0  0  0  0  0  0  0  0  0
   22.5693    1.7128   42.4748 C   0  0  0  0  0  0  0  0  0  0  0  0
   23.7981    1.3158   42.9198 N   0  0  0  0  0  0  0  0  0  0  0  0
   24.0898    1.2106   44.2478 C   0  0  0  0  0  0  0  0  0  0  0  0
   25.1988    0.8436   44.6091 O   0  0  0  0  0  0  0  0  0  0  0  0
   23.0794    1.5137   45.1248 N   0  0  0  0  0  0  0  0  0  0  0  0
   21.8084    1.9340   44.7688 C   0  0  0  0  0  0  0  0  0  0  0  0
   20.9793    2.1885   45.6505 O   0  0  0  0  0  0  0  0  0  0  0  0
   21.5425    2.0272   43.3990 C   0  0  0  0  0  0  0  0  0  0  0  0
   20.3430    2.4719   42.9367 N   0  0  0  0  0  0  0  0  0  0  0  0
   19.9987    2.3667   41.6022 C   0  0  0  0  0  0  0  0  0  0  0  0
   18.7072    2.6250   41.1870 C   0  0  0  0  0  0  0  0  0  0  0  0
   18.3361    2.4507   39.8812 C   0  0  0  0  0  0  0  0  0  0  0  0
   16.9124    2.6944   39.4592 C   0  0  0  0  0  0  0  0  0  0  0  0
   19.3116    2.0101   38.9275 C   0  0  0  0  0  0  0  0  0  0  0  0
   18.9154    1.8071   37.4912 C   0  0  0  0  0  0  0  0  0  0  0  0
   20.6025    1.7761   39.3361 C   0  0  0  0  0  0  0  0  0  0  0  0
   23.3271    1.2281   40.1524 C   0  0  0  0  0  0  0  0  0  0  0  0
   24.3917    2.2904   39.8492 C   0  0  2  0  0  0  0  0  0  0  0  0
   23.7928    3.4560   39.2723 O   0  0  0  0  0  0  0  0  0  0  0  0
   25.4735    1.8191   38.8706 C   0  0  2  0  0  0  0  0  0  0  0  0
   24.9410    0.7518   38.0578 O   0  0  0  0  0  0  0  0  0  0  0  0
   26.7982    1.3788   39.5047 C   0  0  2  0  0  0  0  0  0  0  0  0
   26.5633    0.7250   40.7577 O   0  0  0  0  0  0  0  0  0  0  0  0
   27.7135    2.5614   39.7304 C   0  0  0  0  0  0  0  0  0  0  0  0
   28.5358    2.3730   40.9068 O   0  0  0  0  0  0  0  0  0  0  0  0
   30.0701    1.8294   40.7791 P   0  0  2  0  0  0  0  0  0  0  0  0
   30.4059    1.3544   42.1637 O   0  0  0  0  0  0  0  0  0  0  0  0
   30.9383    2.9862   40.3534 O   0  0  0  0  0  0  0  0  0  0  0  0
   30.1304    0.7080   39.7536 O   0  0  0  0  0  0  0  0  0  0  0  0
   24.5283    1.0885   42.2298 H   0  0  0  0  0  0  0  0  0  0  0  0
   23.2825    1.4213   46.1303 H   0  0  0  0  0  0  0  0  0  0  0  0
   19.6759    2.8970   43.5963 H   0  0  0  0  0  0  0  0  0  0  0  0
   17.9642    2.9766   41.9180 H   0  0  0  0  0  0  0  0  0  0  0  0
   16.2789    2.8029   40.3519 H   0  0  0  0  0  0  0  0  0  0  0  0
   16.8604    3.6145   38.8587 H   0  0  0  0  0  0  0  0  0  0  0  0
   16.5573    1.8440   38.8587 H   0  0  0  0  0  0  0  0  0  0  0  0
   17.9372    1.3058   37.4480 H   0  0  0  0  0  0  0  0  0  0  0  0
   18.8500    2.7828   36.9874 H   0  0  0  0  0  0  0  0  0  0  0  0
   19.6692    1.1841   36.9874 H   0  0  0  0  0  0  0  0  0  0  0  0
   21.3509    1.4350   38.6057 H   0  0  0  0  0  0  0  0  0  0  0  0
   23.8232    0.3436   40.5784 H   0  0  0  0  0  0  0  0  0  0  0  0
   22.8149    0.9906   39.2083 H   0  0  0  0  0  0  0  0  0  0  0  0
   24.8601    2.5044   40.8212 H   0  0  0  0  0  0  0  0  0  0  0  0
   23.4829    4.0591   39.9936 H   0  0  0  0  0  0  0  0  0  0  0  0
   25.7324    2.7033   38.2697 H   0  0  0  0  0  0  0  0  0  0  0  0
   24.5846    0.0374   38.6433 H   0  0  0  0  0  0  0  0  0  0  0  0
   27.2812    0.6786   38.8073 H   0  0  0  0  0  0  0  0  0  0  0  0
   26.7852    1.3427   41.4989 H   0  0  0  0  0  0  0  0  0  0  0  0
   28.3657    2.6824   38.8529 H   0  0  0  0  0  0  0  0  0  0  0  0
   27.0929    3.4572   39.8805 H   0  0  0  0  0  0  0  0  0  0  0  0
  1  2  1  0
  1 12  2  0
  1 18  1  0
  2  3  1  0
  2 19  1  0
  3  4  1  0
  3 10  2  0
  4  5  1  0
  5  6  2  0
  5  7  1  0
  7  8  1  0
  8  9  2  0
  8 10  1  0
 10 11  1  0
 11 12  1  0
 12 13  1  0
 13 14  2  0
 14 15  1  0
 14 16  1  0
 16 17  1  0
 16 18  2  0
 19 20  1  0
 20 21  1  0
 20 22  1  0
 22 23  1  0
 22 24  1  0
 24 25  1  0
 24 26  1  0
 26 27  1  0
 27 28  1  0
 28 29  1  1
 28 30  2  0
 28 31  1  0
  4 32  1  0
  7 33  1  0
 11 34  1  0
 13 35  1  0
 15 36  1  0
 15 37  1  0
 15 38  1  0
 17 39  1  0
 17 40  1  0
 17 41  1  0
 18 42  1  0
 19 43  1  0
 19 44  1  0
 20 45  1  1
 21 46  1  0
 22 47  1  6
 23 48  1  0
 24 49  1  6
 25 50  1  0
 26 51  1  0
 26 52  1  0
M  CHG  2  29  -1  31  -1
M  END
>  <filename_input>  (20) 
6M73_FNR_docked.sdf

>  <pdb_id>  (20) 
6M73_FNR

>  <pose_rank>  (20) 
19

>  <num_atoms_heavy>  (20) 
31

>  <num_torsions>  (20) 
7

>  <pose>  (20) 
[20.974251411716487, 1.9664103898071903, 40.66720382244602, 1.8893285888250897, -0.11280121701074991, 2.1821049774011785, -2.9097184451702867, 0.27280465519103814, -0.5373145730924834, 1.3451544213252626, -0.7179273508360056, 3.429725772090361, 0.06595397021161839]

>  <energy>  (20) 
-248.6591025662213

>  <inter_energy>  (20) 
-248.5581654536518

>  <intra_energy>  (20) 
9.570490445430316

>  <rmsd>  (20) 
12.2451

>  <sdf_rank>  (20) 
0

$$$$

     RDKit          3D

 52 54  0  0  0  0  0  0  0  0999 V2000
   32.5403   17.9788   36.4840 C   0  0  0  0  0  0  0  0  0  0  0  0
   33.4743   17.6611   37.5047 N   0  0  0  0  0  0  0  0  0  0  0  0
   34.7935   18.0603   37.3741 C   0  0  0  0  0  0  0  0  0  0  0  0
   35.6589   17.8935   38.4176 N   0  0  0  0  0  0  0  0  0  0  0  0
   36.9421   18.3535   38.3769 C   0  0  0  0  0  0  0  0  0  0  0  0
   37.6859   18.1934   39.3340 O   0  0  0  0  0  0  0  0  0  0  0  0
   37.3243   19.0079   37.2334 N   0  0  0  0  0  0  0  0  0  0  0  0
   36.5229   19.2151   36.1227 C   0  0  0  0  0  0  0  0  0  0  0  0
   36.9806   19.8128   35.1414 O   0  0  0  0  0  0  0  0  0  0  0  0
   35.2121   18.7337   36.2000 C   0  0  0  0  0  0  0  0  0  0  0  0
   34.3524   18.8423   35.1516 N   0  0  0  0  0  0  0  0  0  0  0  0
   33.0053   18.5652   35.2899 C   0  0  0  0  0  0  0  0  0  0  0  0
   32.1156   18.8810   34.2819 C   0  0  0  0  0  0  0  0  0  0  0  0
   30.7706   18.6813   34.4378 C   0  0  0  0  0  0  0  0  0  0  0  0
   29.8146   19.0745   33.3444 C   0  0  0  0  0  0  0  0  0  0  0  0
   30.2824   18.1177   35.6622 C   0  0  0  0  0  0  0  0  0  0  0  0
   28.8063   17.9002   35.8497 C   0  0  0  0  0  0  0  0  0  0  0  0
   31.1700   17.7813   36.6558 C   0  0  0  0  0  0  0  0  0  0  0  0
   32.9938   17.0936   38.7984 C   0  0  0  0  0  0  0  0  0  0  0  0
   33.0209   18.1194   39.9390 C   0  0  2  0  0  0  0  0  0  0  0  0
   34.0877   17.8337   40.8504 O   0  0  0  0  0  0  0  0  0  0  0  0
   31.7311   18.1574   40.7665 C   0  0  2  0  0  0  0  0  0  0  0  0
   30.6753   17.5117   40.0236 O   0  0  0  0  0  0  0  0  0  0  0  0
   31.2724   19.5482   41.2202 C   0  0  2  0  0  0  0  0  0  0  0  0
   32.3969   20.4216   41.3797 O   0  0  0  0  0  0  0  0  0  0  0  0
   30.5182   19.4729   42.5290 C   0  0  0  0  0  0  0  0  0  0  0  0
   31.0589   18.4416   43.3890 O   0  0  0  0  0  0  0  0  0  0  0  0
   31.9196   18.8271   44.7218 P   0  0  2  0  0  0  0  0  0  0  0  0
   31.7589   20.3153   44.8428 O   0  0  0  0  0  0  0  0  0  0  0  0
   33.3542   18.4324   44.4779 O   0  0  0  0  0  0  0  0  0  0  0  0
   31.3568   18.0859   45.9246 O   0  0  0  0  0  0  0  0  0  0  0  0
   35.3317   17.4042   39.2629 H   0  0  0  0  0  0  0  0  0  0  0  0
   38.2859   19.3752   37.1978 H   0  0  0  0  0  0  0  0  0  0  0  0
   34.7135   19.1378   34.2333 H   0  0  0  0  0  0  0  0  0  0  0  0
   32.4942   19.3001   33.3380 H   0  0  0  0  0  0  0  0  0  0  0  0
   28.8847   19.4571   33.7904 H   0  0  0  0  0  0  0  0  0  0  0  0
   30.2718   19.8576   32.7217 H   0  0  0  0  0  0  0  0  0  0  0  0
   29.5884   18.1964   32.7217 H   0  0  0  0  0  0  0  0  0  0  0  0
   28.5743   17.8660   36.9245 H   0  0  0  0  0  0  0  0  0  0  0  0
   28.2515   18.7263   35.3810 H   0  0  0  0  0  0  0  0  0  0  0  0
   28.5133   16.9492   35.3810 H   0  0  0  0  0  0  0  0  0  0  0  0
   30.7961   17.3516   37.5968 H   0  0  0  0  0  0  0  0  0  0  0  0
   31.9602   16.7410   38.6662 H   0  0  0  0  0  0  0  0  0  0  0  0
   33.6707   16.2714   39.0735 H   0  0  0  0  0  0  0  0  0  0  0  0
   33.1524   19.0909   39.4402 H   0  0  0  0  0  0  0  0  0  0  0  0
   33.7597   17.9216   41.7803 H   0  0  0  0  0  0  0  0  0  0  0  0
   31.9637   17.6226   41.6992 H   0  0  0  0  0  0  0  0  0  0  0  0
   30.0241   17.1135   40.6540 H   0  0  0  0  0  0  0  0  0  0  0  0
   30.6036   19.9452   40.4424 H   0  0  0  0  0  0  0  0  0  0  0  0
   32.5739   20.5591   42.3440 H   0  0  0  0  0  0  0  0  0  0  0  0
   30.5932   20.4430   43.0421 H   0  0  0  0  0  0  0  0  0  0  0  0
   29.4682   19.2281   42.3110 H   0  0  0  0  0  0  0  0  0  0  0  0
  1  2  1  0
  1 12  2  0
  1 18  1  0
  2  3  1  0
  2 19  1  0
  3  4  1  0
  3 10  2  0
  4  5  1  0
  5  6  2  0
  5  7  1  0
  7  8  1  0
  8  9  2  0
  8 10  1  0
 10 11  1  0
 11 12  1  0
 12 13  1  0
 13 14  2  0
 14 15  1  0
 14 16  1  0
 16 17  1  0
 16 18  2  0
 19 20  1  0
 20 21  1  0
 20 22  1  0
 22 23  1  0
 22 24  1  0
 24 25  1  0
 24 26  1  0
 26 27  1  0
 27 28  1  0
 28 29  1  1
 28 30  2  0
 28 31  1  0
  4 32  1  0
  7 33  1  0
 11 34  1  0
 13 35  1  0
 15 36  1  0
 15 37  1  0
 15 38  1  0
 17 39  1  0
 17 40  1  0
 17 41  1  0
 18 42  1  0
 19 43  1  0
 19 44  1  0
 20 45  1  6
 21 46  1  0
 22 47  1  1
 23 48  1  0
 24 49  1  6
 25 50  1  0
 26 51  1  0
 26 52  1  0
M  CHG  2  29  -1  31  -1
M  END
>  <filename_input>  (21) 
6M73_FNR_docked.sdf

>  <pdb_id>  (21) 
6M73_FNR

>  <pose_rank>  (21) 
20

>  <num_atoms_heavy>  (21) 
31

>  <num_torsions>  (21) 
7

>  <pose>  (21) 
[32.54033644950845, 17.978794517383086, 36.48399146080306, 0.37547129312974603, 0.5102005643517272, 0.28739304238401586, -0.3668436436545514, -0.5396954595143011, -1.2625271816523096, 0.21749104515304868, -2.6844203343757833, 3.6032467102407173, -3.238169056225293]

>  <energy>  (21) 
-222.9935059968514

>  <inter_energy>  (21) 
-238.30964316042602

>  <intra_energy>  (21) 
26.77591395258803

>  <rmsd>  (21) 
10.9249

>  <sdf_rank>  (21) 
0

$$$$

     RDKit          3D

 52 54  0  0  0  0  0  0  0  0999 V2000
   32.4290   18.4419   38.6064 C   0  0  0  0  0  0  0  0  0  0  0  0
   32.2296   18.6708   39.9932 N   0  0  0  0  0  0  0  0  0  0  0  0
   33.2560   18.4096   40.8848 C   0  0  0  0  0  0  0  0  0  0  0  0
   33.1242   18.7713   42.1953 N   0  0  0  0  0  0  0  0  0  0  0  0
   34.1388   18.6236   43.0944 C   0  0  0  0  0  0  0  0  0  0  0  0
   33.9872   18.9667   44.2582 O   0  0  0  0  0  0  0  0  0  0  0  0
   35.3131   18.1007   42.6154 N   0  0  0  0  0  0  0  0  0  0  0  0
   35.5366   17.6964   41.3095 C   0  0  0  0  0  0  0  0  0  0  0  0
   36.6375   17.2292   40.9940 O   0  0  0  0  0  0  0  0  0  0  0  0
   34.4762   17.8654   40.4135 C   0  0  0  0  0  0  0  0  0  0  0  0
   34.5697   17.4619   39.1179 N   0  0  0  0  0  0  0  0  0  0  0  0
   33.6167   17.8141   38.1807 C   0  0  0  0  0  0  0  0  0  0  0  0
   33.8317   17.5791   36.8369 C   0  0  0  0  0  0  0  0  0  0  0  0
   32.9299   17.9917   35.8937 C   0  0  0  0  0  0  0  0  0  0  0  0
   33.2056   17.7656   34.4319 C   0  0  0  0  0  0  0  0  0  0  0  0
   31.7342   18.6627   36.3126 C   0  0  0  0  0  0  0  0  0  0  0  0
   30.7387   19.1283   35.2863 C   0  0  0  0  0  0  0  0  0  0  0  0
   31.5090   18.8753   37.6514 C   0  0  0  0  0  0  0  0  0  0  0  0
   31.0051   19.3862   40.4576 C   0  0  0  0  0  0  0  0  0  0  0  0
   30.3940   18.7542   41.7150 C   0  0  2  0  0  0  0  0  0  0  0  0
   30.0491   17.3852   41.4760 O   0  0  0  0  0  0  0  0  0  0  0  0
   29.1187   19.4530   42.2002 C   0  0  2  0  0  0  0  0  0  0  0  0
   28.8305   20.5664   41.3279 O   0  0  0  0  0  0  0  0  0  0  0  0
   29.1324   19.9249   43.6588 C   0  0  2  0  0  0  0  0  0  0  0  0
   29.7202   18.9287   44.5043 O   0  0  0  0  0  0  0  0  0  0  0  0
   27.7326   20.2222   44.1482 C   0  0  0  0  0  0  0  0  0  0  0  0
   27.5025   19.6552   45.4601 O   0  0  0  0  0  0  0  0  0  0  0  0
   25.9885   19.3392   45.9835 P   0  0  2  0  0  0  0  0  0  0  0  0
   25.2629   18.8847   44.7497 O   0  0  0  0  0  0  0  0  0  0  0  0
   25.4130   20.6177   46.5378 O   0  0  0  0  0  0  0  0  0  0  0  0
   26.0340   18.2623   47.0563 O   0  0  0  0  0  0  0  0  0  0  0  0
   32.2292   19.1685   42.5149 H   0  0  0  0  0  0  0  0  0  0  0  0
   36.0925   18.0006   43.2813 H   0  0  0  0  0  0  0  0  0  0  0  0
   35.3691   16.8805   38.8284 H   0  0  0  0  0  0  0  0  0  0  0  0
   34.7432   17.0514   36.5193 H   0  0  0  0  0  0  0  0  0  0  0  0
   34.0519   17.0715   34.3214 H   0  0  0  0  0  0  0  0  0  0  0  0
   32.3137   17.3354   33.9528 H   0  0  0  0  0  0  0  0  0  0  0  0
   33.4528   18.7244   33.9528 H   0  0  0  0  0  0  0  0  0  0  0  0
   29.8548   19.5417   35.7940 H   0  0  0  0  0  0  0  0  0  0  0  0
   31.1971   19.9054   34.6570 H   0  0  0  0  0  0  0  0  0  0  0  0
   30.4361   18.2783   34.6570 H   0  0  0  0  0  0  0  0  0  0  0  0
   30.5934   19.3928   37.9735 H   0  0  0  0  0  0  0  0  0  0  0  0
   31.2704   20.4300   40.6813 H   0  0  0  0  0  0  0  0  0  0  0  0
   30.2564   19.3211   39.6544 H   0  0  0  0  0  0  0  0  0  0  0  0
   31.1710   18.8560   42.4869 H   0  0  0  0  0  0  0  0  0  0  0  0
   29.9315   16.9187   42.3413 H   0  0  0  0  0  0  0  0  0  0  0  0
   28.3305   18.6867   42.1625 H   0  0  0  0  0  0  0  0  0  0  0  0
   28.6232   21.3669   41.8722 H   0  0  0  0  0  0  0  0  0  0  0  0
   29.7314   20.8464   43.7019 H   0  0  0  0  0  0  0  0  0  0  0  0
   29.5757   19.1737   45.4526 H   0  0  0  0  0  0  0  0  0  0  0  0
   27.5950   21.3123   44.1999 H   0  0  0  0  0  0  0  0  0  0  0  0
   27.0161   19.7725   43.4451 H   0  0  0  0  0  0  0  0  0  0  0  0
  1  2  1  0
  1 12  2  0
  1 18  1  0
  2  3  1  0
  2 19  1  0
  3  4  1  0
  3 10  2  0
  4  5  1  0
  5  6  2  0
  5  7  1  0
  7  8  1  0
  8  9  2  0
  8 10  1  0
 10 11  1  0
 11 12  1  0
 12 13  1  0
 13 14  2  0
 14 15  1  0
 14 16  1  0
 16 17  1  0
 16 18  2  0
 19 20  1  0
 20 21  1  0
 20 22  1  0
 22 23  1  0
 22 24  1  0
 24 25  1  0
 24 26  1  0
 26 27  1  0
 27 28  1  0
 28 29  1  6
 28 30  2  0
 28 31  1  0
  4 32  1  0
  7 33  1  0
 11 34  1  0
 13 35  1  0
 15 36  1  0
 15 37  1  0
 15 38  1  0
 17 39  1  0
 17 40  1  0
 17 41  1  0
 18 42  1  0
 19 43  1  0
 19 44  1  0
 20 45  1  1
 21 46  1  0
 22 47  1  1
 23 48  1  0
 24 49  1  6
 25 50  1  0
 26 51  1  0
 26 52  1  0
M  CHG  2  29  -1  31  -1
M  END
>  <filename_input>  (22) 
6M73_FNR_docked.sdf

>  <pdb_id>  (22) 
6M73_FNR

>  <pose_rank>  (22) 
21

>  <num_atoms_heavy>  (22) 
31

>  <num_torsions>  (22) 
7

>  <pose>  (22) 
[32.42897916917484, 18.44191306556932, 38.60643495830313, 1.9005362086277477, 3.555814479435103, 4.085227383085092, -2.4041552986635053, 0.3021559734931061, 5.308346533454474, -0.01424355664236384, -0.9453297544821962, 5.259072593818111, 3.5234614974619425]

>  <energy>  (22) 
-221.44986341532842

>  <inter_energy>  (22) 
-235.37423472417743

>  <intra_energy>  (22) 
26.89682003709241

>  <rmsd>  (22) 
10.253

>  <sdf_rank>  (22) 
0

$$$$

     RDKit          3D

 52 54  0  0  0  0  0  0  0  0999 V2000
   30.6078   19.4592   33.3572 C   0  0  0  0  0  0  0  0  0  0  0  0
   31.4112   19.7939   34.4787 N   0  0  0  0  0  0  0  0  0  0  0  0
   32.7903   19.7293   34.3768 C   0  0  0  0  0  0  0  0  0  0  0  0
   33.5683   20.1955   35.3981 N   0  0  0  0  0  0  0  0  0  0  0  0
   34.9284   20.2427   35.3111 C   0  0  0  0  0  0  0  0  0  0  0  0
   35.5920   20.6747   36.2428 O   0  0  0  0  0  0  0  0  0  0  0  0
   35.4844   19.8069   34.1352 N   0  0  0  0  0  0  0  0  0  0  0  0
   34.7796   19.3087   33.0517 C   0  0  0  0  0  0  0  0  0  0  0  0
   35.3914   18.9354   32.0437 O   0  0  0  0  0  0  0  0  0  0  0  0
   33.3868   19.2780   33.1735 C   0  0  0  0  0  0  0  0  0  0  0  0
   32.5985   18.7676   32.1895 N   0  0  0  0  0  0  0  0  0  0  0  0
   31.2255   18.9260   32.2082 C   0  0  0  0  0  0  0  0  0  0  0  0
   30.4642   18.5909   31.1057 C   0  0  0  0  0  0  0  0  0  0  0  0
   29.1141   18.8140   31.0846 C   0  0  0  0  0  0  0  0  0  0  0  0
   28.3108   18.4832   29.8559 C   0  0  0  0  0  0  0  0  0  0  0  0
   28.4799   19.3885   32.2348 C   0  0  0  0  0  0  0  0  0  0  0  0
   26.9985   19.6461   32.2219 C   0  0  0  0  0  0  0  0  0  0  0  0
   29.2338   19.6998   33.3407 C   0  0  0  0  0  0  0  0  0  0  0  0
   30.7826   20.4134   35.6820 C   0  0  0  0  0  0  0  0  0  0  0  0
   30.9196   19.5391   36.9353 C   0  0  2  0  0  0  0  0  0  0  0  0
   29.6829   18.8802   37.2295 O   0  0  0  0  0  0  0  0  0  0  0  0
   31.3141   20.3207   38.1936 C   0  0  2  0  0  0  0  0  0  0  0  0
   32.7247   20.6217   38.1385 O   0  0  0  0  0  0  0  0  0  0  0  0
   30.9780   19.6459   39.5286 C   0  0  2  0  0  0  0  0  0  0  0  0
   29.7843   20.2060   40.0890 O   0  0  0  0  0  0  0  0  0  0  0  0
   32.1091   19.8060   40.5198 C   0  0  0  0  0  0  0  0  0  0  0  0
   32.7566   18.5394   40.7880 O   0  0  0  0  0  0  0  0  0  0  0  0
   34.2125   18.4811   41.5248 P   0  0  2  0  0  0  0  0  0  0  0  0
   34.5013   17.0125   41.6477 O   0  0  0  0  0  0  0  0  0  0  0  0
   34.0774   19.1443   42.8721 O   0  0  0  0  0  0  0  0  0  0  0  0
   35.2447   19.2032   40.6728 O   0  0  0  0  0  0  0  0  0  0  0  0
   33.1127   20.5221   36.2623 H   0  0  0  0  0  0  0  0  0  0  0  0
   36.5099   19.8540   34.0510 H   0  0  0  0  0  0  0  0  0  0  0  0
   33.0349   18.2512   31.4125 H   0  0  0  0  0  0  0  0  0  0  0  0
   30.9512   18.1371   30.2300 H   0  0  0  0  0  0  0  0  0  0  0  0
   27.3320   18.0802   30.1553 H   0  0  0  0  0  0  0  0  0  0  0  0
   28.1646   19.3943   29.2572 H   0  0  0  0  0  0  0  0  0  0  0  0
   28.8485   17.7333   29.2572 H   0  0  0  0  0  0  0  0  0  0  0  0
   26.6285   19.7105   33.2559 H   0  0  0  0  0  0  0  0  0  0  0  0
   26.7955   20.5931   31.7003 H   0  0  0  0  0  0  0  0  0  0  0  0
   26.4877   18.8233   31.7003 H   0  0  0  0  0  0  0  0  0  0  0  0
   28.7485   20.1435   34.2225 H   0  0  0  0  0  0  0  0  0  0  0  0
   31.2674   21.3821   35.8734 H   0  0  0  0  0  0  0  0  0  0  0  0
   29.7089   20.5313   35.4736 H   0  0  0  0  0  0  0  0  0  0  0  0
   31.7210   18.8254   36.6939 H   0  0  0  0  0  0  0  0  0  0  0  0
   29.5672   18.8185   38.2108 H   0  0  0  0  0  0  0  0  0  0  0  0
   30.6986   21.2322   38.1792 H   0  0  0  0  0  0  0  0  0  0  0  0
   33.0821   20.6980   39.0585 H   0  0  0  0  0  0  0  0  0  0  0  0
   30.8250   18.5753   39.3279 H   0  0  0  0  0  0  0  0  0  0  0  0
   29.8398   20.1800   41.0771 H   0  0  0  0  0  0  0  0  0  0  0  0
   32.8500   20.5070   40.1078 H   0  0  0  0  0  0  0  0  0  0  0  0
   31.6928   20.1897   41.4628 H   0  0  0  0  0  0  0  0  0  0  0  0
  1  2  1  0
  1 12  2  0
  1 18  1  0
  2  3  1  0
  2 19  1  0
  3  4  1  0
  3 10  2  0
  4  5  1  0
  5  6  2  0
  5  7  1  0
  7  8  1  0
  8  9  2  0
  8 10  1  0
 10 11  1  0
 11 12  1  0
 12 13  1  0
 13 14  2  0
 14 15  1  0
 14 16  1  0
 16 17  1  0
 16 18  2  0
 19 20  1  0
 20 21  1  0
 20 22  1  0
 22 23  1  0
 22 24  1  0
 24 25  1  0
 24 26  1  0
 26 27  1  0
 27 28  1  0
 28 29  1  1
 28 30  2  0
 28 31  1  0
  4 32  1  0
  7 33  1  0
 11 34  1  0
 13 35  1  0
 15 36  1  0
 15 37  1  0
 15 38  1  0
 17 39  1  0
 17 40  1  0
 17 41  1  0
 18 42  1  0
 19 43  1  0
 19 44  1  0
 20 45  1  6
 21 46  1  0
 22 47  1  1
 23 48  1  0
 24 49  1  6
 25 50  1  0
 26 51  1  0
 26 52  1  0
M  CHG  2  29  -1  31  -1
M  END
>  <filename_input>  (23) 
6M73_FNR_docked.sdf

>  <pdb_id>  (23) 
6M73_FNR

>  <pose_rank>  (23) 
22

>  <num_atoms_heavy>  (23) 
31

>  <num_torsions>  (23) 
7

>  <pose>  (23) 
[30.607846997168597, 19.4591948840864, 33.357154069798405, 3.4597194106883804, -4.304733495473273, 1.5205981743930415, 3.515148074470489, 5.802650695357292, 3.9771553429771025, 11.536702123095367, 1.045155578843412, 4.600962112360116, -0.27309918858773374]

>  <energy>  (23) 
-163.3596150947066

>  <inter_energy>  (23) 
-184.76534095742468

>  <intra_energy>  (23) 
22.718411328334405

>  <rmsd>  (23) 
11.7089

>  <sdf_rank>  (23) 
0

$$$$

     RDKit          3D

 52 54  0  0  0  0  0  0  0  0999 V2000
   22.7131    1.9828   37.7313 C   0  0  0  0  0  0  0  0  0  0  0  0
   23.0780    2.1157   39.0967 N   0  0  0  0  0  0  0  0  0  0  0  0
   24.3552    1.7667   39.5012 C   0  0  0  0  0  0  0  0  0  0  0  0
   24.7595    2.0358   40.7778 N   0  0  0  0  0  0  0  0  0  0  0  0
   26.0345    1.7998   41.2002 C   0  0  0  0  0  0  0  0  0  0  0  0
   26.3627    2.0615   42.3487 O   0  0  0  0  0  0  0  0  0  0  0  0
   26.9040    1.2854   40.2722 N   0  0  0  0  0  0  0  0  0  0  0  0
   26.5838    0.9712   38.9617 C   0  0  0  0  0  0  0  0  0  0  0  0
   27.4518    0.5024   38.2158 O   0  0  0  0  0  0  0  0  0  0  0  0
   25.2690    1.2294   38.5611 C   0  0  0  0  0  0  0  0  0  0  0  0
   24.8331    0.9184   37.3107 N   0  0  0  0  0  0  0  0  0  0  0  0
   23.6103    1.3597   36.8410 C   0  0  0  0  0  0  0  0  0  0  0  0
   23.2762    1.2172   35.5086 C   0  0  0  0  0  0  0  0  0  0  0  0
   22.1011    1.7179   35.0170 C   0  0  0  0  0  0  0  0  0  0  0  0
   21.7775    1.5915   33.5529 C   0  0  0  0  0  0  0  0  0  0  0  0
   21.1960    2.3849   35.9065 C   0  0  0  0  0  0  0  0  0  0  0  0
   19.9052    2.9466   35.3779 C   0  0  0  0  0  0  0  0  0  0  0  0
   21.5178    2.5055   37.2370 C   0  0  0  0  0  0  0  0  0  0  0  0
   22.1663    2.8242   40.0419 C   0  0  0  0  0  0  0  0  0  0  0  0
   21.3870    1.8592   40.9449 C   0  0  2  0  0  0  0  0  0  0  0  0
   21.6368    0.5008   40.5675 O   0  0  0  0  0  0  0  0  0  0  0  0
   19.8679    2.0590   40.8971 C   0  0  2  0  0  0  0  0  0  0  0  0
   19.5609    3.1174   39.9649 O   0  0  0  0  0  0  0  0  0  0  0  0
   19.1909    2.3393   42.2439 C   0  0  2  0  0  0  0  0  0  0  0  0
   18.8306    3.7221   42.3475 O   0  0  0  0  0  0  0  0  0  0  0  0
   20.1019    1.9803   43.3965 C   0  0  0  0  0  0  0  0  0  0  0  0
   19.9192    2.8840   44.5125 O   0  0  0  0  0  0  0  0  0  0  0  0
   18.9955    2.4618   45.7910 P   0  0  2  0  0  0  0  0  0  0  0  0
   19.2874    1.0016   45.9863 O   0  0  0  0  0  0  0  0  0  0  0  0
   17.5539    2.7046   45.4222 O   0  0  0  0  0  0  0  0  0  0  0  0
   19.3873    3.2957   47.0009 O   0  0  0  0  0  0  0  0  0  0  0  0
   24.0791    2.4299   41.4432 H   0  0  0  0  0  0  0  0  0  0  0  0
   27.8745    1.1192   40.5747 H   0  0  0  0  0  0  0  0  0  0  0  0
   25.4280    0.3408   36.6998 H   0  0  0  0  0  0  0  0  0  0  0  0
   23.9659    0.6926   34.8312 H   0  0  0  0  0  0  0  0  0  0  0  0
   20.7587    1.1935   33.4356 H   0  0  0  0  0  0  0  0  0  0  0  0
   21.8417    2.5809   33.0764 H   0  0  0  0  0  0  0  0  0  0  0  0
   22.4954    0.9077   33.0764 H   0  0  0  0  0  0  0  0  0  0  0  0
   19.2562    3.2291   36.2200 H   0  0  0  0  0  0  0  0  0  0  0  0
   20.1160    3.8344   34.7636 H   0  0  0  0  0  0  0  0  0  0  0  0
   19.3992    2.1873   34.7636 H   0  0  0  0  0  0  0  0  0  0  0  0
   20.8254    3.0198   37.9196 H   0  0  0  0  0  0  0  0  0  0  0  0
   22.7668    3.4929   40.6761 H   0  0  0  0  0  0  0  0  0  0  0  0
   21.4337    3.3839   39.4418 H   0  0  0  0  0  0  0  0  0  0  0  0
   21.7426    2.0775   41.9627 H   0  0  0  0  0  0  0  0  0  0  0  0
   21.7388   -0.0543   41.3809 H   0  0  0  0  0  0  0  0  0  0  0  0
   19.4539    1.0928   40.5728 H   0  0  0  0  0  0  0  0  0  0  0  0
   19.3227    3.9383   40.4644 H   0  0  0  0  0  0  0  0  0  0  0  0
   18.2855    1.7167   42.2941 H   0  0  0  0  0  0  0  0  0  0  0  0
   18.7646    3.9753   43.3024 H   0  0  0  0  0  0  0  0  0  0  0  0
   19.8769    0.9550   43.7252 H   0  0  0  0  0  0  0  0  0  0  0  0
   21.1440    2.0590   43.0530 H   0  0  0  0  0  0  0  0  0  0  0  0
  1  2  1  0
  1 12  2  0
  1 18  1  0
  2  3  1  0
  2 19  1  0
  3  4  1  0
  3 10  2  0
  4  5  1  0
  5  6  2  0
  5  7  1  0
  7  8  1  0
  8  9  2  0
  8 10  1  0
 10 11  1  0
 11 12  1  0
 12 13  1  0
 13 14  2  0
 14 15  1  0
 14 16  1  0
 16 17  1  0
 16 18  2  0
 19 20  1  0
 20 21  1  0
 20 22  1  0
 22 23  1  0
 22 24  1  0
 24 25  1  0
 24 26  1  0
 26 27  1  0
 27 28  1  0
 28 29  1  1
 28 30  2  0
 28 31  1  0
  4 32  1  0
  7 33  1  0
 11 34  1  0
 13 35  1  0
 15 36  1  0
 15 37  1  0
 15 38  1  0
 17 39  1  0
 17 40  1  0
 17 41  1  0
 18 42  1  0
 19 43  1  0
 19 44  1  0
 20 45  1  1
 21 46  1  0
 22 47  1  6
 23 48  1  0
 24 49  1  1
 25 50  1  0
 26 51  1  0
 26 52  1  0
M  CHG  2  29  -1  31  -1
M  END
>  <filename_input>  (24) 
6M73_FNR_docked.sdf

>  <pdb_id>  (24) 
6M73_FNR

>  <pose_rank>  (24) 
23

>  <num_atoms_heavy>  (24) 
31

>  <num_torsions>  (24) 
7

>  <pose>  (24) 
[22.71307264892016, 1.9828463961530678, 37.73131699932713, -0.1939317779677931, 0.07305656670279277, -0.38907076303330645, 3.2682428016546106, 1.2313863594745953, -0.9408882215736961, 2.5592675876390434, -0.7537277881053095, -2.8272621848585624, 3.559308846612506]

>  <energy>  (24) 
-219.0629651749813

>  <inter_energy>  (24) 
-214.4260301619792

>  <intra_energy>  (24) 
11.471369610209841

>  <rmsd>  (24) 
10.479

>  <sdf_rank>  (24) 
0

$$$$

     RDKit          3D

 52 54  0  0  0  0  0  0  0  0999 V2000
   32.9575   17.8078   44.4595 C   0  0  0  0  0  0  0  0  0  0  0  0
   32.0674   18.0843   43.3889 N   0  0  0  0  0  0  0  0  0  0  0  0
   30.8418   18.6720   43.6518 C   0  0  0  0  0  0  0  0  0  0  0  0
   30.0492   19.0796   42.6168 N   0  0  0  0  0  0  0  0  0  0  0  0
   28.8778   19.7479   42.8193 C   0  0  0  0  0  0  0  0  0  0  0  0
   28.1983   20.1050   41.8675 O   0  0  0  0  0  0  0  0  0  0  0  0
   28.5341   20.0046   44.1223 N   0  0  0  0  0  0  0  0  0  0  0  0
   29.2661   19.6223   45.2344 C   0  0  0  0  0  0  0  0  0  0  0  0
   28.8511   19.9023   46.3654 O   0  0  0  0  0  0  0  0  0  0  0  0
   30.4635   18.9423   44.9902 C   0  0  0  0  0  0  0  0  0  0  0  0
   31.2391   18.4812   46.0080 N   0  0  0  0  0  0  0  0  0  0  0  0
   32.5158   18.0014   45.7837 C   0  0  0  0  0  0  0  0  0  0  0  0
   33.3633   17.7370   46.8415 C   0  0  0  0  0  0  0  0  0  0  0  0
   34.6541   17.3342   46.6297 C   0  0  0  0  0  0  0  0  0  0  0  0
   35.5742   17.0953   47.7961 C   0  0  0  0  0  0  0  0  0  0  0  0
   35.1255   17.1675   45.2861 C   0  0  0  0  0  0  0  0  0  0  0  0
   36.5437   16.7331   45.0391 C   0  0  0  0  0  0  0  0  0  0  0  0
   34.2748   17.4076   44.2339 C   0  0  0  0  0  0  0  0  0  0  0  0
   32.5362   17.9408   41.9795 C   0  0  0  0  0  0  0  0  0  0  0  0
   33.3901   19.1290   41.5180 C   0  0  2  0  0  0  0  0  0  0  0  0
   32.8797   20.3557   42.0518 O   0  0  0  0  0  0  0  0  0  0  0  0
   33.4424   19.2977   39.9952 C   0  0  2  0  0  0  0  0  0  0  0  0
   32.1627   19.7766   39.5299 O   0  0  0  0  0  0  0  0  0  0  0  0
   33.8514   18.0514   39.2014 C   0  0  2  0  0  0  0  0  0  0  0  0
   34.7960   17.2701   39.9431 O   0  0  0  0  0  0  0  0  0  0  0  0
   34.4625   18.4295   37.8707 C   0  0  0  0  0  0  0  0  0  0  0  0
   33.8241   17.7243   36.7794 O   0  0  0  0  0  0  0  0  0  0  0  0
   32.5185   18.3512   36.0256 P   0  0  2  0  0  0  0  0  0  0  0  0
   32.6696   17.9033   34.6001 O   0  0  0  0  0  0  0  0  0  0  0  0
   32.5838   19.8519   36.1554 O   0  0  0  0  0  0  0  0  0  0  0  0
   31.2503   17.8120   36.6689 O   0  0  0  0  0  0  0  0  0  0  0  0
   30.3460   18.8756   41.6518 H   0  0  0  0  0  0  0  0  0  0  0  0
   27.6601   20.5240   44.2872 H   0  0  0  0  0  0  0  0  0  0  0  0
   30.8664   18.4897   46.9682 H   0  0  0  0  0  0  0  0  0  0  0  0
   32.9948   17.8519   47.8715 H   0  0  0  0  0  0  0  0  0  0  0  0
   35.0203   17.2391   48.7355 H   0  0  0  0  0  0  0  0  0  0  0  0
   35.9617   16.0667   47.7528 H   0  0  0  0  0  0  0  0  0  0  0  0
   36.4132   17.8053   47.7528 H   0  0  0  0  0  0  0  0  0  0  0  0
   37.0524   16.5773   46.0018 H   0  0  0  0  0  0  0  0  0  0  0  0
   36.5451   15.7934   44.4673 H   0  0  0  0  0  0  0  0  0  0  0  0
   37.0711   17.5109   44.4673 H   0  0  0  0  0  0  0  0  0  0  0  0
   34.6365   17.2830   43.2026 H   0  0  0  0  0  0  0  0  0  0  0  0
   33.1372   17.0230   41.8998 H   0  0  0  0  0  0  0  0  0  0  0  0
   31.6459   17.9000   41.3347 H   0  0  0  0  0  0  0  0  0  0  0  0
   34.4026   18.9075   41.8864 H   0  0  0  0  0  0  0  0  0  0  0  0
   32.8958   20.3172   43.0409 H   0  0  0  0  0  0  0  0  0  0  0  0
   34.2464   20.0244   39.8069 H   0  0  0  0  0  0  0  0  0  0  0  0
   31.5883   19.9916   40.3070 H   0  0  0  0  0  0  0  0  0  0  0  0
   32.9411   17.4599   39.0238 H   0  0  0  0  0  0  0  0  0  0  0  0
   34.6412   17.3981   40.9125 H   0  0  0  0  0  0  0  0  0  0  0  0
   34.3431   19.5121   37.7163 H   0  0  0  0  0  0  0  0  0  0  0  0
   35.5272   18.1538   37.8866 H   0  0  0  0  0  0  0  0  0  0  0  0
  1  2  1  0
  1 12  2  0
  1 18  1  0
  2  3  1  0
  2 19  1  0
  3  4  1  0
  3 10  2  0
  4  5  1  0
  5  6  2  0
  5  7  1  0
  7  8  1  0
  8  9  2  0
  8 10  1  0
 10 11  1  0
 11 12  1  0
 12 13  1  0
 13 14  2  0
 14 15  1  0
 14 16  1  0
 16 17  1  0
 16 18  2  0
 19 20  1  0
 20 21  1  0
 20 22  1  0
 22 23  1  0
 22 24  1  0
 24 25  1  0
 24 26  1  0
 26 27  1  0
 27 28  1  0
 28 29  1  6
 28 30  2  0
 28 31  1  0
  4 32  1  0
  7 33  1  0
 11 34  1  0
 13 35  1  0
 15 36  1  0
 15 37  1  0
 15 38  1  0
 17 39  1  0
 17 40  1  0
 17 41  1  0
 18 42  1  0
 19 43  1  0
 19 44  1  0
 20 45  1  1
 21 46  1  0
 22 47  1  1
 23 48  1  0
 24 49  1  6
 25 50  1  0
 26 51  1  0
 26 52  1  0
M  CHG  2  29  -1  31  -1
M  END
>  <filename_input>  (25) 
6M73_FNR_docked.sdf

>  <pdb_id>  (25) 
6M73_FNR

>  <pose_rank>  (25) 
24

>  <num_atoms_heavy>  (25) 
31

>  <num_torsions>  (25) 
7

>  <pose>  (25) 
[32.95754505468295, 17.807754538025016, 44.45951569930471, -0.5121846800942296, -2.546411033063035, -0.07138092877971447, 0.09655736178029745, 0.6669176641491356, 0.29024264351396906, 0.14086681537442622, 0.7520506923504586, 3.2822479136327343, -0.8348306755378578]

>  <energy>  (25) 
-188.62760622148812

>  <inter_energy>  (25) 
-214.95171147570815

>  <intra_energy>  (25) 
26.15835134394847

>  <rmsd>  (25) 
12.9057

>  <sdf_rank>  (25) 
0

$$$$

     RDKit          3D

 52 54  0  0  0  0  0  0  0  0999 V2000
   27.9870    9.6680   36.7700 C   0  0  0  0  0  0  0  0  0  0  0  0
   28.2270    9.6480   38.1690 N   0  0  0  0  0  0  0  0  0  0  0  0
   29.5260    9.7220   38.6420 C   0  0  0  0  0  0  0  0  0  0  0  0
   29.7530    9.8580   39.9820 N   0  0  0  0  0  0  0  0  0  0  0  0
   31.0060   10.0300   40.4920 C   0  0  0  0  0  0  0  0  0  0  0  0
   31.1700   10.1570   41.6970 O   0  0  0  0  0  0  0  0  0  0  0  0
   32.0370   10.0720   39.5880 N   0  0  0  0  0  0  0  0  0  0  0  0
   31.9060    9.9330   38.2160 C   0  0  0  0  0  0  0  0  0  0  0  0
   32.9120    9.9790   37.4980 O   0  0  0  0  0  0  0  0  0  0  0  0
   30.6070    9.7620   37.7270 C   0  0  0  0  0  0  0  0  0  0  0  0
   30.3660    9.5710   36.4020 N   0  0  0  0  0  0  0  0  0  0  0  0
   29.0840    9.6140   35.8870 C   0  0  0  0  0  0  0  0  0  0  0  0
   28.8750    9.6300   34.5220 C   0  0  0  0  0  0  0  0  0  0  0  0
   27.6150    9.7490   34.0010 C   0  0  0  0  0  0  0  0  0  0  0  0
   27.4140    9.8100   32.5110 C   0  0  0  0  0  0  0  0  0  0  0  0
   26.4940    9.8400   34.8900 C   0  0  0  0  0  0  0  0  0  0  0  0
   25.1050    9.9790   34.3310 C   0  0  0  0  0  0  0  0  0  0  0  0
   26.7000    9.8000   36.2480 C   0  0  0  0  0  0  0  0  0  0  0  0
   27.0820    9.7630   39.1190 C   0  0  0  0  0  0  0  0  0  0  0  0
   26.6710   11.2190   39.3740 C   0  0  2  0  0  0  0  0  0  0  0  0
   27.6010   11.8600   40.2540 O   0  0  0  0  0  0  0  0  0  0  0  0
   25.2850   11.3670   40.0120 C   0  0  2  0  0  0  0  0  0  0  0  0
   25.2400   10.5890   41.2270 O   0  0  0  0  0  0  0  0  0  0  0  0
   24.0970   11.0000   39.1150 C   0  0  2  0  0  0  0  0  0  0  0  0
   24.2980   11.4960   37.7860 O   0  0  0  0  0  0  0  0  0  0  0  0
   22.8060   11.5670   39.6620 C   0  0  0  0  0  0  0  0  0  0  0  0
   21.6600   11.0590   38.9380 O   0  0  0  0  0  0  0  0  0  0  0  0
   20.9590   11.9380   37.7540 P   0  0  2  0  0  0  0  0  0  0  0  0
   19.6460   11.2490   37.5160 O   0  0  0  0  0  0  0  0  0  0  0  0
   21.8540   11.8810   36.5420 O   0  0  0  0  0  0  0  0  0  0  0  0
   20.7810   13.3740   38.2220 O   0  0  0  0  0  0  0  0  0  0  0  0
   28.9516    9.8297   40.6284 H   0  0  0  0  0  0  0  0  0  0  0  0
   32.9862   10.2189   39.9599 H   0  0  0  0  0  0  0  0  0  0  0  0
   31.1571    9.3901   35.7677 H   0  0  0  0  0  0  0  0  0  0  0  0
   29.7356    9.5457   33.8421 H   0  0  0  0  0  0  0  0  0  0  0  0
   26.3823   10.1231   32.2927 H   0  0  0  0  0  0  0  0  0  0  0  0
   28.1172   10.5352   32.0755 H   0  0  0  0  0  0  0  0  0  0  0  0
   27.5955    8.8163   32.0755 H   0  0  0  0  0  0  0  0  0  0  0  0
   24.3827   10.0513   35.1575 H   0  0  0  0  0  0  0  0  0  0  0  0
   25.0475   10.8874   33.7133 H   0  0  0  0  0  0  0  0  0  0  0  0
   24.8687    9.1000   33.7133 H   0  0  0  0  0  0  0  0  0  0  0  0
   25.8408    9.8729   36.9310 H   0  0  0  0  0  0  0  0  0  0  0  0
   26.2208    9.2220   38.6999 H   0  0  0  0  0  0  0  0  0  0  0  0
   27.4020    9.3339   40.0800 H   0  0  0  0  0  0  0  0  0  0  0  0
   26.6557   11.6854   38.3779 H   0  0  0  0  0  0  0  0  0  0  0  0
   27.3430   11.6822   41.1931 H   0  0  0  0  0  0  0  0  0  0  0  0
   25.1644   12.4426   40.2081 H   0  0  0  0  0  0  0  0  0  0  0  0
   25.2751   11.1955   42.0087 H   0  0  0  0  0  0  0  0  0  0  0  0
   24.0267    9.9025   39.0932 H   0  0  0  0  0  0  0  0  0  0  0  0
   24.6695   12.4127   37.8286 H   0  0  0  0  0  0  0  0  0  0  0  0
   22.7127   11.2879   40.7219 H   0  0  0  0  0  0  0  0  0  0  0  0
   22.8315   12.6608   39.5484 H   0  0  0  0  0  0  0  0  0  0  0  0
  1  2  1  0
  1 12  2  0
  1 18  1  0
  2  3  1  0
  2 19  1  0
  3  4  1  0
  3 10  2  0
  4  5  1  0
  5  6  2  0
  5  7  1  0
  7  8  1  0
  8  9  2  0
  8 10  1  0
 10 11  1  0
 11 12  1  0
 12 13  1  0
 13 14  2  0
 14 15  1  0
 14 16  1  0
 16 17  1  0
 16 18  2  0
 19 20  1  0
 20 21  1  0
 20 22  1  0
 22 23  1  0
 22 24  1  0
 24 25  1  0
 24 26  1  0
 26 27  1  0
 27 28  1  0
 28 29  1  6
 28 30  2  0
 28 31  1  0
  4 32  1  0
  7 33  1  0
 11 34  1  0
 13 35  1  0
 15 36  1  0
 15 37  1  0
 15 38  1  0
 17 39  1  0
 17 40  1  0
 17 41  1  0
 18 42  1  0
 19 43  1  0
 19 44  1  0
 20 45  1  6
 21 46  1  0
 22 47  1  1
 23 48  1  0
 24 49  1  6
 25 50  1  0
 26 51  1  0
 26 52  1  0
M  CHG  2  29  -1  31  -1
M  END
>  <filename_input>  (26) 
6M73_FNR_docked.sdf

>  <pdb_id>  (26) 
6M73_FNR

>  <pose_rank>  (26) 
25

>  <num_atoms_heavy>  (26) 
31

>  <num_torsions>  (26) 
7

>  <pose>  (26) 
[27.987, 9.668, 36.77, 1e-06, 1e-06, 1e-06, 0.0, 0.0, 0.0, 0.0, 0.0, 0.0, 0.0]

>  <energy>  (26) 
-1222.644187566105

>  <inter_energy>  (26) 
-1268.4444104534994

>  <intra_energy>  (26) 
38.26868743414484

>  <rmsd>  (26) 
0.0

>  <sdf_rank>  (26) 
0

$$$$
