
     RDKit          3D

 17 17  0  0  0  0  0  0  0  0999 V2000
  -13.0155  -51.0618   -9.3175 O   0  0  0  0  0  0  0  0  0  0  0  0
  -12.3162  -51.0841   -8.2637 C   0  0  0  0  0  0  0  0  0  0  0  0
  -11.6752  -50.0636   -7.8714 O   0  0  0  0  0  0  0  0  0  0  0  0
  -12.2300  -52.3755   -7.4757 C   0  0  0  0  0  0  0  0  0  0  0  0
  -10.8435  -52.6610   -6.8874 C   0  0  0  0  0  0  0  0  0  0  0  0
  -10.8343  -54.0101   -6.1795 C   0  0  0  0  0  0  0  0  0  0  0  0
  -11.0748  -54.2589   -4.8532 C   0  0  0  0  0  0  0  0  0  0  0  0
  -10.9711  -55.5810   -4.6951 N   0  0  0  0  0  0  0  0  0  0  0  0
  -10.6700  -56.1389   -5.8598 C   0  0  0  0  0  0  0  0  0  0  0  0
  -10.5997  -55.1797   -6.7615 N   0  0  0  0  0  0  0  0  0  0  0  0
  -12.9521  -52.3233   -6.6475 H   0  0  0  0  0  0  0  0  0  0  0  0
  -12.4485  -53.1913   -8.1805 H   0  0  0  0  0  0  0  0  0  0  0  0
  -10.1009  -52.6724   -7.6988 H   0  0  0  0  0  0  0  0  0  0  0  0
  -10.5960  -51.8744   -6.1594 H   0  0  0  0  0  0  0  0  0  0  0  0
  -11.3070  -53.5175   -4.0744 H   0  0  0  0  0  0  0  0  0  0  0  0
  -10.5078  -57.2116   -6.0414 H   0  0  0  0  0  0  0  0  0  0  0  0
  -10.3946  -55.3165   -7.7616 H   0  0  0  0  0  0  0  0  0  0  0  0
  1  2  2  0
  2  3  1  0
  2  4  1  0
  4  5  1  0
  5  6  1  0
  6  7  2  0
  6 10  1  0
  7  8  1  0
  8  9  2  0
  9 10  1  0
  4 11  1  0
  4 12  1  0
  5 13  1  0
  5 14  1  0
  7 15  1  0
  9 16  1  0
 10 17  1  0
M  CHG  1   3  -1
M  END
>  <filename_input>  (1) 
6T88_MWQ_docked.sdf

>  <pdb_id>  (1) 
6T88_MWQ

>  <pose_rank>  (1) 
0

>  <num_atoms_heavy>  (1) 
10

>  <num_torsions>  (1) 
3

>  <pose>  (1) 
[-10.843517871046672, -52.66097511020003, -6.8873853482611525, -0.248021240193691, 0.34044395684729606, -0.1678835396400926, 0.5194350644567142, -0.3164826682503106, -0.3314366972854075]

>  <energy>  (1) 
-776.014222222438

>  <inter_energy>  (1) 
-766.1318426452102

>  <intra_energy>  (1) 
0.0

>  <rmsd>  (1) 
0.379569

>  <sdf_rank>  (1) 
0

$$$$

     RDKit          3D

 17 17  0  0  0  0  0  0  0  0999 V2000
  -12.7695  -49.7912   -5.9556 O   0  0  0  0  0  0  0  0  0  0  0  0
  -12.7296  -50.3874   -7.0705 C   0  0  0  0  0  0  0  0  0  0  0  0
  -13.0935  -49.8159   -8.1416 O   0  0  0  0  0  0  0  0  0  0  0  0
  -12.2588  -51.8273   -7.1085 C   0  0  0  0  0  0  0  0  0  0  0  0
  -11.0732  -52.1250   -6.1835 C   0  0  0  0  0  0  0  0  0  0  0  0
  -10.9920  -53.6173   -5.8877 C   0  0  0  0  0  0  0  0  0  0  0  0
  -10.4365  -54.5950   -6.6715 C   0  0  0  0  0  0  0  0  0  0  0  0
  -10.5857  -55.7414   -6.0028 N   0  0  0  0  0  0  0  0  0  0  0  0
  -11.2129  -55.5027   -4.8591 C   0  0  0  0  0  0  0  0  0  0  0  0
  -11.4471  -54.2071   -4.7891 N   0  0  0  0  0  0  0  0  0  0  0  0
  -13.0986  -52.4727   -6.8116 H   0  0  0  0  0  0  0  0  0  0  0  0
  -11.9151  -52.0206   -8.1353 H   0  0  0  0  0  0  0  0  0  0  0  0
  -10.1423  -51.8010   -6.6718 H   0  0  0  0  0  0  0  0  0  0  0  0
  -11.2131  -51.5809   -5.2377 H   0  0  0  0  0  0  0  0  0  0  0  0
   -9.9623  -54.4619   -7.6551 H   0  0  0  0  0  0  0  0  0  0  0  0
  -11.4888  -56.2524   -4.1029 H   0  0  0  0  0  0  0  0  0  0  0  0
  -11.9108  -53.7275   -4.0044 H   0  0  0  0  0  0  0  0  0  0  0  0
  1  2  2  0
  2  3  1  0
  2  4  1  0
  4  5  1  0
  5  6  1  0
  6  7  2  0
  6 10  1  0
  7  8  1  0
  8  9  2  0
  9 10  1  0
  4 11  1  0
  4 12  1  0
  5 13  1  0
  5 14  1  0
  7 15  1  0
  9 16  1  0
 10 17  1  0
M  CHG  1   3  -1
M  END
>  <filename_input>  (2) 
6T88_MWQ_docked.sdf

>  <pdb_id>  (2) 
6T88_MWQ

>  <pose_rank>  (2) 
1

>  <num_atoms_heavy>  (2) 
10

>  <num_torsions>  (2) 
3

>  <pose>  (2) 
[-11.073237888705293, -52.12497877122572, -6.183466419686941, 5.74005592063774, 2.541804754324399, 0.8337343779763827, 3.564392349647021, 5.551818565804233, -3.500782086678914]

>  <energy>  (2) 
-531.1871356051458

>  <inter_energy>  (2) 
-529.3083553061181

>  <intra_energy>  (2) 
0.0

>  <rmsd>  (2) 
1.54372

>  <sdf_rank>  (2) 
0

$$$$

     RDKit          3D

 17 17  0  0  0  0  0  0  0  0999 V2000
  -11.5797  -49.8763   -8.2659 O   0  0  0  0  0  0  0  0  0  0  0  0
  -12.1348  -51.0096   -8.1796 C   0  0  0  0  0  0  0  0  0  0  0  0
  -12.0359  -51.8688   -9.1060 O   0  0  0  0  0  0  0  0  0  0  0  0
  -12.9566  -51.3245   -6.9460 C   0  0  0  0  0  0  0  0  0  0  0  0
  -12.1399  -51.4067   -5.6513 C   0  0  0  0  0  0  0  0  0  0  0  0
  -11.4996  -52.7824   -5.5137 C   0  0  0  0  0  0  0  0  0  0  0  0
  -12.1116  -53.9566   -5.1596 C   0  0  0  0  0  0  0  0  0  0  0  0
  -11.1626  -54.8961   -5.1840 N   0  0  0  0  0  0  0  0  0  0  0  0
  -10.0072  -54.3424   -5.5260 C   0  0  0  0  0  0  0  0  0  0  0  0
  -10.2207  -53.0586   -5.7367 N   0  0  0  0  0  0  0  0  0  0  0  0
  -13.7148  -50.5366   -6.8261 H   0  0  0  0  0  0  0  0  0  0  0  0
  -13.3977  -52.3195   -7.1053 H   0  0  0  0  0  0  0  0  0  0  0  0
  -11.3511  -50.6402   -5.6711 H   0  0  0  0  0  0  0  0  0  0  0  0
  -12.8098  -51.2377   -4.7954 H   0  0  0  0  0  0  0  0  0  0  0  0
  -13.1727  -54.0972   -4.9059 H   0  0  0  0  0  0  0  0  0  0  0  0
   -9.0420  -54.8620   -5.6175 H   0  0  0  0  0  0  0  0  0  0  0  0
   -9.5064  -52.3764   -6.0288 H   0  0  0  0  0  0  0  0  0  0  0  0
  1  2  2  0
  2  3  1  0
  2  4  1  0
  4  5  1  0
  5  6  1  0
  6  7  2  0
  6 10  1  0
  7  8  1  0
  8  9  2  0
  9 10  1  0
  4 11  1  0
  4 12  1  0
  5 13  1  0
  5 14  1  0
  7 15  1  0
  9 16  1  0
 10 17  1  0
M  CHG  1   3  -1
M  END
>  <filename_input>  (3) 
6T88_MWQ_docked.sdf

>  <pdb_id>  (3) 
6T88_MWQ

>  <pose_rank>  (3) 
2

>  <num_atoms_heavy>  (3) 
10

>  <num_torsions>  (3) 
3

>  <pose>  (3) 
[-12.139861305739338, -51.40672138617894, -5.651348961574163, -2.177908243285878, 3.280927907768393, -4.051074725187886, 13.38477496321137, -4.95338347825968, 8.612008840009892]

>  <energy>  (3) 
-469.03802023285914

>  <inter_energy>  (3) 
-480.36685571466717

>  <intra_energy>  (3) 
0.0

>  <rmsd>  (3) 
1.45451

>  <sdf_rank>  (3) 
0

$$$$

     RDKit          3D

 17 17  0  0  0  0  0  0  0  0999 V2000
  -11.3860  -50.2357   -8.2046 O   0  0  0  0  0  0  0  0  0  0  0  0
  -12.4886  -50.6849   -7.7774 C   0  0  0  0  0  0  0  0  0  0  0  0
  -13.5262  -49.9588   -7.7281 O   0  0  0  0  0  0  0  0  0  0  0  0
  -12.5499  -52.1187   -7.2910 C   0  0  0  0  0  0  0  0  0  0  0  0
  -11.5696  -52.4398   -6.1571 C   0  0  0  0  0  0  0  0  0  0  0  0
  -11.3512  -53.9441   -6.0538 C   0  0  0  0  0  0  0  0  0  0  0  0
  -10.4693  -54.7111   -6.7699 C   0  0  0  0  0  0  0  0  0  0  0  0
  -10.6208  -55.9638   -6.3321 N   0  0  0  0  0  0  0  0  0  0  0  0
  -11.5580  -55.9895   -5.3944 C   0  0  0  0  0  0  0  0  0  0  0  0
  -11.9905  -54.7562   -5.2210 N   0  0  0  0  0  0  0  0  0  0  0  0
  -13.5703  -52.3178   -6.9316 H   0  0  0  0  0  0  0  0  0  0  0  0
  -12.2668  -52.7541   -8.1432 H   0  0  0  0  0  0  0  0  0  0  0  0
  -10.6072  -51.9470   -6.3596 H   0  0  0  0  0  0  0  0  0  0  0  0
  -11.9893  -52.0742   -5.2084 H   0  0  0  0  0  0  0  0  0  0  0  0
   -9.7752  -54.3641   -7.5495 H   0  0  0  0  0  0  0  0  0  0  0  0
  -11.9119  -56.8815   -4.8567 H   0  0  0  0  0  0  0  0  0  0  0  0
  -12.7120  -54.4678   -4.5448 H   0  0  0  0  0  0  0  0  0  0  0  0
  1  2  2  0
  2  3  1  0
  2  4  1  0
  4  5  1  0
  5  6  1  0
  6  7  2  0
  6 10  1  0
  7  8  1  0
  8  9  2  0
  9 10  1  0
  4 11  1  0
  4 12  1  0
  5 13  1  0
  5 14  1  0
  7 15  1  0
  9 16  1  0
 10 17  1  0
M  CHG  1   3  -1
M  END
>  <filename_input>  (4) 
6T88_MWQ_docked.sdf

>  <pdb_id>  (4) 
6T88_MWQ

>  <pose_rank>  (4) 
3

>  <num_atoms_heavy>  (4) 
10

>  <num_torsions>  (4) 
3

>  <pose>  (4) 
[-11.569574679835227, -52.43982092792608, -6.157127927093208, 0.1935219907782273, -0.21251391793519314, 0.13528986439904758, 16.17864539229837, -6.317470096111828, -8.080416229310481]

>  <energy>  (4) 
-571.9091965890343

>  <inter_energy>  (4) 
-573.5976236905306

>  <intra_energy>  (4) 
0.0

>  <rmsd>  (4) 
1.26341

>  <sdf_rank>  (4) 
0

$$$$

     RDKit          3D

 17 17  0  0  0  0  0  0  0  0999 V2000
  -12.9150  -50.2858   -6.7362 O   0  0  0  0  0  0  0  0  0  0  0  0
  -12.8528  -50.9673   -7.8001 C   0  0  0  0  0  0  0  0  0  0  0  0
  -13.2517  -50.5026   -8.9096 O   0  0  0  0  0  0  0  0  0  0  0  0
  -12.3114  -52.3808   -7.7273 C   0  0  0  0  0  0  0  0  0  0  0  0
  -11.1944  -52.5731   -6.6952 C   0  0  0  0  0  0  0  0  0  0  0  0
  -11.1968  -54.0033   -6.1701 C   0  0  0  0  0  0  0  0  0  0  0  0
  -10.5719  -55.0943   -6.7159 C   0  0  0  0  0  0  0  0  0  0  0  0
  -10.8417  -56.1236   -5.9086 N   0  0  0  0  0  0  0  0  0  0  0  0
  -11.6069  -55.7070   -4.9089 C   0  0  0  0  0  0  0  0  0  0  0  0
  -11.8100  -54.4139   -5.0668 N   0  0  0  0  0  0  0  0  0  0  0  0
  -13.1408  -53.0550   -7.4677 H   0  0  0  0  0  0  0  0  0  0  0  0
  -11.8739  -52.6029   -8.7118 H   0  0  0  0  0  0  0  0  0  0  0  0
  -10.2238  -52.3622   -7.1679 H   0  0  0  0  0  0  0  0  0  0  0  0
  -11.3630  -51.8841   -5.8544 H   0  0  0  0  0  0  0  0  0  0  0  0
   -9.9685  -55.1176   -7.6353 H   0  0  0  0  0  0  0  0  0  0  0  0
  -12.0021  -56.3297   -4.0928 H   0  0  0  0  0  0  0  0  0  0  0  0
  -12.3588  -53.8157   -4.4329 H   0  0  0  0  0  0  0  0  0  0  0  0
  1  2  2  0
  2  3  1  0
  2  4  1  0
  4  5  1  0
  5  6  1  0
  6  7  2  0
  6 10  1  0
  7  8  1  0
  8  9  2  0
  9 10  1  0
  4 11  1  0
  4 12  1  0
  5 13  1  0
  5 14  1  0
  7 15  1  0
  9 16  1  0
 10 17  1  0
M  CHG  1   3  -1
M  END
>  <filename_input>  (5) 
6T88_MWQ_docked.sdf

>  <pdb_id>  (5) 
6T88_MWQ

>  <pose_rank>  (5) 
4

>  <num_atoms_heavy>  (5) 
10

>  <num_torsions>  (5) 
3

>  <pose>  (5) 
[-11.19439389159065, -52.573069493384146, -6.69515771109367, 5.552957517862333, 2.0422998585537195, 1.7194420153262076, 3.641620002418623, 5.409870538122145, -3.403954025283574]

>  <energy>  (5) 
-551.342804249439

>  <inter_energy>  (5) 
-557.0582379974072

>  <intra_energy>  (5) 
0.0

>  <rmsd>  (5) 
1.30087

>  <sdf_rank>  (5) 
0

$$$$

     RDKit          3D

 17 17  0  0  0  0  0  0  0  0999 V2000
  -11.5226  -50.3139   -8.0172 O   0  0  0  0  0  0  0  0  0  0  0  0
  -12.2960  -51.2284   -8.4244 C   0  0  0  0  0  0  0  0  0  0  0  0
  -13.0280  -51.0713   -9.4470 O   0  0  0  0  0  0  0  0  0  0  0  0
  -12.3588  -52.5272   -7.6464 C   0  0  0  0  0  0  0  0  0  0  0  0
  -11.1452  -52.7783   -6.7442 C   0  0  0  0  0  0  0  0  0  0  0  0
  -11.0735  -54.2473   -6.3468 C   0  0  0  0  0  0  0  0  0  0  0  0
  -10.3604  -55.2445   -6.9599 C   0  0  0  0  0  0  0  0  0  0  0  0
  -10.5913  -56.3567   -6.2575 N   0  0  0  0  0  0  0  0  0  0  0  0
  -11.4167  -56.0794   -5.2573 C   0  0  0  0  0  0  0  0  0  0  0  0
  -11.6973  -54.7923   -5.3097 N   0  0  0  0  0  0  0  0  0  0  0  0
  -13.2597  -52.5083   -7.0155 H   0  0  0  0  0  0  0  0  0  0  0  0
  -12.3751  -53.3396   -8.3879 H   0  0  0  0  0  0  0  0  0  0  0  0
  -10.2279  -52.5042   -7.2860 H   0  0  0  0  0  0  0  0  0  0  0  0
  -11.2440  -52.1671   -5.8349 H   0  0  0  0  0  0  0  0  0  0  0  0
   -9.7248  -55.1479   -7.8525 H   0  0  0  0  0  0  0  0  0  0  0  0
  -11.7992  -56.7961   -4.5156 H   0  0  0  0  0  0  0  0  0  0  0  0
  -12.3058  -54.2883   -4.6488 H   0  0  0  0  0  0  0  0  0  0  0  0
  1  2  2  0
  2  3  1  0
  2  4  1  0
  4  5  1  0
  5  6  1  0
  6  7  2  0
  6 10  1  0
  7  8  1  0
  8  9  2  0
  9 10  1  0
  4 11  1  0
  4 12  1  0
  5 13  1  0
  5 14  1  0
  7 15  1  0
  9 16  1  0
 10 17  1  0
M  CHG  1   3  -1
M  END
>  <filename_input>  (6) 
6T88_MWQ_docked.sdf

>  <pdb_id>  (6) 
6T88_MWQ

>  <pose_rank>  (6) 
5

>  <num_atoms_heavy>  (6) 
10

>  <num_torsions>  (6) 
3

>  <pose>  (6) 
[-11.145179372028647, -52.778271418556976, -6.744187934229502, -2.6134254900412794, 5.693221033391478, -1.0039724599236992, 3.7813776864126507, 6.218334708540392, -3.1520784608953005]

>  <energy>  (6) 
-649.2725920133257

>  <inter_energy>  (6) 
-648.7618112353292

>  <intra_energy>  (6) 
0.0

>  <rmsd>  (6) 
1.13699

>  <sdf_rank>  (6) 
0

$$$$

     RDKit          3D

 17 17  0  0  0  0  0  0  0  0999 V2000
  -11.5334  -50.5588   -8.5957 O   0  0  0  0  0  0  0  0  0  0  0  0
  -12.7034  -50.8653   -8.2251 C   0  0  0  0  0  0  0  0  0  0  0  0
  -13.2842  -51.9060   -8.6560 O   0  0  0  0  0  0  0  0  0  0  0  0
  -13.4262  -49.9437   -7.2636 C   0  0  0  0  0  0  0  0  0  0  0  0
  -13.1623  -50.2472   -5.7844 C   0  0  0  0  0  0  0  0  0  0  0  0
  -12.7637  -51.7066   -5.6045 C   0  0  0  0  0  0  0  0  0  0  0  0
  -13.5004  -52.7086   -5.0283 C   0  0  0  0  0  0  0  0  0  0  0  0
  -12.7549  -53.8141   -5.1059 N   0  0  0  0  0  0  0  0  0  0  0  0
  -11.6013  -53.5239   -5.6918 C   0  0  0  0  0  0  0  0  0  0  0  0
  -11.6170  -52.2430   -6.0035 N   0  0  0  0  0  0  0  0  0  0  0  0
  -13.1041  -48.9117   -7.4669 H   0  0  0  0  0  0  0  0  0  0  0  0
  -14.5030  -50.0945   -7.4302 H   0  0  0  0  0  0  0  0  0  0  0  0
  -12.3487  -49.6019   -5.4215 H   0  0  0  0  0  0  0  0  0  0  0  0
  -14.0813  -50.0551   -5.2113 H   0  0  0  0  0  0  0  0  0  0  0  0
  -14.5052  -52.6200   -4.5896 H   0  0  0  0  0  0  0  0  0  0  0  0
  -10.7774  -54.2271   -5.8837 H   0  0  0  0  0  0  0  0  0  0  0  0
  -10.8579  -51.7374   -6.4820 H   0  0  0  0  0  0  0  0  0  0  0  0
  1  2  2  0
  2  3  1  0
  2  4  1  0
  4  5  1  0
  5  6  1  0
  6  7  2  0
  6 10  1  0
  7  8  1  0
  8  9  2  0
  9 10  1  0
  4 11  1  0
  4 12  1  0
  5 13  1  0
  5 14  1  0
  7 15  1  0
  9 16  1  0
 10 17  1  0
M  CHG  1   3  -1
M  END
>  <filename_input>  (7) 
6T88_MWQ_docked.sdf

>  <pdb_id>  (7) 
6T88_MWQ

>  <pose_rank>  (7) 
6

>  <num_atoms_heavy>  (7) 
10

>  <num_torsions>  (7) 
3

>  <pose>  (7) 
[-13.162293644294696, -50.24720597544541, -5.7843823194888735, -1.4616015174610797, 4.7230682087815845, -2.171959218252561, 12.79502743529053, -3.9461494111889834, 8.225597787137207]

>  <energy>  (7) 
-405.5562717449615

>  <inter_energy>  (7) 
-429.93869790507244

>  <intra_energy>  (7) 
39.60949063303538

>  <rmsd>  (7) 
2.42959

>  <sdf_rank>  (7) 
0

$$$$

     RDKit          3D

 17 17  0  0  0  0  0  0  0  0999 V2000
  -11.2755  -61.1266  -15.5247 O   0  0  0  0  0  0  0  0  0  0  0  0
  -10.3778  -60.9869  -14.6444 C   0  0  0  0  0  0  0  0  0  0  0  0
  -10.6674  -60.7486  -13.4339 O   0  0  0  0  0  0  0  0  0  0  0  0
   -8.9254  -61.0825  -15.0658 C   0  0  0  0  0  0  0  0  0  0  0  0
   -7.9248  -60.7871  -13.9427 C   0  0  0  0  0  0  0  0  0  0  0  0
   -6.5475  -60.4907  -14.5226 C   0  0  0  0  0  0  0  0  0  0  0  0
   -5.3505  -61.0517  -14.1604 C   0  0  0  0  0  0  0  0  0  0  0  0
   -4.4236  -60.4972  -14.9461 N   0  0  0  0  0  0  0  0  0  0  0  0
   -5.0034  -59.6224  -15.7568 C   0  0  0  0  0  0  0  0  0  0  0  0
   -6.2970  -59.6313  -15.5027 N   0  0  0  0  0  0  0  0  0  0  0  0
   -8.7394  -62.1021  -15.4342 H   0  0  0  0  0  0  0  0  0  0  0  0
   -8.7691  -60.3152  -15.8385 H   0  0  0  0  0  0  0  0  0  0  0  0
   -8.2715  -59.9152  -13.3684 H   0  0  0  0  0  0  0  0  0  0  0  0
   -7.8540  -61.6676  -13.2872 H   0  0  0  0  0  0  0  0  0  0  0  0
   -5.1860  -61.8079  -13.3786 H   0  0  0  0  0  0  0  0  0  0  0  0
   -4.4951  -58.9999  -16.5078 H   0  0  0  0  0  0  0  0  0  0  0  0
   -7.0031  -59.0603  -15.9888 H   0  0  0  0  0  0  0  0  0  0  0  0
  1  2  2  0
  2  3  1  0
  2  4  1  0
  4  5  1  0
  5  6  1  0
  6  7  2  0
  6 10  1  0
  7  8  1  0
  8  9  2  0
  9 10  1  0
  4 11  1  0
  4 12  1  0
  5 13  1  0
  5 14  1  0
  7 15  1  0
  9 16  1  0
 10 17  1  0
M  CHG  1   3  -1
M  END
>  <filename_input>  (8) 
6T88_MWQ_docked.sdf

>  <pdb_id>  (8) 
6T88_MWQ

>  <pose_rank>  (8) 
7

>  <num_atoms_heavy>  (8) 
10

>  <num_torsions>  (8) 
3

>  <pose>  (8) 
[-7.924815714347801, -60.78705380918943, -13.942668134600673, -2.7225414660534737, 0.19244332325746366, -3.423208290453319, -0.12342318530703865, 6.211933479766376, 0.25932504035938864]

>  <energy>  (8) 
-145.44483705249303

>  <inter_energy>  (8) 
-131.20792980013175

>  <intra_energy>  (8) 
0.0

>  <rmsd>  (8) 
11.9851

>  <sdf_rank>  (8) 
0

$$$$

     RDKit          3D

 17 17  0  0  0  0  0  0  0  0999 V2000
   -2.0431  -45.1968   -8.9711 O   0  0  0  0  0  0  0  0  0  0  0  0
   -2.9008  -44.9206   -9.8589 C   0  0  0  0  0  0  0  0  0  0  0  0
   -3.0447  -43.7403  -10.2976 O   0  0  0  0  0  0  0  0  0  0  0  0
   -3.7890  -46.0313  -10.3822 C   0  0  0  0  0  0  0  0  0  0  0  0
   -3.0419  -47.3268  -10.7190 C   0  0  0  0  0  0  0  0  0  0  0  0
   -3.2165  -47.6729  -12.1924 C   0  0  0  0  0  0  0  0  0  0  0  0
   -2.5994  -47.0867  -13.2668 C   0  0  0  0  0  0  0  0  0  0  0  0
   -3.0492  -47.7237  -14.3510 N   0  0  0  0  0  0  0  0  0  0  0  0
   -3.9147  -48.6582  -13.9821 C   0  0  0  0  0  0  0  0  0  0  0  0
   -4.0036  -48.6306  -12.6670 N   0  0  0  0  0  0  0  0  0  0  0  0
   -4.5452  -46.2582   -9.6163 H   0  0  0  0  0  0  0  0  0  0  0  0
   -4.2302  -45.6672  -11.3218 H   0  0  0  0  0  0  0  0  0  0  0  0
   -1.9716  -47.1949  -10.5020 H   0  0  0  0  0  0  0  0  0  0  0  0
   -3.4533  -48.1447  -10.1092 H   0  0  0  0  0  0  0  0  0  0  0  0
   -1.8775  -46.2570  -13.2411 H   0  0  0  0  0  0  0  0  0  0  0  0
   -4.4614  -49.3362  -14.6540 H   0  0  0  0  0  0  0  0  0  0  0  0
   -4.5920  -49.2547  -12.0968 H   0  0  0  0  0  0  0  0  0  0  0  0
  1  2  2  0
  2  3  1  0
  2  4  1  0
  4  5  1  0
  5  6  1  0
  6  7  2  0
  6 10  1  0
  7  8  1  0
  8  9  2  0
  9 10  1  0
  4 11  1  0
  4 12  1  0
  5 13  1  0
  5 14  1  0
  7 15  1  0
  9 16  1  0
 10 17  1  0
M  CHG  1   3  -1
M  END
>  <filename_input>  (9) 
6T88_MWQ_docked.sdf

>  <pdb_id>  (9) 
6T88_MWQ

>  <pose_rank>  (9) 
8

>  <num_atoms_heavy>  (9) 
10

>  <num_torsions>  (9) 
3

>  <pose>  (9) 
[-3.041933115477908, -47.32679504116176, -10.719000826992742, -4.538601835720055, 0.6162837047891279, 0.97138393062021, 3.459060205369815, 0.6813187783388227, 2.681428791358037]

>  <energy>  (9) 
-128.26932979138866

>  <inter_energy>  (9) 
-125.05084004327603

>  <intra_energy>  (9) 
0.0

>  <rmsd>  (9) 
12.0957

>  <sdf_rank>  (9) 
0

$$$$

     RDKit          3D

 17 17  0  0  0  0  0  0  0  0999 V2000
  -20.3236  -44.9814   -5.8792 O   0  0  0  0  0  0  0  0  0  0  0  0
  -20.3985  -45.9208   -6.7230 C   0  0  0  0  0  0  0  0  0  0  0  0
  -20.2184  -45.7163   -7.9607 O   0  0  0  0  0  0  0  0  0  0  0  0
  -20.7388  -47.3135   -6.2322 C   0  0  0  0  0  0  0  0  0  0  0  0
  -19.5432  -48.0907   -5.6697 C   0  0  0  0  0  0  0  0  0  0  0  0
  -19.7596  -48.4035   -4.1944 C   0  0  0  0  0  0  0  0  0  0  0  0
  -18.8283  -48.8383   -3.2875 C   0  0  0  0  0  0  0  0  0  0  0  0
  -19.4695  -48.9640   -2.1227 N   0  0  0  0  0  0  0  0  0  0  0  0
  -20.7438  -48.6357   -2.2868 C   0  0  0  0  0  0  0  0  0  0  0  0
  -20.9118  -48.2843   -3.5464 N   0  0  0  0  0  0  0  0  0  0  0  0
  -21.4962  -47.2245   -5.4395 H   0  0  0  0  0  0  0  0  0  0  0  0
  -21.0999  -47.8770   -7.1051 H   0  0  0  0  0  0  0  0  0  0  0  0
  -19.4284  -49.0322   -6.2268 H   0  0  0  0  0  0  0  0  0  0  0  0
  -18.6368  -47.4763   -5.7749 H   0  0  0  0  0  0  0  0  0  0  0  0
  -17.7648  -49.0428   -3.4806 H   0  0  0  0  0  0  0  0  0  0  0  0
  -21.5224  -48.6533   -1.5100 H   0  0  0  0  0  0  0  0  0  0  0  0
  -21.7989  -47.9667   -3.9626 H   0  0  0  0  0  0  0  0  0  0  0  0
  1  2  2  0
  2  3  1  0
  2  4  1  0
  4  5  1  0
  5  6  1  0
  6  7  2  0
  6 10  1  0
  7  8  1  0
  8  9  2  0
  9 10  1  0
  4 11  1  0
  4 12  1  0
  5 13  1  0
  5 14  1  0
  7 15  1  0
  9 16  1  0
 10 17  1  0
M  CHG  1   3  -1
M  END
>  <filename_input>  (10) 
6T88_MWQ_docked.sdf

>  <pdb_id>  (10) 
6T88_MWQ

>  <pose_rank>  (10) 
9

>  <num_atoms_heavy>  (10) 
10

>  <num_torsions>  (10) 
3

>  <pose>  (10) 
[-19.543163994052886, -48.09067760485573, -5.669662241757243, 2.981050298011339, -2.1746000423166794, 3.034941089440743, 11.805320143645721, -1.4647201416120967, 2.0503203406901505]

>  <energy>  (10) 
-123.93602281403422

>  <inter_energy>  (10) 
-104.2253197955436

>  <intra_energy>  (10) 
0.0

>  <rmsd>  (10) 
10.5989

>  <sdf_rank>  (10) 
0

$$$$

     RDKit          3D

 17 17  0  0  0  0  0  0  0  0999 V2000
  -18.5974  -43.4424   -6.9270 O   0  0  0  0  0  0  0  0  0  0  0  0
  -19.4337  -44.1123   -7.5993 C   0  0  0  0  0  0  0  0  0  0  0  0
  -19.7694  -43.7684   -8.7720 O   0  0  0  0  0  0  0  0  0  0  0  0
  -20.0614  -45.3373   -6.9657 C   0  0  0  0  0  0  0  0  0  0  0  0
  -19.1668  -46.0415   -5.9391 C   0  0  0  0  0  0  0  0  0  0  0  0
  -20.0128  -46.6607   -4.8336 C   0  0  0  0  0  0  0  0  0  0  0  0
  -19.8947  -46.4640   -3.4822 C   0  0  0  0  0  0  0  0  0  0  0  0
  -20.8533  -47.1982   -2.9114 N   0  0  0  0  0  0  0  0  0  0  0  0
  -21.5362  -47.8350   -3.8530 C   0  0  0  0  0  0  0  0  0  0  0  0
  -21.0280  -47.4950   -5.0210 N   0  0  0  0  0  0  0  0  0  0  0  0
  -20.9884  -45.0280   -6.4609 H   0  0  0  0  0  0  0  0  0  0  0  0
  -20.2385  -46.0578   -7.7778 H   0  0  0  0  0  0  0  0  0  0  0  0
  -18.5918  -46.8331   -6.4419 H   0  0  0  0  0  0  0  0  0  0  0  0
  -18.4840  -45.3026   -5.4945 H   0  0  0  0  0  0  0  0  0  0  0  0
  -19.1574  -45.8284   -2.9700 H   0  0  0  0  0  0  0  0  0  0  0  0
  -22.3775  -48.5244   -3.6888 H   0  0  0  0  0  0  0  0  0  0  0  0
  -21.3659  -47.8252   -5.9362 H   0  0  0  0  0  0  0  0  0  0  0  0
  1  2  2  0
  2  3  1  0
  2  4  1  0
  4  5  1  0
  5  6  1  0
  6  7  2  0
  6 10  1  0
  7  8  1  0
  8  9  2  0
  9 10  1  0
  4 11  1  0
  4 12  1  0
  5 13  1  0
  5 14  1  0
  7 15  1  0
  9 16  1  0
 10 17  1  0
M  CHG  1   3  -1
M  END
>  <filename_input>  (11) 
6T88_MWQ_docked.sdf

>  <pdb_id>  (11) 
6T88_MWQ

>  <pose_rank>  (11) 
10

>  <num_atoms_heavy>  (11) 
10

>  <num_torsions>  (11) 
3

>  <pose>  (11) 
[-19.166835908394226, -46.04151393697864, -5.939103017106451, -0.5582819269028769, 0.20503793142478455, -0.923263530263211, -0.05536687406806372, -0.9409601195107484, 2.9629255549363456]

>  <energy>  (11) 
-122.95383279030025

>  <inter_energy>  (11) 
-116.22005800606792

>  <intra_energy>  (11) 
0.0

>  <rmsd>  (11) 
11.4266

>  <sdf_rank>  (11) 
0

$$$$

     RDKit          3D

 17 17  0  0  0  0  0  0  0  0999 V2000
   -3.6959  -46.1642  -15.8047 O   0  0  0  0  0  0  0  0  0  0  0  0
   -4.8627  -45.9498  -15.3658 C   0  0  0  0  0  0  0  0  0  0  0  0
   -5.7153  -45.2977  -16.0395 O   0  0  0  0  0  0  0  0  0  0  0  0
   -5.2280  -46.4673  -13.9891 C   0  0  0  0  0  0  0  0  0  0  0  0
   -4.2177  -46.1065  -12.8941 C   0  0  0  0  0  0  0  0  0  0  0  0
   -3.4787  -47.3524  -12.4219 C   0  0  0  0  0  0  0  0  0  0  0  0
   -2.2336  -47.4193  -11.8526 C   0  0  0  0  0  0  0  0  0  0  0  0
   -2.0091  -48.7100  -11.5928 N   0  0  0  0  0  0  0  0  0  0  0  0
   -3.0545  -49.4242  -11.9873 C   0  0  0  0  0  0  0  0  0  0  0  0
   -3.9502  -48.5917  -12.4801 N   0  0  0  0  0  0  0  0  0  0  0  0
   -6.2047  -46.0454  -13.7099 H   0  0  0  0  0  0  0  0  0  0  0  0
   -5.2418  -47.5651  -14.0574 H   0  0  0  0  0  0  0  0  0  0  0  0
   -3.4912  -45.3843  -13.2950 H   0  0  0  0  0  0  0  0  0  0  0  0
   -4.7568  -45.6670  -12.0420 H   0  0  0  0  0  0  0  0  0  0  0  0
   -1.5547  -46.5778  -11.6500 H   0  0  0  0  0  0  0  0  0  0  0  0
   -3.1563  -50.5171  -11.9160 H   0  0  0  0  0  0  0  0  0  0  0  0
   -4.8721  -48.8611  -12.8522 H   0  0  0  0  0  0  0  0  0  0  0  0
  1  2  2  0
  2  3  1  0
  2  4  1  0
  4  5  1  0
  5  6  1  0
  6  7  2  0
  6 10  1  0
  7  8  1  0
  8  9  2  0
  9 10  1  0
  4 11  1  0
  4 12  1  0
  5 13  1  0
  5 14  1  0
  7 15  1  0
  9 16  1  0
 10 17  1  0
M  CHG  1   3  -1
M  END
>  <filename_input>  (12) 
6T88_MWQ_docked.sdf

>  <pdb_id>  (12) 
6T88_MWQ

>  <pose_rank>  (12) 
11

>  <num_atoms_heavy>  (12) 
10

>  <num_torsions>  (12) 
3

>  <pose>  (12) 
[-4.217663066231715, -46.10652323851302, -12.894138046703338, 0.4448361301538626, 1.3087086620159973, -5.578275196360769, -1.448601539522261, 0.8414565452137808, -1.9321367492125152]

>  <energy>  (12) 
-118.86733225644313

>  <inter_energy>  (12) 
-95.5367750556511

>  <intra_energy>  (12) 
0.0019373364881772339

>  <rmsd>  (12) 
11.8918

>  <sdf_rank>  (12) 
0

$$$$

     RDKit          3D

 17 17  0  0  0  0  0  0  0  0999 V2000
   -6.1482  -44.2139   -0.7425 O   0  0  0  0  0  0  0  0  0  0  0  0
   -5.5132  -45.2577   -0.4148 C   0  0  0  0  0  0  0  0  0  0  0  0
   -4.4382  -45.5903   -0.9979 O   0  0  0  0  0  0  0  0  0  0  0  0
   -6.0762  -46.1362    0.6840 C   0  0  0  0  0  0  0  0  0  0  0  0
   -5.0429  -46.5772    1.7270 C   0  0  0  0  0  0  0  0  0  0  0  0
   -5.1372  -48.0789    1.9662 C   0  0  0  0  0  0  0  0  0  0  0  0
   -5.0020  -49.0819    1.0418 C   0  0  0  0  0  0  0  0  0  0  0  0
   -5.1490  -50.2292    1.7095 N   0  0  0  0  0  0  0  0  0  0  0  0
   -5.3760  -49.9651    2.9890 C   0  0  0  0  0  0  0  0  0  0  0  0
   -5.3560  -48.6557    3.1414 N   0  0  0  0  0  0  0  0  0  0  0  0
   -6.8703  -45.5769    1.2001 H   0  0  0  0  0  0  0  0  0  0  0  0
   -6.4461  -47.0515    0.1987 H   0  0  0  0  0  0  0  0  0  0  0  0
   -4.0340  -46.3306    1.3644 H   0  0  0  0  0  0  0  0  0  0  0  0
   -5.2437  -46.0520    2.6724 H   0  0  0  0  0  0  0  0  0  0  0  0
   -4.8106  -48.9651   -0.0351 H   0  0  0  0  0  0  0  0  0  0  0  0
   -5.5501  -50.7069    3.7824 H   0  0  0  0  0  0  0  0  0  0  0  0
   -5.4893  -48.1581    4.0333 H   0  0  0  0  0  0  0  0  0  0  0  0
  1  2  2  0
  2  3  1  0
  2  4  1  0
  4  5  1  0
  5  6  1  0
  6  7  2  0
  6 10  1  0
  7  8  1  0
  8  9  2  0
  9 10  1  0
  4 11  1  0
  4 12  1  0
  5 13  1  0
  5 14  1  0
  7 15  1  0
  9 16  1  0
 10 17  1  0
M  CHG  1   3  -1
M  END
>  <filename_input>  (13) 
6T88_MWQ_docked.sdf

>  <pdb_id>  (13) 
6T88_MWQ

>  <pose_rank>  (13) 
12

>  <num_atoms_heavy>  (13) 
10

>  <num_torsions>  (13) 
3

>  <pose>  (13) 
[-5.04286479308829, -46.57717544188758, 1.726958689575028, -3.2363199800032754, 3.9536740332475184, 3.381281749399364, -3.135619715790957, 0.4785994969567347, 1.1442162092212793]

>  <energy>  (13) 
-118.16603661446878

>  <inter_energy>  (13) 
-105.0173883907133

>  <intra_energy>  (13) 
0.0

>  <rmsd>  (13) 
11.7485

>  <sdf_rank>  (13) 
0

$$$$

     RDKit          3D

 17 17  0  0  0  0  0  0  0  0999 V2000
   -5.2916  -55.1050  -16.4939 O   0  0  0  0  0  0  0  0  0  0  0  0
   -4.6194  -55.9621  -15.8507 C   0  0  0  0  0  0  0  0  0  0  0  0
   -4.0338  -55.6676  -14.7660 O   0  0  0  0  0  0  0  0  0  0  0  0
   -4.4975  -57.3630  -16.4153 C   0  0  0  0  0  0  0  0  0  0  0  0
   -4.0625  -58.4173  -15.3911 C   0  0  0  0  0  0  0  0  0  0  0  0
   -4.8362  -59.7129  -15.6011 C   0  0  0  0  0  0  0  0  0  0  0  0
   -6.0267  -60.0770  -15.0277 C   0  0  0  0  0  0  0  0  0  0  0  0
   -6.3244  -61.2839  -15.5160 N   0  0  0  0  0  0  0  0  0  0  0  0
   -5.3658  -61.6682  -16.3479 C   0  0  0  0  0  0  0  0  0  0  0  0
   -4.4690  -60.7035  -16.4047 N   0  0  0  0  0  0  0  0  0  0  0  0
   -5.4768  -57.6584  -16.8199 H   0  0  0  0  0  0  0  0  0  0  0  0
   -3.7121  -57.3266  -17.1847 H   0  0  0  0  0  0  0  0  0  0  0  0
   -2.9867  -58.6145  -15.5084 H   0  0  0  0  0  0  0  0  0  0  0  0
   -4.2692  -58.0384  -14.3793 H   0  0  0  0  0  0  0  0  0  0  0  0
   -6.6189  -59.4918  -14.3087 H   0  0  0  0  0  0  0  0  0  0  0  0
   -5.3260  -62.6224  -16.8936 H   0  0  0  0  0  0  0  0  0  0  0  0
   -3.6165  -60.7164  -16.9826 H   0  0  0  0  0  0  0  0  0  0  0  0
  1  2  2  0
  2  3  1  0
  2  4  1  0
  4  5  1  0
  5  6  1  0
  6  7  2  0
  6 10  1  0
  7  8  1  0
  8  9  2  0
  9 10  1  0
  4 11  1  0
  4 12  1  0
  5 13  1  0
  5 14  1  0
  7 15  1  0
  9 16  1  0
 10 17  1  0
M  CHG  1   3  -1
M  END
>  <filename_input>  (14) 
6T88_MWQ_docked.sdf

>  <pdb_id>  (14) 
6T88_MWQ

>  <pose_rank>  (14) 
13

>  <num_atoms_heavy>  (14) 
10

>  <num_torsions>  (14) 
3

>  <pose>  (14) 
[-4.062518298782559, -58.41732499737349, -15.391056422188596, -2.398544735672844, 2.5581315226969377, 4.317051769853476, 0.560674028234538, 5.213498700573191, 0.6595111347319182]

>  <energy>  (14) 
-113.16899086517289

>  <inter_energy>  (14) 
-110.40832206495209

>  <intra_energy>  (14) 
0.0

>  <rmsd>  (14) 
12.4457

>  <sdf_rank>  (14) 
0

$$$$

     RDKit          3D

 17 17  0  0  0  0  0  0  0  0999 V2000
  -13.9105  -59.9277  -13.1458 O   0  0  0  0  0  0  0  0  0  0  0  0
  -14.8395  -60.4663  -13.8145 C   0  0  0  0  0  0  0  0  0  0  0  0
  -15.3151  -61.5973  -13.4973 O   0  0  0  0  0  0  0  0  0  0  0  0
  -15.3684  -59.7436  -15.0369 C   0  0  0  0  0  0  0  0  0  0  0  0
  -16.8291  -60.0646  -15.3732 C   0  0  0  0  0  0  0  0  0  0  0  0
  -17.7300  -58.8944  -14.9985 C   0  0  0  0  0  0  0  0  0  0  0  0
  -18.0614  -57.8140  -15.7740 C   0  0  0  0  0  0  0  0  0  0  0  0
  -18.8803  -57.0599  -15.0360 N   0  0  0  0  0  0  0  0  0  0  0  0
  -19.0499  -57.6291  -13.8504 C   0  0  0  0  0  0  0  0  0  0  0  0
  -18.3571  -58.7508  -13.8375 N   0  0  0  0  0  0  0  0  0  0  0  0
  -15.2848  -58.6610  -14.8607 H   0  0  0  0  0  0  0  0  0  0  0  0
  -14.7650  -60.0840  -15.8913 H   0  0  0  0  0  0  0  0  0  0  0  0
  -16.9182  -60.2596  -16.4521 H   0  0  0  0  0  0  0  0  0  0  0  0
  -17.1402  -60.9516  -14.8018 H   0  0  0  0  0  0  0  0  0  0  0  0
  -17.7209  -57.6088  -16.7997 H   0  0  0  0  0  0  0  0  0  0  0  0
  -19.6603  -57.2354  -13.0243 H   0  0  0  0  0  0  0  0  0  0  0  0
  -18.3099  -59.4123  -13.0495 H   0  0  0  0  0  0  0  0  0  0  0  0
  1  2  2  0
  2  3  1  0
  2  4  1  0
  4  5  1  0
  5  6  1  0
  6  7  2  0
  6 10  1  0
  7  8  1  0
  8  9  2  0
  9 10  1  0
  4 11  1  0
  4 12  1  0
  5 13  1  0
  5 14  1  0
  7 15  1  0
  9 16  1  0
 10 17  1  0
M  CHG  1   3  -1
M  END
>  <filename_input>  (15) 
6T88_MWQ_docked.sdf

>  <pdb_id>  (15) 
6T88_MWQ

>  <pose_rank>  (15) 
14

>  <num_atoms_heavy>  (15) 
10

>  <num_torsions>  (15) 
3

>  <pose>  (15) 
[-16.829130729798802, -60.064597180221405, -15.373194834613498, -1.5007341312825884, -0.5597303529865895, 3.0625368245660063, -8.890435943692546, -1.6661469267678068, 0.8246668790200784]

>  <energy>  (15) 
-112.81034581766194

>  <inter_energy>  (15) 
-95.608156231829

>  <intra_energy>  (15) 
0.0

>  <rmsd>  (15) 
11.9027

>  <sdf_rank>  (15) 
0

$$$$

     RDKit          3D

 17 17  0  0  0  0  0  0  0  0999 V2000
  -20.8251  -44.1564  -12.7193 O   0  0  0  0  0  0  0  0  0  0  0  0
  -19.9201  -44.2753  -11.8435 C   0  0  0  0  0  0  0  0  0  0  0  0
  -20.0000  -43.6880  -10.7233 O   0  0  0  0  0  0  0  0  0  0  0  0
  -18.7045  -45.1211  -12.1647 C   0  0  0  0  0  0  0  0  0  0  0  0
  -17.5752  -44.3572  -12.8655 C   0  0  0  0  0  0  0  0  0  0  0  0
  -17.7266  -44.4555  -14.3784 C   0  0  0  0  0  0  0  0  0  0  0  0
  -17.1163  -43.6814  -15.3308 C   0  0  0  0  0  0  0  0  0  0  0  0
  -17.5384  -44.1389  -16.5125 N   0  0  0  0  0  0  0  0  0  0  0  0
  -18.3807  -45.1443  -16.3172 C   0  0  0  0  0  0  0  0  0  0  0  0
  -18.4823  -45.3401  -15.0174 N   0  0  0  0  0  0  0  0  0  0  0  0
  -18.3109  -45.5311  -11.2229 H   0  0  0  0  0  0  0  0  0  0  0  0
  -19.0385  -45.9026  -12.8630 H   0  0  0  0  0  0  0  0  0  0  0  0
  -17.6125  -43.2996  -12.5656 H   0  0  0  0  0  0  0  0  0  0  0  0
  -16.6110  -44.7991  -12.5740 H   0  0  0  0  0  0  0  0  0  0  0  0
  -16.4182  -42.8494  -15.1566 H   0  0  0  0  0  0  0  0  0  0  0  0
  -18.9021  -45.7139  -17.1006 H   0  0  0  0  0  0  0  0  0  0  0  0
  -19.0582  -46.0662  -14.5679 H   0  0  0  0  0  0  0  0  0  0  0  0
  1  2  2  0
  2  3  1  0
  2  4  1  0
  4  5  1  0
  5  6  1  0
  6  7  2  0
  6 10  1  0
  7  8  1  0
  8  9  2  0
  9 10  1  0
  4 11  1  0
  4 12  1  0
  5 13  1  0
  5 14  1  0
  7 15  1  0
  9 16  1  0
 10 17  1  0
M  CHG  1   3  -1
M  END
>  <filename_input>  (16) 
6T88_MWQ_docked.sdf

>  <pdb_id>  (16) 
6T88_MWQ

>  <pose_rank>  (16) 
15

>  <num_atoms_heavy>  (16) 
10

>  <num_torsions>  (16) 
3

>  <pose>  (16) 
[-17.5752156883476, -44.357207551295076, -12.86554342412844, 1.5222561366663994, 1.2178640165755867, 0.7197540795053834, 4.999634426133142, 1.173356423465947, -1.271485842535601]

>  <energy>  (16) 
-109.43757117450463

>  <inter_energy>  (16) 
-90.5226281105619

>  <intra_energy>  (16) 
0.2579559720393673

>  <rmsd>  (16) 
13.7391

>  <sdf_rank>  (16) 
0

$$$$

     RDKit          3D

 17 17  0  0  0  0  0  0  0  0999 V2000
   -1.7370  -51.4867   -8.3381 O   0  0  0  0  0  0  0  0  0  0  0  0
   -1.9588  -50.9832   -7.1990 C   0  0  0  0  0  0  0  0  0  0  0  0
   -1.7584  -49.7535   -6.9671 O   0  0  0  0  0  0  0  0  0  0  0  0
   -2.4501  -51.8882   -6.0873 C   0  0  0  0  0  0  0  0  0  0  0  0
   -1.3308  -52.5481   -5.2739 C   0  0  0  0  0  0  0  0  0  0  0  0
   -1.6825  -53.9981   -4.9653 C   0  0  0  0  0  0  0  0  0  0  0  0
   -1.8084  -54.5825   -3.7318 C   0  0  0  0  0  0  0  0  0  0  0  0
   -2.1385  -55.8576   -3.9532 N   0  0  0  0  0  0  0  0  0  0  0  0
   -2.2076  -56.0714   -5.2601 C   0  0  0  0  0  0  0  0  0  0  0  0
   -1.9408  -54.9337   -5.8706 N   0  0  0  0  0  0  0  0  0  0  0  0
   -3.0674  -51.2890   -5.4020 H   0  0  0  0  0  0  0  0  0  0  0  0
   -3.0138  -52.7016   -6.5676 H   0  0  0  0  0  0  0  0  0  0  0  0
   -0.3958  -52.5172   -5.8524 H   0  0  0  0  0  0  0  0  0  0  0  0
   -1.2079  -52.0015   -4.3272 H   0  0  0  0  0  0  0  0  0  0  0  0
   -1.6660  -54.0980   -2.7546 H   0  0  0  0  0  0  0  0  0  0  0  0
   -2.4454  -57.0281   -5.7482 H   0  0  0  0  0  0  0  0  0  0  0  0
   -1.9338  -54.7930   -6.8909 H   0  0  0  0  0  0  0  0  0  0  0  0
  1  2  2  0
  2  3  1  0
  2  4  1  0
  4  5  1  0
  5  6  1  0
  6  7  2  0
  6 10  1  0
  7  8  1  0
  8  9  2  0
  9 10  1  0
  4 11  1  0
  4 12  1  0
  5 13  1  0
  5 14  1  0
  7 15  1  0
  9 16  1  0
 10 17  1  0
M  CHG  1   3  -1
M  END
>  <filename_input>  (17) 
6T88_MWQ_docked.sdf

>  <pdb_id>  (17) 
6T88_MWQ

>  <pose_rank>  (17) 
16

>  <num_atoms_heavy>  (17) 
10

>  <num_torsions>  (17) 
3

>  <pose>  (17) 
[-1.3308291733677222, -52.54812645066652, -5.27389077910269, -0.8704642117821006, -1.9640090415941, 5.552961148015236, 0.026068164783315136, 0.3394176118862003, -1.2530351023176216]

>  <energy>  (17) 
-108.70621550002578

>  <inter_energy>  (17) 
-80.26708767887227

>  <intra_energy>  (17) 
0.0

>  <rmsd>  (17) 
9.72997

>  <sdf_rank>  (17) 
0

$$$$

     RDKit          3D

 17 17  0  0  0  0  0  0  0  0999 V2000
   -3.3408  -51.7651  -14.6013 O   0  0  0  0  0  0  0  0  0  0  0  0
   -3.4949  -52.2204  -15.7714 C   0  0  0  0  0  0  0  0  0  0  0  0
   -4.2459  -51.6437  -16.6138 O   0  0  0  0  0  0  0  0  0  0  0  0
   -2.7802  -53.5009  -16.1531 C   0  0  0  0  0  0  0  0  0  0  0  0
   -2.7584  -54.5618  -15.0468 C   0  0  0  0  0  0  0  0  0  0  0  0
   -3.4752  -55.8247  -15.5076 C   0  0  0  0  0  0  0  0  0  0  0  0
   -4.6640  -55.9103  -16.1846 C   0  0  0  0  0  0  0  0  0  0  0  0
   -4.8888  -57.2117  -16.3839 N   0  0  0  0  0  0  0  0  0  0  0  0
   -3.8981  -57.9138  -15.8510 C   0  0  0  0  0  0  0  0  0  0  0  0
   -3.0352  -57.0643  -15.3297 N   0  0  0  0  0  0  0  0  0  0  0  0
   -3.2850  -53.9290  -17.0317 H   0  0  0  0  0  0  0  0  0  0  0  0
   -1.7328  -53.2309  -16.3531 H   0  0  0  0  0  0  0  0  0  0  0  0
   -1.7148  -54.8069  -14.8002 H   0  0  0  0  0  0  0  0  0  0  0  0
   -3.2727  -54.1630  -14.1599 H   0  0  0  0  0  0  0  0  0  0  0  0
   -5.3049  -55.0741  -16.5007 H   0  0  0  0  0  0  0  0  0  0  0  0
   -3.8116  -59.0104  -15.8450 H   0  0  0  0  0  0  0  0  0  0  0  0
   -2.1567  -57.3222  -14.8579 H   0  0  0  0  0  0  0  0  0  0  0  0
  1  2  2  0
  2  3  1  0
  2  4  1  0
  4  5  1  0
  5  6  1  0
  6  7  2  0
  6 10  1  0
  7  8  1  0
  8  9  2  0
  9 10  1  0
  4 11  1  0
  4 12  1  0
  5 13  1  0
  5 14  1  0
  7 15  1  0
  9 16  1  0
 10 17  1  0
M  CHG  1   3  -1
M  END
>  <filename_input>  (18) 
6T88_MWQ_docked.sdf

>  <pdb_id>  (18) 
6T88_MWQ

>  <pose_rank>  (18) 
17

>  <num_atoms_heavy>  (18) 
10

>  <num_torsions>  (18) 
3

>  <pose>  (18) 
[-2.7583732055599266, -54.56175953105758, -15.046764911023581, -2.220001349653465, 3.7419299420239875, 3.0799095987991456, 1.3745831310889591, -1.4376029265900856, -2.1101062072830823]

>  <energy>  (18) 
-108.1874718038639

>  <inter_energy>  (18) 
-101.27521641017125

>  <intra_energy>  (18) 
0.0

>  <rmsd>  (18) 
12.1237

>  <sdf_rank>  (18) 
0

$$$$

     RDKit          3D

 17 17  0  0  0  0  0  0  0  0999 V2000
   -3.8025  -46.0146  -13.8174 O   0  0  0  0  0  0  0  0  0  0  0  0
   -3.5762  -47.2412  -13.6069 C   0  0  0  0  0  0  0  0  0  0  0  0
   -3.5559  -48.0838  -14.5533 O   0  0  0  0  0  0  0  0  0  0  0  0
   -3.3523  -47.7049  -12.1817 C   0  0  0  0  0  0  0  0  0  0  0  0
   -4.3608  -47.1436  -11.1728 C   0  0  0  0  0  0  0  0  0  0  0  0
   -3.7396  -45.9996  -10.3813 C   0  0  0  0  0  0  0  0  0  0  0  0
   -4.3881  -44.9577   -9.7708 C   0  0  0  0  0  0  0  0  0  0  0  0
   -3.4414  -44.2148   -9.1914 N   0  0  0  0  0  0  0  0  0  0  0  0
   -2.2538  -44.7535   -9.4320 C   0  0  0  0  0  0  0  0  0  0  0  0
   -2.4423  -45.8454  -10.1464 N   0  0  0  0  0  0  0  0  0  0  0  0
   -3.4187  -48.8027  -12.1616 H   0  0  0  0  0  0  0  0  0  0  0  0
   -2.3623  -47.3324  -11.8798 H   0  0  0  0  0  0  0  0  0  0  0  0
   -5.2450  -46.7730  -11.7122 H   0  0  0  0  0  0  0  0  0  0  0  0
   -4.6509  -47.9435  -10.4757 H   0  0  0  0  0  0  0  0  0  0  0  0
   -5.4721  -44.7708   -9.7602 H   0  0  0  0  0  0  0  0  0  0  0  0
   -1.2836  -44.3593   -9.0954 H   0  0  0  0  0  0  0  0  0  0  0  0
   -1.6989  -46.4799  -10.4714 H   0  0  0  0  0  0  0  0  0  0  0  0
  1  2  2  0
  2  3  1  0
  2  4  1  0
  4  5  1  0
  5  6  1  0
  6  7  2  0
  6 10  1  0
  7  8  1  0
  8  9  2  0
  9 10  1  0
  4 11  1  0
  4 12  1  0
  5 13  1  0
  5 14  1  0
  7 15  1  0
  9 16  1  0
 10 17  1  0
M  CHG  1   3  -1
M  END
>  <filename_input>  (19) 
6T88_MWQ_docked.sdf

>  <pdb_id>  (19) 
6T88_MWQ

>  <pose_rank>  (19) 
18

>  <num_atoms_heavy>  (19) 
10

>  <num_torsions>  (19) 
3

>  <pose>  (19) 
[-4.360751243879579, -47.14360868273304, -11.172843388959206, 0.13380583363096876, 0.5637381602950634, -3.6313870725443684, -1.4522570272386148, 0.9936543126673579, -2.004875101420488]

>  <energy>  (19) 
-107.6428769341475

>  <inter_energy>  (19) 
-106.18351749911069

>  <intra_energy>  (19) 
0.7997673238770389

>  <rmsd>  (19) 
12.1009

>  <sdf_rank>  (19) 
0

$$$$

     RDKit          3D

 17 17  0  0  0  0  0  0  0  0999 V2000
  -17.0080  -61.0728  -11.2810 O   0  0  0  0  0  0  0  0  0  0  0  0
  -16.6675  -61.6640  -12.3462 C   0  0  0  0  0  0  0  0  0  0  0  0
  -15.7207  -62.5063  -12.3636 O   0  0  0  0  0  0  0  0  0  0  0  0
  -17.3994  -61.3281  -13.6298 C   0  0  0  0  0  0  0  0  0  0  0  0
  -18.9066  -61.1102  -13.4547 C   0  0  0  0  0  0  0  0  0  0  0  0
  -19.2495  -59.6323  -13.5949 C   0  0  0  0  0  0  0  0  0  0  0  0
  -18.3784  -58.5791  -13.6984 C   0  0  0  0  0  0  0  0  0  0  0  0
  -19.1299  -57.4812  -13.8144 N   0  0  0  0  0  0  0  0  0  0  0  0
  -20.4110  -57.8214  -13.7757 C   0  0  0  0  0  0  0  0  0  0  0  0
  -20.4777  -59.1325  -13.6539 N   0  0  0  0  0  0  0  0  0  0  0  0
  -16.9636  -60.4072  -14.0447 H   0  0  0  0  0  0  0  0  0  0  0  0
  -17.2805  -62.1941  -14.2975 H   0  0  0  0  0  0  0  0  0  0  0  0
  -19.4472  -61.6821  -14.2233 H   0  0  0  0  0  0  0  0  0  0  0  0
  -19.2024  -61.4515  -12.4517 H   0  0  0  0  0  0  0  0  0  0  0  0
  -17.2796  -58.6284  -13.6881 H   0  0  0  0  0  0  0  0  0  0  0  0
  -21.2663  -57.1322  -13.8347 H   0  0  0  0  0  0  0  0  0  0  0  0
  -21.3472  -59.6830  -13.6111 H   0  0  0  0  0  0  0  0  0  0  0  0
  1  2  2  0
  2  3  1  0
  2  4  1  0
  4  5  1  0
  5  6  1  0
  6  7  2  0
  6 10  1  0
  7  8  1  0
  8  9  2  0
  9 10  1  0
  4 11  1  0
  4 12  1  0
  5 13  1  0
  5 14  1  0
  7 15  1  0
  9 16  1  0
 10 17  1  0
M  CHG  1   3  -1
M  END
>  <filename_input>  (20) 
6T88_MWQ_docked.sdf

>  <pdb_id>  (20) 
6T88_MWQ

>  <pose_rank>  (20) 
19

>  <num_atoms_heavy>  (20) 
10

>  <num_torsions>  (20) 
3

>  <pose>  (20) 
[-18.90664617553681, -61.11018380632335, -13.454747586656044, 0.7762050716939526, -0.38300055667851485, -2.8734499868894168, 2.0033278021191947, -1.6327592982149448, 2.804749362550331]

>  <energy>  (20) 
-101.84103454317003

>  <inter_energy>  (20) 
-90.44868530584252

>  <intra_energy>  (20) 
0.16600882197075947

>  <rmsd>  (20) 
12.4171

>  <sdf_rank>  (20) 
0

$$$$

     RDKit          3D

 17 17  0  0  0  0  0  0  0  0999 V2000
  -20.8481  -57.4659    0.0327 O   0  0  0  0  0  0  0  0  0  0  0  0
  -20.7192  -58.2813   -0.9258 C   0  0  0  0  0  0  0  0  0  0  0  0
  -20.9177  -59.5234   -0.7711 O   0  0  0  0  0  0  0  0  0  0  0  0
  -20.2910  -57.7506   -2.2790 C   0  0  0  0  0  0  0  0  0  0  0  0
  -21.3959  -57.7744   -3.3413 C   0  0  0  0  0  0  0  0  0  0  0  0
  -20.9682  -58.6208   -4.5337 C   0  0  0  0  0  0  0  0  0  0  0  0
  -20.5353  -59.9213   -4.5224 C   0  0  0  0  0  0  0  0  0  0  0  0
  -20.2868  -60.2448   -5.7941 N   0  0  0  0  0  0  0  0  0  0  0  0
  -20.5396  -59.1989   -6.5693 C   0  0  0  0  0  0  0  0  0  0  0  0
  -20.9650  -58.2177   -5.7984 N   0  0  0  0  0  0  0  0  0  0  0  0
  -19.9570  -56.7103   -2.1517 H   0  0  0  0  0  0  0  0  0  0  0  0
  -19.4909  -58.4137   -2.6400 H   0  0  0  0  0  0  0  0  0  0  0  0
  -22.3105  -58.2009   -2.9035 H   0  0  0  0  0  0  0  0  0  0  0  0
  -21.5844  -56.7460   -3.6831 H   0  0  0  0  0  0  0  0  0  0  0  0
  -20.4163  -60.5693   -3.6415 H   0  0  0  0  0  0  0  0  0  0  0  0
  -20.4163  -59.1575   -7.6616 H   0  0  0  0  0  0  0  0  0  0  0  0
  -21.2504  -57.2839   -6.1263 H   0  0  0  0  0  0  0  0  0  0  0  0
  1  2  2  0
  2  3  1  0
  2  4  1  0
  4  5  1  0
  5  6  1  0
  6  7  2  0
  6 10  1  0
  7  8  1  0
  8  9  2  0
  9 10  1  0
  4 11  1  0
  4 12  1  0
  5 13  1  0
  5 14  1  0
  7 15  1  0
  9 16  1  0
 10 17  1  0
M  CHG  1   3  -1
M  END
>  <filename_input>  (21) 
6T88_MWQ_docked.sdf

>  <pdb_id>  (21) 
6T88_MWQ

>  <pose_rank>  (21) 
20

>  <num_atoms_heavy>  (21) 
10

>  <num_torsions>  (21) 
3

>  <pose>  (21) 
[-21.395896457923353, -57.774389985857766, -3.3413298000190057, -0.6160131054520878, 2.902574321097215, 1.034290671139387, 3.088039941658991, 0.6595355411317304, 1.5736033306688688]

>  <energy>  (21) 
-99.75112170989638

>  <inter_energy>  (21) 
-92.78502168757898

>  <intra_energy>  (21) 
0.0

>  <rmsd>  (21) 
11.8855

>  <sdf_rank>  (21) 
0

$$$$

     RDKit          3D

 17 17  0  0  0  0  0  0  0  0999 V2000
  -21.1570  -59.8286  -13.1429 O   0  0  0  0  0  0  0  0  0  0  0  0
  -20.8721  -60.9358  -12.6016 C   0  0  0  0  0  0  0  0  0  0  0  0
  -21.1335  -62.0383  -13.1693 O   0  0  0  0  0  0  0  0  0  0  0  0
  -20.2275  -60.9299  -11.2302 C   0  0  0  0  0  0  0  0  0  0  0  0
  -19.9525  -59.5291  -10.6715 C   0  0  0  0  0  0  0  0  0  0  0  0
  -20.3614  -59.4521   -9.2059 C   0  0  0  0  0  0  0  0  0  0  0  0
  -21.3619  -58.6929   -8.6568 C   0  0  0  0  0  0  0  0  0  0  0  0
  -21.3591  -58.9592   -7.3480 N   0  0  0  0  0  0  0  0  0  0  0  0
  -20.3991  -59.8342   -7.0813 C   0  0  0  0  0  0  0  0  0  0  0  0
  -19.8031  -60.1393   -8.2170 N   0  0  0  0  0  0  0  0  0  0  0  0
  -20.8965  -61.4545  -10.5323 H   0  0  0  0  0  0  0  0  0  0  0  0
  -19.2510  -61.4248  -11.3376 H   0  0  0  0  0  0  0  0  0  0  0  0
  -18.8786  -59.3079  -10.7603 H   0  0  0  0  0  0  0  0  0  0  0  0
  -20.5382  -58.7952  -11.2444 H   0  0  0  0  0  0  0  0  0  0  0  0
  -22.0331  -58.0022   -9.1881 H   0  0  0  0  0  0  0  0  0  0  0  0
  -20.1450  -60.2344   -6.0887 H   0  0  0  0  0  0  0  0  0  0  0  0
  -19.0256  -60.8069   -8.3208 H   0  0  0  0  0  0  0  0  0  0  0  0
  1  2  2  0
  2  3  1  0
  2  4  1  0
  4  5  1  0
  5  6  1  0
  6  7  2  0
  6 10  1  0
  7  8  1  0
  8  9  2  0
  9 10  1  0
  4 11  1  0
  4 12  1  0
  5 13  1  0
  5 14  1  0
  7 15  1  0
  9 16  1  0
 10 17  1  0
M  CHG  1   3  -1
M  END
>  <filename_input>  (22) 
6T88_MWQ_docked.sdf

>  <pdb_id>  (22) 
6T88_MWQ

>  <pose_rank>  (22) 
21

>  <num_atoms_heavy>  (22) 
10

>  <num_torsions>  (22) 
3

>  <pose>  (22) 
[-19.952470049364518, -59.5291071154431, -10.671521092663024, 4.147704508587938, 1.9758135049725027, -1.0045852851522927, 0.13679726666796338, -1.1395123560551164, -2.8341488722295276]

>  <energy>  (22) 
-98.17600492057426

>  <inter_energy>  (22) 
-88.9358914775859

>  <intra_energy>  (22) 
0.0

>  <rmsd>  (22) 
12.2675

>  <sdf_rank>  (22) 
0

$$$$

     RDKit          3D

 17 17  0  0  0  0  0  0  0  0999 V2000
   -5.6893  -43.7568  -15.9582 O   0  0  0  0  0  0  0  0  0  0  0  0
   -5.8354  -44.2179  -14.7894 C   0  0  0  0  0  0  0  0  0  0  0  0
   -6.0646  -45.4476  -14.5854 O   0  0  0  0  0  0  0  0  0  0  0  0
   -5.7589  -43.2621  -13.6160 C   0  0  0  0  0  0  0  0  0  0  0  0
   -5.9890  -43.9225  -12.2519 C   0  0  0  0  0  0  0  0  0  0  0  0
   -4.6902  -43.9654  -11.4567 C   0  0  0  0  0  0  0  0  0  0  0  0
   -4.4227  -43.3517  -10.2606 C   0  0  0  0  0  0  0  0  0  0  0  0
   -3.1680  -43.6812   -9.9426 N   0  0  0  0  0  0  0  0  0  0  0  0
   -2.6641  -44.4553  -10.8942 C   0  0  0  0  0  0  0  0  0  0  0  0
   -3.5985  -44.6343  -11.8068 N   0  0  0  0  0  0  0  0  0  0  0  0
   -4.7605  -42.8003  -13.6118 H   0  0  0  0  0  0  0  0  0  0  0  0
   -6.5670  -42.5284  -13.7526 H   0  0  0  0  0  0  0  0  0  0  0  0
   -6.7384  -43.3445  -11.6912 H   0  0  0  0  0  0  0  0  0  0  0  0
   -6.3453  -44.9512  -12.4091 H   0  0  0  0  0  0  0  0  0  0  0  0
   -5.1052  -42.7149   -9.6786 H   0  0  0  0  0  0  0  0  0  0  0  0
   -1.6471  -44.8737  -10.9178 H   0  0  0  0  0  0  0  0  0  0  0  0
   -3.4972  -45.2044  -12.6587 H   0  0  0  0  0  0  0  0  0  0  0  0
  1  2  2  0
  2  3  1  0
  2  4  1  0
  4  5  1  0
  5  6  1  0
  6  7  2  0
  6 10  1  0
  7  8  1  0
  8  9  2  0
  9 10  1  0
  4 11  1  0
  4 12  1  0
  5 13  1  0
  5 14  1  0
  7 15  1  0
  9 16  1  0
 10 17  1  0
M  CHG  1   3  -1
M  END
>  <filename_input>  (23) 
6T88_MWQ_docked.sdf

>  <pdb_id>  (23) 
6T88_MWQ

>  <pose_rank>  (23) 
22

>  <num_atoms_heavy>  (23) 
10

>  <num_torsions>  (23) 
3

>  <pose>  (23) 
[-5.989011524407549, -43.92247927565114, -12.251914468678255, 0.8783598509390876, -1.287310942084637, 1.7708103194839937, -2.0982916860216823, -1.5984279522445808, 0.3119251726134322]

>  <energy>  (23) 
-94.6799012197055

>  <inter_energy>  (23) 
-78.00522537456958

>  <intra_energy>  (23) 
0.0

>  <rmsd>  (23) 
12.984

>  <sdf_rank>  (23) 
0

$$$$

     RDKit          3D

 17 17  0  0  0  0  0  0  0  0999 V2000
  -21.3874  -61.0450   -8.8819 O   0  0  0  0  0  0  0  0  0  0  0  0
  -20.9401  -60.1109   -9.6082 C   0  0  0  0  0  0  0  0  0  0  0  0
  -21.4198  -58.9393   -9.5520 O   0  0  0  0  0  0  0  0  0  0  0  0
  -19.8221  -60.4202  -10.5833 C   0  0  0  0  0  0  0  0  0  0  0  0
  -18.4191  -60.1105  -10.0490 C   0  0  0  0  0  0  0  0  0  0  0  0
  -17.3688  -60.4044  -11.1128 C   0  0  0  0  0  0  0  0  0  0  0  0
  -16.0151  -60.2068  -11.0269 C   0  0  0  0  0  0  0  0  0  0  0  0
  -15.5017  -60.6189  -12.1890 N   0  0  0  0  0  0  0  0  0  0  0  0
  -16.4817  -61.0457  -12.9738 C   0  0  0  0  0  0  0  0  0  0  0  0
  -17.6140  -60.9238  -12.3095 N   0  0  0  0  0  0  0  0  0  0  0  0
  -19.8679  -61.4907  -10.8325 H   0  0  0  0  0  0  0  0  0  0  0  0
  -19.9775  -59.7721  -11.4584 H   0  0  0  0  0  0  0  0  0  0  0  0
  -18.3642  -59.0481   -9.7692 H   0  0  0  0  0  0  0  0  0  0  0  0
  -18.2241  -60.7434   -9.1707 H   0  0  0  0  0  0  0  0  0  0  0  0
  -15.4620  -59.7916  -10.1716 H   0  0  0  0  0  0  0  0  0  0  0  0
  -16.3698  -61.4327  -13.9974 H   0  0  0  0  0  0  0  0  0  0  0  0
  -18.5437  -61.1900  -12.6638 H   0  0  0  0  0  0  0  0  0  0  0  0
  1  2  2  0
  2  3  1  0
  2  4  1  0
  4  5  1  0
  5  6  1  0
  6  7  2  0
  6 10  1  0
  7  8  1  0
  8  9  2  0
  9 10  1  0
  4 11  1  0
  4 12  1  0
  5 13  1  0
  5 14  1  0
  7 15  1  0
  9 16  1  0
 10 17  1  0
M  CHG  1   3  -1
M  END
>  <filename_input>  (24) 
6T88_MWQ_docked.sdf

>  <pdb_id>  (24) 
6T88_MWQ

>  <pose_rank>  (24) 
23

>  <num_atoms_heavy>  (24) 
10

>  <num_torsions>  (24) 
3

>  <pose>  (24) 
[-18.41909314600138, -60.110540853300996, -10.049031930816646, -8.047897136053933, -2.07511007508368, -7.274823797057955, -13.617796821070835, -0.3335444262931464, 1.8158252067446934]

>  <energy>  (24) 
-92.35093006559154

>  <inter_energy>  (24) 
-86.32222941186761

>  <intra_energy>  (24) 
0.0

>  <rmsd>  (24) 
11.287

>  <sdf_rank>  (24) 
0

$$$$

     RDKit          3D

 17 17  0  0  0  0  0  0  0  0999 V2000
  -21.0933  -48.1038    1.7577 O   0  0  0  0  0  0  0  0  0  0  0  0
  -20.3609  -48.4491    0.7859 C   0  0  0  0  0  0  0  0  0  0  0  0
  -20.8566  -48.7942   -0.3283 O   0  0  0  0  0  0  0  0  0  0  0  0
  -18.8583  -48.4721    0.9803 C   0  0  0  0  0  0  0  0  0  0  0  0
  -18.1424  -47.2075    0.4923 C   0  0  0  0  0  0  0  0  0  0  0  0
  -17.2094  -46.6749    1.5725 C   0  0  0  0  0  0  0  0  0  0  0  0
  -16.5087  -47.3987    2.5020 C   0  0  0  0  0  0  0  0  0  0  0  0
  -15.8203  -46.5123    3.2260 N   0  0  0  0  0  0  0  0  0  0  0  0
  -16.0805  -45.2894    2.7839 C   0  0  0  0  0  0  0  0  0  0  0  0
  -16.9170  -45.3954    1.7704 N   0  0  0  0  0  0  0  0  0  0  0  0
  -18.6511  -48.5934    2.0538 H   0  0  0  0  0  0  0  0  0  0  0  0
  -18.4738  -49.3065    0.3753 H   0  0  0  0  0  0  0  0  0  0  0  0
  -17.5561  -47.4471   -0.4071 H   0  0  0  0  0  0  0  0  0  0  0  0
  -18.8944  -46.4391    0.2597 H   0  0  0  0  0  0  0  0  0  0  0  0
  -16.5125  -48.4916    2.6266 H   0  0  0  0  0  0  0  0  0  0  0  0
  -15.6710  -44.3530    3.1906 H   0  0  0  0  0  0  0  0  0  0  0  0
  -17.2861  -44.6080    1.2183 H   0  0  0  0  0  0  0  0  0  0  0  0
  1  2  2  0
  2  3  1  0
  2  4  1  0
  4  5  1  0
  5  6  1  0
  6  7  2  0
  6 10  1  0
  7  8  1  0
  8  9  2  0
  9 10  1  0
  4 11  1  0
  4 12  1  0
  5 13  1  0
  5 14  1  0
  7 15  1  0
  9 16  1  0
 10 17  1  0
M  CHG  1   3  -1
M  END
>  <filename_input>  (25) 
6T88_MWQ_docked.sdf

>  <pdb_id>  (25) 
6T88_MWQ

>  <pose_rank>  (25) 
24

>  <num_atoms_heavy>  (25) 
10

>  <num_torsions>  (25) 
3

>  <pose>  (25) 
[-18.142417746346613, -47.207505426335764, 0.4922529272850058, -1.4821222513014973, 0.3461586218144088, 0.8243340518711311, 2.707351771397658, -1.241385829535514, 1.7944677197827739]

>  <energy>  (25) 
-90.62688340338576

>  <inter_energy>  (25) 
-77.14834521113988

>  <intra_energy>  (25) 
0.0

>  <rmsd>  (25) 
12.7844

>  <sdf_rank>  (25) 
0

$$$$

     RDKit          3D

 17 17  0  0  0  0  0  0  0  0999 V2000
  -12.8950  -50.8450   -9.2900 O   0  0  0  0  0  0  0  0  0  0  0  0
  -12.2130  -50.9700   -8.2320 C   0  0  0  0  0  0  0  0  0  0  0  0
  -11.4100  -50.0670   -7.8500 O   0  0  0  0  0  0  0  0  0  0  0  0
  -12.3490  -52.2460   -7.4260 C   0  0  0  0  0  0  0  0  0  0  0  0
  -11.1840  -52.5090   -6.4650 C   0  0  0  0  0  0  0  0  0  0  0  0
  -11.1190  -53.9870   -6.1010 C   0  0  0  0  0  0  0  0  0  0  0  0
  -11.1760  -54.5420   -4.8490 C   0  0  0  0  0  0  0  0  0  0  0  0
  -11.0950  -55.8640   -5.0210 N   0  0  0  0  0  0  0  0  0  0  0  0
  -10.9820  -56.1310   -6.3150 C   0  0  0  0  0  0  0  0  0  0  0  0
  -11.0090  -54.9860   -6.9680 N   0  0  0  0  0  0  0  0  0  0  0  0
  -13.2755  -52.1845   -6.8363 H   0  0  0  0  0  0  0  0  0  0  0  0
  -12.3575  -53.0763   -8.1474 H   0  0  0  0  0  0  0  0  0  0  0  0
  -10.2414  -52.2130   -6.9486 H   0  0  0  0  0  0  0  0  0  0  0  0
  -11.3388  -51.9221   -5.5476 H   0  0  0  0  0  0  0  0  0  0  0  0
  -11.2697  -54.0056   -3.8932 H   0  0  0  0  0  0  0  0  0  0  0  0
  -10.8833  -57.1304   -6.7639 H   0  0  0  0  0  0  0  0  0  0  0  0
  -10.9534  -54.8828   -7.9913 H   0  0  0  0  0  0  0  0  0  0  0  0
  1  2  2  0
  2  3  1  0
  2  4  1  0
  4  5  1  0
  5  6  1  0
  6  7  2  0
  6 10  1  0
  7  8  1  0
  8  9  2  0
  9 10  1  0
  4 11  1  0
  4 12  1  0
  5 13  1  0
  5 14  1  0
  7 15  1  0
  9 16  1  0
 10 17  1  0
M  CHG  1   3  -1
M  END
>  <filename_input>  (26) 
6T88_MWQ_docked.sdf

>  <pdb_id>  (26) 
6T88_MWQ

>  <pose_rank>  (26) 
25

>  <num_atoms_heavy>  (26) 
10

>  <num_torsions>  (26) 
3

>  <pose>  (26) 
[-11.184, -52.509, -6.465, 1e-06, 1e-06, 1e-06, 0.0, 0.0, 0.0]

>  <energy>  (26) 
-702.1830043496598

>  <inter_energy>  (26) 
-694.3094024197446

>  <intra_energy>  (26) 
0.0

>  <rmsd>  (26) 
0.0

>  <sdf_rank>  (26) 
0

$$$$
