
     RDKit          3D

 60 63  0  0  0  0  0  0  0  0999 V2000
    1.1529   -8.1933   86.6971 C   0  0  0  0  0  0  0  0  0  0  0  0
    5.0186   -9.9536   87.4384 C   0  0  0  0  0  0  0  0  0  0  0  0
    6.4001  -10.1882   87.5622 C   0  0  0  0  0  0  0  0  0  0  0  0
    2.9417   -8.8815   88.2174 C   0  0  0  0  0  0  0  0  0  0  0  0
    2.5019   -8.5475   86.9070 C   0  0  0  0  0  0  0  0  0  0  0  0
    4.3589   -9.1864   88.4175 C   0  0  0  0  0  0  0  0  0  0  0  0
    5.1404   -8.6705   89.4811 C   0  0  0  0  0  0  0  0  0  0  0  0
    8.5474  -10.8488   87.3014 N   0  0  0  0  0  0  0  0  0  0  0  0
    6.5105   -8.8715   89.6020 C   0  0  0  0  0  0  0  0  0  0  0  0
    7.1821   -9.6702   88.6652 C   0  0  0  0  0  0  0  0  0  0  0  0
   -0.9841   -7.8109   87.5242 F   0  0  0  0  0  0  0  0  0  0  0  0
    0.2764   -8.1813   87.7878 C   0  0  0  0  0  0  0  0  0  0  0  0
    0.6624   -8.5006   89.0748 C   0  0  0  0  0  0  0  0  0  0  0  0
    1.9647   -8.8654   89.3185 C   0  0  0  0  0  0  0  0  0  0  0  0
    8.4914  -10.0727   88.4755 N   0  0  0  0  0  0  0  0  0  0  0  0
    7.3374  -10.9831   86.7114 C   0  0  0  0  0  0  0  0  0  0  0  0
    6.9904  -11.8001   85.4439 C   0  0  0  0  0  0  0  0  0  0  0  0
    8.1335  -12.2742   84.6344 N   0  0  1  0  0  0  0  0  0  0  0  0
    8.1218  -13.7523   84.4373 C   0  0  0  0  0  0  0  0  0  0  0  0
    8.0811  -11.6628   83.2828 C   0  0  0  0  0  0  0  0  0  0  0  0
    2.4456   -9.2083   90.5451 O   0  0  0  0  0  0  0  0  0  0  0  0
    1.4260   -9.2920   91.5666 C   0  0  0  0  0  0  0  0  0  0  0  0
    2.1557   -9.7342   92.7934 C   0  0  0  0  0  0  0  0  0  0  0  0
    2.4129  -11.2291   92.8828 C   0  0  0  0  0  0  0  0  0  0  0  0
    1.4937  -12.3925   93.1383 C   0  0  0  0  0  0  0  0  0  0  0  0
   -0.0066  -12.4819   93.2992 C   0  0  0  0  0  0  0  0  0  0  0  0
    2.2039  -13.5168   93.1411 N   0  0  0  0  0  0  0  0  0  0  0  0
    3.5758  -13.1644   92.9385 N   0  0  0  0  0  0  0  0  0  0  0  0
    4.5127  -14.2988   92.9908 C   0  0  0  0  0  0  0  0  0  0  0  0
    3.7667  -11.8550   92.7785 C   0  0  0  0  0  0  0  0  0  0  0  0
    5.1077  -11.2088   92.4785 C   0  0  0  0  0  0  0  0  0  0  0  0
    0.7951   -7.9304   85.6907 H   0  0  0  0  0  0  0  0  0  0  0  0
    4.4594  -10.3654   86.5853 H   0  0  0  0  0  0  0  0  0  0  0  0
    3.2081   -8.5652   86.0639 H   0  0  0  0  0  0  0  0  0  0  0  0
    4.6334   -8.0767   90.2559 H   0  0  0  0  0  0  0  0  0  0  0  0
    9.4134  -11.2676   86.9329 H   0  0  0  0  0  0  0  0  0  0  0  0
    7.0658   -8.4057   90.4294 H   0  0  0  0  0  0  0  0  0  0  0  0
   -0.0665   -8.4632   89.8979 H   0  0  0  0  0  0  0  0  0  0  0  0
    6.4161  -12.6829   85.7615 H   0  0  0  0  0  0  0  0  0  0  0  0
    6.4375  -11.1077   84.7920 H   0  0  0  0  0  0  0  0  0  0  0  0
    8.9834  -12.0048   85.1501 H   0  0  0  0  0  0  0  0  0  0  0  0
    8.1178  -14.2528   85.4168 H   0  0  0  0  0  0  0  0  0  0  0  0
    7.2213  -14.0401   83.8748 H   0  0  0  0  0  0  0  0  0  0  0  0
    9.0176  -14.0543   83.8748 H   0  0  0  0  0  0  0  0  0  0  0  0
    7.9875  -10.5709   83.3776 H   0  0  0  0  0  0  0  0  0  0  0  0
    9.0033  -11.9055   82.7346 H   0  0  0  0  0  0  0  0  0  0  0  0
    7.2136  -12.0589   82.7346 H   0  0  0  0  0  0  0  0  0  0  0  0
    0.9558   -8.3105   91.7271 H   0  0  0  0  0  0  0  0  0  0  0  0
    0.6160   -9.9835   91.2913 H   0  0  0  0  0  0  0  0  0  0  0  0
    3.1270   -9.2186   92.8174 H   0  0  0  0  0  0  0  0  0  0  0  0
    1.5068   -9.4821   93.6452 H   0  0  0  0  0  0  0  0  0  0  0  0
   -0.2604  -12.4971   94.3694 H   0  0  0  0  0  0  0  0  0  0  0  0
   -0.4791  -11.6104   92.8226 H   0  0  0  0  0  0  0  0  0  0  0  0
   -0.3722  -13.4035   92.8226 H   0  0  0  0  0  0  0  0  0  0  0  0
    4.7226  -14.5529   94.0402 H   0  0  0  0  0  0  0  0  0  0  0  0
    4.0653  -15.1674   92.4856 H   0  0  0  0  0  0  0  0  0  0  0  0
    5.4502  -14.0235   92.4856 H   0  0  0  0  0  0  0  0  0  0  0  0
    5.6161  -10.9638   93.4227 H   0  0  0  0  0  0  0  0  0  0  0  0
    5.7291  -11.9064   91.8978 H   0  0  0  0  0  0  0  0  0  0  0  0
    4.9494  -10.2881   91.8978 H   0  0  0  0  0  0  0  0  0  0  0  0
  1  5  2  0
  1 12  1  0
  2  3  1  0
  2  6  2  0
  3 10  1  0
  3 16  2  0
  4  5  1  0
  4  6  1  0
  4 14  2  0
  6  7  1  0
  7  9  2  0
  8 15  1  0
  8 16  1  0
  9 10  1  0
 10 15  2  0
 11 12  1  0
 12 13  2  0
 13 14  1  0
 14 21  1  0
 16 17  1  0
 17 18  1  0
 18 19  1  0
 18 20  1  0
 21 22  1  0
 22 23  1  0
 23 24  1  0
 24 25  1  0
 24 30  2  0
 25 26  1  0
 25 27  2  0
 27 28  1  0
 28 29  1  0
 28 30  1  0
 30 31  1  0
  1 32  1  0
  2 33  1  0
  5 34  1  0
  7 35  1  0
  8 36  1  0
  9 37  1  0
 13 38  1  0
 17 39  1  0
 17 40  1  0
 18 41  1  1
 19 42  1  0
 19 43  1  0
 19 44  1  0
 20 45  1  0
 20 46  1  0
 20 47  1  0
 22 48  1  0
 22 49  1  0
 23 50  1  0
 23 51  1  0
 26 52  1  0
 26 53  1  0
 26 54  1  0
 29 55  1  0
 29 56  1  0
 29 57  1  0
 31 58  1  0
 31 59  1  0
 31 60  1  0
M  CHG  1  18   1
M  END
>  <filename_input>  (1) 
6TW5_9M2_docked.sdf

>  <pdb_id>  (1) 
6TW5_9M2

>  <pose_rank>  (1) 
0

>  <num_atoms_heavy>  (1) 
31

>  <num_torsions>  (1) 
7

>  <pose>  (1) 
[1.1529009408760682, -8.193326322621525, 86.69712830655162, 0.37300347548880486, 0.4938977125682527, -6.191401558019864, 18.957190734344593, 1.2573872630983502, -3.0405954420500607, -87.90695626557662, -56.590334587899946, 25.082288555135186, -12.594500063479712]

>  <energy>  (1) 
-1247.6715727386502

>  <inter_energy>  (1) 
-1252.9162517773564

>  <intra_energy>  (1) 
12.803635219697219

>  <rmsd>  (1) 
0.672954

>  <sdf_rank>  (1) 
0

$$$$

     RDKit          3D

 60 63  0  0  0  0  0  0  0  0999 V2000
    0.9331   -8.2887   86.4244 C   0  0  0  0  0  0  0  0  0  0  0  0
    5.0095   -9.0765   88.9327 C   0  0  0  0  0  0  0  0  0  0  0  0
    6.3359   -9.5318   89.0439 C   0  0  0  0  0  0  0  0  0  0  0  0
    2.8431   -9.0316   87.7603 C   0  0  0  0  0  0  0  0  0  0  0  0
    2.2668   -8.7424   86.4929 C   0  0  0  0  0  0  0  0  0  0  0  0
    4.2467   -9.4427   87.8073 C   0  0  0  0  0  0  0  0  0  0  0  0
    4.8629  -10.2778   86.8425 C   0  0  0  0  0  0  0  0  0  0  0  0
    8.4587   -9.9760   89.6857 N   0  0  0  0  0  0  0  0  0  0  0  0
    6.1630  -10.7572   86.9522 C   0  0  0  0  0  0  0  0  0  0  0  0
    6.9584  -10.3693   88.0401 C   0  0  0  0  0  0  0  0  0  0  0  0
   -1.0457   -7.6766   87.4765 F   0  0  0  0  0  0  0  0  0  0  0  0
    0.2061   -8.1356   87.6101 C   0  0  0  0  0  0  0  0  0  0  0  0
    0.7273   -8.4070   88.8599 C   0  0  0  0  0  0  0  0  0  0  0  0
    2.0184   -8.8654   88.9684 C   0  0  0  0  0  0  0  0  0  0  0  0
    8.2472  -10.6401   88.4616 N   0  0  0  0  0  0  0  0  0  0  0  0
    7.3739   -9.2750   90.0883 C   0  0  0  0  0  0  0  0  0  0  0  0
    7.2400   -8.3815   91.3445 C   0  0  0  0  0  0  0  0  0  0  0  0
    8.0363   -8.7829   92.5242 N   0  0  1  0  0  0  0  0  0  0  0  0
    9.1999   -7.8815   92.7634 C   0  0  0  0  0  0  0  0  0  0  0  0
    7.1930   -8.7245   93.7444 C   0  0  0  0  0  0  0  0  0  0  0  0
    2.6239   -9.1719   90.1485 O   0  0  0  0  0  0  0  0  0  0  0  0
    1.7025   -9.3258   91.2518 C   0  0  0  0  0  0  0  0  0  0  0  0
    2.5656   -9.6859   92.4174 C   0  0  0  0  0  0  0  0  0  0  0  0
    2.7010  -11.1766   92.6788 C   0  0  0  0  0  0  0  0  0  0  0  0
    1.7004  -12.2161   93.1054 C   0  0  0  0  0  0  0  0  0  0  0  0
    0.2065  -12.1533   93.3277 C   0  0  0  0  0  0  0  0  0  0  0  0
    2.3137  -13.3904   93.2202 N   0  0  0  0  0  0  0  0  0  0  0  0
    3.6997  -13.1868   92.9290 N   0  0  0  0  0  0  0  0  0  0  0  0
    4.5402  -14.3852   93.0863 C   0  0  0  0  0  0  0  0  0  0  0  0
    3.9918  -11.9273   92.6047 C   0  0  0  0  0  0  0  0  0  0  0  0
    5.3672  -11.4419   92.1822 C   0  0  0  0  0  0  0  0  0  0  0  0
    0.4712   -8.0586   85.4529 H   0  0  0  0  0  0  0  0  0  0  0  0
    4.5727   -8.4408   89.7170 H   0  0  0  0  0  0  0  0  0  0  0  0
    2.8564   -8.8715   85.5733 H   0  0  0  0  0  0  0  0  0  0  0  0
    4.2786  -10.5632   85.9552 H   0  0  0  0  0  0  0  0  0  0  0  0
    9.3410  -10.0192   90.2153 H   0  0  0  0  0  0  0  0  0  0  0  0
    6.5665  -11.4383   86.1885 H   0  0  0  0  0  0  0  0  0  0  0  0
    0.1142   -8.2576   89.7610 H   0  0  0  0  0  0  0  0  0  0  0  0
    7.5462   -7.3627   91.0649 H   0  0  0  0  0  0  0  0  0  0  0  0
    6.1891   -8.4715   91.6567 H   0  0  0  0  0  0  0  0  0  0  0  0
    8.3761   -9.7360   92.3319 H   0  0  0  0  0  0  0  0  0  0  0  0
    9.3545   -7.7618   93.8459 H   0  0  0  0  0  0  0  0  0  0  0  0
   10.1018   -8.3189   92.3104 H   0  0  0  0  0  0  0  0  0  0  0  0
    9.0017   -6.8989   92.3104 H   0  0  0  0  0  0  0  0  0  0  0  0
    7.8352   -8.7690   94.6364 H   0  0  0  0  0  0  0  0  0  0  0  0
    6.6216   -7.7846   93.7505 H   0  0  0  0  0  0  0  0  0  0  0  0
    6.4974   -9.5766   93.7505 H   0  0  0  0  0  0  0  0  0  0  0  0
    1.1650   -8.3852   91.4427 H   0  0  0  0  0  0  0  0  0  0  0  0
    0.9347  -10.0874   91.0506 H   0  0  0  0  0  0  0  0  0  0  0  0
    3.5711   -9.2783   92.2365 H   0  0  0  0  0  0  0  0  0  0  0  0
    2.0759   -9.2609   93.3060 H   0  0  0  0  0  0  0  0  0  0  0  0
   -0.0034  -12.1444   94.4074 H   0  0  0  0  0  0  0  0  0  0  0  0
   -0.1943  -11.2375   92.8687 H   0  0  0  0  0  0  0  0  0  0  0  0
   -0.2697  -13.0322   92.8687 H   0  0  0  0  0  0  0  0  0  0  0  0
    4.6859  -14.5930   94.1566 H   0  0  0  0  0  0  0  0  0  0  0  0
    4.0460  -15.2447   92.6099 H   0  0  0  0  0  0  0  0  0  0  0  0
    5.5166  -14.2134   92.6099 H   0  0  0  0  0  0  0  0  0  0  0  0
    5.9714  -11.2287   93.0763 H   0  0  0  0  0  0  0  0  0  0  0  0
    5.8622  -12.2196   91.5821 H   0  0  0  0  0  0  0  0  0  0  0  0
    5.2644  -10.5258   91.5821 H   0  0  0  0  0  0  0  0  0  0  0  0
  1  5  2  0
  1 12  1  0
  2  3  1  0
  2  6  2  0
  3 10  1  0
  3 16  2  0
  4  5  1  0
  4  6  1  0
  4 14  2  0
  6  7  1  0
  7  9  2  0
  8 15  1  0
  8 16  1  0
  9 10  1  0
 10 15  2  0
 11 12  1  0
 12 13  2  0
 13 14  1  0
 14 21  1  0
 16 17  1  0
 17 18  1  0
 18 19  1  0
 18 20  1  0
 21 22  1  0
 22 23  1  0
 23 24  1  0
 24 25  1  0
 24 30  2  0
 25 26  1  0
 25 27  2  0
 27 28  1  0
 28 29  1  0
 28 30  1  0
 30 31  1  0
  1 32  1  0
  2 33  1  0
  5 34  1  0
  7 35  1  0
  8 36  1  0
  9 37  1  0
 13 38  1  0
 17 39  1  0
 17 40  1  0
 18 41  1  6
 19 42  1  0
 19 43  1  0
 19 44  1  0
 20 45  1  0
 20 46  1  0
 20 47  1  0
 22 48  1  0
 22 49  1  0
 23 50  1  0
 23 51  1  0
 26 52  1  0
 26 53  1  0
 26 54  1  0
 29 55  1  0
 29 56  1  0
 29 57  1  0
 31 58  1  0
 31 59  1  0
 31 60  1  0
M  CHG  1  18   1
M  END
>  <filename_input>  (2) 
6TW5_9M2_docked.sdf

>  <pdb_id>  (2) 
6TW5_9M2

>  <pose_rank>  (2) 
1

>  <num_atoms_heavy>  (2) 
31

>  <num_torsions>  (2) 
7

>  <pose>  (2) 
[0.9330991138443466, -8.288694726170679, 86.42435676769448, 2.904967401414791, -5.340821015594893, 0.8747760495394226, 3.3863709318673125, 0.9346110349429435, -3.3384682185810726, 0.22850149058075211, -0.021587517185650888, -0.2787978640317101, 0.07746247315258649]

>  <energy>  (2) 
-1152.033248576691

>  <inter_energy>  (2) 
-1175.4718061795156

>  <intra_energy>  (2) 
27.695298731577996

>  <rmsd>  (2) 
3.48927

>  <sdf_rank>  (2) 
0

$$$$

     RDKit          3D

 60 63  0  0  0  0  0  0  0  0999 V2000
    1.1774   -8.1811   86.3492 C   0  0  0  0  0  0  0  0  0  0  0  0
    4.8685  -10.3137   87.1995 C   0  0  0  0  0  0  0  0  0  0  0  0
    6.2298  -10.6438   87.3289 C   0  0  0  0  0  0  0  0  0  0  0  0
    2.9015   -8.9962   87.8814 C   0  0  0  0  0  0  0  0  0  0  0  0
    2.4993   -8.6202   86.5704 C   0  0  0  0  0  0  0  0  0  0  0  0
    4.2946   -9.3902   88.0941 C   0  0  0  0  0  0  0  0  0  0  0  0
    5.1394   -8.8227   89.0802 C   0  0  0  0  0  0  0  0  0  0  0  0
    8.3116  -11.5011   87.1136 N   0  0  0  0  0  0  0  0  0  0  0  0
    6.4919   -9.1189   89.2031 C   0  0  0  0  0  0  0  0  0  0  0  0
    7.0761  -10.0697   88.3539 C   0  0  0  0  0  0  0  0  0  0  0  0
   -0.9422   -7.6776   87.1561 F   0  0  0  0  0  0  0  0  0  0  0  0
    0.2898   -8.1280   87.4297 C   0  0  0  0  0  0  0  0  0  0  0  0
    0.6394   -8.4857   88.7170 C   0  0  0  0  0  0  0  0  0  0  0  0
    1.9138   -8.9330   88.9712 C   0  0  0  0  0  0  0  0  0  0  0  0
    8.3448  -10.5957   88.1921 N   0  0  0  0  0  0  0  0  0  0  0  0
    7.0811  -11.6027   86.5608 C   0  0  0  0  0  0  0  0  0  0  0  0
    6.6408  -12.5265   85.4002 C   0  0  0  0  0  0  0  0  0  0  0  0
    7.0699  -12.1263   84.0428 N   0  0  1  0  0  0  0  0  0  0  0  0
    6.6417  -10.7418   83.6917 C   0  0  0  0  0  0  0  0  0  0  0  0
    8.5515  -12.1500   83.9558 C   0  0  0  0  0  0  0  0  0  0  0  0
    2.3574   -9.3194   90.1989 O   0  0  0  0  0  0  0  0  0  0  0  0
    1.3028   -9.4752   91.1755 C   0  0  0  0  0  0  0  0  0  0  0  0
    1.3727  -10.9118   91.5809 C   0  0  0  0  0  0  0  0  0  0  0  0
    2.0347  -11.1676   92.9245 C   0  0  0  0  0  0  0  0  0  0  0  0
    3.0660  -12.1726   93.3605 C   0  0  0  0  0  0  0  0  0  0  0  0
    3.8620  -13.2046   92.5948 C   0  0  0  0  0  0  0  0  0  0  0  0
    3.3129  -12.0095   94.6570 N   0  0  0  0  0  0  0  0  0  0  0  0
    2.4626  -10.9616   95.1325 N   0  0  0  0  0  0  0  0  0  0  0  0
    2.5587  -10.7050   96.5790 C   0  0  0  0  0  0  0  0  0  0  0  0
    1.6983  -10.4282   94.1796 C   0  0  0  0  0  0  0  0  0  0  0  0
    0.7545   -9.2565   94.3855 C   0  0  0  0  0  0  0  0  0  0  0  0
    0.8489   -7.8847   85.3421 H   0  0  0  0  0  0  0  0  0  0  0  0
    4.2585  -10.7724   86.4073 H   0  0  0  0  0  0  0  0  0  0  0  0
    3.2135   -8.6713   85.7353 H   0  0  0  0  0  0  0  0  0  0  0  0
    4.6993   -8.1063   89.7895 H   0  0  0  0  0  0  0  0  0  0  0  0
    9.1329  -12.0273   86.7828 H   0  0  0  0  0  0  0  0  0  0  0  0
    7.1017   -8.6093   89.9636 H   0  0  0  0  0  0  0  0  0  0  0  0
   -0.0959   -8.4133   89.5319 H   0  0  0  0  0  0  0  0  0  0  0  0
    7.0474  -13.5293   85.5978 H   0  0  0  0  0  0  0  0  0  0  0  0
    5.5420  -12.4754   85.3864 H   0  0  0  0  0  0  0  0  0  0  0  0
    6.6317  -12.7948   83.3931 H   0  0  0  0  0  0  0  0  0  0  0  0
    6.4643  -10.1680   84.6133 H   0  0  0  0  0  0  0  0  0  0  0  0
    7.4306  -10.2526   83.1014 H   0  0  0  0  0  0  0  0  0  0  0  0
    5.7145  -10.7833   83.1014 H   0  0  0  0  0  0  0  0  0  0  0  0
    8.9783  -12.1569   84.9696 H   0  0  0  0  0  0  0  0  0  0  0  0
    8.8728  -13.0534   83.4167 H   0  0  0  0  0  0  0  0  0  0  0  0
    8.9015  -11.2574   83.4167 H   0  0  0  0  0  0  0  0  0  0  0  0
    1.4753   -8.8187   92.0411 H   0  0  0  0  0  0  0  0  0  0  0  0
    0.3166   -9.2037   90.7708 H   0  0  0  0  0  0  0  0  0  0  0  0
    0.3460  -11.3041   91.6260 H   0  0  0  0  0  0  0  0  0  0  0  0
    1.9989  -11.4139   90.8287 H   0  0  0  0  0  0  0  0  0  0  0  0
    4.3759  -13.8709   93.3033 H   0  0  0  0  0  0  0  0  0  0  0  0
    3.1835  -13.7955   91.9620 H   0  0  0  0  0  0  0  0  0  0  0  0
    4.6059  -12.6985   91.9620 H   0  0  0  0  0  0  0  0  0  0  0  0
    2.2252  -11.5953   97.1322 H   0  0  0  0  0  0  0  0  0  0  0  0
    3.6024  -10.4790   96.8427 H   0  0  0  0  0  0  0  0  0  0  0  0
    1.9203   -9.8489   96.8427 H   0  0  0  0  0  0  0  0  0  0  0  0
    0.6148   -9.0831   95.4628 H   0  0  0  0  0  0  0  0  0  0  0  0
    1.1819   -8.3554   93.9215 H   0  0  0  0  0  0  0  0  0  0  0  0
   -0.2170   -9.4822   93.9215 H   0  0  0  0  0  0  0  0  0  0  0  0
  1  5  2  0
  1 12  1  0
  2  3  1  0
  2  6  2  0
  3 10  1  0
  3 16  2  0
  4  5  1  0
  4  6  1  0
  4 14  2  0
  6  7  1  0
  7  9  2  0
  8 15  1  0
  8 16  1  0
  9 10  1  0
 10 15  2  0
 11 12  1  0
 12 13  2  0
 13 14  1  0
 14 21  1  0
 16 17  1  0
 17 18  1  0
 18 19  1  0
 18 20  1  0
 21 22  1  0
 22 23  1  0
 23 24  1  0
 24 25  1  0
 24 30  2  0
 25 26  1  0
 25 27  2  0
 27 28  1  0
 28 29  1  0
 28 30  1  0
 30 31  1  0
  1 32  1  0
  2 33  1  0
  5 34  1  0
  7 35  1  0
  8 36  1  0
  9 37  1  0
 13 38  1  0
 17 39  1  0
 17 40  1  0
 18 41  1  6
 19 42  1  0
 19 43  1  0
 19 44  1  0
 20 45  1  0
 20 46  1  0
 20 47  1  0
 22 48  1  0
 22 49  1  0
 23 50  1  0
 23 51  1  0
 26 52  1  0
 26 53  1  0
 26 54  1  0
 29 55  1  0
 29 56  1  0
 29 57  1  0
 31 58  1  0
 31 59  1  0
 31 60  1  0
M  CHG  1  18   1
M  END
>  <filename_input>  (3) 
6TW5_9M2_docked.sdf

>  <pdb_id>  (3) 
6TW5_9M2

>  <pose_rank>  (3) 
2

>  <num_atoms_heavy>  (3) 
31

>  <num_torsions>  (3) 
7

>  <pose>  (3) 
[1.1773658479784463, -8.18109622197257, 86.34922587880361, -2.6706194908975514, 5.656191672504751, 0.3403363750555856, -0.023566414750105284, -43.81444720101762, -12.459573727170046, 6.437877425164345, 11.504930832015438, 9.447751624557545, -13.685668224871117]

>  <energy>  (3) 
-927.9942498469378

>  <inter_energy>  (3) 
-944.1136363345404

>  <intra_energy>  (3) 
25.174577132204146

>  <rmsd>  (3) 
1.86871

>  <sdf_rank>  (3) 
0

$$$$

     RDKit          3D

 60 63  0  0  0  0  0  0  0  0999 V2000
   -0.2416   -8.4248   88.5861 C   0  0  0  0  0  0  0  0  0  0  0  0
    2.6959  -10.5040   90.8466 C   0  0  0  0  0  0  0  0  0  0  0  0
    3.6522  -11.1281   91.6681 C   0  0  0  0  0  0  0  0  0  0  0  0
    2.1079   -8.9242   89.0498 C   0  0  0  0  0  0  0  0  0  0  0  0
    0.7477   -8.9145   89.4640 C   0  0  0  0  0  0  0  0  0  0  0  0
    3.1058   -9.4930   89.9564 C   0  0  0  0  0  0  0  0  0  0  0  0
    4.4848   -9.1680   89.9253 C   0  0  0  0  0  0  0  0  0  0  0  0
    4.7563  -12.4075   93.1713 N   0  0  0  0  0  0  0  0  0  0  0  0
    5.4447   -9.7946   90.7114 C   0  0  0  0  0  0  0  0  0  0  0  0
    5.0553  -10.7719   91.6387 C   0  0  0  0  0  0  0  0  0  0  0  0
   -0.8495   -7.5300   86.5301 F   0  0  0  0  0  0  0  0  0  0  0  0
    0.1417   -7.9569   87.3243 C   0  0  0  0  0  0  0  0  0  0  0  0
    1.4508   -7.9472   86.8843 C   0  0  0  0  0  0  0  0  0  0  0  0
    2.4462   -8.4021   87.7155 C   0  0  0  0  0  0  0  0  0  0  0  0
    5.7107  -11.5768   92.5523 N   0  0  0  0  0  0  0  0  0  0  0  0
    3.5024  -12.1846   92.7148 C   0  0  0  0  0  0  0  0  0  0  0  0
    2.1919  -12.8583   93.1872 C   0  0  0  0  0  0  0  0  0  0  0  0
    0.9427  -12.1029   92.9512 N   0  0  1  0  0  0  0  0  0  0  0  0
   -0.2468  -12.9917   92.8142 C   0  0  0  0  0  0  0  0  0  0  0  0
    0.6735  -11.2035   94.1010 C   0  0  0  0  0  0  0  0  0  0  0  0
    3.7666   -8.4262   87.3848 O   0  0  0  0  0  0  0  0  0  0  0  0
    4.0461   -9.1425   86.1606 C   0  0  0  0  0  0  0  0  0  0  0  0
    4.5223  -10.4861   86.6094 C   0  0  0  0  0  0  0  0  0  0  0  0
    5.9589  -10.8140   86.2387 C   0  0  0  0  0  0  0  0  0  0  0  0
    7.1636  -11.1389   87.0795 C   0  0  0  0  0  0  0  0  0  0  0  0
    7.3356  -11.3418   88.5675 C   0  0  0  0  0  0  0  0  0  0  0  0
    8.2111  -11.3336   86.2837 N   0  0  0  0  0  0  0  0  0  0  0  0
    7.7799  -11.1149   84.9370 N   0  0  0  0  0  0  0  0  0  0  0  0
    8.8476  -11.2180   83.9287 C   0  0  0  0  0  0  0  0  0  0  0  0
    6.4852  -10.8134   84.8393 C   0  0  0  0  0  0  0  0  0  0  0  0
    5.7453  -10.5999   83.5305 C   0  0  0  0  0  0  0  0  0  0  0  0
   -1.2990   -8.4111   88.8888 H   0  0  0  0  0  0  0  0  0  0  0  0
    1.6385  -10.8027   90.8991 H   0  0  0  0  0  0  0  0  0  0  0  0
    0.4692   -9.2858   90.4613 H   0  0  0  0  0  0  0  0  0  0  0  0
    4.8146   -8.3739   89.2393 H   0  0  0  0  0  0  0  0  0  0  0  0
    4.9873  -13.1068   93.8913 H   0  0  0  0  0  0  0  0  0  0  0  0
    6.5060   -9.5249   90.6065 H   0  0  0  0  0  0  0  0  0  0  0  0
    1.6947   -7.5785   85.8770 H   0  0  0  0  0  0  0  0  0  0  0  0
    2.1039  -13.8223   92.6647 H   0  0  0  0  0  0  0  0  0  0  0  0
    2.2824  -12.9396   94.2804 H   0  0  0  0  0  0  0  0  0  0  0  0
    1.0826  -11.5813   92.0741 H   0  0  0  0  0  0  0  0  0  0  0  0
   -0.6157  -13.2673   93.8132 H   0  0  0  0  0  0  0  0  0  0  0  0
   -1.0387  -12.4622   92.2641 H   0  0  0  0  0  0  0  0  0  0  0  0
    0.0365  -13.9012   92.2641 H   0  0  0  0  0  0  0  0  0  0  0  0
    0.8374  -11.7509   95.0409 H   0  0  0  0  0  0  0  0  0  0  0  0
    1.3522  -10.3390   94.0570 H   0  0  0  0  0  0  0  0  0  0  0  0
   -0.3686  -10.8541   94.0570 H   0  0  0  0  0  0  0  0  0  0  0  0
    3.1361   -9.2373   85.5499 H   0  0  0  0  0  0  0  0  0  0  0  0
    4.7881   -8.6249   85.5348 H   0  0  0  0  0  0  0  0  0  0  0  0
    4.4335  -10.5313   87.7049 H   0  0  0  0  0  0  0  0  0  0  0  0
    3.8941  -11.2246   86.0899 H   0  0  0  0  0  0  0  0  0  0  0  0
    6.7173  -10.6123   89.1110 H   0  0  0  0  0  0  0  0  0  0  0  0
    7.0222  -12.3612   88.8372 H   0  0  0  0  0  0  0  0  0  0  0  0
    8.3926  -11.1998   88.8372 H   0  0  0  0  0  0  0  0  0  0  0  0
    9.8205  -11.3119   84.4332 H   0  0  0  0  0  0  0  0  0  0  0  0
    8.6736  -12.1035   83.2997 H   0  0  0  0  0  0  0  0  0  0  0  0
    8.8463  -10.3155   83.2997 H   0  0  0  0  0  0  0  0  0  0  0  0
    4.7079  -10.3006   83.7404 H   0  0  0  0  0  0  0  0  0  0  0  0
    6.2451   -9.8093   82.9516 H   0  0  0  0  0  0  0  0  0  0  0  0
    5.7471  -11.5352   82.9516 H   0  0  0  0  0  0  0  0  0  0  0  0
  1  5  2  0
  1 12  1  0
  2  3  1  0
  2  6  2  0
  3 10  1  0
  3 16  2  0
  4  5  1  0
  4  6  1  0
  4 14  2  0
  6  7  1  0
  7  9  2  0
  8 15  1  0
  8 16  1  0
  9 10  1  0
 10 15  2  0
 11 12  1  0
 12 13  2  0
 13 14  1  0
 14 21  1  0
 16 17  1  0
 17 18  1  0
 18 19  1  0
 18 20  1  0
 21 22  1  0
 22 23  1  0
 23 24  1  0
 24 25  1  0
 24 30  2  0
 25 26  1  0
 25 27  2  0
 27 28  1  0
 28 29  1  0
 28 30  1  0
 30 31  1  0
  1 32  1  0
  2 33  1  0
  5 34  1  0
  7 35  1  0
  8 36  1  0
  9 37  1  0
 13 38  1  0
 17 39  1  0
 17 40  1  0
 18 41  1  6
 19 42  1  0
 19 43  1  0
 19 44  1  0
 20 45  1  0
 20 46  1  0
 20 47  1  0
 22 48  1  0
 22 49  1  0
 23 50  1  0
 23 51  1  0
 26 52  1  0
 26 53  1  0
 26 54  1  0
 29 55  1  0
 29 56  1  0
 29 57  1  0
 31 58  1  0
 31 59  1  0
 31 60  1  0
M  CHG  1  18   1
M  END
>  <filename_input>  (4) 
6TW5_9M2_docked.sdf

>  <pdb_id>  (4) 
6TW5_9M2

>  <pose_rank>  (4) 
3

>  <num_atoms_heavy>  (4) 
31

>  <num_torsions>  (4) 
7

>  <pose>  (4) 
[-0.2415890591628777, -8.424843865030313, 88.58605316815749, 2.929616002767053, -1.0419543556461643, 1.3768212652775693, 7.591282500723661, -2.0736541389370604, -2.5363482563205335, -1.0101894323989764, 1.4012856296495562, -0.6567738705066054, 3.3144670412639003]

>  <energy>  (4) 
-868.9009321207375

>  <inter_energy>  (4) 
-910.5069012988439

>  <intra_energy>  (4) 
44.76657130003872

>  <rmsd>  (4) 
6.80847

>  <sdf_rank>  (4) 
0

$$$$

     RDKit          3D

 60 63  0  0  0  0  0  0  0  0999 V2000
    0.7443   -8.0986   85.8845 C   0  0  0  0  0  0  0  0  0  0  0  0
    5.0194   -9.8147   87.5621 C   0  0  0  0  0  0  0  0  0  0  0  0
    6.2667  -10.4262   87.3404 C   0  0  0  0  0  0  0  0  0  0  0  0
    2.8149   -9.0715   86.7511 C   0  0  0  0  0  0  0  0  0  0  0  0
    2.0030   -8.6894   85.6480 C   0  0  0  0  0  0  0  0  0  0  0  0
    4.1410   -9.6267   86.4779 C   0  0  0  0  0  0  0  0  0  0  0  0
    4.5629  -10.0877   85.2061 C   0  0  0  0  0  0  0  0  0  0  0  0
    8.3348  -11.3242   87.5188 N   0  0  0  0  0  0  0  0  0  0  0  0
    5.7806  -10.7177   84.9771 C   0  0  0  0  0  0  0  0  0  0  0  0
    6.6920  -10.8751   86.0312 C   0  0  0  0  0  0  0  0  0  0  0  0
   -0.8706   -7.3146   87.3592 F   0  0  0  0  0  0  0  0  0  0  0  0
    0.3228   -7.9040   87.2045 C   0  0  0  0  0  0  0  0  0  0  0  0
    1.0793   -8.2623   88.3031 C   0  0  0  0  0  0  0  0  0  0  0  0
    2.3051   -8.8544   88.1150 C   0  0  0  0  0  0  0  0  0  0  0  0
    7.9495  -11.4337   86.1684 N   0  0  0  0  0  0  0  0  0  0  0  0
    7.3951  -10.7145   88.2773 C   0  0  0  0  0  0  0  0  0  0  0  0
    7.4762  -10.3680   89.7832 C   0  0  0  0  0  0  0  0  0  0  0  0
    8.5485   -9.4325   90.1854 N   0  0  1  0  0  0  0  0  0  0  0  0
    8.2380   -8.7181   91.4570 C   0  0  0  0  0  0  0  0  0  0  0  0
    9.8101  -10.1808   90.4132 C   0  0  0  0  0  0  0  0  0  0  0  0
    3.1239   -9.2544   89.1265 O   0  0  0  0  0  0  0  0  0  0  0  0
    2.5745   -9.0256   90.4440 C   0  0  0  0  0  0  0  0  0  0  0  0
    3.5247   -9.7086   91.3734 C   0  0  0  0  0  0  0  0  0  0  0  0
    2.9397  -10.8833   92.1394 C   0  0  0  0  0  0  0  0  0  0  0  0
    3.5806  -12.0886   92.7720 C   0  0  0  0  0  0  0  0  0  0  0  0
    5.0266  -12.4943   92.9435 C   0  0  0  0  0  0  0  0  0  0  0  0
    2.6355  -12.8508   93.3143 N   0  0  0  0  0  0  0  0  0  0  0  0
    1.3725  -12.2358   93.0423 N   0  0  0  0  0  0  0  0  0  0  0  0
    0.2060  -13.0000   93.5140 C   0  0  0  0  0  0  0  0  0  0  0  0
    1.4769  -11.0910   92.3676 C   0  0  0  0  0  0  0  0  0  0  0  0
    0.3069  -10.1934   92.0051 C   0  0  0  0  0  0  0  0  0  0  0  0
    0.1034   -7.7953   85.0436 H   0  0  0  0  0  0  0  0  0  0  0  0
    4.7332   -9.4867   88.5724 H   0  0  0  0  0  0  0  0  0  0  0  0
    2.3538   -8.8533   84.6184 H   0  0  0  0  0  0  0  0  0  0  0  0
    3.8878   -9.9384   84.3507 H   0  0  0  0  0  0  0  0  0  0  0  0
    9.2322  -11.6698   87.8877 H   0  0  0  0  0  0  0  0  0  0  0  0
    6.0284  -11.0914   83.9726 H   0  0  0  0  0  0  0  0  0  0  0  0
    0.7037   -8.0753   89.3199 H   0  0  0  0  0  0  0  0  0  0  0  0
    6.5147   -9.9210   90.0761 H   0  0  0  0  0  0  0  0  0  0  0  0
    7.7103  -11.3162   90.2893 H   0  0  0  0  0  0  0  0  0  0  0  0
    8.6353   -8.7477   89.4210 H   0  0  0  0  0  0  0  0  0  0  0  0
    8.5141   -9.3535   92.3114 H   0  0  0  0  0  0  0  0  0  0  0  0
    8.8093   -7.7789   91.4988 H   0  0  0  0  0  0  0  0  0  0  0  0
    7.1618   -8.4947   91.4988 H   0  0  0  0  0  0  0  0  0  0  0  0
    9.9849  -10.2844   91.4942 H   0  0  0  0  0  0  0  0  0  0  0  0
    9.7320  -11.1787   89.9570 H   0  0  0  0  0  0  0  0  0  0  0  0
   10.6483   -9.6337   89.9570 H   0  0  0  0  0  0  0  0  0  0  0  0
    2.5248   -7.9486   90.6621 H   0  0  0  0  0  0  0  0  0  0  0  0
    1.5484   -9.4101   90.5403 H   0  0  0  0  0  0  0  0  0  0  0  0
    4.3758  -10.0767   90.7816 H   0  0  0  0  0  0  0  0  0  0  0  0
    3.8090   -8.9602   92.1277 H   0  0  0  0  0  0  0  0  0  0  0  0
    5.2641  -12.5610   94.0156 H   0  0  0  0  0  0  0  0  0  0  0  0
    5.1914  -13.4734   92.4700 H   0  0  0  0  0  0  0  0  0  0  0  0
    5.6767  -11.7439   92.4700 H   0  0  0  0  0  0  0  0  0  0  0  0
    0.1934  -13.0082   94.6139 H   0  0  0  0  0  0  0  0  0  0  0  0
   -0.7157  -12.5301   93.1403 H   0  0  0  0  0  0  0  0  0  0  0  0
    0.2686  -14.0327   93.1403 H   0  0  0  0  0  0  0  0  0  0  0  0
   -0.1720   -9.8259   92.9247 H   0  0  0  0  0  0  0  0  0  0  0  0
    0.6694   -9.3394   91.4140 H   0  0  0  0  0  0  0  0  0  0  0  0
   -0.4241  -10.7645   91.4140 H   0  0  0  0  0  0  0  0  0  0  0  0
  1  5  2  0
  1 12  1  0
  2  3  1  0
  2  6  2  0
  3 10  1  0
  3 16  2  0
  4  5  1  0
  4  6  1  0
  4 14  2  0
  6  7  1  0
  7  9  2  0
  8 15  1  0
  8 16  1  0
  9 10  1  0
 10 15  2  0
 11 12  1  0
 12 13  2  0
 13 14  1  0
 14 21  1  0
 16 17  1  0
 17 18  1  0
 18 19  1  0
 18 20  1  0
 21 22  1  0
 22 23  1  0
 23 24  1  0
 24 25  1  0
 24 30  2  0
 25 26  1  0
 25 27  2  0
 27 28  1  0
 28 29  1  0
 28 30  1  0
 30 31  1  0
  1 32  1  0
  2 33  1  0
  5 34  1  0
  7 35  1  0
  8 36  1  0
  9 37  1  0
 13 38  1  0
 17 39  1  0
 17 40  1  0
 18 41  1  6
 19 42  1  0
 19 43  1  0
 19 44  1  0
 20 45  1  0
 20 46  1  0
 20 47  1  0
 22 48  1  0
 22 49  1  0
 23 50  1  0
 23 51  1  0
 26 52  1  0
 26 53  1  0
 26 54  1  0
 29 55  1  0
 29 56  1  0
 29 57  1  0
 31 58  1  0
 31 59  1  0
 31 60  1  0
M  CHG  1  18   1
M  END
>  <filename_input>  (5) 
6TW5_9M2_docked.sdf

>  <pdb_id>  (5) 
6TW5_9M2

>  <pose_rank>  (5) 
4

>  <num_atoms_heavy>  (5) 
31

>  <num_torsions>  (5) 
7

>  <pose>  (5) 
[0.7443277339845913, -8.098638804180645, 85.88449860193126, 0.7297674349937558, -5.562216118111047, 1.8512974287568915, 3.787140254334873, -3.725638159543778, -2.482530690262161, -0.02753123300481058, 6.1435413599299125, 5.642866577749699, -2.3365792867992723]

>  <energy>  (5) 
-899.0117297350209

>  <inter_energy>  (5) 
-951.4407199718111

>  <intra_energy>  (5) 
56.57385826599102

>  <rmsd>  (5) 
3.32562

>  <sdf_rank>  (5) 
0

$$$$

     RDKit          3D

 60 63  0  0  0  0  0  0  0  0999 V2000
   -0.5782   -8.1206   88.5859 C   0  0  0  0  0  0  0  0  0  0  0  0
    3.6001   -9.4295   90.6280 C   0  0  0  0  0  0  0  0  0  0  0  0
    4.3080  -10.0570   91.6691 C   0  0  0  0  0  0  0  0  0  0  0  0
    1.5368   -9.1061   89.3210 C   0  0  0  0  0  0  0  0  0  0  0  0
    0.1790   -8.7730   89.5810 C   0  0  0  0  0  0  0  0  0  0  0  0
    2.2815   -9.8360   90.3476 C   0  0  0  0  0  0  0  0  0  0  0  0
    1.7266  -10.8598   91.1551 C   0  0  0  0  0  0  0  0  0  0  0  0
    5.8443  -10.7274   93.1876 N   0  0  0  0  0  0  0  0  0  0  0  0
    2.4043  -11.4700   92.2041 C   0  0  0  0  0  0  0  0  0  0  0  0
    3.7340  -11.1152   92.4736 C   0  0  0  0  0  0  0  0  0  0  0  0
   -0.7535   -7.2182   86.4523 F   0  0  0  0  0  0  0  0  0  0  0  0
    0.0284   -7.8142   87.3628 C   0  0  0  0  0  0  0  0  0  0  0  0
    1.3437   -8.1182   87.0710 C   0  0  0  0  0  0  0  0  0  0  0  0
    2.1195   -8.7405   88.0195 C   0  0  0  0  0  0  0  0  0  0  0  0
    4.6842  -11.4966   93.4031 N   0  0  0  0  0  0  0  0  0  0  0  0
    5.7074   -9.8620   92.1567 C   0  0  0  0  0  0  0  0  0  0  0  0
    6.7731   -8.8949   91.5879 C   0  0  0  0  0  0  0  0  0  0  0  0
    7.6388   -9.4289   90.5145 N   0  0  1  0  0  0  0  0  0  0  0  0
    7.5434   -8.6369   89.2546 C   0  0  0  0  0  0  0  0  0  0  0  0
    9.0593   -9.3807   90.9427 C   0  0  0  0  0  0  0  0  0  0  0  0
    3.4268   -9.0745   87.8384 O   0  0  0  0  0  0  0  0  0  0  0  0
    3.6156  -10.3497   87.1840 C   0  0  0  0  0  0  0  0  0  0  0  0
    5.0508  -10.6893   87.4255 C   0  0  0  0  0  0  0  0  0  0  0  0
    5.8888  -10.8627   86.1699 C   0  0  0  0  0  0  0  0  0  0  0  0
    5.6436  -10.4731   84.7375 C   0  0  0  0  0  0  0  0  0  0  0  0
    4.5285   -9.6963   84.0755 C   0  0  0  0  0  0  0  0  0  0  0  0
    6.6769  -10.8627   83.9966 N   0  0  0  0  0  0  0  0  0  0  0  0
    7.5985  -11.5382   84.8579 N   0  0  0  0  0  0  0  0  0  0  0  0
    8.7731  -12.1034   84.1737 C   0  0  0  0  0  0  0  0  0  0  0  0
    7.2046  -11.5714   86.1308 C   0  0  0  0  0  0  0  0  0  0  0  0
    8.0170  -12.1609   87.2703 C   0  0  0  0  0  0  0  0  0  0  0  0
   -1.6303   -7.8566   88.7686 H   0  0  0  0  0  0  0  0  0  0  0  0
    4.0718   -8.6292   90.0389 H   0  0  0  0  0  0  0  0  0  0  0  0
   -0.2771   -9.0221   90.5505 H   0  0  0  0  0  0  0  0  0  0  0  0
    0.7000  -11.1907   90.9393 H   0  0  0  0  0  0  0  0  0  0  0  0
    6.7015  -10.8141   93.7520 H   0  0  0  0  0  0  0  0  0  0  0  0
    1.8995  -12.2283   92.8206 H   0  0  0  0  0  0  0  0  0  0  0  0
    1.7667   -7.8645   86.0878 H   0  0  0  0  0  0  0  0  0  0  0  0
    6.2474   -8.0155   91.1876 H   0  0  0  0  0  0  0  0  0  0  0  0
    7.4491   -8.6778   92.4281 H   0  0  0  0  0  0  0  0  0  0  0  0
    7.3185  -10.3918   90.3381 H   0  0  0  0  0  0  0  0  0  0  0  0
    7.4152   -7.5722   89.4996 H   0  0  0  0  0  0  0  0  0  0  0  0
    8.4641   -8.7698   88.6674 H   0  0  0  0  0  0  0  0  0  0  0  0
    6.6807   -8.9845   88.6674 H   0  0  0  0  0  0  0  0  0  0  0  0
    9.1112   -9.3789   92.0414 H   0  0  0  0  0  0  0  0  0  0  0  0
    9.5901  -10.2613   90.5519 H   0  0  0  0  0  0  0  0  0  0  0  0
    9.5292   -8.4661   90.5519 H   0  0  0  0  0  0  0  0  0  0  0  0
    2.9568  -11.1129   87.6238 H   0  0  0  0  0  0  0  0  0  0  0  0
    3.3717  -10.3084   86.1122 H   0  0  0  0  0  0  0  0  0  0  0  0
    5.4966   -9.8817   88.0247 H   0  0  0  0  0  0  0  0  0  0  0  0
    5.0549  -11.6640   87.9353 H   0  0  0  0  0  0  0  0  0  0  0  0
    3.8854   -9.2482   84.8472 H   0  0  0  0  0  0  0  0  0  0  0  0
    4.9578   -8.9007   83.4487 H   0  0  0  0  0  0  0  0  0  0  0  0
    3.9310  -10.3746   83.4487 H   0  0  0  0  0  0  0  0  0  0  0  0
    9.5000  -12.4531   84.9215 H   0  0  0  0  0  0  0  0  0  0  0  0
    8.4591  -12.9490   83.5441 H   0  0  0  0  0  0  0  0  0  0  0  0
    9.2379  -11.3303   83.5441 H   0  0  0  0  0  0  0  0  0  0  0  0
    7.5833  -11.8462   88.2310 H   0  0  0  0  0  0  0  0  0  0  0  0
    8.0005  -13.2587   87.2027 H   0  0  0  0  0  0  0  0  0  0  0  0
    9.0556  -11.8049   87.2027 H   0  0  0  0  0  0  0  0  0  0  0  0
  1  5  2  0
  1 12  1  0
  2  3  1  0
  2  6  2  0
  3 10  1  0
  3 16  2  0
  4  5  1  0
  4  6  1  0
  4 14  2  0
  6  7  1  0
  7  9  2  0
  8 15  1  0
  8 16  1  0
  9 10  1  0
 10 15  2  0
 11 12  1  0
 12 13  2  0
 13 14  1  0
 14 21  1  0
 16 17  1  0
 17 18  1  0
 18 19  1  0
 18 20  1  0
 21 22  1  0
 22 23  1  0
 23 24  1  0
 24 25  1  0
 24 30  2  0
 25 26  1  0
 25 27  2  0
 27 28  1  0
 28 29  1  0
 28 30  1  0
 30 31  1  0
  1 32  1  0
  2 33  1  0
  5 34  1  0
  7 35  1  0
  8 36  1  0
  9 37  1  0
 13 38  1  0
 17 39  1  0
 17 40  1  0
 18 41  1  6
 19 42  1  0
 19 43  1  0
 19 44  1  0
 20 45  1  0
 20 46  1  0
 20 47  1  0
 22 48  1  0
 22 49  1  0
 23 50  1  0
 23 51  1  0
 26 52  1  0
 26 53  1  0
 26 54  1  0
 29 55  1  0
 29 56  1  0
 29 57  1  0
 31 58  1  0
 31 59  1  0
 31 60  1  0
M  CHG  1  18   1
M  END
>  <filename_input>  (6) 
6TW5_9M2_docked.sdf

>  <pdb_id>  (6) 
6TW5_9M2

>  <pose_rank>  (6) 
5

>  <num_atoms_heavy>  (6) 
31

>  <num_torsions>  (6) 
7

>  <pose>  (6) 
[-0.578189191078176, -8.120635438620441, 88.58587710216443, -2.37102357847088, 1.1449468176489561, -1.388081047326487, -1.5777730458673855, 3.0409891967695004, -3.090631693432472, -1.534007057439434, 0.2667052493805911, -0.7219846549647944, 1.4935612169748314]

>  <energy>  (6) 
-805.0671794034016

>  <inter_energy>  (6) 
-842.2750446949932

>  <intra_energy>  (6) 
30.980611626081405

>  <rmsd>  (6) 
6.15517

>  <sdf_rank>  (6) 
0

$$$$

     RDKit          3D

 60 63  0  0  0  0  0  0  0  0999 V2000
   -0.6412   -8.4525   88.7072 C   0  0  0  0  0  0  0  0  0  0  0  0
    1.4096   -9.8491   92.1952 C   0  0  0  0  0  0  0  0  0  0  0  0
    1.9363  -10.5957   93.2648 C   0  0  0  0  0  0  0  0  0  0  0  0
    1.4032   -9.2125   89.8152 C   0  0  0  0  0  0  0  0  0  0  0  0
   -0.0132   -9.0862   89.7995 C   0  0  0  0  0  0  0  0  0  0  0  0
    2.0242   -9.9272   90.9309 C   0  0  0  0  0  0  0  0  0  0  0  0
    3.1473  -10.7816   90.8008 C   0  0  0  0  0  0  0  0  0  0  0  0
    2.3787  -11.5591   95.2627 N   0  0  0  0  0  0  0  0  0  0  0  0
    3.6622  -11.5456   91.8415 C   0  0  0  0  0  0  0  0  0  0  0  0
    3.0965  -11.4501   93.1211 C   0  0  0  0  0  0  0  0  0  0  0  0
   -0.5125   -7.3926   86.6439 F   0  0  0  0  0  0  0  0  0  0  0  0
    0.1483   -7.9597   87.6624 C   0  0  0  0  0  0  0  0  0  0  0  0
    1.5255   -8.0601   87.6397 C   0  0  0  0  0  0  0  0  0  0  0  0
    2.1766   -8.6574   88.6923 C   0  0  0  0  0  0  0  0  0  0  0  0
    3.3371  -12.0392   94.3488 N   0  0  0  0  0  0  0  0  0  0  0  0
    1.5220  -10.6770   94.6986 C   0  0  0  0  0  0  0  0  0  0  0  0
    0.3752   -9.9010   95.3894 C   0  0  0  0  0  0  0  0  0  0  0  0
    0.7462   -8.6314   96.0507 N   0  0  1  0  0  0  0  0  0  0  0  0
    0.5059   -8.6606   97.5221 C   0  0  0  0  0  0  0  0  0  0  0  0
    2.1946   -8.3688   95.8598 C   0  0  0  0  0  0  0  0  0  0  0  0
    3.5282   -8.7983   88.7742 O   0  0  0  0  0  0  0  0  0  0  0  0
    4.1407   -9.2521   87.5458 C   0  0  0  0  0  0  0  0  0  0  0  0
    5.4381   -9.8590   87.9723 C   0  0  0  0  0  0  0  0  0  0  0  0
    6.3324  -10.3250   86.8357 C   0  0  0  0  0  0  0  0  0  0  0  0
    6.0607  -10.5544   85.3738 C   0  0  0  0  0  0  0  0  0  0  0  0
    4.8369  -10.3115   84.5204 C   0  0  0  0  0  0  0  0  0  0  0  0
    7.1727  -10.9865   84.7862 N   0  0  0  0  0  0  0  0  0  0  0  0
    8.1809  -11.1001   85.7951 N   0  0  0  0  0  0  0  0  0  0  0  0
    9.4639  -11.6431   85.3191 C   0  0  0  0  0  0  0  0  0  0  0  0
    7.7617  -10.7297   87.0049 C   0  0  0  0  0  0  0  0  0  0  0  0
    8.6375  -10.6823   88.2445 C   0  0  0  0  0  0  0  0  0  0  0  0
   -1.7358   -8.3472   88.6772 H   0  0  0  0  0  0  0  0  0  0  0  0
    0.5264   -9.2107   92.3451 H   0  0  0  0  0  0  0  0  0  0  0  0
   -0.6141   -9.4796   90.6326 H   0  0  0  0  0  0  0  0  0  0  0  0
    3.6401  -10.8437   89.8193 H   0  0  0  0  0  0  0  0  0  0  0  0
    2.3350  -11.8476   96.2505 H   0  0  0  0  0  0  0  0  0  0  0  0
    4.5104  -12.2227   91.6621 H   0  0  0  0  0  0  0  0  0  0  0  0
    2.0965   -7.6652   86.7865 H   0  0  0  0  0  0  0  0  0  0  0  0
   -0.3817   -9.6715   94.6249 H   0  0  0  0  0  0  0  0  0  0  0  0
    0.0218  -10.5590   96.1969 H   0  0  0  0  0  0  0  0  0  0  0  0
    0.1591   -7.9012   95.6228 H   0  0  0  0  0  0  0  0  0  0  0  0
    1.4627   -8.5444   98.0523 H   0  0  0  0  0  0  0  0  0  0  0  0
   -0.1694   -7.8378   97.7998 H   0  0  0  0  0  0  0  0  0  0  0  0
    0.0470   -9.6210   97.7998 H   0  0  0  0  0  0  0  0  0  0  0  0
    2.6837   -8.2802   96.8411 H   0  0  0  0  0  0  0  0  0  0  0  0
    2.6470   -9.1996   95.2984 H   0  0  0  0  0  0  0  0  0  0  0  0
    2.3266   -7.4321   95.2984 H   0  0  0  0  0  0  0  0  0  0  0  0
    3.5063  -10.0012   87.0494 H   0  0  0  0  0  0  0  0  0  0  0  0
    4.2805   -8.4348   86.8230 H   0  0  0  0  0  0  0  0  0  0  0  0
    5.9908   -9.1080   88.5558 H   0  0  0  0  0  0  0  0  0  0  0  0
    5.1816  -10.7587   88.5508 H   0  0  0  0  0  0  0  0  0  0  0  0
    3.9658  -10.1386   85.1695 H   0  0  0  0  0  0  0  0  0  0  0  0
    5.0020   -9.4286   83.8854 H   0  0  0  0  0  0  0  0  0  0  0  0
    4.6523  -11.1906   83.8854 H   0  0  0  0  0  0  0  0  0  0  0  0
   10.0922  -11.9090   86.1819 H   0  0  0  0  0  0  0  0  0  0  0  0
    9.2790  -12.5401   84.7099 H   0  0  0  0  0  0  0  0  0  0  0  0
    9.9791  -10.8859   84.7099 H   0  0  0  0  0  0  0  0  0  0  0  0
    8.0035  -10.7166   89.1429 H   0  0  0  0  0  0  0  0  0  0  0  0
    9.3202  -11.5447   88.2444 H   0  0  0  0  0  0  0  0  0  0  0  0
    9.2230   -9.7511   88.2444 H   0  0  0  0  0  0  0  0  0  0  0  0
  1  5  2  0
  1 12  1  0
  2  3  1  0
  2  6  2  0
  3 10  1  0
  3 16  2  0
  4  5  1  0
  4  6  1  0
  4 14  2  0
  6  7  1  0
  7  9  2  0
  8 15  1  0
  8 16  1  0
  9 10  1  0
 10 15  2  0
 11 12  1  0
 12 13  2  0
 13 14  1  0
 14 21  1  0
 16 17  1  0
 17 18  1  0
 18 19  1  0
 18 20  1  0
 21 22  1  0
 22 23  1  0
 23 24  1  0
 24 25  1  0
 24 30  2  0
 25 26  1  0
 25 27  2  0
 27 28  1  0
 28 29  1  0
 28 30  1  0
 30 31  1  0
  1 32  1  0
  2 33  1  0
  5 34  1  0
  7 35  1  0
  8 36  1  0
  9 37  1  0
 13 38  1  0
 17 39  1  0
 17 40  1  0
 18 41  1  6
 19 42  1  0
 19 43  1  0
 19 44  1  0
 20 45  1  0
 20 46  1  0
 20 47  1  0
 22 48  1  0
 22 49  1  0
 23 50  1  0
 23 51  1  0
 26 52  1  0
 26 53  1  0
 26 54  1  0
 29 55  1  0
 29 56  1  0
 29 57  1  0
 31 58  1  0
 31 59  1  0
 31 60  1  0
M  CHG  1  18   1
M  END
>  <filename_input>  (7) 
6TW5_9M2_docked.sdf

>  <pdb_id>  (7) 
6TW5_9M2

>  <pose_rank>  (7) 
6

>  <num_atoms_heavy>  (7) 
31

>  <num_torsions>  (7) 
7

>  <pose>  (7) 
[-0.6412317355900082, -8.452481794444301, 88.70722247702405, 2.724744140240353, -1.1904707853532583, 1.8716142114228973, -6.040978343312774, -3.310451790206317, -0.9692156696007878, -13.39419223372946, 0.39086170319268565, -14.25637021642234, -11.595374777690333]

>  <energy>  (7) 
-766.9486819182315

>  <inter_energy>  (7) 
-815.6303148101399

>  <intra_energy>  (7) 
34.86311226486386

>  <rmsd>  (7) 
7.77839

>  <sdf_rank>  (7) 
0

$$$$

     RDKit          3D

 60 63  0  0  0  0  0  0  0  0999 V2000
   -0.2226   -8.1729   88.2520 C   0  0  0  0  0  0  0  0  0  0  0  0
    2.5859   -9.7697   90.9927 C   0  0  0  0  0  0  0  0  0  0  0  0
    3.5030  -10.2515   91.9444 C   0  0  0  0  0  0  0  0  0  0  0  0
    2.0966   -8.6926   88.8316 C   0  0  0  0  0  0  0  0  0  0  0  0
    0.7417   -8.5121   89.2237 C   0  0  0  0  0  0  0  0  0  0  0  0
    3.0651   -9.1030   89.8488 C   0  0  0  0  0  0  0  0  0  0  0  0
    4.4689   -8.9680   89.7100 C   0  0  0  0  0  0  0  0  0  0  0  0
    4.5247  -11.1861   93.7326 N   0  0  0  0  0  0  0  0  0  0  0  0
    5.3877   -9.4624   90.6284 C   0  0  0  0  0  0  0  0  0  0  0  0
    4.9343  -10.0892   91.7981 C   0  0  0  0  0  0  0  0  0  0  0  0
   -0.7898   -7.7230   86.0445 F   0  0  0  0  0  0  0  0  0  0  0  0
    0.1797   -8.0198   86.9206 C   0  0  0  0  0  0  0  0  0  0  0  0
    1.4844   -8.1842   86.4987 C   0  0  0  0  0  0  0  0  0  0  0  0
    2.4566   -8.5002   87.4171 C   0  0  0  0  0  0  0  0  0  0  0  0
    5.5367  -10.6814   92.8929 N   0  0  0  0  0  0  0  0  0  0  0  0
    3.2841  -10.9495   93.2479 C   0  0  0  0  0  0  0  0  0  0  0  0
    1.9295  -11.3025   93.9073 C   0  0  0  0  0  0  0  0  0  0  0  0
    1.3976  -12.6547   93.6326 N   0  0  1  0  0  0  0  0  0  0  0  0
    0.5821  -12.7068   92.3852 C   0  0  0  0  0  0  0  0  0  0  0  0
    2.5194  -13.6093   93.4495 C   0  0  0  0  0  0  0  0  0  0  0  0
    3.7713   -8.6739   87.1093 O   0  0  0  0  0  0  0  0  0  0  0  0
    4.0776   -8.4413   85.7157 C   0  0  0  0  0  0  0  0  0  0  0  0
    4.3744   -9.7976   85.1627 C   0  0  0  0  0  0  0  0  0  0  0  0
    5.1660  -10.7077   86.0867 C   0  0  0  0  0  0  0  0  0  0  0  0
    4.7326  -11.7053   87.1264 C   0  0  0  0  0  0  0  0  0  0  0  0
    3.3691  -12.2100   87.5400 C   0  0  0  0  0  0  0  0  0  0  0  0
    5.8102  -12.2433   87.6902 N   0  0  0  0  0  0  0  0  0  0  0  0
    6.9606  -11.6242   87.1067 N   0  0  0  0  0  0  0  0  0  0  0  0
    8.2453  -12.0577   87.6802 C   0  0  0  0  0  0  0  0  0  0  0  0
    6.6587  -10.7271   86.1683 C   0  0  0  0  0  0  0  0  0  0  0  0
    7.6801   -9.9707   85.3372 C   0  0  0  0  0  0  0  0  0  0  0  0
   -1.2756   -8.0308   88.5366 H   0  0  0  0  0  0  0  0  0  0  0  0
    1.5052   -9.9125   91.1406 H   0  0  0  0  0  0  0  0  0  0  0  0
    0.4481   -8.6360   90.2765 H   0  0  0  0  0  0  0  0  0  0  0  0
    4.8537   -8.4415   88.8242 H   0  0  0  0  0  0  0  0  0  0  0  0
    4.7088  -11.6804   94.6173 H   0  0  0  0  0  0  0  0  0  0  0  0
    6.4665   -9.3623   90.4384 H   0  0  0  0  0  0  0  0  0  0  0  0
    1.7433   -8.0631   85.4364 H   0  0  0  0  0  0  0  0  0  0  0  0
    2.0519  -11.2057   94.9962 H   0  0  0  0  0  0  0  0  0  0  0  0
    1.2000  -10.6064   93.4676 H   0  0  0  0  0  0  0  0  0  0  0  0
    0.8055  -12.9007   94.4387 H   0  0  0  0  0  0  0  0  0  0  0  0
   -0.4842  -12.7750   92.6468 H   0  0  0  0  0  0  0  0  0  0  0  0
    0.7571  -11.7956   91.7944 H   0  0  0  0  0  0  0  0  0  0  0  0
    0.8717  -13.5883   91.7944 H   0  0  0  0  0  0  0  0  0  0  0  0
    2.8940  -13.9280   94.4334 H   0  0  0  0  0  0  0  0  0  0  0  0
    2.1658  -14.4876   92.8897 H   0  0  0  0  0  0  0  0  0  0  0  0
    3.3299  -13.1196   92.8897 H   0  0  0  0  0  0  0  0  0  0  0  0
    3.2171   -7.9912   85.1990 H   0  0  0  0  0  0  0  0  0  0  0  0
    4.9185   -7.7445   85.5844 H   0  0  0  0  0  0  0  0  0  0  0  0
    3.4176  -10.2905   84.9355 H   0  0  0  0  0  0  0  0  0  0  0  0
    5.0041   -9.6370   84.2752 H   0  0  0  0  0  0  0  0  0  0  0  0
    3.3045  -12.2339   88.6378 H   0  0  0  0  0  0  0  0  0  0  0  0
    2.5936  -11.5393   87.1415 H   0  0  0  0  0  0  0  0  0  0  0  0
    3.2171  -13.2239   87.1415 H   0  0  0  0  0  0  0  0  0  0  0  0
    8.1825  -12.0365   88.7782 H   0  0  0  0  0  0  0  0  0  0  0  0
    8.4696  -13.0812   87.3454 H   0  0  0  0  0  0  0  0  0  0  0  0
    9.0438  -11.3792   87.3454 H   0  0  0  0  0  0  0  0  0  0  0  0
    8.3828   -9.4503   86.0045 H   0  0  0  0  0  0  0  0  0  0  0  0
    8.2332  -10.6787   84.7025 H   0  0  0  0  0  0  0  0  0  0  0  0
    7.1642   -9.2352   84.7025 H   0  0  0  0  0  0  0  0  0  0  0  0
  1  5  2  0
  1 12  1  0
  2  3  1  0
  2  6  2  0
  3 10  1  0
  3 16  2  0
  4  5  1  0
  4  6  1  0
  4 14  2  0
  6  7  1  0
  7  9  2  0
  8 15  1  0
  8 16  1  0
  9 10  1  0
 10 15  2  0
 11 12  1  0
 12 13  2  0
 13 14  1  0
 14 21  1  0
 16 17  1  0
 17 18  1  0
 18 19  1  0
 18 20  1  0
 21 22  1  0
 22 23  1  0
 23 24  1  0
 24 25  1  0
 24 30  2  0
 25 26  1  0
 25 27  2  0
 27 28  1  0
 28 29  1  0
 28 30  1  0
 30 31  1  0
  1 32  1  0
  2 33  1  0
  5 34  1  0
  7 35  1  0
  8 36  1  0
  9 37  1  0
 13 38  1  0
 17 39  1  0
 17 40  1  0
 18 41  1  1
 19 42  1  0
 19 43  1  0
 19 44  1  0
 20 45  1  0
 20 46  1  0
 20 47  1  0
 22 48  1  0
 22 49  1  0
 23 50  1  0
 23 51  1  0
 26 52  1  0
 26 53  1  0
 26 54  1  0
 29 55  1  0
 29 56  1  0
 29 57  1  0
 31 58  1  0
 31 59  1  0
 31 60  1  0
M  CHG  1  18   1
M  END
>  <filename_input>  (8) 
6TW5_9M2_docked.sdf

>  <pdb_id>  (8) 
6TW5_9M2

>  <pose_rank>  (8) 
7

>  <num_atoms_heavy>  (8) 
31

>  <num_torsions>  (8) 
7

>  <pose>  (8) 
[-0.2226349890819505, -8.172928170208632, 88.25200616862125, -2.647406322970741, 0.8740046311496499, -1.3539362991917203, 1.2183426221758948, -0.04014313572569082, -0.44378955836913664, -0.007399310867940169, 1.2388591399768434, 0.6886208454451584, -3.4779849560660017]

>  <energy>  (8) 
-781.2020282942814

>  <inter_energy>  (8) 
-816.8556901293922

>  <intra_energy>  (8) 
39.6704825343305

>  <rmsd>  (8) 
6.26109

>  <sdf_rank>  (8) 
0

$$$$

     RDKit          3D

 60 63  0  0  0  0  0  0  0  0999 V2000
    7.0621  -10.4346   88.1824 C   0  0  0  0  0  0  0  0  0  0  0  0
    3.1051   -8.9247   87.7497 C   0  0  0  0  0  0  0  0  0  0  0  0
    1.7338   -8.6978   87.5330 C   0  0  0  0  0  0  0  0  0  0  0  0
    4.9576   -9.6894   89.1827 C   0  0  0  0  0  0  0  0  0  0  0  0
    5.7074  -10.0705   88.0360 C   0  0  0  0  0  0  0  0  0  0  0  0
    3.5388   -9.3747   89.0114 C   0  0  0  0  0  0  0  0  0  0  0  0
    2.5507   -9.5941   90.0032 C   0  0  0  0  0  0  0  0  0  0  0  0
   -0.3008   -8.1865   86.6878 N   0  0  0  0  0  0  0  0  0  0  0  0
    1.1901   -9.4001   89.7953 C   0  0  0  0  0  0  0  0  0  0  0  0
    0.7375   -8.9084   88.5625 C   0  0  0  0  0  0  0  0  0  0  0  0
    8.9202  -10.7918   89.5303 F   0  0  0  0  0  0  0  0  0  0  0  0
    7.6379  -10.4099   89.4574 C   0  0  0  0  0  0  0  0  0  0  0  0
    6.9460  -10.0444   90.5954 C   0  0  0  0  0  0  0  0  0  0  0  0
    5.6281   -9.6685   90.4931 C   0  0  0  0  0  0  0  0  0  0  0  0
   -0.4971   -8.6053   88.0183 N   0  0  0  0  0  0  0  0  0  0  0  0
    1.0040   -8.1923   86.3305 C   0  0  0  0  0  0  0  0  0  0  0  0
    1.6149   -7.7505   84.9792 C   0  0  0  0  0  0  0  0  0  0  0  0
    1.8543   -8.8193   83.9856 N   0  0  1  0  0  0  0  0  0  0  0  0
    1.7601  -10.1842   84.5787 C   0  0  0  0  0  0  0  0  0  0  0  0
    0.8305   -8.7482   82.9132 C   0  0  0  0  0  0  0  0  0  0  0  0
    4.8596   -9.2816   91.5481 O   0  0  0  0  0  0  0  0  0  0  0  0
    4.8153  -10.2496   92.6209 C   0  0  0  0  0  0  0  0  0  0  0  0
    3.4665  -10.0678   93.2383 C   0  0  0  0  0  0  0  0  0  0  0  0
    2.6505  -11.3414   93.3829 C   0  0  0  0  0  0  0  0  0  0  0  0
    2.9666  -12.7778   93.0658 C   0  0  0  0  0  0  0  0  0  0  0  0
    4.2300  -13.4550   92.5859 C   0  0  0  0  0  0  0  0  0  0  0  0
    1.9085  -13.5306   93.3522 N   0  0  0  0  0  0  0  0  0  0  0  0
    0.8693  -12.6617   93.8132 N   0  0  0  0  0  0  0  0  0  0  0  0
   -0.4072  -13.3352   94.1033 C   0  0  0  0  0  0  0  0  0  0  0  0
    1.2336  -11.3803   93.8584 C   0  0  0  0  0  0  0  0  0  0  0  0
    0.3573  -10.2518   94.3727 C   0  0  0  0  0  0  0  0  0  0  0  0
    7.6572  -10.7336   87.3069 H   0  0  0  0  0  0  0  0  0  0  0  0
    3.8312   -8.7523   86.9416 H   0  0  0  0  0  0  0  0  0  0  0  0
    5.2346  -10.0811   87.0429 H   0  0  0  0  0  0  0  0  0  0  0  0
    2.8795   -9.9378   90.9951 H   0  0  0  0  0  0  0  0  0  0  0  0
   -1.0657   -7.9069   86.0571 H   0  0  0  0  0  0  0  0  0  0  0  0
    0.4710   -9.6314   90.5949 H   0  0  0  0  0  0  0  0  0  0  0  0
    7.4455  -10.0542   91.5754 H   0  0  0  0  0  0  0  0  0  0  0  0
    0.9301   -7.0189   84.5255 H   0  0  0  0  0  0  0  0  0  0  0  0
    2.6100   -7.3513   85.2248 H   0  0  0  0  0  0  0  0  0  0  0  0
    2.8069   -8.6686   83.6241 H   0  0  0  0  0  0  0  0  0  0  0  0
    1.7653  -10.1083   85.6761 H   0  0  0  0  0  0  0  0  0  0  0  0
    0.8267  -10.6637   84.2488 H   0  0  0  0  0  0  0  0  0  0  0  0
    2.6187  -10.7874   84.2488 H   0  0  0  0  0  0  0  0  0  0  0  0
   -0.1699   -8.6787   83.3653 H   0  0  0  0  0  0  0  0  0  0  0  0
    1.0135   -7.8606   82.2898 H   0  0  0  0  0  0  0  0  0  0  0  0
    0.8891   -9.6525   82.2898 H   0  0  0  0  0  0  0  0  0  0  0  0
    4.9276  -11.2706   92.2273 H   0  0  0  0  0  0  0  0  0  0  0  0
    5.6289  -10.1049   93.3468 H   0  0  0  0  0  0  0  0  0  0  0  0
    3.6052   -9.6355   94.2402 H   0  0  0  0  0  0  0  0  0  0  0  0
    2.9012   -9.4158   92.5562 H   0  0  0  0  0  0  0  0  0  0  0  0
    4.8266  -13.7748   93.4530 H   0  0  0  0  0  0  0  0  0  0  0  0
    3.9670  -14.3331   91.9778 H   0  0  0  0  0  0  0  0  0  0  0  0
    4.8157  -12.7499   91.9778 H   0  0  0  0  0  0  0  0  0  0  0  0
   -0.5443  -13.4076   95.1923 H   0  0  0  0  0  0  0  0  0  0  0  0
   -1.2346  -12.7563   93.6672 H   0  0  0  0  0  0  0  0  0  0  0  0
   -0.3964  -14.3450   93.6672 H   0  0  0  0  0  0  0  0  0  0  0  0
    0.3611  -10.2567   95.4726 H   0  0  0  0  0  0  0  0  0  0  0  0
    0.7474   -9.2897   94.0089 H   0  0  0  0  0  0  0  0  0  0  0  0
   -0.6714  -10.3914   94.0089 H   0  0  0  0  0  0  0  0  0  0  0  0
  1  5  2  0
  1 12  1  0
  2  3  1  0
  2  6  2  0
  3 10  1  0
  3 16  2  0
  4  5  1  0
  4  6  1  0
  4 14  2  0
  6  7  1  0
  7  9  2  0
  8 15  1  0
  8 16  1  0
  9 10  1  0
 10 15  2  0
 11 12  1  0
 12 13  2  0
 13 14  1  0
 14 21  1  0
 16 17  1  0
 17 18  1  0
 18 19  1  0
 18 20  1  0
 21 22  1  0
 22 23  1  0
 23 24  1  0
 24 25  1  0
 24 30  2  0
 25 26  1  0
 25 27  2  0
 27 28  1  0
 28 29  1  0
 28 30  1  0
 30 31  1  0
  1 32  1  0
  2 33  1  0
  5 34  1  0
  7 35  1  0
  8 36  1  0
  9 37  1  0
 13 38  1  0
 17 39  1  0
 17 40  1  0
 18 41  1  6
 19 42  1  0
 19 43  1  0
 19 44  1  0
 20 45  1  0
 20 46  1  0
 20 47  1  0
 22 48  1  0
 22 49  1  0
 23 50  1  0
 23 51  1  0
 26 52  1  0
 26 53  1  0
 26 54  1  0
 29 55  1  0
 29 56  1  0
 29 57  1  0
 31 58  1  0
 31 59  1  0
 31 60  1  0
M  CHG  1  18   1
M  END
>  <filename_input>  (9) 
6TW5_9M2_docked.sdf

>  <pdb_id>  (9) 
6TW5_9M2

>  <pose_rank>  (9) 
8

>  <num_atoms_heavy>  (9) 
31

>  <num_torsions>  (9) 
7

>  <pose>  (9) 
[7.062081291856099, -10.434559935974473, 88.18236823020756, -0.39348412455210574, 0.06202906774920325, 3.17068590354795, 6.643569486019599, -0.18150775628695037, 0.8423211757703658, -32.4247397982641, 25.667809757935284, -8.955607782445279, 7.554087123013615]

>  <energy>  (9) 
-745.9563204751762

>  <inter_energy>  (9) 
-785.7963918725483

>  <intra_energy>  (9) 
43.810115004085986

>  <rmsd>  (9) 
5.42431

>  <sdf_rank>  (9) 
0

$$$$

     RDKit          3D

 60 63  0  0  0  0  0  0  0  0999 V2000
   -0.3659   -7.7756   87.8813 C   0  0  0  0  0  0  0  0  0  0  0  0
    2.0201   -9.6632   91.4782 C   0  0  0  0  0  0  0  0  0  0  0  0
    2.0902  -10.3971   92.6763 C   0  0  0  0  0  0  0  0  0  0  0  0
    1.0126   -9.2447   89.2692 C   0  0  0  0  0  0  0  0  0  0  0  0
   -0.2033   -8.5388   89.0562 C   0  0  0  0  0  0  0  0  0  0  0  0
    1.1318  -10.0767   90.4671 C   0  0  0  0  0  0  0  0  0  0  0  0
    0.3323  -11.2180   90.7248 C   0  0  0  0  0  0  0  0  0  0  0  0
    2.5820  -11.2066   94.7301 N   0  0  0  0  0  0  0  0  0  0  0  0
    0.3713  -11.9368   91.9138 C   0  0  0  0  0  0  0  0  0  0  0  0
    1.2803  -11.5729   92.9177 C   0  0  0  0  0  0  0  0  0  0  0  0
    0.4492   -7.0087   85.8455 F   0  0  0  0  0  0  0  0  0  0  0  0
    0.6784   -7.7302   86.9512 C   0  0  0  0  0  0  0  0  0  0  0  0
    1.8749   -8.3989   87.1206 C   0  0  0  0  0  0  0  0  0  0  0  0
    2.0784   -9.1414   88.2590 C   0  0  0  0  0  0  0  0  0  0  0  0
    1.5863  -12.0393   94.1830 N   0  0  0  0  0  0  0  0  0  0  0  0
    2.9520  -10.2177   93.8843 C   0  0  0  0  0  0  0  0  0  0  0  0
    4.0456   -9.1456   94.1059 C   0  0  0  0  0  0  0  0  0  0  0  0
    5.3367   -9.3728   93.4216 N   0  0  1  0  0  0  0  0  0  0  0  0
    5.4815  -10.7700   92.9211 C   0  0  0  0  0  0  0  0  0  0  0  0
    5.4430   -8.4824   92.2387 C   0  0  0  0  0  0  0  0  0  0  0  0
    3.2220   -9.8291   88.5286 O   0  0  0  0  0  0  0  0  0  0  0  0
    4.3848   -8.9845   88.6852 C   0  0  0  0  0  0  0  0  0  0  0  0
    5.0324   -8.9799   87.3384 C   0  0  0  0  0  0  0  0  0  0  0  0
    6.1866   -9.9552   87.1785 C   0  0  0  0  0  0  0  0  0  0  0  0
    7.5342  -10.0336   87.8431 C   0  0  0  0  0  0  0  0  0  0  0  0
    8.1618   -9.2299   88.9589 C   0  0  0  0  0  0  0  0  0  0  0  0
    8.2059  -11.0681   87.3459 N   0  0  0  0  0  0  0  0  0  0  0  0
    7.3881  -11.6742   86.3404 N   0  0  0  0  0  0  0  0  0  0  0  0
    8.0220  -12.7986   85.6325 C   0  0  0  0  0  0  0  0  0  0  0  0
    6.2036  -11.0807   86.1945 C   0  0  0  0  0  0  0  0  0  0  0  0
    5.1113  -11.5545   85.2519 C   0  0  0  0  0  0  0  0  0  0  0  0
   -1.3001   -7.2243   87.6989 H   0  0  0  0  0  0  0  0  0  0  0  0
    2.6529   -8.7753   91.3328 H   0  0  0  0  0  0  0  0  0  0  0  0
   -1.0105   -8.5874   89.8018 H   0  0  0  0  0  0  0  0  0  0  0  0
   -0.3592  -11.5545   89.9383 H   0  0  0  0  0  0  0  0  0  0  0  0
    2.9836  -11.3361   95.6697 H   0  0  0  0  0  0  0  0  0  0  0  0
   -0.3084  -12.7881   92.0668 H   0  0  0  0  0  0  0  0  0  0  0  0
    2.6583   -8.3378   86.3508 H   0  0  0  0  0  0  0  0  0  0  0  0
    3.6460   -8.1825   93.7556 H   0  0  0  0  0  0  0  0  0  0  0  0
    4.2746   -9.1794   95.1812 H   0  0  0  0  0  0  0  0  0  0  0  0
    6.0701   -9.1818   94.1191 H   0  0  0  0  0  0  0  0  0  0  0  0
    5.5530  -11.4598   93.7750 H   0  0  0  0  0  0  0  0  0  0  0  0
    4.6058  -11.0331   92.3096 H   0  0  0  0  0  0  0  0  0  0  0  0
    6.3925  -10.8479   92.3096 H   0  0  0  0  0  0  0  0  0  0  0  0
    5.5673   -7.4419   92.5730 H   0  0  0  0  0  0  0  0  0  0  0  0
    6.3121   -8.7793   91.6332 H   0  0  0  0  0  0  0  0  0  0  0  0
    4.5285   -8.5663   91.6332 H   0  0  0  0  0  0  0  0  0  0  0  0
    4.0885   -7.9661   88.9769 H   0  0  0  0  0  0  0  0  0  0  0  0
    5.0617   -9.3488   89.4720 H   0  0  0  0  0  0  0  0  0  0  0  0
    4.2663   -9.2320   86.5903 H   0  0  0  0  0  0  0  0  0  0  0  0
    5.4583   -7.9745   87.2050 H   0  0  0  0  0  0  0  0  0  0  0  0
    7.8428   -9.6384   89.9292 H   0  0  0  0  0  0  0  0  0  0  0  0
    9.2575   -9.2861   88.8798 H   0  0  0  0  0  0  0  0  0  0  0  0
    7.8418   -8.1805   88.8798 H   0  0  0  0  0  0  0  0  0  0  0  0
    8.4247  -13.5131   86.3655 H   0  0  0  0  0  0  0  0  0  0  0  0
    7.2750  -13.3025   85.0015 H   0  0  0  0  0  0  0  0  0  0  0  0
    8.8398  -12.4204   85.0015 H   0  0  0  0  0  0  0  0  0  0  0  0
    4.2570  -11.9251   85.8373 H   0  0  0  0  0  0  0  0  0  0  0  0
    4.7855  -10.7168   84.6177 H   0  0  0  0  0  0  0  0  0  0  0  0
    5.5003  -12.3647   84.6177 H   0  0  0  0  0  0  0  0  0  0  0  0
  1  5  2  0
  1 12  1  0
  2  3  1  0
  2  6  2  0
  3 10  1  0
  3 16  2  0
  4  5  1  0
  4  6  1  0
  4 14  2  0
  6  7  1  0
  7  9  2  0
  8 15  1  0
  8 16  1  0
  9 10  1  0
 10 15  2  0
 11 12  1  0
 12 13  2  0
 13 14  1  0
 14 21  1  0
 16 17  1  0
 17 18  1  0
 18 19  1  0
 18 20  1  0
 21 22  1  0
 22 23  1  0
 23 24  1  0
 24 25  1  0
 24 30  2  0
 25 26  1  0
 25 27  2  0
 27 28  1  0
 28 29  1  0
 28 30  1  0
 30 31  1  0
  1 32  1  0
  2 33  1  0
  5 34  1  0
  7 35  1  0
  8 36  1  0
  9 37  1  0
 13 38  1  0
 17 39  1  0
 17 40  1  0
 18 41  1  1
 19 42  1  0
 19 43  1  0
 19 44  1  0
 20 45  1  0
 20 46  1  0
 20 47  1  0
 22 48  1  0
 22 49  1  0
 23 50  1  0
 23 51  1  0
 26 52  1  0
 26 53  1  0
 26 54  1  0
 29 55  1  0
 29 56  1  0
 29 57  1  0
 31 58  1  0
 31 59  1  0
 31 60  1  0
M  CHG  1  18   1
M  END
>  <filename_input>  (10) 
6TW5_9M2_docked.sdf

>  <pdb_id>  (10) 
6TW5_9M2

>  <pose_rank>  (10) 
9

>  <num_atoms_heavy>  (10) 
31

>  <num_torsions>  (10) 
7

>  <pose>  (10) 
[-0.3659260941799871, -7.775648285943505, 87.88131737744489, -1.9180177884938157, 1.3998697215503901, -1.8228414501444015, -1.1254185049695606, -3.025271402015895, 0.8176039673485812, 1.0675196429696125, 1.4788054033847458, -0.33129900492684045, 0.09973165400768028]

>  <energy>  (10) 
-737.2513105069039

>  <inter_energy>  (10) 
-760.136233874282

>  <intra_energy>  (10) 
22.073860818085112

>  <rmsd>  (10) 
6.82784

>  <sdf_rank>  (10) 
0

$$$$

     RDKit          3D

 60 63  0  0  0  0  0  0  0  0999 V2000
    9.9543  -10.3446   90.0384 C   0  0  0  0  0  0  0  0  0  0  0  0
    6.9028  -10.2576   87.1350 C   0  0  0  0  0  0  0  0  0  0  0  0
    5.9071  -10.2924   86.1419 C   0  0  0  0  0  0  0  0  0  0  0  0
    7.5748  -10.1550   89.5030 C   0  0  0  0  0  0  0  0  0  0  0  0
    8.9293  -10.2295   89.0765 C   0  0  0  0  0  0  0  0  0  0  0  0
    6.5277  -10.0968   88.4825 C   0  0  0  0  0  0  0  0  0  0  0  0
    5.1436   -9.9947   88.7689 C   0  0  0  0  0  0  0  0  0  0  0  0
    4.7338  -10.4018   84.2114 N   0  0  0  0  0  0  0  0  0  0  0  0
    4.1474  -10.0544   87.8013 C   0  0  0  0  0  0  0  0  0  0  0  0
    4.4974  -10.1677   86.4481 C   0  0  0  0  0  0  0  0  0  0  0  0
   10.6306  -10.5175   92.2543 F   0  0  0  0  0  0  0  0  0  0  0  0
    9.6118  -10.3809   91.3947 C   0  0  0  0  0  0  0  0  0  0  0  0
    8.3101  -10.3095   91.8506 C   0  0  0  0  0  0  0  0  0  0  0  0
    7.2836  -10.1817   90.9459 C   0  0  0  0  0  0  0  0  0  0  0  0
    3.8011  -10.2536   85.2565 N   0  0  0  0  0  0  0  0  0  0  0  0
    6.0116  -10.4111   84.6556 C   0  0  0  0  0  0  0  0  0  0  0  0
    7.3045  -10.5016   83.8102 C   0  0  0  0  0  0  0  0  0  0  0  0
    7.9273  -11.8386   83.7032 N   0  0  1  0  0  0  0  0  0  0  0  0
    8.7662  -11.9833   82.4789 C   0  0  0  0  0  0  0  0  0  0  0  0
    8.8225  -12.0713   84.8642 C   0  0  0  0  0  0  0  0  0  0  0  0
    5.9691  -10.0928   91.2889 O   0  0  0  0  0  0  0  0  0  0  0  0
    5.6690  -10.6487   92.5892 C   0  0  0  0  0  0  0  0  0  0  0  0
    4.2762  -10.1931   92.8825 C   0  0  0  0  0  0  0  0  0  0  0  0
    3.2350  -11.2990   92.9237 C   0  0  0  0  0  0  0  0  0  0  0  0
    3.3304  -12.7545   93.2925 C   0  0  0  0  0  0  0  0  0  0  0  0
    4.4673  -13.5896   93.8357 C   0  0  0  0  0  0  0  0  0  0  0  0
    2.1353  -13.3199   93.1492 N   0  0  0  0  0  0  0  0  0  0  0  0
    1.2377  -12.3194   92.6588 N   0  0  0  0  0  0  0  0  0  0  0  0
   -0.1221  -12.8054   92.3721 C   0  0  0  0  0  0  0  0  0  0  0  0
    1.8094  -11.1247   92.5085 C   0  0  0  0  0  0  0  0  0  0  0  0
    1.0787   -9.8673   92.0716 C   0  0  0  0  0  0  0  0  0  0  0  0
   11.0076  -10.4051   89.7270 H   0  0  0  0  0  0  0  0  0  0  0  0
    7.9638  -10.3552   86.8615 H   0  0  0  0  0  0  0  0  0  0  0  0
    9.1756  -10.1975   88.0050 H   0  0  0  0  0  0  0  0  0  0  0  0
    4.8400   -9.8605   89.8176 H   0  0  0  0  0  0  0  0  0  0  0  0
    4.4721  -10.4930   83.2194 H   0  0  0  0  0  0  0  0  0  0  0  0
    3.0884  -10.0129   88.0960 H   0  0  0  0  0  0  0  0  0  0  0  0
    8.0968  -10.3545   92.9288 H   0  0  0  0  0  0  0  0  0  0  0  0
    7.0631  -10.1624   82.7920 H   0  0  0  0  0  0  0  0  0  0  0  0
    8.0417   -9.8768   84.3355 H   0  0  0  0  0  0  0  0  0  0  0  0
    7.1520  -12.5158   83.6684 H   0  0  0  0  0  0  0  0  0  0  0  0
    9.8116  -12.1637   82.7699 H   0  0  0  0  0  0  0  0  0  0  0  0
    8.4003  -12.8316   81.8818 H   0  0  0  0  0  0  0  0  0  0  0  0
    8.7057  -11.0615   81.8818 H   0  0  0  0  0  0  0  0  0  0  0  0
    8.2586  -11.9247   85.7972 H   0  0  0  0  0  0  0  0  0  0  0  0
    9.2103  -13.1000   84.8278 H   0  0  0  0  0  0  0  0  0  0  0  0
    9.6621  -11.3615   84.8278 H   0  0  0  0  0  0  0  0  0  0  0  0
    5.7206  -11.7472   92.5631 H   0  0  0  0  0  0  0  0  0  0  0  0
    6.3849  -10.3219   93.3577 H   0  0  0  0  0  0  0  0  0  0  0  0
    4.2802   -9.6913   93.8613 H   0  0  0  0  0  0  0  0  0  0  0  0
    3.9883   -9.5300   92.0534 H   0  0  0  0  0  0  0  0  0  0  0  0
    4.4427  -13.5715   94.9353 H   0  0  0  0  0  0  0  0  0  0  0  0
    4.3616  -14.6263   93.4836 H   0  0  0  0  0  0  0  0  0  0  0  0
    5.4250  -13.1786   93.4836 H   0  0  0  0  0  0  0  0  0  0  0  0
   -0.6509  -12.9944   93.3179 H   0  0  0  0  0  0  0  0  0  0  0  0
   -0.6680  -12.0467   91.7921 H   0  0  0  0  0  0  0  0  0  0  0  0
   -0.0634  -13.7382   91.7921 H   0  0  0  0  0  0  0  0  0  0  0  0
    0.7523   -9.3057   92.9593 H   0  0  0  0  0  0  0  0  0  0  0  0
    1.7537   -9.2414   91.4694 H   0  0  0  0  0  0  0  0  0  0  0  0
    0.2006  -10.1439   91.4694 H   0  0  0  0  0  0  0  0  0  0  0  0
  1  5  2  0
  1 12  1  0
  2  3  1  0
  2  6  2  0
  3 10  1  0
  3 16  2  0
  4  5  1  0
  4  6  1  0
  4 14  2  0
  6  7  1  0
  7  9  2  0
  8 15  1  0
  8 16  1  0
  9 10  1  0
 10 15  2  0
 11 12  1  0
 12 13  2  0
 13 14  1  0
 14 21  1  0
 16 17  1  0
 17 18  1  0
 18 19  1  0
 18 20  1  0
 21 22  1  0
 22 23  1  0
 23 24  1  0
 24 25  1  0
 24 30  2  0
 25 26  1  0
 25 27  2  0
 27 28  1  0
 28 29  1  0
 28 30  1  0
 30 31  1  0
  1 32  1  0
  2 33  1  0
  5 34  1  0
  7 35  1  0
  8 36  1  0
  9 37  1  0
 13 38  1  0
 17 39  1  0
 17 40  1  0
 18 41  1  6
 19 42  1  0
 19 43  1  0
 19 44  1  0
 20 45  1  0
 20 46  1  0
 20 47  1  0
 22 48  1  0
 22 49  1  0
 23 50  1  0
 23 51  1  0
 26 52  1  0
 26 53  1  0
 26 54  1  0
 29 55  1  0
 29 56  1  0
 29 57  1  0
 31 58  1  0
 31 59  1  0
 31 60  1  0
M  CHG  1  18   1
M  END
>  <filename_input>  (11) 
6TW5_9M2_docked.sdf

>  <pdb_id>  (11) 
6TW5_9M2

>  <pose_rank>  (11) 
10

>  <num_atoms_heavy>  (11) 
31

>  <num_torsions>  (11) 
7

>  <pose>  (11) 
[9.954290082523592, -10.34463830319941, 90.03844934958812, 1.2906694359824682, 0.05335812972208684, -2.581816841770141, 0.9242278803541645, -0.2434035819220092, -2.488253263981554, -0.44710361324264314, 6.080509725323798, -2.9401456909268635, 1.7389594059867326]

>  <energy>  (11) 
-730.5704660884728

>  <inter_energy>  (11) 
-780.0899922342048

>  <intra_energy>  (11) 
35.09045519881757

>  <rmsd>  (11) 
4.91601

>  <sdf_rank>  (11) 
0

$$$$

     RDKit          3D

 60 63  0  0  0  0  0  0  0  0999 V2000
    8.9080   -9.7727   88.5929 C   0  0  0  0  0  0  0  0  0  0  0  0
    4.1323   -9.3037   87.8807 C   0  0  0  0  0  0  0  0  0  0  0  0
    3.0229   -9.2987   87.0157 C   0  0  0  0  0  0  0  0  0  0  0  0
    6.4747   -9.8902   88.3694 C   0  0  0  0  0  0  0  0  0  0  0  0
    7.7618   -9.7996   87.7716 C   0  0  0  0  0  0  0  0  0  0  0  0
    5.3064   -9.9770   87.4926 C   0  0  0  0  0  0  0  0  0  0  0  0
    5.3102  -10.6076   86.2236 C   0  0  0  0  0  0  0  0  0  0  0  0
    1.0104   -9.0021   86.0271 N   0  0  0  0  0  0  0  0  0  0  0  0
    4.2314  -10.5881   85.3473 C   0  0  0  0  0  0  0  0  0  0  0  0
    3.0353   -9.9639   85.7297 C   0  0  0  0  0  0  0  0  0  0  0  0
    9.8794   -9.8306   90.7025 F   0  0  0  0  0  0  0  0  0  0  0  0
    8.7498   -9.8341   89.9818 C   0  0  0  0  0  0  0  0  0  0  0  0
    7.5188   -9.9207   90.6021 C   0  0  0  0  0  0  0  0  0  0  0  0
    6.3768   -9.9345   89.8377 C   0  0  0  0  0  0  0  0  0  0  0  0
    1.8026   -9.7553   85.1387 N   0  0  0  0  0  0  0  0  0  0  0  0
    1.6587   -8.7098   87.1779 C   0  0  0  0  0  0  0  0  0  0  0  0
    1.1045   -7.9507   88.4072 C   0  0  0  0  0  0  0  0  0  0  0  0
    1.2585   -8.6199   89.7169 N   0  0  1  0  0  0  0  0  0  0  0  0
    1.1048   -7.6781   90.8628 C   0  0  0  0  0  0  0  0  0  0  0  0
    0.2125   -9.6608   89.8765 C   0  0  0  0  0  0  0  0  0  0  0  0
    5.1166  -10.0068   90.3476 O   0  0  0  0  0  0  0  0  0  0  0  0
    5.0436  -10.6842   91.6227 C   0  0  0  0  0  0  0  0  0  0  0  0
    3.6828  -10.3574   92.1467 C   0  0  0  0  0  0  0  0  0  0  0  0
    2.9263  -11.5321   92.7439 C   0  0  0  0  0  0  0  0  0  0  0  0
    3.2977  -12.9792   92.9222 C   0  0  0  0  0  0  0  0  0  0  0  0
    4.5785  -13.7366   92.6563 C   0  0  0  0  0  0  0  0  0  0  0  0
    2.2798  -13.6244   93.4844 N   0  0  0  0  0  0  0  0  0  0  0  0
    1.2142  -12.6858   93.6595 N   0  0  0  0  0  0  0  0  0  0  0  0
   -0.0251  -13.2625   94.2061 C   0  0  0  0  0  0  0  0  0  0  0  0
    1.5232  -11.4542   93.2542 C   0  0  0  0  0  0  0  0  0  0  0  0
    0.6101  -10.2480   93.3855 C   0  0  0  0  0  0  0  0  0  0  0  0
    9.9117   -9.7045   88.1481 H   0  0  0  0  0  0  0  0  0  0  0  0
    4.0830   -8.7867   88.8504 H   0  0  0  0  0  0  0  0  0  0  0  0
    7.8626   -9.7508   86.6773 H   0  0  0  0  0  0  0  0  0  0  0  0
    6.2196  -11.1435   85.9140 H   0  0  0  0  0  0  0  0  0  0  0  0
    0.0450   -8.7068   85.8232 H   0  0  0  0  0  0  0  0  0  0  0  0
    4.3156  -11.0606   84.3575 H   0  0  0  0  0  0  0  0  0  0  0  0
    7.4530   -9.9781   91.6986 H   0  0  0  0  0  0  0  0  0  0  0  0
    1.6219   -6.9816   88.4635 H   0  0  0  0  0  0  0  0  0  0  0  0
    0.0194   -7.8785   88.2416 H   0  0  0  0  0  0  0  0  0  0  0  0
    2.2082   -9.0185   89.7270 H   0  0  0  0  0  0  0  0  0  0  0  0
    1.1954   -8.2331   91.8082 H   0  0  0  0  0  0  0  0  0  0  0  0
    1.8892   -6.9086   90.8128 H   0  0  0  0  0  0  0  0  0  0  0  0
    0.1164   -7.1980   90.8128 H   0  0  0  0  0  0  0  0  0  0  0  0
    0.0331   -9.8393   90.9470 H   0  0  0  0  0  0  0  0  0  0  0  0
   -0.7190   -9.3206   89.4004 H   0  0  0  0  0  0  0  0  0  0  0  0
    0.5481  -10.5939   89.4004 H   0  0  0  0  0  0  0  0  0  0  0  0
    5.1588  -11.7704   91.4923 H   0  0  0  0  0  0  0  0  0  0  0  0
    5.8420  -10.3670   92.3096 H   0  0  0  0  0  0  0  0  0  0  0  0
    3.7927   -9.5899   92.9270 H   0  0  0  0  0  0  0  0  0  0  0  0
    3.0930  -10.0190   91.2820 H   0  0  0  0  0  0  0  0  0  0  0  0
    5.0462  -14.0132   93.6127 H   0  0  0  0  0  0  0  0  0  0  0  0
    4.3535  -14.6470   92.0813 H   0  0  0  0  0  0  0  0  0  0  0  0
    5.2678  -13.1009   92.0813 H   0  0  0  0  0  0  0  0  0  0  0  0
    0.0153  -13.2437   95.3052 H   0  0  0  0  0  0  0  0  0  0  0  0
   -0.8873  -12.6732   93.8607 H   0  0  0  0  0  0  0  0  0  0  0  0
   -0.1294  -14.3017   93.8607 H   0  0  0  0  0  0  0  0  0  0  0  0
    0.4437  -10.0283   94.4505 H   0  0  0  0  0  0  0  0  0  0  0  0
    1.0786   -9.3789   92.9007 H   0  0  0  0  0  0  0  0  0  0  0  0
   -0.3536  -10.4631   92.9007 H   0  0  0  0  0  0  0  0  0  0  0  0
  1  5  2  0
  1 12  1  0
  2  3  1  0
  2  6  2  0
  3 10  1  0
  3 16  2  0
  4  5  1  0
  4  6  1  0
  4 14  2  0
  6  7  1  0
  7  9  2  0
  8 15  1  0
  8 16  1  0
  9 10  1  0
 10 15  2  0
 11 12  1  0
 12 13  2  0
 13 14  1  0
 14 21  1  0
 16 17  1  0
 17 18  1  0
 18 19  1  0
 18 20  1  0
 21 22  1  0
 22 23  1  0
 23 24  1  0
 24 25  1  0
 24 30  2  0
 25 26  1  0
 25 27  2  0
 27 28  1  0
 28 29  1  0
 28 30  1  0
 30 31  1  0
  1 32  1  0
  2 33  1  0
  5 34  1  0
  7 35  1  0
  8 36  1  0
  9 37  1  0
 13 38  1  0
 17 39  1  0
 17 40  1  0
 18 41  1  6
 19 42  1  0
 19 43  1  0
 19 44  1  0
 20 45  1  0
 20 46  1  0
 20 47  1  0
 22 48  1  0
 22 49  1  0
 23 50  1  0
 23 51  1  0
 26 52  1  0
 26 53  1  0
 26 54  1  0
 29 55  1  0
 29 56  1  0
 29 57  1  0
 31 58  1  0
 31 59  1  0
 31 60  1  0
M  CHG  1  18   1
M  END
>  <filename_input>  (12) 
6TW5_9M2_docked.sdf

>  <pdb_id>  (12) 
6TW5_9M2

>  <pose_rank>  (12) 
11

>  <num_atoms_heavy>  (12) 
31

>  <num_torsions>  (12) 
7

>  <pose>  (12) 
[8.908006224027076, -9.77274007591167, 88.59292593822656, -1.366229786123669, -0.18672872107733857, 3.226037984575209, 4.605703218000027, -2.5718497371970575, 3.905072358640222, -25.66891257391067, -0.2363685963829349, 22.591656998007366, -5.047274932634524]

>  <energy>  (12) 
-752.079466366221

>  <inter_energy>  (12) 
-770.994710440393

>  <intra_energy>  (12) 
34.42048339470529

>  <rmsd>  (12) 
5.83679

>  <sdf_rank>  (12) 
0

$$$$

     RDKit          3D

 60 63  0  0  0  0  0  0  0  0999 V2000
    3.0990  -12.0390   93.3199 C   0  0  0  0  0  0  0  0  0  0  0  0
    6.2117  -11.1283   90.0319 C   0  0  0  0  0  0  0  0  0  0  0  0
    7.4466  -10.7874   89.4509 C   0  0  0  0  0  0  0  0  0  0  0  0
    4.4654  -10.7739   91.7334 C   0  0  0  0  0  0  0  0  0  0  0  0
    4.3700  -11.6797   92.8254 C   0  0  0  0  0  0  0  0  0  0  0  0
    5.7932  -10.4651   91.2013 C   0  0  0  0  0  0  0  0  0  0  0  0
    6.6461   -9.4624   91.7260 C   0  0  0  0  0  0  0  0  0  0  0  0
    9.2958  -10.6270   88.1585 N   0  0  0  0  0  0  0  0  0  0  0  0
    7.8559   -9.0964   91.1478 C   0  0  0  0  0  0  0  0  0  0  0  0
    8.3165   -9.7735   90.0095 C   0  0  0  0  0  0  0  0  0  0  0  0
    0.7823  -11.8939   93.2231 F   0  0  0  0  0  0  0  0  0  0  0  0
    1.9583  -11.4913   92.7226 C   0  0  0  0  0  0  0  0  0  0  0  0
    2.0072  -10.6075   91.6624 C   0  0  0  0  0  0  0  0  0  0  0  0
    3.2269  -10.2208   91.1611 C   0  0  0  0  0  0  0  0  0  0  0  0
    9.4302   -9.6826   89.1949 N   0  0  0  0  0  0  0  0  0  0  0  0
    8.1506  -11.3409   88.2541 C   0  0  0  0  0  0  0  0  0  0  0  0
    7.6787  -12.4960   87.3389 C   0  0  0  0  0  0  0  0  0  0  0  0
    7.2789  -12.1240   85.9647 N   0  0  1  0  0  0  0  0  0  0  0  0
    8.1549  -12.7397   84.9268 C   0  0  0  0  0  0  0  0  0  0  0  0
    5.8988  -12.5999   85.6957 C   0  0  0  0  0  0  0  0  0  0  0  0
    3.3869   -9.3491   90.1277 O   0  0  0  0  0  0  0  0  0  0  0  0
    2.6645   -9.7249   88.9332 C   0  0  0  0  0  0  0  0  0  0  0  0
    3.0782   -8.7182   87.9091 C   0  0  0  0  0  0  0  0  0  0  0  0
    2.3581   -8.8269   86.5755 C   0  0  0  0  0  0  0  0  0  0  0  0
    2.7965   -9.3592   85.2383 C   0  0  0  0  0  0  0  0  0  0  0  0
    4.0633  -10.0506   84.7889 C   0  0  0  0  0  0  0  0  0  0  0  0
    1.8033   -9.2168   84.3655 N   0  0  0  0  0  0  0  0  0  0  0  0
    0.7198   -8.5720   85.0419 N   0  0  0  0  0  0  0  0  0  0  0  0
   -0.4409   -8.2698   84.1883 C   0  0  0  0  0  0  0  0  0  0  0  0
    0.9737   -8.3206   86.3261 C   0  0  0  0  0  0  0  0  0  0  0  0
   -0.0197   -7.7092   87.2984 C   0  0  0  0  0  0  0  0  0  0  0  0
    3.0057  -12.7394   94.1629 H   0  0  0  0  0  0  0  0  0  0  0  0
    5.5793  -11.9051   89.5772 H   0  0  0  0  0  0  0  0  0  0  0  0
    5.2803  -12.0969   93.2808 H   0  0  0  0  0  0  0  0  0  0  0  0
    6.3326   -8.9438   92.6440 H   0  0  0  0  0  0  0  0  0  0  0  0
    9.9919  -10.7594   87.4110 H   0  0  0  0  0  0  0  0  0  0  0  0
    8.4500   -8.2784   91.5816 H   0  0  0  0  0  0  0  0  0  0  0  0
    1.0777  -10.2164   91.2230 H   0  0  0  0  0  0  0  0  0  0  0  0
    8.5025  -13.2209   87.2632 H   0  0  0  0  0  0  0  0  0  0  0  0
    6.7673  -12.8903   87.8120 H   0  0  0  0  0  0  0  0  0  0  0  0
    7.3537  -11.0981   85.9104 H   0  0  0  0  0  0  0  0  0  0  0  0
    8.9607  -13.3062   85.4163 H   0  0  0  0  0  0  0  0  0  0  0  0
    7.5585  -13.4184   84.2993 H   0  0  0  0  0  0  0  0  0  0  0  0
    8.5915  -11.9488   84.2993 H   0  0  0  0  0  0  0  0  0  0  0  0
    5.3803  -12.7787   86.6491 H   0  0  0  0  0  0  0  0  0  0  0  0
    5.3540  -11.8377   85.1193 H   0  0  0  0  0  0  0  0  0  0  0  0
    5.9396  -13.5359   85.1193 H   0  0  0  0  0  0  0  0  0  0  0  0
    2.9431  -10.7401   88.6142 H   0  0  0  0  0  0  0  0  0  0  0  0
    1.5759   -9.7361   89.0907 H   0  0  0  0  0  0  0  0  0  0  0  0
    2.8874   -7.7156   88.3194 H   0  0  0  0  0  0  0  0  0  0  0  0
    4.1413   -8.9095   87.7014 H   0  0  0  0  0  0  0  0  0  0  0  0
    4.6412  -10.3660   85.6701 H   0  0  0  0  0  0  0  0  0  0  0  0
    3.8050  -10.9328   84.1848 H   0  0  0  0  0  0  0  0  0  0  0  0
    4.6656   -9.3561   84.1848 H   0  0  0  0  0  0  0  0  0  0  0  0
   -1.3120   -8.0430   84.8206 H   0  0  0  0  0  0  0  0  0  0  0  0
   -0.2127   -7.4011   83.5532 H   0  0  0  0  0  0  0  0  0  0  0  0
   -0.6653   -9.1395   83.5532 H   0  0  0  0  0  0  0  0  0  0  0  0
    0.3059   -7.9096   88.3298 H   0  0  0  0  0  0  0  0  0  0  0  0
   -0.0716   -6.6226   87.1348 H   0  0  0  0  0  0  0  0  0  0  0  0
   -1.0131   -8.1524   87.1348 H   0  0  0  0  0  0  0  0  0  0  0  0
  1  5  2  0
  1 12  1  0
  2  3  1  0
  2  6  2  0
  3 10  1  0
  3 16  2  0
  4  5  1  0
  4  6  1  0
  4 14  2  0
  6  7  1  0
  7  9  2  0
  8 15  1  0
  8 16  1  0
  9 10  1  0
 10 15  2  0
 11 12  1  0
 12 13  2  0
 13 14  1  0
 14 21  1  0
 16 17  1  0
 17 18  1  0
 18 19  1  0
 18 20  1  0
 21 22  1  0
 22 23  1  0
 23 24  1  0
 24 25  1  0
 24 30  2  0
 25 26  1  0
 25 27  2  0
 27 28  1  0
 28 29  1  0
 28 30  1  0
 30 31  1  0
  1 32  1  0
  2 33  1  0
  5 34  1  0
  7 35  1  0
  8 36  1  0
  9 37  1  0
 13 38  1  0
 17 39  1  0
 17 40  1  0
 18 41  1  1
 19 42  1  0
 19 43  1  0
 19 44  1  0
 20 45  1  0
 20 46  1  0
 20 47  1  0
 22 48  1  0
 22 49  1  0
 23 50  1  0
 23 51  1  0
 26 52  1  0
 26 53  1  0
 26 54  1  0
 29 55  1  0
 29 56  1  0
 29 57  1  0
 31 58  1  0
 31 59  1  0
 31 60  1  0
M  CHG  1  18   1
M  END
>  <filename_input>  (13) 
6TW5_9M2_docked.sdf

>  <pdb_id>  (13) 
6TW5_9M2

>  <pose_rank>  (13) 
12

>  <num_atoms_heavy>  (13) 
31

>  <num_torsions>  (13) 
7

>  <pose>  (13) 
[3.098967468431132, -12.038958361513117, 93.31992586926152, 3.5365020706238397, -0.3379897621468269, -0.6649253513378369, 2.5545262326982696, 0.2569013123240512, -3.170329610387946, -0.9986884115177683, 0.08977498981311906, 4.601588309236308, -6.8843433393930775]

>  <energy>  (13) 
-686.3612549850936

>  <inter_energy>  (13) 
-691.9294694156616

>  <intra_energy>  (13) 
10.60526192017537

>  <rmsd>  (13) 
5.68965

>  <sdf_rank>  (13) 
0

$$$$

     RDKit          3D

 60 63  0  0  0  0  0  0  0  0999 V2000
    0.9450   -8.7023   89.3841 C   0  0  0  0  0  0  0  0  0  0  0  0
    5.2361   -8.9105   89.5934 C   0  0  0  0  0  0  0  0  0  0  0  0
    6.5695   -9.3086   89.7996 C   0  0  0  0  0  0  0  0  0  0  0  0
    3.1261   -9.0363   88.3277 C   0  0  0  0  0  0  0  0  0  0  0  0
    2.3215   -8.9870   89.4992 C   0  0  0  0  0  0  0  0  0  0  0  0
    4.5382   -9.3929   88.4697 C   0  0  0  0  0  0  0  0  0  0  0  0
    5.2245  -10.2811   87.6047 C   0  0  0  0  0  0  0  0  0  0  0  0
    8.6731   -9.6249   90.5680 N   0  0  0  0  0  0  0  0  0  0  0  0
    6.5324  -10.7042   87.8103 C   0  0  0  0  0  0  0  0  0  0  0  0
    7.2638  -10.2022   88.8963 C   0  0  0  0  0  0  0  0  0  0  0  0
   -0.9149   -8.2336   88.0732 F   0  0  0  0  0  0  0  0  0  0  0  0
    0.4029   -8.4725   88.1147 C   0  0  0  0  0  0  0  0  0  0  0  0
    1.1492   -8.5091   86.9531 C   0  0  0  0  0  0  0  0  0  0  0  0
    2.4969   -8.7684   87.0241 C   0  0  0  0  0  0  0  0  0  0  0  0
    8.5396  -10.3927   89.3947 N   0  0  0  0  0  0  0  0  0  0  0  0
    7.5494   -8.9320   90.8637 C   0  0  0  0  0  0  0  0  0  0  0  0
    7.3293   -7.9452   92.0351 C   0  0  0  0  0  0  0  0  0  0  0  0
    6.9048   -8.5372   93.3220 N   0  0  1  0  0  0  0  0  0  0  0  0
    5.7596   -9.4799   93.1687 C   0  0  0  0  0  0  0  0  0  0  0  0
    8.0228   -9.3159   93.9111 C   0  0  0  0  0  0  0  0  0  0  0  0
    3.3237   -8.8170   85.9436 O   0  0  0  0  0  0  0  0  0  0  0  0
    2.6674   -8.5013   84.6948 C   0  0  0  0  0  0  0  0  0  0  0  0
    2.6895   -9.7805   83.9225 C   0  0  0  0  0  0  0  0  0  0  0  0
    3.9529  -10.6082   84.0887 C   0  0  0  0  0  0  0  0  0  0  0  0
    4.2272  -11.8813   84.8423 C   0  0  0  0  0  0  0  0  0  0  0  0
    3.3236  -12.8187   85.6102 C   0  0  0  0  0  0  0  0  0  0  0  0
    5.5088  -12.2055   84.6986 N   0  0  0  0  0  0  0  0  0  0  0  0
    6.1295  -11.1842   83.9118 N   0  0  0  0  0  0  0  0  0  0  0  0
    7.5794  -11.3549   83.7219 C   0  0  0  0  0  0  0  0  0  0  0  0
    5.2840  -10.2300   83.5228 C   0  0  0  0  0  0  0  0  0  0  0  0
    5.6537   -9.0639   82.6230 C   0  0  0  0  0  0  0  0  0  0  0  0
    0.3068   -8.6616   90.2791 H   0  0  0  0  0  0  0  0  0  0  0  0
    4.7437   -8.2292   90.3029 H   0  0  0  0  0  0  0  0  0  0  0  0
    2.7692   -9.1694   90.4873 H   0  0  0  0  0  0  0  0  0  0  0  0
    4.6912  -10.6575   86.7193 H   0  0  0  0  0  0  0  0  0  0  0  0
    9.5308   -9.5942   91.1374 H   0  0  0  0  0  0  0  0  0  0  0  0
    6.9921  -11.4303   87.1236 H   0  0  0  0  0  0  0  0  0  0  0  0
    0.6689   -8.3322   85.9795 H   0  0  0  0  0  0  0  0  0  0  0  0
    8.2768   -7.4137   92.2075 H   0  0  0  0  0  0  0  0  0  0  0  0
    6.4958   -7.2997   91.7211 H   0  0  0  0  0  0  0  0  0  0  0  0
    6.6212   -7.7495   93.9221 H   0  0  0  0  0  0  0  0  0  0  0  0
    5.3957   -9.7795   94.1626 H   0  0  0  0  0  0  0  0  0  0  0  0
    4.9484   -8.9844   92.6152 H   0  0  0  0  0  0  0  0  0  0  0  0
    6.0900  -10.3713   92.6152 H   0  0  0  0  0  0  0  0  0  0  0  0
    7.9612   -9.2730   95.0086 H   0  0  0  0  0  0  0  0  0  0  0  0
    7.9546  -10.3628   93.5807 H   0  0  0  0  0  0  0  0  0  0  0  0
    8.9812   -8.8888   93.5807 H   0  0  0  0  0  0  0  0  0  0  0  0
    1.6327   -8.1729   84.8723 H   0  0  0  0  0  0  0  0  0  0  0  0
    3.1661   -7.6812   84.1574 H   0  0  0  0  0  0  0  0  0  0  0  0
    1.8355  -10.3917   84.2496 H   0  0  0  0  0  0  0  0  0  0  0  0
    2.6433   -9.4994   82.8600 H   0  0  0  0  0  0  0  0  0  0  0  0
    3.4701  -12.6667   86.6898 H   0  0  0  0  0  0  0  0  0  0  0  0
    2.2750  -12.6125   85.3499 H   0  0  0  0  0  0  0  0  0  0  0  0
    3.5683  -13.8591   85.3499 H   0  0  0  0  0  0  0  0  0  0  0  0
    8.0734  -11.4131   84.7030 H   0  0  0  0  0  0  0  0  0  0  0  0
    7.7690  -12.2816   83.1604 H   0  0  0  0  0  0  0  0  0  0  0  0
    7.9791  -10.4976   83.1604 H   0  0  0  0  0  0  0  0  0  0  0  0
    5.9286   -8.1966   83.2412 H   0  0  0  0  0  0  0  0  0  0  0  0
    6.5062   -9.3467   81.9880 H   0  0  0  0  0  0  0  0  0  0  0  0
    4.7939   -8.8039   81.9880 H   0  0  0  0  0  0  0  0  0  0  0  0
  1  5  2  0
  1 12  1  0
  2  3  1  0
  2  6  2  0
  3 10  1  0
  3 16  2  0
  4  5  1  0
  4  6  1  0
  4 14  2  0
  6  7  1  0
  7  9  2  0
  8 15  1  0
  8 16  1  0
  9 10  1  0
 10 15  2  0
 11 12  1  0
 12 13  2  0
 13 14  1  0
 14 21  1  0
 16 17  1  0
 17 18  1  0
 18 19  1  0
 18 20  1  0
 21 22  1  0
 22 23  1  0
 23 24  1  0
 24 25  1  0
 24 30  2  0
 25 26  1  0
 25 27  2  0
 27 28  1  0
 28 29  1  0
 28 30  1  0
 30 31  1  0
  1 32  1  0
  2 33  1  0
  5 34  1  0
  7 35  1  0
  8 36  1  0
  9 37  1  0
 13 38  1  0
 17 39  1  0
 17 40  1  0
 18 41  1  1
 19 42  1  0
 19 43  1  0
 19 44  1  0
 20 45  1  0
 20 46  1  0
 20 47  1  0
 22 48  1  0
 22 49  1  0
 23 50  1  0
 23 51  1  0
 26 52  1  0
 26 53  1  0
 26 54  1  0
 29 55  1  0
 29 56  1  0
 29 57  1  0
 31 58  1  0
 31 59  1  0
 31 60  1  0
M  CHG  1  18   1
M  END
>  <filename_input>  (14) 
6TW5_9M2_docked.sdf

>  <pdb_id>  (14) 
6TW5_9M2

>  <pose_rank>  (14) 
13

>  <num_atoms_heavy>  (14) 
31

>  <num_torsions>  (14) 
7

>  <pose>  (14) 
[0.9449714804142025, -8.702340277172034, 89.38406972040961, -3.081719121413534, 0.8182281987469908, -0.3677483505346342, 0.15066566030523262, -0.022125850473609935, 0.22259181065412537, 0.002842492348378734, 1.168030835097777, 0.7231598753306424, -3.208761651301411]

>  <energy>  (14) 
-670.4779176109986

>  <inter_energy>  (14) 
-705.9311508088316

>  <intra_energy>  (14) 
31.88222123233737

>  <rmsd>  (14) 
6.42333

>  <sdf_rank>  (14) 
0

$$$$

     RDKit          3D

 60 63  0  0  0  0  0  0  0  0999 V2000
    7.7520  -11.2454   89.0616 C   0  0  0  0  0  0  0  0  0  0  0  0
    4.0604  -10.8132   91.6527 C   0  0  0  0  0  0  0  0  0  0  0  0
    3.3359  -10.7029   92.8535 C   0  0  0  0  0  0  0  0  0  0  0  0
    5.9019  -10.1000   90.1796 C   0  0  0  0  0  0  0  0  0  0  0  0
    6.9328  -11.0793   90.1976 C   0  0  0  0  0  0  0  0  0  0  0  0
    5.1062   -9.9071   91.3924 C   0  0  0  0  0  0  0  0  0  0  0  0
    5.3861   -8.9296   92.3794 C   0  0  0  0  0  0  0  0  0  0  0  0
    1.8952  -10.9488   94.5795 N   0  0  0  0  0  0  0  0  0  0  0  0
    4.6967   -8.8255   93.5819 C   0  0  0  0  0  0  0  0  0  0  0  0
    3.6212   -9.6864   93.8444 C   0  0  0  0  0  0  0  0  0  0  0  0
    8.3574  -10.6314   86.9043 F   0  0  0  0  0  0  0  0  0  0  0  0
    7.5278  -10.4405   87.9392 C   0  0  0  0  0  0  0  0  0  0  0  0
    6.5371   -9.4801   87.8801 C   0  0  0  0  0  0  0  0  0  0  0  0
    5.7080   -9.2974   88.9608 C   0  0  0  0  0  0  0  0  0  0  0  0
    2.7402   -9.8669   94.8948 N   0  0  0  0  0  0  0  0  0  0  0  0
    2.1720  -11.4862   93.3692 C   0  0  0  0  0  0  0  0  0  0  0  0
    1.4323  -12.6451   92.6590 C   0  0  0  0  0  0  0  0  0  0  0  0
    0.2897  -12.2666   91.8000 N   0  0  1  0  0  0  0  0  0  0  0  0
   -0.8342  -13.2435   91.8786 C   0  0  0  0  0  0  0  0  0  0  0  0
   -0.2534  -10.9550   92.2336 C   0  0  0  0  0  0  0  0  0  0  0  0
    4.6962   -8.3876   89.0027 O   0  0  0  0  0  0  0  0  0  0  0  0
    4.1482   -8.0676   87.7037 C   0  0  0  0  0  0  0  0  0  0  0  0
    3.1347   -9.1355   87.4477 C   0  0  0  0  0  0  0  0  0  0  0  0
    2.3759   -8.9989   86.1383 C   0  0  0  0  0  0  0  0  0  0  0  0
    2.7855   -9.2396   84.7107 C   0  0  0  0  0  0  0  0  0  0  0  0
    4.0550   -9.7870   84.0995 C   0  0  0  0  0  0  0  0  0  0  0  0
    1.7619   -8.9576   83.9100 N   0  0  0  0  0  0  0  0  0  0  0  0
    0.6839   -8.4954   84.7296 N   0  0  0  0  0  0  0  0  0  0  0  0
   -0.5106   -8.0661   83.9840 C   0  0  0  0  0  0  0  0  0  0  0  0
    0.9716   -8.4972   86.0311 C   0  0  0  0  0  0  0  0  0  0  0  0
   -0.0061   -8.1238   87.1314 C   0  0  0  0  0  0  0  0  0  0  0  0
    8.5554  -11.9968   89.0579 H   0  0  0  0  0  0  0  0  0  0  0  0
    3.8124  -11.5994   90.9245 H   0  0  0  0  0  0  0  0  0  0  0  0
    7.0902  -11.7023   91.0904 H   0  0  0  0  0  0  0  0  0  0  0  0
    6.1958   -8.2115   92.1826 H   0  0  0  0  0  0  0  0  0  0  0  0
    1.1494  -11.2927   95.2012 H   0  0  0  0  0  0  0  0  0  0  0  0
    4.9936   -8.0707   94.3250 H   0  0  0  0  0  0  0  0  0  0  0  0
    6.4126   -8.8666   86.9756 H   0  0  0  0  0  0  0  0  0  0  0  0
    2.1638  -13.1733   92.0298 H   0  0  0  0  0  0  0  0  0  0  0  0
    1.0016  -13.2554   93.4665 H   0  0  0  0  0  0  0  0  0  0  0  0
    0.6510  -12.2381   90.8358 H   0  0  0  0  0  0  0  0  0  0  0  0
   -1.0693  -13.4478   92.9336 H   0  0  0  0  0  0  0  0  0  0  0  0
   -1.7204  -12.8237   91.3802 H   0  0  0  0  0  0  0  0  0  0  0  0
   -0.5420  -14.1795   91.3802 H   0  0  0  0  0  0  0  0  0  0  0  0
   -0.2717  -10.9110   93.3325 H   0  0  0  0  0  0  0  0  0  0  0  0
    0.3843  -10.1474   91.8448 H   0  0  0  0  0  0  0  0  0  0  0  0
   -1.2753  -10.8347   91.8448 H   0  0  0  0  0  0  0  0  0  0  0  0
    3.6724   -7.0759   87.7167 H   0  0  0  0  0  0  0  0  0  0  0  0
    4.9218   -8.0311   86.9225 H   0  0  0  0  0  0  0  0  0  0  0  0
    3.6544  -10.1050   87.4415 H   0  0  0  0  0  0  0  0  0  0  0  0
    2.3856   -9.0472   88.2483 H   0  0  0  0  0  0  0  0  0  0  0  0
    4.7481  -10.0858   84.8998 H   0  0  0  0  0  0  0  0  0  0  0  0
    3.8148  -10.6615   83.4770 H   0  0  0  0  0  0  0  0  0  0  0  0
    4.5260   -9.0120   83.4770 H   0  0  0  0  0  0  0  0  0  0  0  0
   -1.3025   -7.7815   84.6925 H   0  0  0  0  0  0  0  0  0  0  0  0
   -0.2572   -7.2028   83.3511 H   0  0  0  0  0  0  0  0  0  0  0  0
   -0.8648   -8.8932   83.3511 H   0  0  0  0  0  0  0  0  0  0  0  0
    0.4599   -8.3018   88.1118 H   0  0  0  0  0  0  0  0  0  0  0  0
   -0.2727   -7.0606   87.0397 H   0  0  0  0  0  0  0  0  0  0  0  0
   -0.9136   -8.7387   87.0397 H   0  0  0  0  0  0  0  0  0  0  0  0
  1  5  2  0
  1 12  1  0
  2  3  1  0
  2  6  2  0
  3 10  1  0
  3 16  2  0
  4  5  1  0
  4  6  1  0
  4 14  2  0
  6  7  1  0
  7  9  2  0
  8 15  1  0
  8 16  1  0
  9 10  1  0
 10 15  2  0
 11 12  1  0
 12 13  2  0
 13 14  1  0
 14 21  1  0
 16 17  1  0
 17 18  1  0
 18 19  1  0
 18 20  1  0
 21 22  1  0
 22 23  1  0
 23 24  1  0
 24 25  1  0
 24 30  2  0
 25 26  1  0
 25 27  2  0
 27 28  1  0
 28 29  1  0
 28 30  1  0
 30 31  1  0
  1 32  1  0
  2 33  1  0
  5 34  1  0
  7 35  1  0
  8 36  1  0
  9 37  1  0
 13 38  1  0
 17 39  1  0
 17 40  1  0
 18 41  1  6
 19 42  1  0
 19 43  1  0
 19 44  1  0
 20 45  1  0
 20 46  1  0
 20 47  1  0
 22 48  1  0
 22 49  1  0
 23 50  1  0
 23 51  1  0
 26 52  1  0
 26 53  1  0
 26 54  1  0
 29 55  1  0
 29 56  1  0
 29 57  1  0
 31 58  1  0
 31 59  1  0
 31 60  1  0
M  CHG  1  18   1
M  END
>  <filename_input>  (15) 
6TW5_9M2_docked.sdf

>  <pdb_id>  (15) 
6TW5_9M2

>  <pose_rank>  (15) 
14

>  <num_atoms_heavy>  (15) 
31

>  <num_torsions>  (15) 
7

>  <pose>  (15) 
[7.751991560635302, -11.245448704096523, 89.06156367767231, -0.8527625713979579, -1.7451126061776194, -0.8334829448001352, 5.692796299724662, 3.036891853001111, -1.4085496588874615, -5.85826547994346, -1.6605719128233718, -1.7966830752766672, 2.510352992341767]

>  <energy>  (15) 
-708.823666304428

>  <inter_energy>  (15) 
-709.172263366406

>  <intra_energy>  (15) 
12.850541024409527

>  <rmsd>  (15) 
7.85686

>  <sdf_rank>  (15) 
0

$$$$

     RDKit          3D

 60 63  0  0  0  0  0  0  0  0999 V2000
    6.1505  -11.4468   84.6460 C   0  0  0  0  0  0  0  0  0  0  0  0
    2.9149   -9.9504   87.9085 C   0  0  0  0  0  0  0  0  0  0  0  0
    1.6848   -9.3785   88.2807 C   0  0  0  0  0  0  0  0  0  0  0  0
    4.7109  -10.3020   86.2590 C   0  0  0  0  0  0  0  0  0  0  0  0
    4.9015  -10.8794   84.9735 C   0  0  0  0  0  0  0  0  0  0  0  0
    3.3876   -9.7745   86.5939 C   0  0  0  0  0  0  0  0  0  0  0  0
    2.5924   -9.0035   85.7101 C   0  0  0  0  0  0  0  0  0  0  0  0
   -0.1819   -8.6937   89.3586 N   0  0  0  0  0  0  0  0  0  0  0  0
    1.3885   -8.4099   86.0715 C   0  0  0  0  0  0  0  0  0  0  0  0
    0.8739   -8.6088   87.3607 C   0  0  0  0  0  0  0  0  0  0  0  0
    8.3283  -12.0043   85.2320 F   0  0  0  0  0  0  0  0  0  0  0  0
    7.1763  -11.4258   85.5975 C   0  0  0  0  0  0  0  0  0  0  0  0
    7.0332  -10.8738   86.8553 C   0  0  0  0  0  0  0  0  0  0  0  0
    5.8364  -10.2976   87.2079 C   0  0  0  0  0  0  0  0  0  0  0  0
   -0.2514   -8.1884   88.0456 N   0  0  0  0  0  0  0  0  0  0  0  0
    0.9314   -9.4324   89.5706 C   0  0  0  0  0  0  0  0  0  0  0  0
    1.3309  -10.1896   90.8596 C   0  0  0  0  0  0  0  0  0  0  0  0
    0.2280  -10.5608   91.7721 N   0  0  1  0  0  0  0  0  0  0  0  0
   -0.1769  -11.9889   91.6299 C   0  0  0  0  0  0  0  0  0  0  0  0
    0.6569  -10.3769   93.1811 C   0  0  0  0  0  0  0  0  0  0  0  0
    5.5937   -9.7178   88.4155 O   0  0  0  0  0  0  0  0  0  0  0  0
    5.4710  -10.6649   89.5008 C   0  0  0  0  0  0  0  0  0  0  0  0
    6.7001  -10.4563   90.3249 C   0  0  0  0  0  0  0  0  0  0  0  0
    6.4570   -9.8502   91.6969 C   0  0  0  0  0  0  0  0  0  0  0  0
    5.3322  -10.0154   92.6825 C   0  0  0  0  0  0  0  0  0  0  0  0
    4.1122  -10.9078   92.6872 C   0  0  0  0  0  0  0  0  0  0  0  0
    5.5676   -9.2508   93.7448 N   0  0  0  0  0  0  0  0  0  0  0  0
    6.7862   -8.5397   93.5066 N   0  0  0  0  0  0  0  0  0  0  0  0
    7.1531   -7.5837   94.5643 C   0  0  0  0  0  0  0  0  0  0  0  0
    7.3549   -8.8424   92.3398 C   0  0  0  0  0  0  0  0  0  0  0  0
    8.6865   -8.2919   91.8604 C   0  0  0  0  0  0  0  0  0  0  0  0
    6.3158  -11.8993   83.6571 H   0  0  0  0  0  0  0  0  0  0  0  0
    3.5016  -10.5293   88.6371 H   0  0  0  0  0  0  0  0  0  0  0  0
    4.0814  -10.8834   84.2404 H   0  0  0  0  0  0  0  0  0  0  0  0
    2.9484   -8.8667   84.6783 H   0  0  0  0  0  0  0  0  0  0  0  0
   -0.8989   -8.5200   90.0774 H   0  0  0  0  0  0  0  0  0  0  0  0
    0.8416   -7.7866   85.3488 H   0  0  0  0  0  0  0  0  0  0  0  0
    7.8700  -10.8952   87.5689 H   0  0  0  0  0  0  0  0  0  0  0  0
    1.8426  -11.1158   90.5588 H   0  0  0  0  0  0  0  0  0  0  0  0
    1.9577   -9.4875   91.4289 H   0  0  0  0  0  0  0  0  0  0  0  0
   -0.5668   -9.9540   91.5254 H   0  0  0  0  0  0  0  0  0  0  0  0
   -0.3034  -12.4352   92.6273 H   0  0  0  0  0  0  0  0  0  0  0  0
   -1.1271  -12.0476   91.0788 H   0  0  0  0  0  0  0  0  0  0  0  0
    0.6011  -12.5375   91.0788 H   0  0  0  0  0  0  0  0  0  0  0  0
   -0.1419  -10.7195   93.8553 H   0  0  0  0  0  0  0  0  0  0  0  0
    1.5693  -10.9628   93.3662 H   0  0  0  0  0  0  0  0  0  0  0  0
    0.8613   -9.3120   93.3662 H   0  0  0  0  0  0  0  0  0  0  0  0
    4.5670  -10.4612   90.0935 H   0  0  0  0  0  0  0  0  0  0  0  0
    5.3807  -11.7008   89.1418 H   0  0  0  0  0  0  0  0  0  0  0  0
    7.1873  -11.4326   90.4645 H   0  0  0  0  0  0  0  0  0  0  0  0
    7.3206   -9.7337   89.7747 H   0  0  0  0  0  0  0  0  0  0  0  0
    3.8188  -11.1223   93.7255 H   0  0  0  0  0  0  0  0  0  0  0  0
    3.2847  -10.4003   92.1698 H   0  0  0  0  0  0  0  0  0  0  0  0
    4.3451  -11.8501   92.1698 H   0  0  0  0  0  0  0  0  0  0  0  0
    6.9775   -8.0412   95.5491 H   0  0  0  0  0  0  0  0  0  0  0  0
    8.2164   -7.3195   94.4671 H   0  0  0  0  0  0  0  0  0  0  0  0
    6.5394   -6.6759   94.4671 H   0  0  0  0  0  0  0  0  0  0  0  0
    9.3106   -8.0339   92.7286 H   0  0  0  0  0  0  0  0  0  0  0  0
    9.1999   -9.0515   91.2526 H   0  0  0  0  0  0  0  0  0  0  0  0
    8.5136   -7.3915   91.2526 H   0  0  0  0  0  0  0  0  0  0  0  0
  1  5  2  0
  1 12  1  0
  2  3  1  0
  2  6  2  0
  3 10  1  0
  3 16  2  0
  4  5  1  0
  4  6  1  0
  4 14  2  0
  6  7  1  0
  7  9  2  0
  8 15  1  0
  8 16  1  0
  9 10  1  0
 10 15  2  0
 11 12  1  0
 12 13  2  0
 13 14  1  0
 14 21  1  0
 16 17  1  0
 17 18  1  0
 18 19  1  0
 18 20  1  0
 21 22  1  0
 22 23  1  0
 23 24  1  0
 24 25  1  0
 24 30  2  0
 25 26  1  0
 25 27  2  0
 27 28  1  0
 28 29  1  0
 28 30  1  0
 30 31  1  0
  1 32  1  0
  2 33  1  0
  5 34  1  0
  7 35  1  0
  8 36  1  0
  9 37  1  0
 13 38  1  0
 17 39  1  0
 17 40  1  0
 18 41  1  6
 19 42  1  0
 19 43  1  0
 19 44  1  0
 20 45  1  0
 20 46  1  0
 20 47  1  0
 22 48  1  0
 22 49  1  0
 23 50  1  0
 23 51  1  0
 26 52  1  0
 26 53  1  0
 26 54  1  0
 29 55  1  0
 29 56  1  0
 29 57  1  0
 31 58  1  0
 31 59  1  0
 31 60  1  0
M  CHG  1  18   1
M  END
>  <filename_input>  (16) 
6TW5_9M2_docked.sdf

>  <pdb_id>  (16) 
6TW5_9M2

>  <pose_rank>  (16) 
15

>  <num_atoms_heavy>  (16) 
31

>  <num_torsions>  (16) 
7

>  <pose>  (16) 
[6.150476940295249, -11.446829322119134, 84.64603631285041, -0.2470481055526843, -0.2344208965455097, -3.194980546809477, 3.2947987962343626, 1.8911489793756184, 2.829475910443252, -1.3059949749672801, -1.2237533001736562, 3.3227156626498444, -4.441804358709417]

>  <energy>  (16) 
-654.3344611525205

>  <inter_energy>  (16) 
-702.0221261057451

>  <intra_energy>  (16) 
50.28168894507406

>  <rmsd>  (16) 
6.60766

>  <sdf_rank>  (16) 
0

$$$$

     RDKit          3D

 60 63  0  0  0  0  0  0  0  0999 V2000
    2.6334   -9.7121   85.4875 C   0  0  0  0  0  0  0  0  0  0  0  0
    2.1826  -10.6585   90.0685 C   0  0  0  0  0  0  0  0  0  0  0  0
    1.5616  -10.6635   91.3308 C   0  0  0  0  0  0  0  0  0  0  0  0
    2.6925   -9.5507   87.9278 C   0  0  0  0  0  0  0  0  0  0  0  0
    1.9506   -9.6746   86.7211 C   0  0  0  0  0  0  0  0  0  0  0  0
    1.9638   -9.5749   89.1966 C   0  0  0  0  0  0  0  0  0  0  0  0
    1.1302   -8.5243   89.6544 C   0  0  0  0  0  0  0  0  0  0  0  0
    0.8165  -11.1519   93.4097 N   0  0  0  0  0  0  0  0  0  0  0  0
    0.5319   -8.5029   90.9089 C   0  0  0  0  0  0  0  0  0  0  0  0
    0.6969   -9.5914   91.7774 C   0  0  0  0  0  0  0  0  0  0  0  0
    4.6174   -9.6921   84.2791 F   0  0  0  0  0  0  0  0  0  0  0  0
    4.0299   -9.6241   85.4814 C   0  0  0  0  0  0  0  0  0  0  0  0
    4.7873   -9.5010   86.6297 C   0  0  0  0  0  0  0  0  0  0  0  0
    4.1589   -9.4458   87.8507 C   0  0  0  0  0  0  0  0  0  0  0  0
    0.2677   -9.9043   93.0542 N   0  0  0  0  0  0  0  0  0  0  0  0
    1.5813  -11.6799   92.4266 C   0  0  0  0  0  0  0  0  0  0  0  0
    2.3028  -13.0488   92.4238 C   0  0  0  0  0  0  0  0  0  0  0  0
    3.5407  -13.1407   93.2276 N   0  0  1  0  0  0  0  0  0  0  0  0
    4.6635  -12.3530   92.6421 C   0  0  0  0  0  0  0  0  0  0  0  0
    3.2999  -12.5953   94.5869 C   0  0  0  0  0  0  0  0  0  0  0  0
    4.8091   -9.3152   89.0396 O   0  0  0  0  0  0  0  0  0  0  0  0
    6.2258   -9.0620   88.9026 C   0  0  0  0  0  0  0  0  0  0  0  0
    6.8831  -10.1844   89.6385 C   0  0  0  0  0  0  0  0  0  0  0  0
    7.7541   -9.7606   90.8092 C   0  0  0  0  0  0  0  0  0  0  0  0
    7.4114   -9.2552   92.1843 C   0  0  0  0  0  0  0  0  0  0  0  0
    6.0917   -9.0859   92.9017 C   0  0  0  0  0  0  0  0  0  0  0  0
    8.5353   -8.9966   92.8464 N   0  0  0  0  0  0  0  0  0  0  0  0
    9.6301   -9.2662   91.9655 N   0  0  0  0  0  0  0  0  0  0  0  0
   10.9560   -8.9559   92.5250 C   0  0  0  0  0  0  0  0  0  0  0  0
    9.2479   -9.7149   90.7699 C   0  0  0  0  0  0  0  0  0  0  0  0
   10.1976  -10.1455   89.6660 C   0  0  0  0  0  0  0  0  0  0  0  0
    2.0762   -9.8092   84.5441 H   0  0  0  0  0  0  0  0  0  0  0  0
    2.8325  -11.4927   89.7658 H   0  0  0  0  0  0  0  0  0  0  0  0
    0.8530   -9.7406   86.7494 H   0  0  0  0  0  0  0  0  0  0  0  0
    0.9460   -7.6767   88.9780 H   0  0  0  0  0  0  0  0  0  0  0  0
    0.6536  -11.6111   94.3171 H   0  0  0  0  0  0  0  0  0  0  0  0
   -0.0688   -7.6352   91.2192 H   0  0  0  0  0  0  0  0  0  0  0  0
    5.8842   -9.4476   86.5675 H   0  0  0  0  0  0  0  0  0  0  0  0
    1.5973  -13.7999   92.8086 H   0  0  0  0  0  0  0  0  0  0  0  0
    2.6176  -13.2113   91.3824 H   0  0  0  0  0  0  0  0  0  0  0  0
    3.7973  -14.1380   93.2487 H   0  0  0  0  0  0  0  0  0  0  0  0
    5.2728  -11.9255   93.4520 H   0  0  0  0  0  0  0  0  0  0  0  0
    5.2887  -13.0115   92.0213 H   0  0  0  0  0  0  0  0  0  0  0  0
    4.2571  -11.5410   92.0213 H   0  0  0  0  0  0  0  0  0  0  0  0
    3.6241  -13.3295   95.3392 H   0  0  0  0  0  0  0  0  0  0  0  0
    3.8702  -11.6634   94.7145 H   0  0  0  0  0  0  0  0  0  0  0  0
    2.2270  -12.3890   94.7145 H   0  0  0  0  0  0  0  0  0  0  0  0
    6.5204   -9.0676   87.8428 H   0  0  0  0  0  0  0  0  0  0  0  0
    6.5137   -8.0777   89.3002 H   0  0  0  0  0  0  0  0  0  0  0  0
    6.0949  -10.8488   90.0223 H   0  0  0  0  0  0  0  0  0  0  0  0
    7.5538  -10.6744   88.9173 H   0  0  0  0  0  0  0  0  0  0  0  0
    6.2598   -9.1074   93.9885 H   0  0  0  0  0  0  0  0  0  0  0  0
    5.6417   -8.1226   92.6193 H   0  0  0  0  0  0  0  0  0  0  0  0
    5.4132   -9.9043   92.6193 H   0  0  0  0  0  0  0  0  0  0  0  0
   10.9023   -8.9685   93.6237 H   0  0  0  0  0  0  0  0  0  0  0  0
   11.6827   -9.7083   92.1848 H   0  0  0  0  0  0  0  0  0  0  0  0
   11.2735   -7.9593   92.1848 H   0  0  0  0  0  0  0  0  0  0  0  0
   11.1135  -10.5608   90.1115 H   0  0  0  0  0  0  0  0  0  0  0  0
    9.7126  -10.9118   89.0434 H   0  0  0  0  0  0  0  0  0  0  0  0
   10.4544   -9.2758   89.0434 H   0  0  0  0  0  0  0  0  0  0  0  0
  1  5  2  0
  1 12  1  0
  2  3  1  0
  2  6  2  0
  3 10  1  0
  3 16  2  0
  4  5  1  0
  4  6  1  0
  4 14  2  0
  6  7  1  0
  7  9  2  0
  8 15  1  0
  8 16  1  0
  9 10  1  0
 10 15  2  0
 11 12  1  0
 12 13  2  0
 13 14  1  0
 14 21  1  0
 16 17  1  0
 17 18  1  0
 18 19  1  0
 18 20  1  0
 21 22  1  0
 22 23  1  0
 23 24  1  0
 24 25  1  0
 24 30  2  0
 25 26  1  0
 25 27  2  0
 27 28  1  0
 28 29  1  0
 28 30  1  0
 30 31  1  0
  1 32  1  0
  2 33  1  0
  5 34  1  0
  7 35  1  0
  8 36  1  0
  9 37  1  0
 13 38  1  0
 17 39  1  0
 17 40  1  0
 18 41  1  1
 19 42  1  0
 19 43  1  0
 19 44  1  0
 20 45  1  0
 20 46  1  0
 20 47  1  0
 22 48  1  0
 22 49  1  0
 23 50  1  0
 23 51  1  0
 26 52  1  0
 26 53  1  0
 26 54  1  0
 29 55  1  0
 29 56  1  0
 29 57  1  0
 31 58  1  0
 31 59  1  0
 31 60  1  0
M  CHG  1  18   1
M  END
>  <filename_input>  (17) 
6TW5_9M2_docked.sdf

>  <pdb_id>  (17) 
6TW5_9M2

>  <pose_rank>  (17) 
16

>  <num_atoms_heavy>  (17) 
31

>  <num_torsions>  (17) 
7

>  <pose>  (17) 
[2.6333828709937284, -9.71214927119313, 85.48754039006833, -1.2770386806980523, 0.29063160556273937, -2.620261449981587, 2.8001385781609454, 0.1508474415877962, -0.13945830737416648, 0.08488397471227051, 1.0173204190351377, -0.7099717866677567, 2.5185185536714307]

>  <energy>  (17) 
-662.2616112072765

>  <inter_energy>  (17) 
-682.4944603788564

>  <intra_energy>  (17) 
19.127353751131164

>  <rmsd>  (17) 
6.6103

>  <sdf_rank>  (17) 
0

$$$$

     RDKit          3D

 60 63  0  0  0  0  0  0  0  0999 V2000
    1.0976   -9.7596   91.7426 C   0  0  0  0  0  0  0  0  0  0  0  0
    3.8450   -9.9728   87.7629 C   0  0  0  0  0  0  0  0  0  0  0  0
    4.0021   -9.7928   86.3766 C   0  0  0  0  0  0  0  0  0  0  0  0
    2.6510   -9.5144   89.8687 C   0  0  0  0  0  0  0  0  0  0  0  0
    1.3189   -9.5560   90.3646 C   0  0  0  0  0  0  0  0  0  0  0  0
    2.8538   -9.2418   88.4453 C   0  0  0  0  0  0  0  0  0  0  0  0
    2.0451   -8.3642   87.6811 C   0  0  0  0  0  0  0  0  0  0  0  0
    4.6559   -9.8670   84.2127 N   0  0  0  0  0  0  0  0  0  0  0  0
    2.1710   -8.1963   86.3071 C   0  0  0  0  0  0  0  0  0  0  0  0
    3.1805   -8.8779   85.6122 C   0  0  0  0  0  0  0  0  0  0  0  0
    1.9198  -10.0819   93.8914 F   0  0  0  0  0  0  0  0  0  0  0  0
    2.1989   -9.9183   92.5910 C   0  0  0  0  0  0  0  0  0  0  0  0
    3.5072   -9.8865   92.1499 C   0  0  0  0  0  0  0  0  0  0  0  0
    3.7648   -9.7052   90.8122 C   0  0  0  0  0  0  0  0  0  0  0  0
    3.5873   -8.9527   84.2927 N   0  0  0  0  0  0  0  0  0  0  0  0
    4.9777  -10.3936   85.4166 C   0  0  0  0  0  0  0  0  0  0  0  0
    6.1212  -11.3852   85.7383 C   0  0  0  0  0  0  0  0  0  0  0  0
    6.8363  -11.9617   84.5794 N   0  0  1  0  0  0  0  0  0  0  0  0
    7.8746  -11.0421   84.0318 C   0  0  0  0  0  0  0  0  0  0  0  0
    7.5390  -13.2036   84.9885 C   0  0  0  0  0  0  0  0  0  0  0  0
    5.0141   -9.6684   90.2726 O   0  0  0  0  0  0  0  0  0  0  0  0
    5.8936   -8.7126   90.9074 C   0  0  0  0  0  0  0  0  0  0  0  0
    7.0089   -8.5194   89.9317 C   0  0  0  0  0  0  0  0  0  0  0  0
    8.2733   -9.3039   90.2395 C   0  0  0  0  0  0  0  0  0  0  0  0
    9.0230  -10.3473   89.4566 C   0  0  0  0  0  0  0  0  0  0  0  0
    8.8300  -10.9018   88.0636 C   0  0  0  0  0  0  0  0  0  0  0  0
   10.0713  -10.7551   90.1660 N   0  0  0  0  0  0  0  0  0  0  0  0
   10.0446  -10.0623   91.4177 N   0  0  0  0  0  0  0  0  0  0  0  0
   11.1050  -10.4588   92.3588 C   0  0  0  0  0  0  0  0  0  0  0  0
    9.0305   -9.2040   91.5247 C   0  0  0  0  0  0  0  0  0  0  0  0
    8.7981   -8.2869   92.7125 C   0  0  0  0  0  0  0  0  0  0  0  0
    0.0742   -9.7930   92.1444 H   0  0  0  0  0  0  0  0  0  0  0  0
    4.4900  -10.6774   88.3083 H   0  0  0  0  0  0  0  0  0  0  0  0
    0.4679   -9.4303   89.6791 H   0  0  0  0  0  0  0  0  0  0  0  0
    1.2731   -7.7821   88.2057 H   0  0  0  0  0  0  0  0  0  0  0  0
    5.1386  -10.1079   83.3353 H   0  0  0  0  0  0  0  0  0  0  0  0
    1.4813   -7.5313   85.7667 H   0  0  0  0  0  0  0  0  0  0  0  0
    4.3361  -10.0053   92.8632 H   0  0  0  0  0  0  0  0  0  0  0  0
    6.8598  -10.8550   86.3575 H   0  0  0  0  0  0  0  0  0  0  0  0
    5.6372  -12.2379   86.2370 H   0  0  0  0  0  0  0  0  0  0  0  0
    6.1220  -12.1387   83.8589 H   0  0  0  0  0  0  0  0  0  0  0  0
    8.4150  -10.5634   84.8617 H   0  0  0  0  0  0  0  0  0  0  0  0
    8.5828  -11.6145   83.4148 H   0  0  0  0  0  0  0  0  0  0  0  0
    7.3917  -10.2699   83.4148 H   0  0  0  0  0  0  0  0  0  0  0  0
    7.5718  -13.2617   86.0865 H   0  0  0  0  0  0  0  0  0  0  0  0
    7.0012  -14.0771   84.5911 H   0  0  0  0  0  0  0  0  0  0  0  0
    8.5646  -13.1925   84.5911 H   0  0  0  0  0  0  0  0  0  0  0  0
    5.3684   -7.7634   91.0897 H   0  0  0  0  0  0  0  0  0  0  0  0
    6.2523   -9.0626   91.8866 H   0  0  0  0  0  0  0  0  0  0  0  0
    6.6502   -8.8261   88.9381 H   0  0  0  0  0  0  0  0  0  0  0  0
    7.2853   -7.4562   89.9868 H   0  0  0  0  0  0  0  0  0  0  0  0
    8.4689  -11.9388   88.1285 H   0  0  0  0  0  0  0  0  0  0  0  0
    8.0921  -10.2897   87.5244 H   0  0  0  0  0  0  0  0  0  0  0  0
    9.7885  -10.8803   87.5244 H   0  0  0  0  0  0  0  0  0  0  0  0
   10.7481  -10.3254   93.3907 H   0  0  0  0  0  0  0  0  0  0  0  0
   11.3651  -11.5149   92.1944 H   0  0  0  0  0  0  0  0  0  0  0  0
   11.9941   -9.8324   92.1944 H   0  0  0  0  0  0  0  0  0  0  0  0
    8.9413   -8.8518   93.6455 H   0  0  0  0  0  0  0  0  0  0  0  0
    9.5129   -7.4516   92.6763 H   0  0  0  0  0  0  0  0  0  0  0  0
    7.7717   -7.8929   92.6763 H   0  0  0  0  0  0  0  0  0  0  0  0
  1  5  2  0
  1 12  1  0
  2  3  1  0
  2  6  2  0
  3 10  1  0
  3 16  2  0
  4  5  1  0
  4  6  1  0
  4 14  2  0
  6  7  1  0
  7  9  2  0
  8 15  1  0
  8 16  1  0
  9 10  1  0
 10 15  2  0
 11 12  1  0
 12 13  2  0
 13 14  1  0
 14 21  1  0
 16 17  1  0
 17 18  1  0
 18 19  1  0
 18 20  1  0
 21 22  1  0
 22 23  1  0
 23 24  1  0
 24 25  1  0
 24 30  2  0
 25 26  1  0
 25 27  2  0
 27 28  1  0
 28 29  1  0
 28 30  1  0
 30 31  1  0
  1 32  1  0
  2 33  1  0
  5 34  1  0
  7 35  1  0
  8 36  1  0
  9 37  1  0
 13 38  1  0
 17 39  1  0
 17 40  1  0
 18 41  1  6
 19 42  1  0
 19 43  1  0
 19 44  1  0
 20 45  1  0
 20 46  1  0
 20 47  1  0
 22 48  1  0
 22 49  1  0
 23 50  1  0
 23 51  1  0
 26 52  1  0
 26 53  1  0
 26 54  1  0
 29 55  1  0
 29 56  1  0
 29 57  1  0
 31 58  1  0
 31 59  1  0
 31 60  1  0
M  CHG  1  18   1
M  END
>  <filename_input>  (18) 
6TW5_9M2_docked.sdf

>  <pdb_id>  (18) 
6TW5_9M2

>  <pose_rank>  (18) 
17

>  <num_atoms_heavy>  (18) 
31

>  <num_torsions>  (18) 
7

>  <pose>  (18) 
[1.097594074621006, -9.759557756623451, 91.74259685068398, 0.2294659040967876, 1.538529258643737, 0.46238653179910605, -7.905755580054274, 1.3312481568750472, 2.4939751442546125, 5.302393612951273, -56.24470317251866, 12.201367136518844, 9.606030950668396]

>  <energy>  (18) 
-684.0887544615372

>  <inter_energy>  (18) 
-696.4371026456665

>  <intra_energy>  (18) 
27.006340006963377

>  <rmsd>  (18) 
5.23832

>  <sdf_rank>  (18) 
0

$$$$

     RDKit          3D

 60 63  0  0  0  0  0  0  0  0999 V2000
    8.1987   -8.7536   93.1545 C   0  0  0  0  0  0  0  0  0  0  0  0
    3.7836   -9.4176   91.3981 C   0  0  0  0  0  0  0  0  0  0  0  0
    2.4148   -9.7240   91.5053 C   0  0  0  0  0  0  0  0  0  0  0  0
    6.0975   -9.5943   92.2255 C   0  0  0  0  0  0  0  0  0  0  0  0
    6.8320   -9.0604   93.3198 C   0  0  0  0  0  0  0  0  0  0  0  0
    4.6676   -9.8471   92.4064 C   0  0  0  0  0  0  0  0  0  0  0  0
    4.1219  -10.5915   93.4817 C   0  0  0  0  0  0  0  0  0  0  0  0
    0.1830   -9.9398   91.2091 N   0  0  0  0  0  0  0  0  0  0  0  0
    2.7766  -10.9248   93.5872 C   0  0  0  0  0  0  0  0  0  0  0  0
    1.8688  -10.4695   92.6201 C   0  0  0  0  0  0  0  0  0  0  0  0
   10.0943   -8.6475   91.8156 F   0  0  0  0  0  0  0  0  0  0  0  0
    8.8011   -8.9848   91.9129 C   0  0  0  0  0  0  0  0  0  0  0  0
    8.1246   -9.5032   90.8262 C   0  0  0  0  0  0  0  0  0  0  0  0
    6.7954   -9.8293   90.9508 C   0  0  0  0  0  0  0  0  0  0  0  0
    0.5087  -10.6021   92.4088 N   0  0  0  0  0  0  0  0  0  0  0  0
    1.2614   -9.3712   90.6226 C   0  0  0  0  0  0  0  0  0  0  0  0
    1.2945   -8.5200   89.3308 C   0  0  0  0  0  0  0  0  0  0  0  0
    0.0321   -8.4388   88.5649 N   0  0  1  0  0  0  0  0  0  0  0  0
   -0.9255   -7.4522   89.1420 C   0  0  0  0  0  0  0  0  0  0  0  0
    0.3136   -7.9982   87.1756 C   0  0  0  0  0  0  0  0  0  0  0  0
    6.0400  -10.3547   89.9474 O   0  0  0  0  0  0  0  0  0  0  0  0
    5.4078   -9.3578   89.1129 C   0  0  0  0  0  0  0  0  0  0  0  0
    6.2565   -9.3002   87.8842 C   0  0  0  0  0  0  0  0  0  0  0  0
    6.1794  -10.5287   86.9933 C   0  0  0  0  0  0  0  0  0  0  0  0
    5.0654  -11.0906   86.1524 C   0  0  0  0  0  0  0  0  0  0  0  0
    3.6797  -10.5782   85.8328 C   0  0  0  0  0  0  0  0  0  0  0  0
    5.4836  -12.2081   85.5652 N   0  0  0  0  0  0  0  0  0  0  0  0
    6.8235  -12.4536   86.0031 N   0  0  0  0  0  0  0  0  0  0  0  0
    7.4118  -13.7055   85.4992 C   0  0  0  0  0  0  0  0  0  0  0  0
    7.2889  -11.5172   86.8297 C   0  0  0  0  0  0  0  0  0  0  0  0
    8.6990  -11.4866   87.3923 C   0  0  0  0  0  0  0  0  0  0  0  0
    8.7824   -8.3385   93.9893 H   0  0  0  0  0  0  0  0  0  0  0  0
    4.1595   -8.8482   90.5353 H   0  0  0  0  0  0  0  0  0  0  0  0
    6.3383   -8.8882   94.2876 H   0  0  0  0  0  0  0  0  0  0  0  0
    4.8024  -10.9249   94.2790 H   0  0  0  0  0  0  0  0  0  0  0  0
   -0.7702   -9.8935   90.8215 H   0  0  0  0  0  0  0  0  0  0  0  0
    2.4253  -11.5434   94.4261 H   0  0  0  0  0  0  0  0  0  0  0  0
    8.6453   -9.6539   89.8690 H   0  0  0  0  0  0  0  0  0  0  0  0
    1.5819   -7.4961   89.6118 H   0  0  0  0  0  0  0  0  0  0  0  0
    2.0085   -9.0267   88.6649 H   0  0  0  0  0  0  0  0  0  0  0  0
   -0.3856   -9.3798   88.5971 H   0  0  0  0  0  0  0  0  0  0  0  0
   -0.8814   -7.4976   90.2402 H   0  0  0  0  0  0  0  0  0  0  0  0
   -0.6563   -6.4400   88.8058 H   0  0  0  0  0  0  0  0  0  0  0  0
   -1.9453   -7.6911   88.8058 H   0  0  0  0  0  0  0  0  0  0  0  0
    0.9058   -7.0715   87.1978 H   0  0  0  0  0  0  0  0  0  0  0  0
    0.8787   -8.7819   86.6498 H   0  0  0  0  0  0  0  0  0  0  0  0
   -0.6350   -7.8148   86.6498 H   0  0  0  0  0  0  0  0  0  0  0  0
    4.3799   -9.6577   88.8609 H   0  0  0  0  0  0  0  0  0  0  0  0
    5.3328   -8.3814   89.6139 H   0  0  0  0  0  0  0  0  0  0  0  0
    5.9411   -8.4286   87.2919 H   0  0  0  0  0  0  0  0  0  0  0  0
    7.2981   -9.2373   88.2323 H   0  0  0  0  0  0  0  0  0  0  0  0
    3.1379  -10.3778   86.7689 H   0  0  0  0  0  0  0  0  0  0  0  0
    3.7580   -9.6495   85.2484 H   0  0  0  0  0  0  0  0  0  0  0  0
    3.1349  -11.3343   85.2484 H   0  0  0  0  0  0  0  0  0  0  0  0
    7.7094  -14.3385   86.3481 H   0  0  0  0  0  0  0  0  0  0  0  0
    6.6700  -14.2387   84.8865 H   0  0  0  0  0  0  0  0  0  0  0  0
    8.2957  -13.4746   84.8865 H   0  0  0  0  0  0  0  0  0  0  0  0
    8.6554  -11.4875   88.4915 H   0  0  0  0  0  0  0  0  0  0  0  0
    9.2511  -12.3729   87.0465 H   0  0  0  0  0  0  0  0  0  0  0  0
    9.2121  -10.5771   87.0465 H   0  0  0  0  0  0  0  0  0  0  0  0
  1  5  2  0
  1 12  1  0
  2  3  1  0
  2  6  2  0
  3 10  1  0
  3 16  2  0
  4  5  1  0
  4  6  1  0
  4 14  2  0
  6  7  1  0
  7  9  2  0
  8 15  1  0
  8 16  1  0
  9 10  1  0
 10 15  2  0
 11 12  1  0
 12 13  2  0
 13 14  1  0
 14 21  1  0
 16 17  1  0
 17 18  1  0
 18 19  1  0
 18 20  1  0
 21 22  1  0
 22 23  1  0
 23 24  1  0
 24 25  1  0
 24 30  2  0
 25 26  1  0
 25 27  2  0
 27 28  1  0
 28 29  1  0
 28 30  1  0
 30 31  1  0
  1 32  1  0
  2 33  1  0
  5 34  1  0
  7 35  1  0
  8 36  1  0
  9 37  1  0
 13 38  1  0
 17 39  1  0
 17 40  1  0
 18 41  1  6
 19 42  1  0
 19 43  1  0
 19 44  1  0
 20 45  1  0
 20 46  1  0
 20 47  1  0
 22 48  1  0
 22 49  1  0
 23 50  1  0
 23 51  1  0
 26 52  1  0
 26 53  1  0
 26 54  1  0
 29 55  1  0
 29 56  1  0
 29 57  1  0
 31 58  1  0
 31 59  1  0
 31 60  1  0
M  CHG  1  18   1
M  END
>  <filename_input>  (19) 
6TW5_9M2_docked.sdf

>  <pdb_id>  (19) 
6TW5_9M2

>  <pose_rank>  (19) 
18

>  <num_atoms_heavy>  (19) 
31

>  <num_torsions>  (19) 
7

>  <pose>  (19) 
[8.198650398910516, -8.75356785763198, 93.15448441748445, -0.1430983557942063, -2.906413396677733, 0.27342263473442013, -3.137751193793371, -4.9291632453478345, 2.4745216862949864, -1.595240421263122, -1.3716131601469417, 2.591814700276721, 2.404101701676675]

>  <energy>  (19) 
-623.3667726985395

>  <inter_energy>  (19) 
-669.7118578505039

>  <intra_energy>  (19) 
56.841462551175624

>  <rmsd>  (19) 
7.48437

>  <sdf_rank>  (19) 
0

$$$$

     RDKit          3D

 60 63  0  0  0  0  0  0  0  0999 V2000
   -0.0283  -12.0141   93.6545 C   0  0  0  0  0  0  0  0  0  0  0  0
    4.1246  -10.4925   92.0078 C   0  0  0  0  0  0  0  0  0  0  0  0
    5.4275   -9.9691   92.0933 C   0  0  0  0  0  0  0  0  0  0  0  0
    1.8021  -10.6221   92.8199 C   0  0  0  0  0  0  0  0  0  0  0  0
    1.2695  -11.4860   93.8160 C   0  0  0  0  0  0  0  0  0  0  0  0
    3.1730  -10.1367   92.9827 C   0  0  0  0  0  0  0  0  0  0  0  0
    3.5836   -9.2424   94.0024 C   0  0  0  0  0  0  0  0  0  0  0  0
    7.6016   -9.4284   91.7831 N   0  0  0  0  0  0  0  0  0  0  0  0
    4.8592   -8.6963   94.0842 C   0  0  0  0  0  0  0  0  0  0  0  0
    5.8378   -9.0709   93.1523 C   0  0  0  0  0  0  0  0  0  0  0  0
   -1.9782  -12.2282   92.4099 F   0  0  0  0  0  0  0  0  0  0  0  0
   -0.7636  -11.6720   92.5143 C   0  0  0  0  0  0  0  0  0  0  0  0
   -0.2844  -10.8356   91.5252 C   0  0  0  0  0  0  0  0  0  0  0  0
    0.9698  -10.2885   91.6524 C   0  0  0  0  0  0  0  0  0  0  0  0
    7.1629   -8.7424   92.9325 N   0  0  0  0  0  0  0  0  0  0  0  0
    6.6319  -10.1984   91.2383 C   0  0  0  0  0  0  0  0  0  0  0  0
    6.7466  -11.1330   90.0104 C   0  0  0  0  0  0  0  0  0  0  0  0
    7.0737  -10.4868   88.7211 N   0  0  1  0  0  0  0  0  0  0  0  0
    6.7372   -9.0341   88.7070 C   0  0  0  0  0  0  0  0  0  0  0  0
    8.5317  -10.5898   88.4620 C   0  0  0  0  0  0  0  0  0  0  0  0
    1.5320   -9.4461   90.7426 O   0  0  0  0  0  0  0  0  0  0  0  0
    1.7452  -10.0492   89.4461 C   0  0  0  0  0  0  0  0  0  0  0  0
    2.5374   -9.0367   88.6842 C   0  0  0  0  0  0  0  0  0  0  0  0
    2.2156   -8.9541   87.2015 C   0  0  0  0  0  0  0  0  0  0  0  0
    1.0340   -8.3895   86.4605 C   0  0  0  0  0  0  0  0  0  0  0  0
   -0.1870   -7.6310   86.9282 C   0  0  0  0  0  0  0  0  0  0  0  0
    1.2086   -8.5753   85.1554 N   0  0  0  0  0  0  0  0  0  0  0  0
    2.4413   -9.2797   84.9780 N   0  0  0  0  0  0  0  0  0  0  0  0
    2.7480   -9.6337   83.5823 C   0  0  0  0  0  0  0  0  0  0  0  0
    3.0771   -9.5282   86.1229 C   0  0  0  0  0  0  0  0  0  0  0  0
    4.4363  -10.1971   86.2275 C   0  0  0  0  0  0  0  0  0  0  0  0
   -0.4561  -12.6852   94.4139 H   0  0  0  0  0  0  0  0  0  0  0  0
    3.8519  -11.1729   91.1877 H   0  0  0  0  0  0  0  0  0  0  0  0
    1.8648  -11.7402   94.7053 H   0  0  0  0  0  0  0  0  0  0  0  0
    2.8504   -8.9643   94.7738 H   0  0  0  0  0  0  0  0  0  0  0  0
    8.5547   -9.3522   91.4000 H   0  0  0  0  0  0  0  0  0  0  0  0
    5.1001   -7.9729   94.8771 H   0  0  0  0  0  0  0  0  0  0  0  0
   -0.9014  -10.6094   90.6431 H   0  0  0  0  0  0  0  0  0  0  0  0
    7.5336  -11.8713   90.2240 H   0  0  0  0  0  0  0  0  0  0  0  0
    5.7433  -11.5633   89.8756 H   0  0  0  0  0  0  0  0  0  0  0  0
    6.5163  -10.9739   88.0050 H   0  0  0  0  0  0  0  0  0  0  0  0
    6.6522   -8.6674   89.7405 H   0  0  0  0  0  0  0  0  0  0  0  0
    7.5305   -8.4790   88.1850 H   0  0  0  0  0  0  0  0  0  0  0  0
    5.7806   -8.8845   88.1850 H   0  0  0  0  0  0  0  0  0  0  0  0
    9.0724  -10.6280   89.4192 H   0  0  0  0  0  0  0  0  0  0  0  0
    8.7382  -11.5048   87.8874 H   0  0  0  0  0  0  0  0  0  0  0  0
    8.8648   -9.7130   87.8874 H   0  0  0  0  0  0  0  0  0  0  0  0
    2.3078  -10.9894   89.5432 H   0  0  0  0  0  0  0  0  0  0  0  0
    0.8000  -10.3028   88.9439 H   0  0  0  0  0  0  0  0  0  0  0  0
    2.3481   -8.0491   89.1301 H   0  0  0  0  0  0  0  0  0  0  0  0
    3.5887   -9.3526   88.7538 H   0  0  0  0  0  0  0  0  0  0  0  0
   -0.2106   -7.6163   88.0279 H   0  0  0  0  0  0  0  0  0  0  0  0
   -0.1454   -6.5994   86.5486 H   0  0  0  0  0  0  0  0  0  0  0  0
   -1.0934   -8.1252   86.5486 H   0  0  0  0  0  0  0  0  0  0  0  0
    3.4683  -10.4649   83.5647 H   0  0  0  0  0  0  0  0  0  0  0  0
    1.8237   -9.9385   83.0697 H   0  0  0  0  0  0  0  0  0  0  0  0
    3.1813   -8.7622   83.0697 H   0  0  0  0  0  0  0  0  0  0  0  0
    4.7005  -10.3271   87.2873 H   0  0  0  0  0  0  0  0  0  0  0  0
    4.4000  -11.1802   85.7354 H   0  0  0  0  0  0  0  0  0  0  0  0
    5.1932   -9.5685   85.7354 H   0  0  0  0  0  0  0  0  0  0  0  0
  1  5  2  0
  1 12  1  0
  2  3  1  0
  2  6  2  0
  3 10  1  0
  3 16  2  0
  4  5  1  0
  4  6  1  0
  4 14  2  0
  6  7  1  0
  7  9  2  0
  8 15  1  0
  8 16  1  0
  9 10  1  0
 10 15  2  0
 11 12  1  0
 12 13  2  0
 13 14  1  0
 14 21  1  0
 16 17  1  0
 17 18  1  0
 18 19  1  0
 18 20  1  0
 21 22  1  0
 22 23  1  0
 23 24  1  0
 24 25  1  0
 24 30  2  0
 25 26  1  0
 25 27  2  0
 27 28  1  0
 28 29  1  0
 28 30  1  0
 30 31  1  0
  1 32  1  0
  2 33  1  0
  5 34  1  0
  7 35  1  0
  8 36  1  0
  9 37  1  0
 13 38  1  0
 17 39  1  0
 17 40  1  0
 18 41  1  6
 19 42  1  0
 19 43  1  0
 19 44  1  0
 20 45  1  0
 20 46  1  0
 20 47  1  0
 22 48  1  0
 22 49  1  0
 23 50  1  0
 23 51  1  0
 26 52  1  0
 26 53  1  0
 26 54  1  0
 29 55  1  0
 29 56  1  0
 29 57  1  0
 31 58  1  0
 31 59  1  0
 31 60  1  0
M  CHG  1  18   1
M  END
>  <filename_input>  (20) 
6TW5_9M2_docked.sdf

>  <pdb_id>  (20) 
6TW5_9M2

>  <pose_rank>  (20) 
19

>  <num_atoms_heavy>  (20) 
31

>  <num_torsions>  (20) 
7

>  <pose>  (20) 
[-0.028295072348972407, -12.014096085431634, 93.65453236069726, 3.5327473764848425, 0.11294756859283077, 0.22543968021840263, -3.4184872876651977, 0.39036421091200457, 0.6982918327463008, -1.1542482183082179, 0.14095092417227434, -1.1484703808780392, 2.505332286127135]

>  <energy>  (20) 
-653.6836605860927

>  <inter_energy>  (20) 
-658.7264012237083

>  <intra_energy>  (20) 
19.457706931175696

>  <rmsd>  (20) 
6.03863

>  <sdf_rank>  (20) 
0

$$$$

     RDKit          3D

 60 63  0  0  0  0  0  0  0  0999 V2000
    8.5969   -9.2218   92.4515 C   0  0  0  0  0  0  0  0  0  0  0  0
    3.7796   -9.4808   93.2195 C   0  0  0  0  0  0  0  0  0  0  0  0
    2.6706   -9.2911   94.0640 C   0  0  0  0  0  0  0  0  0  0  0  0
    6.1637   -9.1490   92.6945 C   0  0  0  0  0  0  0  0  0  0  0  0
    7.4609   -9.0076   93.2596 C   0  0  0  0  0  0  0  0  0  0  0  0
    5.0035   -8.8623   93.5389 C   0  0  0  0  0  0  0  0  0  0  0  0
    5.0546   -8.0848   94.7225 C   0  0  0  0  0  0  0  0  0  0  0  0
    0.6374   -9.3021   95.0546 N   0  0  0  0  0  0  0  0  0  0  0  0
    3.9749   -7.9106   95.5804 C   0  0  0  0  0  0  0  0  0  0  0  0
    2.7331   -8.4780   95.2604 C   0  0  0  0  0  0  0  0  0  0  0  0
    9.5382   -9.7350   90.3905 F   0  0  0  0  0  0  0  0  0  0  0  0
    8.4187   -9.5716   91.1085 C   0  0  0  0  0  0  0  0  0  0  0  0
    7.1774   -9.7209   90.5217 C   0  0  0  0  0  0  0  0  0  0  0  0
    6.0456   -9.5355   91.2789 C   0  0  0  0  0  0  0  0  0  0  0  0
    1.4856   -8.5131   95.8559 N   0  0  0  0  0  0  0  0  0  0  0  0
    1.2634   -9.7834   93.9561 C   0  0  0  0  0  0  0  0  0  0  0  0
    0.6531  -10.6388   92.8202 C   0  0  0  0  0  0  0  0  0  0  0  0
    0.2736  -12.0240   93.1722 N   0  0  1  0  0  0  0  0  0  0  0  0
   -0.8168  -12.5569   92.3058 C   0  0  0  0  0  0  0  0  0  0  0  0
    1.4392  -12.9258   92.9949 C   0  0  0  0  0  0  0  0  0  0  0  0
    4.7772   -9.6678   90.8025 O   0  0  0  0  0  0  0  0  0  0  0  0
    4.7062   -9.7859   89.3634 C   0  0  0  0  0  0  0  0  0  0  0  0
    3.5021   -8.9891   88.9779 C   0  0  0  0  0  0  0  0  0  0  0  0
    3.0527   -9.1627   87.5368 C   0  0  0  0  0  0  0  0  0  0  0  0
    3.7320   -9.7701   86.3395 C   0  0  0  0  0  0  0  0  0  0  0  0
    5.0484  -10.4962   86.1815 C   0  0  0  0  0  0  0  0  0  0  0  0
    2.9302   -9.6657   85.2837 N   0  0  0  0  0  0  0  0  0  0  0  0
    1.7487   -8.9757   85.7023 N   0  0  0  0  0  0  0  0  0  0  0  0
    0.7819   -8.7092   84.6245 C   0  0  0  0  0  0  0  0  0  0  0  0
    1.7532   -8.6579   86.9968 C   0  0  0  0  0  0  0  0  0  0  0  0
    0.6020   -7.9861   87.7244 C   0  0  0  0  0  0  0  0  0  0  0  0
    9.6082   -9.1154   92.8710 H   0  0  0  0  0  0  0  0  0  0  0  0
    3.6914  -10.1060   92.3187 H   0  0  0  0  0  0  0  0  0  0  0  0
    7.5775   -8.7334   94.3184 H   0  0  0  0  0  0  0  0  0  0  0  0
    6.0037   -7.5905   94.9771 H   0  0  0  0  0  0  0  0  0  0  0  0
   -0.3496   -9.4916   95.2799 H   0  0  0  0  0  0  0  0  0  0  0  0
    4.0942   -7.3298   96.5069 H   0  0  0  0  0  0  0  0  0  0  0  0
    7.0953   -9.9859   89.4572 H   0  0  0  0  0  0  0  0  0  0  0  0
   -0.2512  -10.1245   92.4627 H   0  0  0  0  0  0  0  0  0  0  0  0
    1.4492  -10.7360   92.0673 H   0  0  0  0  0  0  0  0  0  0  0  0
   -0.0499  -11.9947   94.1497 H   0  0  0  0  0  0  0  0  0  0  0  0
   -1.6263  -12.9526   92.9368 H   0  0  0  0  0  0  0  0  0  0  0  0
   -1.2085  -11.7487   91.6707 H   0  0  0  0  0  0  0  0  0  0  0  0
   -0.4198  -13.3626   91.6707 H   0  0  0  0  0  0  0  0  0  0  0  0
    1.8252  -13.2244   93.9807 H   0  0  0  0  0  0  0  0  0  0  0  0
    1.1285  -13.8210   92.4362 H   0  0  0  0  0  0  0  0  0  0  0  0
    2.2277  -12.4003   92.4362 H   0  0  0  0  0  0  0  0  0  0  0  0
    5.6115   -9.3726   88.8948 H   0  0  0  0  0  0  0  0  0  0  0  0
    4.6360  -10.8331   89.0341 H   0  0  0  0  0  0  0  0  0  0  0  0
    2.6707   -9.2881   89.6331 H   0  0  0  0  0  0  0  0  0  0  0  0
    3.7850   -7.9317   89.0868 H   0  0  0  0  0  0  0  0  0  0  0  0
    5.4626  -10.7246   87.1746 H   0  0  0  0  0  0  0  0  0  0  0  0
    4.8864  -11.4325   85.6275 H   0  0  0  0  0  0  0  0  0  0  0  0
    5.7540   -9.8597   85.6275 H   0  0  0  0  0  0  0  0  0  0  0  0
   -0.1908   -8.4411   85.0625 H   0  0  0  0  0  0  0  0  0  0  0  0
    1.1458   -7.8778   84.0028 H   0  0  0  0  0  0  0  0  0  0  0  0
    0.6685   -9.6096   84.0028 H   0  0  0  0  0  0  0  0  0  0  0  0
    0.7532   -8.0744   88.8104 H   0  0  0  0  0  0  0  0  0  0  0  0
    0.5621   -6.9230   87.4449 H   0  0  0  0  0  0  0  0  0  0  0  0
   -0.3433   -8.4744   87.4449 H   0  0  0  0  0  0  0  0  0  0  0  0
  1  5  2  0
  1 12  1  0
  2  3  1  0
  2  6  2  0
  3 10  1  0
  3 16  2  0
  4  5  1  0
  4  6  1  0
  4 14  2  0
  6  7  1  0
  7  9  2  0
  8 15  1  0
  8 16  1  0
  9 10  1  0
 10 15  2  0
 11 12  1  0
 12 13  2  0
 13 14  1  0
 14 21  1  0
 16 17  1  0
 17 18  1  0
 18 19  1  0
 18 20  1  0
 21 22  1  0
 22 23  1  0
 23 24  1  0
 24 25  1  0
 24 30  2  0
 25 26  1  0
 25 27  2  0
 27 28  1  0
 28 29  1  0
 28 30  1  0
 30 31  1  0
  1 32  1  0
  2 33  1  0
  5 34  1  0
  7 35  1  0
  8 36  1  0
  9 37  1  0
 13 38  1  0
 17 39  1  0
 17 40  1  0
 18 41  1  1
 19 42  1  0
 19 43  1  0
 19 44  1  0
 20 45  1  0
 20 46  1  0
 20 47  1  0
 22 48  1  0
 22 49  1  0
 23 50  1  0
 23 51  1  0
 26 52  1  0
 26 53  1  0
 26 54  1  0
 29 55  1  0
 29 56  1  0
 29 57  1  0
 31 58  1  0
 31 59  1  0
 31 60  1  0
M  CHG  1  18   1
M  END
>  <filename_input>  (21) 
6TW5_9M2_docked.sdf

>  <pdb_id>  (21) 
6TW5_9M2

>  <pose_rank>  (21) 
20

>  <num_atoms_heavy>  (21) 
31

>  <num_torsions>  (21) 
7

>  <pose>  (21) 
[8.596881920531215, -9.221803859869437, 92.45152308249132, 0.8992525540545876, 3.7577901695371967, -0.3783650709077518, -1.893085247061231, 0.2708960275558361, -2.521674678309912, -0.2342911217415075, -5.599730725697278, 4.706477004882404, 0.9804452463292374]

>  <energy>  (21) 
-598.8422989096443

>  <inter_energy>  (21) 
-636.2149542620409

>  <intra_energy>  (21) 
36.897355018617596

>  <rmsd>  (21) 
8.22365

>  <sdf_rank>  (21) 
0

$$$$

     RDKit          3D

 60 63  0  0  0  0  0  0  0  0999 V2000
    7.6980  -11.8339   86.0166 C   0  0  0  0  0  0  0  0  0  0  0  0
    6.5566   -9.7044   90.2388 C   0  0  0  0  0  0  0  0  0  0  0  0
    6.9326   -9.2587   91.5190 C   0  0  0  0  0  0  0  0  0  0  0  0
    7.1413  -10.4744   87.9727 C   0  0  0  0  0  0  0  0  0  0  0  0
    8.0431  -11.3365   87.2904 C   0  0  0  0  0  0  0  0  0  0  0  0
    7.5502   -9.9247   89.2658 C   0  0  0  0  0  0  0  0  0  0  0  0
    8.8972   -9.6979   89.6428 C   0  0  0  0  0  0  0  0  0  0  0  0
    6.9996   -8.5542   93.6672 N   0  0  0  0  0  0  0  0  0  0  0  0
    9.2857   -9.2836   90.9115 C   0  0  0  0  0  0  0  0  0  0  0  0
    8.3121   -9.0129   91.8838 C   0  0  0  0  0  0  0  0  0  0  0  0
    6.2159  -11.9528   84.2315 F   0  0  0  0  0  0  0  0  0  0  0  0
    6.4705  -11.4668   85.4540 C   0  0  0  0  0  0  0  0  0  0  0  0
    5.5662  -10.6342   86.0835 C   0  0  0  0  0  0  0  0  0  0  0  0
    5.8585  -10.1404   87.3323 C   0  0  0  0  0  0  0  0  0  0  0  0
    8.3288   -8.5997   93.2034 N   0  0  0  0  0  0  0  0  0  0  0  0
    6.1068   -8.9110   92.7154 C   0  0  0  0  0  0  0  0  0  0  0  0
    4.5637   -8.9335   92.8291 C   0  0  0  0  0  0  0  0  0  0  0  0
    3.8521   -9.8660   91.9287 N   0  0  1  0  0  0  0  0  0  0  0  0
    4.1697  -11.2943   92.2164 C   0  0  0  0  0  0  0  0  0  0  0  0
    2.3859   -9.7116   92.1008 C   0  0  0  0  0  0  0  0  0  0  0  0
    5.0343   -9.3225   88.0429 O   0  0  0  0  0  0  0  0  0  0  0  0
    3.6354   -9.4780   87.7129 C   0  0  0  0  0  0  0  0  0  0  0  0
    3.2948   -8.2546   86.9251 C   0  0  0  0  0  0  0  0  0  0  0  0
    2.3701   -8.4901   85.7426 C   0  0  0  0  0  0  0  0  0  0  0  0
    2.6309   -8.9938   84.3490 C   0  0  0  0  0  0  0  0  0  0  0  0
    3.8784   -9.5244   83.6804 C   0  0  0  0  0  0  0  0  0  0  0  0
    1.4884   -9.0047   83.6685 N   0  0  0  0  0  0  0  0  0  0  0  0
    0.4663   -8.4906   84.5277 N   0  0  0  0  0  0  0  0  0  0  0  0
   -0.8575   -8.3646   83.8959 C   0  0  0  0  0  0  0  0  0  0  0  0
    0.9085   -8.1759   85.7451 C   0  0  0  0  0  0  0  0  0  0  0  0
    0.0312   -7.6757   86.8792 C   0  0  0  0  0  0  0  0  0  0  0  0
    8.3838  -12.5006   85.4733 H   0  0  0  0  0  0  0  0  0  0  0  0
    5.4971   -9.8791   90.0004 H   0  0  0  0  0  0  0  0  0  0  0  0
    9.0022  -11.6133   87.7524 H   0  0  0  0  0  0  0  0  0  0  0  0
    9.6808   -9.8591   88.8878 H   0  0  0  0  0  0  0  0  0  0  0  0
    6.7365   -8.2798   94.6245 H   0  0  0  0  0  0  0  0  0  0  0  0
   10.3529   -9.1684   91.1519 H   0  0  0  0  0  0  0  0  0  0  0  0
    4.6199  -10.3686   85.5896 H   0  0  0  0  0  0  0  0  0  0  0  0
    4.3083   -9.2065   93.8636 H   0  0  0  0  0  0  0  0  0  0  0  0
    4.2337   -7.9280   92.5288 H   0  0  0  0  0  0  0  0  0  0  0  0
    4.1579   -9.6337   90.9729 H   0  0  0  0  0  0  0  0  0  0  0  0
    4.2044  -11.4502   93.3047 H   0  0  0  0  0  0  0  0  0  0  0  0
    3.3928  -11.9381   91.7783 H   0  0  0  0  0  0  0  0  0  0  0  0
    5.1462  -11.5483   91.7783 H   0  0  0  0  0  0  0  0  0  0  0  0
    2.1433   -9.6861   93.1734 H   0  0  0  0  0  0  0  0  0  0  0  0
    2.0580   -8.7740   91.6282 H   0  0  0  0  0  0  0  0  0  0  0  0
    1.8698  -10.5604   91.6282 H   0  0  0  0  0  0  0  0  0  0  0  0
    3.4772  -10.3844   87.1100 H   0  0  0  0  0  0  0  0  0  0  0  0
    3.0054   -9.5861   88.6081 H   0  0  0  0  0  0  0  0  0  0  0  0
    2.8075   -7.5374   87.6020 H   0  0  0  0  0  0  0  0  0  0  0  0
    4.2422   -7.8847   86.5062 H   0  0  0  0  0  0  0  0  0  0  0  0
    4.6032   -9.8327   84.4483 H   0  0  0  0  0  0  0  0  0  0  0  0
    3.6184  -10.3898   83.0531 H   0  0  0  0  0  0  0  0  0  0  0  0
    4.3215   -8.7368   83.0531 H   0  0  0  0  0  0  0  0  0  0  0  0
   -1.6302   -8.2910   84.6753 H   0  0  0  0  0  0  0  0  0  0  0  0
   -0.8805   -7.4602   83.2702 H   0  0  0  0  0  0  0  0  0  0  0  0
   -1.0508   -9.2484   83.2702 H   0  0  0  0  0  0  0  0  0  0  0  0
    0.4923   -7.9386   87.8427 H   0  0  0  0  0  0  0  0  0  0  0  0
   -0.0721   -6.5829   86.8082 H   0  0  0  0  0  0  0  0  0  0  0  0
   -0.9619   -8.1433   86.8082 H   0  0  0  0  0  0  0  0  0  0  0  0
  1  5  2  0
  1 12  1  0
  2  3  1  0
  2  6  2  0
  3 10  1  0
  3 16  2  0
  4  5  1  0
  4  6  1  0
  4 14  2  0
  6  7  1  0
  7  9  2  0
  8 15  1  0
  8 16  1  0
  9 10  1  0
 10 15  2  0
 11 12  1  0
 12 13  2  0
 13 14  1  0
 14 21  1  0
 16 17  1  0
 17 18  1  0
 18 19  1  0
 18 20  1  0
 21 22  1  0
 22 23  1  0
 23 24  1  0
 24 25  1  0
 24 30  2  0
 25 26  1  0
 25 27  2  0
 27 28  1  0
 28 29  1  0
 28 30  1  0
 30 31  1  0
  1 32  1  0
  2 33  1  0
  5 34  1  0
  7 35  1  0
  8 36  1  0
  9 37  1  0
 13 38  1  0
 17 39  1  0
 17 40  1  0
 18 41  1  6
 19 42  1  0
 19 43  1  0
 19 44  1  0
 20 45  1  0
 20 46  1  0
 20 47  1  0
 22 48  1  0
 22 49  1  0
 23 50  1  0
 23 51  1  0
 26 52  1  0
 26 53  1  0
 26 54  1  0
 29 55  1  0
 29 56  1  0
 29 57  1  0
 31 58  1  0
 31 59  1  0
 31 60  1  0
M  CHG  1  18   1
M  END
>  <filename_input>  (22) 
6TW5_9M2_docked.sdf

>  <pdb_id>  (22) 
6TW5_9M2

>  <pose_rank>  (22) 
21

>  <num_atoms_heavy>  (22) 
31

>  <num_torsions>  (22) 
7

>  <pose>  (22) 
[7.697997986050173, -11.833868436296653, 86.01657277696887, 3.279768584718846, 3.515660383021896, -0.06005189308005215, -1.7530301777267228, -1.2163926511256438, 2.205536021775202, 0.4150217753123372, 1.282177320552444, -2.457253830121172, -0.18799940631307602]

>  <energy>  (22) 
-589.0241966830158

>  <inter_energy>  (22) 
-654.5543212728861

>  <intra_energy>  (22) 
56.07492189467434

>  <rmsd>  (22) 
7.25766

>  <sdf_rank>  (22) 
0

$$$$

     RDKit          3D

 60 63  0  0  0  0  0  0  0  0999 V2000
    4.4066  -11.9094   85.3819 C   0  0  0  0  0  0  0  0  0  0  0  0
    2.3975  -10.3927   89.1366 C   0  0  0  0  0  0  0  0  0  0  0  0
    1.4175   -9.9875   90.0608 C   0  0  0  0  0  0  0  0  0  0  0  0
    3.4337  -10.2609   86.9052 C   0  0  0  0  0  0  0  0  0  0  0  0
    3.3500  -11.5068   86.2250 C   0  0  0  0  0  0  0  0  0  0  0  0
    2.3517   -9.8953   87.8201 C   0  0  0  0  0  0  0  0  0  0  0  0
    1.3135   -8.9855   87.5000 C   0  0  0  0  0  0  0  0  0  0  0  0
    0.1148   -9.6681   91.8819 N   0  0  0  0  0  0  0  0  0  0  0  0
    0.3545   -8.5555   88.4097 C   0  0  0  0  0  0  0  0  0  0  0  0
    0.3511   -9.0716   89.7136 C   0  0  0  0  0  0  0  0  0  0  0  0
    6.4941  -11.5218   84.4390 F   0  0  0  0  0  0  0  0  0  0  0  0
    5.5149  -11.0683   85.2333 C   0  0  0  0  0  0  0  0  0  0  0  0
    5.6344   -9.8505   85.8738 C   0  0  0  0  0  0  0  0  0  0  0  0
    4.6198   -9.4154   86.6923 C   0  0  0  0  0  0  0  0  0  0  0  0
   -0.4208   -8.8798   90.8448 N   0  0  0  0  0  0  0  0  0  0  0  0
    1.1984  -10.3756   91.4875 C   0  0  0  0  0  0  0  0  0  0  0  0
    2.0215  -11.3857   92.3221 C   0  0  0  0  0  0  0  0  0  0  0  0
    2.2316  -11.0449   93.7457 N   0  0  1  0  0  0  0  0  0  0  0  0
    2.7487   -9.6588   93.9324 C   0  0  0  0  0  0  0  0  0  0  0  0
    0.9424  -11.1218   94.4773 C   0  0  0  0  0  0  0  0  0  0  0  0
    4.6326   -8.2295   87.3609 O   0  0  0  0  0  0  0  0  0  0  0  0
    5.6454   -8.1532   88.3896 C   0  0  0  0  0  0  0  0  0  0  0  0
    5.9308   -9.5764   88.7451 C   0  0  0  0  0  0  0  0  0  0  0  0
    7.3374   -9.8402   89.2556 C   0  0  0  0  0  0  0  0  0  0  0  0
    8.5314  -10.4947   88.6156 C   0  0  0  0  0  0  0  0  0  0  0  0
    8.7688  -11.0266   87.2207 C   0  0  0  0  0  0  0  0  0  0  0  0
    9.5394  -10.5063   89.4830 N   0  0  0  0  0  0  0  0  0  0  0  0
    9.0697   -9.9234   90.7023 N   0  0  0  0  0  0  0  0  0  0  0  0
   10.0503   -9.9290   91.8004 C   0  0  0  0  0  0  0  0  0  0  0  0
    7.8031   -9.5132   90.6382 C   0  0  0  0  0  0  0  0  0  0  0  0
    7.0701   -8.7972   91.7589 C   0  0  0  0  0  0  0  0  0  0  0  0
    4.3600  -12.8705   84.8489 H   0  0  0  0  0  0  0  0  0  0  0  0
    3.1916  -11.0910   89.4393 H   0  0  0  0  0  0  0  0  0  0  0  0
    2.4684  -12.1515   86.3553 H   0  0  0  0  0  0  0  0  0  0  0  0
    1.2635   -8.5972   86.4720 H   0  0  0  0  0  0  0  0  0  0  0  0
   -0.2752   -9.7022   92.8346 H   0  0  0  0  0  0  0  0  0  0  0  0
   -0.3990   -7.8130   88.1079 H   0  0  0  0  0  0  0  0  0  0  0  0
    6.5341   -9.2341   85.7300 H   0  0  0  0  0  0  0  0  0  0  0  0
    1.5017  -12.3544   92.2830 H   0  0  0  0  0  0  0  0  0  0  0  0
    3.0248  -11.3889   91.8710 H   0  0  0  0  0  0  0  0  0  0  0  0
    2.9229  -11.7189   94.1044 H   0  0  0  0  0  0  0  0  0  0  0  0
    2.8305   -9.4396   95.0072 H   0  0  0  0  0  0  0  0  0  0  0  0
    3.7401   -9.5710   93.4638 H   0  0  0  0  0  0  0  0  0  0  0  0
    2.0571   -8.9432   93.4638 H   0  0  0  0  0  0  0  0  0  0  0  0
    1.1342  -11.1104   95.5604 H   0  0  0  0  0  0  0  0  0  0  0  0
    0.3153  -10.2595   94.2068 H   0  0  0  0  0  0  0  0  0  0  0  0
    0.4223  -12.0526   94.2068 H   0  0  0  0  0  0  0  0  0  0  0  0
    6.5509   -7.6596   88.0070 H   0  0  0  0  0  0  0  0  0  0  0  0
    5.3139   -7.5650   89.2581 H   0  0  0  0  0  0  0  0  0  0  0  0
    5.2207   -9.8818   89.5277 H   0  0  0  0  0  0  0  0  0  0  0  0
    5.8282  -10.1528   87.8139 H   0  0  0  0  0  0  0  0  0  0  0  0
    9.2165  -12.0295   87.2820 H   0  0  0  0  0  0  0  0  0  0  0  0
    7.8112  -11.0847   86.6826 H   0  0  0  0  0  0  0  0  0  0  0  0
    9.4516  -10.3526   86.6826 H   0  0  0  0  0  0  0  0  0  0  0  0
    9.5211   -9.9260   92.7647 H   0  0  0  0  0  0  0  0  0  0  0  0
   10.6762  -10.8307   91.7284 H   0  0  0  0  0  0  0  0  0  0  0  0
   10.6865   -9.0345   91.7284 H   0  0  0  0  0  0  0  0  0  0  0  0
    7.4407   -9.1592   92.7293 H   0  0  0  0  0  0  0  0  0  0  0  0
    7.2470   -7.7144   91.6796 H   0  0  0  0  0  0  0  0  0  0  0  0
    5.9918   -8.9994   91.6796 H   0  0  0  0  0  0  0  0  0  0  0  0
  1  5  2  0
  1 12  1  0
  2  3  1  0
  2  6  2  0
  3 10  1  0
  3 16  2  0
  4  5  1  0
  4  6  1  0
  4 14  2  0
  6  7  1  0
  7  9  2  0
  8 15  1  0
  8 16  1  0
  9 10  1  0
 10 15  2  0
 11 12  1  0
 12 13  2  0
 13 14  1  0
 14 21  1  0
 16 17  1  0
 17 18  1  0
 18 19  1  0
 18 20  1  0
 21 22  1  0
 22 23  1  0
 23 24  1  0
 24 25  1  0
 24 30  2  0
 25 26  1  0
 25 27  2  0
 27 28  1  0
 28 29  1  0
 28 30  1  0
 30 31  1  0
  1 32  1  0
  2 33  1  0
  5 34  1  0
  7 35  1  0
  8 36  1  0
  9 37  1  0
 13 38  1  0
 17 39  1  0
 17 40  1  0
 18 41  1  1
 19 42  1  0
 19 43  1  0
 19 44  1  0
 20 45  1  0
 20 46  1  0
 20 47  1  0
 22 48  1  0
 22 49  1  0
 23 50  1  0
 23 51  1  0
 26 52  1  0
 26 53  1  0
 26 54  1  0
 29 55  1  0
 29 56  1  0
 29 57  1  0
 31 58  1  0
 31 59  1  0
 31 60  1  0
M  CHG  1  18   1
M  END
>  <filename_input>  (23) 
6TW5_9M2_docked.sdf

>  <pdb_id>  (23) 
6TW5_9M2

>  <pose_rank>  (23) 
22

>  <num_atoms_heavy>  (23) 
31

>  <num_torsions>  (23) 
7

>  <pose>  (23) 
[4.406570388083379, -11.909353070296401, 85.38185521027019, -1.0174686137268114, -1.1178711199927625, -2.319026854419583, 2.2723674074727978, 0.8167248977914585, 0.19571519572178928, -1.2093642490433243, -3.550283753950838, -2.262400077279107, 5.661674287497222]

>  <energy>  (23) 
-595.9773080847522

>  <inter_energy>  (23) 
-633.1744006136439

>  <intra_energy>  (23) 
54.63700709151901

>  <rmsd>  (23) 
7.11982

>  <sdf_rank>  (23) 
0

$$$$

     RDKit          3D

 60 63  0  0  0  0  0  0  0  0999 V2000
    2.8366  -11.4658   93.6083 C   0  0  0  0  0  0  0  0  0  0  0  0
    6.6018   -9.9239   92.1439 C   0  0  0  0  0  0  0  0  0  0  0  0
    7.8734   -9.7986   91.5554 C   0  0  0  0  0  0  0  0  0  0  0  0
    4.1675  -10.2517   91.9532 C   0  0  0  0  0  0  0  0  0  0  0  0
    4.0874  -11.1922   93.0167 C   0  0  0  0  0  0  0  0  0  0  0  0
    5.4669  -10.0314   91.3175 C   0  0  0  0  0  0  0  0  0  0  0  0
    5.6750  -10.0248   89.9158 C   0  0  0  0  0  0  0  0  0  0  0  0
   10.0831   -9.5745   91.1284 N   0  0  0  0  0  0  0  0  0  0  0  0
    6.9275   -9.9289   89.3205 C   0  0  0  0  0  0  0  0  0  0  0  0
    8.0685   -9.7743   90.1209 C   0  0  0  0  0  0  0  0  0  0  0  0
    0.5413  -11.1256   93.7212 F   0  0  0  0  0  0  0  0  0  0  0  0
    1.7008  -10.8007   93.1335 C   0  0  0  0  0  0  0  0  0  0  0  0
    1.7356   -9.8795   92.1051 C   0  0  0  0  0  0  0  0  0  0  0  0
    2.9372   -9.5741   91.5121 C   0  0  0  0  0  0  0  0  0  0  0  0
    9.4257   -9.6532   89.8851 N   0  0  0  0  0  0  0  0  0  0  0  0
    9.2245   -9.6312   92.1724 C   0  0  0  0  0  0  0  0  0  0  0  0
    9.5613   -9.5234   93.6788 C   0  0  0  0  0  0  0  0  0  0  0  0
   10.9974   -9.5058   94.0314 N   0  0  1  0  0  0  0  0  0  0  0  0
   11.2416   -9.8694   95.4568 C   0  0  0  0  0  0  0  0  0  0  0  0
   11.7306  -10.4980   93.2060 C   0  0  0  0  0  0  0  0  0  0  0  0
    3.0834   -8.6754   90.5001 O   0  0  0  0  0  0  0  0  0  0  0  0
    2.0781   -8.7936   89.4680 C   0  0  0  0  0  0  0  0  0  0  0  0
    2.7055   -9.6637   88.4275 C   0  0  0  0  0  0  0  0  0  0  0  0
    2.3864   -9.2793   86.9925 C   0  0  0  0  0  0  0  0  0  0  0  0
    1.2911   -8.4354   86.3991 C   0  0  0  0  0  0  0  0  0  0  0  0
    0.1945   -7.6084   87.0303 C   0  0  0  0  0  0  0  0  0  0  0  0
    1.4266   -8.4124   85.0763 N   0  0  0  0  0  0  0  0  0  0  0  0
    2.5449   -9.2391   84.7399 N   0  0  0  0  0  0  0  0  0  0  0  0
    2.7865   -9.3827   83.2948 C   0  0  0  0  0  0  0  0  0  0  0  0
    3.1484   -9.7697   85.8034 C   0  0  0  0  0  0  0  0  0  0  0  0
    4.3994  -10.6286   85.7464 C   0  0  0  0  0  0  0  0  0  0  0  0
    2.7552  -12.1915   94.4310 H   0  0  0  0  0  0  0  0  0  0  0  0
    6.4952   -9.9377   93.2386 H   0  0  0  0  0  0  0  0  0  0  0  0
    4.9936  -11.7023   93.3751 H   0  0  0  0  0  0  0  0  0  0  0  0
    4.7945  -10.1000   89.2608 H   0  0  0  0  0  0  0  0  0  0  0  0
   11.1039   -9.4839   91.2313 H   0  0  0  0  0  0  0  0  0  0  0  0
    7.0232   -9.9740   88.2256 H   0  0  0  0  0  0  0  0  0  0  0  0
    0.8093   -9.3945   91.7634 H   0  0  0  0  0  0  0  0  0  0  0  0
    9.1125   -8.5929   94.0564 H   0  0  0  0  0  0  0  0  0  0  0  0
    9.1595  -10.4404   94.1346 H   0  0  0  0  0  0  0  0  0  0  0  0
   11.3237   -8.5434   93.8633 H   0  0  0  0  0  0  0  0  0  0  0  0
   10.7489   -9.1359   96.1119 H   0  0  0  0  0  0  0  0  0  0  0  0
   10.8326  -10.8711   95.6550 H   0  0  0  0  0  0  0  0  0  0  0  0
   12.3236   -9.8694   95.6550 H   0  0  0  0  0  0  0  0  0  0  0  0
   12.2544  -11.2069   93.8641 H   0  0  0  0  0  0  0  0  0  0  0  0
   11.0180  -11.0450   92.5711 H   0  0  0  0  0  0  0  0  0  0  0  0
   12.4627   -9.9775   92.5711 H   0  0  0  0  0  0  0  0  0  0  0  0
    1.1658   -9.2614   89.8665 H   0  0  0  0  0  0  0  0  0  0  0  0
    1.7760   -7.8152   89.0663 H   0  0  0  0  0  0  0  0  0  0  0  0
    3.7968   -9.6194   88.5581 H   0  0  0  0  0  0  0  0  0  0  0  0
    2.2889  -10.6708   88.5763 H   0  0  0  0  0  0  0  0  0  0  0  0
    0.2743   -7.6686   88.1257 H   0  0  0  0  0  0  0  0  0  0  0  0
    0.2964   -6.5604   86.7122 H   0  0  0  0  0  0  0  0  0  0  0  0
   -0.7852   -7.9945   86.7122 H   0  0  0  0  0  0  0  0  0  0  0  0
    3.7218   -9.9384   83.1328 H   0  0  0  0  0  0  0  0  0  0  0  0
    1.9503   -9.9305   82.8359 H   0  0  0  0  0  0  0  0  0  0  0  0
    2.8678   -8.3863   82.8359 H   0  0  0  0  0  0  0  0  0  0  0  0
    4.7335  -10.8580   86.7691 H   0  0  0  0  0  0  0  0  0  0  0  0
    4.1771  -11.5654   85.2145 H   0  0  0  0  0  0  0  0  0  0  0  0
    5.1938  -10.0846   85.2145 H   0  0  0  0  0  0  0  0  0  0  0  0
  1  5  2  0
  1 12  1  0
  2  3  1  0
  2  6  2  0
  3 10  1  0
  3 16  2  0
  4  5  1  0
  4  6  1  0
  4 14  2  0
  6  7  1  0
  7  9  2  0
  8 15  1  0
  8 16  1  0
  9 10  1  0
 10 15  2  0
 11 12  1  0
 12 13  2  0
 13 14  1  0
 14 21  1  0
 16 17  1  0
 17 18  1  0
 18 19  1  0
 18 20  1  0
 21 22  1  0
 22 23  1  0
 23 24  1  0
 24 25  1  0
 24 30  2  0
 25 26  1  0
 25 27  2  0
 27 28  1  0
 28 29  1  0
 28 30  1  0
 30 31  1  0
  1 32  1  0
  2 33  1  0
  5 34  1  0
  7 35  1  0
  8 36  1  0
  9 37  1  0
 13 38  1  0
 17 39  1  0
 17 40  1  0
 18 41  1  1
 19 42  1  0
 19 43  1  0
 19 44  1  0
 20 45  1  0
 20 46  1  0
 20 47  1  0
 22 48  1  0
 22 49  1  0
 23 50  1  0
 23 51  1  0
 26 52  1  0
 26 53  1  0
 26 54  1  0
 29 55  1  0
 29 56  1  0
 29 57  1  0
 31 58  1  0
 31 59  1  0
 31 60  1  0
M  CHG  1  18   1
M  END
>  <filename_input>  (24) 
6TW5_9M2_docked.sdf

>  <pdb_id>  (24) 
6TW5_9M2

>  <pose_rank>  (24) 
23

>  <num_atoms_heavy>  (24) 
31

>  <num_torsions>  (24) 
7

>  <pose>  (24) 
[2.836628031304747, -11.465816078556456, 93.60832557006482, -2.533035343143617, 0.3735947478631832, 0.5742966289681539, 0.05956847933015606, 1.3534977768651837, -1.719128566365727, -0.8192149927763085, 1.4851695514227168, -1.107265050881834, 0.8954213429734621]

>  <energy>  (24) 
-562.6096403754303

>  <inter_energy>  (24) 
-612.9805857242554

>  <intra_energy>  (24) 
49.21902475915153

>  <rmsd>  (24) 
6.70394

>  <sdf_rank>  (24) 
0

$$$$

     RDKit          3D

 60 63  0  0  0  0  0  0  0  0999 V2000
    3.1574   -9.0966   95.0538 C   0  0  0  0  0  0  0  0  0  0  0  0
    4.2513   -9.7013   90.3216 C   0  0  0  0  0  0  0  0  0  0  0  0
    5.1895   -9.8926   89.2909 C   0  0  0  0  0  0  0  0  0  0  0  0
    3.7132   -9.2043   92.6738 C   0  0  0  0  0  0  0  0  0  0  0  0
    4.1093   -9.3108   94.0354 C   0  0  0  0  0  0  0  0  0  0  0  0
    4.7058   -9.4905   91.6374 C   0  0  0  0  0  0  0  0  0  0  0  0
    6.1066   -9.4651   91.8499 C   0  0  0  0  0  0  0  0  0  0  0  0
    6.2506  -10.2508   87.3259 N   0  0  0  0  0  0  0  0  0  0  0  0
    7.0452   -9.6256   90.8373 C   0  0  0  0  0  0  0  0  0  0  0  0
    6.6180   -9.8828   89.5267 C   0  0  0  0  0  0  0  0  0  0  0  0
    0.9821   -8.6157   95.7125 F   0  0  0  0  0  0  0  0  0  0  0  0
    1.8415   -8.7810   94.6978 C   0  0  0  0  0  0  0  0  0  0  0  0
    1.4165   -8.6661   93.3888 C   0  0  0  0  0  0  0  0  0  0  0  0
    2.3168   -8.8527   92.3674 C   0  0  0  0  0  0  0  0  0  0  0  0
    7.2443  -10.0873   88.3108 N   0  0  0  0  0  0  0  0  0  0  0  0
    4.9996  -10.1707   87.8346 C   0  0  0  0  0  0  0  0  0  0  0  0
    3.6604  -10.3504   87.0805 C   0  0  0  0  0  0  0  0  0  0  0  0
    3.2171   -9.2113   86.2481 N   0  0  1  0  0  0  0  0  0  0  0  0
    3.6826   -7.8982   86.7798 C   0  0  0  0  0  0  0  0  0  0  0  0
    3.7766   -9.3402   84.8793 C   0  0  0  0  0  0  0  0  0  0  0  0
    2.0051   -8.7527   91.0460 O   0  0  0  0  0  0  0  0  0  0  0  0
    0.8720   -9.5601   90.6534 C   0  0  0  0  0  0  0  0  0  0  0  0
    1.4070  -10.9537   90.5842 C   0  0  0  0  0  0  0  0  0  0  0  0
    1.1702  -11.7941   91.8278 C   0  0  0  0  0  0  0  0  0  0  0  0
    2.1017  -12.6171   92.6756 C   0  0  0  0  0  0  0  0  0  0  0  0
    3.6000  -12.8135   92.6369 C   0  0  0  0  0  0  0  0  0  0  0  0
    1.4083  -13.1896   93.6553 N   0  0  0  0  0  0  0  0  0  0  0  0
    0.0353  -12.8238   93.4868 N   0  0  0  0  0  0  0  0  0  0  0  0
   -0.8856  -13.4420   94.4548 C   0  0  0  0  0  0  0  0  0  0  0  0
   -0.1719  -12.0140   92.4485 C   0  0  0  0  0  0  0  0  0  0  0  0
   -1.5166  -11.4142   92.0769 C   0  0  0  0  0  0  0  0  0  0  0  0
    3.4453   -9.1763   96.1125 H   0  0  0  0  0  0  0  0  0  0  0  0
    3.1736   -9.7163   90.1017 H   0  0  0  0  0  0  0  0  0  0  0  0
    5.1498   -9.5584   94.2923 H   0  0  0  0  0  0  0  0  0  0  0  0
    6.4724   -9.3093   92.8756 H   0  0  0  0  0  0  0  0  0  0  0  0
    6.4539  -10.4132   86.3294 H   0  0  0  0  0  0  0  0  0  0  0  0
    8.1192   -9.5510   91.0633 H   0  0  0  0  0  0  0  0  0  0  0  0
    0.3662   -8.4272   93.1656 H   0  0  0  0  0  0  0  0  0  0  0  0
    3.7615  -11.2263   86.4227 H   0  0  0  0  0  0  0  0  0  0  0  0
    2.8954  -10.4553   87.8639 H   0  0  0  0  0  0  0  0  0  0  0  0
    2.1874   -9.2357   86.2510 H   0  0  0  0  0  0  0  0  0  0  0  0
    3.6735   -7.9238   87.8795 H   0  0  0  0  0  0  0  0  0  0  0  0
    4.7054   -7.7011   86.4261 H   0  0  0  0  0  0  0  0  0  0  0  0
    3.0123   -7.1009   86.4261 H   0  0  0  0  0  0  0  0  0  0  0  0
    4.8467   -9.5869   84.9423 H   0  0  0  0  0  0  0  0  0  0  0  0
    3.2471  -10.1399   84.3406 H   0  0  0  0  0  0  0  0  0  0  0  0
    3.6505   -8.3895   84.3406 H   0  0  0  0  0  0  0  0  0  0  0  0
    0.0677   -9.4897   91.4005 H   0  0  0  0  0  0  0  0  0  0  0  0
    0.4378   -9.2323   89.6973 H   0  0  0  0  0  0  0  0  0  0  0  0
    0.9291  -11.4610   89.7332 H   0  0  0  0  0  0  0  0  0  0  0  0
    2.4980  -10.8597   90.4793 H   0  0  0  0  0  0  0  0  0  0  0  0
    3.9897  -12.8646   93.6642 H   0  0  0  0  0  0  0  0  0  0  0  0
    3.8335  -13.7500   92.1091 H   0  0  0  0  0  0  0  0  0  0  0  0
    4.0670  -11.9689   92.1091 H   0  0  0  0  0  0  0  0  0  0  0  0
   -0.5488  -13.2159   95.4772 H   0  0  0  0  0  0  0  0  0  0  0  0
   -1.8987  -13.0404   94.3052 H   0  0  0  0  0  0  0  0  0  0  0  0
   -0.8974  -14.5317   94.3052 H   0  0  0  0  0  0  0  0  0  0  0  0
   -2.0731  -11.1660   92.9927 H   0  0  0  0  0  0  0  0  0  0  0  0
   -1.3596  -10.5009   91.4844 H   0  0  0  0  0  0  0  0  0  0  0  0
   -2.0913  -12.1414   91.4844 H   0  0  0  0  0  0  0  0  0  0  0  0
  1  5  2  0
  1 12  1  0
  2  3  1  0
  2  6  2  0
  3 10  1  0
  3 16  2  0
  4  5  1  0
  4  6  1  0
  4 14  2  0
  6  7  1  0
  7  9  2  0
  8 15  1  0
  8 16  1  0
  9 10  1  0
 10 15  2  0
 11 12  1  0
 12 13  2  0
 13 14  1  0
 14 21  1  0
 16 17  1  0
 17 18  1  0
 18 19  1  0
 18 20  1  0
 21 22  1  0
 22 23  1  0
 23 24  1  0
 24 25  1  0
 24 30  2  0
 25 26  1  0
 25 27  2  0
 27 28  1  0
 28 29  1  0
 28 30  1  0
 30 31  1  0
  1 32  1  0
  2 33  1  0
  5 34  1  0
  7 35  1  0
  8 36  1  0
  9 37  1  0
 13 38  1  0
 17 39  1  0
 17 40  1  0
 18 41  1  6
 19 42  1  0
 19 43  1  0
 19 44  1  0
 20 45  1  0
 20 46  1  0
 20 47  1  0
 22 48  1  0
 22 49  1  0
 23 50  1  0
 23 51  1  0
 26 52  1  0
 26 53  1  0
 26 54  1  0
 29 55  1  0
 29 56  1  0
 29 57  1  0
 31 58  1  0
 31 59  1  0
 31 60  1  0
M  CHG  1  18   1
M  END
>  <filename_input>  (25) 
6TW5_9M2_docked.sdf

>  <pdb_id>  (25) 
6TW5_9M2

>  <pose_rank>  (25) 
24

>  <num_atoms_heavy>  (25) 
31

>  <num_torsions>  (25) 
7

>  <pose>  (25) 
[3.1574233849007958, -9.096568928480837, 95.05379363899893, 2.735740447615702, -0.6427666231990615, -0.9554016107786802, -2.592922119827652, 0.1383360264790726, 0.5556379159413063, -0.9648791560886184, 1.807936425812048, -3.2213952272279927, -1.026003868449987]

>  <energy>  (25) 
-585.9370980813832

>  <inter_energy>  (25) 
-663.4674467936367

>  <intra_energy>  (25) 
79.67441875330906

>  <rmsd>  (25) 
4.37806

>  <sdf_rank>  (25) 
0

$$$$

     RDKit          3D

 60 63  0  0  0  0  0  0  0  0999 V2000
    1.4200   -8.1960   86.5860 C   0  0  0  0  0  0  0  0  0  0  0  0
    5.1360  -10.2960   87.3730 C   0  0  0  0  0  0  0  0  0  0  0  0
    6.5000  -10.6220   87.4830 C   0  0  0  0  0  0  0  0  0  0  0  0
    3.1710   -8.9970   88.0950 C   0  0  0  0  0  0  0  0  0  0  0  0
    2.7460   -8.6320   86.7880 C   0  0  0  0  0  0  0  0  0  0  0  0
    4.5680   -9.3880   88.2870 C   0  0  0  0  0  0  0  0  0  0  0  0
    5.4210   -8.8310   89.2720 C   0  0  0  0  0  0  0  0  0  0  0  0
    8.5830  -11.4670   87.2330 N   0  0  0  0  0  0  0  0  0  0  0  0
    6.7760   -9.1230   89.3760 C   0  0  0  0  0  0  0  0  0  0  0  0
    7.3550  -10.0590   88.5070 C   0  0  0  0  0  0  0  0  0  0  0  0
   -0.6860   -7.6880   87.4250 F   0  0  0  0  0  0  0  0  0  0  0  0
    0.5510   -8.1350   87.6810 C   0  0  0  0  0  0  0  0  0  0  0  0
    0.9230   -8.4820   88.9650 C   0  0  0  0  0  0  0  0  0  0  0  0
    2.2020   -8.9260   89.2010 C   0  0  0  0  0  0  0  0  0  0  0  0
    8.6240  -10.5770   88.3240 N   0  0  0  0  0  0  0  0  0  0  0  0
    7.3470  -11.5660   86.6920 C   0  0  0  0  0  0  0  0  0  0  0  0
    6.8980  -12.4750   85.5230 C   0  0  0  0  0  0  0  0  0  0  0  0
    7.1160  -11.9470   84.1590 N   0  0  1  0  0  0  0  0  0  0  0  0
    6.3600  -10.6870   83.9050 C   0  0  0  0  0  0  0  0  0  0  0  0
    8.5530  -11.6290   83.9660 C   0  0  0  0  0  0  0  0  0  0  0  0
    2.6670   -9.3020   90.4240 O   0  0  0  0  0  0  0  0  0  0  0  0
    1.6660   -9.2550   91.4660 C   0  0  0  0  0  0  0  0  0  0  0  0
    2.3830   -9.7010   92.6990 C   0  0  0  0  0  0  0  0  0  0  0  0
    2.5790  -11.2030   92.8190 C   0  0  0  0  0  0  0  0  0  0  0  0
    1.6090  -12.3250   93.0720 C   0  0  0  0  0  0  0  0  0  0  0  0
    0.1030  -12.3530   93.1990 C   0  0  0  0  0  0  0  0  0  0  0  0
    2.2740  -13.4760   93.1100 N   0  0  0  0  0  0  0  0  0  0  0  0
    3.6630  -13.1810   92.9340 N   0  0  0  0  0  0  0  0  0  0  0  0
    4.5530  -14.3500   93.0270 C   0  0  0  0  0  0  0  0  0  0  0  0
    3.9090  -11.8830   92.7570 C   0  0  0  0  0  0  0  0  0  0  0  0
    5.2810  -11.2950   92.4780 C   0  0  0  0  0  0  0  0  0  0  0  0
    1.0740   -7.9081   85.5823 H   0  0  0  0  0  0  0  0  0  0  0  0
    4.5194  -10.7459   86.5809 H   0  0  0  0  0  0  0  0  0  0  0  0
    3.4458   -8.6892   85.9413 H   0  0  0  0  0  0  0  0  0  0  0  0
    4.9856   -8.1268   89.9962 H   0  0  0  0  0  0  0  0  0  0  0  0
    9.4029  -11.9848   86.8857 H   0  0  0  0  0  0  0  0  0  0  0  0
    7.3919   -8.6217   90.1372 H   0  0  0  0  0  0  0  0  0  0  0  0
    0.2017   -8.4037   89.7918 H   0  0  0  0  0  0  0  0  0  0  0  0
    7.4480  -13.4239   85.6065 H   0  0  0  0  0  0  0  0  0  0  0  0
    5.8073  -12.5702   85.6289 H   0  0  0  0  0  0  0  0  0  0  0  0
    6.7893  -12.6782   83.5112 H   0  0  0  0  0  0  0  0  0  0  0  0
    6.0832  -10.2257   84.8645 H   0  0  0  0  0  0  0  0  0  0  0  0
    6.9897   -9.9908   83.3316 H   0  0  0  0  0  0  0  0  0  0  0  0
    5.4494  -10.9150   83.3316 H   0  0  0  0  0  0  0  0  0  0  0  0
    9.0396  -11.5213   84.9466 H   0  0  0  0  0  0  0  0  0  0  0  0
    9.0362  -12.4419   83.4042 H   0  0  0  0  0  0  0  0  0  0  0  0
    8.6481  -10.6881   83.4042 H   0  0  0  0  0  0  0  0  0  0  0  0
    1.2816   -8.2317   91.5892 H   0  0  0  0  0  0  0  0  0  0  0  0
    0.7963   -9.8885   91.2374 H   0  0  0  0  0  0  0  0  0  0  0  0
    3.3749   -9.2255   92.7080 H   0  0  0  0  0  0  0  0  0  0  0  0
    1.7493   -9.4045   93.5478 H   0  0  0  0  0  0  0  0  0  0  0  0
   -0.1752  -12.3582   94.2632 H   0  0  0  0  0  0  0  0  0  0  0  0
   -0.3226  -11.4626   92.7131 H   0  0  0  0  0  0  0  0  0  0  0  0
   -0.2892  -13.2586   92.7131 H   0  0  0  0  0  0  0  0  0  0  0  0
    4.7350  -14.5890   94.0852 H   0  0  0  0  0  0  0  0  0  0  0  0
    4.0799  -15.2113   92.5326 H   0  0  0  0  0  0  0  0  0  0  0  0
    5.5091  -14.1232   92.5326 H   0  0  0  0  0  0  0  0  0  0  0  0
    5.7874  -11.0780   93.4301 H   0  0  0  0  0  0  0  0  0  0  0  0
    5.8785  -12.0161   91.9009 H   0  0  0  0  0  0  0  0  0  0  0  0
    5.1709  -10.3650   91.9009 H   0  0  0  0  0  0  0  0  0  0  0  0
  1  5  2  0
  1 12  1  0
  2  3  1  0
  2  6  2  0
  3 10  1  0
  3 16  2  0
  4  5  1  0
  4  6  1  0
  4 14  2  0
  6  7  1  0
  7  9  2  0
  8 15  1  0
  8 16  1  0
  9 10  1  0
 10 15  2  0
 11 12  1  0
 12 13  2  0
 13 14  1  0
 14 21  1  0
 16 17  1  0
 17 18  1  0
 18 19  1  0
 18 20  1  0
 21 22  1  0
 22 23  1  0
 23 24  1  0
 24 25  1  0
 24 30  2  0
 25 26  1  0
 25 27  2  0
 27 28  1  0
 28 29  1  0
 28 30  1  0
 30 31  1  0
  1 32  1  0
  2 33  1  0
  5 34  1  0
  7 35  1  0
  8 36  1  0
  9 37  1  0
 13 38  1  0
 17 39  1  0
 17 40  1  0
 18 41  1  6
 19 42  1  0
 19 43  1  0
 19 44  1  0
 20 45  1  0
 20 46  1  0
 20 47  1  0
 22 48  1  0
 22 49  1  0
 23 50  1  0
 23 51  1  0
 26 52  1  0
 26 53  1  0
 26 54  1  0
 29 55  1  0
 29 56  1  0
 29 57  1  0
 31 58  1  0
 31 59  1  0
 31 60  1  0
M  CHG  1  18   1
M  END
>  <filename_input>  (26) 
6TW5_9M2_docked.sdf

>  <pdb_id>  (26) 
6TW5_9M2

>  <pose_rank>  (26) 
25

>  <num_atoms_heavy>  (26) 
31

>  <num_torsions>  (26) 
7

>  <pose>  (26) 
[1.42, -8.196, 86.586, 1e-06, 1e-06, 1e-06, 0.0, 0.0, 0.0, 0.0, 0.0, 0.0, 0.0]

>  <energy>  (26) 
-1202.3162434403437

>  <inter_energy>  (26) 
-1217.4072141546262

>  <intra_energy>  (26) 
17.278512857199825

>  <rmsd>  (26) 
0.0

>  <sdf_rank>  (26) 
0

$$$$
