
     RDKit          3D

 53 56  0  0  0  0  0  0  0  0999 V2000
    3.0785   45.5534   58.6958 C   0  0  0  0  0  0  0  0  0  0  0  0
    1.6752   45.1089   58.9929 C   0  0  0  0  0  0  0  0  0  0  0  0
    0.5588   46.1442   57.0595 C   0  0  0  0  0  0  0  0  0  0  0  0
    4.1508   44.8112   58.3967 N   0  0  0  0  0  0  0  0  0  0  0  0
    4.9541   49.2485   58.6761 C   0  0  0  0  0  0  0  0  0  0  0  0
    5.6899   48.0721   58.4297 C   0  0  0  0  0  0  0  0  0  0  0  0
    4.9547   46.8516   58.4511 C   0  0  0  0  0  0  0  0  0  0  0  0
    3.5843   49.2735   58.9837 C   0  0  0  0  0  0  0  0  0  0  0  0
    5.4747   52.1116   60.8716 C   0  0  0  0  0  0  0  0  0  0  0  0
    5.7904   52.3858   62.3245 C   0  0  0  0  0  0  0  0  0  0  0  0
    6.0176   51.1525   63.1439 C   0  0  0  0  0  0  0  0  0  0  0  0
    3.2546   51.5566   60.1043 C   0  0  0  0  0  0  0  0  0  0  0  0
    2.5123   52.7427   60.2560 C   0  0  0  0  0  0  0  0  0  0  0  0
    5.3494   51.0343   64.3740 C   0  0  0  0  0  0  0  0  0  0  0  0
    2.8000   50.5455   59.1931 C   0  0  0  0  0  0  0  0  0  0  0  0
    3.5418   46.9285   58.7443 C   0  0  0  0  0  0  0  0  0  0  0  0
    2.8965   48.1165   59.0399 C   0  0  0  0  0  0  0  0  0  0  0  0
    1.4193   52.8624   59.4253 C   0  0  0  0  0  0  0  0  0  0  0  0
    0.9884   51.9296   58.4943 C   0  0  0  0  0  0  0  0  0  0  0  0
    1.7116   50.7486   58.3625 C   0  0  0  0  0  0  0  0  0  0  0  0
    5.2918   45.5585   58.1984 N   0  0  0  0  0  0  0  0  0  0  0  0
    0.6187   53.9564   59.4932 F   0  0  0  0  0  0  0  0  0  0  0  0
    0.7528   44.9243   57.8395 N   0  0  1  0  0  0  0  0  0  0  0  0
    1.1484   43.7058   57.0802 C   0  0  0  0  0  0  0  0  0  0  0  0
    4.3205   51.2808   60.8488 O   0  0  0  0  0  0  0  0  0  0  0  0
    6.8976   50.1598   62.7060 C   0  0  0  0  0  0  0  0  0  0  0  0
    7.1389   49.0234   63.4226 N   0  0  0  0  0  0  0  0  0  0  0  0
    6.5114   48.8894   64.6167 C   0  0  0  0  0  0  0  0  0  0  0  0
    5.6228   49.8510   65.0654 C   0  0  0  0  0  0  0  0  0  0  0  0
    1.7397   44.1458   59.5203 H   0  0  0  0  0  0  0  0  0  0  0  0
    1.2370   45.9351   59.5720 H   0  0  0  0  0  0  0  0  0  0  0  0
    0.4231   46.9972   57.7407 H   0  0  0  0  0  0  0  0  0  0  0  0
    1.4405   46.3180   56.4253 H   0  0  0  0  0  0  0  0  0  0  0  0
   -0.3334   46.0358   56.4253 H   0  0  0  0  0  0  0  0  0  0  0  0
    4.1261   43.7842   58.3221 H   0  0  0  0  0  0  0  0  0  0  0  0
    5.4873   50.2092   58.6242 H   0  0  0  0  0  0  0  0  0  0  0  0
    6.7717   48.0948   58.2317 H   0  0  0  0  0  0  0  0  0  0  0  0
    5.2719   53.0553   60.3440 H   0  0  0  0  0  0  0  0  0  0  0  0
    6.3224   51.6214   60.3704 H   0  0  0  0  0  0  0  0  0  0  0  0
    6.6996   53.0032   62.3700 H   0  0  0  0  0  0  0  0  0  0  0  0
    4.9115   52.8922   62.7501 H   0  0  0  0  0  0  0  0  0  0  0  0
    2.7853   53.5190   60.9859 H   0  0  0  0  0  0  0  0  0  0  0  0
    4.6688   51.8075   64.7601 H   0  0  0  0  0  0  0  0  0  0  0  0
    1.8322   48.1161   59.3179 H   0  0  0  0  0  0  0  0  0  0  0  0
    0.0982   52.1184   57.8762 H   0  0  0  0  0  0  0  0  0  0  0  0
    1.4251   49.9936   57.6156 H   0  0  0  0  0  0  0  0  0  0  0  0
   -0.2025   44.7456   58.1808 H   0  0  0  0  0  0  0  0  0  0  0  0
    1.4091   42.9029   57.7855 H   0  0  0  0  0  0  0  0  0  0  0  0
    0.3099   43.3799   56.4472 H   0  0  0  0  0  0  0  0  0  0  0  0
    2.0184   43.9346   56.4472 H   0  0  0  0  0  0  0  0  0  0  0  0
    7.4164   50.2995   61.7462 H   0  0  0  0  0  0  0  0  0  0  0  0
    6.7112   48.0039   65.2379 H   0  0  0  0  0  0  0  0  0  0  0  0
    5.1033   49.6741   66.0187 H   0  0  0  0  0  0  0  0  0  0  0  0
  1  2  1  0
  1  4  1  0
  1 16  2  0
  2 23  1  0
 23  3  1  0
  4 21  1  0
  5  6  2  0
  5  8  1  0
  6  7  1  0
  7 16  1  0
  7 21  2  0
  8 15  1  0
  8 17  2  0
  9 10  1  0
  9 25  1  0
 10 11  1  0
 11 14  2  0
 11 26  1  0
 12 13  2  0
 12 15  1  0
 12 25  1  0
 13 18  1  0
 14 29  1  0
 15 20  2  0
 16 17  1  0
 18 19  2  0
 18 22  1  0
 19 20  1  0
 23 24  1  0
 26 27  2  0
 27 28  1  0
 28 29  2  0
  2 30  1  0
  2 31  1  0
  3 32  1  0
  3 33  1  0
  3 34  1  0
  4 35  1  0
  5 36  1  0
  6 37  1  0
  9 38  1  0
  9 39  1  0
 10 40  1  0
 10 41  1  0
 13 42  1  0
 14 43  1  0
 17 44  1  0
 19 45  1  0
 20 46  1  0
 23 47  1  1
 24 48  1  0
 24 49  1  0
 24 50  1  0
 26 51  1  0
 28 52  1  0
 29 53  1  0
M  CHG  1  23   1
M  END
>  <filename_input>  (1) 
6TW7_NZB_docked.sdf

>  <pdb_id>  (1) 
6TW7_NZB

>  <pose_rank>  (1) 
0

>  <num_atoms_heavy>  (1) 
29

>  <num_torsions>  (1) 
7

>  <pose>  (1) 
[3.2545991018825347, 51.55656924912056, 60.10428075629107, -3.2804505975329725, 5.158916621781785, 0.037225154892208186, -0.10886622603880382, 0.013561558952511049, 0.14949572285864243, -0.9616185049714596, -1.025666229621238, -4.088498409312602, 2.190948996138089]

>  <energy>  (1) 
-998.9172792118768

>  <inter_energy>  (1) 
-1003.7242374962375

>  <intra_energy>  (1) 
16.581225549309572

>  <rmsd>  (1) 
0.989942

>  <sdf_rank>  (1) 
0

$$$$

     RDKit          3D

 53 56  0  0  0  0  0  0  0  0999 V2000
    3.1049   45.4916   58.7426 C   0  0  0  0  0  0  0  0  0  0  0  0
    1.7349   45.0277   59.1462 C   0  0  0  0  0  0  0  0  0  0  0  0
    0.3521   45.9592   57.3361 C   0  0  0  0  0  0  0  0  0  0  0  0
    4.1695   44.7631   58.3876 N   0  0  0  0  0  0  0  0  0  0  0  0
    4.8969   49.2206   58.5073 C   0  0  0  0  0  0  0  0  0  0  0  0
    5.6386   48.0530   58.2381 C   0  0  0  0  0  0  0  0  0  0  0  0
    4.9323   46.8194   58.3387 C   0  0  0  0  0  0  0  0  0  0  0  0
    3.5511   49.2268   58.9080 C   0  0  0  0  0  0  0  0  0  0  0  0
    4.6390   51.9325   61.9426 C   0  0  0  0  0  0  0  0  0  0  0  0
    6.0784   52.3841   61.8427 C   0  0  0  0  0  0  0  0  0  0  0  0
    6.3557   53.6948   62.5130 C   0  0  0  0  0  0  0  0  0  0  0  0
    3.2324   51.5124   60.0266 C   0  0  0  0  0  0  0  0  0  0  0  0
    2.4788   52.6881   60.2012 C   0  0  0  0  0  0  0  0  0  0  0  0
    5.2673   54.5149   62.8542 C   0  0  0  0  0  0  0  0  0  0  0  0
    2.7566   50.4882   59.1412 C   0  0  0  0  0  0  0  0  0  0  0  0
    3.5415   46.8763   58.7269 C   0  0  0  0  0  0  0  0  0  0  0  0
    2.8932   48.0585   59.0385 C   0  0  0  0  0  0  0  0  0  0  0  0
    1.3510   52.7856   59.4152 C   0  0  0  0  0  0  0  0  0  0  0  0
    0.8968   51.8398   58.5085 C   0  0  0  0  0  0  0  0  0  0  0  0
    1.6322   50.6690   58.3548 C   0  0  0  0  0  0  0  0  0  0  0  0
    5.2783   45.5272   58.0936 N   0  0  0  0  0  0  0  0  0  0  0  0
    0.5371   53.8678   59.5090 F   0  0  0  0  0  0  0  0  0  0  0  0
    0.7527   44.7561   58.0614 N   0  0  1  0  0  0  0  0  0  0  0  0
    1.2305   43.6113   57.2372 C   0  0  0  0  0  0  0  0  0  0  0  0
    4.3320   51.2580   60.7286 O   0  0  0  0  0  0  0  0  0  0  0  0
    7.6684   54.1019   62.7634 C   0  0  0  0  0  0  0  0  0  0  0  0
    7.9672   55.2895   63.3662 N   0  0  0  0  0  0  0  0  0  0  0  0
    6.9341   56.1020   63.6984 C   0  0  0  0  0  0  0  0  0  0  0  0
    5.6243   55.7148   63.4755 C   0  0  0  0  0  0  0  0  0  0  0  0
    1.8582   44.0969   59.7193 H   0  0  0  0  0  0  0  0  0  0  0  0
    1.3071   45.8726   59.7056 H   0  0  0  0  0  0  0  0  0  0  0  0
    0.0889   46.7497   58.0543 H   0  0  0  0  0  0  0  0  0  0  0  0
    1.1851   46.3006   56.7040 H   0  0  0  0  0  0  0  0  0  0  0  0
   -0.5192   45.7332   56.7040 H   0  0  0  0  0  0  0  0  0  0  0  0
    4.1613   43.7343   58.3388 H   0  0  0  0  0  0  0  0  0  0  0  0
    5.4051   50.1899   58.3962 H   0  0  0  0  0  0  0  0  0  0  0  0
    6.7035   48.0916   57.9655 H   0  0  0  0  0  0  0  0  0  0  0  0
    4.5153   51.2498   62.7962 H   0  0  0  0  0  0  0  0  0  0  0  0
    3.9674   52.7898   62.0972 H   0  0  0  0  0  0  0  0  0  0  0  0
    6.7145   51.6167   62.3079 H   0  0  0  0  0  0  0  0  0  0  0  0
    6.2940   52.5229   60.7729 H   0  0  0  0  0  0  0  0  0  0  0  0
    2.7694   53.4736   60.9143 H   0  0  0  0  0  0  0  0  0  0  0  0
    4.2230   54.2363   62.6497 H   0  0  0  0  0  0  0  0  0  0  0  0
    1.8508   48.0444   59.3893 H   0  0  0  0  0  0  0  0  0  0  0  0
   -0.0207   52.0109   57.9263 H   0  0  0  0  0  0  0  0  0  0  0  0
    1.3270   49.9046   57.6250 H   0  0  0  0  0  0  0  0  0  0  0  0
   -0.1440   44.4547   58.4689 H   0  0  0  0  0  0  0  0  0  0  0  0
    1.5692   42.7998   57.8981 H   0  0  0  0  0  0  0  0  0  0  0  0
    0.4087   43.2483   56.6024 H   0  0  0  0  0  0  0  0  0  0  0  0
    2.0665   43.9402   56.6024 H   0  0  0  0  0  0  0  0  0  0  0  0
    8.4935   53.4394   62.4629 H   0  0  0  0  0  0  0  0  0  0  0  0
    7.1399   57.0829   64.1517 H   0  0  0  0  0  0  0  0  0  0  0  0
    4.8198   56.3885   63.8055 H   0  0  0  0  0  0  0  0  0  0  0  0
  1  2  1  0
  1  4  1  0
  1 16  2  0
  2 23  1  0
 23  3  1  0
  4 21  1  0
  5  6  2  0
  5  8  1  0
  6  7  1  0
  7 16  1  0
  7 21  2  0
  8 15  1  0
  8 17  2  0
  9 10  1  0
  9 25  1  0
 10 11  1  0
 11 14  2  0
 11 26  1  0
 12 13  2  0
 12 15  1  0
 12 25  1  0
 13 18  1  0
 14 29  1  0
 15 20  2  0
 16 17  1  0
 18 19  2  0
 18 22  1  0
 19 20  1  0
 23 24  1  0
 26 27  2  0
 27 28  1  0
 28 29  2  0
  2 30  1  0
  2 31  1  0
  3 32  1  0
  3 33  1  0
  3 34  1  0
  4 35  1  0
  5 36  1  0
  6 37  1  0
  9 38  1  0
  9 39  1  0
 10 40  1  0
 10 41  1  0
 13 42  1  0
 14 43  1  0
 17 44  1  0
 19 45  1  0
 20 46  1  0
 23 47  1  1
 24 48  1  0
 24 49  1  0
 24 50  1  0
 26 51  1  0
 28 52  1  0
 29 53  1  0
M  CHG  1  23   1
M  END
>  <filename_input>  (2) 
6TW7_NZB_docked.sdf

>  <pdb_id>  (2) 
6TW7_NZB

>  <pose_rank>  (2) 
1

>  <num_atoms_heavy>  (2) 
29

>  <num_torsions>  (2) 
7

>  <pose>  (2) 
[3.2324464033533142, 51.512391835172316, 60.02663990800826, -3.941055259808818, 4.684118767939341, -0.5918006694344121, 12.42425836331092, 0.0460949748361116, 0.02464631917147543, -49.8664123118297, -49.56916084228692, -8.84156504750116, 10.498745897529858]

>  <energy>  (2) 
-923.7896337288382

>  <inter_energy>  (2) 
-921.0221978440408

>  <intra_energy>  (2) 
13.47345065476951

>  <rmsd>  (2) 
2.60712

>  <sdf_rank>  (2) 
0

$$$$

     RDKit          3D

 53 56  0  0  0  0  0  0  0  0999 V2000
    7.2743   48.8973   61.6949 C   0  0  0  0  0  0  0  0  0  0  0  0
    7.3541   49.6257   63.0056 C   0  0  0  0  0  0  0  0  0  0  0  0
    6.4768   48.1464   64.7657 C   0  0  0  0  0  0  0  0  0  0  0  0
    8.0601   47.9217   61.2250 N   0  0  0  0  0  0  0  0  0  0  0  0
    4.8241   49.2669   58.3734 C   0  0  0  0  0  0  0  0  0  0  0  0
    5.8871   48.3417   58.3781 C   0  0  0  0  0  0  0  0  0  0  0  0
    6.6684   48.2839   59.5684 C   0  0  0  0  0  0  0  0  0  0  0  0
    4.5364   50.1448   59.4309 C   0  0  0  0  0  0  0  0  0  0  0  0
    0.8252   48.6144   59.1410 C   0  0  0  0  0  0  0  0  0  0  0  0
    1.4598   48.0003   57.9138 C   0  0  0  0  0  0  0  0  0  0  0  0
    1.7847   46.5449   58.0571 C   0  0  0  0  0  0  0  0  0  0  0  0
    2.0325   50.6274   59.7032 C   0  0  0  0  0  0  0  0  0  0  0  0
    0.9638   51.5431   59.7216 C   0  0  0  0  0  0  0  0  0  0  0  0
    3.0342   46.1881   58.5911 C   0  0  0  0  0  0  0  0  0  0  0  0
    3.3624   51.0928   59.4314 C   0  0  0  0  0  0  0  0  0  0  0  0
    6.3182   49.1865   60.6411 C   0  0  0  0  0  0  0  0  0  0  0  0
    5.2975   50.1157   60.5420 C   0  0  0  0  0  0  0  0  0  0  0  0
    1.3182   52.8636   59.5493 C   0  0  0  0  0  0  0  0  0  0  0  0
    2.6002   53.3505   59.3431 C   0  0  0  0  0  0  0  0  0  0  0  0
    3.6514   52.4402   59.3033 C   0  0  0  0  0  0  0  0  0  0  0  0
    7.7017   47.4936   59.9649 N   0  0  0  0  0  0  0  0  0  0  0  0
    0.3703   53.8350   59.5323 F   0  0  0  0  0  0  0  0  0  0  0  0
    6.2756   49.3740   63.9999 N   0  0  1  0  0  0  0  0  0  0  0  0
    6.0285   50.6147   64.7858 C   0  0  0  0  0  0  0  0  0  0  0  0
    1.8522   49.3168   59.8301 O   0  0  0  0  0  0  0  0  0  0  0  0
    0.8764   45.5690   57.6399 C   0  0  0  0  0  0  0  0  0  0  0  0
    1.1331   44.2326   57.7463 N   0  0  0  0  0  0  0  0  0  0  0  0
    2.3354   43.8629   58.2519 C   0  0  0  0  0  0  0  0  0  0  0  0
    3.2459   44.8100   58.6870 C   0  0  0  0  0  0  0  0  0  0  0  0
    8.3084   49.3496   63.4780 H   0  0  0  0  0  0  0  0  0  0  0  0
    7.2489   50.6884   62.7419 H   0  0  0  0  0  0  0  0  0  0  0  0
    6.4393   48.3748   65.8411 H   0  0  0  0  0  0  0  0  0  0  0  0
    5.6849   47.4247   64.5164 H   0  0  0  0  0  0  0  0  0  0  0  0
    7.4575   47.7152   64.5164 H   0  0  0  0  0  0  0  0  0  0  0  0
    8.8534   47.5298   61.7522 H   0  0  0  0  0  0  0  0  0  0  0  0
    4.1780   49.3037   57.4840 H   0  0  0  0  0  0  0  0  0  0  0  0
    6.1018   47.6997   57.5110 H   0  0  0  0  0  0  0  0  0  0  0  0
    0.0248   49.3087   58.8456 H   0  0  0  0  0  0  0  0  0  0  0  0
    0.3792   47.8402   59.7826 H   0  0  0  0  0  0  0  0  0  0  0  0
    0.7642   48.1175   57.0698 H   0  0  0  0  0  0  0  0  0  0  0  0
    2.4137   48.5242   57.7539 H   0  0  0  0  0  0  0  0  0  0  0  0
   -0.0802   51.2271   59.8634 H   0  0  0  0  0  0  0  0  0  0  0  0
    3.7822   46.9302   58.9068 H   0  0  0  0  0  0  0  0  0  0  0  0
    5.1094   50.8237   61.3626 H   0  0  0  0  0  0  0  0  0  0  0  0
    2.7810   54.4278   59.2143 H   0  0  0  0  0  0  0  0  0  0  0  0
    4.6883   52.7835   59.1731 H   0  0  0  0  0  0  0  0  0  0  0  0
    5.3917   49.1687   63.5127 H   0  0  0  0  0  0  0  0  0  0  0  0
    6.0746   50.3834   65.8602 H   0  0  0  0  0  0  0  0  0  0  0  0
    6.7951   51.3639   64.5389 H   0  0  0  0  0  0  0  0  0  0  0  0
    5.0334   51.0131   64.5389 H   0  0  0  0  0  0  0  0  0  0  0  0
   -0.0833   45.8900   57.2087 H   0  0  0  0  0  0  0  0  0  0  0  0
    2.5909   42.7950   58.3172 H   0  0  0  0  0  0  0  0  0  0  0  0
    4.1882   44.4588   59.1329 H   0  0  0  0  0  0  0  0  0  0  0  0
  1  2  1  0
  1  4  1  0
  1 16  2  0
  2 23  1  0
 23  3  1  0
  4 21  1  0
  5  6  2  0
  5  8  1  0
  6  7  1  0
  7 16  1  0
  7 21  2  0
  8 15  1  0
  8 17  2  0
  9 10  1  0
  9 25  1  0
 10 11  1  0
 11 14  2  0
 11 26  1  0
 12 13  2  0
 12 15  1  0
 12 25  1  0
 13 18  1  0
 14 29  1  0
 15 20  2  0
 16 17  1  0
 18 19  2  0
 18 22  1  0
 19 20  1  0
 23 24  1  0
 26 27  2  0
 27 28  1  0
 28 29  2  0
  2 30  1  0
  2 31  1  0
  3 32  1  0
  3 33  1  0
  3 34  1  0
  4 35  1  0
  5 36  1  0
  6 37  1  0
  9 38  1  0
  9 39  1  0
 10 40  1  0
 10 41  1  0
 13 42  1  0
 14 43  1  0
 17 44  1  0
 19 45  1  0
 20 46  1  0
 23 47  1  6
 24 48  1  0
 24 49  1  0
 24 50  1  0
 26 51  1  0
 28 52  1  0
 29 53  1  0
M  CHG  1  23   1
M  END
>  <filename_input>  (3) 
6TW7_NZB_docked.sdf

>  <pdb_id>  (3) 
6TW7_NZB

>  <pose_rank>  (3) 
2

>  <num_atoms_heavy>  (3) 
29

>  <num_torsions>  (3) 
7

>  <pose>  (3) 
[2.0324521263902335, 50.62739623003719, 59.70316594568529, 1.4856902348942098, -1.825388711357613, 0.016752557031284452, -4.141622410495145, -0.4039357311663586, 2.610928635640682, 0.8553238492332389, -7.8599901626169695, -9.624691287561705, 2.949091344863825]

>  <energy>  (3) 
-894.0274545239598

>  <inter_energy>  (3) 
-883.194198164635

>  <intra_energy>  (3) 
6.568211781742262

>  <rmsd>  (3) 
5.99209

>  <sdf_rank>  (3) 
0

$$$$

     RDKit          3D

 53 56  0  0  0  0  0  0  0  0999 V2000
    3.9939   46.0073   58.7832 C   0  0  0  0  0  0  0  0  0  0  0  0
    5.2894   46.4688   59.3863 C   0  0  0  0  0  0  0  0  0  0  0  0
    7.0442   48.0532   58.7033 C   0  0  0  0  0  0  0  0  0  0  0  0
    3.6639   44.7942   58.3251 N   0  0  0  0  0  0  0  0  0  0  0  0
    0.4469   47.9285   57.8348 C   0  0  0  0  0  0  0  0  0  0  0  0
    0.6288   46.5671   57.5195 C   0  0  0  0  0  0  0  0  0  0  0  0
    1.8795   45.9946   57.8919 C   0  0  0  0  0  0  0  0  0  0  0  0
    1.4258   48.7385   58.4326 C   0  0  0  0  0  0  0  0  0  0  0  0
    3.7214   50.4566   61.3750 C   0  0  0  0  0  0  0  0  0  0  0  0
    5.1882   50.7828   61.2077 C   0  0  0  0  0  0  0  0  0  0  0  0
    5.8907   51.1138   62.4887 C   0  0  0  0  0  0  0  0  0  0  0  0
    2.1590   50.9059   59.5910 C   0  0  0  0  0  0  0  0  0  0  0  0
    1.9258   52.2580   59.9046 C   0  0  0  0  0  0  0  0  0  0  0  0
    6.3454   50.0568   63.2946 C   0  0  0  0  0  0  0  0  0  0  0  0
    1.1965   50.1809   58.8116 C   0  0  0  0  0  0  0  0  0  0  0  0
    2.8457   46.8591   58.5300 C   0  0  0  0  0  0  0  0  0  0  0  0
    2.6216   48.2066   58.7517 C   0  0  0  0  0  0  0  0  0  0  0  0
    0.7903   52.8036   59.3459 C   0  0  0  0  0  0  0  0  0  0  0  0
   -0.1277   52.1455   58.5415 C   0  0  0  0  0  0  0  0  0  0  0  0
    0.0943   50.8031   58.2518 C   0  0  0  0  0  0  0  0  0  0  0  0
    2.3830   44.7333   57.8199 N   0  0  0  0  0  0  0  0  0  0  0  0
    0.4538   54.0954   59.5916 F   0  0  0  0  0  0  0  0  0  0  0  0
    6.4168   46.7569   58.4583 N   0  0  1  0  0  0  0  0  0  0  0  0
    7.3256   45.5783   58.4038 C   0  0  0  0  0  0  0  0  0  0  0  0
    3.1969   50.2297   60.0725 O   0  0  0  0  0  0  0  0  0  0  0  0
    6.0605   52.4430   62.8838 C   0  0  0  0  0  0  0  0  0  0  0  0
    6.6890   52.7901   64.0447 N   0  0  0  0  0  0  0  0  0  0  0  0
    7.1303   51.7875   64.8433 C   0  0  0  0  0  0  0  0  0  0  0  0
    6.9885   50.4632   64.4669 C   0  0  0  0  0  0  0  0  0  0  0  0
    5.0809   47.3916   59.9475 H   0  0  0  0  0  0  0  0  0  0  0  0
    5.6354   45.6175   59.9908 H   0  0  0  0  0  0  0  0  0  0  0  0
    7.1259   48.2220   59.7872 H   0  0  0  0  0  0  0  0  0  0  0  0
    8.0479   48.0656   58.2536 H   0  0  0  0  0  0  0  0  0  0  0  0
    6.4311   48.8481   58.2536 H   0  0  0  0  0  0  0  0  0  0  0  0
    4.3031   43.9869   58.3476 H   0  0  0  0  0  0  0  0  0  0  0  0
   -0.5247   48.3863   57.5972 H   0  0  0  0  0  0  0  0  0  0  0  0
   -0.1513   45.9790   57.0140 H   0  0  0  0  0  0  0  0  0  0  0  0
    3.6027   49.5543   61.9930 H   0  0  0  0  0  0  0  0  0  0  0  0
    3.1899   51.2794   61.8755 H   0  0  0  0  0  0  0  0  0  0  0  0
    5.6862   49.9125   60.7554 H   0  0  0  0  0  0  0  0  0  0  0  0
    5.2434   51.6804   60.5742 H   0  0  0  0  0  0  0  0  0  0  0  0
    2.6019   52.8380   60.5499 H   0  0  0  0  0  0  0  0  0  0  0  0
    6.2069   48.9992   63.0257 H   0  0  0  0  0  0  0  0  0  0  0  0
    3.4123   48.8372   59.1843 H   0  0  0  0  0  0  0  0  0  0  0  0
   -1.0081   52.6710   58.1431 H   0  0  0  0  0  0  0  0  0  0  0  0
   -0.5905   50.2490   57.5929 H   0  0  0  0  0  0  0  0  0  0  0  0
    6.0586   46.8807   57.5005 H   0  0  0  0  0  0  0  0  0  0  0  0
    7.5726   45.2581   59.4268 H   0  0  0  0  0  0  0  0  0  0  0  0
    6.8266   44.7547   57.8722 H   0  0  0  0  0  0  0  0  0  0  0  0
    8.2491   45.8517   57.8722 H   0  0  0  0  0  0  0  0  0  0  0  0
    5.6724   53.2412   62.2339 H   0  0  0  0  0  0  0  0  0  0  0  0
    7.6079   52.0299   65.8041 H   0  0  0  0  0  0  0  0  0  0  0  0
    7.4050   49.6879   65.1268 H   0  0  0  0  0  0  0  0  0  0  0  0
  1  2  1  0
  1  4  1  0
  1 16  2  0
  2 23  1  0
 23  3  1  0
  4 21  1  0
  5  6  2  0
  5  8  1  0
  6  7  1  0
  7 16  1  0
  7 21  2  0
  8 15  1  0
  8 17  2  0
  9 10  1  0
  9 25  1  0
 10 11  1  0
 11 14  2  0
 11 26  1  0
 12 13  2  0
 12 15  1  0
 12 25  1  0
 13 18  1  0
 14 29  1  0
 15 20  2  0
 16 17  1  0
 18 19  2  0
 18 22  1  0
 19 20  1  0
 23 24  1  0
 26 27  2  0
 27 28  1  0
 28 29  2  0
  2 30  1  0
  2 31  1  0
  3 32  1  0
  3 33  1  0
  3 34  1  0
  4 35  1  0
  5 36  1  0
  6 37  1  0
  9 38  1  0
  9 39  1  0
 10 40  1  0
 10 41  1  0
 13 42  1  0
 14 43  1  0
 17 44  1  0
 19 45  1  0
 20 46  1  0
 23 47  1  6
 24 48  1  0
 24 49  1  0
 24 50  1  0
 26 51  1  0
 28 52  1  0
 29 53  1  0
M  CHG  1  23   1
M  END
>  <filename_input>  (4) 
6TW7_NZB_docked.sdf

>  <pdb_id>  (4) 
6TW7_NZB

>  <pose_rank>  (4) 
3

>  <num_atoms_heavy>  (4) 
29

>  <num_torsions>  (4) 
7

>  <pose>  (4) 
[2.1590022806389233, 50.90589663735234, 59.59098198080362, -1.549038721553746, -1.094347164937874, 5.583891194998133, -8.791882014160421, 2.8948291990774253, 3.469876035194821, 0.6872977969997769, 0.8345372054115688, -1.998705714970112, -0.3577580580574243]

>  <energy>  (4) 
-790.6263088935468

>  <inter_energy>  (4) 
-835.8966728106718

>  <intra_energy>  (4) 
38.282392012558944

>  <rmsd>  (4) 
3.11914

>  <sdf_rank>  (4) 
0

$$$$

     RDKit          3D

 53 56  0  0  0  0  0  0  0  0999 V2000
    5.7881   47.0045   58.8310 C   0  0  0  0  0  0  0  0  0  0  0  0
    7.0228   47.8531   58.7297 C   0  0  0  0  0  0  0  0  0  0  0  0
    8.9933   46.6161   57.9280 C   0  0  0  0  0  0  0  0  0  0  0  0
    5.6784   45.6713   58.8009 N   0  0  0  0  0  0  0  0  0  0  0  0
    1.7461   47.8748   59.1089 C   0  0  0  0  0  0  0  0  0  0  0  0
    2.1850   46.5386   59.0189 C   0  0  0  0  0  0  0  0  0  0  0  0
    3.5938   46.3414   58.9340 C   0  0  0  0  0  0  0  0  0  0  0  0
    2.5978   48.9904   59.0683 C   0  0  0  0  0  0  0  0  0  0  0  0
    5.2357   51.9420   60.4077 C   0  0  0  0  0  0  0  0  0  0  0  0
    5.3807   52.2355   61.8837 C   0  0  0  0  0  0  0  0  0  0  0  0
    5.8512   51.0678   62.6958 C   0  0  0  0  0  0  0  0  0  0  0  0
    2.9635   51.4280   59.7763 C   0  0  0  0  0  0  0  0  0  0  0  0
    2.4920   52.7502   59.8782 C   0  0  0  0  0  0  0  0  0  0  0  0
    5.3474   50.9124   63.9979 C   0  0  0  0  0  0  0  0  0  0  0  0
    2.1165   50.4125   59.2189 C   0  0  0  0  0  0  0  0  0  0  0  0
    4.4330   47.5176   58.9237 C   0  0  0  0  0  0  0  0  0  0  0  0
    3.9271   48.8054   58.9514 C   0  0  0  0  0  0  0  0  0  0  0  0
    1.2430   52.9721   59.3397 C   0  0  0  0  0  0  0  0  0  0  0  0
    0.4253   52.0247   58.7425 C   0  0  0  0  0  0  0  0  0  0  0  0
    0.8852   50.7142   58.6634 C   0  0  0  0  0  0  0  0  0  0  0  0
    4.3769   45.2299   58.9046 N   0  0  0  0  0  0  0  0  0  0  0  0
    0.6781   54.2051   59.3943 F   0  0  0  0  0  0  0  0  0  0  0  0
    8.3239   47.2198   59.0776 N   0  0  1  0  0  0  0  0  0  0  0  0
    9.1317   48.1669   59.8952 C   0  0  0  0  0  0  0  0  0  0  0  0
    4.1377   51.0484   60.2697 O   0  0  0  0  0  0  0  0  0  0  0  0
    6.7919   50.1743   62.1779 C   0  0  0  0  0  0  0  0  0  0  0  0
    7.2525   49.1009   62.8841 N   0  0  0  0  0  0  0  0  0  0  0  0
    6.7867   48.9335   64.1462 C   0  0  0  0  0  0  0  0  0  0  0  0
    5.8427   49.7955   64.6764 C   0  0  0  0  0  0  0  0  0  0  0  0
    7.0956   48.2056   57.6903 H   0  0  0  0  0  0  0  0  0  0  0  0
    6.8839   48.6401   59.4856 H   0  0  0  0  0  0  0  0  0  0  0  0
    9.7674   45.9180   58.2794 H   0  0  0  0  0  0  0  0  0  0  0  0
    8.2568   46.0709   57.3195 H   0  0  0  0  0  0  0  0  0  0  0  0
    9.4598   47.4048   57.3195 H   0  0  0  0  0  0  0  0  0  0  0  0
    6.4858   45.0383   58.7095 H   0  0  0  0  0  0  0  0  0  0  0  0
    0.6666   48.0554   59.2181 H   0  0  0  0  0  0  0  0  0  0  0  0
    1.4794   45.6948   59.0144 H   0  0  0  0  0  0  0  0  0  0  0  0
    5.0381   52.8722   59.8548 H   0  0  0  0  0  0  0  0  0  0  0  0
    6.1572   51.4988   60.0022 H   0  0  0  0  0  0  0  0  0  0  0  0
    6.1056   53.0542   62.0036 H   0  0  0  0  0  0  0  0  0  0  0  0
    4.3790   52.4974   62.2552 H   0  0  0  0  0  0  0  0  0  0  0  0
    3.0788   53.5498   60.3539 H   0  0  0  0  0  0  0  0  0  0  0  0
    4.6247   51.6105   64.4454 H   0  0  0  0  0  0  0  0  0  0  0  0
    4.6038   49.6696   58.8786 H   0  0  0  0  0  0  0  0  0  0  0  0
   -0.5609   52.3021   58.3420 H   0  0  0  0  0  0  0  0  0  0  0  0
    0.2842   49.9357   58.1708 H   0  0  0  0  0  0  0  0  0  0  0  0
    8.1636   46.3971   59.6763 H   0  0  0  0  0  0  0  0  0  0  0  0
    8.9611   47.9669   60.9633 H   0  0  0  0  0  0  0  0  0  0  0  0
   10.1987   48.0339   59.6631 H   0  0  0  0  0  0  0  0  0  0  0  0
    8.8320   49.1995   59.6631 H   0  0  0  0  0  0  0  0  0  0  0  0
    7.1766   50.3423   61.1611 H   0  0  0  0  0  0  0  0  0  0  0  0
    7.1644   48.1007   64.7575 H   0  0  0  0  0  0  0  0  0  0  0  0
    5.4611   49.5902   65.6875 H   0  0  0  0  0  0  0  0  0  0  0  0
  1  2  1  0
  1  4  1  0
  1 16  2  0
  2 23  1  0
 23  3  1  0
  4 21  1  0
  5  6  2  0
  5  8  1  0
  6  7  1  0
  7 16  1  0
  7 21  2  0
  8 15  1  0
  8 17  2  0
  9 10  1  0
  9 25  1  0
 10 11  1  0
 11 14  2  0
 11 26  1  0
 12 13  2  0
 12 15  1  0
 12 25  1  0
 13 18  1  0
 14 29  1  0
 15 20  2  0
 16 17  1  0
 18 19  2  0
 18 22  1  0
 19 20  1  0
 23 24  1  0
 26 27  2  0
 27 28  1  0
 28 29  2  0
  2 30  1  0
  2 31  1  0
  3 32  1  0
  3 33  1  0
  3 34  1  0
  4 35  1  0
  5 36  1  0
  6 37  1  0
  9 38  1  0
  9 39  1  0
 10 40  1  0
 10 41  1  0
 13 42  1  0
 14 43  1  0
 17 44  1  0
 19 45  1  0
 20 46  1  0
 23 47  1  1
 24 48  1  0
 24 49  1  0
 24 50  1  0
 26 51  1  0
 28 52  1  0
 29 53  1  0
M  CHG  1  23   1
M  END
>  <filename_input>  (5) 
6TW7_NZB_docked.sdf

>  <pdb_id>  (5) 
6TW7_NZB

>  <pose_rank>  (5) 
4

>  <num_atoms_heavy>  (5) 
29

>  <num_torsions>  (5) 
7

>  <pose>  (5) 
[2.9634649197536125, 51.428013470851965, 59.77631073342459, 2.348286455823298, -3.0281529290112292, 4.672418951355219, 3.4247343237896106, 1.1437970827528707, 2.7819280184174904, -0.4012175932456093, -1.4170869828235781, -3.8903846677717597, 1.9626329089987748]

>  <energy>  (5) 
-847.7945003763541

>  <inter_energy>  (5) 
-875.3176398348863

>  <intra_energy>  (5) 
33.61257935118459

>  <rmsd>  (5) 
3.3636

>  <sdf_rank>  (5) 
0

$$$$

     RDKit          3D

 53 56  0  0  0  0  0  0  0  0999 V2000
    6.9288   47.8347   58.6408 C   0  0  0  0  0  0  0  0  0  0  0  0
    7.9549   48.9209   58.4920 C   0  0  0  0  0  0  0  0  0  0  0  0
    8.6218   48.6791   60.8484 C   0  0  0  0  0  0  0  0  0  0  0  0
    7.0939   46.5080   58.5870 N   0  0  0  0  0  0  0  0  0  0  0  0
    2.8170   47.8491   59.1555 C   0  0  0  0  0  0  0  0  0  0  0  0
    3.5152   46.6334   59.0123 C   0  0  0  0  0  0  0  0  0  0  0  0
    4.9271   46.7320   58.8472 C   0  0  0  0  0  0  0  0  0  0  0  0
    3.4176   49.1169   59.0938 C   0  0  0  0  0  0  0  0  0  0  0  0
    5.2332   52.2739   61.1457 C   0  0  0  0  0  0  0  0  0  0  0  0
    5.8633   51.8285   62.4459 C   0  0  0  0  0  0  0  0  0  0  0  0
    7.0253   52.6678   62.8810 C   0  0  0  0  0  0  0  0  0  0  0  0
    3.2160   51.4710   60.0911 C   0  0  0  0  0  0  0  0  0  0  0  0
    2.4976   52.6716   60.2430 C   0  0  0  0  0  0  0  0  0  0  0  0
    6.7864   53.7350   63.7628 C   0  0  0  0  0  0  0  0  0  0  0  0
    2.6638   50.4074   59.3018 C   0  0  0  0  0  0  0  0  0  0  0  0
    5.5049   48.0562   58.8178 C   0  0  0  0  0  0  0  0  0  0  0  0
    4.7476   49.2114   58.9013 C   0  0  0  0  0  0  0  0  0  0  0  0
    1.3223   52.7479   59.5275 C   0  0  0  0  0  0  0  0  0  0  0  0
    0.7916   51.7609   58.7108 C   0  0  0  0  0  0  0  0  0  0  0  0
    1.4934   50.5668   58.5805 C   0  0  0  0  0  0  0  0  0  0  0  0
    5.9189   45.8064   58.7509 N   0  0  0  0  0  0  0  0  0  0  0  0
    0.5365   53.8518   59.6085 F   0  0  0  0  0  0  0  0  0  0  0  0
    9.0629   48.9621   59.4849 N   0  0  1  0  0  0  0  0  0  0  0  0
   10.2110   48.1602   58.9779 C   0  0  0  0  0  0  0  0  0  0  0  0
    4.3547   51.2337   60.7342 O   0  0  0  0  0  0  0  0  0  0  0  0
    8.3096   52.4111   62.3950 C   0  0  0  0  0  0  0  0  0  0  0  0
    9.3955   53.1533   62.7600 N   0  0  0  0  0  0  0  0  0  0  0  0
    9.1894   54.1935   63.6045 C   0  0  0  0  0  0  0  0  0  0  0  0
    7.9296   54.4588   64.1124 C   0  0  0  0  0  0  0  0  0  0  0  0
    8.4091   48.8106   57.4962 H   0  0  0  0  0  0  0  0  0  0  0  0
    7.3984   49.8556   58.6552 H   0  0  0  0  0  0  0  0  0  0  0  0
    9.3259   49.1307   61.5628 H   0  0  0  0  0  0  0  0  0  0  0  0
    7.6187   49.1029   61.0047 H   0  0  0  0  0  0  0  0  0  0  0  0
    8.5884   47.5908   61.0047 H   0  0  0  0  0  0  0  0  0  0  0  0
    8.0075   46.0563   58.4381 H   0  0  0  0  0  0  0  0  0  0  0  0
    1.7315   47.8019   59.3267 H   0  0  0  0  0  0  0  0  0  0  0  0
    2.9988   45.6622   59.0271 H   0  0  0  0  0  0  0  0  0  0  0  0
    4.6700   53.2063   61.2983 H   0  0  0  0  0  0  0  0  0  0  0  0
    6.0010   52.4657   60.3817 H   0  0  0  0  0  0  0  0  0  0  0  0
    5.0956   51.8666   63.2328 H   0  0  0  0  0  0  0  0  0  0  0  0
    6.2505   50.8124   62.2792 H   0  0  0  0  0  0  0  0  0  0  0  0
    2.8492   53.4910   60.8872 H   0  0  0  0  0  0  0  0  0  0  0  0
    5.7846   53.9801   64.1455 H   0  0  0  0  0  0  0  0  0  0  0  0
    5.2269   50.1974   58.8114 H   0  0  0  0  0  0  0  0  0  0  0  0
   -0.1590   51.9179   58.1801 H   0  0  0  0  0  0  0  0  0  0  0  0
    1.1265   49.7678   57.9194 H   0  0  0  0  0  0  0  0  0  0  0  0
    9.4127   49.9263   59.5789 H   0  0  0  0  0  0  0  0  0  0  0  0
   10.7831   47.7606   59.8282 H   0  0  0  0  0  0  0  0  0  0  0  0
    9.8346   47.3276   58.3655 H   0  0  0  0  0  0  0  0  0  0  0  0
   10.8632   48.8002   58.3655 H   0  0  0  0  0  0  0  0  0  0  0  0
    8.4514   51.5781   61.6907 H   0  0  0  0  0  0  0  0  0  0  0  0
   10.0355   54.8358   63.8902 H   0  0  0  0  0  0  0  0  0  0  0  0
    7.8223   55.2849   64.8308 H   0  0  0  0  0  0  0  0  0  0  0  0
  1  2  1  0
  1  4  1  0
  1 16  2  0
  2 23  1  0
 23  3  1  0
  4 21  1  0
  5  6  2  0
  5  8  1  0
  6  7  1  0
  7 16  1  0
  7 21  2  0
  8 15  1  0
  8 17  2  0
  9 10  1  0
  9 25  1  0
 10 11  1  0
 11 14  2  0
 11 26  1  0
 12 13  2  0
 12 15  1  0
 12 25  1  0
 13 18  1  0
 14 29  1  0
 15 20  2  0
 16 17  1  0
 18 19  2  0
 18 22  1  0
 19 20  1  0
 23 24  1  0
 26 27  2  0
 27 28  1  0
 28 29  2  0
  2 30  1  0
  2 31  1  0
  3 32  1  0
  3 33  1  0
  3 34  1  0
  4 35  1  0
  5 36  1  0
  6 37  1  0
  9 38  1  0
  9 39  1  0
 10 40  1  0
 10 41  1  0
 13 42  1  0
 14 43  1  0
 17 44  1  0
 19 45  1  0
 20 46  1  0
 23 47  1  1
 24 48  1  0
 24 49  1  0
 24 50  1  0
 26 51  1  0
 28 52  1  0
 29 53  1  0
M  CHG  1  23   1
M  END
>  <filename_input>  (6) 
6TW7_NZB_docked.sdf

>  <pdb_id>  (6) 
6TW7_NZB

>  <pose_rank>  (6) 
5

>  <num_atoms_heavy>  (6) 
29

>  <num_torsions>  (6) 
7

>  <pose>  (6) 
[3.2160467155793078, 51.47098159746272, 60.09109930790105, -3.4942115137628558, 5.061749765091611, 1.0428591550191257, -3.0963946347675333, 0.457870365520985, 0.48714138761435194, -0.3978438431635919, -0.7338254485817993, 4.119987948207559, -0.16183767946080055]

>  <energy>  (6) 
-781.3307999525867

>  <inter_energy>  (6) 
-806.6366784107865

>  <intra_energy>  (6) 
23.356517595555943

>  <rmsd>  (6) 
4.19011

>  <sdf_rank>  (6) 
0

$$$$

     RDKit          3D

 53 56  0  0  0  0  0  0  0  0999 V2000
    7.4248   48.9173   60.3324 C   0  0  0  0  0  0  0  0  0  0  0  0
    7.2186   48.2288   59.0139 C   0  0  0  0  0  0  0  0  0  0  0  0
    6.9093   45.9186   58.2243 C   0  0  0  0  0  0  0  0  0  0  0  0
    8.4054   48.7467   61.2265 N   0  0  0  0  0  0  0  0  0  0  0  0
    5.2293   51.7128   62.4623 C   0  0  0  0  0  0  0  0  0  0  0  0
    6.4075   51.1639   63.0067 C   0  0  0  0  0  0  0  0  0  0  0  0
    7.0957   50.2159   62.1953 C   0  0  0  0  0  0  0  0  0  0  0  0
    4.6874   51.3455   61.2201 C   0  0  0  0  0  0  0  0  0  0  0  0
    1.3826   48.9790   59.9840 C   0  0  0  0  0  0  0  0  0  0  0  0
    1.6581   48.4248   58.6046 C   0  0  0  0  0  0  0  0  0  0  0  0
    1.9985   46.9661   58.5887 C   0  0  0  0  0  0  0  0  0  0  0  0
    2.3246   51.1869   60.2358 C   0  0  0  0  0  0  0  0  0  0  0  0
    1.1793   51.8147   59.7112 C   0  0  0  0  0  0  0  0  0  0  0  0
    0.9680   46.0414   58.3509 C   0  0  0  0  0  0  0  0  0  0  0  0
    3.4535   51.9812   60.6281 C   0  0  0  0  0  0  0  0  0  0  0  0
    6.5159   49.8895   60.9126 C   0  0  0  0  0  0  0  0  0  0  0  0
    5.3184   50.4225   60.4687 C   0  0  0  0  0  0  0  0  0  0  0  0
    1.2187   53.1922   59.6966 C   0  0  0  0  0  0  0  0  0  0  0  0
    2.2706   53.9889   60.1225 C   0  0  0  0  0  0  0  0  0  0  0  0
    3.4099   53.3645   60.6198 C   0  0  0  0  0  0  0  0  0  0  0  0
    8.2680   49.5425   62.3434 N   0  0  0  0  0  0  0  0  0  0  0  0
    0.1775   53.9061   59.1980 F   0  0  0  0  0  0  0  0  0  0  0  0
    7.8215   46.8791   58.8402 N   0  0  1  0  0  0  0  0  0  0  0  0
    9.1657   47.0152   58.2138 C   0  0  0  0  0  0  0  0  0  0  0  0
    2.4509   49.8652   60.2946 O   0  0  0  0  0  0  0  0  0  0  0  0
    3.3052   46.5380   58.8354 C   0  0  0  0  0  0  0  0  0  0  0  0
    3.6588   45.2196   58.8363 N   0  0  0  0  0  0  0  0  0  0  0  0
    2.6804   44.3074   58.6165 C   0  0  0  0  0  0  0  0  0  0  0  0
    1.3815   44.7065   58.3538 C   0  0  0  0  0  0  0  0  0  0  0  0
    6.1339   48.1269   58.8619 H   0  0  0  0  0  0  0  0  0  0  0  0
    7.7394   48.8640   58.2823 H   0  0  0  0  0  0  0  0  0  0  0  0
    6.3792   45.3604   59.0101 H   0  0  0  0  0  0  0  0  0  0  0  0
    6.1796   46.4545   57.5995 H   0  0  0  0  0  0  0  0  0  0  0  0
    7.4822   45.2176   57.5995 H   0  0  0  0  0  0  0  0  0  0  0  0
    9.1850   48.0868   61.0935 H   0  0  0  0  0  0  0  0  0  0  0  0
    4.6999   52.4785   63.0483 H   0  0  0  0  0  0  0  0  0  0  0  0
    6.7756   51.4513   64.0027 H   0  0  0  0  0  0  0  0  0  0  0  0
    0.4264   49.5228   59.9892 H   0  0  0  0  0  0  0  0  0  0  0  0
    1.3137   48.1702   60.7265 H   0  0  0  0  0  0  0  0  0  0  0  0
    0.7616   48.5772   57.9857 H   0  0  0  0  0  0  0  0  0  0  0  0
    2.5375   48.9602   58.2173 H   0  0  0  0  0  0  0  0  0  0  0  0
    0.3142   51.2462   59.3393 H   0  0  0  0  0  0  0  0  0  0  0  0
   -0.0756   46.3425   58.1771 H   0  0  0  0  0  0  0  0  0  0  0  0
    4.8860   50.0955   59.5116 H   0  0  0  0  0  0  0  0  0  0  0  0
    2.2059   55.0857   60.0686 H   0  0  0  0  0  0  0  0  0  0  0  0
    4.2565   53.9565   60.9977 H   0  0  0  0  0  0  0  0  0  0  0  0
    7.9825   46.4468   59.7612 H   0  0  0  0  0  0  0  0  0  0  0  0
    9.9307   47.0926   59.0004 H   0  0  0  0  0  0  0  0  0  0  0  0
    9.3701   46.1331   57.5891 H   0  0  0  0  0  0  0  0  0  0  0  0
    9.1892   47.9203   57.5891 H   0  0  0  0  0  0  0  0  0  0  0  0
    4.0795   47.2929   59.0369 H   0  0  0  0  0  0  0  0  0  0  0  0
    2.9224   43.2348   58.6473 H   0  0  0  0  0  0  0  0  0  0  0  0
    0.6335   43.9301   58.1354 H   0  0  0  0  0  0  0  0  0  0  0  0
  1  2  1  0
  1  4  1  0
  1 16  2  0
  2 23  1  0
 23  3  1  0
  4 21  1  0
  5  6  2  0
  5  8  1  0
  6  7  1  0
  7 16  1  0
  7 21  2  0
  8 15  1  0
  8 17  2  0
  9 10  1  0
  9 25  1  0
 10 11  1  0
 11 14  2  0
 11 26  1  0
 12 13  2  0
 12 15  1  0
 12 25  1  0
 13 18  1  0
 14 29  1  0
 15 20  2  0
 16 17  1  0
 18 19  2  0
 18 22  1  0
 19 20  1  0
 23 24  1  0
 26 27  2  0
 27 28  1  0
 28 29  2  0
  2 30  1  0
  2 31  1  0
  3 32  1  0
  3 33  1  0
  3 34  1  0
  4 35  1  0
  5 36  1  0
  6 37  1  0
  9 38  1  0
  9 39  1  0
 10 40  1  0
 10 41  1  0
 13 42  1  0
 14 43  1  0
 17 44  1  0
 19 45  1  0
 20 46  1  0
 23 47  1  1
 24 48  1  0
 24 49  1  0
 24 50  1  0
 26 51  1  0
 28 52  1  0
 29 53  1  0
M  CHG  1  23   1
M  END
>  <filename_input>  (7) 
6TW7_NZB_docked.sdf

>  <pdb_id>  (7) 
6TW7_NZB

>  <pose_rank>  (7) 
6

>  <num_atoms_heavy>  (7) 
29

>  <num_torsions>  (7) 
7

>  <pose>  (7) 
[2.32457664054137, 51.186923572697026, 60.235767031641906, 1.8613784671444713, -2.0020686263219254, 0.5291206692973806, 48.88328944027825, -10.601006799361317, 3.54804695146213, 56.49889534249482, 73.91644600049047, 59.683025450241644, -6.423849714838703]

>  <energy>  (7) 
-773.6321077495484

>  <inter_energy>  (7) 
-799.4817238338633

>  <intra_energy>  (7) 
18.766390521654415

>  <rmsd>  (7) 
5.67883

>  <sdf_rank>  (7) 
0

$$$$

     RDKit          3D

 53 56  0  0  0  0  0  0  0  0999 V2000
    7.1365   51.7421   62.7472 C   0  0  0  0  0  0  0  0  0  0  0  0
    6.7692   52.7602   63.7881 C   0  0  0  0  0  0  0  0  0  0  0  0
    5.4709   51.0432   64.9808 C   0  0  0  0  0  0  0  0  0  0  0  0
    8.2698   51.0428   62.6170 N   0  0  0  0  0  0  0  0  0  0  0  0
    5.2191   50.3014   59.3679 C   0  0  0  0  0  0  0  0  0  0  0  0
    6.5231   49.8729   59.6871 C   0  0  0  0  0  0  0  0  0  0  0  0
    7.0948   50.4198   60.8724 C   0  0  0  0  0  0  0  0  0  0  0  0
    4.4962   51.2507   60.1080 C   0  0  0  0  0  0  0  0  0  0  0  0
    1.4731   48.3660   59.6637 C   0  0  0  0  0  0  0  0  0  0  0  0
    1.9933   47.8819   58.3292 C   0  0  0  0  0  0  0  0  0  0  0  0
    2.7439   46.5873   58.3990 C   0  0  0  0  0  0  0  0  0  0  0  0
    2.0027   50.7141   59.8410 C   0  0  0  0  0  0  0  0  0  0  0  0
    0.6902   51.1352   59.5566 C   0  0  0  0  0  0  0  0  0  0  0  0
    2.0599   45.4001   58.0889 C   0  0  0  0  0  0  0  0  0  0  0  0
    3.0807   51.6595   59.7825 C   0  0  0  0  0  0  0  0  0  0  0  0
    6.3032   51.3718   61.6174 C   0  0  0  0  0  0  0  0  0  0  0  0
    5.0507   51.7952   61.2084 C   0  0  0  0  0  0  0  0  0  0  0  0
    0.5446   52.4845   59.3172 C   0  0  0  0  0  0  0  0  0  0  0  0
    1.5569   53.4321   59.3112 C   0  0  0  0  0  0  0  0  0  0  0  0
    2.8564   53.0088   59.5708 C   0  0  0  0  0  0  0  0  0  0  0  0
    8.2679   50.2019   61.5250 N   0  0  0  0  0  0  0  0  0  0  0  0
   -0.6728   53.0035   59.0157 F   0  0  0  0  0  0  0  0  0  0  0  0
    6.2747   52.2574   65.0987 N   0  0  1  0  0  0  0  0  0  0  0  0
    7.4030   52.2157   66.0698 C   0  0  0  0  0  0  0  0  0  0  0  0
    2.3110   49.4415   60.0687 O   0  0  0  0  0  0  0  0  0  0  0  0
    4.0839   46.5625   58.7933 C   0  0  0  0  0  0  0  0  0  0  0  0
    4.8042   45.4061   58.8762 N   0  0  0  0  0  0  0  0  0  0  0  0
    4.1642   44.2461   58.5889 C   0  0  0  0  0  0  0  0  0  0  0  0
    2.8418   44.2454   58.1806 C   0  0  0  0  0  0  0  0  0  0  0  0
    7.6650   53.3674   63.9852 H   0  0  0  0  0  0  0  0  0  0  0  0
    5.9160   53.3049   63.3576 H   0  0  0  0  0  0  0  0  0  0  0  0
    5.2230   50.6687   65.9849 H   0  0  0  0  0  0  0  0  0  0  0  0
    4.5434   51.2692   64.4343 H   0  0  0  0  0  0  0  0  0  0  0  0
    6.0412   50.2776   64.4343 H   0  0  0  0  0  0  0  0  0  0  0  0
    9.0640   51.1247   63.2677 H   0  0  0  0  0  0  0  0  0  0  0  0
    4.7364   49.8639   58.4816 H   0  0  0  0  0  0  0  0  0  0  0  0
    7.0694   49.1560   59.0565 H   0  0  0  0  0  0  0  0  0  0  0  0
    0.4345   48.7136   59.5611 H   0  0  0  0  0  0  0  0  0  0  0  0
    1.4848   47.5561   60.4079 H   0  0  0  0  0  0  0  0  0  0  0  0
    1.1367   47.7485   57.6521 H   0  0  0  0  0  0  0  0  0  0  0  0
    2.7035   48.6416   57.9709 H   0  0  0  0  0  0  0  0  0  0  0  0
   -0.1591   50.4368   59.5276 H   0  0  0  0  0  0  0  0  0  0  0  0
    0.9991   45.3810   57.7985 H   0  0  0  0  0  0  0  0  0  0  0  0
    4.5132   52.5688   61.7764 H   0  0  0  0  0  0  0  0  0  0  0  0
    1.3383   54.4906   59.1065 H   0  0  0  0  0  0  0  0  0  0  0  0
    3.6864   53.7297   59.6069 H   0  0  0  0  0  0  0  0  0  0  0  0
    5.5897   52.9189   65.4913 H   0  0  0  0  0  0  0  0  0  0  0  0
    7.0051   52.2304   67.0952 H   0  0  0  0  0  0  0  0  0  0  0  0
    7.9856   51.2955   65.9158 H   0  0  0  0  0  0  0  0  0  0  0  0
    8.0519   53.0906   65.9158 H   0  0  0  0  0  0  0  0  0  0  0  0
    4.5778   47.5121   59.0468 H   0  0  0  0  0  0  0  0  0  0  0  0
    4.7035   43.2919   58.6816 H   0  0  0  0  0  0  0  0  0  0  0  0
    2.3808   43.2830   57.9136 H   0  0  0  0  0  0  0  0  0  0  0  0
  1  2  1  0
  1  4  1  0
  1 16  2  0
  2 23  1  0
 23  3  1  0
  4 21  1  0
  5  6  2  0
  5  8  1  0
  6  7  1  0
  7 16  1  0
  7 21  2  0
  8 15  1  0
  8 17  2  0
  9 10  1  0
  9 25  1  0
 10 11  1  0
 11 14  2  0
 11 26  1  0
 12 13  2  0
 12 15  1  0
 12 25  1  0
 13 18  1  0
 14 29  1  0
 15 20  2  0
 16 17  1  0
 18 19  2  0
 18 22  1  0
 19 20  1  0
 23 24  1  0
 26 27  2  0
 27 28  1  0
 28 29  2  0
  2 30  1  0
  2 31  1  0
  3 32  1  0
  3 33  1  0
  3 34  1  0
  4 35  1  0
  5 36  1  0
  6 37  1  0
  9 38  1  0
  9 39  1  0
 10 40  1  0
 10 41  1  0
 13 42  1  0
 14 43  1  0
 17 44  1  0
 19 45  1  0
 20 46  1  0
 23 47  1  1
 24 48  1  0
 24 49  1  0
 24 50  1  0
 26 51  1  0
 28 52  1  0
 29 53  1  0
M  CHG  1  23   1
M  END
>  <filename_input>  (8) 
6TW7_NZB_docked.sdf

>  <pdb_id>  (8) 
6TW7_NZB

>  <pose_rank>  (8) 
7

>  <num_atoms_heavy>  (8) 
29

>  <num_torsions>  (8) 
7

>  <pose>  (8) 
[2.0027017112740704, 50.714123076601446, 59.84102491256443, 1.834458249404111, -1.6376879376576945, 0.44125432871825604, 1.8921876895361525, -12.459237890807394, 0.5790887760996488, 0.42402551541813727, 10.950977847376729, 9.304950799377133, -0.09578359959275257]

>  <energy>  (8) 
-799.06129503087

>  <inter_energy>  (8) 
-818.8644149425677

>  <intra_energy>  (8) 
10.459636288788065

>  <rmsd>  (8) 
6.56343

>  <sdf_rank>  (8) 
0

$$$$

     RDKit          3D

 53 56  0  0  0  0  0  0  0  0999 V2000
    5.7519   46.6273   59.1639 C   0  0  0  0  0  0  0  0  0  0  0  0
    7.0401   47.3937   59.2541 C   0  0  0  0  0  0  0  0  0  0  0  0
    6.9681   47.9006   61.6612 C   0  0  0  0  0  0  0  0  0  0  0  0
    5.5633   45.3055   59.0777 N   0  0  0  0  0  0  0  0  0  0  0  0
    1.7725   47.7592   58.9300 C   0  0  0  0  0  0  0  0  0  0  0  0
    2.1342   46.3991   58.8571 C   0  0  0  0  0  0  0  0  0  0  0  0
    3.5262   46.1102   58.9539 C   0  0  0  0  0  0  0  0  0  0  0  0
    2.6907   48.8161   59.0379 C   0  0  0  0  0  0  0  0  0  0  0  0
   -0.5849   50.3580   56.8654 C   0  0  0  0  0  0  0  0  0  0  0  0
   -1.9205   50.3780   57.5736 C   0  0  0  0  0  0  0  0  0  0  0  0
   -3.0249   51.0036   56.7780 C   0  0  0  0  0  0  0  0  0  0  0  0
    1.0689   50.7491   58.5794 C   0  0  0  0  0  0  0  0  0  0  0  0
    0.7068   52.0994   58.7421 C   0  0  0  0  0  0  0  0  0  0  0  0
   -2.7975   51.2783   55.4192 C   0  0  0  0  0  0  0  0  0  0  0  0
    2.2843   50.2634   59.1679 C   0  0  0  0  0  0  0  0  0  0  0  0
    4.4319   47.2277   59.0920 C   0  0  0  0  0  0  0  0  0  0  0  0
    4.0092   48.5454   59.0927 C   0  0  0  0  0  0  0  0  0  0  0  0
    1.5438   52.8393   59.5490 C   0  0  0  0  0  0  0  0  0  0  0  0
    2.6925   52.3843   60.1786 C   0  0  0  0  0  0  0  0  0  0  0  0
    3.0596   51.0547   59.9975 C   0  0  0  0  0  0  0  0  0  0  0  0
    4.2344   44.9498   58.9938 N   0  0  0  0  0  0  0  0  0  0  0  0
    1.3041   54.1576   59.7658 F   0  0  0  0  0  0  0  0  0  0  0  0
    7.1499   48.4336   60.3133 N   0  0  1  0  0  0  0  0  0  0  0  0
    8.3742   49.2489   60.0804 C   0  0  0  0  0  0  0  0  0  0  0  0
    0.3785   49.9120   57.8119 O   0  0  0  0  0  0  0  0  0  0  0  0
   -4.2397   51.3328   57.3841 C   0  0  0  0  0  0  0  0  0  0  0  0
   -5.2704   51.9089   56.6993 N   0  0  0  0  0  0  0  0  0  0  0  0
   -5.0727   52.1905   55.3880 C   0  0  0  0  0  0  0  0  0  0  0  0
   -3.8843   51.8599   54.7606 C   0  0  0  0  0  0  0  0  0  0  0  0
    7.8458   46.6643   59.4241 H   0  0  0  0  0  0  0  0  0  0  0  0
    7.1008   47.9510   58.3077 H   0  0  0  0  0  0  0  0  0  0  0  0
    7.2314   48.6725   62.3993 H   0  0  0  0  0  0  0  0  0  0  0  0
    5.9180   47.6039   61.7996 H   0  0  0  0  0  0  0  0  0  0  0  0
    7.6181   47.0240   61.7996 H   0  0  0  0  0  0  0  0  0  0  0  0
    6.3340   44.6222   59.0744 H   0  0  0  0  0  0  0  0  0  0  0  0
    0.7016   48.0091   58.9006 H   0  0  0  0  0  0  0  0  0  0  0  0
    1.3836   45.6047   58.7325 H   0  0  0  0  0  0  0  0  0  0  0  0
   -0.6211   49.6685   56.0091 H   0  0  0  0  0  0  0  0  0  0  0  0
   -0.3274   51.3566   56.4826 H   0  0  0  0  0  0  0  0  0  0  0  0
   -2.2052   49.3406   57.8035 H   0  0  0  0  0  0  0  0  0  0  0  0
   -1.7919   50.9931   58.4764 H   0  0  0  0  0  0  0  0  0  0  0  0
   -0.1813   52.5333   58.2595 H   0  0  0  0  0  0  0  0  0  0  0  0
   -1.8451   51.0547   54.9163 H   0  0  0  0  0  0  0  0  0  0  0  0
    4.7427   49.3638   59.1376 H   0  0  0  0  0  0  0  0  0  0  0  0
    3.2974   53.0568   60.8046 H   0  0  0  0  0  0  0  0  0  0  0  0
    3.9455   50.6419   60.5021 H   0  0  0  0  0  0  0  0  0  0  0  0
    6.3580   49.0886   60.2437 H   0  0  0  0  0  0  0  0  0  0  0  0
    8.8106   49.5395   61.0475 H   0  0  0  0  0  0  0  0  0  0  0  0
    9.1060   48.6572   59.5110 H   0  0  0  0  0  0  0  0  0  0  0  0
    8.1104   50.1523   59.5110 H   0  0  0  0  0  0  0  0  0  0  0  0
   -4.3709   51.1193   58.4552 H   0  0  0  0  0  0  0  0  0  0  0  0
   -5.8682   52.6889   54.8146 H   0  0  0  0  0  0  0  0  0  0  0  0
   -3.7899   52.0663   53.6843 H   0  0  0  0  0  0  0  0  0  0  0  0
  1  2  1  0
  1  4  1  0
  1 16  2  0
  2 23  1  0
 23  3  1  0
  4 21  1  0
  5  6  2  0
  5  8  1  0
  6  7  1  0
  7 16  1  0
  7 21  2  0
  8 15  1  0
  8 17  2  0
  9 10  1  0
  9 25  1  0
 10 11  1  0
 11 14  2  0
 11 26  1  0
 12 13  2  0
 12 15  1  0
 12 25  1  0
 13 18  1  0
 14 29  1  0
 15 20  2  0
 16 17  1  0
 18 19  2  0
 18 22  1  0
 19 20  1  0
 23 24  1  0
 26 27  2  0
 27 28  1  0
 28 29  2  0
  2 30  1  0
  2 31  1  0
  3 32  1  0
  3 33  1  0
  3 34  1  0
  4 35  1  0
  5 36  1  0
  6 37  1  0
  9 38  1  0
  9 39  1  0
 10 40  1  0
 10 41  1  0
 13 42  1  0
 14 43  1  0
 17 44  1  0
 19 45  1  0
 20 46  1  0
 23 47  1  6
 24 48  1  0
 24 49  1  0
 24 50  1  0
 26 51  1  0
 28 52  1  0
 29 53  1  0
M  CHG  1  23   1
M  END
>  <filename_input>  (9) 
6TW7_NZB_docked.sdf

>  <pdb_id>  (9) 
6TW7_NZB

>  <pose_rank>  (9) 
8

>  <num_atoms_heavy>  (9) 
29

>  <num_torsions>  (9) 
7

>  <pose>  (9) 
[1.0689310000051164, 50.749129413519015, 58.579365869466855, -1.2083252210205753, 2.842085669415334, 0.3388149906163773, -6.019098548844147, -0.7611384368051886, 2.2241410133623902, 44.322327864637195, 39.09847263449315, -8.374828068579886, 10.965140350360599]

>  <energy>  (9) 
-730.5124231614291

>  <inter_energy>  (9) 
-758.4234633542856

>  <intra_energy>  (9) 
29.072666766064042

>  <rmsd>  (9) 
7.36946

>  <sdf_rank>  (9) 
0

$$$$

     RDKit          3D

 53 56  0  0  0  0  0  0  0  0999 V2000
    1.0168   47.1925   59.2357 C   0  0  0  0  0  0  0  0  0  0  0  0
    0.6720   45.7330   59.1587 C   0  0  0  0  0  0  0  0  0  0  0  0
    2.3394   43.9491   58.8523 C   0  0  0  0  0  0  0  0  0  0  0  0
    0.2013   48.2433   59.3804 N   0  0  0  0  0  0  0  0  0  0  0  0
    4.5698   49.3022   58.9238 C   0  0  0  0  0  0  0  0  0  0  0  0
    3.3449   49.9831   59.0728 C   0  0  0  0  0  0  0  0  0  0  0  0
    2.1795   49.1698   59.1784 C   0  0  0  0  0  0  0  0  0  0  0  0
    4.6909   47.9068   58.8251 C   0  0  0  0  0  0  0  0  0  0  0  0
    8.0688   49.8370   60.1200 C   0  0  0  0  0  0  0  0  0  0  0  0
    7.2310   50.8364   60.8849 C   0  0  0  0  0  0  0  0  0  0  0  0
    6.9507   50.4412   62.3025 C   0  0  0  0  0  0  0  0  0  0  0  0
    7.2501   47.8696   58.9866 C   0  0  0  0  0  0  0  0  0  0  0  0
    8.4653   47.1645   58.9036 C   0  0  0  0  0  0  0  0  0  0  0  0
    7.0523   49.0840   62.6509 C   0  0  0  0  0  0  0  0  0  0  0  0
    6.0147   47.1904   58.7188 C   0  0  0  0  0  0  0  0  0  0  0  0
    2.3555   47.7378   59.0997 C   0  0  0  0  0  0  0  0  0  0  0  0
    3.5854   47.1395   58.8885 C   0  0  0  0  0  0  0  0  0  0  0  0
    8.3462   45.8168   58.6411 C   0  0  0  0  0  0  0  0  0  0  0  0
    7.1646   45.1207   58.4357 C   0  0  0  0  0  0  0  0  0  0  0  0
    5.9666   45.8252   58.4964 C   0  0  0  0  0  0  0  0  0  0  0  0
    0.8665   49.4503   59.3950 N   0  0  0  0  0  0  0  0  0  0  0  0
    9.4512   45.0376   58.5222 F   0  0  0  0  0  0  0  0  0  0  0  0
    1.4385   44.8943   58.1973 N   0  0  1  0  0  0  0  0  0  0  0  0
    0.5068   44.3297   57.1818 C   0  0  0  0  0  0  0  0  0  0  0  0
    7.1978   49.1790   59.2082 O   0  0  0  0  0  0  0  0  0  0  0  0
    6.5677   51.3983   63.2452 C   0  0  0  0  0  0  0  0  0  0  0  0
    6.2974   51.0823   64.5453 N   0  0  0  0  0  0  0  0  0  0  0  0
    6.3814   49.7778   64.9044 C   0  0  0  0  0  0  0  0  0  0  0  0
    6.7740   48.8128   63.9933 C   0  0  0  0  0  0  0  0  0  0  0  0
    0.8227   45.3058   60.1611 H   0  0  0  0  0  0  0  0  0  0  0  0
   -0.3630   45.7094   58.7870 H   0  0  0  0  0  0  0  0  0  0  0  0
    2.2447   44.0485   59.9437 H   0  0  0  0  0  0  0  0  0  0  0  0
    2.0759   42.9239   58.5533 H   0  0  0  0  0  0  0  0  0  0  0  0
    3.3761   44.1633   58.5533 H   0  0  0  0  0  0  0  0  0  0  0  0
   -0.8211   48.1587   59.4717 H   0  0  0  0  0  0  0  0  0  0  0  0
    5.4904   49.9028   58.8822 H   0  0  0  0  0  0  0  0  0  0  0  0
    3.2915   51.0813   59.1057 H   0  0  0  0  0  0  0  0  0  0  0  0
    8.8690   50.3555   59.5715 H   0  0  0  0  0  0  0  0  0  0  0  0
    8.5418   49.1157   60.8027 H   0  0  0  0  0  0  0  0  0  0  0  0
    7.7634   51.7989   60.8934 H   0  0  0  0  0  0  0  0  0  0  0  0
    6.2589   50.8933   60.3732 H   0  0  0  0  0  0  0  0  0  0  0  0
    9.4409   47.6543   59.0387 H   0  0  0  0  0  0  0  0  0  0  0  0
    7.3275   48.3014   61.9285 H   0  0  0  0  0  0  0  0  0  0  0  0
    3.6596   46.0481   58.7734 H   0  0  0  0  0  0  0  0  0  0  0  0
    7.1744   44.0402   58.2302 H   0  0  0  0  0  0  0  0  0  0  0  0
    5.0034   45.3091   58.3706 H   0  0  0  0  0  0  0  0  0  0  0  0
    2.1034   45.4814   57.6737 H   0  0  0  0  0  0  0  0  0  0  0  0
   -0.3274   43.8242   57.6905 H   0  0  0  0  0  0  0  0  0  0  0  0
    0.1143   45.1420   56.5525 H   0  0  0  0  0  0  0  0  0  0  0  0
    1.0452   43.6058   56.5525 H   0  0  0  0  0  0  0  0  0  0  0  0
    6.4807   52.4478   62.9274 H   0  0  0  0  0  0  0  0  0  0  0  0
    6.1340   49.4820   65.9346 H   0  0  0  0  0  0  0  0  0  0  0  0
    6.8724   47.7753   64.3451 H   0  0  0  0  0  0  0  0  0  0  0  0
  1  2  1  0
  1  4  1  0
  1 16  2  0
  2 23  1  0
 23  3  1  0
  4 21  1  0
  5  6  2  0
  5  8  1  0
  6  7  1  0
  7 16  1  0
  7 21  2  0
  8 15  1  0
  8 17  2  0
  9 10  1  0
  9 25  1  0
 10 11  1  0
 11 14  2  0
 11 26  1  0
 12 13  2  0
 12 15  1  0
 12 25  1  0
 13 18  1  0
 14 29  1  0
 15 20  2  0
 16 17  1  0
 18 19  2  0
 18 22  1  0
 19 20  1  0
 23 24  1  0
 26 27  2  0
 27 28  1  0
 28 29  2  0
  2 30  1  0
  2 31  1  0
  3 32  1  0
  3 33  1  0
  3 34  1  0
  4 35  1  0
  5 36  1  0
  6 37  1  0
  9 38  1  0
  9 39  1  0
 10 40  1  0
 10 41  1  0
 13 42  1  0
 14 43  1  0
 17 44  1  0
 19 45  1  0
 20 46  1  0
 23 47  1  6
 24 48  1  0
 24 49  1  0
 24 50  1  0
 26 51  1  0
 28 52  1  0
 29 53  1  0
M  CHG  1  23   1
M  END
>  <filename_input>  (10) 
6TW7_NZB_docked.sdf

>  <pdb_id>  (10) 
6TW7_NZB

>  <pose_rank>  (10) 
9

>  <num_atoms_heavy>  (10) 
29

>  <num_torsions>  (10) 
7

>  <pose>  (10) 
[7.25010050664056, 47.86961626876882, 58.98655093521202, 2.2046978419295797, 2.086469097887137, 1.2900482451295412, 1.0180313331900512, -2.291287914489924, 3.1179008146734124, -0.6033594715926615, 0.587614480656842, 3.0514891049365587, -2.170027504485019]

>  <energy>  (10) 
-707.748091729872

>  <inter_energy>  (10) 
-749.3068231870009

>  <intra_energy>  (10) 
41.08488721017884

>  <rmsd>  (10) 
4.70896

>  <sdf_rank>  (10) 
0

$$$$

     RDKit          3D

 53 56  0  0  0  0  0  0  0  0999 V2000
    4.1995   52.0856   62.5585 C   0  0  0  0  0  0  0  0  0  0  0  0
    4.8276   51.9784   63.9182 C   0  0  0  0  0  0  0  0  0  0  0  0
    5.1039   54.4237   63.9282 C   0  0  0  0  0  0  0  0  0  0  0  0
    3.1508   52.8208   62.1715 N   0  0  0  0  0  0  0  0  0  0  0  0
    4.9172   50.2138   58.9317 C   0  0  0  0  0  0  0  0  0  0  0  0
    3.8455   51.1184   59.0694 C   0  0  0  0  0  0  0  0  0  0  0  0
    3.6846   51.7157   60.3532 C   0  0  0  0  0  0  0  0  0  0  0  0
    5.7772   49.8429   59.9779 C   0  0  0  0  0  0  0  0  0  0  0  0
    5.2403   45.9901   58.3265 C   0  0  0  0  0  0  0  0  0  0  0  0
    4.1155   45.2835   59.0485 C   0  0  0  0  0  0  0  0  0  0  0  0
    2.7749   45.4472   58.4003 C   0  0  0  0  0  0  0  0  0  0  0  0
    6.7789   47.5885   59.2771 C   0  0  0  0  0  0  0  0  0  0  0  0
    7.9002   46.7565   59.1004 C   0  0  0  0  0  0  0  0  0  0  0  0
    2.2723   46.7470   58.2227 C   0  0  0  0  0  0  0  0  0  0  0  0
    6.9524   48.9131   59.8011 C   0  0  0  0  0  0  0  0  0  0  0  0
    4.6102   51.3252   61.3918 C   0  0  0  0  0  0  0  0  0  0  0  0
    5.6028   50.3799   61.2010 C   0  0  0  0  0  0  0  0  0  0  0  0
    9.1160   47.3407   59.3827 C   0  0  0  0  0  0  0  0  0  0  0  0
    9.3205   48.6357   59.8344 C   0  0  0  0  0  0  0  0  0  0  0  0
    8.2083   49.4482   60.0291 C   0  0  0  0  0  0  0  0  0  0  0  0
    2.8355   52.6602   60.8394 N   0  0  0  0  0  0  0  0  0  0  0  0
   10.2662   46.6298   59.2646 F   0  0  0  0  0  0  0  0  0  0  0  0
    4.9185   53.2197   64.7344 N   0  0  1  0  0  0  0  0  0  0  0  0
    3.8030   53.2455   65.7208 C   0  0  0  0  0  0  0  0  0  0  0  0
    5.5360   47.1653   59.0711 O   0  0  0  0  0  0  0  0  0  0  0  0
    2.0320   44.3301   58.0110 C   0  0  0  0  0  0  0  0  0  0  0  0
    0.8046   44.4324   57.4225 N   0  0  0  0  0  0  0  0  0  0  0  0
    0.2946   45.6761   57.2470 C   0  0  0  0  0  0  0  0  0  0  0  0
    1.0175   46.7992   57.6095 C   0  0  0  0  0  0  0  0  0  0  0  0
    4.2417   51.2475   64.4948 H   0  0  0  0  0  0  0  0  0  0  0  0
    5.8724   51.6956   63.7221 H   0  0  0  0  0  0  0  0  0  0  0  0
    5.2375   55.2916   64.5907 H   0  0  0  0  0  0  0  0  0  0  0  0
    5.9946   54.3064   63.2934 H   0  0  0  0  0  0  0  0  0  0  0  0
    4.2192   54.5798   63.2934 H   0  0  0  0  0  0  0  0  0  0  0  0
    2.6311   53.4444   62.8055 H   0  0  0  0  0  0  0  0  0  0  0  0
    5.0913   49.7695   57.9406 H   0  0  0  0  0  0  0  0  0  0  0  0
    3.1706   51.3506   58.2324 H   0  0  0  0  0  0  0  0  0  0  0  0
    6.1263   45.3399   58.2784 H   0  0  0  0  0  0  0  0  0  0  0  0
    4.9502   46.2402   57.2953 H   0  0  0  0  0  0  0  0  0  0  0  0
    4.3512   44.2098   59.0883 H   0  0  0  0  0  0  0  0  0  0  0  0
    4.0432   45.7397   60.0468 H   0  0  0  0  0  0  0  0  0  0  0  0
    7.8124   45.7138   58.7612 H   0  0  0  0  0  0  0  0  0  0  0  0
    2.8197   47.6470   58.5394 H   0  0  0  0  0  0  0  0  0  0  0  0
    6.2432   50.0701   62.0400 H   0  0  0  0  0  0  0  0  0  0  0  0
   10.3353   49.0106   60.0335 H   0  0  0  0  0  0  0  0  0  0  0  0
    8.3243   50.4919   60.3566 H   0  0  0  0  0  0  0  0  0  0  0  0
    5.7856   53.2101   65.2902 H   0  0  0  0  0  0  0  0  0  0  0  0
    4.2150   53.2360   66.7406 H   0  0  0  0  0  0  0  0  0  0  0  0
    3.2058   54.1577   65.5751 H   0  0  0  0  0  0  0  0  0  0  0  0
    3.1642   52.3619   65.5751 H   0  0  0  0  0  0  0  0  0  0  0  0
    2.4526   43.3287   58.1855 H   0  0  0  0  0  0  0  0  0  0  0  0
   -0.7080   45.7943   56.8102 H   0  0  0  0  0  0  0  0  0  0  0  0
    0.5805   47.7874   57.4036 H   0  0  0  0  0  0  0  0  0  0  0  0
  1  2  1  0
  1  4  1  0
  1 16  2  0
  2 23  1  0
 23  3  1  0
  4 21  1  0
  5  6  2  0
  5  8  1  0
  6  7  1  0
  7 16  1  0
  7 21  2  0
  8 15  1  0
  8 17  2  0
  9 10  1  0
  9 25  1  0
 10 11  1  0
 11 14  2  0
 11 26  1  0
 12 13  2  0
 12 15  1  0
 12 25  1  0
 13 18  1  0
 14 29  1  0
 15 20  2  0
 16 17  1  0
 18 19  2  0
 18 22  1  0
 19 20  1  0
 23 24  1  0
 26 27  2  0
 27 28  1  0
 28 29  2  0
  2 30  1  0
  2 31  1  0
  3 32  1  0
  3 33  1  0
  3 34  1  0
  4 35  1  0
  5 36  1  0
  6 37  1  0
  9 38  1  0
  9 39  1  0
 10 40  1  0
 10 41  1  0
 13 42  1  0
 14 43  1  0
 17 44  1  0
 19 45  1  0
 20 46  1  0
 23 47  1  1
 24 48  1  0
 24 49  1  0
 24 50  1  0
 26 51  1  0
 28 52  1  0
 29 53  1  0
M  CHG  1  23   1
M  END
>  <filename_input>  (11) 
6TW7_NZB_docked.sdf

>  <pdb_id>  (11) 
6TW7_NZB

>  <pose_rank>  (11) 
10

>  <num_atoms_heavy>  (11) 
29

>  <num_torsions>  (11) 
7

>  <pose>  (11) 
[6.778908344780713, 47.58850168141819, 59.27705815168218, -0.92395647683465, -1.330616462383007, 3.078667932703438, -0.2039808666800571, 0.8676578221692344, 0.6243088264796758, -6.501768906103809, -0.8472456774263565, -3.288290934506568, 3.4680125012056444]

>  <energy>  (11) 
-698.2989435393432

>  <inter_energy>  (11) 
-712.9720642452139

>  <intra_energy>  (11) 
20.0791751088122

>  <rmsd>  (11) 
8.04773

>  <sdf_rank>  (11) 
0

$$$$

     RDKit          3D

 53 56  0  0  0  0  0  0  0  0999 V2000
    2.8562   52.5174   60.0569 C   0  0  0  0  0  0  0  0  0  0  0  0
    2.2424   52.2007   58.7236 C   0  0  0  0  0  0  0  0  0  0  0  0
   -0.1455   52.6332   58.3150 C   0  0  0  0  0  0  0  0  0  0  0  0
    2.4941   53.4443   60.9513 N   0  0  0  0  0  0  0  0  0  0  0  0
    6.1615   51.0641   62.0904 C   0  0  0  0  0  0  0  0  0  0  0  0
    5.4024   52.1241   62.6253 C   0  0  0  0  0  0  0  0  0  0  0  0
    4.2810   52.5487   61.8553 C   0  0  0  0  0  0  0  0  0  0  0  0
    5.9070   50.4578   60.8497 C   0  0  0  0  0  0  0  0  0  0  0  0
    3.7644   47.5902   59.4884 C   0  0  0  0  0  0  0  0  0  0  0  0
    3.3656   46.1490   59.7108 C   0  0  0  0  0  0  0  0  0  0  0  0
    2.3003   45.6587   58.7786 C   0  0  0  0  0  0  0  0  0  0  0  0
    6.0698   48.0246   60.0561 C   0  0  0  0  0  0  0  0  0  0  0  0
    6.8313   46.9627   59.5331 C   0  0  0  0  0  0  0  0  0  0  0  0
    1.2528   46.5321   58.4416 C   0  0  0  0  0  0  0  0  0  0  0  0
    6.6974   49.2888   60.3155 C   0  0  0  0  0  0  0  0  0  0  0  0
    4.0415   51.8771   60.5985 C   0  0  0  0  0  0  0  0  0  0  0  0
    4.8685   50.8836   60.1047 C   0  0  0  0  0  0  0  0  0  0  0  0
    8.1404   47.2706   59.2322 C   0  0  0  0  0  0  0  0  0  0  0  0
    8.7595   48.4976   59.4166 C   0  0  0  0  0  0  0  0  0  0  0  0
    8.0100   49.5387   59.9545 C   0  0  0  0  0  0  0  0  0  0  0  0
    3.3002   53.4663   62.0690 N   0  0  0  0  0  0  0  0  0  0  0  0
    8.9752   46.3216   58.7373 F   0  0  0  0  0  0  0  0  0  0  0  0
    0.8592   51.6513   58.7155 N   0  0  1  0  0  0  0  0  0  0  0  0
    0.8474   50.3529   57.9861 C   0  0  0  0  0  0  0  0  0  0  0  0
    4.7995   47.8813   60.4195 O   0  0  0  0  0  0  0  0  0  0  0  0
    2.3350   44.3532   58.2827 C   0  0  0  0  0  0  0  0  0  0  0  0
    1.3830   43.8631   57.4361 N   0  0  0  0  0  0  0  0  0  0  0  0
    0.3577   44.6846   57.1018 C   0  0  0  0  0  0  0  0  0  0  0  0
    0.3089   45.9871   57.5669 C   0  0  0  0  0  0  0  0  0  0  0  0
    2.2303   53.1314   58.1373 H   0  0  0  0  0  0  0  0  0  0  0  0
    2.8664   51.3932   58.3132 H   0  0  0  0  0  0  0  0  0  0  0  0
   -0.6010   53.0784   59.2118 H   0  0  0  0  0  0  0  0  0  0  0  0
    0.3317   53.4226   57.7158 H   0  0  0  0  0  0  0  0  0  0  0  0
   -0.9238   52.1380   57.7158 H   0  0  0  0  0  0  0  0  0  0  0  0
    1.6931   54.0780   60.8179 H   0  0  0  0  0  0  0  0  0  0  0  0
    7.0080   50.6873   62.6832 H   0  0  0  0  0  0  0  0  0  0  0  0
    5.6612   52.5975   63.5839 H   0  0  0  0  0  0  0  0  0  0  0  0
    4.1312   47.7268   58.4604 H   0  0  0  0  0  0  0  0  0  0  0  0
    2.9058   48.2628   59.6314 H   0  0  0  0  0  0  0  0  0  0  0  0
    4.2576   45.5192   59.5780 H   0  0  0  0  0  0  0  0  0  0  0  0
    2.9502   46.0879   60.7276 H   0  0  0  0  0  0  0  0  0  0  0  0
    6.4112   45.9583   59.3757 H   0  0  0  0  0  0  0  0  0  0  0  0
    1.1817   47.5577   58.8329 H   0  0  0  0  0  0  0  0  0  0  0  0
    4.6798   50.4457   59.1134 H   0  0  0  0  0  0  0  0  0  0  0  0
    9.8153   48.6437   59.1448 H   0  0  0  0  0  0  0  0  0  0  0  0
    8.4503   50.5377   60.0897 H   0  0  0  0  0  0  0  0  0  0  0  0
    0.5626   51.4361   59.6781 H   0  0  0  0  0  0  0  0  0  0  0  0
    0.8398   49.5253   58.7107 H   0  0  0  0  0  0  0  0  0  0  0  0
   -0.0513   50.2953   57.3544 H   0  0  0  0  0  0  0  0  0  0  0  0
    1.7449   50.2790   57.3544 H   0  0  0  0  0  0  0  0  0  0  0  0
    3.1618   43.6943   58.5864 H   0  0  0  0  0  0  0  0  0  0  0  0
   -0.4468   44.3105   56.4516 H   0  0  0  0  0  0  0  0  0  0  0  0
   -0.5184   46.6288   57.2296 H   0  0  0  0  0  0  0  0  0  0  0  0
  1  2  1  0
  1  4  1  0
  1 16  2  0
  2 23  1  0
 23  3  1  0
  4 21  1  0
  5  6  2  0
  5  8  1  0
  6  7  1  0
  7 16  1  0
  7 21  2  0
  8 15  1  0
  8 17  2  0
  9 10  1  0
  9 25  1  0
 10 11  1  0
 11 14  2  0
 11 26  1  0
 12 13  2  0
 12 15  1  0
 12 25  1  0
 13 18  1  0
 14 29  1  0
 15 20  2  0
 16 17  1  0
 18 19  2  0
 18 22  1  0
 19 20  1  0
 23 24  1  0
 26 27  2  0
 27 28  1  0
 28 29  2  0
  2 30  1  0
  2 31  1  0
  3 32  1  0
  3 33  1  0
  3 34  1  0
  4 35  1  0
  5 36  1  0
  6 37  1  0
  9 38  1  0
  9 39  1  0
 10 40  1  0
 10 41  1  0
 13 42  1  0
 14 43  1  0
 17 44  1  0
 19 45  1  0
 20 46  1  0
 23 47  1  1
 24 48  1  0
 24 49  1  0
 24 50  1  0
 26 51  1  0
 28 52  1  0
 29 53  1  0
M  CHG  1  23   1
M  END
>  <filename_input>  (12) 
6TW7_NZB_docked.sdf

>  <pdb_id>  (12) 
6TW7_NZB

>  <pose_rank>  (12) 
11

>  <num_atoms_heavy>  (12) 
29

>  <num_torsions>  (12) 
7

>  <pose>  (12) 
[6.069829789126208, 48.02457040055482, 60.056120292562674, 0.32463744588917126, 1.0834108762585977, -2.932786641310496, 2.8486541621569526, 0.3841752514791222, -3.269881465923746, -1.0597937526379442, -1.4126487401169951, -1.924748185155121, -2.4737773306366257]

>  <energy>  (12) 
-731.065246631354

>  <inter_energy>  (12) 
-729.3372446743646

>  <intra_energy>  (12) 
13.999297143145155

>  <rmsd>  (12) 
7.31023

>  <sdf_rank>  (12) 
0

$$$$

     RDKit          3D

 53 56  0  0  0  0  0  0  0  0999 V2000
    7.4003   50.2051   61.8290 C   0  0  0  0  0  0  0  0  0  0  0  0
    6.5214   50.5774   62.9883 C   0  0  0  0  0  0  0  0  0  0  0  0
    6.7144   51.5647   65.2342 C   0  0  0  0  0  0  0  0  0  0  0  0
    8.6552   50.5882   61.5673 N   0  0  0  0  0  0  0  0  0  0  0  0
    6.8093   47.9200   58.4230 C   0  0  0  0  0  0  0  0  0  0  0  0
    8.0284   48.5969   58.6269 C   0  0  0  0  0  0  0  0  0  0  0  0
    8.1379   49.3509   59.8312 C   0  0  0  0  0  0  0  0  0  0  0  0
    5.7111   47.9907   59.2951 C   0  0  0  0  0  0  0  0  0  0  0  0
    2.3117   50.0097   58.0630 C   0  0  0  0  0  0  0  0  0  0  0  0
    1.6993   51.0381   58.9866 C   0  0  0  0  0  0  0  0  0  0  0  0
    0.3000   51.4302   58.6229 C   0  0  0  0  0  0  0  0  0  0  0  0
    3.1961   47.8895   58.8035 C   0  0  0  0  0  0  0  0  0  0  0  0
    2.0264   47.1364   58.5905 C   0  0  0  0  0  0  0  0  0  0  0  0
   -0.1338   52.7289   58.9371 C   0  0  0  0  0  0  0  0  0  0  0  0
    4.4317   47.2177   59.0887 C   0  0  0  0  0  0  0  0  0  0  0  0
    6.9926   49.3720   60.7120 C   0  0  0  0  0  0  0  0  0  0  0  0
    5.8015   48.7329   60.4157 C   0  0  0  0  0  0  0  0  0  0  0  0
    2.1983   45.7691   58.5969 C   0  0  0  0  0  0  0  0  0  0  0  0
    3.3889   45.0913   58.8114 C   0  0  0  0  0  0  0  0  0  0  0  0
    4.5390   45.8386   59.0436 C   0  0  0  0  0  0  0  0  0  0  0  0
    9.1520   50.0603   60.3951 N   0  0  0  0  0  0  0  0  0  0  0  0
    1.1382   44.9404   58.4184 F   0  0  0  0  0  0  0  0  0  0  0  0
    7.0996   50.4635   64.3550 N   0  0  1  0  0  0  0  0  0  0  0  0
    6.8714   49.0867   64.8750 C   0  0  0  0  0  0  0  0  0  0  0  0
    3.1917   49.2177   58.8512 O   0  0  0  0  0  0  0  0  0  0  0  0
   -0.5599   50.5132   58.0135 C   0  0  0  0  0  0  0  0  0  0  0  0
   -1.8436   50.8254   57.6703 N   0  0  0  0  0  0  0  0  0  0  0  0
   -2.2880   52.0706   57.9698 C   0  0  0  0  0  0  0  0  0  0  0  0
   -1.4510   53.0022   58.5588 C   0  0  0  0  0  0  0  0  0  0  0  0
    6.2155   51.6245   62.8465 H   0  0  0  0  0  0  0  0  0  0  0  0
    5.7047   49.8409   62.9679 H   0  0  0  0  0  0  0  0  0  0  0  0
    6.8238   51.2519   66.2831 H   0  0  0  0  0  0  0  0  0  0  0  0
    7.3624   52.4322   65.0408 H   0  0  0  0  0  0  0  0  0  0  0  0
    5.6669   51.8391   65.0408 H   0  0  0  0  0  0  0  0  0  0  0  0
    9.1959   51.2148   62.1804 H   0  0  0  0  0  0  0  0  0  0  0  0
    6.7118   47.2960   57.5224 H   0  0  0  0  0  0  0  0  0  0  0  0
    8.8499   48.5460   57.8971 H   0  0  0  0  0  0  0  0  0  0  0  0
    1.5245   49.3783   57.6250 H   0  0  0  0  0  0  0  0  0  0  0  0
    2.8522   50.4949   57.2369 H   0  0  0  0  0  0  0  0  0  0  0  0
    1.6883   50.6242   60.0057 H   0  0  0  0  0  0  0  0  0  0  0  0
    2.3150   51.9459   58.9036 H   0  0  0  0  0  0  0  0  0  0  0  0
    1.0446   47.6059   58.4303 H   0  0  0  0  0  0  0  0  0  0  0  0
    0.5088   53.4677   59.4383 H   0  0  0  0  0  0  0  0  0  0  0  0
    4.9368   48.8299   61.0887 H   0  0  0  0  0  0  0  0  0  0  0  0
    3.4230   43.9919   58.7982 H   0  0  0  0  0  0  0  0  0  0  0  0
    5.5113   45.3448   59.1880 H   0  0  0  0  0  0  0  0  0  0  0  0
    8.1218   50.5829   64.3134 H   0  0  0  0  0  0  0  0  0  0  0  0
    6.8745   49.1050   65.9749 H   0  0  0  0  0  0  0  0  0  0  0  0
    5.8996   48.7160   64.5172 H   0  0  0  0  0  0  0  0  0  0  0  0
    7.6717   48.4223   64.5172 H   0  0  0  0  0  0  0  0  0  0  0  0
   -0.1879   49.4998   57.8021 H   0  0  0  0  0  0  0  0  0  0  0  0
   -3.3286   52.3444   57.7415 H   0  0  0  0  0  0  0  0  0  0  0  0
   -1.8443   54.0136   58.7391 H   0  0  0  0  0  0  0  0  0  0  0  0
  1  2  1  0
  1  4  1  0
  1 16  2  0
  2 23  1  0
 23  3  1  0
  4 21  1  0
  5  6  2  0
  5  8  1  0
  6  7  1  0
  7 16  1  0
  7 21  2  0
  8 15  1  0
  8 17  2  0
  9 10  1  0
  9 25  1  0
 10 11  1  0
 11 14  2  0
 11 26  1  0
 12 13  2  0
 12 15  1  0
 12 25  1  0
 13 18  1  0
 14 29  1  0
 15 20  2  0
 16 17  1  0
 18 19  2  0
 18 22  1  0
 19 20  1  0
 23 24  1  0
 26 27  2  0
 27 28  1  0
 28 29  2  0
  2 30  1  0
  2 31  1  0
  3 32  1  0
  3 33  1  0
  3 34  1  0
  4 35  1  0
  5 36  1  0
  6 37  1  0
  9 38  1  0
  9 39  1  0
 10 40  1  0
 10 41  1  0
 13 42  1  0
 14 43  1  0
 17 44  1  0
 19 45  1  0
 20 46  1  0
 23 47  1  6
 24 48  1  0
 24 49  1  0
 24 50  1  0
 26 51  1  0
 28 52  1  0
 29 53  1  0
M  CHG  1  23   1
M  END
>  <filename_input>  (13) 
6TW7_NZB_docked.sdf

>  <pdb_id>  (13) 
6TW7_NZB

>  <pose_rank>  (13) 
12

>  <num_atoms_heavy>  (13) 
29

>  <num_torsions>  (13) 
7

>  <pose>  (13) 
[3.196143201348513, 47.88949755183361, 58.80347195071454, 2.2125919692708456, 0.2296261784004911, -3.9861510490965513, -1.1945266928029001, 0.6795596557906165, 3.635922777559314, -0.5067993793238751, -0.9681553898228683, -1.3916727293892732, 1.86665178554744]

>  <energy>  (13) 
-667.7757020225193

>  <inter_energy>  (13) 
-674.8008896038617

>  <intra_energy>  (13) 
8.075233469400754

>  <rmsd>  (13) 
7.34646

>  <sdf_rank>  (13) 
0

$$$$

     RDKit          3D

 53 56  0  0  0  0  0  0  0  0999 V2000
    1.7834   46.2979   57.9122 C   0  0  0  0  0  0  0  0  0  0  0  0
    2.2740   44.8793   57.8690 C   0  0  0  0  0  0  0  0  0  0  0  0
    4.2932   44.5481   59.2361 C   0  0  0  0  0  0  0  0  0  0  0  0
    0.5674   46.7769   57.6256 N   0  0  0  0  0  0  0  0  0  0  0  0
    3.6147   49.9233   58.7336 C   0  0  0  0  0  0  0  0  0  0  0  0
    2.2631   49.8789   58.3369 C   0  0  0  0  0  0  0  0  0  0  0  0
    1.7219   48.5853   58.0836 C   0  0  0  0  0  0  0  0  0  0  0  0
    4.4445   48.7955   58.8386 C   0  0  0  0  0  0  0  0  0  0  0  0
    5.1628   50.2843   62.5608 C   0  0  0  0  0  0  0  0  0  0  0  0
    4.9667   51.7374   62.9296 C   0  0  0  0  0  0  0  0  0  0  0  0
    3.8770   52.4212   62.1621 C   0  0  0  0  0  0  0  0  0  0  0  0
    6.2264   49.5414   60.5255 C   0  0  0  0  0  0  0  0  0  0  0  0
    7.5665   49.5547   60.9552 C   0  0  0  0  0  0  0  0  0  0  0  0
    4.1324   53.6960   61.6299 C   0  0  0  0  0  0  0  0  0  0  0  0
    5.8748   48.8545   59.3156 C   0  0  0  0  0  0  0  0  0  0  0  0
    2.6053   47.4514   58.2315 C   0  0  0  0  0  0  0  0  0  0  0  0
    3.9429   47.5758   58.5639 C   0  0  0  0  0  0  0  0  0  0  0  0
    8.4372   48.8116   60.1879 C   0  0  0  0  0  0  0  0  0  0  0  0
    8.1176   48.0901   59.0477 C   0  0  0  0  0  0  0  0  0  0  0  0
    6.7961   48.0972   58.6132 C   0  0  0  0  0  0  0  0  0  0  0  0
    0.4764   48.1457   57.7591 N   0  0  0  0  0  0  0  0  0  0  0  0
    9.7582   48.7629   60.4964 F   0  0  0  0  0  0  0  0  0  0  0  0
    2.8563   44.3138   59.1165 N   0  0  1  0  0  0  0  0  0  0  0  0
    2.0181   44.7164   60.2799 C   0  0  0  0  0  0  0  0  0  0  0  0
    5.2712   50.2283   61.1437 O   0  0  0  0  0  0  0  0  0  0  0  0
    2.6278   51.8152   62.0077 C   0  0  0  0  0  0  0  0  0  0  0  0
    1.6051   52.4040   61.3217 N   0  0  0  0  0  0  0  0  0  0  0  0
    1.8247   53.6378   60.8048 C   0  0  0  0  0  0  0  0  0  0  0  0
    3.0583   54.2526   60.9303 C   0  0  0  0  0  0  0  0  0  0  0  0
    1.4212   44.2445   57.5865 H   0  0  0  0  0  0  0  0  0  0  0  0
    3.1085   44.8938   57.1525 H   0  0  0  0  0  0  0  0  0  0  0  0
    4.5701   44.5932   60.2998 H   0  0  0  0  0  0  0  0  0  0  0  0
    4.8403   43.7273   58.7493 H   0  0  0  0  0  0  0  0  0  0  0  0
    4.5513   45.5002   58.7493 H   0  0  0  0  0  0  0  0  0  0  0  0
   -0.2216   46.1824   57.3344 H   0  0  0  0  0  0  0  0  0  0  0  0
    4.0475   50.9049   58.9766 H   0  0  0  0  0  0  0  0  0  0  0  0
    1.6595   50.7921   58.2288 H   0  0  0  0  0  0  0  0  0  0  0  0
    6.0811   49.8966   63.0260 H   0  0  0  0  0  0  0  0  0  0  0  0
    4.3212   49.6713   62.9157 H   0  0  0  0  0  0  0  0  0  0  0  0
    4.7217   51.7920   64.0006 H   0  0  0  0  0  0  0  0  0  0  0  0
    5.9039   52.2570   62.6814 H   0  0  0  0  0  0  0  0  0  0  0  0
    7.8955   50.1182   61.8407 H   0  0  0  0  0  0  0  0  0  0  0  0
    5.0959   54.2121   61.7534 H   0  0  0  0  0  0  0  0  0  0  0  0
    4.5902   46.6873   58.6035 H   0  0  0  0  0  0  0  0  0  0  0  0
    8.8886   47.5270   58.5013 H   0  0  0  0  0  0  0  0  0  0  0  0
    6.4905   47.5145   57.7317 H   0  0  0  0  0  0  0  0  0  0  0  0
    2.8186   43.2850   59.0851 H   0  0  0  0  0  0  0  0  0  0  0  0
    2.5420   44.4648   61.2138 H   0  0  0  0  0  0  0  0  0  0  0  0
    1.8355   45.8005   60.2426 H   0  0  0  0  0  0  0  0  0  0  0  0
    1.0577   44.1813   60.2426 H   0  0  0  0  0  0  0  0  0  0  0  0
    2.4618   50.8248   62.4566 H   0  0  0  0  0  0  0  0  0  0  0  0
    1.0109   54.1578   60.2782 H   0  0  0  0  0  0  0  0  0  0  0  0
    3.2011   55.2334   60.4532 H   0  0  0  0  0  0  0  0  0  0  0  0
  1  2  1  0
  1  4  1  0
  1 16  2  0
  2 23  1  0
 23  3  1  0
  4 21  1  0
  5  6  2  0
  5  8  1  0
  6  7  1  0
  7 16  1  0
  7 21  2  0
  8 15  1  0
  8 17  2  0
  9 10  1  0
  9 25  1  0
 10 11  1  0
 11 14  2  0
 11 26  1  0
 12 13  2  0
 12 15  1  0
 12 25  1  0
 13 18  1  0
 14 29  1  0
 15 20  2  0
 16 17  1  0
 18 19  2  0
 18 22  1  0
 19 20  1  0
 23 24  1  0
 26 27  2  0
 27 28  1  0
 28 29  2  0
  2 30  1  0
  2 31  1  0
  3 32  1  0
  3 33  1  0
  3 34  1  0
  4 35  1  0
  5 36  1  0
  6 37  1  0
  9 38  1  0
  9 39  1  0
 10 40  1  0
 10 41  1  0
 13 42  1  0
 14 43  1  0
 17 44  1  0
 19 45  1  0
 20 46  1  0
 23 47  1  6
 24 48  1  0
 24 49  1  0
 24 50  1  0
 26 51  1  0
 28 52  1  0
 29 53  1  0
M  CHG  1  23   1
M  END
>  <filename_input>  (14) 
6TW7_NZB_docked.sdf

>  <pdb_id>  (14) 
6TW7_NZB

>  <pose_rank>  (14) 
13

>  <num_atoms_heavy>  (14) 
29

>  <num_torsions>  (14) 
7

>  <pose>  (14) 
[6.226358523369461, 49.541393784657394, 60.5254983033779, -0.7652587357737333, -1.7777557842929421, -1.8806995136861702, 1.656789375507233, -0.6233091167807935, -0.360455321018012, 43.320782672187484, -19.817257935825292, 46.05245767043378, 2.141105526461759]

>  <energy>  (14) 
-646.6142744764717

>  <inter_energy>  (14) 
-680.8308237767876

>  <intra_energy>  (14) 
39.03042403822652

>  <rmsd>  (14) 
4.82587

>  <sdf_rank>  (14) 
0

$$$$

     RDKit          3D

 53 56  0  0  0  0  0  0  0  0999 V2000
    8.1475   47.7378   58.3946 C   0  0  0  0  0  0  0  0  0  0  0  0
    8.7716   46.3881   58.1860 C   0  0  0  0  0  0  0  0  0  0  0  0
    9.4650   44.3719   59.4149 C   0  0  0  0  0  0  0  0  0  0  0  0
    8.7413   48.9319   58.5033 N   0  0  0  0  0  0  0  0  0  0  0  0
    4.2491   49.0157   58.9787 C   0  0  0  0  0  0  0  0  0  0  0  0
    5.3168   49.9342   59.0251 C   0  0  0  0  0  0  0  0  0  0  0  0
    6.6193   49.3995   58.8054 C   0  0  0  0  0  0  0  0  0  0  0  0
    4.4038   47.6337   58.7844 C   0  0  0  0  0  0  0  0  0  0  0  0
    0.4633   49.0294   58.2115 C   0  0  0  0  0  0  0  0  0  0  0  0
    0.3217   49.6589   59.5788 C   0  0  0  0  0  0  0  0  0  0  0  0
    0.7453   51.0946   59.6376 C   0  0  0  0  0  0  0  0  0  0  0  0
    1.9375   47.1205   58.3038 C   0  0  0  0  0  0  0  0  0  0  0  0
    0.8858   46.1915   58.1952 C   0  0  0  0  0  0  0  0  0  0  0  0
   -0.0054   52.0431   58.9233 C   0  0  0  0  0  0  0  0  0  0  0  0
    3.2460   46.6712   58.6848 C   0  0  0  0  0  0  0  0  0  0  0  0
    6.7275   47.9760   58.5817 C   0  0  0  0  0  0  0  0  0  0  0  0
    5.6384   47.1228   58.6129 C   0  0  0  0  0  0  0  0  0  0  0  0
    1.2414   44.8751   58.3947 C   0  0  0  0  0  0  0  0  0  0  0  0
    2.5078   44.4039   58.7062 C   0  0  0  0  0  0  0  0  0  0  0  0
    3.5404   45.3271   58.8346 C   0  0  0  0  0  0  0  0  0  0  0  0
    7.8523   49.9651   58.7075 N   0  0  0  0  0  0  0  0  0  0  0  0
    0.3078   43.8918   58.3312 F   0  0  0  0  0  0  0  0  0  0  0  0
    9.5803   45.8237   59.3008 N   0  0  1  0  0  0  0  0  0  0  0  0
   10.9612   46.3781   59.2397 C   0  0  0  0  0  0  0  0  0  0  0  0
    1.7519   48.4290   58.1641 O   0  0  0  0  0  0  0  0  0  0  0  0
    1.8786   51.4726   60.3618 C   0  0  0  0  0  0  0  0  0  0  0  0
    2.3039   52.7673   60.4379 N   0  0  0  0  0  0  0  0  0  0  0  0
    1.6002   53.7004   59.7511 C   0  0  0  0  0  0  0  0  0  0  0  0
    0.4649   53.3540   59.0394 C   0  0  0  0  0  0  0  0  0  0  0  0
    7.9580   45.6779   57.9770 H   0  0  0  0  0  0  0  0  0  0  0  0
    9.4902   46.5360   57.3664 H   0  0  0  0  0  0  0  0  0  0  0  0
    9.4425   44.0883   60.4775 H   0  0  0  0  0  0  0  0  0  0  0  0
    8.5375   44.0382   58.9266 H   0  0  0  0  0  0  0  0  0  0  0  0
   10.3282   43.8960   58.9266 H   0  0  0  0  0  0  0  0  0  0  0  0
    9.7606   49.0655   58.4407 H   0  0  0  0  0  0  0  0  0  0  0  0
    3.2284   49.4067   59.1029 H   0  0  0  0  0  0  0  0  0  0  0  0
    5.1539   51.0045   59.2200 H   0  0  0  0  0  0  0  0  0  0  0  0
   -0.3151   48.2663   58.0640 H   0  0  0  0  0  0  0  0  0  0  0  0
    0.3507   49.7827   57.4179 H   0  0  0  0  0  0  0  0  0  0  0  0
   -0.7347   49.5977   59.8796 H   0  0  0  0  0  0  0  0  0  0  0  0
    0.9884   49.1033   60.2546 H   0  0  0  0  0  0  0  0  0  0  0  0
   -0.1467   46.4947   57.9674 H   0  0  0  0  0  0  0  0  0  0  0  0
   -0.8883   51.7767   58.3237 H   0  0  0  0  0  0  0  0  0  0  0  0
    5.7795   46.0379   58.4989 H   0  0  0  0  0  0  0  0  0  0  0  0
    2.6909   43.3285   58.8481 H   0  0  0  0  0  0  0  0  0  0  0  0
    4.5672   44.9965   59.0503 H   0  0  0  0  0  0  0  0  0  0  0  0
    9.1931   46.1313   60.2043 H   0  0  0  0  0  0  0  0  0  0  0  0
   11.3407   46.5304   60.2609 H   0  0  0  0  0  0  0  0  0  0  0  0
   11.6160   45.6731   58.7066 H   0  0  0  0  0  0  0  0  0  0  0  0
   10.9468   47.3401   58.7066 H   0  0  0  0  0  0  0  0  0  0  0  0
    2.4506   50.6964   60.8913 H   0  0  0  0  0  0  0  0  0  0  0  0
    1.9362   54.7478   59.7596 H   0  0  0  0  0  0  0  0  0  0  0  0
   -0.0982   54.1545   58.5374 H   0  0  0  0  0  0  0  0  0  0  0  0
  1  2  1  0
  1  4  1  0
  1 16  2  0
  2 23  1  0
 23  3  1  0
  4 21  1  0
  5  6  2  0
  5  8  1  0
  6  7  1  0
  7 16  1  0
  7 21  2  0
  8 15  1  0
  8 17  2  0
  9 10  1  0
  9 25  1  0
 10 11  1  0
 11 14  2  0
 11 26  1  0
 12 13  2  0
 12 15  1  0
 12 25  1  0
 13 18  1  0
 14 29  1  0
 15 20  2  0
 16 17  1  0
 18 19  2  0
 18 22  1  0
 19 20  1  0
 23 24  1  0
 26 27  2  0
 27 28  1  0
 28 29  2  0
  2 30  1  0
  2 31  1  0
  3 32  1  0
  3 33  1  0
  3 34  1  0
  4 35  1  0
  5 36  1  0
  6 37  1  0
  9 38  1  0
  9 39  1  0
 10 40  1  0
 10 41  1  0
 13 42  1  0
 14 43  1  0
 17 44  1  0
 19 45  1  0
 20 46  1  0
 23 47  1  1
 24 48  1  0
 24 49  1  0
 24 50  1  0
 26 51  1  0
 28 52  1  0
 29 53  1  0
M  CHG  1  23   1
M  END
>  <filename_input>  (15) 
6TW7_NZB_docked.sdf

>  <pdb_id>  (15) 
6TW7_NZB

>  <pose_rank>  (15) 
14

>  <num_atoms_heavy>  (15) 
29

>  <num_torsions>  (15) 
7

>  <pose>  (15) 
[1.9375015738940264, 47.12045811668427, 58.303815113367335, -0.9656506135280676, -0.04870876354184623, 1.644742318493486, 1.1886626034048444, 2.724294590532072, 3.724039338459293, 0.35293582643039484, -1.4988967503140698, 2.7950969959340695, -0.6390874723470281]

>  <energy>  (15) 
-711.9307210695999

>  <inter_energy>  (15) 
-724.6547373823206

>  <intra_energy>  (15) 
26.875265285812528

>  <rmsd>  (15) 
6.62775

>  <sdf_rank>  (15) 
0

$$$$

     RDKit          3D

 53 56  0  0  0  0  0  0  0  0999 V2000
   -0.2956   52.1804   58.5580 C   0  0  0  0  0  0  0  0  0  0  0  0
   -1.6144   51.7350   57.9947 C   0  0  0  0  0  0  0  0  0  0  0  0
   -3.5038   52.6407   56.7040 C   0  0  0  0  0  0  0  0  0  0  0  0
    0.1300   53.4206   58.8244 N   0  0  0  0  0  0  0  0  0  0  0  0
    3.1745   50.1775   59.6157 C   0  0  0  0  0  0  0  0  0  0  0  0
    3.1083   51.5829   59.6943 C   0  0  0  0  0  0  0  0  0  0  0  0
    1.8703   52.1786   59.3156 C   0  0  0  0  0  0  0  0  0  0  0  0
    2.1311   49.3624   59.1481 C   0  0  0  0  0  0  0  0  0  0  0  0
    5.8051   47.3994   58.6999 C   0  0  0  0  0  0  0  0  0  0  0  0
    6.8276   48.4956   58.8968 C   0  0  0  0  0  0  0  0  0  0  0  0
    6.8843   49.0349   60.2932 C   0  0  0  0  0  0  0  0  0  0  0  0
    3.4557   47.1671   59.2024 C   0  0  0  0  0  0  0  0  0  0  0  0
    3.4812   45.7599   59.1998 C   0  0  0  0  0  0  0  0  0  0  0  0
    7.0147   48.1260   61.3564 C   0  0  0  0  0  0  0  0  0  0  0  0
    2.1992   47.8553   59.1199 C   0  0  0  0  0  0  0  0  0  0  0  0
    0.8155   51.2985   58.8675 C   0  0  0  0  0  0  0  0  0  0  0  0
    0.9733   49.9282   58.7556 C   0  0  0  0  0  0  0  0  0  0  0  0
    2.2456   45.1497   59.1986 C   0  0  0  0  0  0  0  0  0  0  0  0
    1.0141   45.7869   59.1780 C   0  0  0  0  0  0  0  0  0  0  0  0
    0.9930   47.1777   59.1582 C   0  0  0  0  0  0  0  0  0  0  0  0
    1.4139   53.4597   59.3239 N   0  0  0  0  0  0  0  0  0  0  0  0
    2.1455   43.7962   59.1793 F   0  0  0  0  0  0  0  0  0  0  0  0
   -2.7086   52.7415   57.9253 N   0  0  1  0  0  0  0  0  0  0  0  0
   -3.4614   52.7426   59.2104 C   0  0  0  0  0  0  0  0  0  0  0  0
    4.5632   47.9015   59.1781 O   0  0  0  0  0  0  0  0  0  0  0  0
    6.7787   50.4076   60.5303 C   0  0  0  0  0  0  0  0  0  0  0  0
    6.8196   50.9418   61.7857 N   0  0  0  0  0  0  0  0  0  0  0  0
    6.9377   50.0843   62.8290 C   0  0  0  0  0  0  0  0  0  0  0  0
    7.0600   48.7217   62.6197 C   0  0  0  0  0  0  0  0  0  0  0  0
   -1.4310   51.3769   56.9709 H   0  0  0  0  0  0  0  0  0  0  0  0
   -1.9780   50.9749   58.7018 H   0  0  0  0  0  0  0  0  0  0  0  0
   -4.5636   52.5063   56.9666 H   0  0  0  0  0  0  0  0  0  0  0  0
   -3.3863   53.5609   56.1130 H   0  0  0  0  0  0  0  0  0  0  0  0
   -3.1604   51.7789   56.1130 H   0  0  0  0  0  0  0  0  0  0  0  0
   -0.4444   54.2618   58.6715 H   0  0  0  0  0  0  0  0  0  0  0  0
    4.1036   49.6872   59.9419 H   0  0  0  0  0  0  0  0  0  0  0  0
    3.9646   52.1867   60.0293 H   0  0  0  0  0  0  0  0  0  0  0  0
    5.7244   47.1447   57.6328 H   0  0  0  0  0  0  0  0  0  0  0  0
    6.0960   46.4878   59.2423 H   0  0  0  0  0  0  0  0  0  0  0  0
    7.8189   48.0933   58.6412 H   0  0  0  0  0  0  0  0  0  0  0  0
    6.5274   49.3302   58.2462 H   0  0  0  0  0  0  0  0  0  0  0  0
    4.4207   45.1878   59.1988 H   0  0  0  0  0  0  0  0  0  0  0  0
    7.0760   47.0378   61.2071 H   0  0  0  0  0  0  0  0  0  0  0  0
    0.1611   49.3070   58.3500 H   0  0  0  0  0  0  0  0  0  0  0  0
    0.0788   45.2079   59.1774 H   0  0  0  0  0  0  0  0  0  0  0  0
    0.0396   47.7262   59.1728 H   0  0  0  0  0  0  0  0  0  0  0  0
   -2.3094   53.6863   57.8321 H   0  0  0  0  0  0  0  0  0  0  0  0
   -2.7518   52.7415   60.0509 H   0  0  0  0  0  0  0  0  0  0  0  0
   -4.0928   53.6417   59.2647 H   0  0  0  0  0  0  0  0  0  0  0  0
   -4.0955   51.8454   59.2647 H   0  0  0  0  0  0  0  0  0  0  0  0
    6.6578   51.0844   59.6716 H   0  0  0  0  0  0  0  0  0  0  0  0
    6.9362   50.4771   63.8565 H   0  0  0  0  0  0  0  0  0  0  0  0
    7.2006   48.0719   63.4961 H   0  0  0  0  0  0  0  0  0  0  0  0
  1  2  1  0
  1  4  1  0
  1 16  2  0
  2 23  1  0
 23  3  1  0
  4 21  1  0
  5  6  2  0
  5  8  1  0
  6  7  1  0
  7 16  1  0
  7 21  2  0
  8 15  1  0
  8 17  2  0
  9 10  1  0
  9 25  1  0
 10 11  1  0
 11 14  2  0
 11 26  1  0
 12 13  2  0
 12 15  1  0
 12 25  1  0
 13 18  1  0
 14 29  1  0
 15 20  2  0
 16 17  1  0
 18 19  2  0
 18 22  1  0
 19 20  1  0
 23 24  1  0
 26 27  2  0
 27 28  1  0
 28 29  2  0
  2 30  1  0
  2 31  1  0
  3 32  1  0
  3 33  1  0
  3 34  1  0
  4 35  1  0
  5 36  1  0
  6 37  1  0
  9 38  1  0
  9 39  1  0
 10 40  1  0
 10 41  1  0
 13 42  1  0
 14 43  1  0
 17 44  1  0
 19 45  1  0
 20 46  1  0
 23 47  1  6
 24 48  1  0
 24 49  1  0
 24 50  1  0
 26 51  1  0
 28 52  1  0
 29 53  1  0
M  CHG  1  23   1
M  END
>  <filename_input>  (16) 
6TW7_NZB_docked.sdf

>  <pdb_id>  (16) 
6TW7_NZB

>  <pose_rank>  (16) 
15

>  <num_atoms_heavy>  (16) 
29

>  <num_torsions>  (16) 
7

>  <pose>  (16) 
[3.4557440243535424, 47.16711412891891, 59.20242257776209, -3.140358865054021, -0.8434550702344592, -0.9893303171941286, 0.4723341867297041, 1.325572417539232, -2.63524641116446, 0.4691665196881014, -0.09305826458386524, 2.113343294057571, -0.9006816577157672]

>  <energy>  (16) 
-711.3209153203723

>  <inter_energy>  (16) 
-726.2632945909938

>  <intra_energy>  (16) 
27.32339981492206

>  <rmsd>  (16) 
5.96404

>  <sdf_rank>  (16) 
0

$$$$

     RDKit          3D

 53 56  0  0  0  0  0  0  0  0999 V2000
    1.2888   46.8355   58.8987 C   0  0  0  0  0  0  0  0  0  0  0  0
    1.3286   45.3732   59.2378 C   0  0  0  0  0  0  0  0  0  0  0  0
    0.0502   44.4226   57.3622 C   0  0  0  0  0  0  0  0  0  0  0  0
    0.2402   47.5906   58.5514 N   0  0  0  0  0  0  0  0  0  0  0  0
    4.2030   49.7608   58.5494 C   0  0  0  0  0  0  0  0  0  0  0  0
    2.8567   50.0542   58.2539 C   0  0  0  0  0  0  0  0  0  0  0  0
    1.9284   48.9844   58.4107 C   0  0  0  0  0  0  0  0  0  0  0  0
    4.6699   48.4921   58.9292 C   0  0  0  0  0  0  0  0  0  0  0  0
    6.7666   51.1323   61.4259 C   0  0  0  0  0  0  0  0  0  0  0  0
    5.7160   51.0581   62.5107 C   0  0  0  0  0  0  0  0  0  0  0  0
    6.0561   51.8358   63.7451 C   0  0  0  0  0  0  0  0  0  0  0  0
    6.8730   49.1361   60.0733 C   0  0  0  0  0  0  0  0  0  0  0  0
    8.2023   48.8269   60.4171 C   0  0  0  0  0  0  0  0  0  0  0  0
    7.0170   51.3088   64.6240 C   0  0  0  0  0  0  0  0  0  0  0  0
    6.1063   48.2072   59.2931 C   0  0  0  0  0  0  0  0  0  0  0  0
    2.4503   47.7040   58.8305 C   0  0  0  0  0  0  0  0  0  0  0  0
    3.7979   47.4716   59.0423 C   0  0  0  0  0  0  0  0  0  0  0  0
    8.6354   47.5785   60.0260 C   0  0  0  0  0  0  0  0  0  0  0  0
    7.9001   46.6363   59.3228 C   0  0  0  0  0  0  0  0  0  0  0  0
    6.5938   46.9540   58.9652 C   0  0  0  0  0  0  0  0  0  0  0  0
    0.5762   48.9018   58.2919 N   0  0  0  0  0  0  0  0  0  0  0  0
    9.9050   47.1761   60.2882 F   0  0  0  0  0  0  0  0  0  0  0  0
    1.3057   44.4037   58.1088 N   0  0  1  0  0  0  0  0  0  0  0  0
    2.5555   44.5443   57.3111 C   0  0  0  0  0  0  0  0  0  0  0  0
    6.3162   50.3090   60.3571 O   0  0  0  0  0  0  0  0  0  0  0  0
    5.4084   53.0409   64.0273 C   0  0  0  0  0  0  0  0  0  0  0  0
    5.6824   53.7790   65.1424 N   0  0  0  0  0  0  0  0  0  0  0  0
    6.6011   53.2878   66.0098 C   0  0  0  0  0  0  0  0  0  0  0  0
    7.2681   52.1043   65.7452 C   0  0  0  0  0  0  0  0  0  0  0  0
    2.2516   45.1925   59.8082 H   0  0  0  0  0  0  0  0  0  0  0  0
    0.3925   45.1874   59.7849 H   0  0  0  0  0  0  0  0  0  0  0  0
   -0.7949   44.4352   58.0662 H   0  0  0  0  0  0  0  0  0  0  0  0
    0.0136   45.3214   56.7291 H   0  0  0  0  0  0  0  0  0  0  0  0
   -0.0134   43.5253   56.7291 H   0  0  0  0  0  0  0  0  0  0  0  0
   -0.7216   47.2283   58.4847 H   0  0  0  0  0  0  0  0  0  0  0  0
    4.9354   50.5784   58.4779 H   0  0  0  0  0  0  0  0  0  0  0  0
    2.5399   51.0535   57.9207 H   0  0  0  0  0  0  0  0  0  0  0  0
    6.8815   52.1705   61.0811 H   0  0  0  0  0  0  0  0  0  0  0  0
    7.7434   50.7920   61.8001 H   0  0  0  0  0  0  0  0  0  0  0  0
    4.7718   51.4499   62.1046 H   0  0  0  0  0  0  0  0  0  0  0  0
    5.6436   50.0023   62.8107 H   0  0  0  0  0  0  0  0  0  0  0  0
    8.8495   49.5317   60.9596 H   0  0  0  0  0  0  0  0  0  0  0  0
    7.5283   50.3515   64.4449 H   0  0  0  0  0  0  0  0  0  0  0  0
    4.1537   46.4632   59.3005 H   0  0  0  0  0  0  0  0  0  0  0  0
    8.3381   45.6635   59.0548 H   0  0  0  0  0  0  0  0  0  0  0  0
    5.9630   46.2261   58.4341 H   0  0  0  0  0  0  0  0  0  0  0  0
    1.3119   43.4408   58.4744 H   0  0  0  0  0  0  0  0  0  0  0  0
    3.4152   44.6411   57.9906 H   0  0  0  0  0  0  0  0  0  0  0  0
    2.6877   43.6554   56.6768 H   0  0  0  0  0  0  0  0  0  0  0  0
    2.4868   45.4404   56.6768 H   0  0  0  0  0  0  0  0  0  0  0  0
    4.6476   53.4095   63.3234 H   0  0  0  0  0  0  0  0  0  0  0  0
    6.8194   53.8376   66.9372 H   0  0  0  0  0  0  0  0  0  0  0  0
    8.0383   51.7716   66.4566 H   0  0  0  0  0  0  0  0  0  0  0  0
  1  2  1  0
  1  4  1  0
  1 16  2  0
  2 23  1  0
 23  3  1  0
  4 21  1  0
  5  6  2  0
  5  8  1  0
  6  7  1  0
  7 16  1  0
  7 21  2  0
  8 15  1  0
  8 17  2  0
  9 10  1  0
  9 25  1  0
 10 11  1  0
 11 14  2  0
 11 26  1  0
 12 13  2  0
 12 15  1  0
 12 25  1  0
 13 18  1  0
 14 29  1  0
 15 20  2  0
 16 17  1  0
 18 19  2  0
 18 22  1  0
 19 20  1  0
 23 24  1  0
 26 27  2  0
 27 28  1  0
 28 29  2  0
  2 30  1  0
  2 31  1  0
  3 32  1  0
  3 33  1  0
  3 34  1  0
  4 35  1  0
  5 36  1  0
  6 37  1  0
  9 38  1  0
  9 39  1  0
 10 40  1  0
 10 41  1  0
 13 42  1  0
 14 43  1  0
 17 44  1  0
 19 45  1  0
 20 46  1  0
 23 47  1  1
 24 48  1  0
 24 49  1  0
 24 50  1  0
 26 51  1  0
 28 52  1  0
 29 53  1  0
M  CHG  1  23   1
M  END
>  <filename_input>  (17) 
6TW7_NZB_docked.sdf

>  <pdb_id>  (17) 
6TW7_NZB

>  <pose_rank>  (17) 
16

>  <num_atoms_heavy>  (17) 
29

>  <num_torsions>  (17) 
7

>  <pose>  (17) 
[6.872989332779362, 49.13608980093395, 60.07326822669373, 1.5231048888793497, 2.2996685421598153, 1.7566962143436367, 1.4904735888886167, 2.909385744034582, 0.042076951577277796, 5.935489844378347, 1.12053130443139, -1.9896030885236586, 3.170967659669103]

>  <energy>  (17) 
-703.970544169617

>  <inter_energy>  (17) 
-727.7910142878848

>  <intra_energy>  (17) 
24.01228989137833

>  <rmsd>  (17) 
4.48633

>  <sdf_rank>  (17) 
0

$$$$

     RDKit          3D

 53 56  0  0  0  0  0  0  0  0999 V2000
    3.0335   52.0020   60.9668 C   0  0  0  0  0  0  0  0  0  0  0  0
    4.1285   51.5656   61.8971 C   0  0  0  0  0  0  0  0  0  0  0  0
    4.6464   52.1253   64.2369 C   0  0  0  0  0  0  0  0  0  0  0  0
    2.4746   53.2103   60.8332 N   0  0  0  0  0  0  0  0  0  0  0  0
    0.6836   50.0083   58.1965 C   0  0  0  0  0  0  0  0  0  0  0  0
    0.4697   51.3754   58.4631 C   0  0  0  0  0  0  0  0  0  0  0  0
    1.3331   51.9732   59.4263 C   0  0  0  0  0  0  0  0  0  0  0  0
    1.6416   49.2165   58.8500 C   0  0  0  0  0  0  0  0  0  0  0  0
    5.4722   47.4623   59.4044 C   0  0  0  0  0  0  0  0  0  0  0  0
    6.1594   48.4138   60.3573 C   0  0  0  0  0  0  0  0  0  0  0  0
    7.5654   48.7570   59.9705 C   0  0  0  0  0  0  0  0  0  0  0  0
    3.1570   47.1482   58.7986 C   0  0  0  0  0  0  0  0  0  0  0  0
    3.3495   45.7869   58.4975 C   0  0  0  0  0  0  0  0  0  0  0  0
    8.4060   47.7251   59.5208 C   0  0  0  0  0  0  0  0  0  0  0  0
    1.8935   47.7669   58.5154 C   0  0  0  0  0  0  0  0  0  0  0  0
    2.3224   51.1265   60.0527 C   0  0  0  0  0  0  0  0  0  0  0  0
    2.4336   49.7729   59.7869 C   0  0  0  0  0  0  0  0  0  0  0  0
    2.2392   45.1291   58.0141 C   0  0  0  0  0  0  0  0  0  0  0  0
    0.9896   45.6847   57.7849 C   0  0  0  0  0  0  0  0  0  0  0  0
    0.8090   47.0358   58.0627 C   0  0  0  0  0  0  0  0  0  0  0  0
    1.4759   53.2459   59.8840 N   0  0  0  0  0  0  0  0  0  0  0  0
    2.3095   43.8170   57.6736 F   0  0  0  0  0  0  0  0  0  0  0  0
    4.6680   52.5760   62.8475 N   0  0  1  0  0  0  0  0  0  0  0  0
    5.9684   53.0909   62.3359 C   0  0  0  0  0  0  0  0  0  0  0  0
    4.1364   47.9256   59.2488 O   0  0  0  0  0  0  0  0  0  0  0  0
    8.0347   50.0678   60.0849 C   0  0  0  0  0  0  0  0  0  0  0  0
    9.3090   50.4240   59.7495 N   0  0  0  0  0  0  0  0  0  0  0  0
   10.1418   49.4445   59.3197 C   0  0  0  0  0  0  0  0  0  0  0  0
    9.6965   48.1414   59.1825 C   0  0  0  0  0  0  0  0  0  0  0  0
    3.7391   50.7274   62.4936 H   0  0  0  0  0  0  0  0  0  0  0  0
    4.9747   51.3219   61.2379 H   0  0  0  0  0  0  0  0  0  0  0  0
    4.6882   52.9974   64.9059 H   0  0  0  0  0  0  0  0  0  0  0  0
    3.7202   51.5626   64.4254 H   0  0  0  0  0  0  0  0  0  0  0  0
    5.5144   51.4765   64.4254 H   0  0  0  0  0  0  0  0  0  0  0  0
    2.7619   54.0316   61.3844 H   0  0  0  0  0  0  0  0  0  0  0  0
    0.0598   49.5305   57.4267 H   0  0  0  0  0  0  0  0  0  0  0  0
   -0.3198   51.9493   57.9558 H   0  0  0  0  0  0  0  0  0  0  0  0
    5.9879   47.4619   58.4328 H   0  0  0  0  0  0  0  0  0  0  0  0
    5.4891   46.4339   59.7946 H   0  0  0  0  0  0  0  0  0  0  0  0
    5.5750   49.3449   60.3972 H   0  0  0  0  0  0  0  0  0  0  0  0
    6.2134   47.9043   61.3307 H   0  0  0  0  0  0  0  0  0  0  0  0
    4.3175   45.2837   58.6381 H   0  0  0  0  0  0  0  0  0  0  0  0
    8.0765   46.6786   59.4417 H   0  0  0  0  0  0  0  0  0  0  0  0
    3.1617   49.1573   60.3355 H   0  0  0  0  0  0  0  0  0  0  0  0
    0.1630   45.0733   57.3938 H   0  0  0  0  0  0  0  0  0  0  0  0
   -0.1730   47.5121   57.9256 H   0  0  0  0  0  0  0  0  0  0  0  0
    4.0386   53.3904   62.8867 H   0  0  0  0  0  0  0  0  0  0  0  0
    6.6198   53.3489   63.1839 H   0  0  0  0  0  0  0  0  0  0  0  0
    6.4537   52.3171   61.7230 H   0  0  0  0  0  0  0  0  0  0  0  0
    5.7924   53.9872   61.7230 H   0  0  0  0  0  0  0  0  0  0  0  0
    7.3505   50.8432   60.4599 H   0  0  0  0  0  0  0  0  0  0  0  0
   11.1864   49.6890   59.0765 H   0  0  0  0  0  0  0  0  0  0  0  0
   10.3969   47.3919   58.7854 H   0  0  0  0  0  0  0  0  0  0  0  0
  1  2  1  0
  1  4  1  0
  1 16  2  0
  2 23  1  0
 23  3  1  0
  4 21  1  0
  5  6  2  0
  5  8  1  0
  6  7  1  0
  7 16  1  0
  7 21  2  0
  8 15  1  0
  8 17  2  0
  9 10  1  0
  9 25  1  0
 10 11  1  0
 11 14  2  0
 11 26  1  0
 12 13  2  0
 12 15  1  0
 12 25  1  0
 13 18  1  0
 14 29  1  0
 15 20  2  0
 16 17  1  0
 18 19  2  0
 18 22  1  0
 19 20  1  0
 23 24  1  0
 26 27  2  0
 27 28  1  0
 28 29  2  0
  2 30  1  0
  2 31  1  0
  3 32  1  0
  3 33  1  0
  3 34  1  0
  4 35  1  0
  5 36  1  0
  6 37  1  0
  9 38  1  0
  9 39  1  0
 10 40  1  0
 10 41  1  0
 13 42  1  0
 14 43  1  0
 17 44  1  0
 19 45  1  0
 20 46  1  0
 23 47  1  1
 24 48  1  0
 24 49  1  0
 24 50  1  0
 26 51  1  0
 28 52  1  0
 29 53  1  0
M  CHG  1  23   1
M  END
>  <filename_input>  (18) 
6TW7_NZB_docked.sdf

>  <pdb_id>  (18) 
6TW7_NZB

>  <pose_rank>  (18) 
17

>  <num_atoms_heavy>  (18) 
29

>  <num_torsions>  (18) 
7

>  <pose>  (18) 
[3.1569813086197773, 47.14820417423861, 58.798577921258484, -2.7873664749787457, -0.743783798100115, -1.435723841128067, -2.775489442967375, 1.5672979058863954, -2.88001214191873, 0.1375012547179816, 0.19765216459433746, -1.2383023097663777, -2.5482664681039653]

>  <energy>  (18) 
-632.7369297881982

>  <inter_energy>  (18) 
-659.1878531980873

>  <intra_energy>  (18) 
31.862791039114846

>  <rmsd>  (18) 
6.48766

>  <sdf_rank>  (18) 
0

$$$$

     RDKit          3D

 53 56  0  0  0  0  0  0  0  0999 V2000
    5.4265   51.0248   61.2237 C   0  0  0  0  0  0  0  0  0  0  0  0
    4.2359   51.7831   61.7359 C   0  0  0  0  0  0  0  0  0  0  0  0
    2.6777   53.0424   60.3069 C   0  0  0  0  0  0  0  0  0  0  0  0
    6.7272   51.3051   61.3648 N   0  0  0  0  0  0  0  0  0  0  0  0
    5.8535   47.6377   58.8749 C   0  0  0  0  0  0  0  0  0  0  0  0
    6.9862   48.3618   59.2975 C   0  0  0  0  0  0  0  0  0  0  0  0
    6.7368   49.5076   60.1072 C   0  0  0  0  0  0  0  0  0  0  0  0
    4.5288   48.0063   59.1596 C   0  0  0  0  0  0  0  0  0  0  0  0
    1.6142   50.1097   58.5726 C   0  0  0  0  0  0  0  0  0  0  0  0
    0.4675   49.7901   57.6406 C   0  0  0  0  0  0  0  0  0  0  0  0
   -0.6564   50.7792   57.6926 C   0  0  0  0  0  0  0  0  0  0  0  0
    2.0038   47.7386   58.7998 C   0  0  0  0  0  0  0  0  0  0  0  0
    0.9095   46.9594   58.3800 C   0  0  0  0  0  0  0  0  0  0  0  0
   -1.7883   50.5478   56.8934 C   0  0  0  0  0  0  0  0  0  0  0  0
    3.3290   47.1909   58.7442 C   0  0  0  0  0  0  0  0  0  0  0  0
    5.3591   49.8326   60.3977 C   0  0  0  0  0  0  0  0  0  0  0  0
    4.2915   49.1100   59.8946 C   0  0  0  0  0  0  0  0  0  0  0  0
    1.2322   45.7247   57.8599 C   0  0  0  0  0  0  0  0  0  0  0  0
    2.5064   45.1912   57.7389 C   0  0  0  0  0  0  0  0  0  0  0  0
    3.5839   45.9552   58.1754 C   0  0  0  0  0  0  0  0  0  0  0  0
    7.5512   50.3911   60.7442 N   0  0  0  0  0  0  0  0  0  0  0  0
    0.2582   44.8788   57.4376 F   0  0  0  0  0  0  0  0  0  0  0  0
    3.9141   53.0817   61.0838 N   0  0  1  0  0  0  0  0  0  0  0  0
    4.0372   54.1801   62.0821 C   0  0  0  0  0  0  0  0  0  0  0  0
    1.8565   48.9411   59.3463 O   0  0  0  0  0  0  0  0  0  0  0  0
   -0.5639   51.9192   58.4947 C   0  0  0  0  0  0  0  0  0  0  0  0
   -1.5606   52.8489   58.5681 N   0  0  0  0  0  0  0  0  0  0  0  0
   -2.6604   52.6517   57.8005 C   0  0  0  0  0  0  0  0  0  0  0  0
   -2.7830   51.5226   57.0097 C   0  0  0  0  0  0  0  0  0  0  0  0
    3.3570   51.1314   61.6231 H   0  0  0  0  0  0  0  0  0  0  0  0
    4.4970   52.0473   62.7713 H   0  0  0  0  0  0  0  0  0  0  0  0
    1.8160   53.0150   60.9902 H   0  0  0  0  0  0  0  0  0  0  0  0
    2.6144   53.9390   59.6728 H   0  0  0  0  0  0  0  0  0  0  0  0
    2.6715   52.1436   59.6728 H   0  0  0  0  0  0  0  0  0  0  0  0
    7.0775   52.1220   61.8851 H   0  0  0  0  0  0  0  0  0  0  0  0
    6.0177   46.7246   58.2839 H   0  0  0  0  0  0  0  0  0  0  0  0
    8.0061   48.0594   59.0178 H   0  0  0  0  0  0  0  0  0  0  0  0
    2.5113   50.3719   57.9925 H   0  0  0  0  0  0  0  0  0  0  0  0
    1.3693   50.9657   59.2187 H   0  0  0  0  0  0  0  0  0  0  0  0
    0.8560   49.7621   56.6118 H   0  0  0  0  0  0  0  0  0  0  0  0
    0.0548   48.8234   57.9651 H   0  0  0  0  0  0  0  0  0  0  0  0
   -0.1296   47.3110   58.4613 H   0  0  0  0  0  0  0  0  0  0  0  0
   -1.8836   49.6738   56.2323 H   0  0  0  0  0  0  0  0  0  0  0  0
    3.2591   49.4338   60.0929 H   0  0  0  0  0  0  0  0  0  0  0  0
    2.6611   44.1905   57.3093 H   0  0  0  0  0  0  0  0  0  0  0  0
    4.6147   45.5857   58.0708 H   0  0  0  0  0  0  0  0  0  0  0  0
    4.6091   53.2873   60.3520 H   0  0  0  0  0  0  0  0  0  0  0  0
    3.9901   53.7596   63.0975 H   0  0  0  0  0  0  0  0  0  0  0  0
    4.9987   54.6959   61.9431 H   0  0  0  0  0  0  0  0  0  0  0  0
    3.2136   54.8959   61.9431 H   0  0  0  0  0  0  0  0  0  0  0  0
    0.3478   52.0736   59.0905 H   0  0  0  0  0  0  0  0  0  0  0  0
   -3.4669   53.3997   57.8063 H   0  0  0  0  0  0  0  0  0  0  0  0
   -3.7147   51.3847   56.4413 H   0  0  0  0  0  0  0  0  0  0  0  0
  1  2  1  0
  1  4  1  0
  1 16  2  0
  2 23  1  0
 23  3  1  0
  4 21  1  0
  5  6  2  0
  5  8  1  0
  6  7  1  0
  7 16  1  0
  7 21  2  0
  8 15  1  0
  8 17  2  0
  9 10  1  0
  9 25  1  0
 10 11  1  0
 11 14  2  0
 11 26  1  0
 12 13  2  0
 12 15  1  0
 12 25  1  0
 13 18  1  0
 14 29  1  0
 15 20  2  0
 16 17  1  0
 18 19  2  0
 18 22  1  0
 19 20  1  0
 23 24  1  0
 26 27  2  0
 27 28  1  0
 28 29  2  0
  2 30  1  0
  2 31  1  0
  3 32  1  0
  3 33  1  0
  3 34  1  0
  4 35  1  0
  5 36  1  0
  6 37  1  0
  9 38  1  0
  9 39  1  0
 10 40  1  0
 10 41  1  0
 13 42  1  0
 14 43  1  0
 17 44  1  0
 19 45  1  0
 20 46  1  0
 23 47  1  6
 24 48  1  0
 24 49  1  0
 24 50  1  0
 26 51  1  0
 28 52  1  0
 29 53  1  0
M  CHG  1  23   1
M  END
>  <filename_input>  (19) 
6TW7_NZB_docked.sdf

>  <pdb_id>  (19) 
6TW7_NZB

>  <pose_rank>  (19) 
18

>  <num_atoms_heavy>  (19) 
29

>  <num_torsions>  (19) 
7

>  <pose>  (19) 
[2.0037728167504825, 47.738577510540615, 58.79976722987906, -0.46519145866448075, -0.3634972187455846, 1.5714198983796377, -2.1135692151678174, -3.5014721084110962, -3.149785730101771, -1.3026214394799538, -2.409881648085566, 3.415614524761604, 1.3797356772570426]

>  <energy>  (19) 
-630.0886824802153

>  <inter_energy>  (19) 
-707.2591547799507

>  <intra_energy>  (19) 
72.48593221989188

>  <rmsd>  (19) 
7.34485

>  <sdf_rank>  (19) 
0

$$$$

     RDKit          3D

 53 56  0  0  0  0  0  0  0  0999 V2000
    6.8961   50.1923   61.8239 C   0  0  0  0  0  0  0  0  0  0  0  0
    7.4674   49.9239   60.4614 C   0  0  0  0  0  0  0  0  0  0  0  0
    8.3948   47.9761   59.2774 C   0  0  0  0  0  0  0  0  0  0  0  0
    7.4317   49.9449   63.0247 N   0  0  0  0  0  0  0  0  0  0  0  0
    3.2704   51.7002   63.1478 C   0  0  0  0  0  0  0  0  0  0  0  0
    4.2360   51.2485   64.0695 C   0  0  0  0  0  0  0  0  0  0  0  0
    5.4531   50.7541   63.5172 C   0  0  0  0  0  0  0  0  0  0  0  0
    3.4215   51.6415   61.7530 C   0  0  0  0  0  0  0  0  0  0  0  0
    0.6862   49.0540   59.7823 C   0  0  0  0  0  0  0  0  0  0  0  0
    1.4651   48.5526   58.5874 C   0  0  0  0  0  0  0  0  0  0  0  0
    2.1823   47.2588   58.8244 C   0  0  0  0  0  0  0  0  0  0  0  0
    1.4119   51.3190   60.1927 C   0  0  0  0  0  0  0  0  0  0  0  0
    0.4574   51.8572   59.3095 C   0  0  0  0  0  0  0  0  0  0  0  0
    1.5020   46.0588   58.5586 C   0  0  0  0  0  0  0  0  0  0  0  0
    2.4000   52.1778   60.7806 C   0  0  0  0  0  0  0  0  0  0  0  0
    5.5750   50.7387   62.0774 C   0  0  0  0  0  0  0  0  0  0  0  0
    4.5573   51.1404   61.2300 C   0  0  0  0  0  0  0  0  0  0  0  0
    0.5122   53.2246   59.1468 C   0  0  0  0  0  0  0  0  0  0  0  0
    1.4169   54.0880   59.7458 C   0  0  0  0  0  0  0  0  0  0  0  0
    2.3731   53.5499   60.6009 C   0  0  0  0  0  0  0  0  0  0  0  0
    6.6126   50.3093   64.0715 N   0  0  0  0  0  0  0  0  0  0  0  0
   -0.3485   53.8537   58.3066 F   0  0  0  0  0  0  0  0  0  0  0  0
    8.5772   48.9371   60.3623 N   0  0  1  0  0  0  0  0  0  0  0  0
    9.8817   49.6546   60.4024 C   0  0  0  0  0  0  0  0  0  0  0  0
    1.5052   50.0158   60.4359 O   0  0  0  0  0  0  0  0  0  0  0  0
    3.4857   47.2499   59.3270 C   0  0  0  0  0  0  0  0  0  0  0  0
    4.1743   46.0952   59.5632 N   0  0  0  0  0  0  0  0  0  0  0  0
    3.5366   44.9237   59.3214 C   0  0  0  0  0  0  0  0  0  0  0  0
    2.2513   44.9058   58.8084 C   0  0  0  0  0  0  0  0  0  0  0  0
    6.6463   49.5608   59.8258 H   0  0  0  0  0  0  0  0  0  0  0  0
    7.9151   50.8801   60.1526 H   0  0  0  0  0  0  0  0  0  0  0  0
    8.2054   46.9781   59.6996 H   0  0  0  0  0  0  0  0  0  0  0  0
    7.5384   48.2806   58.6578 H   0  0  0  0  0  0  0  0  0  0  0  0
    9.3032   47.9457   58.6578 H   0  0  0  0  0  0  0  0  0  0  0  0
    8.3630   49.5241   63.1539 H   0  0  0  0  0  0  0  0  0  0  0  0
    2.3381   52.1263   63.5468 H   0  0  0  0  0  0  0  0  0  0  0  0
    4.0601   51.2761   65.1550 H   0  0  0  0  0  0  0  0  0  0  0  0
   -0.2542   49.5196   59.4524 H   0  0  0  0  0  0  0  0  0  0  0  0
    0.4319   48.2269   60.4615 H   0  0  0  0  0  0  0  0  0  0  0  0
    0.7634   48.4107   57.7523 H   0  0  0  0  0  0  0  0  0  0  0  0
    2.2355   49.3075   58.3713 H   0  0  0  0  0  0  0  0  0  0  0  0
   -0.2801   51.2309   58.7862 H   0  0  0  0  0  0  0  0  0  0  0  0
    0.4676   46.0291   58.1856 H   0  0  0  0  0  0  0  0  0  0  0  0
    4.6748   51.0513   60.1399 H   0  0  0  0  0  0  0  0  0  0  0  0
    1.3795   55.1698   59.5499 H   0  0  0  0  0  0  0  0  0  0  0  0
    3.0914   54.1998   61.1222 H   0  0  0  0  0  0  0  0  0  0  0  0
    8.5704   48.3192   61.1863 H   0  0  0  0  0  0  0  0  0  0  0  0
   10.1784   49.8178   61.4489 H   0  0  0  0  0  0  0  0  0  0  0  0
   10.6479   49.0511   59.8939 H   0  0  0  0  0  0  0  0  0  0  0  0
    9.7822   50.6250   59.8939 H   0  0  0  0  0  0  0  0  0  0  0  0
    3.9763   48.2109   59.5407 H   0  0  0  0  0  0  0  0  0  0  0  0
    4.0480   43.9737   59.5359 H   0  0  0  0  0  0  0  0  0  0  0  0
    1.7944   43.9305   58.5851 H   0  0  0  0  0  0  0  0  0  0  0  0
  1  2  1  0
  1  4  1  0
  1 16  2  0
  2 23  1  0
 23  3  1  0
  4 21  1  0
  5  6  2  0
  5  8  1  0
  6  7  1  0
  7 16  1  0
  7 21  2  0
  8 15  1  0
  8 17  2  0
  9 10  1  0
  9 25  1  0
 10 11  1  0
 11 14  2  0
 11 26  1  0
 12 13  2  0
 12 15  1  0
 12 25  1  0
 13 18  1  0
 14 29  1  0
 15 20  2  0
 16 17  1  0
 18 19  2  0
 18 22  1  0
 19 20  1  0
 23 24  1  0
 26 27  2  0
 27 28  1  0
 28 29  2  0
  2 30  1  0
  2 31  1  0
  3 32  1  0
  3 33  1  0
  3 34  1  0
  4 35  1  0
  5 36  1  0
  6 37  1  0
  9 38  1  0
  9 39  1  0
 10 40  1  0
 10 41  1  0
 13 42  1  0
 14 43  1  0
 17 44  1  0
 19 45  1  0
 20 46  1  0
 23 47  1  1
 24 48  1  0
 24 49  1  0
 24 50  1  0
 26 51  1  0
 28 52  1  0
 29 53  1  0
M  CHG  1  23   1
M  END
>  <filename_input>  (20) 
6TW7_NZB_docked.sdf

>  <pdb_id>  (20) 
6TW7_NZB

>  <pose_rank>  (20) 
19

>  <num_atoms_heavy>  (20) 
29

>  <num_torsions>  (20) 
7

>  <pose>  (20) 
[1.4119493212736818, 51.31904544561099, 60.19265482349281, 1.8066287552694777, -2.081817465708353, 0.9266674623727201, 49.384873420825244, -10.706080847449554, 3.5249626861831422, 56.68107102049361, 73.75977273372962, 59.44267742804488, -6.52197621281323]

>  <energy>  (20) 
-687.7118016557037

>  <inter_energy>  (20) 
-693.572702613331

>  <intra_energy>  (20) 
4.406903910980994

>  <rmsd>  (20) 
6.10102

>  <sdf_rank>  (20) 
0

$$$$

     RDKit          3D

 53 56  0  0  0  0  0  0  0  0999 V2000
    6.6380   48.4248   59.3989 C   0  0  0  0  0  0  0  0  0  0  0  0
    6.4181   47.3436   58.3803 C   0  0  0  0  0  0  0  0  0  0  0  0
    6.4685   44.9319   57.8933 C   0  0  0  0  0  0  0  0  0  0  0  0
    7.7347   48.6947   60.1163 N   0  0  0  0  0  0  0  0  0  0  0  0
    4.1916   51.3453   61.0291 C   0  0  0  0  0  0  0  0  0  0  0  0
    5.5152   51.1853   61.4855 C   0  0  0  0  0  0  0  0  0  0  0  0
    6.2792   50.1587   60.8585 C   0  0  0  0  0  0  0  0  0  0  0  0
    3.5890   50.5349   60.0535 C   0  0  0  0  0  0  0  0  0  0  0  0
    0.6261   47.5027   60.3823 C   0  0  0  0  0  0  0  0  0  0  0  0
    0.1953   47.0876   58.9938 C   0  0  0  0  0  0  0  0  0  0  0  0
    1.0802   46.0573   58.3617 C   0  0  0  0  0  0  0  0  0  0  0  0
    1.1695   49.7565   59.7109 C   0  0  0  0  0  0  0  0  0  0  0  0
   -0.1340   50.0032   59.2412 C   0  0  0  0  0  0  0  0  0  0  0  0
    0.6544   44.7186   58.3629 C   0  0  0  0  0  0  0  0  0  0  0  0
    2.1876   50.7530   59.5382 C   0  0  0  0  0  0  0  0  0  0  0  0
    5.6264   49.3683   59.8401 C   0  0  0  0  0  0  0  0  0  0  0  0
    4.2997   49.5408   59.4865 C   0  0  0  0  0  0  0  0  0  0  0  0
   -0.3398   51.2581   58.7101 C   0  0  0  0  0  0  0  0  0  0  0  0
    0.6079   52.2623   58.5829 C   0  0  0  0  0  0  0  0  0  0  0  0
    1.9010   52.0072   59.0279 C   0  0  0  0  0  0  0  0  0  0  0  0
    7.5742   49.7600   60.9759 N   0  0  0  0  0  0  0  0  0  0  0  0
   -1.5534   51.6045   58.2104 F   0  0  0  0  0  0  0  0  0  0  0  0
    7.1046   46.0414   58.5994 N   0  0  1  0  0  0  0  0  0  0  0  0
    8.5687   46.2125   58.3868 C   0  0  0  0  0  0  0  0  0  0  0  0
    1.5334   48.5870   60.2270 O   0  0  0  0  0  0  0  0  0  0  0  0
    2.3128   46.4188   57.8125 C   0  0  0  0  0  0  0  0  0  0  0  0
    3.1528   45.5129   57.2321 N   0  0  0  0  0  0  0  0  0  0  0  0
    2.7674   44.2132   57.2273 C   0  0  0  0  0  0  0  0  0  0  0  0
    1.5442   43.8318   57.7506 C   0  0  0  0  0  0  0  0  0  0  0  0
    5.3372   47.1434   58.3409 H   0  0  0  0  0  0  0  0  0  0  0  0
    6.8583   47.7393   57.4531 H   0  0  0  0  0  0  0  0  0  0  0  0
    6.0596   44.2186   58.6240 H   0  0  0  0  0  0  0  0  0  0  0  0
    5.6544   45.3176   57.2621 H   0  0  0  0  0  0  0  0  0  0  0  0
    7.2127   44.4242   57.2621 H   0  0  0  0  0  0  0  0  0  0  0  0
    8.6112   48.1600   60.0343 H   0  0  0  0  0  0  0  0  0  0  0  0
    3.5916   52.1576   61.4654 H   0  0  0  0  0  0  0  0  0  0  0  0
    5.9353   51.8176   62.2815 H   0  0  0  0  0  0  0  0  0  0  0  0
   -0.2475   47.8216   60.9698 H   0  0  0  0  0  0  0  0  0  0  0  0
    1.1013   46.6650   60.9138 H   0  0  0  0  0  0  0  0  0  0  0  0
   -0.8232   46.6769   59.0564 H   0  0  0  0  0  0  0  0  0  0  0  0
    0.2527   47.9861   58.3618 H   0  0  0  0  0  0  0  0  0  0  0  0
   -0.9320   49.2479   59.2942 H   0  0  0  0  0  0  0  0  0  0  0  0
   -0.2984   44.3958   58.8078 H   0  0  0  0  0  0  0  0  0  0  0  0
    3.8299   48.8728   58.7496 H   0  0  0  0  0  0  0  0  0  0  0  0
    0.3443   53.2349   58.1417 H   0  0  0  0  0  0  0  0  0  0  0  0
    2.6777   52.7843   58.9755 H   0  0  0  0  0  0  0  0  0  0  0  0
    6.9950   45.7489   59.5809 H   0  0  0  0  0  0  0  0  0  0  0  0
    9.0762   46.2718   59.3609 H   0  0  0  0  0  0  0  0  0  0  0  0
    8.9599   45.3539   57.8212 H   0  0  0  0  0  0  0  0  0  0  0  0
    8.7514   47.1381   57.8212 H   0  0  0  0  0  0  0  0  0  0  0  0
    2.6184   47.4748   57.8493 H   0  0  0  0  0  0  0  0  0  0  0  0
    3.4364   43.4508   56.8015 H   0  0  0  0  0  0  0  0  0  0  0  0
    1.2566   42.7724   57.6808 H   0  0  0  0  0  0  0  0  0  0  0  0
  1  2  1  0
  1  4  1  0
  1 16  2  0
  2 23  1  0
 23  3  1  0
  4 21  1  0
  5  6  2  0
  5  8  1  0
  6  7  1  0
  7 16  1  0
  7 21  2  0
  8 15  1  0
  8 17  2  0
  9 10  1  0
  9 25  1  0
 10 11  1  0
 11 14  2  0
 11 26  1  0
 12 13  2  0
 12 15  1  0
 12 25  1  0
 13 18  1  0
 14 29  1  0
 15 20  2  0
 16 17  1  0
 18 19  2  0
 18 22  1  0
 19 20  1  0
 23 24  1  0
 26 27  2  0
 27 28  1  0
 28 29  2  0
  2 30  1  0
  2 31  1  0
  3 32  1  0
  3 33  1  0
  3 34  1  0
  4 35  1  0
  5 36  1  0
  6 37  1  0
  9 38  1  0
  9 39  1  0
 10 40  1  0
 10 41  1  0
 13 42  1  0
 14 43  1  0
 17 44  1  0
 19 45  1  0
 20 46  1  0
 23 47  1  1
 24 48  1  0
 24 49  1  0
 24 50  1  0
 26 51  1  0
 28 52  1  0
 29 53  1  0
M  CHG  1  23   1
M  END
>  <filename_input>  (21) 
6TW7_NZB_docked.sdf

>  <pdb_id>  (21) 
6TW7_NZB

>  <pose_rank>  (21) 
20

>  <num_atoms_heavy>  (21) 
29

>  <num_torsions>  (21) 
7

>  <pose>  (21) 
[1.169539504534598, 49.75646695964617, 59.71089091082922, 1.740631287891397, -1.5215698138819176, 0.7068929949927014, 48.99599731541339, -10.4412989085828, 3.953492630448511, 56.60148077759562, 73.23644709396002, 59.28867672181442, -6.3167536342772745]

>  <energy>  (21) 
-636.3981518175674

>  <inter_energy>  (21) 
-680.2887400173855

>  <intra_energy>  (21) 
45.817126133852916

>  <rmsd>  (21) 
5.83891

>  <sdf_rank>  (21) 
0

$$$$

     RDKit          3D

 53 56  0  0  0  0  0  0  0  0999 V2000
    9.7631   46.5592   59.0185 C   0  0  0  0  0  0  0  0  0  0  0  0
   10.1596   45.2922   59.7202 C   0  0  0  0  0  0  0  0  0  0  0  0
    9.5061   43.9429   57.7686 C   0  0  0  0  0  0  0  0  0  0  0  0
   10.5341   47.5786   58.6226 N   0  0  0  0  0  0  0  0  0  0  0  0
    6.1204   48.1455   57.8413 C   0  0  0  0  0  0  0  0  0  0  0  0
    7.3109   48.8772   57.6591 C   0  0  0  0  0  0  0  0  0  0  0  0
    8.5129   48.2442   58.0897 C   0  0  0  0  0  0  0  0  0  0  0  0
    6.0545   46.8839   58.4543 C   0  0  0  0  0  0  0  0  0  0  0  0
    2.4343   48.8902   58.8797 C   0  0  0  0  0  0  0  0  0  0  0  0
    2.9810   50.2731   58.6069 C   0  0  0  0  0  0  0  0  0  0  0  0
    1.9932   51.3764   58.8326 C   0  0  0  0  0  0  0  0  0  0  0  0
    3.5278   46.7385   58.8686 C   0  0  0  0  0  0  0  0  0  0  0  0
    2.3522   45.9709   58.9669 C   0  0  0  0  0  0  0  0  0  0  0  0
    2.4097   52.5107   59.5491 C   0  0  0  0  0  0  0  0  0  0  0  0
    4.7786   46.0907   58.5942 C   0  0  0  0  0  0  0  0  0  0  0  0
    8.3997   46.9344   58.6893 C   0  0  0  0  0  0  0  0  0  0  0  0
    7.1865   46.3011   58.8944 C   0  0  0  0  0  0  0  0  0  0  0  0
    2.5036   44.6271   58.7015 C   0  0  0  0  0  0  0  0  0  0  0  0
    3.6872   43.9817   58.3765 C   0  0  0  0  0  0  0  0  0  0  0  0
    4.8512   44.7397   58.3021 C   0  0  0  0  0  0  0  0  0  0  0  0
    9.8251   48.5946   58.0187 N   0  0  0  0  0  0  0  0  0  0  0  0
    1.4421   43.7850   58.7814 F   0  0  0  0  0  0  0  0  0  0  0  0
   10.4441   44.0987   58.8776 N   0  0  1  0  0  0  0  0  0  0  0  0
   11.8925   44.0716   58.5319 C   0  0  0  0  0  0  0  0  0  0  0  0
    3.5518   48.0435   59.1191 O   0  0  0  0  0  0  0  0  0  0  0  0
    0.6811   51.2626   58.3666 C   0  0  0  0  0  0  0  0  0  0  0  0
   -0.2529   52.2401   58.5546 N   0  0  0  0  0  0  0  0  0  0  0  0
    0.1228   53.3417   59.2497 C   0  0  0  0  0  0  0  0  0  0  0  0
    1.4208   53.4854   59.7079 C   0  0  0  0  0  0  0  0  0  0  0  0
   11.0677   45.5084   60.3021 H   0  0  0  0  0  0  0  0  0  0  0  0
    9.2759   45.0122   60.3123 H   0  0  0  0  0  0  0  0  0  0  0  0
    8.4940   43.7748   58.1653 H   0  0  0  0  0  0  0  0  0  0  0  0
    9.5119   44.8543   57.1527 H   0  0  0  0  0  0  0  0  0  0  0  0
    9.8062   43.0823   57.1527 H   0  0  0  0  0  0  0  0  0  0  0  0
   11.5552   47.6017   58.7557 H   0  0  0  0  0  0  0  0  0  0  0  0
    5.1820   48.5914   57.4798 H   0  0  0  0  0  0  0  0  0  0  0  0
    7.3123   49.8811   57.2096 H   0  0  0  0  0  0  0  0  0  0  0  0
    1.7789   48.9101   59.7629 H   0  0  0  0  0  0  0  0  0  0  0  0
    1.8404   48.5267   58.0282 H   0  0  0  0  0  0  0  0  0  0  0  0
    3.8433   50.4406   59.2690 H   0  0  0  0  0  0  0  0  0  0  0  0
    3.2519   50.3027   57.5412 H   0  0  0  0  0  0  0  0  0  0  0  0
    1.3814   46.4123   59.2364 H   0  0  0  0  0  0  0  0  0  0  0  0
    3.4276   52.6223   59.9509 H   0  0  0  0  0  0  0  0  0  0  0  0
    7.1469   45.3312   59.4118 H   0  0  0  0  0  0  0  0  0  0  0  0
    3.7051   42.8991   58.1828 H   0  0  0  0  0  0  0  0  0  0  0  0
    5.8073   44.2762   58.0176 H   0  0  0  0  0  0  0  0  0  0  0  0
   10.2674   43.2394   59.4173 H   0  0  0  0  0  0  0  0  0  0  0  0
   12.4898   44.0604   59.4556 H   0  0  0  0  0  0  0  0  0  0  0  0
   12.1119   43.1692   57.9424 H   0  0  0  0  0  0  0  0  0  0  0  0
   12.1455   44.9651   57.9424 H   0  0  0  0  0  0  0  0  0  0  0  0
    0.3893   50.3495   57.8271 H   0  0  0  0  0  0  0  0  0  0  0  0
   -0.6144   54.1325   59.4523 H   0  0  0  0  0  0  0  0  0  0  0  0
    1.6888   54.4182   60.2257 H   0  0  0  0  0  0  0  0  0  0  0  0
  1  2  1  0
  1  4  1  0
  1 16  2  0
  2 23  1  0
 23  3  1  0
  4 21  1  0
  5  6  2  0
  5  8  1  0
  6  7  1  0
  7 16  1  0
  7 21  2  0
  8 15  1  0
  8 17  2  0
  9 10  1  0
  9 25  1  0
 10 11  1  0
 11 14  2  0
 11 26  1  0
 12 13  2  0
 12 15  1  0
 12 25  1  0
 13 18  1  0
 14 29  1  0
 15 20  2  0
 16 17  1  0
 18 19  2  0
 18 22  1  0
 19 20  1  0
 23 24  1  0
 26 27  2  0
 27 28  1  0
 28 29  2  0
  2 30  1  0
  2 31  1  0
  3 32  1  0
  3 33  1  0
  3 34  1  0
  4 35  1  0
  5 36  1  0
  6 37  1  0
  9 38  1  0
  9 39  1  0
 10 40  1  0
 10 41  1  0
 13 42  1  0
 14 43  1  0
 17 44  1  0
 19 45  1  0
 20 46  1  0
 23 47  1  1
 24 48  1  0
 24 49  1  0
 24 50  1  0
 26 51  1  0
 28 52  1  0
 29 53  1  0
M  CHG  1  23   1
M  END
>  <filename_input>  (22) 
6TW7_NZB_docked.sdf

>  <pdb_id>  (22) 
6TW7_NZB

>  <pose_rank>  (22) 
21

>  <num_atoms_heavy>  (22) 
29

>  <num_torsions>  (22) 
7

>  <pose>  (22) 
[3.527810768538274, 46.73845728638097, 58.868607256827396, 1.18015920113236, -0.15964451307655753, -4.450732553437853, 0.13953907400607557, -0.10047217840911747, 0.4783363599169542, 12.111357885673826, 0.34046077851220125, 17.272671251818682, -5.737432117511365]

>  <energy>  (22) 
-654.8453255965056

>  <inter_energy>  (22) 
-656.4386573763225

>  <intra_energy>  (22) 
25.68265275736402

>  <rmsd>  (22) 
6.99372

>  <sdf_rank>  (22) 
0

$$$$

     RDKit          3D

 53 56  0  0  0  0  0  0  0  0999 V2000
    1.1481   50.0359   59.6003 C   0  0  0  0  0  0  0  0  0  0  0  0
    1.7530   51.2252   60.2892 C   0  0  0  0  0  0  0  0  0  0  0  0
    2.4196   52.2622   58.1594 C   0  0  0  0  0  0  0  0  0  0  0  0
   -0.1377   49.7847   59.3287 N   0  0  0  0  0  0  0  0  0  0  0  0
    2.7177   46.5028   58.1086 C   0  0  0  0  0  0  0  0  0  0  0  0
    1.3279   46.7347   58.0824 C   0  0  0  0  0  0  0  0  0  0  0  0
    0.8861   47.9816   58.6121 C   0  0  0  0  0  0  0  0  0  0  0  0
    3.6562   47.3893   58.6609 C   0  0  0  0  0  0  0  0  0  0  0  0
    6.0796   49.6918   61.0674 C   0  0  0  0  0  0  0  0  0  0  0  0
    6.2942   51.1623   60.7892 C   0  0  0  0  0  0  0  0  0  0  0  0
    6.9039   51.9176   61.9303 C   0  0  0  0  0  0  0  0  0  0  0  0
    6.0512   48.0241   59.3228 C   0  0  0  0  0  0  0  0  0  0  0  0
    7.4327   47.7564   59.2985 C   0  0  0  0  0  0  0  0  0  0  0  0
    8.1617   51.5106   62.4056 C   0  0  0  0  0  0  0  0  0  0  0  0
    5.1457   47.1497   58.6336 C   0  0  0  0  0  0  0  0  0  0  0  0
    1.8901   48.8743   59.1440 C   0  0  0  0  0  0  0  0  0  0  0  0
    3.2350   48.5522   59.1946 C   0  0  0  0  0  0  0  0  0  0  0  0
    7.7946   46.5912   58.6579 C   0  0  0  0  0  0  0  0  0  0  0  0
    6.9386   45.6965   58.0337 C   0  0  0  0  0  0  0  0  0  0  0  0
    5.5758   45.9755   58.0404 C   0  0  0  0  0  0  0  0  0  0  0  0
   -0.3339   48.5771   58.6941 N   0  0  0  0  0  0  0  0  0  0  0  0
    9.1011   46.2372   58.5572 F   0  0  0  0  0  0  0  0  0  0  0  0
    2.7871   51.9977   59.5483 N   0  0  1  0  0  0  0  0  0  0  0  0
    3.2023   53.1743   60.3615 C   0  0  0  0  0  0  0  0  0  0  0  0
    5.5456   49.1198   59.8796 O   0  0  0  0  0  0  0  0  0  0  0  0
    6.2208   52.9813   62.5248 C   0  0  0  0  0  0  0  0  0  0  0  0
    6.7357   53.6931   63.5696 N   0  0  0  0  0  0  0  0  0  0  0  0
    7.9452   53.3149   64.0510 C   0  0  0  0  0  0  0  0  0  0  0  0
    8.6489   52.2748   63.4694 C   0  0  0  0  0  0  0  0  0  0  0  0
    0.9335   51.9184   60.5296 H   0  0  0  0  0  0  0  0  0  0  0  0
    2.2850   50.8057   61.1558 H   0  0  0  0  0  0  0  0  0  0  0  0
    1.5270   52.9045   58.1322 H   0  0  0  0  0  0  0  0  0  0  0  0
    3.2521   52.7697   57.6500 H   0  0  0  0  0  0  0  0  0  0  0  0
    2.2029   51.3116   57.6500 H   0  0  0  0  0  0  0  0  0  0  0  0
   -0.9041   50.4292   59.5698 H   0  0  0  0  0  0  0  0  0  0  0  0
    3.0915   45.5667   57.6680 H   0  0  0  0  0  0  0  0  0  0  0  0
    0.6234   45.9944   57.6756 H   0  0  0  0  0  0  0  0  0  0  0  0
    7.0359   49.2114   61.3216 H   0  0  0  0  0  0  0  0  0  0  0  0
    5.3946   49.5477   61.9160 H   0  0  0  0  0  0  0  0  0  0  0  0
    6.9596   51.2556   59.9183 H   0  0  0  0  0  0  0  0  0  0  0  0
    5.3007   51.6004   60.6134 H   0  0  0  0  0  0  0  0  0  0  0  0
    8.1712   48.4296   59.7582 H   0  0  0  0  0  0  0  0  0  0  0  0
    8.7159   50.6626   61.9769 H   0  0  0  0  0  0  0  0  0  0  0  0
    3.9532   49.2392   59.6661 H   0  0  0  0  0  0  0  0  0  0  0  0
    7.3269   44.7901   57.5461 H   0  0  0  0  0  0  0  0  0  0  0  0
    4.8566   45.2790   57.5847 H   0  0  0  0  0  0  0  0  0  0  0  0
    3.6344   51.4241   59.4300 H   0  0  0  0  0  0  0  0  0  0  0  0
    3.1161   52.9299   61.4305 H   0  0  0  0  0  0  0  0  0  0  0  0
    4.2457   53.4321   60.1273 H   0  0  0  0  0  0  0  0  0  0  0  0
    2.5518   54.0299   60.1273 H   0  0  0  0  0  0  0  0  0  0  0  0
    5.2293   53.2561   62.1358 H   0  0  0  0  0  0  0  0  0  0  0  0
    8.3733   53.8423   64.9162 H   0  0  0  0  0  0  0  0  0  0  0  0
    9.6468   52.0365   63.8663 H   0  0  0  0  0  0  0  0  0  0  0  0
  1  2  1  0
  1  4  1  0
  1 16  2  0
  2 23  1  0
 23  3  1  0
  4 21  1  0
  5  6  2  0
  5  8  1  0
  6  7  1  0
  7 16  1  0
  7 21  2  0
  8 15  1  0
  8 17  2  0
  9 10  1  0
  9 25  1  0
 10 11  1  0
 11 14  2  0
 11 26  1  0
 12 13  2  0
 12 15  1  0
 12 25  1  0
 13 18  1  0
 14 29  1  0
 15 20  2  0
 16 17  1  0
 18 19  2  0
 18 22  1  0
 19 20  1  0
 23 24  1  0
 26 27  2  0
 27 28  1  0
 28 29  2  0
  2 30  1  0
  2 31  1  0
  3 32  1  0
  3 33  1  0
  3 34  1  0
  4 35  1  0
  5 36  1  0
  6 37  1  0
  9 38  1  0
  9 39  1  0
 10 40  1  0
 10 41  1  0
 13 42  1  0
 14 43  1  0
 17 44  1  0
 19 45  1  0
 20 46  1  0
 23 47  1  6
 24 48  1  0
 24 49  1  0
 24 50  1  0
 26 51  1  0
 28 52  1  0
 29 53  1  0
M  CHG  1  23   1
M  END
>  <filename_input>  (23) 
6TW7_NZB_docked.sdf

>  <pdb_id>  (23) 
6TW7_NZB

>  <pose_rank>  (23) 
22

>  <num_atoms_heavy>  (23) 
29

>  <num_torsions>  (23) 
7

>  <pose>  (23) 
[6.051190204505866, 48.02406844805983, 59.322783347949105, -1.420747048683193, -1.8670277263360138, -1.4530128011271723, 10.320323804721662, -0.6111063238786038, 1.9800501150799141, -0.5613662147212961, -1.0213688495504738, -8.19995904728884, -0.7627789234442763]

>  <energy>  (23) 
-641.3596871650244

>  <inter_energy>  (23) 
-669.0183824453572

>  <intra_energy>  (23) 
42.54966605920037

>  <rmsd>  (23) 
5.55845

>  <sdf_rank>  (23) 
0

$$$$

     RDKit          3D

 53 56  0  0  0  0  0  0  0  0999 V2000
    3.6022   51.7926   60.8254 C   0  0  0  0  0  0  0  0  0  0  0  0
    2.1169   51.9990   60.9043 C   0  0  0  0  0  0  0  0  0  0  0  0
    1.6868   54.2896   60.1142 C   0  0  0  0  0  0  0  0  0  0  0  0
    4.5872   52.6090   61.2169 N   0  0  0  0  0  0  0  0  0  0  0  0
    5.9823   48.7797   59.2669 C   0  0  0  0  0  0  0  0  0  0  0  0
    6.5652   49.9416   59.8112 C   0  0  0  0  0  0  0  0  0  0  0  0
    5.6640   50.9169   60.3282 C   0  0  0  0  0  0  0  0  0  0  0  0
    4.5987   48.5638   59.1643 C   0  0  0  0  0  0  0  0  0  0  0  0
    7.0359   45.4025   58.1533 C   0  0  0  0  0  0  0  0  0  0  0  0
    8.3615   46.0803   58.4166 C   0  0  0  0  0  0  0  0  0  0  0  0
    9.4570   45.1431   58.8239 C   0  0  0  0  0  0  0  0  0  0  0  0
    4.7535   46.0778   58.5537 C   0  0  0  0  0  0  0  0  0  0  0  0
    4.1479   44.9023   58.0716 C   0  0  0  0  0  0  0  0  0  0  0  0
   10.5942   45.6768   59.4526 C   0  0  0  0  0  0  0  0  0  0  0  0
    3.9912   47.2913   58.6270 C   0  0  0  0  0  0  0  0  0  0  0  0
    4.2496   50.6393   60.2264 C   0  0  0  0  0  0  0  0  0  0  0  0
    3.7460   49.5018   59.6201 C   0  0  0  0  0  0  0  0  0  0  0  0
    2.8057   45.0103   57.7784 C   0  0  0  0  0  0  0  0  0  0  0  0
    2.0284   46.1527   57.8940 C   0  0  0  0  0  0  0  0  0  0  0  0
    2.6354   47.3185   58.3498 C   0  0  0  0  0  0  0  0  0  0  0  0
    5.8448   52.0994   60.9753 N   0  0  0  0  0  0  0  0  0  0  0  0
    2.1191   43.9458   57.2906 F   0  0  0  0  0  0  0  0  0  0  0  0
    1.4859   52.8634   59.8699 N   0  0  1  0  0  0  0  0  0  0  0  0
    1.8532   52.3627   58.5163 C   0  0  0  0  0  0  0  0  0  0  0  0
    6.0459   46.1428   58.8567 O   0  0  0  0  0  0  0  0  0  0  0  0
    9.3595   43.7757   58.5552 C   0  0  0  0  0  0  0  0  0  0  0  0
   10.3355   42.8871   58.9030 N   0  0  0  0  0  0  0  0  0  0  0  0
   11.4464   43.3788   59.5046 C   0  0  0  0  0  0  0  0  0  0  0  0
   11.5602   44.7270   59.7959 C   0  0  0  0  0  0  0  0  0  0  0  0
    1.6429   51.0084   60.8393 H   0  0  0  0  0  0  0  0  0  0  0  0
    1.9591   52.5357   61.8514 H   0  0  0  0  0  0  0  0  0  0  0  0
    1.7130   54.4758   61.1980 H   0  0  0  0  0  0  0  0  0  0  0  0
    2.6386   54.6081   59.6642 H   0  0  0  0  0  0  0  0  0  0  0  0
    0.8599   54.8586   59.6642 H   0  0  0  0  0  0  0  0  0  0  0  0
    4.4222   53.5265   61.6550 H   0  0  0  0  0  0  0  0  0  0  0  0
    6.6548   47.9909   58.8986 H   0  0  0  0  0  0  0  0  0  0  0  0
    7.6552   50.0876   59.8356 H   0  0  0  0  0  0  0  0  0  0  0  0
    6.8166   45.4067   57.0754 H   0  0  0  0  0  0  0  0  0  0  0  0
    7.0561   44.3550   58.4884 H   0  0  0  0  0  0  0  0  0  0  0  0
    8.6734   46.5979   57.4976 H   0  0  0  0  0  0  0  0  0  0  0  0
    8.2037   46.7694   59.2594 H   0  0  0  0  0  0  0  0  0  0  0  0
    4.7063   43.9640   57.9383 H   0  0  0  0  0  0  0  0  0  0  0  0
   10.7143   46.7509   59.6572 H   0  0  0  0  0  0  0  0  0  0  0  0
    2.6600   49.3650   59.5113 H   0  0  0  0  0  0  0  0  0  0  0  0
    0.9601   46.1376   57.6323 H   0  0  0  0  0  0  0  0  0  0  0  0
    2.0514   48.2405   58.4867 H   0  0  0  0  0  0  0  0  0  0  0  0
    0.4604   52.7881   59.9293 H   0  0  0  0  0  0  0  0  0  0  0  0
    2.5012   51.4793   58.6154 H   0  0  0  0  0  0  0  0  0  0  0  0
    0.9407   52.0882   57.9668 H   0  0  0  0  0  0  0  0  0  0  0  0
    2.3890   53.1507   57.9668 H   0  0  0  0  0  0  0  0  0  0  0  0
    8.4612   43.4004   58.0433 H   0  0  0  0  0  0  0  0  0  0  0  0
   12.2691   42.6965   59.7648 H   0  0  0  0  0  0  0  0  0  0  0  0
   12.4604   45.0697   60.3270 H   0  0  0  0  0  0  0  0  0  0  0  0
  1  2  1  0
  1  4  1  0
  1 16  2  0
  2 23  1  0
 23  3  1  0
  4 21  1  0
  5  6  2  0
  5  8  1  0
  6  7  1  0
  7 16  1  0
  7 21  2  0
  8 15  1  0
  8 17  2  0
  9 10  1  0
  9 25  1  0
 10 11  1  0
 11 14  2  0
 11 26  1  0
 12 13  2  0
 12 15  1  0
 12 25  1  0
 13 18  1  0
 14 29  1  0
 15 20  2  0
 16 17  1  0
 18 19  2  0
 18 22  1  0
 19 20  1  0
 23 24  1  0
 26 27  2  0
 27 28  1  0
 28 29  2  0
  2 30  1  0
  2 31  1  0
  3 32  1  0
  3 33  1  0
  3 34  1  0
  4 35  1  0
  5 36  1  0
  6 37  1  0
  9 38  1  0
  9 39  1  0
 10 40  1  0
 10 41  1  0
 13 42  1  0
 14 43  1  0
 17 44  1  0
 19 45  1  0
 20 46  1  0
 23 47  1  6
 24 48  1  0
 24 49  1  0
 24 50  1  0
 26 51  1  0
 28 52  1  0
 29 53  1  0
M  CHG  1  23   1
M  END
>  <filename_input>  (24) 
6TW7_NZB_docked.sdf

>  <pdb_id>  (24) 
6TW7_NZB

>  <pose_rank>  (24) 
23

>  <num_atoms_heavy>  (24) 
29

>  <num_torsions>  (24) 
7

>  <pose>  (24) 
[4.753505497431484, 46.07776024249925, 58.55367248124945, 2.8108256718471267, -0.1446598834930628, 1.0644174828720183, 1.1181988225647628, 2.9129952882083914, -0.1619000833938289, 0.6660245636299494, -0.49106133794953855, 3.4881243198840926, 1.658891900534916]

>  <energy>  (24) 
-639.705367050595

>  <inter_energy>  (24) 
-658.4700000614495

>  <intra_energy>  (24) 
33.11715361472429

>  <rmsd>  (24) 
6.8512

>  <sdf_rank>  (24) 
0

$$$$

     RDKit          3D

 53 56  0  0  0  0  0  0  0  0999 V2000
    2.2691   51.0946   59.4793 C   0  0  0  0  0  0  0  0  0  0  0  0
    2.3282   49.6220   59.1915 C   0  0  0  0  0  0  0  0  0  0  0  0
    0.5301   49.3776   60.8538 C   0  0  0  0  0  0  0  0  0  0  0  0
    1.6507   52.0621   58.7926 N   0  0  0  0  0  0  0  0  0  0  0  0
    3.9838   53.5024   62.3835 C   0  0  0  0  0  0  0  0  0  0  0  0
    3.2089   54.0687   61.3517 C   0  0  0  0  0  0  0  0  0  0  0  0
    2.6562   53.1582   60.4050 C   0  0  0  0  0  0  0  0  0  0  0  0
    4.2732   52.1327   62.4932 C   0  0  0  0  0  0  0  0  0  0  0  0
    7.7734   52.9033   62.1835 C   0  0  0  0  0  0  0  0  0  0  0  0
    7.8166   53.6271   63.5101 C   0  0  0  0  0  0  0  0  0  0  0  0
    7.8390   55.1203   63.3912 C   0  0  0  0  0  0  0  0  0  0  0  0
    6.4864   51.3915   63.5560 C   0  0  0  0  0  0  0  0  0  0  0  0
    7.1930   50.8548   64.6484 C   0  0  0  0  0  0  0  0  0  0  0  0
    6.6185   55.8138   63.4450 C   0  0  0  0  0  0  0  0  0  0  0  0
    5.0607   51.5359   63.6336 C   0  0  0  0  0  0  0  0  0  0  0  0
    2.9576   51.7551   60.5737 C   0  0  0  0  0  0  0  0  0  0  0  0
    3.7809   51.2760   61.5776 C   0  0  0  0  0  0  0  0  0  0  0  0
    6.4315   50.5814   65.7640 C   0  0  0  0  0  0  0  0  0  0  0  0
    5.0628   50.7646   65.8899 C   0  0  0  0  0  0  0  0  0  0  0  0
    4.3640   51.2744   64.8005 C   0  0  0  0  0  0  0  0  0  0  0  0
    1.8226   53.3145   59.3419 N   0  0  0  0  0  0  0  0  0  0  0  0
    7.0017   50.0457   66.8732 F   0  0  0  0  0  0  0  0  0  0  0  0
    1.2276   48.7721   59.7220 N   0  0  1  0  0  0  0  0  0  0  0  0
    0.3784   48.3013   58.5927 C   0  0  0  0  0  0  0  0  0  0  0  0
    7.0733   51.6843   62.4000 O   0  0  0  0  0  0  0  0  0  0  0  0
    9.0442   55.8005   63.2007 C   0  0  0  0  0  0  0  0  0  0  0  0
    9.1107   57.1587   63.0817 N   0  0  0  0  0  0  0  0  0  0  0  0
    7.9453   57.8499   63.1231 C   0  0  0  0  0  0  0  0  0  0  0  0
    6.7400   57.2010   63.3268 C   0  0  0  0  0  0  0  0  0  0  0  0
    2.3404   49.5004   58.0984 H   0  0  0  0  0  0  0  0  0  0  0  0
    3.2297   49.2708   59.7149 H   0  0  0  0  0  0  0  0  0  0  0  0
    0.9617   49.0029   61.7936 H   0  0  0  0  0  0  0  0  0  0  0  0
    0.6404   50.4712   60.8100 H   0  0  0  0  0  0  0  0  0  0  0  0
   -0.5372   49.1147   60.8100 H   0  0  0  0  0  0  0  0  0  0  0  0
    1.1011   51.8885   57.9389 H   0  0  0  0  0  0  0  0  0  0  0  0
    4.3882   54.1768   63.1527 H   0  0  0  0  0  0  0  0  0  0  0  0
    3.0400   55.1534   61.2810 H   0  0  0  0  0  0  0  0  0  0  0  0
    7.2464   53.5145   61.4361 H   0  0  0  0  0  0  0  0  0  0  0  0
    8.7889   52.7122   61.8062 H   0  0  0  0  0  0  0  0  0  0  0  0
    6.9267   53.3400   64.0895 H   0  0  0  0  0  0  0  0  0  0  0  0
    8.7560   53.3337   64.0014 H   0  0  0  0  0  0  0  0  0  0  0  0
    8.2763   50.6670   64.6142 H   0  0  0  0  0  0  0  0  0  0  0  0
    5.6497   55.3080   63.5696 H   0  0  0  0  0  0  0  0  0  0  0  0
    4.0309   50.2060   61.6274 H   0  0  0  0  0  0  0  0  0  0  0  0
    4.5434   50.5134   66.8265 H   0  0  0  0  0  0  0  0  0  0  0  0
    3.2826   51.4653   64.8650 H   0  0  0  0  0  0  0  0  0  0  0  0
    1.6186   47.9225   60.1535 H   0  0  0  0  0  0  0  0  0  0  0  0
   -0.5184   47.8040   58.9908 H   0  0  0  0  0  0  0  0  0  0  0  0
    0.0777   49.1615   57.9766 H   0  0  0  0  0  0  0  0  0  0  0  0
    0.9488   47.5906   57.9766 H   0  0  0  0  0  0  0  0  0  0  0  0
    9.9762   55.2188   63.1444 H   0  0  0  0  0  0  0  0  0  0  0  0
    7.9579   58.9421   62.9929 H   0  0  0  0  0  0  0  0  0  0  0  0
    5.8273   57.8107   63.3996 H   0  0  0  0  0  0  0  0  0  0  0  0
  1  2  1  0
  1  4  1  0
  1 16  2  0
  2 23  1  0
 23  3  1  0
  4 21  1  0
  5  6  2  0
  5  8  1  0
  6  7  1  0
  7 16  1  0
  7 21  2  0
  8 15  1  0
  8 17  2  0
  9 10  1  0
  9 25  1  0
 10 11  1  0
 11 14  2  0
 11 26  1  0
 12 13  2  0
 12 15  1  0
 12 25  1  0
 13 18  1  0
 14 29  1  0
 15 20  2  0
 16 17  1  0
 18 19  2  0
 18 22  1  0
 19 20  1  0
 23 24  1  0
 26 27  2  0
 27 28  1  0
 28 29  2  0
  2 30  1  0
  2 31  1  0
  3 32  1  0
  3 33  1  0
  3 34  1  0
  4 35  1  0
  5 36  1  0
  6 37  1  0
  9 38  1  0
  9 39  1  0
 10 40  1  0
 10 41  1  0
 13 42  1  0
 14 43  1  0
 17 44  1  0
 19 45  1  0
 20 46  1  0
 23 47  1  1
 24 48  1  0
 24 49  1  0
 24 50  1  0
 26 51  1  0
 28 52  1  0
 29 53  1  0
M  CHG  1  23   1
M  END
>  <filename_input>  (25) 
6TW7_NZB_docked.sdf

>  <pdb_id>  (25) 
6TW7_NZB

>  <pose_rank>  (25) 
24

>  <num_atoms_heavy>  (25) 
29

>  <num_torsions>  (25) 
7

>  <pose>  (25) 
[6.4863829904420545, 51.39146496927365, 63.55595379619816, -3.3005439335447377, -2.523899198228589, 0.35445360249687635, 5.4858089765806595, -6.268689544898687, 0.8068071306003989, -13.9224947943708, 3.104217745508366, -7.709013479747661, -0.1617464070907902]

>  <energy>  (25) 
-522.192125134096

>  <inter_energy>  (25) 
-552.3253744139499

>  <intra_energy>  (25) 
27.740187699892807

>  <rmsd>  (25) 
6.28284

>  <sdf_rank>  (25) 
0

$$$$

     RDKit          3D

 53 56  0  0  0  0  0  0  0  0999 V2000
    3.2040   45.6010   59.0160 C   0  0  0  0  0  0  0  0  0  0  0  0
    1.8120   45.1880   59.3990 C   0  0  0  0  0  0  0  0  0  0  0  0
    0.4590   46.2400   57.6330 C   0  0  0  0  0  0  0  0  0  0  0  0
    4.2500   44.8330   58.6900 N   0  0  0  0  0  0  0  0  0  0  0  0
    5.1240   49.2650   58.7700 C   0  0  0  0  0  0  0  0  0  0  0  0
    5.8310   48.0700   58.5290 C   0  0  0  0  0  0  0  0  0  0  0  0
    5.0820   46.8620   58.6310 C   0  0  0  0  0  0  0  0  0  0  0  0
    3.7720   49.3210   59.1450 C   0  0  0  0  0  0  0  0  0  0  0  0
    5.4100   52.4860   61.4630 C   0  0  0  0  0  0  0  0  0  0  0  0
    6.7760   51.9420   61.8150 C   0  0  0  0  0  0  0  0  0  0  0  0
    6.7470   50.7890   62.7710 C   0  0  0  0  0  0  0  0  0  0  0  0
    3.5880   51.6980   60.0900 C   0  0  0  0  0  0  0  0  0  0  0  0
    2.8660   52.8970   60.2380 C   0  0  0  0  0  0  0  0  0  0  0  0
    6.9430   49.4940   62.2630 C   0  0  0  0  0  0  0  0  0  0  0  0
    3.0160   50.6110   59.3480 C   0  0  0  0  0  0  0  0  0  0  0  0
    3.6870   46.9700   58.9920 C   0  0  0  0  0  0  0  0  0  0  0  0
    3.0730   48.1770   59.2770 C   0  0  0  0  0  0  0  0  0  0  0  0
    1.6650   52.9470   59.5640 C   0  0  0  0  0  0  0  0  0  0  0  0
    1.1130   51.9360   58.7920 C   0  0  0  0  0  0  0  0  0  0  0  0
    1.8190   50.7440   58.6660 C   0  0  0  0  0  0  0  0  0  0  0  0
    5.3890   45.5560   58.4080 N   0  0  0  0  0  0  0  0  0  0  0  0
    0.8740   54.0470   59.6460 F   0  0  0  0  0  0  0  0  0  0  0  0
    0.8250   44.9940   58.3020 N   0  0  1  0  0  0  0  0  0  0  0  0
    1.2730   43.8760   57.4260 C   0  0  0  0  0  0  0  0  0  0  0  0
    4.7510   51.4850   60.6970 O   0  0  0  0  0  0  0  0  0  0  0  0
    6.5000   50.9980   64.1300 C   0  0  0  0  0  0  0  0  0  0  0  0
    6.4590   49.9770   65.0350 N   0  0  0  0  0  0  0  0  0  0  0  0
    6.6380   48.7170   64.5680 C   0  0  0  0  0  0  0  0  0  0  0  0
    6.9000   48.4850   63.2290 C   0  0  0  0  0  0  0  0  0  0  0  0
    1.8894   44.2359   59.9444 H   0  0  0  0  0  0  0  0  0  0  0  0
    1.4196   46.0344   59.9817 H   0  0  0  0  0  0  0  0  0  0  0  0
    0.2333   47.0084   58.3870 H   0  0  0  0  0  0  0  0  0  0  0  0
    1.2958   46.5780   57.0041 H   0  0  0  0  0  0  0  0  0  0  0  0
   -0.4277   46.0718   57.0041 H   0  0  0  0  0  0  0  0  0  0  0  0
    4.2082   43.8045   58.6534 H   0  0  0  0  0  0  0  0  0  0  0  0
    5.6663   50.2153   58.6570 H   0  0  0  0  0  0  0  0  0  0  0  0
    6.9016   48.0697   58.2762 H   0  0  0  0  0  0  0  0  0  0  0  0
    4.8396   52.6977   62.3794 H   0  0  0  0  0  0  0  0  0  0  0  0
    5.4944   53.4242   60.8950 H   0  0  0  0  0  0  0  0  0  0  0  0
    7.2650   51.6096   60.8875 H   0  0  0  0  0  0  0  0  0  0  0  0
    7.3223   52.7553   62.3151 H   0  0  0  0  0  0  0  0  0  0  0  0
    3.2342   53.7348   60.8484 H   0  0  0  0  0  0  0  0  0  0  0  0
    7.1156   49.2914   61.1957 H   0  0  0  0  0  0  0  0  0  0  0  0
    2.0243   48.2020   59.6081 H   0  0  0  0  0  0  0  0  0  0  0  0
    0.1426   52.0729   58.2925 H   0  0  0  0  0  0  0  0  0  0  0  0
    1.4348   49.9260   58.0388 H   0  0  0  0  0  0  0  0  0  0  0  0
   -0.0805   44.6988   58.6943 H   0  0  0  0  0  0  0  0  0  0  0  0
    1.6102   43.0345   58.0490 H   0  0  0  0  0  0  0  0  0  0  0  0
    0.4362   43.5498   56.7910 H   0  0  0  0  0  0  0  0  0  0  0  0
    2.1036   44.2179   56.7910 H   0  0  0  0  0  0  0  0  0  0  0  0
    6.3320   52.0256   64.4847 H   0  0  0  0  0  0  0  0  0  0  0  0
    6.5741   47.8669   65.2632 H   0  0  0  0  0  0  0  0  0  0  0  0
    7.0846   47.4494   62.9074 H   0  0  0  0  0  0  0  0  0  0  0  0
  1  2  1  0
  1  4  1  0
  1 16  2  0
  2 23  1  0
 23  3  1  0
  4 21  1  0
  5  6  2  0
  5  8  1  0
  6  7  1  0
  7 16  1  0
  7 21  2  0
  8 15  1  0
  8 17  2  0
  9 10  1  0
  9 25  1  0
 10 11  1  0
 11 14  2  0
 11 26  1  0
 12 13  2  0
 12 15  1  0
 12 25  1  0
 13 18  1  0
 14 29  1  0
 15 20  2  0
 16 17  1  0
 18 19  2  0
 18 22  1  0
 19 20  1  0
 23 24  1  0
 26 27  2  0
 27 28  1  0
 28 29  2  0
  2 30  1  0
  2 31  1  0
  3 32  1  0
  3 33  1  0
  3 34  1  0
  4 35  1  0
  5 36  1  0
  6 37  1  0
  9 38  1  0
  9 39  1  0
 10 40  1  0
 10 41  1  0
 13 42  1  0
 14 43  1  0
 17 44  1  0
 19 45  1  0
 20 46  1  0
 23 47  1  1
 24 48  1  0
 24 49  1  0
 24 50  1  0
 26 51  1  0
 28 52  1  0
 29 53  1  0
M  CHG  1  23   1
M  END
>  <filename_input>  (26) 
6TW7_NZB_docked.sdf

>  <pdb_id>  (26) 
6TW7_NZB

>  <pose_rank>  (26) 
25

>  <num_atoms_heavy>  (26) 
29

>  <num_torsions>  (26) 
7

>  <pose>  (26) 
[3.588, 51.698, 60.09, 1e-06, 1e-06, 1e-06, 0.0, 0.0, 0.0, 0.0, 0.0, 0.0, 0.0]

>  <energy>  (26) 
-986.9637609095836

>  <inter_energy>  (26) 
-1009.7475857759648

>  <intra_energy>  (26) 
19.45354748740567

>  <rmsd>  (26) 
0.0

>  <sdf_rank>  (26) 
0

$$$$
