
     RDKit          3D

 87 89  0  0  0  0  0  0  0  0999 V2000
   97.0211    8.7525   31.2977 C   0  0  1  0  0  0  0  0  0  0  0  0
   98.3906    8.2038   30.9273 C   0  0  1  0  0  0  0  0  0  0  0  0
   98.2471    6.8630   30.2954 C   0  0  2  0  0  0  0  0  0  0  0  0
   97.5795    5.8947   31.2216 C   0  0  1  0  0  0  0  0  0  0  0  0
   96.2179    6.4366   31.6557 C   0  0  1  0  0  0  0  0  0  0  0  0
   95.6117    5.5741   32.7177 C   0  0  0  0  0  0  0  0  0  0  0  0
   97.3363    4.6491   30.5580 O   0  0  0  0  0  0  0  0  0  0  0  0
   96.3238    8.9328   30.1158 O   0  0  0  0  0  0  0  0  0  0  0  0
   96.3382    7.7894   32.2065 O   0  0  0  0  0  0  0  0  0  0  0  0
   94.2634    6.0360   32.9961 N   0  0  0  0  0  0  0  0  0  0  0  0
   92.3002    8.9865   28.7707 C   0  0  2  0  0  0  0  0  0  0  0  0
   90.9292    8.5141   28.5412 N   0  0  0  0  0  0  0  0  0  0  0  0
   93.2422    7.8750   28.3039 C   0  0  0  0  0  0  0  0  0  0  0  0
   94.7060    8.2678   28.5739 C   0  0  2  0  0  0  0  0  0  0  0  0
   95.6075    7.2031   28.1242 N   0  0  0  0  0  0  0  0  0  0  0  0
   94.9312    8.5875   30.0545 C   0  0  2  0  0  0  0  0  0  0  0  0
   93.9874    9.7224   30.4815 C   0  0  2  0  0  0  0  0  0  0  0  0
   94.1011   10.0292   31.8513 O   0  0  0  0  0  0  0  0  0  0  0  0
   92.5099    9.3535   30.2462 C   0  0  1  0  0  0  0  0  0  0  0  0
   91.7297   10.4898   30.5852 O   0  0  0  0  0  0  0  0  0  0  0  0
   90.4234   10.2097   30.9264 C   0  0  2  0  0  0  0  0  0  0  0  0
   89.5247   11.3476   30.4801 C   0  0  2  0  0  0  0  0  0  0  0  0
   89.7196   11.5730   29.0699 O   0  0  0  0  0  0  0  0  0  0  0  0
   89.8064   12.6025   31.2476 C   0  0  1  0  0  0  0  0  0  0  0  0
   88.8888   13.6921   30.7746 N   0  0  0  0  0  0  0  0  0  0  0  0
   89.6183   12.3589   32.7240 C   0  0  2  0  0  0  0  0  0  0  0  0
   89.9206   13.5456   33.4699 O   0  0  0  0  0  0  0  0  0  0  0  0
   90.5421   11.2363   33.1834 C   0  0  2  0  0  0  0  0  0  0  0  0
   90.3147    9.9988   32.4128 O   0  0  0  0  0  0  0  0  0  0  0  0
   90.3336   10.9207   34.6385 C   0  0  0  0  0  0  0  0  0  0  0  0
   89.5316    9.7697   34.7432 O   0  0  0  0  0  0  0  0  0  0  0  0
   99.0004    9.1203   30.0092 O   0  0  0  0  0  0  0  0  0  0  0  0
   99.5713    6.3921   29.9665 O   0  0  0  0  0  0  0  0  0  0  0  0
   86.7026    9.0504   29.6248 N   0  0  0  0  0  0  0  0  0  0  0  0
   90.5208    8.0672   27.2022 C   0  0  0  0  0  0  0  0  0  0  0  0
   91.2756    8.0810   26.2858 O   0  0  0  0  0  0  0  0  0  0  0  0
   89.0881    7.5878   27.0356 C   0  0  2  0  0  0  0  0  0  0  0  0
   88.1497    8.6573   27.6564 C   0  0  0  0  0  0  0  0  0  0  0  0
   87.2043    7.9850   28.7004 C   0  0  0  0  0  0  0  0  0  0  0  0
   88.9622    6.4101   27.7388 O   0  0  0  0  0  0  0  0  0  0  0  0
   97.0888    9.7121   31.8311 H   0  0  0  0  0  0  0  0  0  0  0  0
   99.0156    8.0947   31.8259 H   0  0  0  0  0  0  0  0  0  0  0  0
   97.6200    6.9432   29.3952 H   0  0  0  0  0  0  0  0  0  0  0  0
   98.2451    5.7521   32.0857 H   0  0  0  0  0  0  0  0  0  0  0  0
   95.5820    6.4455   30.7581 H   0  0  0  0  0  0  0  0  0  0  0  0
   95.5788    4.5310   32.3702 H   0  0  0  0  0  0  0  0  0  0  0  0
   96.2189    5.6332   33.6330 H   0  0  0  0  0  0  0  0  0  0  0  0
   97.1974    3.9376   31.2323 H   0  0  0  0  0  0  0  0  0  0  0  0
   94.1208    6.0848   34.0150 H   0  0  0  0  0  0  0  0  0  0  0  0
   94.1292    6.9709   32.5854 H   0  0  0  0  0  0  0  0  0  0  0  0
   93.5841    5.3797   32.5854 H   0  0  0  0  0  0  0  0  0  0  0  0
   92.5064    9.9058   28.2029 H   0  0  0  0  0  0  0  0  0  0  0  0
   90.2537    8.4958   29.3185 H   0  0  0  0  0  0  0  0  0  0  0  0
   93.0086    6.9485   28.8489 H   0  0  0  0  0  0  0  0  0  0  0  0
   93.1063    7.7207   27.2233 H   0  0  0  0  0  0  0  0  0  0  0  0
   94.9288    9.1804   28.0015 H   0  0  0  0  0  0  0  0  0  0  0  0
   96.0112    6.7264   28.9432 H   0  0  0  0  0  0  0  0  0  0  0  0
   95.0806    6.5239   27.5568 H   0  0  0  0  0  0  0  0  0  0  0  0
   96.3643    7.6108   27.5568 H   0  0  0  0  0  0  0  0  0  0  0  0
   94.7079    7.7623   30.7467 H   0  0  0  0  0  0  0  0  0  0  0  0
   94.2867   10.5842   29.8670 H   0  0  0  0  0  0  0  0  0  0  0  0
   93.8124    9.2498   32.3892 H   0  0  0  0  0  0  0  0  0  0  0  0
   92.2160    8.4897   30.8606 H   0  0  0  0  0  0  0  0  0  0  0  0
   90.1025    9.2871   30.4204 H   0  0  0  0  0  0  0  0  0  0  0  0
   88.4789   11.0687   30.6763 H   0  0  0  0  0  0  0  0  0  0  0  0
   90.3614   12.3155   28.9400 H   0  0  0  0  0  0  0  0  0  0  0  0
   90.8485   12.9108   31.0770 H   0  0  0  0  0  0  0  0  0  0  0  0
   88.4818   14.1754   31.5880 H   0  0  0  0  0  0  0  0  0  0  0  0
   89.4208   14.3660   30.2056 H   0  0  0  0  0  0  0  0  0  0  0  0
   88.1342   13.2826   30.2056 H   0  0  0  0  0  0  0  0  0  0  0  0
   88.5696   12.0772   32.8995 H   0  0  0  0  0  0  0  0  0  0  0  0
   89.8703   13.3481   34.4388 H   0  0  0  0  0  0  0  0  0  0  0  0
   91.5694   11.5933   33.0184 H   0  0  0  0  0  0  0  0  0  0  0  0
   91.3057   10.7388   35.1201 H   0  0  0  0  0  0  0  0  0  0  0  0
   89.8388   11.7672   35.1369 H   0  0  0  0  0  0  0  0  0  0  0  0
   89.3831    9.5567   35.6986 H   0  0  0  0  0  0  0  0  0  0  0  0
   99.4720    9.8290   30.5146 H   0  0  0  0  0  0  0  0  0  0  0  0
  100.0744    6.2132   30.8002 H   0  0  0  0  0  0  0  0  0  0  0  0
   86.8430    8.7522   30.6006 H   0  0  0  0  0  0  0  0  0  0  0  0
   87.2207    9.9242   29.4549 H   0  0  0  0  0  0  0  0  0  0  0  0
   85.6990    9.2077   29.4549 H   0  0  0  0  0  0  0  0  0  0  0  0
   88.8322    7.4329   25.9771 H   0  0  0  0  0  0  0  0  0  0  0  0
   88.7544    9.4294   28.1546 H   0  0  0  0  0  0  0  0  0  0  0  0
   87.5454    9.1177   26.8609 H   0  0  0  0  0  0  0  0  0  0  0  0
   87.7588    7.2260   29.2717 H   0  0  0  0  0  0  0  0  0  0  0  0
   86.3620    7.4932   28.1917 H   0  0  0  0  0  0  0  0  0  0  0  0
   88.9827    6.6017   28.7099 H   0  0  0  0  0  0  0  0  0  0  0  0
  1  2  1  0
  1  8  1  0
  1  9  1  0
  2  3  1  0
  2 32  1  0
  3  4  1  0
  3 33  1  0
  4  5  1  0
  4  7  1  0
  5  6  1  0
  5  9  1  0
  6 10  1  0
 16  8  1  0
 11 12  1  0
 11 13  1  0
 11 19  1  0
 12 35  1  0
 13 14  1  0
 14 15  1  0
 14 16  1  0
 16 17  1  0
 17 18  1  0
 17 19  1  0
 19 20  1  0
 21 20  1  0
 21 22  1  0
 21 29  1  0
 22 23  1  0
 22 24  1  0
 24 25  1  0
 24 26  1  0
 26 27  1  0
 26 28  1  0
 28 29  1  0
 28 30  1  0
 30 31  1  0
 34 39  1  0
 35 36  2  0
 35 37  1  0
 37 38  1  0
 37 40  1  0
 38 39  1  0
  1 41  1  1
  2 42  1  1
  3 43  1  6
  4 44  1  1
  5 45  1  6
  6 46  1  0
  6 47  1  0
  7 48  1  0
 10 49  1  0
 10 50  1  0
 10 51  1  0
 11 52  1  6
 12 53  1  0
 13 54  1  0
 13 55  1  0
 14 56  1  6
 15 57  1  0
 15 58  1  0
 15 59  1  0
 16 60  1  1
 17 61  1  6
 18 62  1  0
 19 63  1  1
 21 64  1  6
 22 65  1  6
 23 66  1  0
 24 67  1  1
 25 68  1  0
 25 69  1  0
 25 70  1  0
 26 71  1  6
 27 72  1  0
 28 73  1  1
 30 74  1  0
 30 75  1  0
 31 76  1  0
 32 77  1  0
 33 78  1  0
 34 79  1  0
 34 80  1  0
 34 81  1  0
 37 82  1  6
 38 83  1  0
 38 84  1  0
 39 85  1  0
 39 86  1  0
 40 87  1  0
M  CHG  4  10   1  15   1  25   1  34   1
M  END
>  <filename_input>  (1) 
6VTA_AKN_docked.sdf

>  <pdb_id>  (1) 
6VTA_AKN

>  <pose_rank>  (1) 
0

>  <num_atoms_heavy>  (1) 
40

>  <num_torsions>  (1) 
10

>  <pose>  (1) 
[92.3002276627951, 8.986540804914483, 28.77072542733269, 5.817010668072367, 0.5588317701187802, -0.0841511327065262, 1.1495485046785083, -1.0903687185866022, 0.7282567216728567, -0.41274712586226103, 0.4026773203817949, -0.5442800470930039, 0.21335869827055842, -0.15823930241914044, 0.3507576341224246, 0.8046896213039278]

>  <energy>  (1) 
-636.8061879797481

>  <inter_energy>  (1) 
-696.01555534382

>  <intra_energy>  (1) 
63.241889887365346

>  <rmsd>  (1) 
1.92806

>  <sdf_rank>  (1) 
0

$$$$

     RDKit          3D

 87 89  0  0  0  0  0  0  0  0999 V2000
   97.0230    8.0233   30.5042 C   0  0  1  0  0  0  0  0  0  0  0  0
   98.1946    8.9262   30.1495 C   0  0  1  0  0  0  0  0  0  0  0  0
   99.0539    8.2663   29.1279 C   0  0  2  0  0  0  0  0  0  0  0  0
   99.5912    6.9624   29.6304 C   0  0  1  0  0  0  0  0  0  0  0  0
   98.4410    6.0449   30.0442 C   0  0  1  0  0  0  0  0  0  0  0  0
   98.9554    4.8098   30.7145 C   0  0  0  0  0  0  0  0  0  0  0  0
  100.3111    6.2822   28.5960 O   0  0  0  0  0  0  0  0  0  0  0  0
   96.2583    7.8833   29.3591 O   0  0  0  0  0  0  0  0  0  0  0  0
   97.5441    6.7147   30.9900 O   0  0  0  0  0  0  0  0  0  0  0  0
   97.8393    4.0744   31.2821 N   0  0  0  0  0  0  0  0  0  0  0  0
   92.3880    9.5234   29.9350 C   0  0  2  0  0  0  0  0  0  0  0  0
   90.9285    9.6500   29.8369 N   0  0  0  0  0  0  0  0  0  0  0  0
   92.9158    9.3027   28.5161 C   0  0  0  0  0  0  0  0  0  0  0  0
   94.4407    9.0930   28.5407 C   0  0  2  0  0  0  0  0  0  0  0  0
   94.9455    8.8838   27.1805 N   0  0  0  0  0  0  0  0  0  0  0  0
   94.8260    7.9254   29.4536 C   0  0  2  0  0  0  0  0  0  0  0  0
   94.3017    8.1920   30.8731 C   0  0  2  0  0  0  0  0  0  0  0  0
   94.5717    7.1274   31.7547 O   0  0  0  0  0  0  0  0  0  0  0  0
   92.7729    8.3844   30.8889 C   0  0  1  0  0  0  0  0  0  0  0  0
   92.4001    8.7108   32.2191 O   0  0  0  0  0  0  0  0  0  0  0  0
   91.2567    8.0833   32.6666 C   0  0  2  0  0  0  0  0  0  0  0  0
   90.3108    9.1101   33.2603 C   0  0  2  0  0  0  0  0  0  0  0  0
   90.0620   10.1389   32.2820 O   0  0  0  0  0  0  0  0  0  0  0  0
   90.8705    9.7123   34.5123 C   0  0  1  0  0  0  0  0  0  0  0  0
   89.8962   10.7131   35.0622 N   0  0  0  0  0  0  0  0  0  0  0  0
   91.1458    8.6317   35.5276 C   0  0  2  0  0  0  0  0  0  0  0  0
   91.7154    9.1951   36.7168 O   0  0  0  0  0  0  0  0  0  0  0  0
   92.1202    7.6135   34.9459 C   0  0  2  0  0  0  0  0  0  0  0  0
   91.6118    7.0356   33.6873 O   0  0  0  0  0  0  0  0  0  0  0  0
   92.3665    6.4845   35.9077 C   0  0  0  0  0  0  0  0  0  0  0  0
   93.6591    5.9747   35.6883 O   0  0  0  0  0  0  0  0  0  0  0  0
   97.6657   10.1539   29.6321 O   0  0  0  0  0  0  0  0  0  0  0  0
  100.1450    9.1633   28.8307 O   0  0  0  0  0  0  0  0  0  0  0  0
   86.1212    9.0009   27.7945 N   0  0  0  0  0  0  0  0  0  0  0  0
   90.3291   10.9171   29.3959 C   0  0  0  0  0  0  0  0  0  0  0  0
   90.9989   11.8568   29.1166 O   0  0  0  0  0  0  0  0  0  0  0  0
   88.8127   10.9781   29.3140 C   0  0  2  0  0  0  0  0  0  0  0  0
   88.3521    9.9870   28.2116 C   0  0  0  0  0  0  0  0  0  0  0  0
   86.8750   10.2943   27.8121 C   0  0  0  0  0  0  0  0  0  0  0  0
   88.4701   12.2600   28.9440 O   0  0  0  0  0  0  0  0  0  0  0  0
   96.4021    8.4456   31.3080 H   0  0  0  0  0  0  0  0  0  0  0  0
   98.8097    9.1235   31.0398 H   0  0  0  0  0  0  0  0  0  0  0  0
   98.4601    8.0524   28.2270 H   0  0  0  0  0  0  0  0  0  0  0  0
  100.2504    7.1837   30.4827 H   0  0  0  0  0  0  0  0  0  0  0  0
   97.8987    5.7850   29.1231 H   0  0  0  0  0  0  0  0  0  0  0  0
   99.4741    4.1797   29.9769 H   0  0  0  0  0  0  0  0  0  0  0  0
   99.6588    5.0884   31.5131 H   0  0  0  0  0  0  0  0  0  0  0  0
  100.9670    5.6624   29.0031 H   0  0  0  0  0  0  0  0  0  0  0  0
   97.8924    4.1094   32.3101 H   0  0  0  0  0  0  0  0  0  0  0  0
   96.9542    4.4984   30.9694 H   0  0  0  0  0  0  0  0  0  0  0  0
   97.8796    3.0939   30.9694 H   0  0  0  0  0  0  0  0  0  0  0  0
   92.8403   10.4323   30.3584 H   0  0  0  0  0  0  0  0  0  0  0  0
   90.3249    8.8508   30.0773 H   0  0  0  0  0  0  0  0  0  0  0  0
   92.4340    8.4134   28.0837 H   0  0  0  0  0  0  0  0  0  0  0  0
   92.6861   10.1891   27.9066 H   0  0  0  0  0  0  0  0  0  0  0  0
   94.9066   10.0008   28.9515 H   0  0  0  0  0  0  0  0  0  0  0  0
   95.8962    8.4900   27.2239 H   0  0  0  0  0  0  0  0  0  0  0  0
   94.3256    8.2304   26.6809 H   0  0  0  0  0  0  0  0  0  0  0  0
   94.9693    9.7843   26.6809 H   0  0  0  0  0  0  0  0  0  0  0  0
   94.3926    6.9541   29.1730 H   0  0  0  0  0  0  0  0  0  0  0  0
   94.8225    9.1044   31.1993 H   0  0  0  0  0  0  0  0  0  0  0  0
   94.4914    7.4443   32.6892 H   0  0  0  0  0  0  0  0  0  0  0  0
   92.2567    7.4705   30.5597 H   0  0  0  0  0  0  0  0  0  0  0  0
   90.7556    7.5889   31.8213 H   0  0  0  0  0  0  0  0  0  0  0  0
   89.3690    8.6087   33.5279 H   0  0  0  0  0  0  0  0  0  0  0  0
   89.8562   10.9903   32.7434 H   0  0  0  0  0  0  0  0  0  0  0  0
   91.8179   10.2218   34.2826 H   0  0  0  0  0  0  0  0  0  0  0  0
   89.9216   10.6870   36.0915 H   0  0  0  0  0  0  0  0  0  0  0  0
   90.1519   11.6561   34.7362 H   0  0  0  0  0  0  0  0  0  0  0  0
   88.9467   10.4828   34.7362 H   0  0  0  0  0  0  0  0  0  0  0  0
   90.1946    8.1396   35.7788 H   0  0  0  0  0  0  0  0  0  0  0  0
   91.2961    8.7804   37.5120 H   0  0  0  0  0  0  0  0  0  0  0  0
   93.0574    8.1563   34.7538 H   0  0  0  0  0  0  0  0  0  0  0  0
   92.2856    6.8545   36.9405 H   0  0  0  0  0  0  0  0  0  0  0  0
   91.6207    5.6912   35.7511 H   0  0  0  0  0  0  0  0  0  0  0  0
   94.0978    5.8016   36.5588 H   0  0  0  0  0  0  0  0  0  0  0  0
   97.4106   10.7460   30.3834 H   0  0  0  0  0  0  0  0  0  0  0  0
  100.5429    9.4904   29.6761 H   0  0  0  0  0  0  0  0  0  0  0  0
   85.9426    8.6944   28.7615 H   0  0  0  0  0  0  0  0  0  0  0  0
   85.2246    9.1327   27.3049 H   0  0  0  0  0  0  0  0  0  0  0  0
   86.6778    8.2858   27.3049 H   0  0  0  0  0  0  0  0  0  0  0  0
   88.3433   10.7165   30.2738 H   0  0  0  0  0  0  0  0  0  0  0  0
   88.9996   10.0950   27.3290 H   0  0  0  0  0  0  0  0  0  0  0  0
   88.4193    8.9583   28.5953 H   0  0  0  0  0  0  0  0  0  0  0  0
   86.8467   10.7563   26.8143 H   0  0  0  0  0  0  0  0  0  0  0  0
   86.4215   10.9908   28.5327 H   0  0  0  0  0  0  0  0  0  0  0  0
   88.3234   12.8093   29.7545 H   0  0  0  0  0  0  0  0  0  0  0  0
  1  2  1  0
  1  8  1  0
  1  9  1  0
  2  3  1  0
  2 32  1  0
  3  4  1  0
  3 33  1  0
  4  5  1  0
  4  7  1  0
  5  6  1  0
  5  9  1  0
  6 10  1  0
 16  8  1  0
 11 12  1  0
 11 13  1  0
 11 19  1  0
 12 35  1  0
 13 14  1  0
 14 15  1  0
 14 16  1  0
 16 17  1  0
 17 18  1  0
 17 19  1  0
 19 20  1  0
 21 20  1  0
 21 22  1  0
 21 29  1  0
 22 23  1  0
 22 24  1  0
 24 25  1  0
 24 26  1  0
 26 27  1  0
 26 28  1  0
 28 29  1  0
 28 30  1  0
 30 31  1  0
 34 39  1  0
 35 36  2  0
 35 37  1  0
 37 38  1  0
 37 40  1  0
 38 39  1  0
  1 41  1  1
  2 42  1  1
  3 43  1  6
  4 44  1  1
  5 45  1  6
  6 46  1  0
  6 47  1  0
  7 48  1  0
 10 49  1  0
 10 50  1  0
 10 51  1  0
 11 52  1  1
 12 53  1  0
 13 54  1  0
 13 55  1  0
 14 56  1  1
 15 57  1  0
 15 58  1  0
 15 59  1  0
 16 60  1  6
 17 61  1  1
 18 62  1  0
 19 63  1  6
 21 64  1  6
 22 65  1  1
 23 66  1  0
 24 67  1  6
 25 68  1  0
 25 69  1  0
 25 70  1  0
 26 71  1  1
 27 72  1  0
 28 73  1  6
 30 74  1  0
 30 75  1  0
 31 76  1  0
 32 77  1  0
 33 78  1  0
 34 79  1  0
 34 80  1  0
 34 81  1  0
 37 82  1  1
 38 83  1  0
 38 84  1  0
 39 85  1  0
 39 86  1  0
 40 87  1  0
M  CHG  4  10   1  15   1  25   1  34   1
M  END
>  <filename_input>  (2) 
6VTA_AKN_docked.sdf

>  <pdb_id>  (2) 
6VTA_AKN

>  <pose_rank>  (2) 
1

>  <num_atoms_heavy>  (2) 
40

>  <num_torsions>  (2) 
10

>  <pose>  (2) 
[92.3879908118672, 9.52337074060905, 29.935009948316452, -5.0127654664770205, -1.7635182444806563, 1.769359454483527, 0.7336757179027716, 3.19162430744913, 0.0649295707661422, 0.7835467289869622, -19.93263036664229, -5.392701516836696, -0.05481014253389085, -6.120994772185023, 13.215355297168399, 2.695709332368384]

>  <energy>  (2) 
-674.2865865274433

>  <inter_energy>  (2) 
-744.2621205671896

>  <intra_energy>  (2) 
65.62581418335785

>  <rmsd>  (2) 
1.85016

>  <sdf_rank>  (2) 
0

$$$$

     RDKit          3D

 87 89  0  0  0  0  0  0  0  0999 V2000
   95.9787    5.9342   29.9009 C   0  0  1  0  0  0  0  0  0  0  0  0
   96.9371    5.1065   30.7435 C   0  0  1  0  0  0  0  0  0  0  0  0
   98.2123    5.8499   30.9410 C   0  0  2  0  0  0  0  0  0  0  0  0
   98.8705    6.1565   29.6318 C   0  0  1  0  0  0  0  0  0  0  0  0
   97.9165    6.9470   28.7366 C   0  0  1  0  0  0  0  0  0  0  0  0
   98.4835    7.1097   27.3613 C   0  0  0  0  0  0  0  0  0  0  0  0
  100.0272    6.9773   29.8298 O   0  0  0  0  0  0  0  0  0  0  0  0
   95.6773    7.0716   30.6296 O   0  0  0  0  0  0  0  0  0  0  0  0
   96.6285    6.2612   28.6006 O   0  0  0  0  0  0  0  0  0  0  0  0
   98.6728    5.7994   26.7648 N   0  0  0  0  0  0  0  0  0  0  0  0
   92.3755    9.5851   31.5137 C   0  0  2  0  0  0  0  0  0  0  0  0
   90.9977   10.0917   31.4879 N   0  0  0  0  0  0  0  0  0  0  0  0
   92.8054    9.3792   30.0599 C   0  0  0  0  0  0  0  0  0  0  0  0
   94.2236    8.7833   30.0022 C   0  0  2  0  0  0  0  0  0  0  0  0
   94.6351    8.5885   28.6088 N   0  0  0  0  0  0  0  0  0  0  0  0
   94.3067    7.4707   30.7865 C   0  0  2  0  0  0  0  0  0  0  0  0
   93.8923    7.7198   32.2450 C   0  0  2  0  0  0  0  0  0  0  0  0
   93.8904    6.5390   33.0125 O   0  0  0  0  0  0  0  0  0  0  0  0
   92.4664    8.2960   32.3415 C   0  0  1  0  0  0  0  0  0  0  0  0
   92.2123    8.5726   33.7104 O   0  0  0  0  0  0  0  0  0  0  0  0
   91.4738    7.6093   34.3646 C   0  0  2  0  0  0  0  0  0  0  0  0
   90.4906    8.2747   35.3092 C   0  0  2  0  0  0  0  0  0  0  0  0
   89.6888    9.2137   34.5656 O   0  0  0  0  0  0  0  0  0  0  0  0
   91.1949    8.9722   36.4319 C   0  0  1  0  0  0  0  0  0  0  0  0
   90.1805    9.6058   37.3389 N   0  0  0  0  0  0  0  0  0  0  0  0
   92.0463    7.9906   37.1975 C   0  0  2  0  0  0  0  0  0  0  0  0
   92.7524    8.6567   38.2529 O   0  0  0  0  0  0  0  0  0  0  0  0
   93.0567    7.3417   36.2580 C   0  0  2  0  0  0  0  0  0  0  0  0
   92.3904    6.6832   35.1182 O   0  0  0  0  0  0  0  0  0  0  0  0
   93.8797    6.3072   36.9741 C   0  0  0  0  0  0  0  0  0  0  0  0
   95.2068    6.7652   37.0640 O   0  0  0  0  0  0  0  0  0  0  0  0
   96.3102    4.8557   32.0080 O   0  0  0  0  0  0  0  0  0  0  0  0
   99.0803    5.0213   31.7430 O   0  0  0  0  0  0  0  0  0  0  0  0
   89.8496   10.8181   27.6407 N   0  0  0  0  0  0  0  0  0  0  0  0
   90.7139   11.4203   30.9279 C   0  0  0  0  0  0  0  0  0  0  0  0
   91.5782   12.1085   30.4934 O   0  0  0  0  0  0  0  0  0  0  0  0
   89.2656   11.8812   30.9299 C   0  0  2  0  0  0  0  0  0  0  0  0
   88.8507   12.1641   29.4610 C   0  0  0  0  0  0  0  0  0  0  0  0
   88.7636   10.8208   28.6712 C   0  0  0  0  0  0  0  0  0  0  0  0
   89.2058   13.0526   31.6522 O   0  0  0  0  0  0  0  0  0  0  0  0
   95.0500    5.3902   29.6734 H   0  0  0  0  0  0  0  0  0  0  0  0
   97.1680    4.1565   30.2395 H   0  0  0  0  0  0  0  0  0  0  0  0
   98.0082    6.8090   31.4394 H   0  0  0  0  0  0  0  0  0  0  0  0
   99.1479    5.1977   29.1694 H   0  0  0  0  0  0  0  0  0  0  0  0
   97.7775    7.9282   29.2139 H   0  0  0  0  0  0  0  0  0  0  0  0
   97.7885    7.6979   26.7441 H   0  0  0  0  0  0  0  0  0  0  0  0
   99.4496    7.6325   27.4193 H   0  0  0  0  0  0  0  0  0  0  0  0
  100.1885    7.0917   30.7999 H   0  0  0  0  0  0  0  0  0  0  0  0
   98.7747    5.0948   27.5092 H   0  0  0  0  0  0  0  0  0  0  0  0
   97.8567    5.5667   26.1811 H   0  0  0  0  0  0  0  0  0  0  0  0
   99.5214    5.8073   26.1811 H   0  0  0  0  0  0  0  0  0  0  0  0
   93.0551   10.3002   32.0003 H   0  0  0  0  0  0  0  0  0  0  0  0
   90.2301    9.5159   31.8624 H   0  0  0  0  0  0  0  0  0  0  0  0
   92.1023    8.6914   29.5674 H   0  0  0  0  0  0  0  0  0  0  0  0
   92.8041   10.3512   29.5449 H   0  0  0  0  0  0  0  0  0  0  0  0
   94.9158    9.4952   30.4755 H   0  0  0  0  0  0  0  0  0  0  0  0
   95.5658    8.1480   28.5841 H   0  0  0  0  0  0  0  0  0  0  0  0
   93.9545    7.9802   28.1317 H   0  0  0  0  0  0  0  0  0  0  0  0
   94.6740    9.5005   28.1317 H   0  0  0  0  0  0  0  0  0  0  0  0
   93.6315    6.6765   30.4354 H   0  0  0  0  0  0  0  0  0  0  0  0
   94.6373    8.4304   32.6324 H   0  0  0  0  0  0  0  0  0  0  0  0
   93.8908    6.7710   33.9750 H   0  0  0  0  0  0  0  0  0  0  0  0
   91.7253    7.5832   31.9508 H   0  0  0  0  0  0  0  0  0  0  0  0
   90.9105    7.0170   33.6284 H   0  0  0  0  0  0  0  0  0  0  0  0
   89.8487    7.4996   35.7533 H   0  0  0  0  0  0  0  0  0  0  0  0
   89.1926    9.7949   35.1949 H   0  0  0  0  0  0  0  0  0  0  0  0
   91.8507    9.7553   36.0235 H   0  0  0  0  0  0  0  0  0  0  0  0
   90.4461    9.4399   38.3201 H   0  0  0  0  0  0  0  0  0  0  0  0
   90.1451   10.6194   37.1594 H   0  0  0  0  0  0  0  0  0  0  0  0
   89.2541    9.1929   37.1594 H   0  0  0  0  0  0  0  0  0  0  0  0
   91.3884    7.2222   37.6296 H   0  0  0  0  0  0  0  0  0  0  0  0
   92.4152    8.3386   39.1276 H   0  0  0  0  0  0  0  0  0  0  0  0
   93.7045    8.1519   35.8922 H   0  0  0  0  0  0  0  0  0  0  0  0
   93.4747    6.1472   37.9843 H   0  0  0  0  0  0  0  0  0  0  0  0
   93.8493    5.3572   36.4205 H   0  0  0  0  0  0  0  0  0  0  0  0
   95.4617    6.8531   38.0166 H   0  0  0  0  0  0  0  0  0  0  0  0
   96.9303    5.1038   32.7387 H   0  0  0  0  0  0  0  0  0  0  0  0
   98.9036    5.1899   32.7024 H   0  0  0  0  0  0  0  0  0  0  0  0
   90.7671   10.8158   28.1088 H   0  0  0  0  0  0  0  0  0  0  0  0
   89.7623    9.9773   27.0521 H   0  0  0  0  0  0  0  0  0  0  0  0
   89.7666   11.6593   27.0521 H   0  0  0  0  0  0  0  0  0  0  0  0
   88.5991   11.1243   31.3690 H   0  0  0  0  0  0  0  0  0  0  0  0
   87.8692   12.6606   29.4474 H   0  0  0  0  0  0  0  0  0  0  0  0
   89.6009   12.8160   28.9896 H   0  0  0  0  0  0  0  0  0  0  0  0
   87.7828   10.7397   28.1799 H   0  0  0  0  0  0  0  0  0  0  0  0
   88.8838    9.9675   29.3548 H   0  0  0  0  0  0  0  0  0  0  0  0
   89.2164   12.8445   32.6200 H   0  0  0  0  0  0  0  0  0  0  0  0
  1  2  1  0
  1  8  1  0
  1  9  1  0
  2  3  1  0
  2 32  1  0
  3  4  1  0
  3 33  1  0
  4  5  1  0
  4  7  1  0
  5  6  1  0
  5  9  1  0
  6 10  1  0
 16  8  1  0
 11 12  1  0
 11 13  1  0
 11 19  1  0
 12 35  1  0
 13 14  1  0
 14 15  1  0
 14 16  1  0
 16 17  1  0
 17 18  1  0
 17 19  1  0
 19 20  1  0
 21 20  1  0
 21 22  1  0
 21 29  1  0
 22 23  1  0
 22 24  1  0
 24 25  1  0
 24 26  1  0
 26 27  1  0
 26 28  1  0
 28 29  1  0
 28 30  1  0
 30 31  1  0
 34 39  1  0
 35 36  2  0
 35 37  1  0
 37 38  1  0
 37 40  1  0
 38 39  1  0
  1 41  1  6
  2 42  1  6
  3 43  1  1
  4 44  1  6
  5 45  1  1
  6 46  1  0
  6 47  1  0
  7 48  1  0
 10 49  1  0
 10 50  1  0
 10 51  1  0
 11 52  1  1
 12 53  1  0
 13 54  1  0
 13 55  1  0
 14 56  1  1
 15 57  1  0
 15 58  1  0
 15 59  1  0
 16 60  1  6
 17 61  1  1
 18 62  1  0
 19 63  1  6
 21 64  1  6
 22 65  1  1
 23 66  1  0
 24 67  1  6
 25 68  1  0
 25 69  1  0
 25 70  1  0
 26 71  1  1
 27 72  1  0
 28 73  1  6
 30 74  1  0
 30 75  1  0
 31 76  1  0
 32 77  1  0
 33 78  1  0
 34 79  1  0
 34 80  1  0
 34 81  1  0
 37 82  1  1
 38 83  1  0
 38 84  1  0
 39 85  1  0
 39 86  1  0
 40 87  1  0
M  CHG  4  10   1  15   1  25   1  34   1
M  END
>  <filename_input>  (3) 
6VTA_AKN_docked.sdf

>  <pdb_id>  (3) 
6VTA_AKN

>  <pose_rank>  (3) 
2

>  <num_atoms_heavy>  (3) 
40

>  <num_torsions>  (3) 
10

>  <pose>  (3) 
[92.37550016562591, 9.585124620903736, 31.513673406588307, -4.457622888373336, -1.0555637031211496, 2.8516515095839754, 0.9529901955456636, 2.2137387892510634, -2.1370370407428005, 1.1204947360429445, 1.1096199333888543, 1.0161977702742344, -8.251904663884037, 0.8385726952662967, 0.4570695691601972, 3.377326556039872]

>  <energy>  (3) 
-695.8095487154834

>  <inter_energy>  (3) 
-758.9991412806748

>  <intra_energy>  (3) 
60.281082791698445

>  <rmsd>  (3) 
3.5859

>  <sdf_rank>  (3) 
0

$$$$

     RDKit          3D

 87 89  0  0  0  0  0  0  0  0999 V2000
   96.4860    7.9630   30.6496 C   0  0  1  0  0  0  0  0  0  0  0  0
   97.7877    8.6956   30.3624 C   0  0  1  0  0  0  0  0  0  0  0  0
   98.6430    7.8772   29.4588 C   0  0  2  0  0  0  0  0  0  0  0  0
   98.9671    6.5505   30.0720 C   0  0  1  0  0  0  0  0  0  0  0  0
   97.6795    5.8044   30.4207 C   0  0  1  0  0  0  0  0  0  0  0  0
   97.9752    4.5586   31.1954 C   0  0  0  0  0  0  0  0  0  0  0  0
   99.6831    5.7281   29.1436 O   0  0  0  0  0  0  0  0  0  0  0  0
   95.8120    7.8479   29.4463 O   0  0  0  0  0  0  0  0  0  0  0  0
   96.7949    6.6326   31.2450 O   0  0  0  0  0  0  0  0  0  0  0  0
   96.7774    4.1399   31.9015 N   0  0  0  0  0  0  0  0  0  0  0  0
   91.6416    8.4067   28.9012 C   0  0  2  0  0  0  0  0  0  0  0  0
   90.2313    8.0562   28.6918 N   0  0  0  0  0  0  0  0  0  0  0  0
   92.4524    7.6579   27.8416 C   0  0  0  0  0  0  0  0  0  0  0  0
   93.9565    7.9215   28.0360 C   0  0  2  0  0  0  0  0  0  0  0  0
   94.7321    7.2054   27.0189 N   0  0  0  0  0  0  0  0  0  0  0  0
   94.4109    7.5327   29.4457 C   0  0  2  0  0  0  0  0  0  0  0  0
   93.5936    8.3204   30.4815 C   0  0  2  0  0  0  0  0  0  0  0  0
   93.9209    7.9681   31.8052 O   0  0  0  0  0  0  0  0  0  0  0  0
   92.0821    8.0618   30.3304 C   0  0  1  0  0  0  0  0  0  0  0  0
   91.4136    8.8954   31.2648 O   0  0  0  0  0  0  0  0  0  0  0  0
   92.0891   10.0529   31.5893 C   0  0  2  0  0  0  0  0  0  0  0  0
   91.6805   10.5097   32.9772 C   0  0  2  0  0  0  0  0  0  0  0  0
   91.8984    9.4312   33.9083 O   0  0  0  0  0  0  0  0  0  0  0  0
   90.2466   10.9410   33.0127 C   0  0  1  0  0  0  0  0  0  0  0  0
   89.8957   11.3889   34.4017 N   0  0  0  0  0  0  0  0  0  0  0  0
   90.0180   12.0577   32.0252 C   0  0  2  0  0  0  0  0  0  0  0  0
   88.6397   12.4532   32.0267 O   0  0  0  0  0  0  0  0  0  0  0  0
   90.3985   11.5930   30.6238 C   0  0  2  0  0  0  0  0  0  0  0  0
   91.7956   11.1216   30.5707 O   0  0  0  0  0  0  0  0  0  0  0  0
   90.2460   12.7035   29.6218 C   0  0  0  0  0  0  0  0  0  0  0  0
   89.1188   12.4418   28.8219 O   0  0  0  0  0  0  0  0  0  0  0  0
   97.4636    9.9449   29.7388 O   0  0  0  0  0  0  0  0  0  0  0  0
   99.8594    8.6170   29.2215 O   0  0  0  0  0  0  0  0  0  0  0  0
   88.7694    5.7057   25.3848 N   0  0  0  0  0  0  0  0  0  0  0  0
   89.3621    8.9449   27.9082 C   0  0  0  0  0  0  0  0  0  0  0  0
   89.7706    9.9548   27.4360 O   0  0  0  0  0  0  0  0  0  0  0  0
   87.9140    8.5201   27.7280 C   0  0  2  0  0  0  0  0  0  0  0  0
   87.9026    7.0322   27.2853 C   0  0  0  0  0  0  0  0  0  0  0  0
   88.0047    6.9455   25.7304 C   0  0  0  0  0  0  0  0  0  0  0  0
   87.3774    9.2964   26.7246 O   0  0  0  0  0  0  0  0  0  0  0  0
   95.8554    8.5041   31.3704 H   0  0  0  0  0  0  0  0  0  0  0  0
   98.3432    8.8702   31.2957 H   0  0  0  0  0  0  0  0  0  0  0  0
   98.1073    7.6829   28.5178 H   0  0  0  0  0  0  0  0  0  0  0  0
   99.5724    6.7414   30.9705 H   0  0  0  0  0  0  0  0  0  0  0  0
   97.1909    5.5572   29.4667 H   0  0  0  0  0  0  0  0  0  0  0  0
   98.2926    3.7629   30.5053 H   0  0  0  0  0  0  0  0  0  0  0  0
   98.7806    4.7554   31.9182 H   0  0  0  0  0  0  0  0  0  0  0  0
  100.2453    5.0822   29.6404 H   0  0  0  0  0  0  0  0  0  0  0  0
   96.9400    4.1967   32.9170 H   0  0  0  0  0  0  0  0  0  0  0  0
   95.9938    4.7568   31.6442 H   0  0  0  0  0  0  0  0  0  0  0  0
   96.5489    3.1691   31.6442 H   0  0  0  0  0  0  0  0  0  0  0  0
   91.8048    9.4890   28.7922 H   0  0  0  0  0  0  0  0  0  0  0  0
   89.8512    7.1876   29.0942 H   0  0  0  0  0  0  0  0  0  0  0  0
   92.2584    6.5789   27.9315 H   0  0  0  0  0  0  0  0  0  0  0  0
   92.1525    8.0126   26.8445 H   0  0  0  0  0  0  0  0  0  0  0  0
   94.1352    9.0004   27.9173 H   0  0  0  0  0  0  0  0  0  0  0  0
   95.4087    6.5806   27.4800 H   0  0  0  0  0  0  0  0  0  0  0  0
   94.0956    6.6484   26.4310 H   0  0  0  0  0  0  0  0  0  0  0  0
   95.2367    7.8841   26.4310 H   0  0  0  0  0  0  0  0  0  0  0  0
   94.2534    6.4764   29.7094 H   0  0  0  0  0  0  0  0  0  0  0  0
   93.8393    9.3756   30.2912 H   0  0  0  0  0  0  0  0  0  0  0  0
   93.4005    8.5283   32.4340 H   0  0  0  0  0  0  0  0  0  0  0  0
   91.8416    7.0051   30.5191 H   0  0  0  0  0  0  0  0  0  0  0  0
   93.1718    9.8583   31.5862 H   0  0  0  0  0  0  0  0  0  0  0  0
   92.2936   11.3790   33.2570 H   0  0  0  0  0  0  0  0  0  0  0  0
   91.8289    9.7754   34.8340 H   0  0  0  0  0  0  0  0  0  0  0  0
   89.6018   10.0944   32.7344 H   0  0  0  0  0  0  0  0  0  0  0  0
   90.3697   10.7840   35.0875 H   0  0  0  0  0  0  0  0  0  0  0  0
   90.2003   12.3637   34.5354 H   0  0  0  0  0  0  0  0  0  0  0  0
   88.8763   11.3264   34.5354 H   0  0  0  0  0  0  0  0  0  0  0  0
   90.6418   12.9149   32.3185 H   0  0  0  0  0  0  0  0  0  0  0  0
   88.3234   12.5439   32.9604 H   0  0  0  0  0  0  0  0  0  0  0  0
   89.7174   10.7655   30.3762 H   0  0  0  0  0  0  0  0  0  0  0  0
   90.1118   13.6601   30.1480 H   0  0  0  0  0  0  0  0  0  0  0  0
   91.1454   12.7636   28.9914 H   0  0  0  0  0  0  0  0  0  0  0  0
   88.3374   12.2604   29.4020 H   0  0  0  0  0  0  0  0  0  0  0  0
   97.2869   10.6255   30.4357 H   0  0  0  0  0  0  0  0  0  0  0  0
  100.2686    8.8659   30.0880 H   0  0  0  0  0  0  0  0  0  0  0  0
   89.0625    5.2305   26.2504 H   0  0  0  0  0  0  0  0  0  0  0  0
   88.1702    5.0752   24.8331 H   0  0  0  0  0  0  0  0  0  0  0  0
   89.6017    5.9582   24.8331 H   0  0  0  0  0  0  0  0  0  0  0  0
   87.3371    8.6397   28.6569 H   0  0  0  0  0  0  0  0  0  0  0  0
   88.7583    6.5095   27.7377 H   0  0  0  0  0  0  0  0  0  0  0  0
   86.9653    6.5609   27.6158 H   0  0  0  0  0  0  0  0  0  0  0  0
   88.5312    7.8293   25.3411 H   0  0  0  0  0  0  0  0  0  0  0  0
   87.0003    6.9118   25.2830 H   0  0  0  0  0  0  0  0  0  0  0  0
   86.8623   10.0417   27.1237 H   0  0  0  0  0  0  0  0  0  0  0  0
  1  2  1  0
  1  8  1  0
  1  9  1  0
  2  3  1  0
  2 32  1  0
  3  4  1  0
  3 33  1  0
  4  5  1  0
  4  7  1  0
  5  6  1  0
  5  9  1  0
  6 10  1  0
 16  8  1  0
 11 12  1  0
 11 13  1  0
 11 19  1  0
 12 35  1  0
 13 14  1  0
 14 15  1  0
 14 16  1  0
 16 17  1  0
 17 18  1  0
 17 19  1  0
 19 20  1  0
 21 20  1  0
 21 22  1  0
 21 29  1  0
 22 23  1  0
 22 24  1  0
 24 25  1  0
 24 26  1  0
 26 27  1  0
 26 28  1  0
 28 29  1  0
 28 30  1  0
 30 31  1  0
 34 39  1  0
 35 36  2  0
 35 37  1  0
 37 38  1  0
 37 40  1  0
 38 39  1  0
  1 41  1  1
  2 42  1  1
  3 43  1  6
  4 44  1  1
  5 45  1  6
  6 46  1  0
  6 47  1  0
  7 48  1  0
 10 49  1  0
 10 50  1  0
 10 51  1  0
 11 52  1  6
 12 53  1  0
 13 54  1  0
 13 55  1  0
 14 56  1  6
 15 57  1  0
 15 58  1  0
 15 59  1  0
 16 60  1  1
 17 61  1  1
 18 62  1  0
 19 63  1  1
 21 64  1  1
 22 65  1  1
 23 66  1  0
 24 67  1  6
 25 68  1  0
 25 69  1  0
 25 70  1  0
 26 71  1  1
 27 72  1  0
 28 73  1  6
 30 74  1  0
 30 75  1  0
 31 76  1  0
 32 77  1  0
 33 78  1  0
 34 79  1  0
 34 80  1  0
 34 81  1  0
 37 82  1  1
 38 83  1  0
 38 84  1  0
 39 85  1  0
 39 86  1  0
 40 87  1  0
M  CHG  4  10   1  15   1  25   1  34   1
M  END
>  <filename_input>  (4) 
6VTA_AKN_docked.sdf

>  <pdb_id>  (4) 
6VTA_AKN

>  <pose_rank>  (4) 
3

>  <num_atoms_heavy>  (4) 
40

>  <num_torsions>  (4) 
10

>  <pose>  (4) 
[91.64162854907785, 8.406673293909451, 28.901233793508744, -2.14500798555338, -5.691346183586824, -0.9970834508092733, 0.4262338735027347, -2.7973204286178626, 1.3975162150019524, -0.6197596937544102, -31.77289604507463, -5.825837510577427, -0.24308959443861988, -15.79845542894095, -31.182443937048177, 3.4590158009800187]

>  <energy>  (4) 
-677.6630817840227

>  <inter_energy>  (4) 
-728.4508972602689

>  <intra_energy>  (4) 
55.13191872518984

>  <rmsd>  (4) 
2.85695

>  <sdf_rank>  (4) 
0

$$$$

     RDKit          3D

 87 89  0  0  0  0  0  0  0  0999 V2000
   97.5225    7.5859   30.1681 C   0  0  1  0  0  0  0  0  0  0  0  0
   98.9983    7.7955   29.8652 C   0  0  1  0  0  0  0  0  0  0  0  0
   99.5695    6.5676   29.2458 C   0  0  2  0  0  0  0  0  0  0  0  0
   99.4319    5.3862   30.1550 C   0  0  1  0  0  0  0  0  0  0  0  0
   97.9633    5.1741   30.5219 C   0  0  1  0  0  0  0  0  0  0  0  0
   97.8202    4.1137   31.5681 C   0  0  0  0  0  0  0  0  0  0  0  0
   99.8706    4.1916   29.4983 O   0  0  0  0  0  0  0  0  0  0  0  0
   96.8814    7.4071   28.9546 O   0  0  0  0  0  0  0  0  0  0  0  0
   97.3698    6.4017   31.0592 O   0  0  0  0  0  0  0  0  0  0  0  0
   96.5148    4.2325   32.1929 N   0  0  0  0  0  0  0  0  0  0  0  0
   93.2154    9.3670   29.8032 C   0  0  2  0  0  0  0  0  0  0  0  0
   91.8695    9.9077   29.5750 N   0  0  0  0  0  0  0  0  0  0  0  0
   94.1023    9.8750   28.6648 C   0  0  0  0  0  0  0  0  0  0  0  0
   95.5223    9.2950   28.7954 C   0  0  2  0  0  0  0  0  0  0  0  0
   96.3716    9.7842   27.7054 N   0  0  0  0  0  0  0  0  0  0  0  0
   95.4965    7.7642   28.8250 C   0  0  2  0  0  0  0  0  0  0  0  0
   94.6179    7.2904   29.9932 C   0  0  2  0  0  0  0  0  0  0  0  0
   94.5028    5.8878   30.0449 O   0  0  0  0  0  0  0  0  0  0  0  0
   93.1805    7.8346   29.8820 C   0  0  1  0  0  0  0  0  0  0  0  0
   92.4783    7.4185   31.0434 O   0  0  0  0  0  0  0  0  0  0  0  0
   93.2155    7.4625   32.2079 C   0  0  2  0  0  0  0  0  0  0  0  0
   92.9002    6.2454   33.0570 C   0  0  2  0  0  0  0  0  0  0  0  0
   93.1249    5.0566   32.2736 O   0  0  0  0  0  0  0  0  0  0  0  0
   91.4885    6.2757   33.5564 C   0  0  1  0  0  0  0  0  0  0  0  0
   91.2305    5.0574   34.3944 N   0  0  0  0  0  0  0  0  0  0  0  0
   91.2515    7.5289   34.3613 C   0  0  2  0  0  0  0  0  0  0  0  0
   89.8920    7.5839   34.8138 O   0  0  0  0  0  0  0  0  0  0  0  0
   91.5377    8.7555   33.5022 C   0  0  2  0  0  0  0  0  0  0  0  0
   92.9102    8.7292   32.9615 O   0  0  0  0  0  0  0  0  0  0  0  0
   91.3757   10.0239   34.2930 C   0  0  0  0  0  0  0  0  0  0  0  0
   90.1409   10.6110   33.9620 O   0  0  0  0  0  0  0  0  0  0  0  0
   99.1113    8.9031   28.9623 O   0  0  0  0  0  0  0  0  0  0  0  0
  100.9655    6.8216   28.9814 O   0  0  0  0  0  0  0  0  0  0  0  0
   91.6185   13.2382   27.7828 N   0  0  0  0  0  0  0  0  0  0  0  0
   91.2876   10.8581   30.5329 C   0  0  0  0  0  0  0  0  0  0  0  0
   91.8796   11.2036   31.5023 O   0  0  0  0  0  0  0  0  0  0  0  0
   89.8920   11.3805   30.2338 C   0  0  2  0  0  0  0  0  0  0  0  0
   89.8471   11.7996   28.7398 C   0  0  0  0  0  0  0  0  0  0  0  0
   90.3577   13.2668   28.5897 C   0  0  0  0  0  0  0  0  0  0  0  0
   89.6887   12.4909   31.0232 O   0  0  0  0  0  0  0  0  0  0  0  0
   97.0798    8.4465   30.6910 H   0  0  0  0  0  0  0  0  0  0  0  0
   99.5540    8.0030   30.7916 H   0  0  0  0  0  0  0  0  0  0  0  0
   99.0265    6.3341   28.3181 H   0  0  0  0  0  0  0  0  0  0  0  0
  100.0409    5.5853   31.0491 H   0  0  0  0  0  0  0  0  0  0  0  0
   97.4481    4.8743   29.5974 H   0  0  0  0  0  0  0  0  0  0  0  0
   97.9162    3.1219   31.1021 H   0  0  0  0  0  0  0  0  0  0  0  0
   98.6062    4.2358   32.3279 H   0  0  0  0  0  0  0  0  0  0  0  0
  100.1193    3.5146   30.1764 H   0  0  0  0  0  0  0  0  0  0  0  0
   96.6223    4.2227   33.2172 H   0  0  0  0  0  0  0  0  0  0  0  0
   96.0743    5.1170   31.9023 H   0  0  0  0  0  0  0  0  0  0  0  0
   95.9219    3.4419   31.9023 H   0  0  0  0  0  0  0  0  0  0  0  0
   93.6239    9.7056   30.7668 H   0  0  0  0  0  0  0  0  0  0  0  0
   91.3334    9.6208   28.7436 H   0  0  0  0  0  0  0  0  0  0  0  0
   93.6705    9.5644   27.7020 H   0  0  0  0  0  0  0  0  0  0  0  0
   94.1575   10.9724   28.7162 H   0  0  0  0  0  0  0  0  0  0  0  0
   95.9473    9.6366   29.7508 H   0  0  0  0  0  0  0  0  0  0  0  0
   97.1963   10.2591   28.0994 H   0  0  0  0  0  0  0  0  0  0  0  0
   96.6774    8.9898   27.1255 H   0  0  0  0  0  0  0  0  0  0  0  0
   95.8380   10.4473   27.1255 H   0  0  0  0  0  0  0  0  0  0  0  0
   95.0579    7.2900   27.9346 H   0  0  0  0  0  0  0  0  0  0  0  0
   95.1199    7.6698   30.8955 H   0  0  0  0  0  0  0  0  0  0  0  0
   94.4786    5.5932   30.9897 H   0  0  0  0  0  0  0  0  0  0  0  0
   92.6835    7.4548   28.9772 H   0  0  0  0  0  0  0  0  0  0  0  0
   94.2878    7.4539   31.9631 H   0  0  0  0  0  0  0  0  0  0  0  0
   93.5612    6.2481   33.9362 H   0  0  0  0  0  0  0  0  0  0  0  0
   93.2706    4.2859   32.8777 H   0  0  0  0  0  0  0  0  0  0  0  0
   90.7967    6.2768   32.7012 H   0  0  0  0  0  0  0  0  0  0  0  0
   91.2838    5.3090   35.3917 H   0  0  0  0  0  0  0  0  0  0  0  0
   90.2926    4.6877   34.1832 H   0  0  0  0  0  0  0  0  0  0  0  0
   91.9381    4.3393   34.1832 H   0  0  0  0  0  0  0  0  0  0  0  0
   91.9235    7.5156   35.2321 H   0  0  0  0  0  0  0  0  0  0  0  0
   89.8734    7.5847   35.8036 H   0  0  0  0  0  0  0  0  0  0  0  0
   90.8122    8.7312   32.6758 H   0  0  0  0  0  0  0  0  0  0  0  0
   91.3993    9.7943   35.3686 H   0  0  0  0  0  0  0  0  0  0  0  0
   92.1949   10.7187   34.0562 H   0  0  0  0  0  0  0  0  0  0  0  0
   89.6529   10.8430   34.7915 H   0  0  0  0  0  0  0  0  0  0  0  0
   99.1970    9.7429   29.4794 H   0  0  0  0  0  0  0  0  0  0  0  0
  101.4529    6.9103   29.8385 H   0  0  0  0  0  0  0  0  0  0  0  0
   92.4308   13.2198   28.4157 H   0  0  0  0  0  0  0  0  0  0  0  0
   91.6269   12.3968   27.1887 H   0  0  0  0  0  0  0  0  0  0  0  0
   91.6650   14.0784   27.1887 H   0  0  0  0  0  0  0  0  0  0  0  0
   89.1224   10.6205   30.4338 H   0  0  0  0  0  0  0  0  0  0  0  0
   90.4890   11.1271   28.1519 H   0  0  0  0  0  0  0  0  0  0  0  0
   88.8117   11.7350   28.3743 H   0  0  0  0  0  0  0  0  0  0  0  0
   90.5598   13.6950   29.5825 H   0  0  0  0  0  0  0  0  0  0  0  0
   89.5984   13.8861   28.0899 H   0  0  0  0  0  0  0  0  0  0  0  0
   89.7363   12.2308   31.9773 H   0  0  0  0  0  0  0  0  0  0  0  0
  1  2  1  0
  1  8  1  0
  1  9  1  0
  2  3  1  0
  2 32  1  0
  3  4  1  0
  3 33  1  0
  4  5  1  0
  4  7  1  0
  5  6  1  0
  5  9  1  0
  6 10  1  0
 16  8  1  0
 11 12  1  0
 11 13  1  0
 11 19  1  0
 12 35  1  0
 13 14  1  0
 14 15  1  0
 14 16  1  0
 16 17  1  0
 17 18  1  0
 17 19  1  0
 19 20  1  0
 21 20  1  0
 21 22  1  0
 21 29  1  0
 22 23  1  0
 22 24  1  0
 24 25  1  0
 24 26  1  0
 26 27  1  0
 26 28  1  0
 28 29  1  0
 28 30  1  0
 30 31  1  0
 34 39  1  0
 35 36  2  0
 35 37  1  0
 37 38  1  0
 37 40  1  0
 38 39  1  0
  1 41  1  1
  2 42  1  1
  3 43  1  6
  4 44  1  1
  5 45  1  6
  6 46  1  0
  6 47  1  0
  7 48  1  0
 10 49  1  0
 10 50  1  0
 10 51  1  0
 11 52  1  1
 12 53  1  0
 13 54  1  0
 13 55  1  0
 14 56  1  1
 15 57  1  0
 15 58  1  0
 15 59  1  0
 16 60  1  6
 17 61  1  1
 18 62  1  0
 19 63  1  6
 21 64  1  6
 22 65  1  1
 23 66  1  0
 24 67  1  6
 25 68  1  0
 25 69  1  0
 25 70  1  0
 26 71  1  1
 27 72  1  0
 28 73  1  6
 30 74  1  0
 30 75  1  0
 31 76  1  0
 32 77  1  0
 33 78  1  0
 34 79  1  0
 34 80  1  0
 34 81  1  0
 37 82  1  6
 38 83  1  0
 38 84  1  0
 39 85  1  0
 39 86  1  0
 40 87  1  0
M  CHG  4  10   1  15   1  25   1  34   1
M  END
>  <filename_input>  (5) 
6VTA_AKN_docked.sdf

>  <pdb_id>  (5) 
6VTA_AKN

>  <pose_rank>  (5) 
4

>  <num_atoms_heavy>  (5) 
40

>  <num_torsions>  (5) 
10

>  <pose>  (5) 
[93.21536741974089, 9.36695268829267, 29.80324398948654, 1.3068490672058721, -0.022883419785068, -0.26648447710022466, 0.09860299220465663, -2.7682838981564064, 1.4307016943971886, -1.1715165849909581, -1.9122055930499577, 0.6405878168135161, -0.21144365010046032, 3.2532896321092766, -5.815065692896052, 3.547866850786793]

>  <energy>  (5) 
-646.7571638400409

>  <inter_energy>  (5) 
-713.1998565111999

>  <intra_energy>  (5) 
70.56803565799385

>  <rmsd>  (5) 
3.39334

>  <sdf_rank>  (5) 
0

$$$$

     RDKit          3D

 87 89  0  0  0  0  0  0  0  0999 V2000
   95.8433    7.9606   28.6680 C   0  0  1  0  0  0  0  0  0  0  0  0
   96.5720    6.9921   27.7488 C   0  0  1  0  0  0  0  0  0  0  0  0
   97.7506    6.4136   28.4515 C   0  0  2  0  0  0  0  0  0  0  0  0
   98.7093    7.4828   28.8747 C   0  0  1  0  0  0  0  0  0  0  0  0
   97.9983    8.5045   29.7619 C   0  0  1  0  0  0  0  0  0  0  0  0
   98.8864    9.6741   30.0497 C   0  0  0  0  0  0  0  0  0  0  0  0
   99.7722    6.9255   29.6560 O   0  0  0  0  0  0  0  0  0  0  0  0
   95.3589    7.2215   29.7331 O   0  0  0  0  0  0  0  0  0  0  0  0
   96.7914    9.0213   29.1107 O   0  0  0  0  0  0  0  0  0  0  0  0
   99.2583   10.3105   28.7986 N   0  0  0  0  0  0  0  0  0  0  0  0
   92.7702    7.8975   33.0259 C   0  0  2  0  0  0  0  0  0  0  0  0
   92.2924    8.4558   34.2971 N   0  0  0  0  0  0  0  0  0  0  0  0
   94.1881    7.3768   33.2691 C   0  0  0  0  0  0  0  0  0  0  0  0
   94.7882    6.8323   31.9602 C   0  0  2  0  0  0  0  0  0  0  0  0
   96.1458    6.3317   32.1949 N   0  0  0  0  0  0  0  0  0  0  0  0
   94.7797    7.8975   30.8600 C   0  0  2  0  0  0  0  0  0  0  0  0
   93.3393    8.3790   30.6261 C   0  0  2  0  0  0  0  0  0  0  0  0
   93.2650    9.4045   29.6637 O   0  0  0  0  0  0  0  0  0  0  0  0
   92.7145    8.9525   31.9126 C   0  0  1  0  0  0  0  0  0  0  0  0
   91.3663    9.2845   31.6179 O   0  0  0  0  0  0  0  0  0  0  0  0
   91.0844   10.6338   31.6565 C   0  0  2  0  0  0  0  0  0  0  0  0
   89.6461   10.8419   32.0917 C   0  0  2  0  0  0  0  0  0  0  0  0
   89.4352   10.1698   33.3492 O   0  0  0  0  0  0  0  0  0  0  0  0
   88.6828   10.3309   31.0650 C   0  0  1  0  0  0  0  0  0  0  0  0
   87.2783   10.5666   31.5390 N   0  0  0  0  0  0  0  0  0  0  0  0
   88.9173   11.0236   29.7460 C   0  0  2  0  0  0  0  0  0  0  0  0
   88.0229   10.5150   28.7472 O   0  0  0  0  0  0  0  0  0  0  0  0
   90.3534   10.7915   29.2895 C   0  0  2  0  0  0  0  0  0  0  0  0
   91.3238   11.2474   30.3030 O   0  0  0  0  0  0  0  0  0  0  0  0
   90.6427   11.5239   28.0088 C   0  0  0  0  0  0  0  0  0  0  0  0
   90.8008   12.8924   28.2939 O   0  0  0  0  0  0  0  0  0  0  0  0
   95.6542    5.9528   27.3849 O   0  0  0  0  0  0  0  0  0  0  0  0
   98.4018    5.5068   27.5366 O   0  0  0  0  0  0  0  0  0  0  0  0
   92.3015    6.9699   40.2473 N   0  0  0  0  0  0  0  0  0  0  0  0
   91.9524    7.5600   35.4112 C   0  0  0  0  0  0  0  0  0  0  0  0
   92.0495    6.3808   35.3117 O   0  0  0  0  0  0  0  0  0  0  0  0
   91.4671    8.2047   36.6991 C   0  0  2  0  0  0  0  0  0  0  0  0
   92.3234    7.6459   37.8671 C   0  0  0  0  0  0  0  0  0  0  0  0
   91.4373    7.4937   39.1428 C   0  0  0  0  0  0  0  0  0  0  0  0
   90.1538    7.8301   36.8793 O   0  0  0  0  0  0  0  0  0  0  0  0
   95.0057    8.4628   28.1618 H   0  0  0  0  0  0  0  0  0  0  0  0
   96.9305    7.5137   26.8492 H   0  0  0  0  0  0  0  0  0  0  0  0
   97.4194    5.8899   29.3603 H   0  0  0  0  0  0  0  0  0  0  0  0
   99.1025    7.9536   27.9617 H   0  0  0  0  0  0  0  0  0  0  0  0
   97.7351    7.9829   30.6939 H   0  0  0  0  0  0  0  0  0  0  0  0
   98.3507   10.3953   30.6844 H   0  0  0  0  0  0  0  0  0  0  0  0
   99.7910    9.3312   30.5731 H   0  0  0  0  0  0  0  0  0  0  0  0
   99.5661    7.0336   30.6183 H   0  0  0  0  0  0  0  0  0  0  0  0
   99.7684   11.1833   28.9957 H   0  0  0  0  0  0  0  0  0  0  0  0
   99.8612    9.6754   28.2563 H   0  0  0  0  0  0  0  0  0  0  0  0
   98.4090   10.5241   28.2563 H   0  0  0  0  0  0  0  0  0  0  0  0
   92.1284    7.0714   32.6860 H   0  0  0  0  0  0  0  0  0  0  0  0
   92.1956    9.4752   34.4079 H   0  0  0  0  0  0  0  0  0  0  0  0
   94.8173    8.1980   33.6429 H   0  0  0  0  0  0  0  0  0  0  0  0
   94.1493    6.5649   34.0102 H   0  0  0  0  0  0  0  0  0  0  0  0
   94.1615    5.9966   31.6155 H   0  0  0  0  0  0  0  0  0  0  0  0
   96.3179    6.2683   33.2084 H   0  0  0  0  0  0  0  0  0  0  0  0
   96.2458    5.3985   31.7706 H   0  0  0  0  0  0  0  0  0  0  0  0
   96.8277    6.9766   31.7706 H   0  0  0  0  0  0  0  0  0  0  0  0
   95.3458    8.8111   31.0940 H   0  0  0  0  0  0  0  0  0  0  0  0
   92.7962    7.4866   30.2817 H   0  0  0  0  0  0  0  0  0  0  0  0
   93.2014   10.2809   30.1196 H   0  0  0  0  0  0  0  0  0  0  0  0
   93.2624    9.8429   32.2546 H   0  0  0  0  0  0  0  0  0  0  0  0
   91.7478   11.1258   32.3831 H   0  0  0  0  0  0  0  0  0  0  0  0
   89.4649   11.9209   32.2059 H   0  0  0  0  0  0  0  0  0  0  0  0
   89.6307   10.7928   34.0933 H   0  0  0  0  0  0  0  0  0  0  0  0
   88.8375    9.2513   30.9220 H   0  0  0  0  0  0  0  0  0  0  0  0
   87.2595   10.5697   32.5688 H   0  0  0  0  0  0  0  0  0  0  0  0
   86.9449   11.4753   31.1867 H   0  0  0  0  0  0  0  0  0  0  0  0
   86.6666    9.8165   31.1867 H   0  0  0  0  0  0  0  0  0  0  0  0
   88.7360   12.1001   29.8812 H   0  0  0  0  0  0  0  0  0  0  0  0
   87.2520   10.0766   29.1871 H   0  0  0  0  0  0  0  0  0  0  0  0
   90.4582    9.7073   29.1358 H   0  0  0  0  0  0  0  0  0  0  0  0
   91.5664   11.1310   27.5590 H   0  0  0  0  0  0  0  0  0  0  0  0
   89.8113   11.3833   27.3023 H   0  0  0  0  0  0  0  0  0  0  0  0
   90.8162   13.0255   29.2748 H   0  0  0  0  0  0  0  0  0  0  0  0
   95.2861    5.5360   28.2040 H   0  0  0  0  0  0  0  0  0  0  0  0
   98.8957    4.8188   28.0494 H   0  0  0  0  0  0  0  0  0  0  0  0
   91.8870    7.2212   41.1562 H   0  0  0  0  0  0  0  0  0  0  0  0
   92.3703    5.9449   40.1729 H   0  0  0  0  0  0  0  0  0  0  0  0
   93.2420    7.3834   40.1729 H   0  0  0  0  0  0  0  0  0  0  0  0
   91.5526    9.3007   36.6619 H   0  0  0  0  0  0  0  0  0  0  0  0
   92.7300    6.6635   37.5849 H   0  0  0  0  0  0  0  0  0  0  0  0
   93.1496    8.3407   38.0781 H   0  0  0  0  0  0  0  0  0  0  0  0
   90.6164    6.7887   38.9450 H   0  0  0  0  0  0  0  0  0  0  0  0
   91.0039    8.4646   39.4247 H   0  0  0  0  0  0  0  0  0  0  0  0
   89.9566    7.7739   37.8478 H   0  0  0  0  0  0  0  0  0  0  0  0
  1  2  1  0
  1  8  1  0
  1  9  1  0
  2  3  1  0
  2 32  1  0
  3  4  1  0
  3 33  1  0
  4  5  1  0
  4  7  1  0
  5  6  1  0
  5  9  1  0
  6 10  1  0
 16  8  1  0
 11 12  1  0
 11 13  1  0
 11 19  1  0
 12 35  1  0
 13 14  1  0
 14 15  1  0
 14 16  1  0
 16 17  1  0
 17 18  1  0
 17 19  1  0
 19 20  1  0
 21 20  1  0
 21 22  1  0
 21 29  1  0
 22 23  1  0
 22 24  1  0
 24 25  1  0
 24 26  1  0
 26 27  1  0
 26 28  1  0
 28 29  1  0
 28 30  1  0
 30 31  1  0
 34 39  1  0
 35 36  2  0
 35 37  1  0
 37 38  1  0
 37 40  1  0
 38 39  1  0
  1 41  1  6
  2 42  1  6
  3 43  1  1
  4 44  1  6
  5 45  1  1
  6 46  1  0
  6 47  1  0
  7 48  1  0
 10 49  1  0
 10 50  1  0
 10 51  1  0
 11 52  1  6
 12 53  1  0
 13 54  1  0
 13 55  1  0
 14 56  1  6
 15 57  1  0
 15 58  1  0
 15 59  1  0
 16 60  1  1
 17 61  1  6
 18 62  1  0
 19 63  1  1
 21 64  1  1
 22 65  1  1
 23 66  1  0
 24 67  1  6
 25 68  1  0
 25 69  1  0
 25 70  1  0
 26 71  1  1
 27 72  1  0
 28 73  1  6
 30 74  1  0
 30 75  1  0
 31 76  1  0
 32 77  1  0
 33 78  1  0
 34 79  1  0
 34 80  1  0
 34 81  1  0
 37 82  1  6
 38 83  1  0
 38 84  1  0
 39 85  1  0
 39 86  1  0
 40 87  1  0
M  CHG  4  10   1  15   1  25   1  34   1
M  END
>  <filename_input>  (6) 
6VTA_AKN_docked.sdf

>  <pdb_id>  (6) 
6VTA_AKN

>  <pose_rank>  (6) 
5

>  <num_atoms_heavy>  (6) 
40

>  <num_torsions>  (6) 
10

>  <pose>  (6) 
[92.77022536217473, 7.897530486973605, 33.02594958780838, 3.2792926663039457, -1.3292294568156644, -1.1046999389448138, 0.8589605148163192, 2.091261704332859, 0.4107574542369472, -0.03307932247234793, 0.24437474307258805, -6.265952450046059, -1.993200390349034, 0.5899593881323699, 0.31285233054233264, -5.915613608774249]

>  <energy>  (6) 
-693.4067471713959

>  <inter_energy>  (6) 
-734.5843792108213

>  <intra_energy>  (6) 
38.96200654431851

>  <rmsd>  (6) 
5.87433

>  <sdf_rank>  (6) 
0

$$$$

     RDKit          3D

 87 89  0  0  0  0  0  0  0  0999 V2000
   95.5386    6.1267   29.3399 C   0  0  1  0  0  0  0  0  0  0  0  0
   96.6725    5.8228   30.3071 C   0  0  1  0  0  0  0  0  0  0  0  0
   97.6577    6.9396   30.3025 C   0  0  2  0  0  0  0  0  0  0  0  0
   98.2370    7.1470   28.9378 C   0  0  1  0  0  0  0  0  0  0  0  0
   97.1203    7.4065   27.9269 C   0  0  1  0  0  0  0  0  0  0  0  0
   97.6581    7.4388   26.5308 C   0  0  0  0  0  0  0  0  0  0  0  0
   99.0860    8.3002   28.9211 O   0  0  0  0  0  0  0  0  0  0  0  0
   94.8847    7.2474   29.8216 O   0  0  0  0  0  0  0  0  0  0  0  0
   96.1035    6.3524   27.9798 O   0  0  0  0  0  0  0  0  0  0  0  0
   98.5352    6.2989   26.3306 N   0  0  0  0  0  0  0  0  0  0  0  0
   90.9640    8.8234   30.2035 C   0  0  2  0  0  0  0  0  0  0  0  0
   89.5044    8.9054   30.0673 N   0  0  0  0  0  0  0  0  0  0  0  0
   91.5281    8.5189   28.8143 C   0  0  0  0  0  0  0  0  0  0  0  0
   93.0567    8.3505   28.8844 C   0  0  2  0  0  0  0  0  0  0  0  0
   93.5961    8.0610   27.5525 N   0  0  0  0  0  0  0  0  0  0  0  0
   93.4500    7.2591   29.8839 C   0  0  2  0  0  0  0  0  0  0  0  0
   92.8883    7.6096   31.2706 C   0  0  2  0  0  0  0  0  0  0  0  0
   93.1646    6.6158   32.2294 O   0  0  0  0  0  0  0  0  0  0  0  0
   91.3554    7.7633   31.2420 C   0  0  1  0  0  0  0  0  0  0  0  0
   90.9456    8.1712   32.5384 O   0  0  0  0  0  0  0  0  0  0  0  0
   91.7891    9.0739   33.1508 C   0  0  2  0  0  0  0  0  0  0  0  0
   91.5997    9.0094   34.6547 C   0  0  2  0  0  0  0  0  0  0  0  0
   91.7898    7.6495   35.0929 O   0  0  0  0  0  0  0  0  0  0  0  0
   90.2422    9.4971   35.0580 C   0  0  1  0  0  0  0  0  0  0  0  0
   90.1087    9.4199   36.5511 N   0  0  0  0  0  0  0  0  0  0  0  0
   90.0397   10.9142   34.5832 C   0  0  2  0  0  0  0  0  0  0  0  0
   88.7288   11.3773   34.9339 O   0  0  0  0  0  0  0  0  0  0  0  0
   90.1989   10.9783   33.0683 C   0  0  2  0  0  0  0  0  0  0  0  0
   91.5133   10.4627   32.6399 O   0  0  0  0  0  0  0  0  0  0  0  0
   90.0691   12.3896   32.5665 C   0  0  0  0  0  0  0  0  0  0  0  0
   90.5268   12.4429   31.2373 O   0  0  0  0  0  0  0  0  0  0  0  0
   96.1078    5.6672   31.6154 O   0  0  0  0  0  0  0  0  0  0  0  0
   98.7071    6.5991   31.2331 O   0  0  0  0  0  0  0  0  0  0  0  0
   84.6362    8.4933   30.7832 N   0  0  0  0  0  0  0  0  0  0  0  0
   88.9108    9.7381   29.0120 C   0  0  0  0  0  0  0  0  0  0  0  0
   89.5855   10.3593   28.2579 O   0  0  0  0  0  0  0  0  0  0  0  0
   87.3938    9.7752   28.9259 C   0  0  2  0  0  0  0  0  0  0  0  0
   86.8414    8.5245   29.6610 C   0  0  0  0  0  0  0  0  0  0  0  0
   86.0485    8.9680   30.9300 C   0  0  0  0  0  0  0  0  0  0  0  0
   87.0539    9.7054   27.5928 O   0  0  0  0  0  0  0  0  0  0  0  0
   94.8248    5.2933   29.2621 H   0  0  0  0  0  0  0  0  0  0  0  0
   97.1954    4.9025   30.0077 H   0  0  0  0  0  0  0  0  0  0  0  0
   97.1579    7.8752   30.5937 H   0  0  0  0  0  0  0  0  0  0  0  0
   98.8053    6.2413   28.6794 H   0  0  0  0  0  0  0  0  0  0  0  0
   96.6766    8.3779   28.1907 H   0  0  0  0  0  0  0  0  0  0  0  0
   96.8248    7.3921   25.8143 H   0  0  0  0  0  0  0  0  0  0  0  0
   98.2212    8.3705   26.3731 H   0  0  0  0  0  0  0  0  0  0  0  0
   99.2880    8.5747   29.8506 H   0  0  0  0  0  0  0  0  0  0  0  0
   98.8242    5.9233   27.2451 H   0  0  0  0  0  0  0  0  0  0  0  0
   98.0352    5.5696   25.8024 H   0  0  0  0  0  0  0  0  0  0  0  0
   99.3683    6.5954   25.8024 H   0  0  0  0  0  0  0  0  0  0  0  0
   91.3848    9.7707   30.5716 H   0  0  0  0  0  0  0  0  0  0  0  0
   88.8966    8.3794   30.7113 H   0  0  0  0  0  0  0  0  0  0  0  0
   91.0776    7.5897   28.4353 H   0  0  0  0  0  0  0  0  0  0  0  0
   91.2904    9.3549   28.1401 H   0  0  0  0  0  0  0  0  0  0  0  0
   93.4913    9.2963   29.2403 H   0  0  0  0  0  0  0  0  0  0  0  0
   94.4999    7.5759   27.6462 H   0  0  0  0  0  0  0  0  0  0  0  0
   92.9361    7.4608   27.0378 H   0  0  0  0  0  0  0  0  0  0  0  0
   93.7315    8.9428   27.0378 H   0  0  0  0  0  0  0  0  0  0  0  0
   93.0465    6.2599   29.6629 H   0  0  0  0  0  0  0  0  0  0  0  0
   93.3795    8.5554   31.5429 H   0  0  0  0  0  0  0  0  0  0  0  0
   93.0591    6.9951   33.1377 H   0  0  0  0  0  0  0  0  0  0  0  0
   90.8687    6.8159   30.9668 H   0  0  0  0  0  0  0  0  0  0  0  0
   92.8327    8.8182   32.9151 H   0  0  0  0  0  0  0  0  0  0  0  0
   92.3415    9.6665   35.1320 H   0  0  0  0  0  0  0  0  0  0  0  0
   91.7940    7.6192   36.0824 H   0  0  0  0  0  0  0  0  0  0  0  0
   89.4719    8.8628   34.5950 H   0  0  0  0  0  0  0  0  0  0  0  0
   90.9143    9.8859   36.9924 H   0  0  0  0  0  0  0  0  0  0  0  0
   89.2390    9.8883   36.8427 H   0  0  0  0  0  0  0  0  0  0  0  0
   90.0813    8.4324   36.8427 H   0  0  0  0  0  0  0  0  0  0  0  0
   90.7922   11.5542   35.0670 H   0  0  0  0  0  0  0  0  0  0  0  0
   88.6424   11.4079   35.9197 H   0  0  0  0  0  0  0  0  0  0  0  0
   89.3987   10.3528   32.6458 H   0  0  0  0  0  0  0  0  0  0  0  0
   89.0148   12.7007   32.6070 H   0  0  0  0  0  0  0  0  0  0  0  0
   90.6674   13.0657   33.1948 H   0  0  0  0  0  0  0  0  0  0  0  0
   91.5102   12.5576   31.2313 H   0  0  0  0  0  0  0  0  0  0  0  0
   96.7991    5.8577   32.2980 H   0  0  0  0  0  0  0  0  0  0  0  0
   98.3746    6.7069   32.1593 H   0  0  0  0  0  0  0  0  0  0  0  0
   84.2221    8.3541   31.7160 H   0  0  0  0  0  0  0  0  0  0  0  0
   84.0895    9.1968   30.2663 H   0  0  0  0  0  0  0  0  0  0  0  0
   84.6254    7.6024   30.2663 H   0  0  0  0  0  0  0  0  0  0  0  0
   86.9835   10.6892   29.3799 H   0  0  0  0  0  0  0  0  0  0  0  0
   86.1720    7.9701   28.9868 H   0  0  0  0  0  0  0  0  0  0  0  0
   87.6796    7.8790   29.9621 H   0  0  0  0  0  0  0  0  0  0  0  0
   86.0665   10.0644   31.0171 H   0  0  0  0  0  0  0  0  0  0  0  0
   86.5038    8.5380   31.8343 H   0  0  0  0  0  0  0  0  0  0  0  0
   86.0877    9.5069   27.5086 H   0  0  0  0  0  0  0  0  0  0  0  0
  1  2  1  0
  1  8  1  0
  1  9  1  0
  2  3  1  0
  2 32  1  0
  3  4  1  0
  3 33  1  0
  4  5  1  0
  4  7  1  0
  5  6  1  0
  5  9  1  0
  6 10  1  0
 16  8  1  0
 11 12  1  0
 11 13  1  0
 11 19  1  0
 12 35  1  0
 13 14  1  0
 14 15  1  0
 14 16  1  0
 16 17  1  0
 17 18  1  0
 17 19  1  0
 19 20  1  0
 21 20  1  0
 21 22  1  0
 21 29  1  0
 22 23  1  0
 22 24  1  0
 24 25  1  0
 24 26  1  0
 26 27  1  0
 26 28  1  0
 28 29  1  0
 28 30  1  0
 30 31  1  0
 34 39  1  0
 35 36  2  0
 35 37  1  0
 37 38  1  0
 37 40  1  0
 38 39  1  0
  1 41  1  6
  2 42  1  6
  3 43  1  1
  4 44  1  6
  5 45  1  1
  6 46  1  0
  6 47  1  0
  7 48  1  0
 10 49  1  0
 10 50  1  0
 10 51  1  0
 11 52  1  1
 12 53  1  0
 13 54  1  0
 13 55  1  0
 14 56  1  1
 15 57  1  0
 15 58  1  0
 15 59  1  0
 16 60  1  6
 17 61  1  1
 18 62  1  0
 19 63  1  6
 21 64  1  1
 22 65  1  1
 23 66  1  0
 24 67  1  6
 25 68  1  0
 25 69  1  0
 25 70  1  0
 26 71  1  1
 27 72  1  0
 28 73  1  6
 30 74  1  0
 30 75  1  0
 31 76  1  0
 32 77  1  0
 33 78  1  0
 34 79  1  0
 34 80  1  0
 34 81  1  0
 37 82  1  1
 38 83  1  0
 38 84  1  0
 39 85  1  0
 39 86  1  0
 40 87  1  0
M  CHG  4  10   1  15   1  25   1  34   1
M  END
>  <filename_input>  (7) 
6VTA_AKN_docked.sdf

>  <pdb_id>  (7) 
6VTA_AKN

>  <pose_rank>  (7) 
6

>  <num_atoms_heavy>  (7) 
40

>  <num_torsions>  (7) 
10

>  <pose>  (7) 
[90.96402375363175, 8.823403782490741, 30.203477467540157, 0.5410065903642841, 0.19375291081687274, -0.19166034286532077, -49.02053536134135, 3.9749099562588284, -1.3621568369392723, -1.101598592951639, -5.205633519625813, 132.91945950822563, -2.215634334736479, 9.530673573171828, 19.017842254796374, 1.952913152613322]

>  <energy>  (7) 
-530.3822855528433

>  <inter_energy>  (7) 
-594.4431714484783

>  <intra_energy>  (7) 
62.177198759963005

>  <rmsd>  (7) 
3.12098

>  <sdf_rank>  (7) 
0

$$$$

     RDKit          3D

 87 89  0  0  0  0  0  0  0  0999 V2000
   96.0365    6.3693   29.9512 C   0  0  1  0  0  0  0  0  0  0  0  0
   96.9761    6.4483   31.1448 C   0  0  1  0  0  0  0  0  0  0  0  0
   97.9919    7.5142   30.9224 C   0  0  2  0  0  0  0  0  0  0  0  0
   98.8030    7.2436   29.6936 C   0  0  1  0  0  0  0  0  0  0  0  0
   97.8860    7.1082   28.4782 C   0  0  1  0  0  0  0  0  0  0  0  0
   98.6545    6.6616   27.2743 C   0  0  0  0  0  0  0  0  0  0  0  0
   99.6883    8.3365   29.4238 O   0  0  0  0  0  0  0  0  0  0  0  0
   95.3560    7.5730   29.8910 O   0  0  0  0  0  0  0  0  0  0  0  0
   96.8333    6.1171   28.7178 O   0  0  0  0  0  0  0  0  0  0  0  0
   98.0561    7.2399   26.0843 N   0  0  0  0  0  0  0  0  0  0  0  0
   91.4602    9.1355   29.2727 C   0  0  2  0  0  0  0  0  0  0  0  0
   90.0544    9.1755   28.8510 N   0  0  0  0  0  0  0  0  0  0  0  0
   92.2723    8.6265   28.0802 C   0  0  0  0  0  0  0  0  0  0  0  0
   93.7570    8.4920   28.4643 C   0  0  2  0  0  0  0  0  0  0  0  0
   94.5343    8.0062   27.3204 N   0  0  0  0  0  0  0  0  0  0  0  0
   93.9359    7.5746   29.6774 C   0  0  2  0  0  0  0  0  0  0  0  0
   93.1274    8.1288   30.8607 C   0  0  2  0  0  0  0  0  0  0  0  0
   93.2007    7.3000   31.9970 O   0  0  0  0  0  0  0  0  0  0  0  0
   91.6303    8.2552   30.5183 C   0  0  1  0  0  0  0  0  0  0  0  0
   90.9890    8.8541   31.6340 O   0  0  0  0  0  0  0  0  0  0  0  0
   91.5815   10.0154   32.0832 C   0  0  2  0  0  0  0  0  0  0  0  0
   91.5538   10.0483   33.5997 C   0  0  2  0  0  0  0  0  0  0  0  0
   92.1726    8.8489   34.1058 O   0  0  0  0  0  0  0  0  0  0  0  0
   90.1544   10.1669   34.1203 C   0  0  1  0  0  0  0  0  0  0  0  0
   90.1827   10.2026   35.6207 N   0  0  0  0  0  0  0  0  0  0  0  0
   89.5038   11.4136   33.5755 C   0  0  2  0  0  0  0  0  0  0  0  0
   88.1514   11.5168   34.0404 O   0  0  0  0  0  0  0  0  0  0  0  0
   89.5020   11.3706   32.0515 C   0  0  2  0  0  0  0  0  0  0  0  0
   90.8662   11.2107   31.5129 O   0  0  0  0  0  0  0  0  0  0  0  0
   88.9199   12.6299   31.4720 C   0  0  0  0  0  0  0  0  0  0  0  0
   89.8436   13.1822   30.5660 O   0  0  0  0  0  0  0  0  0  0  0  0
   96.1911    6.7480   32.3061 O   0  0  0  0  0  0  0  0  0  0  0  0
   98.8530    7.5442   32.0804 O   0  0  0  0  0  0  0  0  0  0  0  0
   85.7826   12.2989   29.0085 N   0  0  0  0  0  0  0  0  0  0  0  0
   89.5894   10.2340   27.9439 C   0  0  0  0  0  0  0  0  0  0  0  0
   90.3258   11.0728   27.5393 O   0  0  0  0  0  0  0  0  0  0  0  0
   88.1229   10.2140   27.5453 C   0  0  2  0  0  0  0  0  0  0  0  0
   87.2730   10.3309   28.8390 C   0  0  0  0  0  0  0  0  0  0  0  0
   85.8605   10.8962   28.4910 C   0  0  0  0  0  0  0  0  0  0  0  0
   87.8739    8.9985   26.9468 O   0  0  0  0  0  0  0  0  0  0  0  0
   95.3133    5.5459   30.0460 H   0  0  0  0  0  0  0  0  0  0  0  0
   97.5047    5.4932   31.2803 H   0  0  0  0  0  0  0  0  0  0  0  0
   97.4881    8.4814   30.7780 H   0  0  0  0  0  0  0  0  0  0  0  0
   99.3699    6.3176   29.8697 H   0  0  0  0  0  0  0  0  0  0  0  0
   97.4435    8.1004   28.3058 H   0  0  0  0  0  0  0  0  0  0  0  0
   99.6992    6.9953   27.3601 H   0  0  0  0  0  0  0  0  0  0  0  0
   98.6281    5.5641   27.2052 H   0  0  0  0  0  0  0  0  0  0  0  0
  100.0030    8.7250   30.2783 H   0  0  0  0  0  0  0  0  0  0  0  0
   97.3423    7.9296   26.3595 H   0  0  0  0  0  0  0  0  0  0  0  0
   98.7851    7.7049   25.5247 H   0  0  0  0  0  0  0  0  0  0  0  0
   97.6163    6.4953   25.5247 H   0  0  0  0  0  0  0  0  0  0  0  0
   91.8189   10.1342   29.5624 H   0  0  0  0  0  0  0  0  0  0  0  0
   89.3942    8.4617   29.1909 H   0  0  0  0  0  0  0  0  0  0  0  0
   91.8868    7.6436   27.7714 H   0  0  0  0  0  0  0  0  0  0  0  0
   92.1803    9.3441   27.2517 H   0  0  0  0  0  0  0  0  0  0  0  0
   94.1316    9.4874   28.7450 H   0  0  0  0  0  0  0  0  0  0  0  0
   95.3590    7.4909   27.6597 H   0  0  0  0  0  0  0  0  0  0  0  0
   93.9494    7.3800   26.7488 H   0  0  0  0  0  0  0  0  0  0  0  0
   94.8407    8.8065   26.7488 H   0  0  0  0  0  0  0  0  0  0  0  0
   93.5654    6.5478   29.5416 H   0  0  0  0  0  0  0  0  0  0  0  0
   93.5734    9.1121   31.0711 H   0  0  0  0  0  0  0  0  0  0  0  0
   93.1515    7.8559   32.8147 H   0  0  0  0  0  0  0  0  0  0  0  0
   91.1893    7.2700   30.3062 H   0  0  0  0  0  0  0  0  0  0  0  0
   92.6289   10.0452   31.7485 H   0  0  0  0  0  0  0  0  0  0  0  0
   92.1096   10.9332   33.9433 H   0  0  0  0  0  0  0  0  0  0  0  0
   92.1640    8.8656   35.0956 H   0  0  0  0  0  0  0  0  0  0  0  0
   89.5661    9.2971   33.7926 H   0  0  0  0  0  0  0  0  0  0  0  0
   89.5865    9.4499   35.9933 H   0  0  0  0  0  0  0  0  0  0  0  0
   91.1498   10.0689   35.9491 H   0  0  0  0  0  0  0  0  0  0  0  0
   89.8314   11.1134   35.9491 H   0  0  0  0  0  0  0  0  0  0  0  0
   90.0754   12.2859   33.9255 H   0  0  0  0  0  0  0  0  0  0  0  0
   88.1418   11.5175   35.0303 H   0  0  0  0  0  0  0  0  0  0  0  0
   88.8862   10.5047   31.7667 H   0  0  0  0  0  0  0  0  0  0  0  0
   87.9820   12.3959   30.9470 H   0  0  0  0  0  0  0  0  0  0  0  0
   88.7107   13.3495   32.2772 H   0  0  0  0  0  0  0  0  0  0  0  0
   90.5761   13.6203   31.0676 H   0  0  0  0  0  0  0  0  0  0  0  0
   96.7168    6.5473   33.1206 H   0  0  0  0  0  0  0  0  0  0  0  0
   98.3015    7.5250   32.9023 H   0  0  0  0  0  0  0  0  0  0  0  0
   85.7833   12.2854   30.0385 H   0  0  0  0  0  0  0  0  0  0  0  0
   86.5951   12.8348   28.6716 H   0  0  0  0  0  0  0  0  0  0  0  0
   84.9157   12.7414   28.6716 H   0  0  0  0  0  0  0  0  0  0  0  0
   87.8773   11.0379   26.8591 H   0  0  0  0  0  0  0  0  0  0  0  0
   87.1662    9.3367   29.2974 H   0  0  0  0  0  0  0  0  0  0  0  0
   87.7740   11.0107   29.5439 H   0  0  0  0  0  0  0  0  0  0  0  0
   85.0840   10.2792   28.9667 H   0  0  0  0  0  0  0  0  0  0  0  0
   85.7008   10.8813   27.4028 H   0  0  0  0  0  0  0  0  0  0  0  0
   87.7329    8.3100   27.6441 H   0  0  0  0  0  0  0  0  0  0  0  0
  1  2  1  0
  1  8  1  0
  1  9  1  0
  2  3  1  0
  2 32  1  0
  3  4  1  0
  3 33  1  0
  4  5  1  0
  4  7  1  0
  5  6  1  0
  5  9  1  0
  6 10  1  0
 16  8  1  0
 11 12  1  0
 11 13  1  0
 11 19  1  0
 12 35  1  0
 13 14  1  0
 14 15  1  0
 14 16  1  0
 16 17  1  0
 17 18  1  0
 17 19  1  0
 19 20  1  0
 21 20  1  0
 21 22  1  0
 21 29  1  0
 22 23  1  0
 22 24  1  0
 24 25  1  0
 24 26  1  0
 26 27  1  0
 26 28  1  0
 28 29  1  0
 28 30  1  0
 30 31  1  0
 34 39  1  0
 35 36  2  0
 35 37  1  0
 37 38  1  0
 37 40  1  0
 38 39  1  0
  1 41  1  1
  2 42  1  1
  3 43  1  6
  4 44  1  1
  5 45  1  6
  6 46  1  0
  6 47  1  0
  7 48  1  0
 10 49  1  0
 10 50  1  0
 10 51  1  0
 11 52  1  1
 12 53  1  0
 13 54  1  0
 13 55  1  0
 14 56  1  1
 15 57  1  0
 15 58  1  0
 15 59  1  0
 16 60  1  6
 17 61  1  1
 18 62  1  0
 19 63  1  6
 21 64  1  1
 22 65  1  1
 23 66  1  0
 24 67  1  1
 25 68  1  0
 25 69  1  0
 25 70  1  0
 26 71  1  6
 27 72  1  0
 28 73  1  1
 30 74  1  0
 30 75  1  0
 31 76  1  0
 32 77  1  0
 33 78  1  0
 34 79  1  0
 34 80  1  0
 34 81  1  0
 37 82  1  6
 38 83  1  0
 38 84  1  0
 39 85  1  0
 39 86  1  0
 40 87  1  0
M  CHG  4  10   1  15   1  25   1  34   1
M  END
>  <filename_input>  (8) 
6VTA_AKN_docked.sdf

>  <pdb_id>  (8) 
6VTA_AKN

>  <pose_rank>  (8) 
7

>  <num_atoms_heavy>  (8) 
40

>  <num_torsions>  (8) 
10

>  <pose>  (8) 
[91.46018629490487, 9.135546020775989, 29.272660700987295, -5.464157109270925, 0.1126086141762932, 2.097820658921422, 0.8084032628923907, -0.9176969360471829, -0.6151676084653086, 1.204114071453511, 19.73258689855772, -5.325173427668721, 0.6679244311969831, -2.8217817955749442, 0.4547475085607909, -5.040500887586056]

>  <energy>  (8) 
-652.7293968798067

>  <inter_energy>  (8) 
-687.2422772821247

>  <intra_energy>  (8) 
36.7939688104219

>  <rmsd>  (8) 
2.89121

>  <sdf_rank>  (8) 
0

$$$$

     RDKit          3D

 87 89  0  0  0  0  0  0  0  0999 V2000
   96.8224    6.5946   28.5578 C   0  0  1  0  0  0  0  0  0  0  0  0
   97.9526    5.8644   29.2672 C   0  0  1  0  0  0  0  0  0  0  0  0
   98.7013    6.8115   30.1392 C   0  0  2  0  0  0  0  0  0  0  0  0
   99.2856    7.9366   29.3430 C   0  0  1  0  0  0  0  0  0  0  0  0
   98.1827    8.6648   28.5751 C   0  0  1  0  0  0  0  0  0  0  0  0
   98.7616    9.6760   27.6361 C   0  0  0  0  0  0  0  0  0  0  0  0
   99.8942    8.9024   30.2076 O   0  0  0  0  0  0  0  0  0  0  0  0
   95.9438    7.0282   29.5354 O   0  0  0  0  0  0  0  0  0  0  0  0
   97.3888    7.7285   27.7746 O   0  0  0  0  0  0  0  0  0  0  0  0
   98.3531   11.0051   28.0547 N   0  0  0  0  0  0  0  0  0  0  0  0
   92.5910    9.6155   29.7919 C   0  0  2  0  0  0  0  0  0  0  0  0
   91.8198   10.8635   29.7340 N   0  0  0  0  0  0  0  0  0  0  0  0
   93.8317    9.8935   30.6429 C   0  0  0  0  0  0  0  0  0  0  0  0
   94.7316    8.6457   30.6977 C   0  0  2  0  0  0  0  0  0  0  0  0
   95.9188    8.9127   31.5150 N   0  0  0  0  0  0  0  0  0  0  0  0
   95.1267    8.1839   29.2921 C   0  0  2  0  0  0  0  0  0  0  0  0
   93.8587    7.8909   28.4752 C   0  0  2  0  0  0  0  0  0  0  0  0
   94.1484    7.5153   27.1491 O   0  0  0  0  0  0  0  0  0  0  0  0
   92.9440    9.1273   28.3803 C   0  0  1  0  0  0  0  0  0  0  0  0
   91.7686    8.7334   27.6888 O   0  0  0  0  0  0  0  0  0  0  0  0
   91.4602    7.3936   27.7953 C   0  0  2  0  0  0  0  0  0  0  0  0
   90.3562    7.0452   26.8148 C   0  0  2  0  0  0  0  0  0  0  0  0
   90.7632    7.4425   25.4904 O   0  0  0  0  0  0  0  0  0  0  0  0
   89.0664    7.7127   27.1810 C   0  0  1  0  0  0  0  0  0  0  0  0
   88.0084    7.3308   26.1871 N   0  0  0  0  0  0  0  0  0  0  0  0
   88.6520    7.3085   28.5736 C   0  0  2  0  0  0  0  0  0  0  0  0
   87.4362    7.9709   28.9465 O   0  0  0  0  0  0  0  0  0  0  0  0
   89.7459    7.6847   29.5669 C   0  0  2  0  0  0  0  0  0  0  0  0
   91.0392    7.0740   29.2046 O   0  0  0  0  0  0  0  0  0  0  0  0
   89.3954    7.2361   30.9584 C   0  0  0  0  0  0  0  0  0  0  0  0
   89.1457    5.8518   30.9400 O   0  0  0  0  0  0  0  0  0  0  0  0
   97.3750    4.8168   30.0569 O   0  0  0  0  0  0  0  0  0  0  0  0
   99.7573    6.0683   30.7841 O   0  0  0  0  0  0  0  0  0  0  0  0
   86.8101   12.1470   30.0883 N   0  0  0  0  0  0  0  0  0  0  0  0
   90.8305   11.1648   30.7780 C   0  0  0  0  0  0  0  0  0  0  0  0
   90.6298   10.4166   31.6778 O   0  0  0  0  0  0  0  0  0  0  0  0
   90.0699   12.4752   30.6583 C   0  0  2  0  0  0  0  0  0  0  0  0
   89.1724   12.3945   29.3943 C   0  0  0  0  0  0  0  0  0  0  0  0
   88.0128   11.3784   29.6366 C   0  0  0  0  0  0  0  0  0  0  0  0
   90.9990   13.4785   30.4922 O   0  0  0  0  0  0  0  0  0  0  0  0
   96.2880    5.9442   27.8497 H   0  0  0  0  0  0  0  0  0  0  0  0
   98.6563    5.4431   28.5343 H   0  0  0  0  0  0  0  0  0  0  0  0
   98.0176    7.2524   30.8795 H   0  0  0  0  0  0  0  0  0  0  0  0
  100.0293    7.5043   28.6574 H   0  0  0  0  0  0  0  0  0  0  0  0
   97.5481    9.1570   29.3268 H   0  0  0  0  0  0  0  0  0  0  0  0
   99.8593    9.6065   27.6516 H   0  0  0  0  0  0  0  0  0  0  0  0
   98.3996    9.4824   26.6156 H   0  0  0  0  0  0  0  0  0  0  0  0
   99.7340    8.6482   31.1509 H   0  0  0  0  0  0  0  0  0  0  0  0
   98.3388   11.0518   29.0835 H   0  0  0  0  0  0  0  0  0  0  0  0
   99.0194   11.7002   27.6887 H   0  0  0  0  0  0  0  0  0  0  0  0
   97.4116   11.2061   27.6887 H   0  0  0  0  0  0  0  0  0  0  0  0
   92.0052    8.8047   30.2498 H   0  0  0  0  0  0  0  0  0  0  0  0
   91.9721   11.5277   28.9616 H   0  0  0  0  0  0  0  0  0  0  0  0
   94.3953   10.7284   30.2011 H   0  0  0  0  0  0  0  0  0  0  0  0
   93.5150   10.1517   31.6642 H   0  0  0  0  0  0  0  0  0  0  0  0
   94.1608    7.8297   31.1651 H   0  0  0  0  0  0  0  0  0  0  0  0
   95.6685    8.8564   32.5126 H   0  0  0  0  0  0  0  0  0  0  0  0
   96.6455    8.2141   31.3034 H   0  0  0  0  0  0  0  0  0  0  0  0
   96.2765    9.8551   31.3034 H   0  0  0  0  0  0  0  0  0  0  0  0
   95.6777    8.9270   28.6970 H   0  0  0  0  0  0  0  0  0  0  0  0
   93.3628    7.0673   29.0098 H   0  0  0  0  0  0  0  0  0  0  0  0
   94.7530    6.7314   27.1528 H   0  0  0  0  0  0  0  0  0  0  0  0
   93.4448    9.9490   27.8474 H   0  0  0  0  0  0  0  0  0  0  0  0
   92.3494    6.7929   27.5538 H   0  0  0  0  0  0  0  0  0  0  0  0
   90.1861    5.9589   26.8469 H   0  0  0  0  0  0  0  0  0  0  0  0
   91.4700    8.1326   25.5555 H   0  0  0  0  0  0  0  0  0  0  0  0
   89.2000    8.8044   27.1620 H   0  0  0  0  0  0  0  0  0  0  0  0
   87.1616    7.0252   26.6875 H   0  0  0  0  0  0  0  0  0  0  0  0
   87.7832    8.1437   25.5959 H   0  0  0  0  0  0  0  0  0  0  0  0
   88.3543    6.5616   25.5959 H   0  0  0  0  0  0  0  0  0  0  0  0
   88.4913    6.2204   28.5868 H   0  0  0  0  0  0  0  0  0  0  0  0
   87.3695    8.0072   29.9335 H   0  0  0  0  0  0  0  0  0  0  0  0
   89.8304    8.7809   29.5342 H   0  0  0  0  0  0  0  0  0  0  0  0
   90.2330    7.4516   31.6380 H   0  0  0  0  0  0  0  0  0  0  0  0
   88.5012    7.7721   31.3093 H   0  0  0  0  0  0  0  0  0  0  0  0
   89.0850    5.5151   31.8690 H   0  0  0  0  0  0  0  0  0  0  0  0
   97.4903    5.0258   31.0176 H   0  0  0  0  0  0  0  0  0  0  0  0
   99.6577    6.1385   31.7666 H   0  0  0  0  0  0  0  0  0  0  0  0
   86.7812   12.1655   31.1178 H   0  0  0  0  0  0  0  0  0  0  0  0
   86.8638   13.1108   29.7290 H   0  0  0  0  0  0  0  0  0  0  0  0
   85.9580   11.6936   29.7290 H   0  0  0  0  0  0  0  0  0  0  0  0
   89.4506   12.6679   31.5467 H   0  0  0  0  0  0  0  0  0  0  0  0
   88.7498   13.3877   29.1818 H   0  0  0  0  0  0  0  0  0  0  0  0
   89.7772   12.0598   28.5386 H   0  0  0  0  0  0  0  0  0  0  0  0
   88.3063   10.6552   30.4118 H   0  0  0  0  0  0  0  0  0  0  0  0
   87.7885   10.8273   28.7115 H   0  0  0  0  0  0  0  0  0  0  0  0
   91.2980   13.8015   31.3789 H   0  0  0  0  0  0  0  0  0  0  0  0
  1  2  1  0
  1  8  1  0
  1  9  1  0
  2  3  1  0
  2 32  1  0
  3  4  1  0
  3 33  1  0
  4  5  1  0
  4  7  1  0
  5  6  1  0
  5  9  1  0
  6 10  1  0
 16  8  1  0
 11 12  1  0
 11 13  1  0
 11 19  1  0
 12 35  1  0
 13 14  1  0
 14 15  1  0
 14 16  1  0
 16 17  1  0
 17 18  1  0
 17 19  1  0
 19 20  1  0
 21 20  1  0
 21 22  1  0
 21 29  1  0
 22 23  1  0
 22 24  1  0
 24 25  1  0
 24 26  1  0
 26 27  1  0
 26 28  1  0
 28 29  1  0
 28 30  1  0
 30 31  1  0
 34 39  1  0
 35 36  2  0
 35 37  1  0
 37 38  1  0
 37 40  1  0
 38 39  1  0
  1 41  1  6
  2 42  1  6
  3 43  1  1
  4 44  1  6
  5 45  1  1
  6 46  1  0
  6 47  1  0
  7 48  1  0
 10 49  1  0
 10 50  1  0
 10 51  1  0
 11 52  1  1
 12 53  1  0
 13 54  1  0
 13 55  1  0
 14 56  1  1
 15 57  1  0
 15 58  1  0
 15 59  1  0
 16 60  1  6
 17 61  1  1
 18 62  1  0
 19 63  1  6
 21 64  1  6
 22 65  1  6
 23 66  1  0
 24 67  1  1
 25 68  1  0
 25 69  1  0
 25 70  1  0
 26 71  1  6
 27 72  1  0
 28 73  1  1
 30 74  1  0
 30 75  1  0
 31 76  1  0
 32 77  1  0
 33 78  1  0
 34 79  1  0
 34 80  1  0
 34 81  1  0
 37 82  1  1
 38 83  1  0
 38 84  1  0
 39 85  1  0
 39 86  1  0
 40 87  1  0
M  CHG  4  10   1  15   1  25   1  34   1
M  END
>  <filename_input>  (9) 
6VTA_AKN_docked.sdf

>  <pdb_id>  (9) 
6VTA_AKN

>  <pose_rank>  (9) 
8

>  <num_atoms_heavy>  (9) 
40

>  <num_torsions>  (9) 
10

>  <pose>  (9) 
[92.59099331806716, 9.615461371734282, 29.79194445402116, 2.602512453965353, -1.0369978505581179, 0.1425651580515714, 0.5793896862822006, -0.8020212651380665, 4.154192798558457, -1.517682830771917, 0.30195629261604434, -0.30010235599427443, 1.2349287630162695, 3.0329635029865964, -0.0426163891017489, 0.022987670928035366]

>  <energy>  (9) 
-665.4064393055024

>  <inter_energy>  (9) 
-726.8917245394741

>  <intra_energy>  (9) 
64.9165174612488

>  <rmsd>  (9) 
4.58196

>  <sdf_rank>  (9) 
0

$$$$

     RDKit          3D

 87 89  0  0  0  0  0  0  0  0999 V2000
   95.3765    6.9289   30.3210 C   0  0  1  0  0  0  0  0  0  0  0  0
   96.6407    6.1249   30.0580 C   0  0  1  0  0  0  0  0  0  0  0  0
   97.5082    6.8453   29.0853 C   0  0  2  0  0  0  0  0  0  0  0  0
   96.8010    7.0620   27.7837 C   0  0  1  0  0  0  0  0  0  0  0  0
   95.4974    7.8259   28.0151 C   0  0  1  0  0  0  0  0  0  0  0  0
   94.6882    7.8977   26.7583 C   0  0  0  0  0  0  0  0  0  0  0  0
   97.5988    7.8627   26.9044 O   0  0  0  0  0  0  0  0  0  0  0  0
   95.7670    8.1122   30.9234 O   0  0  0  0  0  0  0  0  0  0  0  0
   94.6712    7.1667   29.0303 O   0  0  0  0  0  0  0  0  0  0  0  0
   93.7998    9.0442   26.8273 N   0  0  0  0  0  0  0  0  0  0  0  0
   92.4408    8.5972   33.5122 C   0  0  2  0  0  0  0  0  0  0  0  0
   91.6463    9.1090   34.6358 N   0  0  0  0  0  0  0  0  0  0  0  0
   93.7878    8.1487   34.0823 C   0  0  0  0  0  0  0  0  0  0  0  0
   94.7091    7.6578   32.9510 C   0  0  2  0  0  0  0  0  0  0  0  0
   95.9985    7.2263   33.4987 N   0  0  0  0  0  0  0  0  0  0  0  0
   94.9016    8.7384   31.8832 C   0  0  2  0  0  0  0  0  0  0  0  0
   93.5328    9.1465   31.3166 C   0  0  2  0  0  0  0  0  0  0  0  0
   93.6311   10.1818   30.3669 O   0  0  0  0  0  0  0  0  0  0  0  0
   92.5912    9.6654   32.4204 C   0  0  1  0  0  0  0  0  0  0  0  0
   91.3343    9.9300   31.8161 O   0  0  0  0  0  0  0  0  0  0  0  0
   90.8521   11.2048   32.0259 C   0  0  2  0  0  0  0  0  0  0  0  0
   89.3622   11.1466   32.3056 C   0  0  2  0  0  0  0  0  0  0  0  0
   89.1273   10.2493   33.4090 O   0  0  0  0  0  0  0  0  0  0  0  0
   88.5950   10.6956   31.1009 C   0  0  1  0  0  0  0  0  0  0  0  0
   87.1303   10.6622   31.4270 N   0  0  0  0  0  0  0  0  0  0  0  0
   88.8562   11.6265   29.9433 C   0  0  2  0  0  0  0  0  0  0  0  0
   88.1537   11.1821   28.7750 O   0  0  0  0  0  0  0  0  0  0  0  0
   90.3497   11.6645   29.6388 C   0  0  2  0  0  0  0  0  0  0  0  0
   91.1334   12.0647   30.8230 O   0  0  0  0  0  0  0  0  0  0  0  0
   90.6550   12.6347   28.5317 C   0  0  0  0  0  0  0  0  0  0  0  0
   90.2036   13.9123   28.9100 O   0  0  0  0  0  0  0  0  0  0  0  0
   97.3275    5.9605   31.3055 O   0  0  0  0  0  0  0  0  0  0  0  0
   98.6874    6.0404   28.8734 O   0  0  0  0  0  0  0  0  0  0  0  0
   93.2768    8.6300   39.4852 N   0  0  0  0  0  0  0  0  0  0  0  0
   91.4091    8.2626   35.8135 C   0  0  0  0  0  0  0  0  0  0  0  0
   91.8431    7.1597   35.8830 O   0  0  0  0  0  0  0  0  0  0  0  0
   90.5810    8.8561   36.9413 C   0  0  2  0  0  0  0  0  0  0  0  0
   91.5538    9.5234   37.9503 C   0  0  0  0  0  0  0  0  0  0  0  0
   91.8214    8.5532   39.1431 C   0  0  0  0  0  0  0  0  0  0  0  0
   89.9247    7.8167   37.5630 O   0  0  0  0  0  0  0  0  0  0  0  0
   94.6763    6.3971   30.9819 H   0  0  0  0  0  0  0  0  0  0  0  0
   96.3886    5.1428   29.6315 H   0  0  0  0  0  0  0  0  0  0  0  0
   97.7709    7.8354   29.4861 H   0  0  0  0  0  0  0  0  0  0  0  0
   96.6098    6.0724   27.3433 H   0  0  0  0  0  0  0  0  0  0  0  0
   95.7792    8.8353   28.3492 H   0  0  0  0  0  0  0  0  0  0  0  0
   95.3600    8.0043   25.8938 H   0  0  0  0  0  0  0  0  0  0  0  0
   94.0960    6.9774   26.6469 H   0  0  0  0  0  0  0  0  0  0  0  0
   98.1872    8.4532   27.4384 H   0  0  0  0  0  0  0  0  0  0  0  0
   93.6181    9.2788   27.8136 H   0  0  0  0  0  0  0  0  0  0  0  0
   94.2404    9.8487   26.3586 H   0  0  0  0  0  0  0  0  0  0  0  0
   92.9109    8.8184   26.3586 H   0  0  0  0  0  0  0  0  0  0  0  0
   91.9441    7.7438   33.0276 H   0  0  0  0  0  0  0  0  0  0  0  0
   91.2551   10.0611   34.5987 H   0  0  0  0  0  0  0  0  0  0  0  0
   94.2645    8.9961   34.5968 H   0  0  0  0  0  0  0  0  0  0  0  0
   93.6201    7.3242   34.7909 H   0  0  0  0  0  0  0  0  0  0  0  0
   94.2288    6.7956   32.4653 H   0  0  0  0  0  0  0  0  0  0  0  0
   95.9564    7.2404   34.5278 H   0  0  0  0  0  0  0  0  0  0  0  0
   96.2057    6.2702   33.1767 H   0  0  0  0  0  0  0  0  0  0  0  0
   96.7395    7.8652   33.1767 H   0  0  0  0  0  0  0  0  0  0  0  0
   95.3450    9.6770   32.2472 H   0  0  0  0  0  0  0  0  0  0  0  0
   93.1365    8.2321   30.8508 H   0  0  0  0  0  0  0  0  0  0  0  0
   93.7136   11.0510   30.8337 H   0  0  0  0  0  0  0  0  0  0  0  0
   92.9927   10.5781   32.8850 H   0  0  0  0  0  0  0  0  0  0  0  0
   91.3576   11.6489   32.8961 H   0  0  0  0  0  0  0  0  0  0  0  0
   89.0115   12.1575   32.5606 H   0  0  0  0  0  0  0  0  0  0  0  0
   89.2545   10.7351   34.2622 H   0  0  0  0  0  0  0  0  0  0  0  0
   88.9226    9.6854   30.8143 H   0  0  0  0  0  0  0  0  0  0  0  0
   87.0062   10.6593   32.4495 H   0  0  0  0  0  0  0  0  0  0  0  0
   86.6705   11.4929   31.0277 H   0  0  0  0  0  0  0  0  0  0  0  0
   86.7089    9.8113   31.0277 H   0  0  0  0  0  0  0  0  0  0  0  0
   88.5037   12.6315   30.2185 H   0  0  0  0  0  0  0  0  0  0  0  0
   87.3492   10.6734   29.0472 H   0  0  0  0  0  0  0  0  0  0  0  0
   90.6300   10.6452   29.3348 H   0  0  0  0  0  0  0  0  0  0  0  0
   91.7403   12.6637   28.3546 H   0  0  0  0  0  0  0  0  0  0  0  0
   90.1488   12.3183   27.6078 H   0  0  0  0  0  0  0  0  0  0  0  0
   90.1814   13.9753   29.8978 H   0  0  0  0  0  0  0  0  0  0  0  0
   96.6956    6.1118   32.0524 H   0  0  0  0  0  0  0  0  0  0  0  0
   99.0702    5.7791   29.7482 H   0  0  0  0  0  0  0  0  0  0  0  0
   93.3890    8.6359   40.5091 H   0  0  0  0  0  0  0  0  0  0  0  0
   93.7657    7.8136   39.0910 H   0  0  0  0  0  0  0  0  0  0  0  0
   93.6771    9.4932   39.0910 H   0  0  0  0  0  0  0  0  0  0  0  0
   89.8597    9.5981   36.5685 H   0  0  0  0  0  0  0  0  0  0  0  0
   92.5038    9.7528   37.4453 H   0  0  0  0  0  0  0  0  0  0  0  0
   91.1039   10.4525   38.3302 H   0  0  0  0  0  0  0  0  0  0  0  0
   91.5599    7.5247   38.8535 H   0  0  0  0  0  0  0  0  0  0  0  0
   91.2094    8.8380   40.0116 H   0  0  0  0  0  0  0  0  0  0  0  0
   89.9924    7.9239   38.5449 H   0  0  0  0  0  0  0  0  0  0  0  0
  1  2  1  0
  1  8  1  0
  1  9  1  0
  2  3  1  0
  2 32  1  0
  3  4  1  0
  3 33  1  0
  4  5  1  0
  4  7  1  0
  5  6  1  0
  5  9  1  0
  6 10  1  0
 16  8  1  0
 11 12  1  0
 11 13  1  0
 11 19  1  0
 12 35  1  0
 13 14  1  0
 14 15  1  0
 14 16  1  0
 16 17  1  0
 17 18  1  0
 17 19  1  0
 19 20  1  0
 21 20  1  0
 21 22  1  0
 21 29  1  0
 22 23  1  0
 22 24  1  0
 24 25  1  0
 24 26  1  0
 26 27  1  0
 26 28  1  0
 28 29  1  0
 28 30  1  0
 30 31  1  0
 34 39  1  0
 35 36  2  0
 35 37  1  0
 37 38  1  0
 37 40  1  0
 38 39  1  0
  1 41  1  1
  2 42  1  6
  3 43  1  1
  4 44  1  6
  5 45  1  1
  6 46  1  0
  6 47  1  0
  7 48  1  0
 10 49  1  0
 10 50  1  0
 10 51  1  0
 11 52  1  6
 12 53  1  0
 13 54  1  0
 13 55  1  0
 14 56  1  6
 15 57  1  0
 15 58  1  0
 15 59  1  0
 16 60  1  1
 17 61  1  6
 18 62  1  0
 19 63  1  1
 21 64  1  1
 22 65  1  1
 23 66  1  0
 24 67  1  6
 25 68  1  0
 25 69  1  0
 25 70  1  0
 26 71  1  1
 27 72  1  0
 28 73  1  6
 30 74  1  0
 30 75  1  0
 31 76  1  0
 32 77  1  0
 33 78  1  0
 34 79  1  0
 34 80  1  0
 34 81  1  0
 37 82  1  6
 38 83  1  0
 38 84  1  0
 39 85  1  0
 39 86  1  0
 40 87  1  0
M  CHG  4  10   1  15   1  25   1  34   1
M  END
>  <filename_input>  (10) 
6VTA_AKN_docked.sdf

>  <pdb_id>  (10) 
6VTA_AKN

>  <pose_rank>  (10) 
9

>  <num_atoms_heavy>  (10) 
40

>  <num_torsions>  (10) 
10

>  <pose>  (10) 
[92.44079544994673, 8.597246831849462, 33.512208047658135, 3.525291703469262, -1.1308495220666432, -0.7651454215246489, 1.1460176124781927, 2.7184911909081264, 1.218711633103596, -0.760988684830264, -2.192196603097756, 0.7290692811899524, 0.5233727636567983, 6.655507692633213, 6.772688484379925, 0.06789609638850355]

>  <energy>  (10) 
-529.4558756230771

>  <inter_energy>  (10) 
-575.6925546119833

>  <intra_energy>  (10) 
52.289974417026386

>  <rmsd>  (10) 
5.91926

>  <sdf_rank>  (10) 
0

$$$$

     RDKit          3D

 87 89  0  0  0  0  0  0  0  0999 V2000
   96.3877    8.0240   28.7086 C   0  0  1  0  0  0  0  0  0  0  0  0
   96.7177    7.2606   27.4350 C   0  0  1  0  0  0  0  0  0  0  0  0
   97.2551    5.9138   27.7744 C   0  0  2  0  0  0  0  0  0  0  0  0
   98.4969    6.0177   28.6039 C   0  0  1  0  0  0  0  0  0  0  0  0
   98.2155    6.8232   29.8721 C   0  0  1  0  0  0  0  0  0  0  0  0
   99.4791    7.0926   30.6272 C   0  0  0  0  0  0  0  0  0  0  0  0
   98.9305    4.7199   29.0262 O   0  0  0  0  0  0  0  0  0  0  0  0
   95.3732    7.3303   29.3452 O   0  0  0  0  0  0  0  0  0  0  0  0
   97.6121    8.1199   29.5522 O   0  0  0  0  0  0  0  0  0  0  0  0
   99.4915    6.2918   31.8384 N   0  0  0  0  0  0  0  0  0  0  0  0
   92.8552    7.6684   32.7432 C   0  0  2  0  0  0  0  0  0  0  0  0
   92.4678    7.9057   34.1394 N   0  0  0  0  0  0  0  0  0  0  0  0
   94.0308    6.6896   32.7636 C   0  0  0  0  0  0  0  0  0  0  0  0
   94.5416    6.4395   31.3331 C   0  0  2  0  0  0  0  0  0  0  0  0
   95.6665    5.4999   31.3538 N   0  0  0  0  0  0  0  0  0  0  0  0
   94.9355    7.7505   30.6468 C   0  0  2  0  0  0  0  0  0  0  0  0
   93.7261    8.6981   30.6228 C   0  0  2  0  0  0  0  0  0  0  0  0
   94.0348    9.9494   30.0551 O   0  0  0  0  0  0  0  0  0  0  0  0
   93.2021    8.9890   32.0424 C   0  0  1  0  0  0  0  0  0  0  0  0
   92.0406    9.7941   31.9092 O   0  0  0  0  0  0  0  0  0  0  0  0
   90.8988    9.1036   31.5616 C   0  0  2  0  0  0  0  0  0  0  0  0
   90.2548    9.7583   30.3541 C   0  0  2  0  0  0  0  0  0  0  0  0
   91.2266    9.8426   29.2929 O   0  0  0  0  0  0  0  0  0  0  0  0
   89.7305   11.1220   30.6839 C   0  0  1  0  0  0  0  0  0  0  0  0
   89.0988   11.7217   29.4614 N   0  0  0  0  0  0  0  0  0  0  0  0
   88.7268   11.0327   31.8060 C   0  0  2  0  0  0  0  0  0  0  0  0
   88.2458   12.3382   32.1528 O   0  0  0  0  0  0  0  0  0  0  0  0
   89.3786   10.4030   33.0321 C   0  0  2  0  0  0  0  0  0  0  0  0
   89.9422    9.0749   32.7234 O   0  0  0  0  0  0  0  0  0  0  0  0
   88.3877   10.2370   34.1505 C   0  0  0  0  0  0  0  0  0  0  0  0
   89.0410   10.4702   35.3744 O   0  0  0  0  0  0  0  0  0  0  0  0
   95.5117    7.1335   26.6708 O   0  0  0  0  0  0  0  0  0  0  0  0
   97.5502    5.2371   26.5341 O   0  0  0  0  0  0  0  0  0  0  0  0
   93.2533    6.7903   39.4897 N   0  0  0  0  0  0  0  0  0  0  0  0
   91.6229    6.9308   34.8431 C   0  0  0  0  0  0  0  0  0  0  0  0
   91.2346    5.9448   34.3076 O   0  0  0  0  0  0  0  0  0  0  0  0
   91.2622    7.2372   36.2874 C   0  0  2  0  0  0  0  0  0  0  0  0
   92.5549    7.1217   37.1390 C   0  0  0  0  0  0  0  0  0  0  0  0
   92.2378    7.4721   38.6264 C   0  0  0  0  0  0  0  0  0  0  0  0
   90.3600    6.2814   36.6996 O   0  0  0  0  0  0  0  0  0  0  0  0
   96.0531    9.0513   28.5019 H   0  0  0  0  0  0  0  0  0  0  0  0
   97.4809    7.7980   26.8529 H   0  0  0  0  0  0  0  0  0  0  0  0
   96.5116    5.3563   28.3629 H   0  0  0  0  0  0  0  0  0  0  0  0
   99.2666    6.5036   27.9863 H   0  0  0  0  0  0  0  0  0  0  0  0
   97.5248    6.2210   30.4806 H   0  0  0  0  0  0  0  0  0  0  0  0
  100.3447    6.8278   30.0022 H   0  0  0  0  0  0  0  0  0  0  0  0
   99.5328    8.1596   30.8891 H   0  0  0  0  0  0  0  0  0  0  0  0
   98.9432    4.6818   30.0154 H   0  0  0  0  0  0  0  0  0  0  0  0
   99.4819    6.9123   32.6604 H   0  0  0  0  0  0  0  0  0  0  0  0
   98.6598    5.6844   31.8570 H   0  0  0  0  0  0  0  0  0  0  0  0
  100.3416    5.7105   31.8570 H   0  0  0  0  0  0  0  0  0  0  0  0
   92.0252    7.2342   32.1665 H   0  0  0  0  0  0  0  0  0  0  0  0
   92.7882    8.7553   34.6256 H   0  0  0  0  0  0  0  0  0  0  0  0
   94.8447    7.1124   33.3709 H   0  0  0  0  0  0  0  0  0  0  0  0
   93.6950    5.7355   33.1959 H   0  0  0  0  0  0  0  0  0  0  0  0
   93.7235    5.9935   30.7484 H   0  0  0  0  0  0  0  0  0  0  0  0
   95.9195    5.2886   32.3296 H   0  0  0  0  0  0  0  0  0  0  0  0
   95.3961    4.6299   30.8731 H   0  0  0  0  0  0  0  0  0  0  0  0
   96.4744    5.9209   30.8731 H   0  0  0  0  0  0  0  0  0  0  0  0
   95.7276    8.3205   31.1545 H   0  0  0  0  0  0  0  0  0  0  0  0
   92.9706    8.1758   30.0174 H   0  0  0  0  0  0  0  0  0  0  0  0
   94.1973   10.6079   30.7763 H   0  0  0  0  0  0  0  0  0  0  0  0
   93.9617    9.5090   32.6447 H   0  0  0  0  0  0  0  0  0  0  0  0
   91.1620    8.0673   31.3029 H   0  0  0  0  0  0  0  0  0  0  0  0
   89.3997    9.1446   30.0344 H   0  0  0  0  0  0  0  0  0  0  0  0
   92.1337    9.9212   29.6816 H   0  0  0  0  0  0  0  0  0  0  0  0
   90.5608   11.7649   31.0116 H   0  0  0  0  0  0  0  0  0  0  0  0
   88.3808   12.4034   29.7453 H   0  0  0  0  0  0  0  0  0  0  0  0
   89.8202   12.1965   28.9000 H   0  0  0  0  0  0  0  0  0  0  0  0
   88.6621   10.9767   28.9000 H   0  0  0  0  0  0  0  0  0  0  0  0
   87.8829   10.4125   31.4696 H   0  0  0  0  0  0  0  0  0  0  0  0
   88.2131   12.4268   33.1382 H   0  0  0  0  0  0  0  0  0  0  0  0
   90.1839   11.0861   33.3401 H   0  0  0  0  0  0  0  0  0  0  0  0
   87.5664   10.9583   34.0267 H   0  0  0  0  0  0  0  0  0  0  0  0
   87.9753    9.2174   34.1358 H   0  0  0  0  0  0  0  0  0  0  0  0
   88.4294   10.2519   36.1218 H   0  0  0  0  0  0  0  0  0  0  0  0
   94.7392    7.0521   27.2845 H   0  0  0  0  0  0  0  0  0  0  0  0
   97.9383    4.3472   26.7280 H   0  0  0  0  0  0  0  0  0  0  0  0
   93.0213    6.9460   40.4810 H   0  0  0  0  0  0  0  0  0  0  0  0
   93.2499    5.7796   39.2909 H   0  0  0  0  0  0  0  0  0  0  0  0
   94.1874    7.1761   39.2909 H   0  0  0  0  0  0  0  0  0  0  0  0
   90.8314    8.2438   36.3936 H   0  0  0  0  0  0  0  0  0  0  0  0
   92.9412    6.0934   37.0799 H   0  0  0  0  0  0  0  0  0  0  0  0
   93.3097    7.8225   36.7526 H   0  0  0  0  0  0  0  0  0  0  0  0
   91.2292    7.1182   38.8863 H   0  0  0  0  0  0  0  0  0  0  0  0
   92.2762    8.5608   38.7789 H   0  0  0  0  0  0  0  0  0  0  0  0
   90.3356    6.2556   37.6890 H   0  0  0  0  0  0  0  0  0  0  0  0
  1  2  1  0
  1  8  1  0
  1  9  1  0
  2  3  1  0
  2 32  1  0
  3  4  1  0
  3 33  1  0
  4  5  1  0
  4  7  1  0
  5  6  1  0
  5  9  1  0
  6 10  1  0
 16  8  1  0
 11 12  1  0
 11 13  1  0
 11 19  1  0
 12 35  1  0
 13 14  1  0
 14 15  1  0
 14 16  1  0
 16 17  1  0
 17 18  1  0
 17 19  1  0
 19 20  1  0
 21 20  1  0
 21 22  1  0
 21 29  1  0
 22 23  1  0
 22 24  1  0
 24 25  1  0
 24 26  1  0
 26 27  1  0
 26 28  1  0
 28 29  1  0
 28 30  1  0
 30 31  1  0
 34 39  1  0
 35 36  2  0
 35 37  1  0
 37 38  1  0
 37 40  1  0
 38 39  1  0
  1 41  1  6
  2 42  1  6
  3 43  1  1
  4 44  1  6
  5 45  1  1
  6 46  1  0
  6 47  1  0
  7 48  1  0
 10 49  1  0
 10 50  1  0
 10 51  1  0
 11 52  1  6
 12 53  1  0
 13 54  1  0
 13 55  1  0
 14 56  1  6
 15 57  1  0
 15 58  1  0
 15 59  1  0
 16 60  1  1
 17 61  1  6
 18 62  1  0
 19 63  1  1
 21 64  1  6
 22 65  1  6
 23 66  1  0
 24 67  1  1
 25 68  1  0
 25 69  1  0
 25 70  1  0
 26 71  1  6
 27 72  1  0
 28 73  1  1
 30 74  1  0
 30 75  1  0
 31 76  1  0
 32 77  1  0
 33 78  1  0
 34 79  1  0
 34 80  1  0
 34 81  1  0
 37 82  1  6
 38 83  1  0
 38 84  1  0
 39 85  1  0
 39 86  1  0
 40 87  1  0
M  CHG  4  10   1  15   1  25   1  34   1
M  END
>  <filename_input>  (11) 
6VTA_AKN_docked.sdf

>  <pdb_id>  (11) 
6VTA_AKN

>  <pose_rank>  (11) 
10

>  <num_atoms_heavy>  (11) 
40

>  <num_torsions>  (11) 
10

>  <pose>  (11) 
[92.8551656757419, 7.668420171930441, 32.74320327352977, 3.382664220307883, -1.9221852827908197, -1.3045889668581263, 0.7039012171621651, 3.127771814436312, -0.23973474668933434, -0.4830723327021795, 0.5189377610427759, -6.219377806681818, 1.350315322750512, -2.3387786772848616, 0.6780315913526286, -3.4627827567239935]

>  <energy>  (11) 
-625.9395328432065

>  <inter_energy>  (11) 
-675.8498752057463

>  <intra_energy>  (11) 
48.61416916171496

>  <rmsd>  (11) 
5.2527

>  <sdf_rank>  (11) 
0

$$$$

     RDKit          3D

 87 89  0  0  0  0  0  0  0  0999 V2000
   93.5152    6.6875   36.0601 C   0  0  1  0  0  0  0  0  0  0  0  0
   93.1700    5.4798   36.9180 C   0  0  1  0  0  0  0  0  0  0  0  0
   91.7124    5.4731   37.2232 C   0  0  2  0  0  0  0  0  0  0  0  0
   91.3056    6.7123   37.9579 C   0  0  1  0  0  0  0  0  0  0  0  0
   91.6827    7.9516   37.1466 C   0  0  1  0  0  0  0  0  0  0  0  0
   91.4498    9.2008   37.9369 C   0  0  0  0  0  0  0  0  0  0  0  0
   89.8849    6.7500   38.1340 O   0  0  0  0  0  0  0  0  0  0  0  0
   92.8488    6.5336   34.8569 O   0  0  0  0  0  0  0  0  0  0  0  0
   93.0996    7.9282   36.7729 O   0  0  0  0  0  0  0  0  0  0  0  0
   90.9464   10.2377   37.0538 N   0  0  0  0  0  0  0  0  0  0  0  0
   92.9325    8.2079   30.9594 C   0  0  2  0  0  0  0  0  0  0  0  0
   92.8654    9.2327   29.9101 N   0  0  0  0  0  0  0  0  0  0  0  0
   91.6869    8.3762   31.8316 C   0  0  0  0  0  0  0  0  0  0  0  0
   91.7155    7.3758   33.0013 C   0  0  2  0  0  0  0  0  0  0  0  0
   90.5206    7.5365   33.8349 N   0  0  0  0  0  0  0  0  0  0  0  0
   92.9903    7.5327   33.8352 C   0  0  2  0  0  0  0  0  0  0  0  0
   94.2185    7.3336   32.9334 C   0  0  2  0  0  0  0  0  0  0  0  0
   95.4301    7.5219   33.6261 O   0  0  0  0  0  0  0  0  0  0  0  0
   94.2340    8.3355   31.7628 C   0  0  1  0  0  0  0  0  0  0  0  0
   95.3491    8.0152   30.9450 O   0  0  0  0  0  0  0  0  0  0  0  0
   95.6559    6.6719   30.8909 C   0  0  2  0  0  0  0  0  0  0  0  0
   97.1399    6.4981   30.6278 C   0  0  2  0  0  0  0  0  0  0  0  0
   97.8813    7.2219   31.6299 O   0  0  0  0  0  0  0  0  0  0  0  0
   97.5146    6.9795   29.2599 C   0  0  1  0  0  0  0  0  0  0  0  0
   98.9870    6.7793   29.0476 N   0  0  0  0  0  0  0  0  0  0  0  0
   96.7249    6.2325   28.2145 C   0  0  2  0  0  0  0  0  0  0  0  0
   97.0511    6.7117   26.9031 O   0  0  0  0  0  0  0  0  0  0  0  0
   95.2326    6.4295   28.4570 C   0  0  2  0  0  0  0  0  0  0  0  0
   94.8439    6.0026   29.8147 O   0  0  0  0  0  0  0  0  0  0  0  0
   94.4126    5.6437   27.4719 C   0  0  0  0  0  0  0  0  0  0  0  0
   93.4330    4.9174   28.1733 O   0  0  0  0  0  0  0  0  0  0  0  0
   93.5270    4.3006   36.1853 O   0  0  0  0  0  0  0  0  0  0  0  0
   91.4426    4.3113   38.0362 O   0  0  0  0  0  0  0  0  0  0  0  0
   90.8155   12.7205   28.2411 N   0  0  0  0  0  0  0  0  0  0  0  0
   91.9544    9.0584   28.7703 C   0  0  0  0  0  0  0  0  0  0  0  0
   91.2642    8.0978   28.6684 O   0  0  0  0  0  0  0  0  0  0  0  0
   91.9330   10.1588   27.7222 C   0  0  2  0  0  0  0  0  0  0  0  0
   90.4518   10.4398   27.3526 C   0  0  0  0  0  0  0  0  0  0  0  0
   89.8793   11.5530   28.2847 C   0  0  0  0  0  0  0  0  0  0  0  0
   92.5960    9.6846   26.6117 O   0  0  0  0  0  0  0  0  0  0  0  0
   94.5959    6.7669   35.8708 H   0  0  0  0  0  0  0  0  0  0  0  0
   93.7199    5.5160   37.8700 H   0  0  0  0  0  0  0  0  0  0  0  0
   91.1380    5.4427   36.2856 H   0  0  0  0  0  0  0  0  0  0  0  0
   91.8185    6.7024   38.9310 H   0  0  0  0  0  0  0  0  0  0  0  0
   91.0507    7.9427   36.2463 H   0  0  0  0  0  0  0  0  0  0  0  0
   90.7130    9.0028   38.7293 H   0  0  0  0  0  0  0  0  0  0  0  0
   92.3946    9.5308   38.3935 H   0  0  0  0  0  0  0  0  0  0  0  0
   89.6722    6.7556   39.1008 H   0  0  0  0  0  0  0  0  0  0  0  0
   90.5695   11.0142   37.6158 H   0  0  0  0  0  0  0  0  0  0  0  0
   91.7129   10.5845   36.4595 H   0  0  0  0  0  0  0  0  0  0  0  0
   90.1998    9.8499   36.4595 H   0  0  0  0  0  0  0  0  0  0  0  0
   92.9460    7.1957   30.5290 H   0  0  0  0  0  0  0  0  0  0  0  0
   93.4567   10.0737   29.9729 H   0  0  0  0  0  0  0  0  0  0  0  0
   91.6589    9.4008   32.2308 H   0  0  0  0  0  0  0  0  0  0  0  0
   90.7928    8.1861   31.2196 H   0  0  0  0  0  0  0  0  0  0  0  0
   91.7172    6.3580   32.5840 H   0  0  0  0  0  0  0  0  0  0  0  0
   90.7880    7.5005   34.8290 H   0  0  0  0  0  0  0  0  0  0  0  0
   90.0791    8.4444   33.6308 H   0  0  0  0  0  0  0  0  0  0  0  0
   89.8549    6.7775   33.6308 H   0  0  0  0  0  0  0  0  0  0  0  0
   93.1314    8.5266   34.2849 H   0  0  0  0  0  0  0  0  0  0  0  0
   94.1378    6.2979   32.5717 H   0  0  0  0  0  0  0  0  0  0  0  0
   95.2604    7.4955   34.6011 H   0  0  0  0  0  0  0  0  0  0  0  0
   94.3121    9.3697   32.1293 H   0  0  0  0  0  0  0  0  0  0  0  0
   95.4107    6.2012   31.8544 H   0  0  0  0  0  0  0  0  0  0  0  0
   97.3839    5.4267   30.6788 H   0  0  0  0  0  0  0  0  0  0  0  0
   97.5867    6.9343   32.5302 H   0  0  0  0  0  0  0  0  0  0  0  0
   97.2811    8.0507   29.1712 H   0  0  0  0  0  0  0  0  0  0  0  0
   99.4599    6.7150   29.9604 H   0  0  0  0  0  0  0  0  0  0  0  0
   99.1424    5.9094   28.5184 H   0  0  0  0  0  0  0  0  0  0  0  0
   99.3690    7.5761   28.5184 H   0  0  0  0  0  0  0  0  0  0  0  0
   96.9784    5.1643   28.2841 H   0  0  0  0  0  0  0  0  0  0  0  0
   97.6066    7.5277   26.9787 H   0  0  0  0  0  0  0  0  0  0  0  0
   95.0384    7.5054   28.3359 H   0  0  0  0  0  0  0  0  0  0  0  0
   93.9266    6.3312   26.7640 H   0  0  0  0  0  0  0  0  0  0  0  0
   95.0611    4.9527   26.9134 H   0  0  0  0  0  0  0  0  0  0  0  0
   93.5771    5.0243   29.1470 H   0  0  0  0  0  0  0  0  0  0  0  0
   93.7475    3.5725   36.8189 H   0  0  0  0  0  0  0  0  0  0  0  0
   91.4999    4.5578   38.9933 H   0  0  0  0  0  0  0  0  0  0  0  0
   91.0479   13.0103   29.2018 H   0  0  0  0  0  0  0  0  0  0  0  0
   91.6774   12.4511   27.7457 H   0  0  0  0  0  0  0  0  0  0  0  0
   90.3652   13.5033   27.7457 H   0  0  0  0  0  0  0  0  0  0  0  0
   92.4092   11.0795   28.0902 H   0  0  0  0  0  0  0  0  0  0  0  0
   90.3930   10.7733   26.3060 H   0  0  0  0  0  0  0  0  0  0  0  0
   89.8633    9.5193   27.4805 H   0  0  0  0  0  0  0  0  0  0  0  0
   89.8026   11.1744   29.3146 H   0  0  0  0  0  0  0  0  0  0  0  0
   88.8766   11.8548   27.9478 H   0  0  0  0  0  0  0  0  0  0  0  0
   93.3668    9.1333   26.8980 H   0  0  0  0  0  0  0  0  0  0  0  0
  1  2  1  0
  1  8  1  0
  1  9  1  0
  2  3  1  0
  2 32  1  0
  3  4  1  0
  3 33  1  0
  4  5  1  0
  4  7  1  0
  5  6  1  0
  5  9  1  0
  6 10  1  0
 16  8  1  0
 11 12  1  0
 11 13  1  0
 11 19  1  0
 12 35  1  0
 13 14  1  0
 14 15  1  0
 14 16  1  0
 16 17  1  0
 17 18  1  0
 17 19  1  0
 19 20  1  0
 21 20  1  0
 21 22  1  0
 21 29  1  0
 22 23  1  0
 22 24  1  0
 24 25  1  0
 24 26  1  0
 26 27  1  0
 26 28  1  0
 28 29  1  0
 28 30  1  0
 30 31  1  0
 34 39  1  0
 35 36  2  0
 35 37  1  0
 37 38  1  0
 37 40  1  0
 38 39  1  0
  1 41  1  6
  2 42  1  1
  3 43  1  6
  4 44  1  1
  5 45  1  6
  6 46  1  0
  6 47  1  0
  7 48  1  0
 10 49  1  0
 10 50  1  0
 10 51  1  0
 11 52  1  6
 12 53  1  0
 13 54  1  0
 13 55  1  0
 14 56  1  6
 15 57  1  0
 15 58  1  0
 15 59  1  0
 16 60  1  1
 17 61  1  6
 18 62  1  0
 19 63  1  1
 21 64  1  1
 22 65  1  6
 23 66  1  0
 24 67  1  1
 25 68  1  0
 25 69  1  0
 25 70  1  0
 26 71  1  6
 27 72  1  0
 28 73  1  1
 30 74  1  0
 30 75  1  0
 31 76  1  0
 32 77  1  0
 33 78  1  0
 34 79  1  0
 34 80  1  0
 34 81  1  0
 37 82  1  1
 38 83  1  0
 38 84  1  0
 39 85  1  0
 39 86  1  0
 40 87  1  0
M  CHG  4  10   1  15   1  25   1  34   1
M  END
>  <filename_input>  (12) 
6VTA_AKN_docked.sdf

>  <pdb_id>  (12) 
6VTA_AKN

>  <pose_rank>  (12) 
11

>  <num_atoms_heavy>  (12) 
40

>  <num_torsions>  (12) 
10

>  <pose>  (12) 
[92.93250287517535, 8.20792453209513, 30.959404684513153, 2.1272423250600743, -0.5935892452448236, 2.8577402549023385, 0.778470022328687, 1.943343126790328, -1.7742186417384085, -2.281518351594551, 0.3666168187456725, 0.16660351733834217, 0.7616186573461764, -28.26635065998685, -12.303421590451986, -4.950506950737611]

>  <energy>  (12) 
-624.0954519563742

>  <inter_energy>  (12) 
-666.1256649647081

>  <intra_energy>  (12) 
36.10385580098651

>  <rmsd>  (12) 
7.52083

>  <sdf_rank>  (12) 
0

$$$$

     RDKit          3D

 87 89  0  0  0  0  0  0  0  0999 V2000
   95.1588    6.9727   30.3965 C   0  0  1  0  0  0  0  0  0  0  0  0
   95.8500    7.4251   31.6737 C   0  0  1  0  0  0  0  0  0  0  0  0
   96.8232    8.5101   31.3682 C   0  0  2  0  0  0  0  0  0  0  0  0
   97.8663    8.0470   30.3994 C   0  0  1  0  0  0  0  0  0  0  0  0
   97.2048    7.5373   29.1192 C   0  0  1  0  0  0  0  0  0  0  0  0
   98.2121    6.9054   28.2106 C   0  0  0  0  0  0  0  0  0  0  0  0
   98.7189    9.1333   30.0200 O   0  0  0  0  0  0  0  0  0  0  0  0
   94.4304    8.0515   29.9261 O   0  0  0  0  0  0  0  0  0  0  0  0
   96.1877    6.5249   29.4163 O   0  0  0  0  0  0  0  0  0  0  0  0
   97.6538    6.8070   26.8737 N   0  0  0  0  0  0  0  0  0  0  0  0
   90.6777    8.7903   28.0896 C   0  0  2  0  0  0  0  0  0  0  0  0
   89.3179    8.5253   27.6035 N   0  0  0  0  0  0  0  0  0  0  0  0
   91.5687    7.6608   27.5690 C   0  0  0  0  0  0  0  0  0  0  0  0
   93.0062    7.8305   28.0932 C   0  0  2  0  0  0  0  0  0  0  0  0
   93.8593    6.7490   27.5920 N   0  0  0  0  0  0  0  0  0  0  0  0
   93.0362    7.8876   29.6232 C   0  0  2  0  0  0  0  0  0  0  0  0
   92.1516    9.0464   30.1088 C   0  0  2  0  0  0  0  0  0  0  0  0
   92.0873    9.1214   31.5136 O   0  0  0  0  0  0  0  0  0  0  0  0
   90.6978    8.8965   29.6206 C   0  0  1  0  0  0  0  0  0  0  0  0
   89.9875   10.0509   30.0420 O   0  0  0  0  0  0  0  0  0  0  0  0
   88.8417    9.7899   30.7634 C   0  0  2  0  0  0  0  0  0  0  0  0
   87.7497   10.7605   30.3546 C   0  0  2  0  0  0  0  0  0  0  0  0
   87.5655   10.6843   28.9271 O   0  0  0  0  0  0  0  0  0  0  0  0
   88.0836   12.1637   30.7582 C   0  0  1  0  0  0  0  0  0  0  0  0
   86.9716   13.0805   30.3385 N   0  0  0  0  0  0  0  0  0  0  0  0
   88.2926   12.2368   32.2500 C   0  0  2  0  0  0  0  0  0  0  0  0
   88.6478   13.5698   32.6412 O   0  0  0  0  0  0  0  0  0  0  0  0
   89.4104   11.2852   32.6615 C   0  0  2  0  0  0  0  0  0  0  0  0
   89.1263    9.9010   32.2373 O   0  0  0  0  0  0  0  0  0  0  0  0
   89.6017   11.2826   34.1528 C   0  0  0  0  0  0  0  0  0  0  0  0
   90.8832   11.7827   34.4471 O   0  0  0  0  0  0  0  0  0  0  0  0
   94.8434    7.9034   32.5753 O   0  0  0  0  0  0  0  0  0  0  0  0
   97.4471    8.8986   32.6105 O   0  0  0  0  0  0  0  0  0  0  0  0
   83.8766    8.0582   29.3699 N   0  0  0  0  0  0  0  0  0  0  0  0
   88.5184    7.4505   28.2077 C   0  0  0  0  0  0  0  0  0  0  0  0
   88.9465    6.7772   29.0868 O   0  0  0  0  0  0  0  0  0  0  0  0
   87.1180    7.2324   27.6586 C   0  0  2  0  0  0  0  0  0  0  0  0
   86.1347    7.1847   28.8588 C   0  0  0  0  0  0  0  0  0  0  0  0
   85.2212    8.4500   28.8408 C   0  0  0  0  0  0  0  0  0  0  0  0
   87.1110    6.0134   27.0171 O   0  0  0  0  0  0  0  0  0  0  0  0
   94.4818    6.1231   30.5694 H   0  0  0  0  0  0  0  0  0  0  0  0
   96.4003    6.5884   32.1288 H   0  0  0  0  0  0  0  0  0  0  0  0
   96.2982    9.3589   30.9059 H   0  0  0  0  0  0  0  0  0  0  0  0
   98.4448    7.2518   30.8924 H   0  0  0  0  0  0  0  0  0  0  0  0
   96.7436    8.4103   28.6342 H   0  0  0  0  0  0  0  0  0  0  0  0
   99.1223    7.5225   28.1846 H   0  0  0  0  0  0  0  0  0  0  0  0
   98.4646    5.9008   28.5805 H   0  0  0  0  0  0  0  0  0  0  0  0
   99.0680    9.5781   30.8326 H   0  0  0  0  0  0  0  0  0  0  0  0
   96.6413    6.6284   26.9368 H   0  0  0  0  0  0  0  0  0  0  0  0
   97.8159    7.6895   26.3681 H   0  0  0  0  0  0  0  0  0  0  0  0
   98.1080    6.0331   26.3681 H   0  0  0  0  0  0  0  0  0  0  0  0
   91.0534    9.7555   27.7191 H   0  0  0  0  0  0  0  0  0  0  0  0
   88.9244    9.0926   26.8392 H   0  0  0  0  0  0  0  0  0  0  0  0
   91.1688    6.6954   27.9123 H   0  0  0  0  0  0  0  0  0  0  0  0
   91.5823    7.6932   26.4696 H   0  0  0  0  0  0  0  0  0  0  0  0
   93.3983    8.7878   27.7193 H   0  0  0  0  0  0  0  0  0  0  0  0
   94.2648    6.2350   28.3871 H   0  0  0  0  0  0  0  0  0  0  0  0
   93.2960    6.1052   27.0183 H   0  0  0  0  0  0  0  0  0  0  0  0
   94.6166    7.1469   27.0183 H   0  0  0  0  0  0  0  0  0  0  0  0
   92.6340    6.9974   30.1290 H   0  0  0  0  0  0  0  0  0  0  0  0
   92.6205    9.9515   29.6952 H   0  0  0  0  0  0  0  0  0  0  0  0
   92.6783    8.4322   31.9083 H   0  0  0  0  0  0  0  0  0  0  0  0
   90.2340    7.9889   30.0345 H   0  0  0  0  0  0  0  0  0  0  0  0
   88.5010    8.7656   30.5518 H   0  0  0  0  0  0  0  0  0  0  0  0
   86.8189   10.4816   30.8702 H   0  0  0  0  0  0  0  0  0  0  0  0
   86.6692   10.3132   28.7293 H   0  0  0  0  0  0  0  0  0  0  0  0
   89.0141   12.4766   30.2619 H   0  0  0  0  0  0  0  0  0  0  0  0
   86.5078   13.4629   31.1749 H   0  0  0  0  0  0  0  0  0  0  0  0
   87.3570   13.8527   29.7764 H   0  0  0  0  0  0  0  0  0  0  0  0
   86.2870   12.5549   29.7764 H   0  0  0  0  0  0  0  0  0  0  0  0
   87.3541   11.9506   32.7473 H   0  0  0  0  0  0  0  0  0  0  0  0
   88.6640   13.6305   33.6292 H   0  0  0  0  0  0  0  0  0  0  0  0
   90.3231   11.6462   32.1649 H   0  0  0  0  0  0  0  0  0  0  0  0
   88.8391   11.9198   34.6243 H   0  0  0  0  0  0  0  0  0  0  0  0
   89.5029   10.2578   34.5401 H   0  0  0  0  0  0  0  0  0  0  0  0
   91.0019   11.8290   35.4289 H   0  0  0  0  0  0  0  0  0  0  0  0
   95.1420    7.7615   33.5085 H   0  0  0  0  0  0  0  0  0  0  0  0
   96.9079    8.5628   33.3697 H   0  0  0  0  0  0  0  0  0  0  0  0
   83.8977    8.0644   30.3997 H   0  0  0  0  0  0  0  0  0  0  0  0
   83.1683    8.7278   29.0370 H   0  0  0  0  0  0  0  0  0  0  0  0
   83.6388    7.1129   29.0370 H   0  0  0  0  0  0  0  0  0  0  0  0
   86.8246    8.0338   26.9646 H   0  0  0  0  0  0  0  0  0  0  0  0
   85.5105    6.2820   28.7846 H   0  0  0  0  0  0  0  0  0  0  0  0
   86.7069    7.1618   29.7980 H   0  0  0  0  0  0  0  0  0  0  0  0
   85.1225    8.8244   27.8112 H   0  0  0  0  0  0  0  0  0  0  0  0
   85.6588    9.2457   29.4616 H   0  0  0  0  0  0  0  0  0  0  0  0
   87.1068    5.2867   27.6895 H   0  0  0  0  0  0  0  0  0  0  0  0
  1  2  1  0
  1  8  1  0
  1  9  1  0
  2  3  1  0
  2 32  1  0
  3  4  1  0
  3 33  1  0
  4  5  1  0
  4  7  1  0
  5  6  1  0
  5  9  1  0
  6 10  1  0
 16  8  1  0
 11 12  1  0
 11 13  1  0
 11 19  1  0
 12 35  1  0
 13 14  1  0
 14 15  1  0
 14 16  1  0
 16 17  1  0
 17 18  1  0
 17 19  1  0
 19 20  1  0
 21 20  1  0
 21 22  1  0
 21 29  1  0
 22 23  1  0
 22 24  1  0
 24 25  1  0
 24 26  1  0
 26 27  1  0
 26 28  1  0
 28 29  1  0
 28 30  1  0
 30 31  1  0
 34 39  1  0
 35 36  2  0
 35 37  1  0
 37 38  1  0
 37 40  1  0
 38 39  1  0
  1 41  1  1
  2 42  1  1
  3 43  1  6
  4 44  1  1
  5 45  1  6
  6 46  1  0
  6 47  1  0
  7 48  1  0
 10 49  1  0
 10 50  1  0
 10 51  1  0
 11 52  1  6
 12 53  1  0
 13 54  1  0
 13 55  1  0
 14 56  1  6
 15 57  1  0
 15 58  1  0
 15 59  1  0
 16 60  1  1
 17 61  1  6
 18 62  1  0
 19 63  1  1
 21 64  1  1
 22 65  1  1
 23 66  1  0
 24 67  1  6
 25 68  1  0
 25 69  1  0
 25 70  1  0
 26 71  1  1
 27 72  1  0
 28 73  1  6
 30 74  1  0
 30 75  1  0
 31 76  1  0
 32 77  1  0
 33 78  1  0
 34 79  1  0
 34 80  1  0
 34 81  1  0
 37 82  1  6
 38 83  1  0
 38 84  1  0
 39 85  1  0
 39 86  1  0
 40 87  1  0
M  CHG  4  10   1  15   1  25   1  34   1
M  END
>  <filename_input>  (13) 
6VTA_AKN_docked.sdf

>  <pdb_id>  (13) 
6VTA_AKN

>  <pose_rank>  (13) 
12

>  <num_atoms_heavy>  (13) 
40

>  <num_torsions>  (13) 
10

>  <pose>  (13) 
[90.67773552295455, 8.790341138220745, 28.089613421692462, -0.27403249698914167, -0.15803500131604173, -0.13387136911201605, -2.8836358822978307, 2.0566366976414265, -1.411454638516015, -0.631195697130746, 1.2666574414435288, 1.0782329097053658, 0.4053527855396665, 0.36855250985685767, 0.45970223545105215, -2.9744513335931666]

>  <energy>  (13) 
-498.6041014334335

>  <inter_energy>  (13) 
-562.0272785343407

>  <intra_energy>  (13) 
65.56210316300286

>  <rmsd>  (13) 
3.05803

>  <sdf_rank>  (13) 
0

$$$$

     RDKit          3D

 87 89  0  0  0  0  0  0  0  0999 V2000
   92.5580    7.8592   35.6749 C   0  0  1  0  0  0  0  0  0  0  0  0
   92.0871    8.3340   37.0411 C   0  0  1  0  0  0  0  0  0  0  0  0
   93.2604    8.6071   37.9166 C   0  0  2  0  0  0  0  0  0  0  0  0
   94.0982    7.3801   38.1004 C   0  0  1  0  0  0  0  0  0  0  0  0
   94.5498    6.8443   36.7421 C   0  0  1  0  0  0  0  0  0  0  0  0
   95.2359    5.5224   36.8888 C   0  0  0  0  0  0  0  0  0  0  0  0
   95.2858    7.6874   38.8393 O   0  0  0  0  0  0  0  0  0  0  0  0
   93.2580    8.9064   35.1013 O   0  0  0  0  0  0  0  0  0  0  0  0
   93.4079    6.6473   35.8449 O   0  0  0  0  0  0  0  0  0  0  0  0
   94.3834    4.6235   37.6462 N   0  0  0  0  0  0  0  0  0  0  0  0
   93.2168    7.5565   31.0792 C   0  0  2  0  0  0  0  0  0  0  0  0
   93.1775    7.6290   29.6133 N   0  0  0  0  0  0  0  0  0  0  0  0
   92.0671    8.4198   31.6024 C   0  0  0  0  0  0  0  0  0  0  0  0
   92.0802    8.4500   33.1414 C   0  0  2  0  0  0  0  0  0  0  0  0
   90.9770    9.2757   33.6414 N   0  0  0  0  0  0  0  0  0  0  0  0
   93.4251    8.9509   33.6757 C   0  0  2  0  0  0  0  0  0  0  0  0
   94.5518    8.0475   33.1508 C   0  0  2  0  0  0  0  0  0  0  0  0
   95.8265    8.4864   33.5581 O   0  0  0  0  0  0  0  0  0  0  0  0
   94.5827    8.0120   31.6106 C   0  0  1  0  0  0  0  0  0  0  0  0
   95.5911    7.0893   31.2276 O   0  0  0  0  0  0  0  0  0  0  0  0
   96.1312    7.3130   29.9788 C   0  0  2  0  0  0  0  0  0  0  0  0
   96.7993    6.0463   29.4780 C   0  0  2  0  0  0  0  0  0  0  0  0
   95.8434    4.9680   29.5111 O   0  0  0  0  0  0  0  0  0  0  0  0
   98.0006    5.6972   30.3015 C   0  0  1  0  0  0  0  0  0  0  0  0
   98.6272    4.4445   29.7619 N   0  0  0  0  0  0  0  0  0  0  0  0
   98.9912    6.8342   30.2789 C   0  0  2  0  0  0  0  0  0  0  0  0
  100.1291    6.5232   31.0940 O   0  0  0  0  0  0  0  0  0  0  0  0
   98.3329    8.1025   30.8103 C   0  0  2  0  0  0  0  0  0  0  0  0
   97.1206    8.4456   30.0425 O   0  0  0  0  0  0  0  0  0  0  0  0
   99.2725    9.2740   30.7402 C   0  0  0  0  0  0  0  0  0  0  0  0
   99.8776    9.2956   29.4704 O   0  0  0  0  0  0  0  0  0  0  0  0
   91.3212    9.5310   36.8533 O   0  0  0  0  0  0  0  0  0  0  0  0
   92.7569    9.0518   39.1942 O   0  0  0  0  0  0  0  0  0  0  0  0
   89.7875   10.5941   27.4602 N   0  0  0  0  0  0  0  0  0  0  0  0
   93.2088    8.9354   28.9414 C   0  0  0  0  0  0  0  0  0  0  0  0
   93.2611    9.9493   29.5570 O   0  0  0  0  0  0  0  0  0  0  0  0
   93.1684    8.9375   27.4221 C   0  0  2  0  0  0  0  0  0  0  0  0
   92.1422   10.0114   26.9714 C   0  0  0  0  0  0  0  0  0  0  0  0
   90.6935    9.4510   27.1232 C   0  0  0  0  0  0  0  0  0  0  0  0
   92.7319    7.6948   27.0187 O   0  0  0  0  0  0  0  0  0  0  0  0
   91.7190    7.5798   35.0207 H   0  0  0  0  0  0  0  0  0  0  0  0
   91.4709    7.5613   37.5240 H   0  0  0  0  0  0  0  0  0  0  0  0
   93.8976    9.3745   37.4529 H   0  0  0  0  0  0  0  0  0  0  0  0
   93.4862    6.6401   38.6369 H   0  0  0  0  0  0  0  0  0  0  0  0
   95.2399    7.5912   36.3227 H   0  0  0  0  0  0  0  0  0  0  0  0
   95.4285    5.0954   35.8935 H   0  0  0  0  0  0  0  0  0  0  0  0
   96.1912    5.6584   37.4169 H   0  0  0  0  0  0  0  0  0  0  0  0
   95.0932    7.6376   39.8091 H   0  0  0  0  0  0  0  0  0  0  0  0
   94.5304    4.7785   38.6538 H   0  0  0  0  0  0  0  0  0  0  0  0
   93.3973    4.8059   37.4111 H   0  0  0  0  0  0  0  0  0  0  0  0
   94.6177    3.6485   37.4111 H   0  0  0  0  0  0  0  0  0  0  0  0
   93.0898    6.5223   31.4317 H   0  0  0  0  0  0  0  0  0  0  0  0
   93.1281    6.7642   29.0560 H   0  0  0  0  0  0  0  0  0  0  0  0
   92.1787    9.4445   31.2182 H   0  0  0  0  0  0  0  0  0  0  0  0
   91.1133    7.9915   31.2606 H   0  0  0  0  0  0  0  0  0  0  0  0
   91.9418    7.4219   33.5072 H   0  0  0  0  0  0  0  0  0  0  0  0
   90.9838    9.2706   34.6714 H   0  0  0  0  0  0  0  0  0  0  0  0
   91.0899   10.2416   33.3021 H   0  0  0  0  0  0  0  0  0  0  0  0
   90.0821    8.8950   33.3021 H   0  0  0  0  0  0  0  0  0  0  0  0
   93.7049    9.9642   33.3519 H   0  0  0  0  0  0  0  0  0  0  0  0
   94.3343    7.0536   33.5690 H   0  0  0  0  0  0  0  0  0  0  0  0
   95.8700    8.5014   34.5471 H   0  0  0  0  0  0  0  0  0  0  0  0
   94.7979    9.0083   31.1970 H   0  0  0  0  0  0  0  0  0  0  0  0
   95.3303    7.5906   29.2777 H   0  0  0  0  0  0  0  0  0  0  0  0
   97.1435    6.2134   28.4467 H   0  0  0  0  0  0  0  0  0  0  0  0
   95.6388    4.7372   30.4518 H   0  0  0  0  0  0  0  0  0  0  0  0
   97.6936    5.5254   31.3437 H   0  0  0  0  0  0  0  0  0  0  0  0
   98.9267    3.8458   30.5447 H   0  0  0  0  0  0  0  0  0  0  0  0
   97.9403    3.9378   29.1854 H   0  0  0  0  0  0  0  0  0  0  0  0
   99.4446    4.6903   29.1854 H   0  0  0  0  0  0  0  0  0  0  0  0
   99.3199    6.9888   29.2406 H   0  0  0  0  0  0  0  0  0  0  0  0
   99.8792    6.5915   32.0495 H   0  0  0  0  0  0  0  0  0  0  0  0
   98.0641    7.8969   31.8570 H   0  0  0  0  0  0  0  0  0  0  0  0
   98.7121   10.2073   30.8984 H   0  0  0  0  0  0  0  0  0  0  0  0
  100.0433    9.1816   31.5196 H   0  0  0  0  0  0  0  0  0  0  0  0
  100.8616    9.3306   29.5743 H   0  0  0  0  0  0  0  0  0  0  0  0
   91.0790    9.9097   37.7353 H   0  0  0  0  0  0  0  0  0  0  0  0
   93.2610    8.6066   39.9207 H   0  0  0  0  0  0  0  0  0  0  0  0
   89.7154   10.6850   28.4837 H   0  0  0  0  0  0  0  0  0  0  0  0
   90.1708   11.4643   27.0644 H   0  0  0  0  0  0  0  0  0  0  0  0
   88.8527   10.4196   27.0644 H   0  0  0  0  0  0  0  0  0  0  0  0
   94.1558    9.1571   26.9898 H   0  0  0  0  0  0  0  0  0  0  0  0
   92.2542   10.9095   27.5967 H   0  0  0  0  0  0  0  0  0  0  0  0
   92.3242   10.2699   25.9178 H   0  0  0  0  0  0  0  0  0  0  0  0
   90.6655    8.7025   27.9289 H   0  0  0  0  0  0  0  0  0  0  0  0
   90.3701    8.9702   26.1882 H   0  0  0  0  0  0  0  0  0  0  0  0
   92.5367    7.1392   27.8145 H   0  0  0  0  0  0  0  0  0  0  0  0
  1  2  1  0
  1  8  1  0
  1  9  1  0
  2  3  1  0
  2 32  1  0
  3  4  1  0
  3 33  1  0
  4  5  1  0
  4  7  1  0
  5  6  1  0
  5  9  1  0
  6 10  1  0
 16  8  1  0
 11 12  1  0
 11 13  1  0
 11 19  1  0
 12 35  1  0
 13 14  1  0
 14 15  1  0
 14 16  1  0
 16 17  1  0
 17 18  1  0
 17 19  1  0
 19 20  1  0
 21 20  1  0
 21 22  1  0
 21 29  1  0
 22 23  1  0
 22 24  1  0
 24 25  1  0
 24 26  1  0
 26 27  1  0
 26 28  1  0
 28 29  1  0
 28 30  1  0
 30 31  1  0
 34 39  1  0
 35 36  2  0
 35 37  1  0
 37 38  1  0
 37 40  1  0
 38 39  1  0
  1 41  1  6
  2 42  1  1
  3 43  1  6
  4 44  1  1
  5 45  1  6
  6 46  1  0
  6 47  1  0
  7 48  1  0
 10 49  1  0
 10 50  1  0
 10 51  1  0
 11 52  1  6
 12 53  1  0
 13 54  1  0
 13 55  1  0
 14 56  1  1
 15 57  1  0
 15 58  1  0
 15 59  1  0
 16 60  1  6
 17 61  1  1
 18 62  1  0
 19 63  1  6
 21 64  1  6
 22 65  1  6
 23 66  1  0
 24 67  1  1
 25 68  1  0
 25 69  1  0
 25 70  1  0
 26 71  1  6
 27 72  1  0
 28 73  1  1
 30 74  1  0
 30 75  1  0
 31 76  1  0
 32 77  1  0
 33 78  1  0
 34 79  1  0
 34 80  1  0
 34 81  1  0
 37 82  1  6
 38 83  1  0
 38 84  1  0
 39 85  1  0
 39 86  1  0
 40 87  1  0
M  CHG  4  10   1  15   1  25   1  34   1
M  END
>  <filename_input>  (14) 
6VTA_AKN_docked.sdf

>  <pdb_id>  (14) 
6VTA_AKN

>  <pose_rank>  (14) 
13

>  <num_atoms_heavy>  (14) 
40

>  <num_torsions>  (14) 
10

>  <pose>  (14) 
[93.21678982056625, 7.556498159066352, 31.079240446883073, 1.90199673947178, 0.25877581089002843, 2.3898913964749746, -3.21483405513157, 0.3895902456545387, 1.5600749875995108, -0.6047182675192007, -2.5304143551262257, 6.823283956803508, -2.1213879546837453, -12.697129194505406, 6.4018860708136085, -0.1355028046875033]

>  <energy>  (14) 
-626.5787241853676

>  <inter_energy>  (14) 
-693.8639636624918

>  <intra_energy>  (14) 
67.60099234034654

>  <rmsd>  (14) 
7.40558

>  <sdf_rank>  (14) 
0

$$$$

     RDKit          3D

 87 89  0  0  0  0  0  0  0  0999 V2000
   96.1338    7.6801   30.5803 C   0  0  1  0  0  0  0  0  0  0  0  0
   96.9742    6.4123   30.5870 C   0  0  1  0  0  0  0  0  0  0  0  0
   98.3741    6.7324   30.9810 C   0  0  2  0  0  0  0  0  0  0  0  0
   98.9947    7.7114   30.0336 C   0  0  1  0  0  0  0  0  0  0  0  0
   98.1485    8.9823   29.9627 C   0  0  1  0  0  0  0  0  0  0  0  0
   98.6489    9.9001   28.8918 C   0  0  0  0  0  0  0  0  0  0  0  0
  100.2927    8.1041   30.4938 O   0  0  0  0  0  0  0  0  0  0  0  0
   96.0929    8.1459   31.8830 O   0  0  0  0  0  0  0  0  0  0  0  0
   96.7504    8.6704   29.6534 O   0  0  0  0  0  0  0  0  0  0  0  0
   97.5887   10.1307   27.9268 N   0  0  0  0  0  0  0  0  0  0  0  0
   92.1595    7.5871   33.3721 C   0  0  2  0  0  0  0  0  0  0  0  0
   90.9452    7.8448   34.1562 N   0  0  0  0  0  0  0  0  0  0  0  0
   93.3400    7.6339   34.3441 C   0  0  0  0  0  0  0  0  0  0  0  0
   94.6645    7.4379   33.5846 C   0  0  2  0  0  0  0  0  0  0  0  0
   95.7946    7.4806   34.5173 N   0  0  0  0  0  0  0  0  0  0  0  0
   94.8290    8.4818   32.4765 C   0  0  2  0  0  0  0  0  0  0  0  0
   93.6403    8.3898   31.5072 C   0  0  2  0  0  0  0  0  0  0  0  0
   93.6980    9.3639   30.4917 O   0  0  0  0  0  0  0  0  0  0  0  0
   92.2971    8.6045   32.2312 C   0  0  1  0  0  0  0  0  0  0  0  0
   91.2649    8.4133   31.2757 O   0  0  0  0  0  0  0  0  0  0  0  0
   90.1567    9.2134   31.4582 C   0  0  2  0  0  0  0  0  0  0  0  0
   89.2869    9.1707   30.2159 C   0  0  2  0  0  0  0  0  0  0  0  0
   88.9671    7.7978   29.9150 O   0  0  0  0  0  0  0  0  0  0  0  0
   89.9693    9.8105   29.0462 C   0  0  1  0  0  0  0  0  0  0  0  0
   89.0668    9.7487   27.8484 N   0  0  0  0  0  0  0  0  0  0  0  0
   90.3180   11.2415   29.3703 C   0  0  2  0  0  0  0  0  0  0  0  0
   91.0038   11.8516   28.2687 O   0  0  0  0  0  0  0  0  0  0  0  0
   91.2175   11.2873   30.6005 C   0  0  2  0  0  0  0  0  0  0  0  0
   90.5859   10.6247   31.7576 O   0  0  0  0  0  0  0  0  0  0  0  0
   91.5316   12.7043   30.9928 C   0  0  0  0  0  0  0  0  0  0  0  0
   91.9087   12.7275   32.3479 O   0  0  0  0  0  0  0  0  0  0  0  0
   96.3919    5.5010   31.5279 O   0  0  0  0  0  0  0  0  0  0  0  0
   99.1231    5.4986   30.9700 O   0  0  0  0  0  0  0  0  0  0  0  0
   88.9800    7.1872   38.2402 N   0  0  0  0  0  0  0  0  0  0  0  0
   90.3056    6.7511   34.9006 C   0  0  0  0  0  0  0  0  0  0  0  0
   90.7449    5.6482   34.8833 O   0  0  0  0  0  0  0  0  0  0  0  0
   89.0537    7.0882   35.6936 C   0  0  2  0  0  0  0  0  0  0  0  0
   88.4847    5.7664   36.2758 C   0  0  0  0  0  0  0  0  0  0  0  0
   88.3879    5.8749   37.8297 C   0  0  0  0  0  0  0  0  0  0  0  0
   88.1404    7.6273   34.8146 O   0  0  0  0  0  0  0  0  0  0  0  0
   95.1086    7.4967   30.2263 H   0  0  0  0  0  0  0  0  0  0  0  0
   96.9945    5.9607   29.5842 H   0  0  0  0  0  0  0  0  0  0  0  0
   98.3815    7.1917   31.9806 H   0  0  0  0  0  0  0  0  0  0  0  0
   99.0615    7.2223   29.0506 H   0  0  0  0  0  0  0  0  0  0  0  0
   98.2225    9.4650   30.9484 H   0  0  0  0  0  0  0  0  0  0  0  0
   98.9528   10.8575   29.3402 H   0  0  0  0  0  0  0  0  0  0  0  0
   99.5140    9.4437   28.3885 H   0  0  0  0  0  0  0  0  0  0  0  0
  100.3047    8.1077   31.4837 H   0  0  0  0  0  0  0  0  0  0  0  0
   96.7073   10.3223   28.4242 H   0  0  0  0  0  0  0  0  0  0  0  0
   97.8320   10.9384   27.3358 H   0  0  0  0  0  0  0  0  0  0  0  0
   97.4746    9.2948   27.3358 H   0  0  0  0  0  0  0  0  0  0  0  0
   92.1206    6.6001   32.8881 H   0  0  0  0  0  0  0  0  0  0  0  0
   90.5417    8.7921   34.1845 H   0  0  0  0  0  0  0  0  0  0  0  0
   93.3536    8.6095   34.8520 H   0  0  0  0  0  0  0  0  0  0  0  0
   93.2278    6.8265   35.0828 H   0  0  0  0  0  0  0  0  0  0  0  0
   94.6434    6.4480   33.1052 H   0  0  0  0  0  0  0  0  0  0  0  0
   95.4418    7.4673   35.4849 H   0  0  0  0  0  0  0  0  0  0  0  0
   96.3998    6.6620   34.3612 H   0  0  0  0  0  0  0  0  0  0  0  0
   96.3361    8.3428   34.3612 H   0  0  0  0  0  0  0  0  0  0  0  0
   94.8301    9.5269   32.8197 H   0  0  0  0  0  0  0  0  0  0  0  0
   93.7050    7.3796   31.0767 H   0  0  0  0  0  0  0  0  0  0  0  0
   93.7513   10.2640   30.9006 H   0  0  0  0  0  0  0  0  0  0  0  0
   92.2380    9.6148   32.6621 H   0  0  0  0  0  0  0  0  0  0  0  0
   89.5718    8.8399   32.3117 H   0  0  0  0  0  0  0  0  0  0  0  0
   88.3652    9.7384   30.4112 H   0  0  0  0  0  0  0  0  0  0  0  0
   88.8496    7.2937   30.7589 H   0  0  0  0  0  0  0  0  0  0  0  0
   90.9002    9.2686   28.8231 H   0  0  0  0  0  0  0  0  0  0  0  0
   88.0872    9.6817   28.1596 H   0  0  0  0  0  0  0  0  0  0  0  0
   89.1895   10.6001   27.2818 H   0  0  0  0  0  0  0  0  0  0  0  0
   89.3043    8.9220   27.2818 H   0  0  0  0  0  0  0  0  0  0  0  0
   89.3856   11.7911   29.5666 H   0  0  0  0  0  0  0  0  0  0  0  0
   91.6974   12.4687   28.6127 H   0  0  0  0  0  0  0  0  0  0  0  0
   92.1423   10.7577   30.3281 H   0  0  0  0  0  0  0  0  0  0  0  0
   92.3568   13.0850   30.3730 H   0  0  0  0  0  0  0  0  0  0  0  0
   90.6460   13.3388   30.8407 H   0  0  0  0  0  0  0  0  0  0  0  0
   91.0997   12.6777   32.9164 H   0  0  0  0  0  0  0  0  0  0  0  0
   96.5877    5.8075   32.4486 H   0  0  0  0  0  0  0  0  0  0  0  0
   99.2980    5.2105   31.9009 H   0  0  0  0  0  0  0  0  0  0  0  0
   89.0063    7.2455   39.2683 H   0  0  0  0  0  0  0  0  0  0  0  0
   89.9371    7.2637   37.8675 H   0  0  0  0  0  0  0  0  0  0  0  0
   88.4040    7.9554   37.8675 H   0  0  0  0  0  0  0  0  0  0  0  0
   89.2673    7.7959   36.5082 H   0  0  0  0  0  0  0  0  0  0  0  0
   87.4833    5.5844   35.8588 H   0  0  0  0  0  0  0  0  0  0  0  0
   89.1525    4.9338   36.0096 H   0  0  0  0  0  0  0  0  0  0  0  0
   88.9469    5.0508   38.2969 H   0  0  0  0  0  0  0  0  0  0  0  0
   87.3381    5.8121   38.1522 H   0  0  0  0  0  0  0  0  0  0  0  0
   87.4087    8.0593   35.3226 H   0  0  0  0  0  0  0  0  0  0  0  0
  1  2  1  0
  1  8  1  0
  1  9  1  0
  2  3  1  0
  2 32  1  0
  3  4  1  0
  3 33  1  0
  4  5  1  0
  4  7  1  0
  5  6  1  0
  5  9  1  0
  6 10  1  0
 16  8  1  0
 11 12  1  0
 11 13  1  0
 11 19  1  0
 12 35  1  0
 13 14  1  0
 14 15  1  0
 14 16  1  0
 16 17  1  0
 17 18  1  0
 17 19  1  0
 19 20  1  0
 21 20  1  0
 21 22  1  0
 21 29  1  0
 22 23  1  0
 22 24  1  0
 24 25  1  0
 24 26  1  0
 26 27  1  0
 26 28  1  0
 28 29  1  0
 28 30  1  0
 30 31  1  0
 34 39  1  0
 35 36  2  0
 35 37  1  0
 37 38  1  0
 37 40  1  0
 38 39  1  0
  1 41  1  6
  2 42  1  6
  3 43  1  1
  4 44  1  6
  5 45  1  1
  6 46  1  0
  6 47  1  0
  7 48  1  0
 10 49  1  0
 10 50  1  0
 10 51  1  0
 11 52  1  6
 12 53  1  0
 13 54  1  0
 13 55  1  0
 14 56  1  6
 15 57  1  0
 15 58  1  0
 15 59  1  0
 16 60  1  1
 17 61  1  6
 18 62  1  0
 19 63  1  1
 21 64  1  1
 22 65  1  1
 23 66  1  0
 24 67  1  6
 25 68  1  0
 25 69  1  0
 25 70  1  0
 26 71  1  1
 27 72  1  0
 28 73  1  6
 30 74  1  0
 30 75  1  0
 31 76  1  0
 32 77  1  0
 33 78  1  0
 34 79  1  0
 34 80  1  0
 34 81  1  0
 37 82  1  1
 38 83  1  0
 38 84  1  0
 39 85  1  0
 39 86  1  0
 40 87  1  0
M  CHG  4  10   1  15   1  25   1  34   1
M  END
>  <filename_input>  (15) 
6VTA_AKN_docked.sdf

>  <pdb_id>  (15) 
6VTA_AKN

>  <pose_rank>  (15) 
14

>  <num_atoms_heavy>  (15) 
40

>  <num_torsions>  (15) 
10

>  <pose>  (15) 
[92.15946422792024, 7.587134401909635, 33.37206466421921, -2.553282069823358, 0.24948139360733854, 0.2562349625951687, 0.6724760845135954, -5.192938922658028, -1.2121606390478528, -3.2623750004661027, -1.2167585653199864, 1.036201001605574, -0.9309048873980308, 0.023013370584510123, -0.4689171468257392, 1.809246595544463]

>  <energy>  (15) 
-550.5949902863816

>  <inter_energy>  (15) 
-588.1664139200153

>  <intra_energy>  (15) 
41.573101808036235

>  <rmsd>  (15) 
5.41947

>  <sdf_rank>  (15) 
0

$$$$

     RDKit          3D

 87 89  0  0  0  0  0  0  0  0999 V2000
   94.6833    7.5010   31.6226 C   0  0  1  0  0  0  0  0  0  0  0  0
   95.7098    8.5490   32.0250 C   0  0  1  0  0  0  0  0  0  0  0  0
   96.7040    8.7329   30.9316 C   0  0  2  0  0  0  0  0  0  0  0  0
   97.4210    7.4541   30.6287 C   0  0  1  0  0  0  0  0  0  0  0  0
   96.4155    6.3611   30.2674 C   0  0  1  0  0  0  0  0  0  0  0  0
   97.0922    5.0329   30.1357 C   0  0  0  0  0  0  0  0  0  0  0  0
   98.2813    7.6155   29.4953 O   0  0  0  0  0  0  0  0  0  0  0  0
   93.9979    8.0040   30.5304 O   0  0  0  0  0  0  0  0  0  0  0  0
   95.3857    6.2269   31.3015 O   0  0  0  0  0  0  0  0  0  0  0  0
   97.8926    4.7852   31.3217 N   0  0  0  0  0  0  0  0  0  0  0  0
   90.1567    7.9290   28.7302 C   0  0  2  0  0  0  0  0  0  0  0  0
   88.8416    7.4084   28.3360 N   0  0  0  0  0  0  0  0  0  0  0  0
   91.1909    6.8649   28.3576 C   0  0  0  0  0  0  0  0  0  0  0  0
   92.5966    7.3087   28.8013 C   0  0  2  0  0  0  0  0  0  0  0  0
   93.5867    6.2893   28.4419 N   0  0  0  0  0  0  0  0  0  0  0  0
   92.6369    7.6061   30.3030 C   0  0  2  0  0  0  0  0  0  0  0  0
   91.6045    8.6943   30.6362 C   0  0  2  0  0  0  0  0  0  0  0  0
   91.5474    8.9770   32.0147 O   0  0  0  0  0  0  0  0  0  0  0  0
   90.1802    8.2732   30.2257 C   0  0  1  0  0  0  0  0  0  0  0  0
   89.3203    9.3710   30.4904 O   0  0  0  0  0  0  0  0  0  0  0  0
   89.1777   10.2559   29.4425 C   0  0  2  0  0  0  0  0  0  0  0  0
   89.6737   11.6269   29.8617 C   0  0  2  0  0  0  0  0  0  0  0  0
   91.0283   11.5089   30.3401 O   0  0  0  0  0  0  0  0  0  0  0  0
   88.8016   12.2251   30.9223 C   0  0  1  0  0  0  0  0  0  0  0  0
   89.3296   13.5797   31.2955 N   0  0  0  0  0  0  0  0  0  0  0  0
   87.3818   12.3314   30.4250 C   0  0  2  0  0  0  0  0  0  0  0  0
   86.5323   12.8703   31.4468 O   0  0  0  0  0  0  0  0  0  0  0  0
   86.8685   10.9509   30.0312 C   0  0  2  0  0  0  0  0  0  0  0  0
   87.7352   10.3202   29.0173 O   0  0  0  0  0  0  0  0  0  0  0  0
   85.4768   11.0278   29.4676 C   0  0  0  0  0  0  0  0  0  0  0  0
   84.5666   10.5798   30.4422 O   0  0  0  0  0  0  0  0  0  0  0  0
   95.0138    9.7774   32.2721 O   0  0  0  0  0  0  0  0  0  0  0  0
   97.6496    9.7331   31.3660 O   0  0  0  0  0  0  0  0  0  0  0  0
   85.8779    5.0401   31.7350 N   0  0  0  0  0  0  0  0  0  0  0  0
   88.3508    6.1457   28.9053 C   0  0  0  0  0  0  0  0  0  0  0  0
   88.9968    5.5222   29.6822 O   0  0  0  0  0  0  0  0  0  0  0  0
   86.9802    5.6664   28.4562 C   0  0  2  0  0  0  0  0  0  0  0  0
   86.5374    4.5220   29.4070 C   0  0  0  0  0  0  0  0  0  0  0  0
   85.3771    5.0198   30.3243 C   0  0  0  0  0  0  0  0  0  0  0  0
   87.1146    5.1688   27.1787 O   0  0  0  0  0  0  0  0  0  0  0  0
   93.9709    7.2853   32.4325 H   0  0  0  0  0  0  0  0  0  0  0  0
   96.2490    8.2299   32.9292 H   0  0  0  0  0  0  0  0  0  0  0  0
   96.1888    9.0474   30.0120 H   0  0  0  0  0  0  0  0  0  0  0  0
   98.0013    7.1815   31.5225 H   0  0  0  0  0  0  0  0  0  0  0  0
   95.9593    6.6568   29.3111 H   0  0  0  0  0  0  0  0  0  0  0  0
   96.3342    4.2425   30.0318 H   0  0  0  0  0  0  0  0  0  0  0  0
   97.7397    5.0345   29.2465 H   0  0  0  0  0  0  0  0  0  0  0  0
   99.2056    7.7889   29.8046 H   0  0  0  0  0  0  0  0  0  0  0  0
   97.3242    4.9611   32.1624 H   0  0  0  0  0  0  0  0  0  0  0  0
   98.2121    3.8060   31.3219 H   0  0  0  0  0  0  0  0  0  0  0  0
   98.7093    5.4128   31.3219 H   0  0  0  0  0  0  0  0  0  0  0  0
   90.3888    8.8672   28.2048 H   0  0  0  0  0  0  0  0  0  0  0  0
   88.2632    7.9282   27.6607 H   0  0  0  0  0  0  0  0  0  0  0  0
   90.9344    5.9189   28.8569 H   0  0  0  0  0  0  0  0  0  0  0  0
   91.1864    6.7278   27.2662 H   0  0  0  0  0  0  0  0  0  0  0  0
   92.8461    8.2408   28.2733 H   0  0  0  0  0  0  0  0  0  0  0  0
   93.9846    5.8798   29.2991 H   0  0  0  0  0  0  0  0  0  0  0  0
   93.1325    5.5500   27.8870 H   0  0  0  0  0  0  0  0  0  0  0  0
   94.3389    6.7220   27.8870 H   0  0  0  0  0  0  0  0  0  0  0  0
   92.3696    6.7587   30.9514 H   0  0  0  0  0  0  0  0  0  0  0  0
   91.9368    9.5797   30.0744 H   0  0  0  0  0  0  0  0  0  0  0  0
   91.7150    8.1477   32.5288 H   0  0  0  0  0  0  0  0  0  0  0  0
   89.8533    7.3861   30.7881 H   0  0  0  0  0  0  0  0  0  0  0  0
   89.7767    9.9101   28.5871 H   0  0  0  0  0  0  0  0  0  0  0  0
   89.6389   12.2963   28.9896 H   0  0  0  0  0  0  0  0  0  0  0  0
   91.0298   11.5088   31.3301 H   0  0  0  0  0  0  0  0  0  0  0  0
   88.8099   11.5785   31.8121 H   0  0  0  0  0  0  0  0  0  0  0  0
   89.3627   13.6646   32.3215 H   0  0  0  0  0  0  0  0  0  0  0  0
   90.2778   13.6967   30.9106 H   0  0  0  0  0  0  0  0  0  0  0  0
   88.7106   14.3075   30.9106 H   0  0  0  0  0  0  0  0  0  0  0  0
   87.3680   13.0000   29.5516 H   0  0  0  0  0  0  0  0  0  0  0  0
   86.8984   12.6381   32.3368 H   0  0  0  0  0  0  0  0  0  0  0  0
   86.8703   10.3459   30.9499 H   0  0  0  0  0  0  0  0  0  0  0  0
   85.2451   12.0683   29.1961 H   0  0  0  0  0  0  0  0  0  0  0  0
   85.4023   10.3973   28.5693 H   0  0  0  0  0  0  0  0  0  0  0  0
   84.9333   10.7603   31.3439 H   0  0  0  0  0  0  0  0  0  0  0  0
   94.9328    9.9203   33.2484 H   0  0  0  0  0  0  0  0  0  0  0  0
   97.6729    9.7577   32.3554 H   0  0  0  0  0  0  0  0  0  0  0  0
   85.0785    5.0077   32.3837 H   0  0  0  0  0  0  0  0  0  0  0  0
   86.4840    4.2230   31.8960 H   0  0  0  0  0  0  0  0  0  0  0  0
   86.4159    5.9036   31.8960 H   0  0  0  0  0  0  0  0  0  0  0  0
   86.2391    6.4790   28.4763 H   0  0  0  0  0  0  0  0  0  0  0  0
   86.1904    3.6650   28.8110 H   0  0  0  0  0  0  0  0  0  0  0  0
   87.3900    4.2166   30.0313 H   0  0  0  0  0  0  0  0  0  0  0  0
   84.5181    4.3375   30.2430 H   0  0  0  0  0  0  0  0  0  0  0  0
   85.0541    6.0261   30.0193 H   0  0  0  0  0  0  0  0  0  0  0  0
   87.3726    4.2140   27.2219 H   0  0  0  0  0  0  0  0  0  0  0  0
  1  2  1  0
  1  8  1  0
  1  9  1  0
  2  3  1  0
  2 32  1  0
  3  4  1  0
  3 33  1  0
  4  5  1  0
  4  7  1  0
  5  6  1  0
  5  9  1  0
  6 10  1  0
 16  8  1  0
 11 12  1  0
 11 13  1  0
 11 19  1  0
 12 35  1  0
 13 14  1  0
 14 15  1  0
 14 16  1  0
 16 17  1  0
 17 18  1  0
 17 19  1  0
 19 20  1  0
 21 20  1  0
 21 22  1  0
 21 29  1  0
 22 23  1  0
 22 24  1  0
 24 25  1  0
 24 26  1  0
 26 27  1  0
 26 28  1  0
 28 29  1  0
 28 30  1  0
 30 31  1  0
 34 39  1  0
 35 36  2  0
 35 37  1  0
 37 38  1  0
 37 40  1  0
 38 39  1  0
  1 41  1  1
  2 42  1  1
  3 43  1  6
  4 44  1  1
  5 45  1  6
  6 46  1  0
  6 47  1  0
  7 48  1  0
 10 49  1  0
 10 50  1  0
 10 51  1  0
 11 52  1  6
 12 53  1  0
 13 54  1  0
 13 55  1  0
 14 56  1  6
 15 57  1  0
 15 58  1  0
 15 59  1  0
 16 60  1  1
 17 61  1  6
 18 62  1  0
 19 63  1  1
 21 64  1  6
 22 65  1  6
 23 66  1  0
 24 67  1  1
 25 68  1  0
 25 69  1  0
 25 70  1  0
 26 71  1  6
 27 72  1  0
 28 73  1  1
 30 74  1  0
 30 75  1  0
 31 76  1  0
 32 77  1  0
 33 78  1  0
 34 79  1  0
 34 80  1  0
 34 81  1  0
 37 82  1  6
 38 83  1  0
 38 84  1  0
 39 85  1  0
 39 86  1  0
 40 87  1  0
M  CHG  4  10   1  15   1  25   1  34   1
M  END
>  <filename_input>  (16) 
6VTA_AKN_docked.sdf

>  <pdb_id>  (16) 
6VTA_AKN

>  <pose_rank>  (16) 
15

>  <num_atoms_heavy>  (16) 
40

>  <num_torsions>  (16) 
10

>  <pose>  (16) 
[90.15668564947313, 7.929003964171733, 28.73018487152582, 5.423008191405761, 2.135253093133149, -0.2612034605522875, -3.1403056612954856, -4.875899514341771, -1.4482282581485482, 1.102669114942912, 0.7216626904081355, 0.6690121045963893, -2.1411714435653124, -2.143880804541148, 0.8382345969184155, -2.7628640390533477]

>  <energy>  (16) 
-415.09945919723754

>  <inter_energy>  (16) 
-480.67721705896406

>  <intra_energy>  (16) 
67.83165675830475

>  <rmsd>  (16) 
3.88023

>  <sdf_rank>  (16) 
0

$$$$

     RDKit          3D

 87 89  0  0  0  0  0  0  0  0999 V2000
   90.9201   11.1519   28.7830 C   0  0  1  0  0  0  0  0  0  0  0  0
   91.4339   12.4664   29.3504 C   0  0  1  0  0  0  0  0  0  0  0  0
   90.7527   12.7638   30.6408 C   0  0  2  0  0  0  0  0  0  0  0  0
   89.2702   12.8687   30.4608 C   0  0  1  0  0  0  0  0  0  0  0  0
   88.7236   11.5810   29.8448 C   0  0  1  0  0  0  0  0  0  0  0  0
   87.2771   11.7285   29.4908 C   0  0  0  0  0  0  0  0  0  0  0  0
   88.6195   13.0302   31.7263 O   0  0  0  0  0  0  0  0  0  0  0  0
   91.2838   10.1566   29.6734 O   0  0  0  0  0  0  0  0  0  0  0  0
   89.4421   11.2366   28.6148 O   0  0  0  0  0  0  0  0  0  0  0  0
   87.1664   12.3564   28.1862 N   0  0  0  0  0  0  0  0  0  0  0  0
   92.8040    6.1963   29.7504 C   0  0  2  0  0  0  0  0  0  0  0  0
   93.1781    4.8658   29.2549 N   0  0  0  0  0  0  0  0  0  0  0  0
   91.3581    6.4465   29.3174 C   0  0  0  0  0  0  0  0  0  0  0  0
   90.9099    7.8562   29.7435 C   0  0  2  0  0  0  0  0  0  0  0  0
   89.5238    8.0938   29.3301 N   0  0  0  0  0  0  0  0  0  0  0  0
   91.8424    8.9304   29.1767 C   0  0  2  0  0  0  0  0  0  0  0  0
   93.2791    8.6619   29.6510 C   0  0  2  0  0  0  0  0  0  0  0  0
   94.2021    9.5824   29.1178 O   0  0  0  0  0  0  0  0  0  0  0  0
   93.7693    7.2657   29.2211 C   0  0  1  0  0  0  0  0  0  0  0  0
   95.0615    7.0796   29.7782 O   0  0  0  0  0  0  0  0  0  0  0  0
   96.0809    7.0005   28.8529 C   0  0  2  0  0  0  0  0  0  0  0  0
   97.0950    5.9640   29.2991 C   0  0  2  0  0  0  0  0  0  0  0  0
   96.4174    4.7117   29.5231 O   0  0  0  0  0  0  0  0  0  0  0  0
   97.8088    6.3950   30.5433 C   0  0  1  0  0  0  0  0  0  0  0  0
   98.8028    5.3415   30.9373 N   0  0  0  0  0  0  0  0  0  0  0  0
   98.5025    7.7138   30.3110 C   0  0  2  0  0  0  0  0  0  0  0  0
   99.1591    8.1519   31.5081 O   0  0  0  0  0  0  0  0  0  0  0  0
   97.4822    8.7665   29.8920 C   0  0  2  0  0  0  0  0  0  0  0  0
   96.7338    8.3471   28.6917 O   0  0  0  0  0  0  0  0  0  0  0  0
   98.1484   10.0793   29.5872 C   0  0  0  0  0  0  0  0  0  0  0  0
   99.0695    9.8892   28.5410 O   0  0  0  0  0  0  0  0  0  0  0  0
   92.8467   12.3371   29.5555 O   0  0  0  0  0  0  0  0  0  0  0  0
   91.2759   14.0165   31.1313 O   0  0  0  0  0  0  0  0  0  0  0  0
   90.4370   -0.0980   27.4147 N   0  0  0  0  0  0  0  0  0  0  0  0
   92.2749    3.7249   29.4601 C   0  0  0  0  0  0  0  0  0  0  0  0
   91.2387    3.8473   30.0266 O   0  0  0  0  0  0  0  0  0  0  0  0
   92.7227    2.3770   28.9192 C   0  0  2  0  0  0  0  0  0  0  0  0
   91.7473    1.9686   27.7828 C   0  0  0  0  0  0  0  0  0  0  0  0
   91.8324    0.4285   27.5448 C   0  0  0  0  0  0  0  0  0  0  0  0
   92.6274    1.4665   29.9484 O   0  0  0  0  0  0  0  0  0  0  0  0
   91.3485   10.9309   27.7942 H   0  0  0  0  0  0  0  0  0  0  0  0
   91.2256   13.2919   28.6539 H   0  0  0  0  0  0  0  0  0  0  0  0
   90.9408   11.9488   31.3552 H   0  0  0  0  0  0  0  0  0  0  0  0
   89.0772   13.7344   29.8103 H   0  0  0  0  0  0  0  0  0  0  0  0
   88.8565   10.7906   30.5982 H   0  0  0  0  0  0  0  0  0  0  0  0
   86.8021   10.7367   29.4633 H   0  0  0  0  0  0  0  0  0  0  0  0
   86.7738   12.3516   30.2447 H   0  0  0  0  0  0  0  0  0  0  0  0
   89.2701   12.8687   32.4549 H   0  0  0  0  0  0  0  0  0  0  0  0
   86.9888   13.3641   28.3041 H   0  0  0  0  0  0  0  0  0  0  0  0
   88.0442   12.2212   27.6645 H   0  0  0  0  0  0  0  0  0  0  0  0
   86.3877   11.9292   27.6645 H   0  0  0  0  0  0  0  0  0  0  0  0
   92.8737    6.2485   30.8469 H   0  0  0  0  0  0  0  0  0  0  0  0
   94.0734    4.7320   28.7636 H   0  0  0  0  0  0  0  0  0  0  0  0
   91.2863    6.3579   28.2233 H   0  0  0  0  0  0  0  0  0  0  0  0
   90.7063    5.7026   29.7989 H   0  0  0  0  0  0  0  0  0  0  0  0
   90.9636    7.9177   30.8405 H   0  0  0  0  0  0  0  0  0  0  0  0
   88.9292    8.1957   30.1649 H   0  0  0  0  0  0  0  0  0  0  0  0
   89.4762    8.9552   28.7674 H   0  0  0  0  0  0  0  0  0  0  0  0
   89.1920    7.2974   28.7674 H   0  0  0  0  0  0  0  0  0  0  0  0
   91.9099    8.9545   28.0790 H   0  0  0  0  0  0  0  0  0  0  0  0
   93.2355    8.7501   30.7466 H   0  0  0  0  0  0  0  0  0  0  0  0
   94.6686   10.0476   29.8568 H   0  0  0  0  0  0  0  0  0  0  0  0
   93.8088    7.1814   28.1250 H   0  0  0  0  0  0  0  0  0  0  0  0
   95.6692    6.6954   27.8796 H   0  0  0  0  0  0  0  0  0  0  0  0
   97.8511    5.8475   28.5086 H   0  0  0  0  0  0  0  0  0  0  0  0
   96.3313    4.5526   30.4964 H   0  0  0  0  0  0  0  0  0  0  0  0
   97.0808    6.5247   31.3577 H   0  0  0  0  0  0  0  0  0  0  0  0
   98.8552    5.2860   31.9645 H   0  0  0  0  0  0  0  0  0  0  0  0
   98.5060    4.4307   30.5589 H   0  0  0  0  0  0  0  0  0  0  0  0
   99.7293    5.5850   30.5589 H   0  0  0  0  0  0  0  0  0  0  0  0
   99.2502    7.5785   29.5157 H   0  0  0  0  0  0  0  0  0  0  0  0
   98.6621    7.8203   32.2974 H   0  0  0  0  0  0  0  0  0  0  0  0
   96.7907    8.8824   30.7395 H   0  0  0  0  0  0  0  0  0  0  0  0
   97.3907   10.8164   29.2831 H   0  0  0  0  0  0  0  0  0  0  0  0
   98.6707   10.4495   30.4818 H   0  0  0  0  0  0  0  0  0  0  0  0
   99.9654    9.7043   28.9196 H   0  0  0  0  0  0  0  0  0  0  0  0
   93.0389   12.3195   30.5265 H   0  0  0  0  0  0  0  0  0  0  0  0
   91.2733   14.0101   32.1213 H   0  0  0  0  0  0  0  0  0  0  0  0
   90.0381   -0.2486   28.3523 H   0  0  0  0  0  0  0  0  0  0  0  0
   89.8596    0.5830   26.9012 H   0  0  0  0  0  0  0  0  0  0  0  0
   90.4534   -0.9907   26.9012 H   0  0  0  0  0  0  0  0  0  0  0  0
   93.7524    2.4157   28.5342 H   0  0  0  0  0  0  0  0  0  0  0  0
   90.7198    2.2382   28.0683 H   0  0  0  0  0  0  0  0  0  0  0  0
   92.0240    2.4960   26.8580 H   0  0  0  0  0  0  0  0  0  0  0  0
   92.3353   -0.0534   28.3963 H   0  0  0  0  0  0  0  0  0  0  0  0
   92.4080    0.2144   26.6322 H   0  0  0  0  0  0  0  0  0  0  0  0
   92.6772    1.9419   30.8153 H   0  0  0  0  0  0  0  0  0  0  0  0
  1  2  1  0
  1  8  1  0
  1  9  1  0
  2  3  1  0
  2 32  1  0
  3  4  1  0
  3 33  1  0
  4  5  1  0
  4  7  1  0
  5  6  1  0
  5  9  1  0
  6 10  1  0
 16  8  1  0
 11 12  1  0
 11 13  1  0
 11 19  1  0
 12 35  1  0
 13 14  1  0
 14 15  1  0
 14 16  1  0
 16 17  1  0
 17 18  1  0
 17 19  1  0
 19 20  1  0
 21 20  1  0
 21 22  1  0
 21 29  1  0
 22 23  1  0
 22 24  1  0
 24 25  1  0
 24 26  1  0
 26 27  1  0
 26 28  1  0
 28 29  1  0
 28 30  1  0
 30 31  1  0
 34 39  1  0
 35 36  2  0
 35 37  1  0
 37 38  1  0
 37 40  1  0
 38 39  1  0
  1 41  1  6
  2 42  1  6
  3 43  1  1
  4 44  1  6
  5 45  1  1
  6 46  1  0
  6 47  1  0
  7 48  1  0
 10 49  1  0
 10 50  1  0
 10 51  1  0
 11 52  1  1
 12 53  1  0
 13 54  1  0
 13 55  1  0
 14 56  1  1
 15 57  1  0
 15 58  1  0
 15 59  1  0
 16 60  1  6
 17 61  1  1
 18 62  1  0
 19 63  1  6
 21 64  1  6
 22 65  1  6
 23 66  1  0
 24 67  1  1
 25 68  1  0
 25 69  1  0
 25 70  1  0
 26 71  1  6
 27 72  1  0
 28 73  1  1
 30 74  1  0
 30 75  1  0
 31 76  1  0
 32 77  1  0
 33 78  1  0
 34 79  1  0
 34 80  1  0
 34 81  1  0
 37 82  1  6
 38 83  1  0
 38 84  1  0
 39 85  1  0
 39 86  1  0
 40 87  1  0
M  CHG  4  10   1  15   1  25   1  34   1
M  END
>  <filename_input>  (17) 
6VTA_AKN_docked.sdf

>  <pdb_id>  (17) 
6VTA_AKN

>  <pose_rank>  (17) 
16

>  <num_atoms_heavy>  (17) 
40

>  <num_torsions>  (17) 
10

>  <pose>  (17) 
[92.80400635961574, 6.196309119187355, 29.750371962432364, 1.142341788655716, 1.7856902481573995, 1.6010139774238146, 7.5670553056299035, -3.950986208034936, 0.13947699770902452, -0.8234391155995868, 0.9266799862689288, 7.227642673426826, -1.570811425133608, 0.5850708358416903, 6.718601364473061, 0.09211762601981102]

>  <energy>  (17) 
-594.6659045744727

>  <inter_energy>  (17) 
-645.9015171653747

>  <intra_energy>  (17) 
48.58655930264455

>  <rmsd>  (17) 
8.46124

>  <sdf_rank>  (17) 
0

$$$$

     RDKit          3D

 87 89  0  0  0  0  0  0  0  0999 V2000
   95.7188    6.1928   29.5117 C   0  0  1  0  0  0  0  0  0  0  0  0
   97.0113    5.5872   30.0375 C   0  0  1  0  0  0  0  0  0  0  0  0
   97.8674    6.6519   30.6300 C   0  0  2  0  0  0  0  0  0  0  0  0
   98.2089    7.7004   29.6175 C   0  0  1  0  0  0  0  0  0  0  0  0
   96.9311    8.2985   29.0293 C   0  0  1  0  0  0  0  0  0  0  0  0
   97.2445    9.2176   27.8907 C   0  0  0  0  0  0  0  0  0  0  0  0
   98.9256    8.7780   30.2306 O   0  0  0  0  0  0  0  0  0  0  0  0
   95.0368    6.7022   30.6030 O   0  0  0  0  0  0  0  0  0  0  0  0
   96.0449    7.2508   28.5146 O   0  0  0  0  0  0  0  0  0  0  0  0
   98.5211    9.8644   28.1367 N   0  0  0  0  0  0  0  0  0  0  0  0
   91.0405    6.1610   29.2849 C   0  0  2  0  0  0  0  0  0  0  0  0
   89.6216    5.7875   29.3399 N   0  0  0  0  0  0  0  0  0  0  0  0
   91.8407    4.9612   29.7957 C   0  0  0  0  0  0  0  0  0  0  0  0
   93.3424    5.2981   29.8322 C   0  0  2  0  0  0  0  0  0  0  0  0
   94.1081    4.1472   30.3197 N   0  0  0  0  0  0  0  0  0  0  0  0
   93.6127    6.5384   30.6887 C   0  0  2  0  0  0  0  0  0  0  0  0
   92.8132    7.7272   30.1330 C   0  0  2  0  0  0  0  0  0  0  0  0
   92.9706    8.8911   30.9102 O   0  0  0  0  0  0  0  0  0  0  0  0
   91.3010    7.4327   30.1037 C   0  0  1  0  0  0  0  0  0  0  0  0
   90.6636    8.5465   29.4969 O   0  0  0  0  0  0  0  0  0  0  0  0
   89.4409    8.8770   30.0422 C   0  0  2  0  0  0  0  0  0  0  0  0
   88.8436   10.0468   29.2830 C   0  0  2  0  0  0  0  0  0  0  0  0
   88.7822    9.7138   27.8820 O   0  0  0  0  0  0  0  0  0  0  0  0
   89.6447   11.2966   29.4822 C   0  0  1  0  0  0  0  0  0  0  0  0
   89.0096   12.4221   28.7187 N   0  0  0  0  0  0  0  0  0  0  0  0
   89.7216   11.6329   30.9504 C   0  0  2  0  0  0  0  0  0  0  0  0
   90.5169   12.8086   31.1538 O   0  0  0  0  0  0  0  0  0  0  0  0
   90.3497   10.4719   31.7133 C   0  0  2  0  0  0  0  0  0  0  0  0
   89.6036    9.2171   31.4994 O   0  0  0  0  0  0  0  0  0  0  0  0
   90.3817   10.7455   33.1913 C   0  0  0  0  0  0  0  0  0  0  0  0
   90.2311    9.5291   33.8818 O   0  0  0  0  0  0  0  0  0  0  0  0
   96.6704    4.6151   31.0343 O   0  0  0  0  0  0  0  0  0  0  0  0
   99.0749    6.0236   31.1102 O   0  0  0  0  0  0  0  0  0  0  0  0
   86.2089    3.0260   27.0168 N   0  0  0  0  0  0  0  0  0  0  0  0
   88.8669    5.5839   28.0956 C   0  0  0  0  0  0  0  0  0  0  0  0
   89.3759    5.7187   27.0315 O   0  0  0  0  0  0  0  0  0  0  0  0
   87.4032    5.1957   28.2254 C   0  0  2  0  0  0  0  0  0  0  0  0
   86.7186    5.4419   26.8540 C   0  0  0  0  0  0  0  0  0  0  0  0
   85.6367    4.3458   26.6020 C   0  0  0  0  0  0  0  0  0  0  0  0
   86.8382    6.0238   29.1701 O   0  0  0  0  0  0  0  0  0  0  0  0
   95.0886    5.4486   29.0028 H   0  0  0  0  0  0  0  0  0  0  0  0
   97.5721    5.1113   29.2196 H   0  0  0  0  0  0  0  0  0  0  0  0
   97.3265    7.1488   31.4489 H   0  0  0  0  0  0  0  0  0  0  0  0
   98.8191    7.2204   28.8383 H   0  0  0  0  0  0  0  0  0  0  0  0
   96.4376    8.8493   29.8436 H   0  0  0  0  0  0  0  0  0  0  0  0
   97.2987    8.6403   26.9560 H   0  0  0  0  0  0  0  0  0  0  0  0
   96.4555    9.9790   27.8024 H   0  0  0  0  0  0  0  0  0  0  0  0
   98.8694    8.6936   31.2154 H   0  0  0  0  0  0  0  0  0  0  0  0
   98.6762    9.9430   29.1520 H   0  0  0  0  0  0  0  0  0  0  0  0
   99.2764    9.3043   27.7164 H   0  0  0  0  0  0  0  0  0  0  0  0
   98.5163   10.8047   27.7164 H   0  0  0  0  0  0  0  0  0  0  0  0
   91.3513    6.3995   28.2570 H   0  0  0  0  0  0  0  0  0  0  0  0
   89.1554    5.6681   30.2505 H   0  0  0  0  0  0  0  0  0  0  0  0
   91.5016    4.7040   30.8100 H   0  0  0  0  0  0  0  0  0  0  0  0
   91.6811    4.1096   29.1181 H   0  0  0  0  0  0  0  0  0  0  0  0
   93.6689    5.5272   28.8070 H   0  0  0  0  0  0  0  0  0  0  0  0
   94.1086    4.1465   31.3497 H   0  0  0  0  0  0  0  0  0  0  0  0
   93.6768    3.2773   29.9759 H   0  0  0  0  0  0  0  0  0  0  0  0
   95.0771    4.2090   29.9759 H   0  0  0  0  0  0  0  0  0  0  0  0
   93.2968    6.4551   31.7390 H   0  0  0  0  0  0  0  0  0  0  0  0
   93.2093    7.8841   29.1189 H   0  0  0  0  0  0  0  0  0  0  0  0
   92.9384    8.6534   31.8707 H   0  0  0  0  0  0  0  0  0  0  0  0
   90.9099    7.2740   31.1195 H   0  0  0  0  0  0  0  0  0  0  0  0
   88.7590    8.0178   29.9602 H   0  0  0  0  0  0  0  0  0  0  0  0
   87.8318   10.2384   29.6697 H   0  0  0  0  0  0  0  0  0  0  0  0
   88.6034    8.7453   27.7805 H   0  0  0  0  0  0  0  0  0  0  0  0
   90.6673   11.1405   29.1081 H   0  0  0  0  0  0  0  0  0  0  0  0
   88.6216   13.1097   29.3801 H   0  0  0  0  0  0  0  0  0  0  0  0
   89.7182   12.8777   28.1260 H   0  0  0  0  0  0  0  0  0  0  0  0
   88.2533   12.0511   28.1260 H   0  0  0  0  0  0  0  0  0  0  0  0
   88.7017   11.8164   31.3193 H   0  0  0  0  0  0  0  0  0  0  0  0
   90.6257   12.9695   32.1245 H   0  0  0  0  0  0  0  0  0  0  0  0
   91.3742   10.3655   31.3273 H   0  0  0  0  0  0  0  0  0  0  0  0
   91.3431   11.2069   33.4609 H   0  0  0  0  0  0  0  0  0  0  0  0
   89.5657   11.4318   33.4617 H   0  0  0  0  0  0  0  0  0  0  0  0
   90.2521    9.6985   34.8570 H   0  0  0  0  0  0  0  0  0  0  0  0
   96.8067    5.0038   31.9345 H   0  0  0  0  0  0  0  0  0  0  0  0
   99.0755    6.0232   32.1002 H   0  0  0  0  0  0  0  0  0  0  0  0
   86.2331    2.9702   28.0450 H   0  0  0  0  0  0  0  0  0  0  0  0
   85.6220    2.2654   26.6454 H   0  0  0  0  0  0  0  0  0  0  0  0
   87.1652    2.9344   26.6454 H   0  0  0  0  0  0  0  0  0  0  0  0
   87.2870    4.1420   28.5190 H   0  0  0  0  0  0  0  0  0  0  0  0
   86.2415    6.4331   26.8563 H   0  0  0  0  0  0  0  0  0  0  0  0
   87.4747    5.3978   26.0563 H   0  0  0  0  0  0  0  0  0  0  0  0
   85.3737    4.3195   25.5342 H   0  0  0  0  0  0  0  0  0  0  0  0
   84.7275    4.5666   27.1805 H   0  0  0  0  0  0  0  0  0  0  0  0
   87.0636    5.6934   30.0757 H   0  0  0  0  0  0  0  0  0  0  0  0
  1  2  1  0
  1  8  1  0
  1  9  1  0
  2  3  1  0
  2 32  1  0
  3  4  1  0
  3 33  1  0
  4  5  1  0
  4  7  1  0
  5  6  1  0
  5  9  1  0
  6 10  1  0
 16  8  1  0
 11 12  1  0
 11 13  1  0
 11 19  1  0
 12 35  1  0
 13 14  1  0
 14 15  1  0
 14 16  1  0
 16 17  1  0
 17 18  1  0
 17 19  1  0
 19 20  1  0
 21 20  1  0
 21 22  1  0
 21 29  1  0
 22 23  1  0
 22 24  1  0
 24 25  1  0
 24 26  1  0
 26 27  1  0
 26 28  1  0
 28 29  1  0
 28 30  1  0
 30 31  1  0
 34 39  1  0
 35 36  2  0
 35 37  1  0
 37 38  1  0
 37 40  1  0
 38 39  1  0
  1 41  1  6
  2 42  1  6
  3 43  1  1
  4 44  1  6
  5 45  1  1
  6 46  1  0
  6 47  1  0
  7 48  1  0
 10 49  1  0
 10 50  1  0
 10 51  1  0
 11 52  1  6
 12 53  1  0
 13 54  1  0
 13 55  1  0
 14 56  1  6
 15 57  1  0
 15 58  1  0
 15 59  1  0
 16 60  1  1
 17 61  1  6
 18 62  1  0
 19 63  1  1
 21 64  1  1
 22 65  1  1
 23 66  1  0
 24 67  1  6
 25 68  1  0
 25 69  1  0
 25 70  1  0
 26 71  1  1
 27 72  1  0
 28 73  1  6
 30 74  1  0
 30 75  1  0
 31 76  1  0
 32 77  1  0
 33 78  1  0
 34 79  1  0
 34 80  1  0
 34 81  1  0
 37 82  1  1
 38 83  1  0
 38 84  1  0
 39 85  1  0
 39 86  1  0
 40 87  1  0
M  CHG  4  10   1  15   1  25   1  34   1
M  END
>  <filename_input>  (18) 
6VTA_AKN_docked.sdf

>  <pdb_id>  (18) 
6VTA_AKN

>  <pose_rank>  (18) 
17

>  <num_atoms_heavy>  (18) 
40

>  <num_torsions>  (18) 
10

>  <pose>  (18) 
[91.04047308519075, 6.160995337978374, 29.284880879728586, 5.043705342823106, 0.2230517812599947, 0.43042654900481286, -6.109603896822128, 0.8978098484136829, -7.112168866338743, -3.9329170935058526, -15.334648742410485, -11.694956390984665, 2.6793293227751596, 6.359186062917357, -0.19786136169781596, 1.6209591575506659]

>  <energy>  (18) 
-506.2873430124731

>  <inter_energy>  (18) 
-614.2931250385998

>  <intra_energy>  (18) 
106.36362382939737

>  <rmsd>  (18) 
3.96029

>  <sdf_rank>  (18) 
0

$$$$

     RDKit          3D

 87 89  0  0  0  0  0  0  0  0999 V2000
   96.6824    8.1277   29.9995 C   0  0  1  0  0  0  0  0  0  0  0  0
   96.8759    8.2029   28.4926 C   0  0  1  0  0  0  0  0  0  0  0  0
   97.2646    6.8665   27.9627 C   0  0  2  0  0  0  0  0  0  0  0  0
   98.5388    6.3854   28.5841 C   0  0  1  0  0  0  0  0  0  0  0  0
   98.3982    6.3441   30.1056 C   0  0  1  0  0  0  0  0  0  0  0  0
   99.7106    6.0393   30.7568 C   0  0  0  0  0  0  0  0  0  0  0  0
   98.8331    5.0497   28.1597 O   0  0  0  0  0  0  0  0  0  0  0  0
   95.6174    7.2741   30.2290 O   0  0  0  0  0  0  0  0  0  0  0  0
   97.9388    7.6334   30.6295 O   0  0  0  0  0  0  0  0  0  0  0  0
   99.6463    4.7236   31.3679 N   0  0  0  0  0  0  0  0  0  0  0  0
   92.1931    6.9790   32.7166 C   0  0  2  0  0  0  0  0  0  0  0  0
   91.3915    6.9951   33.9466 N   0  0  0  0  0  0  0  0  0  0  0  0
   93.4037    6.0818   32.9814 C   0  0  0  0  0  0  0  0  0  0  0  0
   94.3340    6.0654   31.7550 C   0  0  2  0  0  0  0  0  0  0  0  0
   95.4923    5.2038   32.0092 N   0  0  0  0  0  0  0  0  0  0  0  0
   94.7772    7.4811   31.3751 C   0  0  2  0  0  0  0  0  0  0  0  0
   93.5387    8.3458   31.0929 C   0  0  2  0  0  0  0  0  0  0  0  0
   93.8722    9.6807   30.7925 O   0  0  0  0  0  0  0  0  0  0  0  0
   92.5949    8.4033   32.3097 C   0  0  1  0  0  0  0  0  0  0  0  0
   91.4484    9.1452   31.9227 O   0  0  0  0  0  0  0  0  0  0  0  0
   91.4346   10.4528   32.3604 C   0  0  2  0  0  0  0  0  0  0  0  0
   90.0742   10.7798   32.9468 C   0  0  2  0  0  0  0  0  0  0  0  0
   89.7655    9.8205   33.9774 O   0  0  0  0  0  0  0  0  0  0  0  0
   89.0071   10.7703   31.8959 C   0  0  1  0  0  0  0  0  0  0  0  0
   87.6860   11.1058   32.5246 N   0  0  0  0  0  0  0  0  0  0  0  0
   89.3415   11.7625   30.8105 C   0  0  2  0  0  0  0  0  0  0  0  0
   88.3431   11.7348   29.7817 O   0  0  0  0  0  0  0  0  0  0  0  0
   90.6945   11.4195   30.1971 C   0  0  2  0  0  0  0  0  0  0  0  0
   91.7577   11.3798   31.2193 O   0  0  0  0  0  0  0  0  0  0  0  0
   91.0913   12.4281   29.1551 C   0  0  0  0  0  0  0  0  0  0  0  0
   91.6307   11.7488   28.0476 O   0  0  0  0  0  0  0  0  0  0  0  0
   95.6369    8.6251   27.9084 O   0  0  0  0  0  0  0  0  0  0  0  0
   97.4347    6.9962   26.5353 O   0  0  0  0  0  0  0  0  0  0  0  0
   93.3402    6.6500   39.4243 N   0  0  0  0  0  0  0  0  0  0  0  0
   92.0392    7.2422   35.2423 C   0  0  0  0  0  0  0  0  0  0  0  0
   93.2089    7.4275   35.3264 O   0  0  0  0  0  0  0  0  0  0  0  0
   91.1498    7.2483   36.4747 C   0  0  2  0  0  0  0  0  0  0  0  0
   91.9934    7.7629   37.6719 C   0  0  0  0  0  0  0  0  0  0  0  0
   91.9705    6.7090   38.8229 C   0  0  0  0  0  0  0  0  0  0  0  0
   90.7675    5.9468   36.7147 O   0  0  0  0  0  0  0  0  0  0  0  0
   96.4625    9.1116   30.4393 H   0  0  0  0  0  0  0  0  0  0  0  0
   97.6752    8.9165   28.2440 H   0  0  0  0  0  0  0  0  0  0  0  0
   96.4827    6.1312   28.2035 H   0  0  0  0  0  0  0  0  0  0  0  0
   99.3373    7.0766   28.2767 H   0  0  0  0  0  0  0  0  0  0  0  0
   97.6642    5.5569   30.3326 H   0  0  0  0  0  0  0  0  0  0  0  0
  100.5091    6.0550   30.0004 H   0  0  0  0  0  0  0  0  0  0  0  0
   99.9251    6.7945   31.5273 H   0  0  0  0  0  0  0  0  0  0  0  0
   98.9604    4.4718   28.9534 H   0  0  0  0  0  0  0  0  0  0  0  0
   99.6510    4.8207   32.3933 H   0  0  0  0  0  0  0  0  0  0  0  0
   98.7811    4.2495   31.0719 H   0  0  0  0  0  0  0  0  0  0  0  0
  100.4611    4.1673   31.0719 H   0  0  0  0  0  0  0  0  0  0  0  0
   91.6169    6.5785   31.8694 H   0  0  0  0  0  0  0  0  0  0  0  0
   90.3753    6.8333   33.9013 H   0  0  0  0  0  0  0  0  0  0  0  0
   93.9567    6.4658   33.8514 H   0  0  0  0  0  0  0  0  0  0  0  0
   93.0541    5.0578   33.1795 H   0  0  0  0  0  0  0  0  0  0  0  0
   93.7727    5.6552   30.9025 H   0  0  0  0  0  0  0  0  0  0  0  0
   95.6285    5.1025   33.0251 H   0  0  0  0  0  0  0  0  0  0  0  0
   95.3293    4.2769   31.5905 H   0  0  0  0  0  0  0  0  0  0  0  0
   96.3331    5.6265   31.5905 H   0  0  0  0  0  0  0  0  0  0  0  0
   95.3238    8.0230   32.1609 H   0  0  0  0  0  0  0  0  0  0  0  0
   93.0507    7.8668   30.2313 H   0  0  0  0  0  0  0  0  0  0  0  0
   93.9986   10.1866   31.6340 H   0  0  0  0  0  0  0  0  0  0  0  0
   93.0879    8.8805   33.1695 H   0  0  0  0  0  0  0  0  0  0  0  0
   92.1971   10.5854   33.1420 H   0  0  0  0  0  0  0  0  0  0  0  0
   90.1084   11.7932   33.3731 H   0  0  0  0  0  0  0  0  0  0  0  0
   89.8993   10.2362   34.8659 H   0  0  0  0  0  0  0  0  0  0  0  0
   88.9461    9.7693   31.4440 H   0  0  0  0  0  0  0  0  0  0  0  0
   87.7781   11.0824   33.5502 H   0  0  0  0  0  0  0  0  0  0  0  0
   87.3938   12.0477   32.2275 H   0  0  0  0  0  0  0  0  0  0  0  0
   86.9797   10.4175   32.2275 H   0  0  0  0  0  0  0  0  0  0  0  0
   89.3756   12.7676   31.2561 H   0  0  0  0  0  0  0  0  0  0  0  0
   87.4439   11.7098   30.1951 H   0  0  0  0  0  0  0  0  0  0  0  0
   90.5836   10.4263   29.7375 H   0  0  0  0  0  0  0  0  0  0  0  0
   90.2073   13.0027   28.8415 H   0  0  0  0  0  0  0  0  0  0  0  0
   91.8399   13.1190   29.5702 H   0  0  0  0  0  0  0  0  0  0  0  0
   92.2142   11.0139   28.3633 H   0  0  0  0  0  0  0  0  0  0  0  0
   94.9916    8.8449   28.6262 H   0  0  0  0  0  0  0  0  0  0  0  0
   98.2077    7.5855   26.3473 H   0  0  0  0  0  0  0  0  0  0  0  0
   93.2645    6.6533   40.4515 H   0  0  0  0  0  0  0  0  0  0  0  0
   93.8130    5.7879   39.1176 H   0  0  0  0  0  0  0  0  0  0  0  0
   93.8854    7.4683   39.1176 H   0  0  0  0  0  0  0  0  0  0  0  0
   90.2666    7.8889   36.3350 H   0  0  0  0  0  0  0  0  0  0  0  0
   93.0311    7.9250   37.3452 H   0  0  0  0  0  0  0  0  0  0  0  0
   91.5688    8.7099   38.0365 H   0  0  0  0  0  0  0  0  0  0  0  0
   91.6969    5.7226   38.4202 H   0  0  0  0  0  0  0  0  0  0  0  0
   91.2304    6.9927   39.5856 H   0  0  0  0  0  0  0  0  0  0  0  0
   90.7218    5.7911   37.6913 H   0  0  0  0  0  0  0  0  0  0  0  0
  1  2  1  0
  1  8  1  0
  1  9  1  0
  2  3  1  0
  2 32  1  0
  3  4  1  0
  3 33  1  0
  4  5  1  0
  4  7  1  0
  5  6  1  0
  5  9  1  0
  6 10  1  0
 16  8  1  0
 11 12  1  0
 11 13  1  0
 11 19  1  0
 12 35  1  0
 13 14  1  0
 14 15  1  0
 14 16  1  0
 16 17  1  0
 17 18  1  0
 17 19  1  0
 19 20  1  0
 21 20  1  0
 21 22  1  0
 21 29  1  0
 22 23  1  0
 22 24  1  0
 24 25  1  0
 24 26  1  0
 26 27  1  0
 26 28  1  0
 28 29  1  0
 28 30  1  0
 30 31  1  0
 34 39  1  0
 35 36  2  0
 35 37  1  0
 37 38  1  0
 37 40  1  0
 38 39  1  0
  1 41  1  1
  2 42  1  1
  3 43  1  6
  4 44  1  1
  5 45  1  6
  6 46  1  0
  6 47  1  0
  7 48  1  0
 10 49  1  0
 10 50  1  0
 10 51  1  0
 11 52  1  6
 12 53  1  0
 13 54  1  0
 13 55  1  0
 14 56  1  6
 15 57  1  0
 15 58  1  0
 15 59  1  0
 16 60  1  1
 17 61  1  6
 18 62  1  0
 19 63  1  1
 21 64  1  1
 22 65  1  1
 23 66  1  0
 24 67  1  6
 25 68  1  0
 25 69  1  0
 25 70  1  0
 26 71  1  1
 27 72  1  0
 28 73  1  6
 30 74  1  0
 30 75  1  0
 31 76  1  0
 32 77  1  0
 33 78  1  0
 34 79  1  0
 34 80  1  0
 34 81  1  0
 37 82  1  6
 38 83  1  0
 38 84  1  0
 39 85  1  0
 39 86  1  0
 40 87  1  0
M  CHG  4  10   1  15   1  25   1  34   1
M  END
>  <filename_input>  (19) 
6VTA_AKN_docked.sdf

>  <pdb_id>  (19) 
6VTA_AKN

>  <pose_rank>  (19) 
18

>  <num_atoms_heavy>  (19) 
40

>  <num_torsions>  (19) 
10

>  <pose>  (19) 
[92.19306473132636, 6.97900148666842, 32.71657619794094, 3.89060245179251, -1.507938624436303, -1.1039038031789523, 2.9551539701376828, 1.3505848774175964, 0.768805987677608, -0.736619572267299, -24.636432722473415, -24.428978334120615, 1.2927950642711317, -36.89338506580626, 25.71075151586235, -3.3482861194851634]

>  <energy>  (19) 
-664.4228777614949

>  <inter_energy>  (19) 
-727.6197202330576

>  <intra_energy>  (19) 
56.976180448989524

>  <rmsd>  (19) 
5.5679

>  <sdf_rank>  (19) 
0

$$$$

     RDKit          3D

 87 89  0  0  0  0  0  0  0  0999 V2000
   90.8880    8.7593   35.9152 C   0  0  1  0  0  0  0  0  0  0  0  0
   90.4452    8.3054   37.2978 C   0  0  1  0  0  0  0  0  0  0  0  0
   88.9910    7.9847   37.2861 C   0  0  2  0  0  0  0  0  0  0  0  0
   88.1753    9.1761   36.8909 C   0  0  1  0  0  0  0  0  0  0  0  0
   88.6265    9.6918   35.5246 C   0  0  1  0  0  0  0  0  0  0  0  0
   87.9506   10.9843   35.1898 C   0  0  0  0  0  0  0  0  0  0  0  0
   86.7939    8.8206   36.7630 O   0  0  0  0  0  0  0  0  0  0  0  0
   90.7159    7.6837   35.0613 O   0  0  0  0  0  0  0  0  0  0  0  0
   90.0715    9.9352   35.5020 O   0  0  0  0  0  0  0  0  0  0  0  0
   87.7956   11.0830   33.7494 N   0  0  0  0  0  0  0  0  0  0  0  0
   90.8110    6.7644   30.9204 C   0  0  2  0  0  0  0  0  0  0  0  0
   90.5693    6.9172   29.4803 N   0  0  0  0  0  0  0  0  0  0  0  0
   89.4667    6.9589   31.6245 C   0  0  0  0  0  0  0  0  0  0  0  0
   89.6476    6.8794   33.1512 C   0  0  2  0  0  0  0  0  0  0  0  0
   88.3587    7.0638   33.8244 N   0  0  0  0  0  0  0  0  0  0  0  0
   90.6740    7.9040   33.6429 C   0  0  2  0  0  0  0  0  0  0  0  0
   92.0159    7.6637   32.9340 C   0  0  2  0  0  0  0  0  0  0  0  0
   92.9931    8.6104   33.2977 O   0  0  0  0  0  0  0  0  0  0  0  0
   91.8761    7.7588   31.4024 C   0  0  1  0  0  0  0  0  0  0  0  0
   93.1390    7.4364   30.8402 O   0  0  0  0  0  0  0  0  0  0  0  0
   94.2192    7.7321   31.6447 C   0  0  2  0  0  0  0  0  0  0  0  0
   95.1174    8.7342   30.9442 C   0  0  2  0  0  0  0  0  0  0  0  0
   94.3353    9.8880   30.5773 O   0  0  0  0  0  0  0  0  0  0  0  0
   95.7610    8.1389   29.7299 C   0  0  1  0  0  0  0  0  0  0  0  0
   96.6421    9.1655   29.0796 N   0  0  0  0  0  0  0  0  0  0  0  0
   96.5646    6.9220   30.1145 C   0  0  2  0  0  0  0  0  0  0  0  0
   97.1557    6.3245   28.9528 O   0  0  0  0  0  0  0  0  0  0  0  0
   95.6593    5.8990   30.7916 C   0  0  2  0  0  0  0  0  0  0  0  0
   94.9787    6.4733   31.9679 O   0  0  0  0  0  0  0  0  0  0  0  0
   96.4408    4.6988   31.2489 C   0  0  0  0  0  0  0  0  0  0  0  0
   97.8140    4.9942   31.1707 O   0  0  0  0  0  0  0  0  0  0  0  0
   91.2055    7.1409   37.6453 O   0  0  0  0  0  0  0  0  0  0  0  0
   88.6271    7.5622   38.6174 O   0  0  0  0  0  0  0  0  0  0  0  0
   88.8715    4.9873   25.8110 N   0  0  0  0  0  0  0  0  0  0  0  0
   89.9691    8.1550   28.9636 C   0  0  0  0  0  0  0  0  0  0  0  0
   89.6652    9.0466   29.6863 O   0  0  0  0  0  0  0  0  0  0  0  0
   89.7494    8.2478   27.4625 C   0  0  2  0  0  0  0  0  0  0  0  0
   90.1035    6.8703   26.8404 C   0  0  0  0  0  0  0  0  0  0  0  0
   89.0230    6.4765   25.7853 C   0  0  0  0  0  0  0  0  0  0  0  0
   90.6160    9.2018   26.9763 O   0  0  0  0  0  0  0  0  0  0  0  0
   91.9423    9.0727   35.8990 H   0  0  0  0  0  0  0  0  0  0  0  0
   90.6149    9.1034   38.0357 H   0  0  0  0  0  0  0  0  0  0  0  0
   88.7929    7.1913   36.5504 H   0  0  0  0  0  0  0  0  0  0  0  0
   88.3100    9.9413   37.6696 H   0  0  0  0  0  0  0  0  0  0  0  0
   88.3588    8.9167   34.7915 H   0  0  0  0  0  0  0  0  0  0  0  0
   86.9612   11.0170   35.6694 H   0  0  0  0  0  0  0  0  0  0  0  0
   88.5591   11.8249   35.5545 H   0  0  0  0  0  0  0  0  0  0  0  0
   86.3949    8.7179   37.6631 H   0  0  0  0  0  0  0  0  0  0  0  0
   86.9465   11.6237   33.5317 H   0  0  0  0  0  0  0  0  0  0  0  0
   88.6170   11.5570   33.3474 H   0  0  0  0  0  0  0  0  0  0  0  0
   87.7135   10.1382   33.3474 H   0  0  0  0  0  0  0  0  0  0  0  0
   91.2079    5.7657   31.1552 H   0  0  0  0  0  0  0  0  0  0  0  0
   90.8203    6.1569   28.8324 H   0  0  0  0  0  0  0  0  0  0  0  0
   89.0568    7.9444   31.3584 H   0  0  0  0  0  0  0  0  0  0  0  0
   88.7763    6.1649   31.3038 H   0  0  0  0  0  0  0  0  0  0  0  0
   90.0333    5.8799   33.4007 H   0  0  0  0  0  0  0  0  0  0  0  0
   88.4983    7.0438   34.8447 H   0  0  0  0  0  0  0  0  0  0  0  0
   87.9551    7.9710   33.5508 H   0  0  0  0  0  0  0  0  0  0  0  0
   87.7169    6.3060   33.5508 H   0  0  0  0  0  0  0  0  0  0  0  0
   90.4251    8.9527   33.4230 H   0  0  0  0  0  0  0  0  0  0  0  0
   92.3223    6.6541   33.2451 H   0  0  0  0  0  0  0  0  0  0  0  0
   93.0490    8.6645   34.2846 H   0  0  0  0  0  0  0  0  0  0  0  0
   91.5671    8.7692   31.0962 H   0  0  0  0  0  0  0  0  0  0  0  0
   93.8638    8.1748   32.5869 H   0  0  0  0  0  0  0  0  0  0  0  0
   95.9225    9.0282   31.6337 H   0  0  0  0  0  0  0  0  0  0  0  0
   94.0229   10.3488   31.3959 H   0  0  0  0  0  0  0  0  0  0  0  0
   94.9829    7.8295   29.0166 H   0  0  0  0  0  0  0  0  0  0  0  0
   97.1177    9.7195   29.8061 H   0  0  0  0  0  0  0  0  0  0  0  0
   97.3448    8.6929   28.4932 H   0  0  0  0  0  0  0  0  0  0  0  0
   96.0685    9.7884   28.4932 H   0  0  0  0  0  0  0  0  0  0  0  0
   97.3604    7.2349   30.8064 H   0  0  0  0  0  0  0  0  0  0  0  0
   97.8235    5.6493   29.2325 H   0  0  0  0  0  0  0  0  0  0  0  0
   94.9138    5.5996   30.0402 H   0  0  0  0  0  0  0  0  0  0  0  0
   96.1733    4.4577   32.2883 H   0  0  0  0  0  0  0  0  0  0  0  0
   96.2076    3.8353   30.6086 H   0  0  0  0  0  0  0  0  0  0  0  0
   98.1869    5.0744   32.0844 H   0  0  0  0  0  0  0  0  0  0  0  0
   91.2568    7.0623   38.6308 H   0  0  0  0  0  0  0  0  0  0  0  0
   89.1057    8.1179   39.2824 H   0  0  0  0  0  0  0  0  0  0  0  0
   88.8384    4.6624   26.7878 H   0  0  0  0  0  0  0  0  0  0  0  0
   87.9992    4.7227   25.3314 H   0  0  0  0  0  0  0  0  0  0  0  0
   89.6726    4.5524   25.3314 H   0  0  0  0  0  0  0  0  0  0  0  0
   88.7099    8.5132   27.2199 H   0  0  0  0  0  0  0  0  0  0  0  0
   91.0869    6.9319   26.3513 H   0  0  0  0  0  0  0  0  0  0  0  0
   90.1326    6.1089   27.6337 H   0  0  0  0  0  0  0  0  0  0  0  0
   89.3428    6.8019   24.7844 H   0  0  0  0  0  0  0  0  0  0  0  0
   88.0645    6.9620   26.0208 H   0  0  0  0  0  0  0  0  0  0  0  0
   91.0451    9.6742   27.7331 H   0  0  0  0  0  0  0  0  0  0  0  0
  1  2  1  0
  1  8  1  0
  1  9  1  0
  2  3  1  0
  2 32  1  0
  3  4  1  0
  3 33  1  0
  4  5  1  0
  4  7  1  0
  5  6  1  0
  5  9  1  0
  6 10  1  0
 16  8  1  0
 11 12  1  0
 11 13  1  0
 11 19  1  0
 12 35  1  0
 13 14  1  0
 14 15  1  0
 14 16  1  0
 16 17  1  0
 17 18  1  0
 17 19  1  0
 19 20  1  0
 21 20  1  0
 21 22  1  0
 21 29  1  0
 22 23  1  0
 22 24  1  0
 24 25  1  0
 24 26  1  0
 26 27  1  0
 26 28  1  0
 28 29  1  0
 28 30  1  0
 30 31  1  0
 34 39  1  0
 35 36  2  0
 35 37  1  0
 37 38  1  0
 37 40  1  0
 38 39  1  0
  1 41  1  1
  2 42  1  1
  3 43  1  6
  4 44  1  1
  5 45  1  6
  6 46  1  0
  6 47  1  0
  7 48  1  0
 10 49  1  0
 10 50  1  0
 10 51  1  0
 11 52  1  6
 12 53  1  0
 13 54  1  0
 13 55  1  0
 14 56  1  6
 15 57  1  0
 15 58  1  0
 15 59  1  0
 16 60  1  1
 17 61  1  6
 18 62  1  0
 19 63  1  1
 21 64  1  1
 22 65  1  1
 23 66  1  0
 24 67  1  6
 25 68  1  0
 25 69  1  0
 25 70  1  0
 26 71  1  1
 27 72  1  0
 28 73  1  6
 30 74  1  0
 30 75  1  0
 31 76  1  0
 32 77  1  0
 33 78  1  0
 34 79  1  0
 34 80  1  0
 34 81  1  0
 37 82  1  1
 38 83  1  0
 38 84  1  0
 39 85  1  0
 39 86  1  0
 40 87  1  0
M  CHG  4  10   1  15   1  25   1  34   1
M  END
>  <filename_input>  (20) 
6VTA_AKN_docked.sdf

>  <pdb_id>  (20) 
6VTA_AKN

>  <pose_rank>  (20) 
19

>  <num_atoms_heavy>  (20) 
40

>  <num_torsions>  (20) 
10

>  <pose>  (20) 
[90.81103431619884, 6.764422068439692, 30.92044605999979, -1.754680940120414, -0.5395048233220777, -2.083223303985256, -109.99220560925245, -8.13503270467845, 5.312164984946498, 0.5358012387365119, 94.81345175418424, 100.38003290298364, -5.646984711125378, 265.96779152138674, 271.00563591470797, 18.11239611080002]

>  <energy>  (20) 
-318.2644442684815

>  <inter_energy>  (20) 
-442.7793966965373

>  <intra_energy>  (20) 
125.76678839623938

>  <rmsd>  (20) 
7.80376

>  <sdf_rank>  (20) 
0

$$$$

     RDKit          3D

 87 89  0  0  0  0  0  0  0  0999 V2000
   95.7801    7.7931   31.6100 C   0  0  1  0  0  0  0  0  0  0  0  0
   95.8489    8.7831   30.4572 C   0  0  1  0  0  0  0  0  0  0  0  0
   96.0107    8.0532   29.1692 C   0  0  2  0  0  0  0  0  0  0  0  0
   97.2602    7.2286   29.1655 C   0  0  1  0  0  0  0  0  0  0  0  0
   97.2494    6.2534   30.3424 C   0  0  1  0  0  0  0  0  0  0  0  0
   98.5624    5.5458   30.4639 C   0  0  0  0  0  0  0  0  0  0  0  0
   97.3382    6.4380   27.9741 O   0  0  0  0  0  0  0  0  0  0  0  0
   94.6364    7.0356   31.4257 O   0  0  0  0  0  0  0  0  0  0  0  0
   97.0111    6.9537   31.6075 O   0  0  0  0  0  0  0  0  0  0  0  0
   99.6235    6.4270   30.0098 N   0  0  0  0  0  0  0  0  0  0  0  0
   90.6669    6.9594   32.9218 C   0  0  2  0  0  0  0  0  0  0  0  0
   89.4466    7.4357   33.5848 N   0  0  0  0  0  0  0  0  0  0  0  0
   91.8322    7.2358   33.8739 C   0  0  0  0  0  0  0  0  0  0  0  0
   93.1639    6.8233   33.2210 C   0  0  2  0  0  0  0  0  0  0  0  0
   94.2792    7.0865   34.1351 N   0  0  0  0  0  0  0  0  0  0  0  0
   93.3715    7.5387   31.8831 C   0  0  2  0  0  0  0  0  0  0  0  0
   92.1969    7.2195   30.9453 C   0  0  2  0  0  0  0  0  0  0  0  0
   92.2946    7.8937   29.7127 O   0  0  0  0  0  0  0  0  0  0  0  0
   90.8476    7.6411   31.5586 C   0  0  1  0  0  0  0  0  0  0  0  0
   89.8268    7.2269   30.6634 O   0  0  0  0  0  0  0  0  0  0  0  0
   90.1524    7.3387   29.3281 C   0  0  2  0  0  0  0  0  0  0  0  0
   89.2229    8.3333   28.6584 C   0  0  2  0  0  0  0  0  0  0  0  0
   89.2788    9.5827   29.3750 O   0  0  0  0  0  0  0  0  0  0  0  0
   87.8147    7.8250   28.6152 C   0  0  1  0  0  0  0  0  0  0  0  0
   86.9397    8.8397   27.9386 N   0  0  0  0  0  0  0  0  0  0  0  0
   87.7622    6.5094   27.8798 C   0  0  2  0  0  0  0  0  0  0  0  0
   86.4229    5.9974   27.8644 O   0  0  0  0  0  0  0  0  0  0  0  0
   88.6716    5.4973   28.5676 C   0  0  2  0  0  0  0  0  0  0  0  0
   90.0583    5.9922   28.6620 O   0  0  0  0  0  0  0  0  0  0  0  0
   88.6955    4.1919   27.8221 C   0  0  0  0  0  0  0  0  0  0  0  0
   88.9126    3.1484   28.7402 O   0  0  0  0  0  0  0  0  0  0  0  0
   94.6296    9.5368   30.4485 O   0  0  0  0  0  0  0  0  0  0  0  0
   96.0706    9.0372   28.1150 O   0  0  0  0  0  0  0  0  0  0  0  0
   86.4611    8.3414   38.5272 N   0  0  0  0  0  0  0  0  0  0  0  0
   88.7372    6.5643   34.5318 C   0  0  0  0  0  0  0  0  0  0  0  0
   89.1242    5.4690   34.7773 O   0  0  0  0  0  0  0  0  0  0  0  0
   87.4828    7.1215   35.1843 C   0  0  2  0  0  0  0  0  0  0  0  0
   87.8377    7.5209   36.6418 C   0  0  0  0  0  0  0  0  0  0  0  0
   86.8799    8.6546   37.1244 C   0  0  0  0  0  0  0  0  0  0  0  0
   86.5451    6.1126   35.2056 O   0  0  0  0  0  0  0  0  0  0  0  0
   95.7307    8.2963   32.5869 H   0  0  0  0  0  0  0  0  0  0  0  0
   96.7101    9.4561   30.5809 H   0  0  0  0  0  0  0  0  0  0  0  0
   95.1632    7.3673   29.0235 H   0  0  0  0  0  0  0  0  0  0  0  0
   98.1126    7.9209   29.2300 H   0  0  0  0  0  0  0  0  0  0  0  0
   96.4412    5.5333   30.1470 H   0  0  0  0  0  0  0  0  0  0  0  0
   98.7366    5.2714   31.5148 H   0  0  0  0  0  0  0  0  0  0  0  0
   98.5497    4.6346   29.8478 H   0  0  0  0  0  0  0  0  0  0  0  0
   97.4324    5.4830   28.2174 H   0  0  0  0  0  0  0  0  0  0  0  0
  100.1080    6.8294   30.8248 H   0  0  0  0  0  0  0  0  0  0  0  0
  100.2949    5.8913   29.4412 H   0  0  0  0  0  0  0  0  0  0  0  0
   99.2203    7.1853   29.4412 H   0  0  0  0  0  0  0  0  0  0  0  0
   90.6122    5.8812   32.7108 H   0  0  0  0  0  0  0  0  0  0  0  0
   89.0877    8.3805   33.3861 H   0  0  0  0  0  0  0  0  0  0  0  0
   91.8610    8.3097   34.1102 H   0  0  0  0  0  0  0  0  0  0  0  0
   91.6886    6.6514   34.7947 H   0  0  0  0  0  0  0  0  0  0  0  0
   93.1268    5.7433   33.0157 H   0  0  0  0  0  0  0  0  0  0  0  0
   93.9511    7.0091   35.1083 H   0  0  0  0  0  0  0  0  0  0  0  0
   95.0283    6.3992   33.9695 H   0  0  0  0  0  0  0  0  0  0  0  0
   94.6420    8.0362   33.9695 H   0  0  0  0  0  0  0  0  0  0  0  0
   93.3921    8.6369   31.9422 H   0  0  0  0  0  0  0  0  0  0  0  0
   92.2443    6.1310   30.7944 H   0  0  0  0  0  0  0  0  0  0  0  0
   92.4346    8.8602   29.8754 H   0  0  0  0  0  0  0  0  0  0  0  0
   90.8057    8.7298   31.7100 H   0  0  0  0  0  0  0  0  0  0  0  0
   91.1863    7.7020   29.2325 H   0  0  0  0  0  0  0  0  0  0  0  0
   89.5528    8.4796   27.6193 H   0  0  0  0  0  0  0  0  0  0  0  0
   89.2708    9.4051   30.3489 H   0  0  0  0  0  0  0  0  0  0  0  0
   87.4512    7.6638   29.6408 H   0  0  0  0  0  0  0  0  0  0  0  0
   86.4536    9.4032   28.6506 H   0  0  0  0  0  0  0  0  0  0  0  0
   87.5193    9.4552   27.3504 H   0  0  0  0  0  0  0  0  0  0  0  0
   86.2456    8.3567   27.3504 H   0  0  0  0  0  0  0  0  0  0  0  0
   88.0993    6.6748   26.8459 H   0  0  0  0  0  0  0  0  0  0  0  0
   86.1053    5.8760   28.7942 H   0  0  0  0  0  0  0  0  0  0  0  0
   88.2609    5.3475   29.5771 H   0  0  0  0  0  0  0  0  0  0  0  0
   87.7331    4.0404   27.3113 H   0  0  0  0  0  0  0  0  0  0  0  0
   89.5013    4.2042   27.0735 H   0  0  0  0  0  0  0  0  0  0  0  0
   88.8395    3.5000   29.6628 H   0  0  0  0  0  0  0  0  0  0  0  0
   94.3441    9.7133   31.3798 H   0  0  0  0  0  0  0  0  0  0  0  0
   96.1257    9.9427   28.5115 H   0  0  0  0  0  0  0  0  0  0  0  0
   87.0937    8.8145   39.1882 H   0  0  0  0  0  0  0  0  0  0  0  0
   85.4970    8.6704   38.6793 H   0  0  0  0  0  0  0  0  0  0  0  0
   86.5045    7.3236   38.6793 H   0  0  0  0  0  0  0  0  0  0  0  0
   87.0953    7.9950   34.6395 H   0  0  0  0  0  0  0  0  0  0  0  0
   87.7276    6.6451   37.2981 H   0  0  0  0  0  0  0  0  0  0  0  0
   88.8764    7.8814   36.6781 H   0  0  0  0  0  0  0  0  0  0  0  0
   85.9954    8.6988   36.4720 H   0  0  0  0  0  0  0  0  0  0  0  0
   87.3909    9.6280   37.0868 H   0  0  0  0  0  0  0  0  0  0  0  0
   86.3303    5.8814   36.1440 H   0  0  0  0  0  0  0  0  0  0  0  0
  1  2  1  0
  1  8  1  0
  1  9  1  0
  2  3  1  0
  2 32  1  0
  3  4  1  0
  3 33  1  0
  4  5  1  0
  4  7  1  0
  5  6  1  0
  5  9  1  0
  6 10  1  0
 16  8  1  0
 11 12  1  0
 11 13  1  0
 11 19  1  0
 12 35  1  0
 13 14  1  0
 14 15  1  0
 14 16  1  0
 16 17  1  0
 17 18  1  0
 17 19  1  0
 19 20  1  0
 21 20  1  0
 21 22  1  0
 21 29  1  0
 22 23  1  0
 22 24  1  0
 24 25  1  0
 24 26  1  0
 26 27  1  0
 26 28  1  0
 28 29  1  0
 28 30  1  0
 30 31  1  0
 34 39  1  0
 35 36  2  0
 35 37  1  0
 37 38  1  0
 37 40  1  0
 38 39  1  0
  1 41  1  1
  2 42  1  1
  3 43  1  6
  4 44  1  1
  5 45  1  6
  6 46  1  0
  6 47  1  0
  7 48  1  0
 10 49  1  0
 10 50  1  0
 10 51  1  0
 11 52  1  6
 12 53  1  0
 13 54  1  0
 13 55  1  0
 14 56  1  6
 15 57  1  0
 15 58  1  0
 15 59  1  0
 16 60  1  1
 17 61  1  6
 18 62  1  0
 19 63  1  1
 21 64  1  1
 22 65  1  6
 23 66  1  0
 24 67  1  1
 25 68  1  0
 25 69  1  0
 25 70  1  0
 26 71  1  6
 27 72  1  0
 28 73  1  1
 30 74  1  0
 30 75  1  0
 31 76  1  0
 32 77  1  0
 33 78  1  0
 34 79  1  0
 34 80  1  0
 34 81  1  0
 37 82  1  6
 38 83  1  0
 38 84  1  0
 39 85  1  0
 39 86  1  0
 40 87  1  0
M  CHG  4  10   1  15   1  25   1  34   1
M  END
>  <filename_input>  (21) 
6VTA_AKN_docked.sdf

>  <pdb_id>  (21) 
6VTA_AKN

>  <pose_rank>  (21) 
20

>  <num_atoms_heavy>  (21) 
40

>  <num_torsions>  (21) 
10

>  <pose>  (21) 
[90.666931036692, 6.959427245407757, 32.921769962792425, -2.810071983502761, 0.3222511784947701, 0.20136126791161124, 0.6275155914065702, 2.515239040593917, -0.6718267521684207, -0.790956676245046, 1.3504941929981134, -4.438273729415346, -2.4844641571509896, 20.77845485139486, 19.720468248946627, -3.5648014817034186]

>  <energy>  (21) 
-367.09343835211286

>  <inter_energy>  (21) 
-479.24176975502434

>  <intra_energy>  (21) 
114.40787786094904

>  <rmsd>  (21) 
5.63903

>  <sdf_rank>  (21) 
0

$$$$

     RDKit          3D

 87 89  0  0  0  0  0  0  0  0999 V2000
   96.5693    5.5637   29.5611 C   0  0  1  0  0  0  0  0  0  0  0  0
   97.8628    5.2768   30.3083 C   0  0  1  0  0  0  0  0  0  0  0  0
   98.6050    6.5459   30.5454 C   0  0  2  0  0  0  0  0  0  0  0  0
   98.9401    7.2282   29.2557 C   0  0  1  0  0  0  0  0  0  0  0  0
   97.6658    7.4887   28.4528 C   0  0  1  0  0  0  0  0  0  0  0  0
   97.9898    8.0055   27.0863 C   0  0  0  0  0  0  0  0  0  0  0  0
   99.5413    8.5043   29.5025 O   0  0  0  0  0  0  0  0  0  0  0  0
   95.7852    6.3437   30.3932 O   0  0  0  0  0  0  0  0  0  0  0  0
   96.8874    6.2588   28.2822 O   0  0  0  0  0  0  0  0  0  0  0  0
   97.8746    6.9221   26.1263 N   0  0  0  0  0  0  0  0  0  0  0  0
   91.7496    7.3697   29.5793 C   0  0  2  0  0  0  0  0  0  0  0  0
   90.3147    7.1820   29.3315 N   0  0  0  0  0  0  0  0  0  0  0  0
   92.4955    6.4188   28.6412 C   0  0  0  0  0  0  0  0  0  0  0  0
   94.0125    6.5074   28.8874 C   0  0  2  0  0  0  0  0  0  0  0  0
   94.7260    5.5975   27.9865 N   0  0  0  0  0  0  0  0  0  0  0  0
   94.3559    6.2110   30.3500 C   0  0  2  0  0  0  0  0  0  0  0  0
   93.6097    7.1987   31.2604 C   0  0  2  0  0  0  0  0  0  0  0  0
   93.8355    6.9457   32.6273 O   0  0  0  0  0  0  0  0  0  0  0  0
   92.0843    7.1205   31.0563 C   0  0  1  0  0  0  0  0  0  0  0  0
   91.4955    8.1241   31.8693 O   0  0  0  0  0  0  0  0  0  0  0  0
   90.1297    8.0120   32.0230 C   0  0  2  0  0  0  0  0  0  0  0  0
   89.6431    9.0423   33.0246 C   0  0  2  0  0  0  0  0  0  0  0  0
   90.0727   10.3502   32.5974 O   0  0  0  0  0  0  0  0  0  0  0  0
   90.1569    8.7541   34.4016 C   0  0  1  0  0  0  0  0  0  0  0  0
   89.6424    9.7949   35.3530 N   0  0  0  0  0  0  0  0  0  0  0  0
   89.7204    7.3783   34.8389 C   0  0  2  0  0  0  0  0  0  0  0  0
   90.2378    7.0795   36.1424 O   0  0  0  0  0  0  0  0  0  0  0  0
   90.2334    6.3362   33.8513 C   0  0  2  0  0  0  0  0  0  0  0  0
   89.7766    6.6212   32.4777 O   0  0  0  0  0  0  0  0  0  0  0  0
   89.7604    4.9575   34.2200 C   0  0  0  0  0  0  0  0  0  0  0  0
   88.3616    4.9046   34.0799 O   0  0  0  0  0  0  0  0  0  0  0  0
   97.5242    4.6613   31.5578 O   0  0  0  0  0  0  0  0  0  0  0  0
   99.8184    6.2155   31.2538 O   0  0  0  0  0  0  0  0  0  0  0  0
   88.5135    4.0828   26.9012 N   0  0  0  0  0  0  0  0  0  0  0  0
   89.6511    7.9304   28.2550 C   0  0  0  0  0  0  0  0  0  0  0  0
   90.2479    8.6970   27.5725 O   0  0  0  0  0  0  0  0  0  0  0  0
   88.1650    7.6858   28.0513 C   0  0  2  0  0  0  0  0  0  0  0  0
   87.9181    6.1546   28.1163 C   0  0  0  0  0  0  0  0  0  0  0  0
   88.1547    5.5235   26.7086 C   0  0  0  0  0  0  0  0  0  0  0  0
   87.8391    8.1452   26.7942 O   0  0  0  0  0  0  0  0  0  0  0  0
   96.0249    4.6428   29.3049 H   0  0  0  0  0  0  0  0  0  0  0  0
   98.5062    4.6080   29.7179 H   0  0  0  0  0  0  0  0  0  0  0  0
   97.9800    7.2365   31.1305 H   0  0  0  0  0  0  0  0  0  0  0  0
   99.6305    6.5724   28.7051 H   0  0  0  0  0  0  0  0  0  0  0  0
   97.0845    8.2326   29.0175 H   0  0  0  0  0  0  0  0  0  0  0  0
   97.2868    8.8088   26.8205 H   0  0  0  0  0  0  0  0  0  0  0  0
   99.0158    8.4020   27.0748 H   0  0  0  0  0  0  0  0  0  0  0  0
   99.6113    8.6529   30.4788 H   0  0  0  0  0  0  0  0  0  0  0  0
   97.7794    6.0276   26.6280 H   0  0  0  0  0  0  0  0  0  0  0  0
   97.0450    7.0741   25.5351 H   0  0  0  0  0  0  0  0  0  0  0  0
   98.7175    6.8962   25.5351 H   0  0  0  0  0  0  0  0  0  0  0  0
   92.0583    8.4055   29.3745 H   0  0  0  0  0  0  0  0  0  0  0  0
   89.7732    6.5257   29.9120 H   0  0  0  0  0  0  0  0  0  0  0  0
   92.1574    5.3883   28.8249 H   0  0  0  0  0  0  0  0  0  0  0  0
   92.2844    6.7042   27.6000 H   0  0  0  0  0  0  0  0  0  0  0  0
   94.3364    7.5368   28.6743 H   0  0  0  0  0  0  0  0  0  0  0  0
   95.2615    4.9148   28.5415 H   0  0  0  0  0  0  0  0  0  0  0  0
   94.0473    5.1002   27.3925 H   0  0  0  0  0  0  0  0  0  0  0  0
   95.3708    6.1382   27.3925 H   0  0  0  0  0  0  0  0  0  0  0  0
   94.0502    5.2162   30.7063 H   0  0  0  0  0  0  0  0  0  0  0  0
   93.9997    8.1888   30.9818 H   0  0  0  0  0  0  0  0  0  0  0  0
   93.2851    7.5623   33.1723 H   0  0  0  0  0  0  0  0  0  0  0  0
   91.6993    6.1281   31.3336 H   0  0  0  0  0  0  0  0  0  0  0  0
   89.6361    8.1975   31.0576 H   0  0  0  0  0  0  0  0  0  0  0  0
   88.5447    9.0014   33.0670 H   0  0  0  0  0  0  0  0  0  0  0  0
   90.2573   10.9125   33.3911 H   0  0  0  0  0  0  0  0  0  0  0  0
   91.2565    8.7838   34.3966 H   0  0  0  0  0  0  0  0  0  0  0  0
   89.7975    9.4812   36.3217 H   0  0  0  0  0  0  0  0  0  0  0  0
   90.1423   10.6815   35.1950 H   0  0  0  0  0  0  0  0  0  0  0  0
   88.6345    9.9362   35.1950 H   0  0  0  0  0  0  0  0  0  0  0  0
   88.6211    7.3557   34.8708 H   0  0  0  0  0  0  0  0  0  0  0  0
   89.6221    7.4351   36.8313 H   0  0  0  0  0  0  0  0  0  0  0  0
   91.3316    6.3822   33.8949 H   0  0  0  0  0  0  0  0  0  0  0  0
   90.2268    4.2165   33.5541 H   0  0  0  0  0  0  0  0  0  0  0  0
   90.0403    4.7324   35.2597 H   0  0  0  0  0  0  0  0  0  0  0  0
   87.9406    4.8887   34.9757 H   0  0  0  0  0  0  0  0  0  0  0  0
   97.8384    5.2325   32.3029 H   0  0  0  0  0  0  0  0  0  0  0  0
   99.6538    6.2603   32.2290 H   0  0  0  0  0  0  0  0  0  0  0  0
   88.5656    3.8736   27.9084 H   0  0  0  0  0  0  0  0  0  0  0  0
   87.7948    3.4886   26.4638 H   0  0  0  0  0  0  0  0  0  0  0  0
   89.4269    3.8951   26.4638 H   0  0  0  0  0  0  0  0  0  0  0  0
   87.5608    8.1962   28.8158 H   0  0  0  0  0  0  0  0  0  0  0  0
   88.6115    5.7028   28.8409 H   0  0  0  0  0  0  0  0  0  0  0  0
   86.8809    5.9658   28.4305 H   0  0  0  0  0  0  0  0  0  0  0  0
   88.9761    6.0476   26.1980 H   0  0  0  0  0  0  0  0  0  0  0  0
   87.2475    5.6121   26.0930 H   0  0  0  0  0  0  0  0  0  0  0  0
   87.2683    8.9501   26.8748 H   0  0  0  0  0  0  0  0  0  0  0  0
  1  2  1  0
  1  8  1  0
  1  9  1  0
  2  3  1  0
  2 32  1  0
  3  4  1  0
  3 33  1  0
  4  5  1  0
  4  7  1  0
  5  6  1  0
  5  9  1  0
  6 10  1  0
 16  8  1  0
 11 12  1  0
 11 13  1  0
 11 19  1  0
 12 35  1  0
 13 14  1  0
 14 15  1  0
 14 16  1  0
 16 17  1  0
 17 18  1  0
 17 19  1  0
 19 20  1  0
 21 20  1  0
 21 22  1  0
 21 29  1  0
 22 23  1  0
 22 24  1  0
 24 25  1  0
 24 26  1  0
 26 27  1  0
 26 28  1  0
 28 29  1  0
 28 30  1  0
 30 31  1  0
 34 39  1  0
 35 36  2  0
 35 37  1  0
 37 38  1  0
 37 40  1  0
 38 39  1  0
  1 41  1  6
  2 42  1  6
  3 43  1  1
  4 44  1  6
  5 45  1  1
  6 46  1  0
  6 47  1  0
  7 48  1  0
 10 49  1  0
 10 50  1  0
 10 51  1  0
 11 52  1  6
 12 53  1  0
 13 54  1  0
 13 55  1  0
 14 56  1  6
 15 57  1  0
 15 58  1  0
 15 59  1  0
 16 60  1  1
 17 61  1  6
 18 62  1  0
 19 63  1  1
 21 64  1  6
 22 65  1  1
 23 66  1  0
 24 67  1  6
 25 68  1  0
 25 69  1  0
 25 70  1  0
 26 71  1  1
 27 72  1  0
 28 73  1  6
 30 74  1  0
 30 75  1  0
 31 76  1  0
 32 77  1  0
 33 78  1  0
 34 79  1  0
 34 80  1  0
 34 81  1  0
 37 82  1  1
 38 83  1  0
 38 84  1  0
 39 85  1  0
 39 86  1  0
 40 87  1  0
M  CHG  4  10   1  15   1  25   1  34   1
M  END
>  <filename_input>  (22) 
6VTA_AKN_docked.sdf

>  <pdb_id>  (22) 
6VTA_AKN

>  <pose_rank>  (22) 
21

>  <num_atoms_heavy>  (22) 
40

>  <num_torsions>  (22) 
10

>  <pose>  (22) 
[91.74961332376282, 7.369705462645655, 29.579342179350128, 2.258708685736244, -2.729318502720668, 5.017467057175406, -5.67238104258955, 3.5480959038486395, 1.4351332610277254, -0.4794572029523316, 2.0782757109839993, -5.54709356031583, -1.2732732790859953, -0.344143093302916, 5.947109305549642, 0.1975320146970721]

>  <energy>  (22) 
-439.4685760807237

>  <inter_energy>  (22) 
-570.8629512304076

>  <intra_energy>  (22) 
137.61179315810767

>  <rmsd>  (22) 
3.19939

>  <sdf_rank>  (22) 
0

$$$$

     RDKit          3D

 87 89  0  0  0  0  0  0  0  0999 V2000
   89.4651   10.0220   29.9987 C   0  0  1  0  0  0  0  0  0  0  0  0
   88.1054    9.4484   29.6301 C   0  0  1  0  0  0  0  0  0  0  0  0
   87.4263   10.3403   28.6497 C   0  0  2  0  0  0  0  0  0  0  0  0
   87.2285   11.7139   29.2112 C   0  0  1  0  0  0  0  0  0  0  0  0
   88.5716   12.3044   29.6399 C   0  0  1  0  0  0  0  0  0  0  0  0
   88.3804   13.5988   30.3661 C   0  0  0  0  0  0  0  0  0  0  0  0
   86.6895   12.5918   28.2165 O   0  0  0  0  0  0  0  0  0  0  0  0
   90.2321   10.0183   28.8467 O   0  0  0  0  0  0  0  0  0  0  0  0
   89.2841   11.3969   30.5435 O   0  0  0  0  0  0  0  0  0  0  0  0
   89.4959   14.4807   30.0719 N   0  0  0  0  0  0  0  0  0  0  0  0
   93.9262    7.9329   28.7653 C   0  0  2  0  0  0  0  0  0  0  0  0
   95.3744    7.7217   28.6484 N   0  0  0  0  0  0  0  0  0  0  0  0
   93.4935    8.7590   27.5524 C   0  0  0  0  0  0  0  0  0  0  0  0
   91.9906    9.0817   27.6353 C   0  0  2  0  0  0  0  0  0  0  0  0
   91.5770    9.8713   26.4717 N   0  0  0  0  0  0  0  0  0  0  0  0
   91.6497    9.8082   28.9395 C   0  0  2  0  0  0  0  0  0  0  0  0
   92.0752    8.9404   30.1341 C   0  0  2  0  0  0  0  0  0  0  0  0
   91.8427    9.5753   31.3696 O   0  0  0  0  0  0  0  0  0  0  0  0
   93.5812    8.6168   30.0953 C   0  0  1  0  0  0  0  0  0  0  0  0
   93.8559    7.7450   31.1814 O   0  0  0  0  0  0  0  0  0  0  0  0
   94.9457    8.1043   31.9461 C   0  0  2  0  0  0  0  0  0  0  0  0
   95.5653    6.8654   32.5646 C   0  0  2  0  0  0  0  0  0  0  0  0
   95.8769    5.9249   31.5177 O   0  0  0  0  0  0  0  0  0  0  0  0
   94.6486    6.2362   33.5681 C   0  0  1  0  0  0  0  0  0  0  0  0
   95.3095    5.0225   34.1540 N   0  0  0  0  0  0  0  0  0  0  0  0
   94.3106    7.2278   34.6529 C   0  0  2  0  0  0  0  0  0  0  0  0
   93.4047    6.6453   35.5995 O   0  0  0  0  0  0  0  0  0  0  0  0
   93.6595    8.4621   34.0389 C   0  0  2  0  0  0  0  0  0  0  0  0
   94.5248    9.0775   33.0145 O   0  0  0  0  0  0  0  0  0  0  0  0
   93.3690    9.5019   35.0852 C   0  0  0  0  0  0  0  0  0  0  0  0
   91.9749    9.6375   35.2161 O   0  0  0  0  0  0  0  0  0  0  0  0
   88.3136    8.1513   29.0567 O   0  0  0  0  0  0  0  0  0  0  0  0
   86.1465    9.7504   28.3373 O   0  0  0  0  0  0  0  0  0  0  0  0
  100.2008    5.3953   30.0067 N   0  0  0  0  0  0  0  0  0  0  0  0
   95.8944    6.4116   28.2328 C   0  0  0  0  0  0  0  0  0  0  0  0
   95.1685    5.5041   27.9896 O   0  0  0  0  0  0  0  0  0  0  0  0
   97.4035    6.2631   28.1294 C   0  0  2  0  0  0  0  0  0  0  0  0
   98.0003    6.4320   29.5524 C   0  0  0  0  0  0  0  0  0  0  0  0
   98.7297    5.1188   29.9760 C   0  0  0  0  0  0  0  0  0  0  0  0
   97.8641    7.2784   27.3204 O   0  0  0  0  0  0  0  0  0  0  0  0
   89.9697    9.4278   30.7748 H   0  0  0  0  0  0  0  0  0  0  0  0
   87.4674    9.3707   30.5228 H   0  0  0  0  0  0  0  0  0  0  0  0
   88.0477   10.4398   27.7475 H   0  0  0  0  0  0  0  0  0  0  0  0
   86.5416   11.6252   30.0658 H   0  0  0  0  0  0  0  0  0  0  0  0
   89.1541   12.4618   28.7202 H   0  0  0  0  0  0  0  0  0  0  0  0
   87.4423   14.0700   30.0374 H   0  0  0  0  0  0  0  0  0  0  0  0
   88.3330   13.4116   31.4490 H   0  0  0  0  0  0  0  0  0  0  0  0
   86.2260   13.3466   28.6587 H   0  0  0  0  0  0  0  0  0  0  0  0
   89.9140   14.8112   30.9533 H   0  0  0  0  0  0  0  0  0  0  0  0
   90.2040   13.9684   29.5268 H   0  0  0  0  0  0  0  0  0  0  0  0
   89.1609   15.2879   29.5268 H   0  0  0  0  0  0  0  0  0  0  0  0
   93.3822    6.9769   28.7720 H   0  0  0  0  0  0  0  0  0  0  0  0
   96.0258    8.4916   28.8575 H   0  0  0  0  0  0  0  0  0  0  0  0
   94.0658    9.6982   27.5300 H   0  0  0  0  0  0  0  0  0  0  0  0
   93.6854    8.1793   26.6374 H   0  0  0  0  0  0  0  0  0  0  0  0
   91.4339    8.1330   27.6307 H   0  0  0  0  0  0  0  0  0  0  0  0
   91.1223   10.7391   26.7896 H   0  0  0  0  0  0  0  0  0  0  0  0
   92.4039   10.1051   25.9038 H   0  0  0  0  0  0  0  0  0  0  0  0
   90.9140    9.3245   25.9038 H   0  0  0  0  0  0  0  0  0  0  0  0
   92.1721   10.7648   29.0883 H   0  0  0  0  0  0  0  0  0  0  0  0
   91.4680    8.0271   30.0495 H   0  0  0  0  0  0  0  0  0  0  0  0
   92.0697    8.9552   32.1071 H   0  0  0  0  0  0  0  0  0  0  0  0
   94.1842    9.5331   30.1776 H   0  0  0  0  0  0  0  0  0  0  0  0
   95.6961    8.5931   31.3074 H   0  0  0  0  0  0  0  0  0  0  0  0
   96.4838    7.1576   33.0946 H   0  0  0  0  0  0  0  0  0  0  0  0
   96.1616    5.0661   31.9195 H   0  0  0  0  0  0  0  0  0  0  0  0
   93.7147    5.9328   33.0724 H   0  0  0  0  0  0  0  0  0  0  0  0
   95.2793    5.0778   35.1821 H   0  0  0  0  0  0  0  0  0  0  0  0
   94.8127    4.1762   33.8410 H   0  0  0  0  0  0  0  0  0  0  0  0
   96.2899    4.9806   33.8410 H   0  0  0  0  0  0  0  0  0  0  0  0
   95.2406    7.5111   35.1676 H   0  0  0  0  0  0  0  0  0  0  0  0
   93.7144    6.8445   36.5184 H   0  0  0  0  0  0  0  0  0  0  0  0
   92.7218    8.1202   33.5766 H   0  0  0  0  0  0  0  0  0  0  0  0
   93.8018    9.1893   36.0470 H   0  0  0  0  0  0  0  0  0  0  0  0
   93.8114   10.4642   34.7882 H   0  0  0  0  0  0  0  0  0  0  0  0
   91.7343    9.6609   36.1761 H   0  0  0  0  0  0  0  0  0  0  0  0
   88.4207    7.4840   29.7802 H   0  0  0  0  0  0  0  0  0  0  0  0
   85.6705    9.5309   29.1772 H   0  0  0  0  0  0  0  0  0  0  0  0
  100.5185    5.4550   30.9846 H   0  0  0  0  0  0  0  0  0  0  0  0
  100.7032    4.6340   29.5282 H   0  0  0  0  0  0  0  0  0  0  0  0
  100.3926    6.2870   29.5282 H   0  0  0  0  0  0  0  0  0  0  0  0
   97.6878    5.2838   27.7169 H   0  0  0  0  0  0  0  0  0  0  0  0
   98.7185    7.2651   29.5512 H   0  0  0  0  0  0  0  0  0  0  0  0
   97.1895    6.6444   30.2647 H   0  0  0  0  0  0  0  0  0  0  0  0
   98.5149    4.3216   29.2492 H   0  0  0  0  0  0  0  0  0  0  0  0
   98.3819    4.7914   30.9668 H   0  0  0  0  0  0  0  0  0  0  0  0
   98.2009    8.0208   27.8821 H   0  0  0  0  0  0  0  0  0  0  0  0
  1  2  1  0
  1  8  1  0
  1  9  1  0
  2  3  1  0
  2 32  1  0
  3  4  1  0
  3 33  1  0
  4  5  1  0
  4  7  1  0
  5  6  1  0
  5  9  1  0
  6 10  1  0
 16  8  1  0
 11 12  1  0
 11 13  1  0
 11 19  1  0
 12 35  1  0
 13 14  1  0
 14 15  1  0
 14 16  1  0
 16 17  1  0
 17 18  1  0
 17 19  1  0
 19 20  1  0
 21 20  1  0
 21 22  1  0
 21 29  1  0
 22 23  1  0
 22 24  1  0
 24 25  1  0
 24 26  1  0
 26 27  1  0
 26 28  1  0
 28 29  1  0
 28 30  1  0
 30 31  1  0
 34 39  1  0
 35 36  2  0
 35 37  1  0
 37 38  1  0
 37 40  1  0
 38 39  1  0
  1 41  1  1
  2 42  1  1
  3 43  1  6
  4 44  1  1
  5 45  1  6
  6 46  1  0
  6 47  1  0
  7 48  1  0
 10 49  1  0
 10 50  1  0
 10 51  1  0
 11 52  1  1
 12 53  1  0
 13 54  1  0
 13 55  1  0
 14 56  1  1
 15 57  1  0
 15 58  1  0
 15 59  1  0
 16 60  1  6
 17 61  1  1
 18 62  1  0
 19 63  1  1
 21 64  1  6
 22 65  1  1
 23 66  1  0
 24 67  1  6
 25 68  1  0
 25 69  1  0
 25 70  1  0
 26 71  1  1
 27 72  1  0
 28 73  1  6
 30 74  1  0
 30 75  1  0
 31 76  1  0
 32 77  1  0
 33 78  1  0
 34 79  1  0
 34 80  1  0
 34 81  1  0
 37 82  1  6
 38 83  1  0
 38 84  1  0
 39 85  1  0
 39 86  1  0
 40 87  1  0
M  CHG  4  10   1  15   1  25   1  34   1
M  END
>  <filename_input>  (23) 
6VTA_AKN_docked.sdf

>  <pdb_id>  (23) 
6VTA_AKN

>  <pose_rank>  (23) 
22

>  <num_atoms_heavy>  (23) 
40

>  <num_torsions>  (23) 
10

>  <pose>  (23) 
[93.92615451741979, 7.932916550276139, 28.765324063761756, 0.29946305264033135, -0.3491432593383116, -3.4567430568774755, 6.565308055615122, -0.8282951259547598, -1.2876646201812139, -1.2595317165960145, -13.181625969397459, -18.11167021335883, 0.6903683179542258, 6.5522208519875305, -12.299302294140633, -2.9262144070822993]

>  <energy>  (23) 
-548.8788358223201

>  <inter_energy>  (23) 
-594.6303854782146

>  <intra_energy>  (23) 
45.2000415100612

>  <rmsd>  (23) 
8.35305

>  <sdf_rank>  (23) 
0

$$$$

     RDKit          3D

 87 89  0  0  0  0  0  0  0  0999 V2000
   93.0119    7.3436   35.1992 C   0  0  1  0  0  0  0  0  0  0  0  0
   92.4262    7.8555   36.5064 C   0  0  1  0  0  0  0  0  0  0  0  0
   93.3080    8.9093   37.0804 C   0  0  2  0  0  0  0  0  0  0  0  0
   94.6828    8.3806   37.3481 C   0  0  1  0  0  0  0  0  0  0  0  0
   95.2856    7.8110   36.0642 C   0  0  1  0  0  0  0  0  0  0  0  0
   96.5821    7.1174   36.3428 C   0  0  0  0  0  0  0  0  0  0  0  0
   95.5517    9.4333   37.7812 O   0  0  0  0  0  0  0  0  0  0  0  0
   93.0084    8.4048   34.3107 O   0  0  0  0  0  0  0  0  0  0  0  0
   94.3880    6.8297   35.4484 O   0  0  0  0  0  0  0  0  0  0  0  0
   96.3675    6.0885   37.3447 N   0  0  0  0  0  0  0  0  0  0  0  0
   93.6324    6.2089   30.7345 C   0  0  2  0  0  0  0  0  0  0  0  0
   93.5509    5.8657   29.3092 N   0  0  0  0  0  0  0  0  0  0  0  0
   92.2070    6.4990   31.2086 C   0  0  0  0  0  0  0  0  0  0  0  0
   92.2141    6.9338   32.6853 C   0  0  2  0  0  0  0  0  0  0  0  0
   90.8477    7.2093   33.1390 N   0  0  0  0  0  0  0  0  0  0  0  0
   93.1189    8.1502   32.9017 C   0  0  2  0  0  0  0  0  0  0  0  0
   94.5450    7.8152   32.4380 C   0  0  2  0  0  0  0  0  0  0  0  0
   95.4201    8.9124   32.5554 O   0  0  0  0  0  0  0  0  0  0  0  0
   94.5784    7.3972   30.9552 C   0  0  1  0  0  0  0  0  0  0  0  0
   95.9136    7.0252   30.6492 O   0  0  0  0  0  0  0  0  0  0  0  0
   96.1728    6.8666   29.3042 C   0  0  2  0  0  0  0  0  0  0  0  0
   97.5774    6.3252   29.1160 C   0  0  2  0  0  0  0  0  0  0  0  0
   97.7178    5.1111   29.8802 O   0  0  0  0  0  0  0  0  0  0  0  0
   98.6112    7.3235   29.5378 C   0  0  1  0  0  0  0  0  0  0  0  0
   99.9793    6.7435   29.3254 N   0  0  0  0  0  0  0  0  0  0  0  0
   98.4509    8.5987   28.7486 C   0  0  2  0  0  0  0  0  0  0  0  0
   99.4142    9.5733   29.1708 O   0  0  0  0  0  0  0  0  0  0  0  0
   97.0503    9.1629   28.9591 C   0  0  2  0  0  0  0  0  0  0  0  0
   96.0109    8.1824   28.5914 O   0  0  0  0  0  0  0  0  0  0  0  0
   96.8322   10.4006   28.1339 C   0  0  0  0  0  0  0  0  0  0  0  0
   97.5570   10.2801   26.9342 O   0  0  0  0  0  0  0  0  0  0  0  0
   91.1278    8.3953   36.2275 O   0  0  0  0  0  0  0  0  0  0  0  0
   92.7068    9.3564   38.3141 O   0  0  0  0  0  0  0  0  0  0  0  0
   95.0690    1.0867   25.5310 N   0  0  0  0  0  0  0  0  0  0  0  0
   94.1179    4.5994   28.8251 C   0  0  0  0  0  0  0  0  0  0  0  0
   94.6517    3.8362   29.5615 O   0  0  0  0  0  0  0  0  0  0  0  0
   93.9961    4.3058   27.3389 C   0  0  2  0  0  0  0  0  0  0  0  0
   94.2462    2.7883   27.1281 C   0  0  0  0  0  0  0  0  0  0  0  0
   94.9962    2.5614   25.7784 C   0  0  0  0  0  0  0  0  0  0  0  0
   94.9805    5.0220   26.6942 O   0  0  0  0  0  0  0  0  0  0  0  0
   92.4253    6.5137   34.7783 H   0  0  0  0  0  0  0  0  0  0  0  0
   92.3479    7.0375   37.2376 H   0  0  0  0  0  0  0  0  0  0  0  0
   93.4078    9.7387   36.3648 H   0  0  0  0  0  0  0  0  0  0  0  0
   94.5931    7.6057   38.1237 H   0  0  0  0  0  0  0  0  0  0  0  0
   95.4430    8.6624   35.3857 H   0  0  0  0  0  0  0  0  0  0  0  0
   96.9593    6.6572   35.4177 H   0  0  0  0  0  0  0  0  0  0  0  0
   97.3187    7.8457   36.7129 H   0  0  0  0  0  0  0  0  0  0  0  0
   95.5722    9.4582   38.7707 H   0  0  0  0  0  0  0  0  0  0  0  0
   96.4536    6.5011   38.2845 H   0  0  0  0  0  0  0  0  0  0  0  0
   95.4251    5.6890   37.2301 H   0  0  0  0  0  0  0  0  0  0  0  0
   97.0716    5.3456   37.2301 H   0  0  0  0  0  0  0  0  0  0  0  0
   94.0537    5.3796   31.3217 H   0  0  0  0  0  0  0  0  0  0  0  0
   93.0964    6.5124   28.6488 H   0  0  0  0  0  0  0  0  0  0  0  0
   91.7772    7.3044   30.5950 H   0  0  0  0  0  0  0  0  0  0  0  0
   91.6029    5.5853   31.1072 H   0  0  0  0  0  0  0  0  0  0  0  0
   92.6225    6.1075   33.2856 H   0  0  0  0  0  0  0  0  0  0  0  0
   90.8223    7.2144   34.1686 H   0  0  0  0  0  0  0  0  0  0  0  0
   90.5466    8.1279   32.7835 H   0  0  0  0  0  0  0  0  0  0  0  0
   90.2142    6.4791   32.7835 H   0  0  0  0  0  0  0  0  0  0  0  0
   92.8399    9.0446   32.3254 H   0  0  0  0  0  0  0  0  0  0  0  0
   94.8683    6.9922   33.0923 H   0  0  0  0  0  0  0  0  0  0  0  0
   95.5766    9.1086   33.5131 H   0  0  0  0  0  0  0  0  0  0  0  0
   94.2519    8.2222   30.3050 H   0  0  0  0  0  0  0  0  0  0  0  0
   95.4575    6.1492   28.8755 H   0  0  0  0  0  0  0  0  0  0  0  0
   97.7353    6.1183   28.0473 H   0  0  0  0  0  0  0  0  0  0  0  0
   97.6931    5.3248   30.8466 H   0  0  0  0  0  0  0  0  0  0  0  0
   98.4816    7.5574   30.6048 H   0  0  0  0  0  0  0  0  0  0  0  0
  100.4187    6.5573   30.2382 H   0  0  0  0  0  0  0  0  0  0  0  0
   99.9007    5.8634   28.7962 H   0  0  0  0  0  0  0  0  0  0  0  0
  100.5572    7.4120   28.7962 H   0  0  0  0  0  0  0  0  0  0  0  0
   98.6076    8.3711   27.6839 H   0  0  0  0  0  0  0  0  0  0  0  0
   99.4427    9.6022   30.1600 H   0  0  0  0  0  0  0  0  0  0  0  0
   96.9712    9.4046   30.0293 H   0  0  0  0  0  0  0  0  0  0  0  0
   95.7611   10.5108   27.9090 H   0  0  0  0  0  0  0  0  0  0  0  0
   97.1752   11.2854   28.6901 H   0  0  0  0  0  0  0  0  0  0  0  0
   98.5122   10.1213   27.1403 H   0  0  0  0  0  0  0  0  0  0  0  0
   90.6613    8.5892   37.0789 H   0  0  0  0  0  0  0  0  0  0  0  0
   93.2096    8.9825   39.0807 H   0  0  0  0  0  0  0  0  0  0  0  0
   95.0936    0.5882   26.4320 H   0  0  0  0  0  0  0  0  0  0  0  0
   94.2418    0.7871   24.9954 H   0  0  0  0  0  0  0  0  0  0  0  0
   95.9217    0.8701   24.9954 H   0  0  0  0  0  0  0  0  0  0  0  0
   93.0042    4.5802   26.9506 H   0  0  0  0  0  0  0  0  0  0  0  0
   94.8576    2.3999   27.9559 H   0  0  0  0  0  0  0  0  0  0  0  0
   93.2815    2.2602   27.1021 H   0  0  0  0  0  0  0  0  0  0  0  0
   96.0115    2.9799   25.8407 H   0  0  0  0  0  0  0  0  0  0  0  0
   94.4624    3.0606   24.9563 H   0  0  0  0  0  0  0  0  0  0  0  0
   95.5695    5.4505   27.3646 H   0  0  0  0  0  0  0  0  0  0  0  0
  1  2  1  0
  1  8  1  0
  1  9  1  0
  2  3  1  0
  2 32  1  0
  3  4  1  0
  3 33  1  0
  4  5  1  0
  4  7  1  0
  5  6  1  0
  5  9  1  0
  6 10  1  0
 16  8  1  0
 11 12  1  0
 11 13  1  0
 11 19  1  0
 12 35  1  0
 13 14  1  0
 14 15  1  0
 14 16  1  0
 16 17  1  0
 17 18  1  0
 17 19  1  0
 19 20  1  0
 21 20  1  0
 21 22  1  0
 21 29  1  0
 22 23  1  0
 22 24  1  0
 24 25  1  0
 24 26  1  0
 26 27  1  0
 26 28  1  0
 28 29  1  0
 28 30  1  0
 30 31  1  0
 34 39  1  0
 35 36  2  0
 35 37  1  0
 37 38  1  0
 37 40  1  0
 38 39  1  0
  1 41  1  6
  2 42  1  1
  3 43  1  6
  4 44  1  1
  5 45  1  6
  6 46  1  0
  6 47  1  0
  7 48  1  0
 10 49  1  0
 10 50  1  0
 10 51  1  0
 11 52  1  1
 12 53  1  0
 13 54  1  0
 13 55  1  0
 14 56  1  1
 15 57  1  0
 15 58  1  0
 15 59  1  0
 16 60  1  6
 17 61  1  1
 18 62  1  0
 19 63  1  6
 21 64  1  6
 22 65  1  6
 23 66  1  0
 24 67  1  1
 25 68  1  0
 25 69  1  0
 25 70  1  0
 26 71  1  6
 27 72  1  0
 28 73  1  1
 30 74  1  0
 30 75  1  0
 31 76  1  0
 32 77  1  0
 33 78  1  0
 34 79  1  0
 34 80  1  0
 34 81  1  0
 37 82  1  6
 38 83  1  0
 38 84  1  0
 39 85  1  0
 39 86  1  0
 40 87  1  0
M  CHG  4  10   1  15   1  25   1  34   1
M  END
>  <filename_input>  (24) 
6VTA_AKN_docked.sdf

>  <pdb_id>  (24) 
6VTA_AKN

>  <pose_rank>  (24) 
23

>  <num_atoms_heavy>  (24) 
40

>  <num_torsions>  (24) 
10

>  <pose>  (24) 
[93.63241173007798, 6.208925351207206, 30.734451124793296, -1.769226895824404, -1.0186140194221216, -2.1387007056947036, -0.07654514104352961, 1.483843006266974, 0.4056151061080028, 0.0740892341743587, -2.474705668279545, 6.77268350865345, -2.0568271533501323, -0.36619004716241554, -0.12244457733291818, -0.37491337591396673]

>  <energy>  (24) 
-462.86308094220806

>  <inter_energy>  (24) 
-526.4307244279377

>  <intra_energy>  (24) 
69.28121527754865

>  <rmsd>  (24) 
8.16461

>  <sdf_rank>  (24) 
0

$$$$

     RDKit          3D

 87 89  0  0  0  0  0  0  0  0999 V2000
   92.5939    6.3289   35.3110 C   0  0  1  0  0  0  0  0  0  0  0  0
   91.2547    6.8202   35.8390 C   0  0  1  0  0  0  0  0  0  0  0  0
   91.4682    7.7273   37.0006 C   0  0  2  0  0  0  0  0  0  0  0  0
   92.1912    7.0286   38.1097 C   0  0  1  0  0  0  0  0  0  0  0  0
   93.5233    6.4766   37.6024 C   0  0  1  0  0  0  0  0  0  0  0  0
   94.1799    5.6228   38.6413 C   0  0  0  0  0  0  0  0  0  0  0  0
   92.4990    7.9451   39.1662 O   0  0  0  0  0  0  0  0  0  0  0  0
   93.2754    7.4379   34.8406 O   0  0  0  0  0  0  0  0  0  0  0  0
   93.3320    5.6459   36.4104 O   0  0  0  0  0  0  0  0  0  0  0  0
   93.5562    4.3115   38.6455 N   0  0  0  0  0  0  0  0  0  0  0  0
   95.5906    8.6773   31.5082 C   0  0  2  0  0  0  0  0  0  0  0  0
   96.5851    8.6020   30.4307 N   0  0  0  0  0  0  0  0  0  0  0  0
   96.2889    8.2338   32.7953 C   0  0  0  0  0  0  0  0  0  0  0  0
   95.2903    8.2212   33.9668 C   0  0  2  0  0  0  0  0  0  0  0  0
   95.9610    7.7982   35.1997 N   0  0  0  0  0  0  0  0  0  0  0  0
   94.0876    7.3237   33.6618 C   0  0  2  0  0  0  0  0  0  0  0  0
   93.3977    7.8124   32.3788 C   0  0  2  0  0  0  0  0  0  0  0  0
   92.3135    6.9943   32.0064 O   0  0  0  0  0  0  0  0  0  0  0  0
   94.3639    7.8160   31.1784 C   0  0  1  0  0  0  0  0  0  0  0  0
   93.6634    8.3627   30.0715 O   0  0  0  0  0  0  0  0  0  0  0  0
   93.6350    7.5562   28.9534 C   0  0  2  0  0  0  0  0  0  0  0  0
   93.6252    8.4169   27.7041 C   0  0  2  0  0  0  0  0  0  0  0  0
   94.7536    9.3130   27.7437 O   0  0  0  0  0  0  0  0  0  0  0  0
   92.3513    9.1954   27.5843 C   0  0  1  0  0  0  0  0  0  0  0  0
   92.3891   10.0223   26.3321 N   0  0  0  0  0  0  0  0  0  0  0  0
   91.1716    8.2561   27.5604 C   0  0  2  0  0  0  0  0  0  0  0  0
   89.9450    8.9946   27.4817 O   0  0  0  0  0  0  0  0  0  0  0  0
   91.1601    7.4102   28.8287 C   0  0  2  0  0  0  0  0  0  0  0  0
   92.4227    6.6649   28.9937 O   0  0  0  0  0  0  0  0  0  0  0  0
   90.0338    6.4145   28.8088 C   0  0  0  0  0  0  0  0  0  0  0  0
   90.5134    5.1768   29.2748 O   0  0  0  0  0  0  0  0  0  0  0  0
   90.5921    7.5218   34.7791 O   0  0  0  0  0  0  0  0  0  0  0  0
   90.1701    8.1609   37.4594 O   0  0  0  0  0  0  0  0  0  0  0  0
  100.0921    5.2122   30.9820 N   0  0  0  0  0  0  0  0  0  0  0  0
   97.1338    7.2998   30.0272 C   0  0  0  0  0  0  0  0  0  0  0  0
   96.7958    6.2925   30.5570 O   0  0  0  0  0  0  0  0  0  0  0  0
   98.1568    7.2941   28.9032 C   0  0  2  0  0  0  0  0  0  0  0  0
   99.5660    7.1520   29.5385 C   0  0  0  0  0  0  0  0  0  0  0  0
   99.9868    5.6492   29.5539 C   0  0  0  0  0  0  0  0  0  0  0  0
   98.0695    8.5085   28.2589 O   0  0  0  0  0  0  0  0  0  0  0  0
   92.4764    5.6001   34.4954 H   0  0  0  0  0  0  0  0  0  0  0  0
   90.6403    5.9716   36.1745 H   0  0  0  0  0  0  0  0  0  0  0  0
   92.0861    8.5837   36.6928 H   0  0  0  0  0  0  0  0  0  0  0  0
   91.5380    6.2213   38.4724 H   0  0  0  0  0  0  0  0  0  0  0  0
   94.1539    7.3459   37.3643 H   0  0  0  0  0  0  0  0  0  0  0  0
   95.2505    5.5203   38.4104 H   0  0  0  0  0  0  0  0  0  0  0  0
   94.0646    6.0900   39.6305 H   0  0  0  0  0  0  0  0  0  0  0  0
   92.3507    7.5036   40.0397 H   0  0  0  0  0  0  0  0  0  0  0  0
   93.4100    4.0040   39.6176 H   0  0  0  0  0  0  0  0  0  0  0  0
   92.6487    4.3613   38.1610 H   0  0  0  0  0  0  0  0  0  0  0  0
   94.1676    3.6389   38.1610 H   0  0  0  0  0  0  0  0  0  0  0  0
   95.2108    9.7024   31.6305 H   0  0  0  0  0  0  0  0  0  0  0  0
   96.8980    9.4617   29.9576 H   0  0  0  0  0  0  0  0  0  0  0  0
   96.6981    7.2223   32.6562 H   0  0  0  0  0  0  0  0  0  0  0  0
   97.1005    8.9401   33.0241 H   0  0  0  0  0  0  0  0  0  0  0  0
   94.9115    9.2443   34.1075 H   0  0  0  0  0  0  0  0  0  0  0  0
   95.4272    8.1349   36.0138 H   0  0  0  0  0  0  0  0  0  0  0  0
   96.0148    6.7700   35.2259 H   0  0  0  0  0  0  0  0  0  0  0  0
   96.9121    8.1926   35.2259 H   0  0  0  0  0  0  0  0  0  0  0  0
   94.3332    6.2699   33.4636 H   0  0  0  0  0  0  0  0  0  0  0  0
   93.0505    8.8290   32.6150 H   0  0  0  0  0  0  0  0  0  0  0  0
   91.8624    6.6540   32.8193 H   0  0  0  0  0  0  0  0  0  0  0  0
   94.7104    6.7978   30.9475 H   0  0  0  0  0  0  0  0  0  0  0  0
   94.5328    6.9208   28.9373 H   0  0  0  0  0  0  0  0  0  0  0  0
   93.6952    7.7613   26.8237 H   0  0  0  0  0  0  0  0  0  0  0  0
   94.9918    9.5022   28.6858 H   0  0  0  0  0  0  0  0  0  0  0  0
   92.2460    9.8626   28.4525 H   0  0  0  0  0  0  0  0  0  0  0  0
   92.4346   11.0207   26.5812 H   0  0  0  0  0  0  0  0  0  0  0  0
   93.2193    9.7685   25.7779 H   0  0  0  0  0  0  0  0  0  0  0  0
   91.5391    9.8452   25.7779 H   0  0  0  0  0  0  0  0  0  0  0  0
   91.2616    7.6068   26.6771 H   0  0  0  0  0  0  0  0  0  0  0  0
   89.6189    9.1909   28.3956 H   0  0  0  0  0  0  0  0  0  0  0  0
   91.0296    8.1103   29.6670 H   0  0  0  0  0  0  0  0  0  0  0  0
   89.2197    6.7644   29.4606 H   0  0  0  0  0  0  0  0  0  0  0  0
   89.6508    6.3044   27.7835 H   0  0  0  0  0  0  0  0  0  0  0  0
   90.5142    5.1747   30.2648 H   0  0  0  0  0  0  0  0  0  0  0  0
   89.9657    8.1851   35.1634 H   0  0  0  0  0  0  0  0  0  0  0  0
   90.1548    8.1660   38.4493 H   0  0  0  0  0  0  0  0  0  0  0  0
   99.8993    6.0126   31.6010 H   0  0  0  0  0  0  0  0  0  0  0  0
   99.4070    4.4648   31.1637 H   0  0  0  0  0  0  0  0  0  0  0  0
  101.0423    4.8587   31.1637 H   0  0  0  0  0  0  0  0  0  0  0  0
   97.9789    6.4702   28.1964 H   0  0  0  0  0  0  0  0  0  0  0  0
  100.2931    7.7293   28.9484 H   0  0  0  0  0  0  0  0  0  0  0  0
   99.5410    7.5340   30.5697 H   0  0  0  0  0  0  0  0  0  0  0  0
  100.9593    5.5288   29.0542 H   0  0  0  0  0  0  0  0  0  0  0  0
   99.2424    5.0388   29.0217 H   0  0  0  0  0  0  0  0  0  0  0  0
   98.0173    9.2349   28.9296 H   0  0  0  0  0  0  0  0  0  0  0  0
  1  2  1  0
  1  8  1  0
  1  9  1  0
  2  3  1  0
  2 32  1  0
  3  4  1  0
  3 33  1  0
  4  5  1  0
  4  7  1  0
  5  6  1  0
  5  9  1  0
  6 10  1  0
 16  8  1  0
 11 12  1  0
 11 13  1  0
 11 19  1  0
 12 35  1  0
 13 14  1  0
 14 15  1  0
 14 16  1  0
 16 17  1  0
 17 18  1  0
 17 19  1  0
 19 20  1  0
 21 20  1  0
 21 22  1  0
 21 29  1  0
 22 23  1  0
 22 24  1  0
 24 25  1  0
 24 26  1  0
 26 27  1  0
 26 28  1  0
 28 29  1  0
 28 30  1  0
 30 31  1  0
 34 39  1  0
 35 36  2  0
 35 37  1  0
 37 38  1  0
 37 40  1  0
 38 39  1  0
  1 41  1  6
  2 42  1  1
  3 43  1  6
  4 44  1  1
  5 45  1  6
  6 46  1  0
  6 47  1  0
  7 48  1  0
 10 49  1  0
 10 50  1  0
 10 51  1  0
 11 52  1  1
 12 53  1  0
 13 54  1  0
 13 55  1  0
 14 56  1  1
 15 57  1  0
 15 58  1  0
 15 59  1  0
 16 60  1  6
 17 61  1  1
 18 62  1  0
 19 63  1  6
 21 64  1  6
 22 65  1  6
 23 66  1  0
 24 67  1  1
 25 68  1  0
 25 69  1  0
 25 70  1  0
 26 71  1  6
 27 72  1  0
 28 73  1  1
 30 74  1  0
 30 75  1  0
 31 76  1  0
 32 77  1  0
 33 78  1  0
 34 79  1  0
 34 80  1  0
 34 81  1  0
 37 82  1  6
 38 83  1  0
 38 84  1  0
 39 85  1  0
 39 86  1  0
 40 87  1  0
M  CHG  4  10   1  15   1  25   1  34   1
M  END
>  <filename_input>  (25) 
6VTA_AKN_docked.sdf

>  <pdb_id>  (25) 
6VTA_AKN

>  <pose_rank>  (25) 
24

>  <num_atoms_heavy>  (25) 
40

>  <num_torsions>  (25) 
10

>  <pose>  (25) 
[95.59064861974626, 8.677275219159412, 31.508246220141153, 0.3251458961351307, -1.9843969974732611, 0.3555054060706326, 3.2537097843892266, -0.18852750741775934, -1.6981116428234975, 1.0914313819810033, 0.5909802620552693, 0.8099153338696585, -1.655920800927107, 0.39581568842301007, 0.3333575257348791, 1.4381195838533705]

>  <energy>  (25) 
-620.2510531978965

>  <inter_energy>  (25) 
-659.114628436556

>  <intra_energy>  (25) 
36.488813442423364

>  <rmsd>  (25) 
8.1025

>  <sdf_rank>  (25) 
0

$$$$

     RDKit          3D

 87 89  0  0  0  0  0  0  0  0999 V2000
   96.7380    8.4780   31.0790 C   0  0  1  0  0  0  0  0  0  0  0  0
   98.2300    8.6620   30.8470 C   0  0  1  0  0  0  0  0  0  0  0  0
   98.7210    7.6510   29.8700 C   0  0  2  0  0  0  0  0  0  0  0  0
   98.4830    6.2580   30.3640 C   0  0  1  0  0  0  0  0  0  0  0  0
   96.9970    6.0510   30.6560 C   0  0  1  0  0  0  0  0  0  0  0  0
   96.7600    4.7300   31.3180 C   0  0  0  0  0  0  0  0  0  0  0  0
   98.8450    5.3000   29.3630 O   0  0  0  0  0  0  0  0  0  0  0  0
   96.1060    8.7360   29.8750 O   0  0  0  0  0  0  0  0  0  0  0  0
   96.4850    7.0890   31.5550 O   0  0  0  0  0  0  0  0  0  0  0  0
   95.3640    4.6340   31.7060 N   0  0  0  0  0  0  0  0  0  0  0  0
   92.0340    9.3420   28.8490 C   0  0  2  0  0  0  0  0  0  0  0  0
   90.6480    9.0070   28.4990 N   0  0  0  0  0  0  0  0  0  0  0  0
   92.9400    8.5350   27.9170 C   0  0  0  0  0  0  0  0  0  0  0  0
   94.4190    8.7810   28.2660 C   0  0  2  0  0  0  0  0  0  0  0  0
   95.2860    8.0090   27.3710 N   0  0  0  0  0  0  0  0  0  0  0  0
   94.7070    8.4450   29.7320 C   0  0  2  0  0  0  0  0  0  0  0  0
   93.7980    9.2900   30.6380 C   0  0  2  0  0  0  0  0  0  0  0  0
   93.9700    8.9890   32.0030 O   0  0  0  0  0  0  0  0  0  0  0  0
   92.3070    9.0510   30.3310 C   0  0  1  0  0  0  0  0  0  0  0  0
   91.5580    9.9350   31.1510 O   0  0  0  0  0  0  0  0  0  0  0  0
   90.3350    9.4450   31.5580 C   0  0  2  0  0  0  0  0  0  0  0  0
   89.5020   10.5720   32.1390 C   0  0  2  0  0  0  0  0  0  0  0  0
   89.4070   11.6330   31.1680 O   0  0  0  0  0  0  0  0  0  0  0  0
   90.0930   11.0900   33.4140 C   0  0  1  0  0  0  0  0  0  0  0  0
   89.2300   12.1950   33.9500 N   0  0  0  0  0  0  0  0  0  0  0  0
   90.2070    9.9740   34.4220 C   0  0  2  0  0  0  0  0  0  0  0  0
   90.8050   10.4530   35.6340 O   0  0  0  0  0  0  0  0  0  0  0  0
   91.0690    8.8520   33.8540 C   0  0  2  0  0  0  0  0  0  0  0  0
   90.5320    8.3520   32.5740 O   0  0  0  0  0  0  0  0  0  0  0  0
   91.1500    7.6920   34.8070 C   0  0  0  0  0  0  0  0  0  0  0  0
   89.8450    7.2800   35.1330 O   0  0  0  0  0  0  0  0  0  0  0  0
   98.4380    9.9850   30.3360 O   0  0  0  0  0  0  0  0  0  0  0  0
  100.1360    7.8710   29.6890 O   0  0  0  0  0  0  0  0  0  0  0  0
   85.0340   10.2500   29.6500 N   0  0  0  0  0  0  0  0  0  0  0  0
   89.7240   10.0640   28.0650 C   0  0  0  0  0  0  0  0  0  0  0  0
   90.0680   11.1980   27.9920 O   0  0  0  0  0  0  0  0  0  0  0  0
   88.3050    9.6470   27.7150 C   0  0  2  0  0  0  0  0  0  0  0  0
   87.3520   10.2460   28.7840 C   0  0  0  0  0  0  0  0  0  0  0  0
   85.9370    9.6020   28.6470 C   0  0  0  0  0  0  0  0  0  0  0  0
   88.2510    8.2720   27.7780 O   0  0  0  0  0  0  0  0  0  0  0  0
   96.3501    9.1619   31.8483 H   0  0  0  0  0  0  0  0  0  0  0  0
   98.7837    8.5273   31.7879 H   0  0  0  0  0  0  0  0  0  0  0  0
   98.1781    7.7605   28.9196 H   0  0  0  0  0  0  0  0  0  0  0  0
   99.0898    6.1215   31.2713 H   0  0  0  0  0  0  0  0  0  0  0  0
   96.4769    6.0947   29.6877 H   0  0  0  0  0  0  0  0  0  0  0  0
   97.0037    3.9182   30.6169 H   0  0  0  0  0  0  0  0  0  0  0  0
   97.3982    4.6437   32.2098 H   0  0  0  0  0  0  0  0  0  0  0  0
   99.1590    4.4689   29.7998 H   0  0  0  0  0  0  0  0  0  0  0  0
   95.2928    4.6291   32.7335 H   0  0  0  0  0  0  0  0  0  0  0  0
   94.8468    5.4414   31.3298 H   0  0  0  0  0  0  0  0  0  0  0  0
   94.9622    3.7634   31.3298 H   0  0  0  0  0  0  0  0  0  0  0  0
   92.2316   10.4158   28.7149 H   0  0  0  0  0  0  0  0  0  0  0  0
   90.3234    8.0312   28.5577 H   0  0  0  0  0  0  0  0  0  0  0  0
   92.7140    7.4643   28.0285 H   0  0  0  0  0  0  0  0  0  0  0  0
   92.7594    8.8518   26.8792 H   0  0  0  0  0  0  0  0  0  0  0  0
   94.6330    9.8506   28.1242 H   0  0  0  0  0  0  0  0  0  0  0  0
   95.9319    7.4339   27.9304 H   0  0  0  0  0  0  0  0  0  0  0  0
   94.7084    7.3972   26.7768 H   0  0  0  0  0  0  0  0  0  0  0  0
   95.8269    8.6534   26.7768 H   0  0  0  0  0  0  0  0  0  0  0  0
   94.4986    7.4038   30.0192 H   0  0  0  0  0  0  0  0  0  0  0  0
   94.0859   10.3318   30.4335 H   0  0  0  0  0  0  0  0  0  0  0  0
   93.5615    9.7039   32.5526 H   0  0  0  0  0  0  0  0  0  0  0  0
   92.0244    8.0076   30.5345 H   0  0  0  0  0  0  0  0  0  0  0  0
   89.8032    9.0228   30.6926 H   0  0  0  0  0  0  0  0  0  0  0  0
   88.4995   10.1847   32.3735 H   0  0  0  0  0  0  0  0  0  0  0  0
   89.3292   12.5022   31.6355 H   0  0  0  0  0  0  0  0  0  0  0  0
   91.1010   11.4843   33.2176 H   0  0  0  0  0  0  0  0  0  0  0  0
   89.2461   12.1744   34.9797 H   0  0  0  0  0  0  0  0  0  0  0  0
   89.5887   13.1020   33.6191 H   0  0  0  0  0  0  0  0  0  0  0  0
   88.2631   12.0667   33.6191 H   0  0  0  0  0  0  0  0  0  0  0  0
   89.1968    9.5973   34.6400 H   0  0  0  0  0  0  0  0  0  0  0  0
   90.3269   10.0700   36.4117 H   0  0  0  0  0  0  0  0  0  0  0  0
   92.0698    9.2801   33.6953 H   0  0  0  0  0  0  0  0  0  0  0  0
   91.6922    6.8609   34.3323 H   0  0  0  0  0  0  0  0  0  0  0  0
   91.6847    7.9949   35.7193 H   0  0  0  0  0  0  0  0  0  0  0  0
   89.7452    7.2485   36.1174 H   0  0  0  0  0  0  0  0  0  0  0  0
   98.5376   10.6183   31.0904 H   0  0  0  0  0  0  0  0  0  0  0  0
  100.5752    7.9393   30.5736 H   0  0  0  0  0  0  0  0  0  0  0  0
   85.3555   10.0193   30.6010 H   0  0  0  0  0  0  0  0  0  0  0  0
   85.0529   11.2715   29.5196 H   0  0  0  0  0  0  0  0  0  0  0  0
   84.0723    9.9050   29.5196 H   0  0  0  0  0  0  0  0  0  0  0  0
   88.0139    9.9977   26.7139 H   0  0  0  0  0  0  0  0  0  0  0  0
   87.7522   10.0394   29.7876 H   0  0  0  0  0  0  0  0  0  0  0  0
   87.2737   11.3329   28.6342 H   0  0  0  0  0  0  0  0  0  0  0  0
   85.9982    8.5214   28.8432 H   0  0  0  0  0  0  0  0  0  0  0  0
   85.5466    9.7508   27.6294 H   0  0  0  0  0  0  0  0  0  0  0  0
   88.2397    7.9853   28.7255 H   0  0  0  0  0  0  0  0  0  0  0  0
  1  2  1  0
  1  8  1  0
  1  9  1  0
  2  3  1  0
  2 32  1  0
  3  4  1  0
  3 33  1  0
  4  5  1  0
  4  7  1  0
  5  6  1  0
  5  9  1  0
  6 10  1  0
 16  8  1  0
 11 12  1  0
 11 13  1  0
 11 19  1  0
 12 35  1  0
 13 14  1  0
 14 15  1  0
 14 16  1  0
 16 17  1  0
 17 18  1  0
 17 19  1  0
 19 20  1  0
 21 20  1  0
 21 22  1  0
 21 29  1  0
 22 23  1  0
 22 24  1  0
 24 25  1  0
 24 26  1  0
 26 27  1  0
 26 28  1  0
 28 29  1  0
 28 30  1  0
 30 31  1  0
 34 39  1  0
 35 36  2  0
 35 37  1  0
 37 38  1  0
 37 40  1  0
 38 39  1  0
  1 41  1  1
  2 42  1  1
  3 43  1  6
  4 44  1  1
  5 45  1  6
  6 46  1  0
  6 47  1  0
  7 48  1  0
 10 49  1  0
 10 50  1  0
 10 51  1  0
 11 52  1  1
 12 53  1  0
 13 54  1  0
 13 55  1  0
 14 56  1  1
 15 57  1  0
 15 58  1  0
 15 59  1  0
 16 60  1  6
 17 61  1  1
 18 62  1  0
 19 63  1  1
 21 64  1  6
 22 65  1  1
 23 66  1  0
 24 67  1  6
 25 68  1  0
 25 69  1  0
 25 70  1  0
 26 71  1  1
 27 72  1  0
 28 73  1  6
 30 74  1  0
 30 75  1  0
 31 76  1  0
 32 77  1  0
 33 78  1  0
 34 79  1  0
 34 80  1  0
 34 81  1  0
 37 82  1  6
 38 83  1  0
 38 84  1  0
 39 85  1  0
 39 86  1  0
 40 87  1  0
M  CHG  4  10   1  15   1  25   1  34   1
M  END
>  <filename_input>  (26) 
6VTA_AKN_docked.sdf

>  <pdb_id>  (26) 
6VTA_AKN

>  <pose_rank>  (26) 
25

>  <num_atoms_heavy>  (26) 
40

>  <num_torsions>  (26) 
10

>  <pose>  (26) 
[92.034, 9.342, 28.849, 1e-06, 1e-06, 1e-06, 0.0, 0.0, 0.0, 0.0, 0.0, 0.0, 0.0, 0.0, 0.0, 0.0]

>  <energy>  (26) 
-706.2747932235944

>  <inter_energy>  (26) 
-737.703269961931

>  <intra_energy>  (26) 
31.80465000691558

>  <rmsd>  (26) 
0.0

>  <sdf_rank>  (26) 
0

$$$$
