
     RDKit          3D

 41 44  0  0  0  0  0  0  0  0999 V2000
   21.9293   11.5107    4.6935 C   0  0  0  0  0  0  0  0  0  0  0  0
   20.8408   10.4072    4.3459 C   0  0  0  0  0  0  0  0  0  0  0  0
   19.5460   10.8304    5.1653 C   0  0  0  0  0  0  0  0  0  0  0  0
   19.7616   12.2646    5.5670 C   0  0  0  0  0  0  0  0  0  0  0  0
   21.2669   12.5562    5.6080 C   0  0  1  0  0  0  0  0  0  0  0  0
   21.8276   12.4014    7.0096 C   0  0  1  0  0  0  0  0  0  0  0  0
   23.3255   12.7152    6.9329 C   0  0  0  0  0  0  0  0  0  0  0  0
   24.0212   12.0912    8.0484 C   0  0  0  0  0  0  0  0  0  0  0  0
   24.5904   11.5555    8.8755 N   0  0  0  0  0  0  0  0  0  0  0  0
   21.2869   13.4202    7.9245 N   0  0  0  0  0  0  0  0  0  0  0  0
   20.9506   13.2270    9.2170 C   0  0  0  0  0  0  0  0  0  0  0  0
   21.1328   14.7730    7.6307 N   0  0  0  0  0  0  0  0  0  0  0  0
   20.6752   15.3783    8.7286 C   0  0  0  0  0  0  0  0  0  0  0  0
   20.5331   14.4348    9.7166 C   0  0  0  0  0  0  0  0  0  0  0  0
   20.1222   14.7001   11.1184 C   0  0  0  0  0  0  0  0  0  0  0  0
   20.2627   15.9669   11.4832 N   0  0  0  0  0  0  0  0  0  0  0  0
   19.9528   16.2818   12.7676 C   0  0  0  0  0  0  0  0  0  0  0  0
   19.5582   15.4502   13.7187 N   0  0  0  0  0  0  0  0  0  0  0  0
   19.4290   14.1529   13.3584 C   0  0  0  0  0  0  0  0  0  0  0  0
   19.7139   13.7390   12.0960 C   0  0  0  0  0  0  0  0  0  0  0  0
   19.5041   12.3795   12.0502 C   0  0  0  0  0  0  0  0  0  0  0  0
   19.0879   11.9881   13.2973 C   0  0  0  0  0  0  0  0  0  0  0  0
   19.0548   13.0822   14.0859 N   0  0  0  0  0  0  0  0  0  0  0  0
   22.7805   11.0458    5.2124 H   0  0  0  0  0  0  0  0  0  0  0  0
   22.3004   11.9862    3.7736 H   0  0  0  0  0  0  0  0  0  0  0  0
   20.6294   10.3998    3.2664 H   0  0  0  0  0  0  0  0  0  0  0  0
   21.1819    9.3948    4.6080 H   0  0  0  0  0  0  0  0  0  0  0  0
   18.6485   10.7403    4.5357 H   0  0  0  0  0  0  0  0  0  0  0  0
   19.3944   10.1841    6.0424 H   0  0  0  0  0  0  0  0  0  0  0  0
   19.2781   12.9283    4.8350 H   0  0  0  0  0  0  0  0  0  0  0  0
   19.3240   12.4397    6.5609 H   0  0  0  0  0  0  0  0  0  0  0  0
   21.4600   13.5901    5.2860 H   0  0  0  0  0  0  0  0  0  0  0  0
   21.5838   11.3899    7.3664 H   0  0  0  0  0  0  0  0  0  0  0  0
   23.7312   12.3268    5.9871 H   0  0  0  0  0  0  0  0  0  0  0  0
   23.4696   13.8046    6.9806 H   0  0  0  0  0  0  0  0  0  0  0  0
   21.0018   12.2765    9.7683 H   0  0  0  0  0  0  0  0  0  0  0  0
   20.4502   16.4506    8.8258 H   0  0  0  0  0  0  0  0  0  0  0  0
   20.0390   17.3421   13.0474 H   0  0  0  0  0  0  0  0  0  0  0  0
   19.6442   11.7275   11.1754 H   0  0  0  0  0  0  0  0  0  0  0  0
   18.8274   10.9634   13.6007 H   0  0  0  0  0  0  0  0  0  0  0  0
   18.7873   13.0968   15.0805 H   0  0  0  0  0  0  0  0  0  0  0  0
  1  2  1  0
  5  1  1  0
  2  3  1  0
  3  4  1  0
  4  5  1  0
  5  6  1  0
  6  7  1  0
  6 10  1  0
  7  8  1  0
  8  9  3  0
 10 11  1  0
 10 12  1  0
 11 14  2  0
 12 13  2  0
 13 14  1  0
 14 15  1  0
 15 16  2  0
 15 20  1  0
 16 17  1  0
 17 18  2  0
 18 19  1  0
 19 20  2  0
 19 23  1  0
 20 21  1  0
 21 22  2  0
 22 23  1  0
  1 24  1  0
  1 25  1  0
  2 26  1  0
  2 27  1  0
  3 28  1  0
  3 29  1  0
  4 30  1  0
  4 31  1  0
  5 32  1  6
  6 33  1  1
  7 34  1  0
  7 35  1  0
 11 36  1  0
 13 37  1  0
 17 38  1  0
 21 39  1  0
 22 40  1  0
 23 41  1  0
M  END
>  <filename_input>  (1) 
6WTN_RXT_docked.sdf

>  <pdb_id>  (1) 
6WTN_RXT

>  <pose_rank>  (1) 
0

>  <num_atoms_heavy>  (1) 
23

>  <num_torsions>  (1) 
5

>  <pose>  (1) 
[21.286853806755296, 13.420172952038616, 7.924500451227547, -1.0068581827732717, -5.087275704254559, -3.434083559334818, 6.213943891798554, -0.07818882092942046, -0.07347195404643829, 0.37972475649249665, -1.6667869948154064]

>  <energy>  (1) 
-2074.083316579366

>  <inter_energy>  (1) 
-2064.234740362684

>  <intra_energy>  (1) 
11.79397932879225

>  <rmsd>  (1) 
0.28653

>  <sdf_rank>  (1) 
0

$$$$

     RDKit          3D

 41 44  0  0  0  0  0  0  0  0999 V2000
   23.2506   10.9263    6.2360 C   0  0  0  0  0  0  0  0  0  0  0  0
   23.9037   11.1195    4.8009 C   0  0  0  0  0  0  0  0  0  0  0  0
   23.9597   12.6928    4.5800 C   0  0  0  0  0  0  0  0  0  0  0  0
   23.7703   13.3081    5.9403 C   0  0  0  0  0  0  0  0  0  0  0  0
   23.0133   12.3222    6.8390 C   0  0  1  0  0  0  0  0  0  0  0  0
   21.5220   12.6029    6.8438 C   0  0  1  0  0  0  0  0  0  0  0  0
   20.8252   11.3288    7.3328 C   0  0  0  0  0  0  0  0  0  0  0  0
   20.1079   10.7018    6.2327 C   0  0  0  0  0  0  0  0  0  0  0  0
   19.5226   10.2752    5.3549 N   0  0  0  0  0  0  0  0  0  0  0  0
   21.1662   13.6217    7.8452 N   0  0  0  0  0  0  0  0  0  0  0  0
   20.6945   13.3827    9.0866 C   0  0  0  0  0  0  0  0  0  0  0  0
   21.3578   14.9945    7.7077 N   0  0  0  0  0  0  0  0  0  0  0  0
   20.9712   15.5753    8.8454 C   0  0  0  0  0  0  0  0  0  0  0  0
   20.5348   14.5970    9.7051 C   0  0  0  0  0  0  0  0  0  0  0  0
   20.0899   14.8070   11.1059 C   0  0  0  0  0  0  0  0  0  0  0  0
   20.1858   16.0656   11.5115 N   0  0  0  0  0  0  0  0  0  0  0  0
   19.8425   16.3316   12.7984 C   0  0  0  0  0  0  0  0  0  0  0  0
   19.4551   15.4601   13.7160 N   0  0  0  0  0  0  0  0  0  0  0  0
   19.3714   14.1712   13.3143 C   0  0  0  0  0  0  0  0  0  0  0  0
   19.6921   13.8049   12.0458 C   0  0  0  0  0  0  0  0  0  0  0  0
   19.5238   12.4419   11.9549 C   0  0  0  0  0  0  0  0  0  0  0  0
   19.0961   12.0003   13.1812 C   0  0  0  0  0  0  0  0  0  0  0  0
   19.0155   13.0682   14.0017 N   0  0  0  0  0  0  0  0  0  0  0  0
   22.2936   10.3920    6.1424 H   0  0  0  0  0  0  0  0  0  0  0  0
   23.9161   10.3370    6.8839 H   0  0  0  0  0  0  0  0  0  0  0  0
   24.9159   10.6897    4.7762 H   0  0  0  0  0  0  0  0  0  0  0  0
   23.3261   10.6130    4.0136 H   0  0  0  0  0  0  0  0  0  0  0  0
   24.9333   12.9856    4.1600 H   0  0  0  0  0  0  0  0  0  0  0  0
   23.1863   13.0289    3.8738 H   0  0  0  0  0  0  0  0  0  0  0  0
   24.7522   13.5305    6.3834 H   0  0  0  0  0  0  0  0  0  0  0  0
   23.1940   14.2404    5.8471 H   0  0  0  0  0  0  0  0  0  0  0  0
   23.3699   12.4066    7.8762 H   0  0  0  0  0  0  0  0  0  0  0  0
   21.2319   12.9316    5.8349 H   0  0  0  0  0  0  0  0  0  0  0  0
   21.5783   10.6284    7.7232 H   0  0  0  0  0  0  0  0  0  0  0  0
   20.1113   11.5895    8.1280 H   0  0  0  0  0  0  0  0  0  0  0  0
   20.4778   12.3962    9.5224 H   0  0  0  0  0  0  0  0  0  0  0  0
   20.9976   16.6542    9.0584 H   0  0  0  0  0  0  0  0  0  0  0  0
   19.8919   17.3849   13.1118 H   0  0  0  0  0  0  0  0  0  0  0  0
   19.6996   11.8214   11.0637 H   0  0  0  0  0  0  0  0  0  0  0  0
   18.8605   10.9595   13.4483 H   0  0  0  0  0  0  0  0  0  0  0  0
   18.7291   13.0444   14.9908 H   0  0  0  0  0  0  0  0  0  0  0  0
  1  2  1  0
  5  1  1  0
  2  3  1  0
  3  4  1  0
  4  5  1  0
  5  6  1  0
  6  7  1  0
  6 10  1  0
  7  8  1  0
  8  9  3  0
 10 11  1  0
 10 12  1  0
 11 14  2  0
 12 13  2  0
 13 14  1  0
 14 15  1  0
 15 16  2  0
 15 20  1  0
 16 17  1  0
 17 18  2  0
 18 19  1  0
 19 20  2  0
 19 23  1  0
 20 21  1  0
 21 22  2  0
 22 23  1  0
  1 24  1  0
  1 25  1  0
  2 26  1  0
  2 27  1  0
  3 28  1  0
  3 29  1  0
  4 30  1  0
  4 31  1  0
  5 32  1  1
  6 33  1  6
  7 34  1  0
  7 35  1  0
 11 36  1  0
 13 37  1  0
 17 38  1  0
 21 39  1  0
 22 40  1  0
 23 41  1  0
M  END
>  <filename_input>  (2) 
6WTN_RXT_docked.sdf

>  <pdb_id>  (2) 
6WTN_RXT

>  <pose_rank>  (2) 
1

>  <num_atoms_heavy>  (2) 
23

>  <num_torsions>  (2) 
5

>  <pose>  (2) 
[21.166242179734144, 13.621715108099862, 7.845210398326514, -3.213184777839173, 0.42202407975806044, 5.099497146597269, 0.2178802156109828, 2.029503288287338, -0.41502899045809105, -5.073835867749605, 1.9877490527143586]

>  <energy>  (2) 
-1916.0621985610476

>  <inter_energy>  (2) 
-1952.4516926108947

>  <intra_energy>  (2) 
24.269064204747416

>  <rmsd>  (2) 
2.36455

>  <sdf_rank>  (2) 
0

$$$$

     RDKit          3D

 41 44  0  0  0  0  0  0  0  0999 V2000
   23.5082   11.6638    6.8060 C   0  0  0  0  0  0  0  0  0  0  0  0
   24.3939   11.9273    8.0981 C   0  0  0  0  0  0  0  0  0  0  0  0
   23.3553   12.2974    9.2433 C   0  0  0  0  0  0  0  0  0  0  0  0
   22.0099   11.8451    8.7431 C   0  0  0  0  0  0  0  0  0  0  0  0
   22.0298   11.8028    7.2100 C   0  0  1  0  0  0  0  0  0  0  0  0
   21.4796   13.0830    6.6089 C   0  0  1  0  0  0  0  0  0  0  0  0
   20.2318   12.7031    5.8047 C   0  0  0  0  0  0  0  0  0  0  0  0
   20.3592   11.3429    5.3035 C   0  0  0  0  0  0  0  0  0  0  0  0
   20.4641   10.2574    4.9783 N   0  0  0  0  0  0  0  0  0  0  0  0
   20.9803   13.9981    7.6484 N   0  0  0  0  0  0  0  0  0  0  0  0
   20.6812   13.6647    8.9213 C   0  0  0  0  0  0  0  0  0  0  0  0
   20.8349   15.3767    7.5124 N   0  0  0  0  0  0  0  0  0  0  0  0
   20.4189   15.8596    8.6849 C   0  0  0  0  0  0  0  0  0  0  0  0
   20.2948   14.8129    9.5655 C   0  0  0  0  0  0  0  0  0  0  0  0
   19.9304   14.9236   11.0005 C   0  0  0  0  0  0  0  0  0  0  0  0
   19.9464   16.1675   11.4590 N   0  0  0  0  0  0  0  0  0  0  0  0
   19.6705   16.3477   12.7766 C   0  0  0  0  0  0  0  0  0  0  0  0
   19.4221   15.4075   13.6744 N   0  0  0  0  0  0  0  0  0  0  0  0
   19.4211   14.1344   13.2176 C   0  0  0  0  0  0  0  0  0  0  0  0
   19.6844   13.8515   11.9149 C   0  0  0  0  0  0  0  0  0  0  0  0
   19.6267   12.4841   11.7698 C   0  0  0  0  0  0  0  0  0  0  0  0
   19.3229   11.9552   12.9985 C   0  0  0  0  0  0  0  0  0  0  0  0
   19.2081   12.9764   13.8727 N   0  0  0  0  0  0  0  0  0  0  0  0
   23.7540   12.4012    6.0276 H   0  0  0  0  0  0  0  0  0  0  0  0
   23.7034   10.6578    6.4060 H   0  0  0  0  0  0  0  0  0  0  0  0
   24.9611   11.0243    8.3683 H   0  0  0  0  0  0  0  0  0  0  0  0
   25.1314   12.7271    7.9363 H   0  0  0  0  0  0  0  0  0  0  0  0
   23.6122   11.7743   10.1763 H   0  0  0  0  0  0  0  0  0  0  0  0
   23.3629   13.3754    9.4620 H   0  0  0  0  0  0  0  0  0  0  0  0
   21.7898   10.8415    9.1360 H   0  0  0  0  0  0  0  0  0  0  0  0
   21.2342   12.5468    9.0834 H   0  0  0  0  0  0  0  0  0  0  0  0
   21.4071   10.9718    6.8472 H   0  0  0  0  0  0  0  0  0  0  0  0
   22.2806   13.5589    6.0242 H   0  0  0  0  0  0  0  0  0  0  0  0
   19.3457   12.7713    6.4529 H   0  0  0  0  0  0  0  0  0  0  0  0
   20.1255   13.3933    4.9547 H   0  0  0  0  0  0  0  0  0  0  0  0
   20.7369   12.6581    9.3613 H   0  0  0  0  0  0  0  0  0  0  0  0
   20.2108   16.9165    8.9082 H   0  0  0  0  0  0  0  0  0  0  0  0
   19.6514   17.3871   13.1363 H   0  0  0  0  0  0  0  0  0  0  0  0
   19.7934   11.9197   10.8405 H   0  0  0  0  0  0  0  0  0  0  0  0
   19.1955   10.8875   13.2301 H   0  0  0  0  0  0  0  0  0  0  0  0
   18.9930   12.8857   14.8759 H   0  0  0  0  0  0  0  0  0  0  0  0
  1  2  1  0
  5  1  1  0
  2  3  1  0
  3  4  1  0
  4  5  1  0
  5  6  1  0
  6  7  1  0
  6 10  1  0
  7  8  1  0
  8  9  3  0
 10 11  1  0
 10 12  1  0
 11 14  2  0
 12 13  2  0
 13 14  1  0
 14 15  1  0
 15 16  2  0
 15 20  1  0
 16 17  1  0
 17 18  2  0
 18 19  1  0
 19 20  2  0
 19 23  1  0
 20 21  1  0
 21 22  2  0
 22 23  1  0
  1 24  1  0
  1 25  1  0
  2 26  1  0
  2 27  1  0
  3 28  1  0
  3 29  1  0
  4 30  1  0
  4 31  1  0
  5 32  1  6
  6 33  1  6
  7 34  1  0
  7 35  1  0
 11 36  1  0
 13 37  1  0
 17 38  1  0
 21 39  1  0
 22 40  1  0
 23 41  1  0
M  END
>  <filename_input>  (3) 
6WTN_RXT_docked.sdf

>  <pdb_id>  (3) 
6WTN_RXT

>  <pose_rank>  (3) 
2

>  <num_atoms_heavy>  (3) 
23

>  <num_torsions>  (3) 
5

>  <pose>  (3) 
[20.980269289085065, 13.998050911817533, 7.6484125804226, -5.04303038178807, -3.3189688049109565, -1.0831298884177338, 6.345553456901542, -15.423779951610788, 7.29680402643606, 2.6129932673732896, -2.4640217279581416]

>  <energy>  (3) 
-1640.697016666916

>  <inter_energy>  (3) 
-1755.3002248065318

>  <intra_energy>  (3) 
116.80998528562164

>  <rmsd>  (3) 
2.69539

>  <sdf_rank>  (3) 
0

$$$$

     RDKit          3D

 41 44  0  0  0  0  0  0  0  0999 V2000
   19.0129   11.8941    5.0561 C   0  0  0  0  0  0  0  0  0  0  0  0
   19.2142   10.3323    4.8471 C   0  0  0  0  0  0  0  0  0  0  0  0
   19.8188    9.8055    6.2198 C   0  0  0  0  0  0  0  0  0  0  0  0
   19.5561   10.8896    7.2301 C   0  0  0  0  0  0  0  0  0  0  0  0
   19.4123   12.2326    6.5032 C   0  0  1  0  0  0  0  0  0  0  0  0
   20.7225   12.9979    6.4799 C   0  0  1  0  0  0  0  0  0  0  0  0
   20.6211   14.0304    5.3523 C   0  0  0  0  0  0  0  0  0  0  0  0
   21.9431   14.3029    4.8083 C   0  0  0  0  0  0  0  0  0  0  0  0
   22.9613   14.5847    4.3851 N   0  0  0  0  0  0  0  0  0  0  0  0
   20.9003   13.8039    7.6990 N   0  0  0  0  0  0  0  0  0  0  0  0
   20.1295   13.7492    8.8052 C   0  0  0  0  0  0  0  0  0  0  0  0
   21.9559   14.6786    7.9451 N   0  0  0  0  0  0  0  0  0  0  0  0
   21.7989   15.1697    9.1761 C   0  0  0  0  0  0  0  0  0  0  0  0
   20.6606   14.6248    9.7183 C   0  0  0  0  0  0  0  0  0  0  0  0
   20.1643   14.8469   11.0998 C   0  0  0  0  0  0  0  0  0  0  0  0
   20.2101   16.1150   11.4841 N   0  0  0  0  0  0  0  0  0  0  0  0
   19.8174   16.3941   12.7539 C   0  0  0  0  0  0  0  0  0  0  0  0
   19.4259   15.5283   13.6752 N   0  0  0  0  0  0  0  0  0  0  0  0
   19.3930   14.2303   13.2958 C   0  0  0  0  0  0  0  0  0  0  0  0
   19.7655   13.8507   12.0455 C   0  0  0  0  0  0  0  0  0  0  0  0
   19.6401   12.4818   11.9755 C   0  0  0  0  0  0  0  0  0  0  0  0
   19.1857   12.0501   13.1957 C   0  0  0  0  0  0  0  0  0  0  0  0
   19.0473   13.1300   13.9925 N   0  0  0  0  0  0  0  0  0  0  0  0
   19.6497   12.4505    4.3526 H   0  0  0  0  0  0  0  0  0  0  0  0
   17.9650   12.1735    4.8723 H   0  0  0  0  0  0  0  0  0  0  0  0
   18.2516    9.8436    4.6363 H   0  0  0  0  0  0  0  0  0  0  0  0
   19.8737   10.1121    3.9947 H   0  0  0  0  0  0  0  0  0  0  0  0
   19.3227    8.8718    6.5229 H   0  0  0  0  0  0  0  0  0  0  0  0
   20.8936    9.5889    6.1306 H   0  0  0  0  0  0  0  0  0  0  0  0
   18.6281   10.6659    7.7767 H   0  0  0  0  0  0  0  0  0  0  0  0
   20.3933   10.9423    7.9416 H   0  0  0  0  0  0  0  0  0  0  0  0
   18.6699   12.8617    7.0160 H   0  0  0  0  0  0  0  0  0  0  0  0
   21.5416   12.2718    6.3711 H   0  0  0  0  0  0  0  0  0  0  0  0
   19.9730   13.6373    4.5552 H   0  0  0  0  0  0  0  0  0  0  0  0
   20.1957   14.9625    5.7525 H   0  0  0  0  0  0  0  0  0  0  0  0
   19.2394   13.1189    8.9485 H   0  0  0  0  0  0  0  0  0  0  0  0
   22.4674   15.8888    9.6721 H   0  0  0  0  0  0  0  0  0  0  0  0
   19.8257   17.4539   13.0485 H   0  0  0  0  0  0  0  0  0  0  0  0
   19.8630   11.8508   11.1025 H   0  0  0  0  0  0  0  0  0  0  0  0
   18.9721   11.0079   13.4750 H   0  0  0  0  0  0  0  0  0  0  0  0
   18.7296   13.1157   14.9721 H   0  0  0  0  0  0  0  0  0  0  0  0
  1  2  1  0
  5  1  1  0
  2  3  1  0
  3  4  1  0
  4  5  1  0
  5  6  1  0
  6  7  1  0
  6 10  1  0
  7  8  1  0
  8  9  3  0
 10 11  1  0
 10 12  1  0
 11 14  2  0
 12 13  2  0
 13 14  1  0
 14 15  1  0
 15 16  2  0
 15 20  1  0
 16 17  1  0
 17 18  2  0
 18 19  1  0
 19 20  2  0
 19 23  1  0
 20 21  1  0
 21 22  2  0
 22 23  1  0
  1 24  1  0
  1 25  1  0
  2 26  1  0
  2 27  1  0
  3 28  1  0
  3 29  1  0
  4 30  1  0
  4 31  1  0
  5 32  1  1
  6 33  1  6
  7 34  1  0
  7 35  1  0
 11 36  1  0
 13 37  1  0
 17 38  1  0
 21 39  1  0
 22 40  1  0
 23 41  1  0
M  END
>  <filename_input>  (4) 
6WTN_RXT_docked.sdf

>  <pdb_id>  (4) 
6WTN_RXT

>  <pose_rank>  (4) 
3

>  <num_atoms_heavy>  (4) 
23

>  <num_torsions>  (4) 
5

>  <pose>  (4) 
[20.90025963139784, 13.803856134078025, 7.698966134145714, 0.3757269756804337, -0.19015771468629147, -0.931871960096942, -5.248780367380795, -2.3881716362491403, -0.4180600301611726, 0.4912085620216778, 0.4254689649642506]

>  <energy>  (4) 
-1827.1466796756936

>  <inter_energy>  (4) 
-1827.7124116399982

>  <intra_energy>  (4) 
19.532311551627004

>  <rmsd>  (4) 
2.10444

>  <sdf_rank>  (4) 
0

$$$$

     RDKit          3D

 41 44  0  0  0  0  0  0  0  0999 V2000
   23.7379   13.0823    7.5162 C   0  0  0  0  0  0  0  0  0  0  0  0
   22.9299   11.8076    7.0205 C   0  0  0  0  0  0  0  0  0  0  0  0
   22.3559   12.2104    5.5938 C   0  0  0  0  0  0  0  0  0  0  0  0
   23.1428   13.4167    5.1574 C   0  0  0  0  0  0  0  0  0  0  0  0
   23.6917   14.1362    6.3958 C   0  0  1  0  0  0  0  0  0  0  0  0
   22.7822   15.2701    6.8317 C   0  0  1  0  0  0  0  0  0  0  0  0
   21.9376   15.6634    5.6152 C   0  0  0  0  0  0  0  0  0  0  0  0
   22.4395   16.9033    5.0422 C   0  0  0  0  0  0  0  0  0  0  0  0
   22.7808   17.9070    4.6283 N   0  0  0  0  0  0  0  0  0  0  0  0
   21.7983   14.8213    7.8306 N   0  0  0  0  0  0  0  0  0  0  0  0
   21.7177   15.2435    9.1096 C   0  0  0  0  0  0  0  0  0  0  0  0
   20.7276   13.9648    7.5851 N   0  0  0  0  0  0  0  0  0  0  0  0
   20.0316   13.8484    8.7180 C   0  0  0  0  0  0  0  0  0  0  0  0
   20.6410   14.6141    9.6818 C   0  0  0  0  0  0  0  0  0  0  0  0
   20.1455   14.8249   11.0653 C   0  0  0  0  0  0  0  0  0  0  0  0
   20.2093   16.0868   11.4669 N   0  0  0  0  0  0  0  0  0  0  0  0
   19.8185   16.3545   12.7397 C   0  0  0  0  0  0  0  0  0  0  0  0
   19.4125   15.4821   13.6486 N   0  0  0  0  0  0  0  0  0  0  0  0
   19.3612   14.1901   13.2516 C   0  0  0  0  0  0  0  0  0  0  0  0
   19.7303   13.8219   11.9968 C   0  0  0  0  0  0  0  0  0  0  0  0
   19.5849   12.4561   11.9080 C   0  0  0  0  0  0  0  0  0  0  0  0
   19.1220   12.0147   13.1215 C   0  0  0  0  0  0  0  0  0  0  0  0
   18.9981   13.0856   13.9327 N   0  0  0  0  0  0  0  0  0  0  0  0
   23.2754   13.4863    8.4288 H   0  0  0  0  0  0  0  0  0  0  0  0
   24.7791   12.8111    7.7448 H   0  0  0  0  0  0  0  0  0  0  0  0
   23.5964   10.9365    6.9367 H   0  0  0  0  0  0  0  0  0  0  0  0
   22.1306   11.5275    7.7224 H   0  0  0  0  0  0  0  0  0  0  0  0
   22.4930   11.3853    4.8795 H   0  0  0  0  0  0  0  0  0  0  0  0
   21.2782   12.4263    5.6388 H   0  0  0  0  0  0  0  0  0  0  0  0
   23.9781   13.0988    4.5162 H   0  0  0  0  0  0  0  0  0  0  0  0
   22.4903   14.0989    4.5926 H   0  0  0  0  0  0  0  0  0  0  0  0
   24.6784   14.5691    6.1745 H   0  0  0  0  0  0  0  0  0  0  0  0
   23.4104   16.0757    7.2396 H   0  0  0  0  0  0  0  0  0  0  0  0
   21.9916   14.8650    4.8605 H   0  0  0  0  0  0  0  0  0  0  0  0
   20.8938   15.8075    5.9310 H   0  0  0  0  0  0  0  0  0  0  0  0
   22.3910   15.9601    9.6028 H   0  0  0  0  0  0  0  0  0  0  0  0
   19.1242   13.2422    8.8563 H   0  0  0  0  0  0  0  0  0  0  0  0
   19.8419   17.4100   13.0486 H   0  0  0  0  0  0  0  0  0  0  0  0
   19.8001   11.8337   11.0269 H   0  0  0  0  0  0  0  0  0  0  0  0
   18.8925   10.9720   13.3864 H   0  0  0  0  0  0  0  0  0  0  0  0
   18.6784   13.0627   14.9116 H   0  0  0  0  0  0  0  0  0  0  0  0
  1  2  1  0
  5  1  1  0
  2  3  1  0
  3  4  1  0
  4  5  1  0
  5  6  1  0
  6  7  1  0
  6 10  1  0
  7  8  1  0
  8  9  3  0
 10 11  1  0
 10 12  1  0
 11 14  2  0
 12 13  2  0
 13 14  1  0
 14 15  1  0
 15 16  2  0
 15 20  1  0
 16 17  1  0
 17 18  2  0
 18 19  1  0
 19 20  2  0
 19 23  1  0
 20 21  1  0
 21 22  2  0
 22 23  1  0
  1 24  1  0
  1 25  1  0
  2 26  1  0
  2 27  1  0
  3 28  1  0
  3 29  1  0
  4 30  1  0
  4 31  1  0
  5 32  1  6
  6 33  1  1
  7 34  1  0
  7 35  1  0
 11 36  1  0
 13 37  1  0
 17 38  1  0
 21 39  1  0
 22 40  1  0
 23 41  1  0
M  END
>  <filename_input>  (5) 
6WTN_RXT_docked.sdf

>  <pdb_id>  (5) 
6WTN_RXT

>  <pose_rank>  (5) 
4

>  <num_atoms_heavy>  (5) 
23

>  <num_torsions>  (5) 
5

>  <pose>  (5) 
[21.79826742052082, 14.821320060299852, 7.830565723345043, 1.2992416106742817, -0.697090296699679, -3.909572520661293, -2.1097706022988616, -0.5340555907582134, -3.5936147054298937, 1.3087094496225347, 1.0429505888294077]

>  <energy>  (5) 
-1814.4635529455736

>  <inter_energy>  (5) 
-1848.5327421197908

>  <intra_energy>  (5) 
49.96783026185114

>  <rmsd>  (5) 
2.84345

>  <sdf_rank>  (5) 
0

$$$$

     RDKit          3D

 41 44  0  0  0  0  0  0  0  0999 V2000
   23.8992   16.4694    5.5167 C   0  0  0  0  0  0  0  0  0  0  0  0
   23.6781   17.8169    4.7051 C   0  0  0  0  0  0  0  0  0  0  0  0
   22.4651   18.5435    5.4317 C   0  0  0  0  0  0  0  0  0  0  0  0
   22.3288   17.8775    6.7743 C   0  0  0  0  0  0  0  0  0  0  0  0
   22.9104   16.4603    6.6959 C   0  0  1  0  0  0  0  0  0  0  0  0
   21.8323   15.4289    6.4188 C   0  0  1  0  0  0  0  0  0  0  0  0
   22.4895   14.2905    5.6313 C   0  0  0  0  0  0  0  0  0  0  0  0
   21.8923   14.1929    4.3078 C   0  0  0  0  0  0  0  0  0  0  0  0
   21.4837   14.0836    3.2513 N   0  0  0  0  0  0  0  0  0  0  0  0
   21.3615   14.7913    7.6594 N   0  0  0  0  0  0  0  0  0  0  0  0
   21.0847   15.4222    8.8196 C   0  0  0  0  0  0  0  0  0  0  0  0
   21.0275   13.4467    7.8030 N   0  0  0  0  0  0  0  0  0  0  0  0
   20.5868   13.2678    9.0500 C   0  0  0  0  0  0  0  0  0  0  0  0
   20.6358   14.4744    9.7044 C   0  0  0  0  0  0  0  0  0  0  0  0
   20.1631   14.7319   11.0880 C   0  0  0  0  0  0  0  0  0  0  0  0
   20.2791   15.9983   11.4628 N   0  0  0  0  0  0  0  0  0  0  0  0
   19.9119   16.3064   12.7336 C   0  0  0  0  0  0  0  0  0  0  0  0
   19.4824   15.4688   13.6641 N   0  0  0  0  0  0  0  0  0  0  0  0
   19.3778   14.1719   13.2942 C   0  0  0  0  0  0  0  0  0  0  0  0
   19.7196   13.7646   12.0439 C   0  0  0  0  0  0  0  0  0  0  0  0
   19.5213   12.4039   11.9846 C   0  0  0  0  0  0  0  0  0  0  0  0
   19.0545   12.0051   13.2113 C   0  0  0  0  0  0  0  0  0  0  0  0
   18.9798   13.0962   14.0014 N   0  0  0  0  0  0  0  0  0  0  0  0
   23.7103   15.6045    4.8638 H   0  0  0  0  0  0  0  0  0  0  0  0
   24.9343   16.4084    5.8839 H   0  0  0  0  0  0  0  0  0  0  0  0
   24.5818   18.4430    4.7426 H   0  0  0  0  0  0  0  0  0  0  0  0
   23.4685   17.6281    3.6419 H   0  0  0  0  0  0  0  0  0  0  0  0
   22.6804   19.6150    5.5563 H   0  0  0  0  0  0  0  0  0  0  0  0
   21.5376   18.4639    4.8457 H   0  0  0  0  0  0  0  0  0  0  0  0
   22.8768   18.4586    7.5306 H   0  0  0  0  0  0  0  0  0  0  0  0
   21.2665   17.8259    7.0550 H   0  0  0  0  0  0  0  0  0  0  0  0
   23.3861   16.1941    7.6513 H   0  0  0  0  0  0  0  0  0  0  0  0
   21.0022   15.9316    5.9009 H   0  0  0  0  0  0  0  0  0  0  0  0
   23.5665   14.4909    5.5313 H   0  0  0  0  0  0  0  0  0  0  0  0
   22.3352   13.3431    6.1684 H   0  0  0  0  0  0  0  0  0  0  0  0
   21.1981   16.4980    9.0193 H   0  0  0  0  0  0  0  0  0  0  0  0
   20.2428   12.3158    9.4805 H   0  0  0  0  0  0  0  0  0  0  0  0
   19.9787   17.3662   13.0205 H   0  0  0  0  0  0  0  0  0  0  0  0
   19.7034   11.7560   11.1145 H   0  0  0  0  0  0  0  0  0  0  0  0
   18.7881   10.9776   13.4997 H   0  0  0  0  0  0  0  0  0  0  0  0
   18.6697   13.1053   14.9835 H   0  0  0  0  0  0  0  0  0  0  0  0
  1  2  1  0
  5  1  1  0
  2  3  1  0
  3  4  1  0
  4  5  1  0
  5  6  1  0
  6  7  1  0
  6 10  1  0
  7  8  1  0
  8  9  3  0
 10 11  1  0
 10 12  1  0
 11 14  2  0
 12 13  2  0
 13 14  1  0
 14 15  1  0
 15 16  2  0
 15 20  1  0
 16 17  1  0
 17 18  2  0
 18 19  1  0
 19 20  2  0
 19 23  1  0
 20 21  1  0
 21 22  2  0
 22 23  1  0
  1 24  1  0
  1 25  1  0
  2 26  1  0
  2 27  1  0
  3 28  1  0
  3 29  1  0
  4 30  1  0
  4 31  1  0
  5 32  1  1
  6 33  1  6
  7 34  1  0
  7 35  1  0
 11 36  1  0
 13 37  1  0
 17 38  1  0
 21 39  1  0
 22 40  1  0
 23 41  1  0
M  END
>  <filename_input>  (6) 
6WTN_RXT_docked.sdf

>  <pdb_id>  (6) 
6WTN_RXT

>  <pose_rank>  (6) 
5

>  <num_atoms_heavy>  (6) 
23

>  <num_torsions>  (6) 
5

>  <pose>  (6) 
[21.36154969368854, 14.791293445869231, 7.659387316467025, -0.8898765717554815, 0.5236068624661117, 2.615207467595738, -2.844282753583567, -1.792186480108376, -0.6036637007414398, 1.0870817788796439, -0.7517831177728734]

>  <energy>  (6) 
-1759.4545028505534

>  <inter_energy>  (6) 
-1779.0464952191564

>  <intra_energy>  (6) 
22.10363467572388

>  <rmsd>  (6) 
3.72574

>  <sdf_rank>  (6) 
0

$$$$

     RDKit          3D

 41 44  0  0  0  0  0  0  0  0999 V2000
   22.2929   11.2620    4.5534 C   0  0  0  0  0  0  0  0  0  0  0  0
   21.4389   10.0542    3.9745 C   0  0  0  0  0  0  0  0  0  0  0  0
   19.9830   10.2477    4.5828 C   0  0  0  0  0  0  0  0  0  0  0  0
   19.9294   11.6659    5.0834 C   0  0  0  0  0  0  0  0  0  0  0  0
   21.3531   12.1461    5.3920 C   0  0  1  0  0  0  0  0  0  0  0  0
   21.6971   11.9670    6.8591 C   0  0  1  0  0  0  0  0  0  0  0  0
   23.2239   12.0260    6.9744 C   0  0  0  0  0  0  0  0  0  0  0  0
   23.6191   11.9610    8.3735 C   0  0  0  0  0  0  0  0  0  0  0  0
   23.9518   11.8450    9.4556 N   0  0  0  0  0  0  0  0  0  0  0  0
   21.2249   13.1025    7.6684 N   0  0  0  0  0  0  0  0  0  0  0  0
   20.9603   13.0777    8.9913 C   0  0  0  0  0  0  0  0  0  0  0  0
   21.0747   14.4118    7.2174 N   0  0  0  0  0  0  0  0  0  0  0  0
   20.6898   15.1579    8.2549 C   0  0  0  0  0  0  0  0  0  0  0  0
   20.5902   14.3468    9.3589 C   0  0  0  0  0  0  0  0  0  0  0  0
   20.2643   14.7921   10.7372 C   0  0  0  0  0  0  0  0  0  0  0  0
   19.8222   13.8180   11.5204 N   0  0  0  0  0  0  0  0  0  0  0  0
   19.4568   14.1544   12.7845 C   0  0  0  0  0  0  0  0  0  0  0  0
   19.4556   15.3658   13.3177 N   0  0  0  0  0  0  0  0  0  0  0  0
   19.8892   16.3676   12.5190 C   0  0  0  0  0  0  0  0  0  0  0  0
   20.2779   16.1317   11.2386 C   0  0  0  0  0  0  0  0  0  0  0  0
   20.6425   17.3397   10.6889 C   0  0  0  0  0  0  0  0  0  0  0  0
   20.4703   18.2973   11.6559 C   0  0  0  0  0  0  0  0  0  0  0  0
   20.0027   17.6876   12.7648 N   0  0  0  0  0  0  0  0  0  0  0  0
   23.1059   10.8758    5.1858 H   0  0  0  0  0  0  0  0  0  0  0  0
   22.7373   11.8451    3.7333 H   0  0  0  0  0  0  0  0  0  0  0  0
   21.4070   10.0954    2.8757 H   0  0  0  0  0  0  0  0  0  0  0  0
   21.8710    9.0785    4.2416 H   0  0  0  0  0  0  0  0  0  0  0  0
   19.2199   10.0868    3.8071 H   0  0  0  0  0  0  0  0  0  0  0  0
   19.7838    9.5271    5.3897 H   0  0  0  0  0  0  0  0  0  0  0  0
   19.4824   12.3113    4.3130 H   0  0  0  0  0  0  0  0  0  0  0  0
   19.3177   11.7126    5.9964 H   0  0  0  0  0  0  0  0  0  0  0  0
   21.4496   13.2164    5.1572 H   0  0  0  0  0  0  0  0  0  0  0  0
   21.2423   11.0271    7.2054 H   0  0  0  0  0  0  0  0  0  0  0  0
   23.6635   11.1762    6.4316 H   0  0  0  0  0  0  0  0  0  0  0  0
   23.5830   12.9709    6.5407 H   0  0  0  0  0  0  0  0  0  0  0  0
   21.0287   12.2017    9.6530 H   0  0  0  0  0  0  0  0  0  0  0  0
   20.4869   16.2387    8.2301 H   0  0  0  0  0  0  0  0  0  0  0  0
   19.1263   13.3315   13.4353 H   0  0  0  0  0  0  0  0  0  0  0  0
   21.0048   17.5064    9.6637 H   0  0  0  0  0  0  0  0  0  0  0  0
   20.6770   19.3721   11.5464 H   0  0  0  0  0  0  0  0  0  0  0  0
   19.7707   18.1543   13.6532 H   0  0  0  0  0  0  0  0  0  0  0  0
  1  2  1  0
  5  1  1  0
  2  3  1  0
  3  4  1  0
  4  5  1  0
  5  6  1  0
  6  7  1  0
  6 10  1  0
  7  8  1  0
  8  9  3  0
 10 11  1  0
 10 12  1  0
 11 14  2  0
 12 13  2  0
 13 14  1  0
 14 15  1  0
 15 16  2  0
 15 20  1  0
 16 17  1  0
 17 18  2  0
 18 19  1  0
 19 20  2  0
 19 23  1  0
 20 21  1  0
 21 22  2  0
 22 23  1  0
  1 24  1  0
  1 25  1  0
  2 26  1  0
  2 27  1  0
  3 28  1  0
  3 29  1  0
  4 30  1  0
  4 31  1  0
  5 32  1  6
  6 33  1  1
  7 34  1  0
  7 35  1  0
 11 36  1  0
 13 37  1  0
 17 38  1  0
 21 39  1  0
 22 40  1  0
 23 41  1  0
M  END
>  <filename_input>  (7) 
6WTN_RXT_docked.sdf

>  <pdb_id>  (7) 
6WTN_RXT

>  <pose_rank>  (7) 
6

>  <num_atoms_heavy>  (7) 
23

>  <num_torsions>  (7) 
5

>  <pose>  (7) 
[21.224935128142775, 13.102483090866825, 7.668377389667289, 4.367788519829832, -4.2655418832741585, -0.4963731212480094, 3.0476501982248076, 0.17700020768332625, -0.3934785760533636, -0.09306712881144695, -1.6168234732249724]

>  <energy>  (7) 
-1038.8203307732397

>  <inter_energy>  (7) 
-1057.1094515278428

>  <intra_energy>  (7) 
36.133161654031525

>  <rmsd>  (7) 
2.28997

>  <sdf_rank>  (7) 
0

$$$$

     RDKit          3D

 41 44  0  0  0  0  0  0  0  0999 V2000
   23.5000   11.0122    5.8441 C   0  0  0  0  0  0  0  0  0  0  0  0
   24.1534   11.1991    4.4083 C   0  0  0  0  0  0  0  0  0  0  0  0
   24.0950   12.7627    4.1273 C   0  0  0  0  0  0  0  0  0  0  0  0
   23.8447   13.4132    5.4611 C   0  0  0  0  0  0  0  0  0  0  0  0
   23.1528   12.4083    6.3907 C   0  0  1  0  0  0  0  0  0  0  0  0
   21.6448   12.5769    6.3718 C   0  0  1  0  0  0  0  0  0  0  0  0
   21.0337   11.1733    6.4385 C   0  0  0  0  0  0  0  0  0  0  0  0
   19.8621   11.1005    5.5783 C   0  0  0  0  0  0  0  0  0  0  0  0
   18.9088   11.0224    4.9617 N   0  0  0  0  0  0  0  0  0  0  0  0
   21.1597   13.2454    7.5904 N   0  0  0  0  0  0  0  0  0  0  0  0
   20.9148   12.6513    8.7769 C   0  0  0  0  0  0  0  0  0  0  0  0
   20.9742   14.6175    7.7425 N   0  0  0  0  0  0  0  0  0  0  0  0
   20.5881   14.8389    9.0008 C   0  0  0  0  0  0  0  0  0  0  0  0
   20.5223   13.6318    9.6528 C   0  0  0  0  0  0  0  0  0  0  0  0
   20.2066   13.4372   11.0904 C   0  0  0  0  0  0  0  0  0  0  0  0
   20.3659   12.1883   11.5058 N   0  0  0  0  0  0  0  0  0  0  0  0
   20.0511   11.9186   12.7992 C   0  0  0  0  0  0  0  0  0  0  0  0
   19.5609   12.7633   13.6925 N   0  0  0  0  0  0  0  0  0  0  0  0
   19.3794   14.0357   13.2710 C   0  0  0  0  0  0  0  0  0  0  0  0
   19.6665   14.4045   11.9952 C   0  0  0  0  0  0  0  0  0  0  0  0
   19.3612   15.7410   11.8735 C   0  0  0  0  0  0  0  0  0  0  0  0
   18.8927   16.1657   13.0908 C   0  0  0  0  0  0  0  0  0  0  0  0
   18.9034   15.1099   13.9307 N   0  0  0  0  0  0  0  0  0  0  0  0
   22.5866   10.4047    5.7630 H   0  0  0  0  0  0  0  0  0  0  0  0
   24.2000   10.4991    6.5200 H   0  0  0  0  0  0  0  0  0  0  0  0
   25.1950   10.8455    4.4090 H   0  0  0  0  0  0  0  0  0  0  0  0
   23.6241   10.6214    3.6362 H   0  0  0  0  0  0  0  0  0  0  0  0
   25.0489   13.1112    3.7047 H   0  0  0  0  0  0  0  0  0  0  0  0
   23.3069   13.0131    3.4020 H   0  0  0  0  0  0  0  0  0  0  0  0
   24.8023   13.7249    5.9038 H   0  0  0  0  0  0  0  0  0  0  0  0
   23.2019   14.2957    5.3270 H   0  0  0  0  0  0  0  0  0  0  0  0
   23.4903   12.5583    7.4268 H   0  0  0  0  0  0  0  0  0  0  0  0
   21.3761   13.1572    5.4768 H   0  0  0  0  0  0  0  0  0  0  0  0
   21.7778   10.4354    6.1041 H   0  0  0  0  0  0  0  0  0  0  0  0
   20.7352   10.9577    7.4750 H   0  0  0  0  0  0  0  0  0  0  0  0
   21.0119   11.5786    9.0006 H   0  0  0  0  0  0  0  0  0  0  0  0
   20.3612   15.8211    9.4409 H   0  0  0  0  0  0  0  0  0  0  0  0
   20.2220   10.8872   13.1411 H   0  0  0  0  0  0  0  0  0  0  0  0
   19.4724   16.3550   10.9676 H   0  0  0  0  0  0  0  0  0  0  0  0
   18.5660   17.1864   13.3384 H   0  0  0  0  0  0  0  0  0  0  0  0
   18.5980   15.1229   14.9143 H   0  0  0  0  0  0  0  0  0  0  0  0
  1  2  1  0
  5  1  1  0
  2  3  1  0
  3  4  1  0
  4  5  1  0
  5  6  1  0
  6  7  1  0
  6 10  1  0
  7  8  1  0
  8  9  3  0
 10 11  1  0
 10 12  1  0
 11 14  2  0
 12 13  2  0
 13 14  1  0
 14 15  1  0
 15 16  2  0
 15 20  1  0
 16 17  1  0
 17 18  2  0
 18 19  1  0
 19 20  2  0
 19 23  1  0
 20 21  1  0
 21 22  2  0
 22 23  1  0
  1 24  1  0
  1 25  1  0
  2 26  1  0
  2 27  1  0
  3 28  1  0
  3 29  1  0
  4 30  1  0
  4 31  1  0
  5 32  1  1
  6 33  1  6
  7 34  1  0
  7 35  1  0
 11 36  1  0
 13 37  1  0
 17 38  1  0
 21 39  1  0
 22 40  1  0
 23 41  1  0
M  END
>  <filename_input>  (8) 
6WTN_RXT_docked.sdf

>  <pdb_id>  (8) 
6WTN_RXT

>  <pose_rank>  (8) 
7

>  <num_atoms_heavy>  (8) 
23

>  <num_torsions>  (8) 
5

>  <pose>  (8) 
[21.15965614544815, 13.245399187224336, 7.590352357919534, -5.519680975868275, -1.904932421527732, -1.0438868284884173, 3.5314878924477835, 8.570286368938469, -7.024550016672286, -11.910182634443085, 0.6040610527952214]

>  <energy>  (8) 
-1048.7036866844653

>  <inter_energy>  (8) 
-1020.793742469086

>  <intra_energy>  (8) 
10.15542775008349

>  <rmsd>  (8) 
3.09008

>  <sdf_rank>  (8) 
0

$$$$

     RDKit          3D

 41 44  0  0  0  0  0  0  0  0999 V2000
   23.8748   13.0188    6.6313 C   0  0  0  0  0  0  0  0  0  0  0  0
   24.3480   13.2937    8.1225 C   0  0  0  0  0  0  0  0  0  0  0  0
   23.4405   12.3511    9.0253 C   0  0  0  0  0  0  0  0  0  0  0  0
   22.8418   11.3352    8.0903 C   0  0  0  0  0  0  0  0  0  0  0  0
   22.8006   11.9175    6.6719 C   0  0  1  0  0  0  0  0  0  0  0  0
   21.4522   12.5415    6.3633 C   0  0  1  0  0  0  0  0  0  0  0  0
   20.3867   11.4803    6.6576 C   0  0  0  0  0  0  0  0  0  0  0  0
   19.8647   10.9417    5.4106 C   0  0  0  0  0  0  0  0  0  0  0  0
   19.4162   10.5781    4.4298 N   0  0  0  0  0  0  0  0  0  0  0  0
   21.1395   13.6409    7.2911 N   0  0  0  0  0  0  0  0  0  0  0  0
   20.7998   13.5097    8.5904 C   0  0  0  0  0  0  0  0  0  0  0  0
   21.2453   14.9995    7.0024 N   0  0  0  0  0  0  0  0  0  0  0  0
   20.9377   15.6762    8.1108 C   0  0  0  0  0  0  0  0  0  0  0  0
   20.6359   14.7729    9.1005 C   0  0  0  0  0  0  0  0  0  0  0  0
   20.3144   15.1054   10.5113 C   0  0  0  0  0  0  0  0  0  0  0  0
   19.9821   14.0515   11.2439 N   0  0  0  0  0  0  0  0  0  0  0  0
   19.6274   14.2789   12.5350 C   0  0  0  0  0  0  0  0  0  0  0  0
   19.5376   15.4518   13.1417 N   0  0  0  0  0  0  0  0  0  0  0  0
   19.8585   16.5334   12.3956 C   0  0  0  0  0  0  0  0  0  0  0  0
   20.2273   16.4089   11.0938 C   0  0  0  0  0  0  0  0  0  0  0  0
   20.4692   17.6747   10.6106 C   0  0  0  0  0  0  0  0  0  0  0  0
   20.2442   18.5545   11.6387 C   0  0  0  0  0  0  0  0  0  0  0  0
   19.8649   17.8414   12.7193 N   0  0  0  0  0  0  0  0  0  0  0  0
   23.4522   13.9372    6.1978 H   0  0  0  0  0  0  0  0  0  0  0  0
   24.7261   12.7013    6.0113 H   0  0  0  0  0  0  0  0  0  0  0  0
   25.4109   13.0378    8.2438 H   0  0  0  0  0  0  0  0  0  0  0  0
   24.2446   14.3533    8.3991 H   0  0  0  0  0  0  0  0  0  0  0  0
   24.0514   11.8520    9.7919 H   0  0  0  0  0  0  0  0  0  0  0  0
   22.6622   12.9235    9.5512 H   0  0  0  0  0  0  0  0  0  0  0  0
   23.4564   10.4229    8.0958 H   0  0  0  0  0  0  0  0  0  0  0  0
   21.8212   11.0878    8.4179 H   0  0  0  0  0  0  0  0  0  0  0  0
   22.9749   11.1222    5.9322 H   0  0  0  0  0  0  0  0  0  0  0  0
   21.4716   12.9030    5.3246 H   0  0  0  0  0  0  0  0  0  0  0  0
   20.8354   10.6668    7.2465 H   0  0  0  0  0  0  0  0  0  0  0  0
   19.5645   11.9410    7.2248 H   0  0  0  0  0  0  0  0  0  0  0  0
   20.6769   12.5645    9.1393 H   0  0  0  0  0  0  0  0  0  0  0  0
   20.9276   16.7713    8.2142 H   0  0  0  0  0  0  0  0  0  0  0  0
   19.3891   13.3930   13.1419 H   0  0  0  0  0  0  0  0  0  0  0  0
   20.7847   17.9330    9.5889 H   0  0  0  0  0  0  0  0  0  0  0  0
   20.3537   19.6480   11.5906 H   0  0  0  0  0  0  0  0  0  0  0  0
   19.6203   18.2325   13.6403 H   0  0  0  0  0  0  0  0  0  0  0  0
  1  2  1  0
  5  1  1  0
  2  3  1  0
  3  4  1  0
  4  5  1  0
  5  6  1  0
  6  7  1  0
  6 10  1  0
  7  8  1  0
  8  9  3  0
 10 11  1  0
 10 12  1  0
 11 14  2  0
 12 13  2  0
 13 14  1  0
 14 15  1  0
 15 16  2  0
 15 20  1  0
 16 17  1  0
 17 18  2  0
 18 19  1  0
 19 20  2  0
 19 23  1  0
 20 21  1  0
 21 22  2  0
 22 23  1  0
  1 24  1  0
  1 25  1  0
  2 26  1  0
  2 27  1  0
  3 28  1  0
  3 29  1  0
  4 30  1  0
  4 31  1  0
  5 32  1  6
  6 33  1  6
  7 34  1  0
  7 35  1  0
 11 36  1  0
 13 37  1  0
 17 38  1  0
 21 39  1  0
 22 40  1  0
 23 41  1  0
M  END
>  <filename_input>  (9) 
6WTN_RXT_docked.sdf

>  <pdb_id>  (9) 
6WTN_RXT

>  <pose_rank>  (9) 
8

>  <num_atoms_heavy>  (9) 
23

>  <num_torsions>  (9) 
5

>  <pose>  (9) 
[21.139536711058057, 13.640906399940903, 7.291088051641742, -0.6544376751642326, -2.4893451352010816, 5.536857122419612, -9.236138192593465, -3.8154750136070716, 8.418733954817853, 7.564306252861599, 1.3896893052867996]

>  <energy>  (9) 
-796.0112231578876

>  <inter_energy>  (9) 
-872.9701227430722

>  <intra_energy>  (9) 
70.53727037852248

>  <rmsd>  (9) 
3.70465

>  <sdf_rank>  (9) 
0

$$$$

     RDKit          3D

 41 44  0  0  0  0  0  0  0  0999 V2000
   20.6430   11.2655    6.2380 C   0  0  0  0  0  0  0  0  0  0  0  0
   20.3377   11.1268    4.6853 C   0  0  0  0  0  0  0  0  0  0  0  0
   21.7607   11.1719    3.9780 C   0  0  0  0  0  0  0  0  0  0  0  0
   22.7700   10.9106    5.0633 C   0  0  0  0  0  0  0  0  0  0  0  0
   22.1708   11.3121    6.4169 C   0  0  1  0  0  0  0  0  0  0  0  0
   22.5718   12.7222    6.8089 C   0  0  1  0  0  0  0  0  0  0  0  0
   22.3086   13.6195    5.5950 C   0  0  0  0  0  0  0  0  0  0  0  0
   23.5708   14.0373    5.0034 C   0  0  0  0  0  0  0  0  0  0  0  0
   24.5583   14.3037    4.5043 N   0  0  0  0  0  0  0  0  0  0  0  0
   21.6940   13.2621    7.8602 N   0  0  0  0  0  0  0  0  0  0  0  0
   21.6361   12.8384    9.1400 C   0  0  0  0  0  0  0  0  0  0  0  0
   20.8560   14.3668    7.7276 N   0  0  0  0  0  0  0  0  0  0  0  0
   20.2750   14.5811    8.9099 C   0  0  0  0  0  0  0  0  0  0  0  0
   20.7266   13.6312    9.7933 C   0  0  0  0  0  0  0  0  0  0  0  0
   20.3872   13.5564   11.2367 C   0  0  0  0  0  0  0  0  0  0  0  0
   20.7885   12.4356   11.8202 N   0  0  0  0  0  0  0  0  0  0  0  0
   20.4733   12.2699   13.1309 C   0  0  0  0  0  0  0  0  0  0  0  0
   19.7692   13.0933   13.8911 N   0  0  0  0  0  0  0  0  0  0  0  0
   19.3415   14.2313   13.2980 C   0  0  0  0  0  0  0  0  0  0  0  0
   19.6075   14.4890   11.9907 C   0  0  0  0  0  0  0  0  0  0  0  0
   19.0302   15.6999   11.6831 C   0  0  0  0  0  0  0  0  0  0  0  0
   18.4205   16.1628   12.8214 C   0  0  0  0  0  0  0  0  0  0  0  0
   18.6140   15.2502   13.7960 N   0  0  0  0  0  0  0  0  0  0  0  0
   20.1927   12.1909    6.6263 H   0  0  0  0  0  0  0  0  0  0  0  0
   20.2183   10.4139    6.7898 H   0  0  0  0  0  0  0  0  0  0  0  0
   19.8319   10.1729    4.4748 H   0  0  0  0  0  0  0  0  0  0  0  0
   19.6720   11.9241    4.3233 H   0  0  0  0  0  0  0  0  0  0  0  0
   21.8260   10.3967    3.2003 H   0  0  0  0  0  0  0  0  0  0  0  0
   21.9370   12.1406    3.4876 H   0  0  0  0  0  0  0  0  0  0  0  0
   23.0267    9.8411    5.0773 H   0  0  0  0  0  0  0  0  0  0  0  0
   23.6790   11.5000    4.8722 H   0  0  0  0  0  0  0  0  0  0  0  0
   22.5303   10.6340    7.2049 H   0  0  0  0  0  0  0  0  0  0  0  0
   23.6175   12.6988    7.1497 H   0  0  0  0  0  0  0  0  0  0  0  0
   21.7235   13.0614    4.8492 H   0  0  0  0  0  0  0  0  0  0  0  0
   21.7484   14.5094    5.9178 H   0  0  0  0  0  0  0  0  0  0  0  0
   22.2119   12.0101    9.5786 H   0  0  0  0  0  0  0  0  0  0  0  0
   19.5567   15.3823    9.1381 H   0  0  0  0  0  0  0  0  0  0  0  0
   20.8432   11.3527   13.6124 H   0  0  0  0  0  0  0  0  0  0  0  0
   19.0534   16.2034   10.7054 H   0  0  0  0  0  0  0  0  0  0  0  0
   17.8711   17.1104   12.9218 H   0  0  0  0  0  0  0  0  0  0  0  0
   18.2634   15.3208   14.7619 H   0  0  0  0  0  0  0  0  0  0  0  0
  1  2  1  0
  5  1  1  0
  2  3  1  0
  3  4  1  0
  4  5  1  0
  5  6  1  0
  6  7  1  0
  6 10  1  0
  7  8  1  0
  8  9  3  0
 10 11  1  0
 10 12  1  0
 11 14  2  0
 12 13  2  0
 13 14  1  0
 14 15  1  0
 15 16  2  0
 15 20  1  0
 16 17  1  0
 17 18  2  0
 18 19  1  0
 19 20  2  0
 19 23  1  0
 20 21  1  0
 21 22  2  0
 22 23  1  0
  1 24  1  0
  1 25  1  0
  2 26  1  0
  2 27  1  0
  3 28  1  0
  3 29  1  0
  4 30  1  0
  4 31  1  0
  5 32  1  1
  6 33  1  1
  7 34  1  0
  7 35  1  0
 11 36  1  0
 13 37  1  0
 17 38  1  0
 21 39  1  0
 22 40  1  0
 23 41  1  0
M  END
>  <filename_input>  (10) 
6WTN_RXT_docked.sdf

>  <pdb_id>  (10) 
6WTN_RXT

>  <pose_rank>  (10) 
9

>  <num_atoms_heavy>  (10) 
23

>  <num_torsions>  (10) 
5

>  <pose>  (10) 
[21.694017184466684, 13.262121933190778, 7.860165107561349, -0.8884097075165466, -1.3171467366832288, -5.468396915629412, -3.054347494855973, -1.3548879033158743, -2.3664577658814463, 1.2226287643301688, -2.026130800018544]

>  <energy>  (10) 
-886.5494106346647

>  <inter_energy>  (10) 
-928.1589284045077

>  <intra_energy>  (10) 
54.22100296855116

>  <rmsd>  (10) 
2.40191

>  <sdf_rank>  (10) 
0

$$$$

     RDKit          3D

 41 44  0  0  0  0  0  0  0  0999 V2000
   21.3184   11.6947    4.7316 C   0  0  0  0  0  0  0  0  0  0  0  0
   20.2966   10.4991    4.5083 C   0  0  0  0  0  0  0  0  0  0  0  0
   19.3496   10.5201    5.7850 C   0  0  0  0  0  0  0  0  0  0  0  0
   19.5483   11.8677    6.4248 C   0  0  0  0  0  0  0  0  0  0  0  0
   20.9285   12.4123    6.0359 C   0  0  1  0  0  0  0  0  0  0  0  0
   21.9706   12.0992    7.0937 C   0  0  1  0  0  0  0  0  0  0  0  0
   22.7613   13.3879    7.3426 C   0  0  0  0  0  0  0  0  0  0  0  0
   21.8495   14.5172    7.4488 C   0  0  0  0  0  0  0  0  0  0  0  0
   21.1257   15.3824    7.5991 N   0  0  0  0  0  0  0  0  0  0  0  0
   21.3486   11.7949    8.3929 N   0  0  0  0  0  0  0  0  0  0  0  0
   21.1312   12.6740    9.3932 C   0  0  0  0  0  0  0  0  0  0  0  0
   20.7908   10.5717    8.7574 N   0  0  0  0  0  0  0  0  0  0  0  0
   20.2742   10.7084    9.9804 C   0  0  0  0  0  0  0  0  0  0  0  0
   20.4945   11.9968   10.4026 C   0  0  0  0  0  0  0  0  0  0  0  0
   20.0127   12.5876   11.6765 C   0  0  0  0  0  0  0  0  0  0  0  0
   19.2619   11.7640   12.3946 N   0  0  0  0  0  0  0  0  0  0  0  0
   18.7425   12.2470   13.5528 C   0  0  0  0  0  0  0  0  0  0  0  0
   18.8707   13.4737   14.0330 N   0  0  0  0  0  0  0  0  0  0  0  0
   19.6214   14.3249   13.2971 C   0  0  0  0  0  0  0  0  0  0  0  0
   20.1850   13.9353   12.1238 C   0  0  0  0  0  0  0  0  0  0  0  0
   20.8623   15.0185   11.6117 C   0  0  0  0  0  0  0  0  0  0  0  0
   20.6994   16.0565   12.4936 C   0  0  0  0  0  0  0  0  0  0  0  0
   19.9328   15.6179   13.5134 N   0  0  0  0  0  0  0  0  0  0  0  0
   22.3423   11.3011    4.8132 H   0  0  0  0  0  0  0  0  0  0  0  0
   21.2814   12.3942    3.8834 H   0  0  0  0  0  0  0  0  0  0  0  0
   19.7113   10.6577    3.5906 H   0  0  0  0  0  0  0  0  0  0  0  0
   20.8108    9.5337    4.3923 H   0  0  0  0  0  0  0  0  0  0  0  0
   18.2995   10.3905    5.4844 H   0  0  0  0  0  0  0  0  0  0  0  0
   19.5921    9.7034    6.4807 H   0  0  0  0  0  0  0  0  0  0  0  0
   18.7679   12.5596    6.0751 H   0  0  0  0  0  0  0  0  0  0  0  0
   19.4842   11.7705    7.5186 H   0  0  0  0  0  0  0  0  0  0  0  0
   20.8856   13.5060    5.9263 H   0  0  0  0  0  0  0  0  0  0  0  0
   22.5713   11.2478    6.7414 H   0  0  0  0  0  0  0  0  0  0  0  0
   23.3316   13.2907    8.2781 H   0  0  0  0  0  0  0  0  0  0  0  0
   23.4504   13.5574    6.5021 H   0  0  0  0  0  0  0  0  0  0  0  0
   21.4125   13.7374    9.3986 H   0  0  0  0  0  0  0  0  0  0  0  0
   19.7594    9.9228   10.5529 H   0  0  0  0  0  0  0  0  0  0  0  0
   18.1515   11.5428   14.1569 H   0  0  0  0  0  0  0  0  0  0  0  0
   21.4294   15.0467   10.6695 H   0  0  0  0  0  0  0  0  0  0  0  0
   21.1194   17.0677   12.3879 H   0  0  0  0  0  0  0  0  0  0  0  0
   19.6346   16.1791   14.3241 H   0  0  0  0  0  0  0  0  0  0  0  0
  1  2  1  0
  5  1  1  0
  2  3  1  0
  3  4  1  0
  4  5  1  0
  5  6  1  0
  6  7  1  0
  6 10  1  0
  7  8  1  0
  8  9  3  0
 10 11  1  0
 10 12  1  0
 11 14  2  0
 12 13  2  0
 13 14  1  0
 14 15  1  0
 15 16  2  0
 15 20  1  0
 16 17  1  0
 17 18  2  0
 18 19  1  0
 19 20  2  0
 19 23  1  0
 20 21  1  0
 21 22  2  0
 22 23  1  0
  1 24  1  0
  1 25  1  0
  2 26  1  0
  2 27  1  0
  3 28  1  0
  3 29  1  0
  4 30  1  0
  4 31  1  0
  5 32  1  6
  6 33  1  6
  7 34  1  0
  7 35  1  0
 11 36  1  0
 13 37  1  0
 17 38  1  0
 21 39  1  0
 22 40  1  0
 23 41  1  0
M  END
>  <filename_input>  (11) 
6WTN_RXT_docked.sdf

>  <pdb_id>  (11) 
6WTN_RXT

>  <pose_rank>  (11) 
10

>  <num_atoms_heavy>  (11) 
23

>  <num_torsions>  (11) 
5

>  <pose>  (11) 
[21.348633546002958, 11.794905908418015, 8.392864431264858, -3.1044831565531523, 2.6713952927063587, 8.010363011722776, 19.051109233886013, 20.935268501482852, 7.017706902415009, 10.184336376868913, -2.0747116683668247]

>  <energy>  (11) 
-640.1956746220452

>  <inter_energy>  (11) 
-719.3764778051567

>  <intra_energy>  (11) 
77.46622033142127

>  <rmsd>  (11) 
2.76803

>  <sdf_rank>  (11) 
0

$$$$

     RDKit          3D

 41 44  0  0  0  0  0  0  0  0999 V2000
   22.6728   11.3503    5.9394 C   0  0  0  0  0  0  0  0  0  0  0  0
   22.6766   11.1069    4.3696 C   0  0  0  0  0  0  0  0  0  0  0  0
   22.3299   12.5207    3.7307 C   0  0  0  0  0  0  0  0  0  0  0  0
   22.5552   13.5333    4.8210 C   0  0  0  0  0  0  0  0  0  0  0  0
   22.4107   12.8467    6.1849 C   0  0  1  0  0  0  0  0  0  0  0  0
   21.0104   13.0097    6.7466 C   0  0  1  0  0  0  0  0  0  0  0  0
   20.5879   11.6471    7.3059 C   0  0  0  0  0  0  0  0  0  0  0  0
   19.7482   10.9530    6.3411 C   0  0  0  0  0  0  0  0  0  0  0  0
   19.1409   10.3603    5.5829 N   0  0  0  0  0  0  0  0  0  0  0  0
   20.9967   13.9050    7.9151 N   0  0  0  0  0  0  0  0  0  0  0  0
   20.2678   13.7328    9.0375 C   0  0  0  0  0  0  0  0  0  0  0  0
   21.8131   15.0197    8.0913 N   0  0  0  0  0  0  0  0  0  0  0  0
   21.5499   15.5306    9.2958 C   0  0  0  0  0  0  0  0  0  0  0  0
   20.5787   14.7622    9.8898 C   0  0  0  0  0  0  0  0  0  0  0  0
   20.0515   14.9401   11.2663 C   0  0  0  0  0  0  0  0  0  0  0  0
   20.0924   16.1945   11.6936 N   0  0  0  0  0  0  0  0  0  0  0  0
   19.6715   16.4326   12.9628 C   0  0  0  0  0  0  0  0  0  0  0  0
   19.2562   15.5381   13.8454 N   0  0  0  0  0  0  0  0  0  0  0  0
   19.2279   14.2537   13.4222 C   0  0  0  0  0  0  0  0  0  0  0  0
   19.6279   13.9144   12.1688 C   0  0  0  0  0  0  0  0  0  0  0  0
   19.4998   12.5492   12.0502 C   0  0  0  0  0  0  0  0  0  0  0  0
   19.0162   12.0789   13.2446 C   0  0  0  0  0  0  0  0  0  0  0  0
   18.8628   13.1321   14.0737 N   0  0  0  0  0  0  0  0  0  0  0  0
   21.8795   10.7499    6.4088 H   0  0  0  0  0  0  0  0  0  0  0  0
   23.6379   11.0534    6.3757 H   0  0  0  0  0  0  0  0  0  0  0  0
   23.6666   10.7639    4.0344 H   0  0  0  0  0  0  0  0  0  0  0  0
   21.9557   10.3316    4.0709 H   0  0  0  0  0  0  0  0  0  0  0  0
   22.9904   12.7262    2.8754 H   0  0  0  0  0  0  0  0  0  0  0  0
   21.2955   12.5524    3.3580 H   0  0  0  0  0  0  0  0  0  0  0  0
   23.5664   13.9561    4.7272 H   0  0  0  0  0  0  0  0  0  0  0  0
   21.8139   14.3413    4.7337 H   0  0  0  0  0  0  0  0  0  0  0  0
   23.1114   13.2909    6.9073 H   0  0  0  0  0  0  0  0  0  0  0  0
   20.3645   13.4030    5.9478 H   0  0  0  0  0  0  0  0  0  0  0  0
   21.4843   11.0430    7.5100 H   0  0  0  0  0  0  0  0  0  0  0  0
   20.0208   11.7982    8.2363 H   0  0  0  0  0  0  0  0  0  0  0  0
   19.5558   12.9175    9.2332 H   0  0  0  0  0  0  0  0  0  0  0  0
   22.0294   16.4165    9.7378 H   0  0  0  0  0  0  0  0  0  0  0  0
   19.6764   17.4820   13.2927 H   0  0  0  0  0  0  0  0  0  0  0  0
   19.7407   11.9467   11.1620 H   0  0  0  0  0  0  0  0  0  0  0  0
   18.7928   11.0287   13.4840 H   0  0  0  0  0  0  0  0  0  0  0  0
   18.5226   13.0864   15.0448 H   0  0  0  0  0  0  0  0  0  0  0  0
  1  2  1  0
  5  1  1  0
  2  3  1  0
  3  4  1  0
  4  5  1  0
  5  6  1  0
  6  7  1  0
  6 10  1  0
  7  8  1  0
  8  9  3  0
 10 11  1  0
 10 12  1  0
 11 14  2  0
 12 13  2  0
 13 14  1  0
 14 15  1  0
 15 16  2  0
 15 20  1  0
 16 17  1  0
 17 18  2  0
 18 19  1  0
 19 20  2  0
 19 23  1  0
 20 21  1  0
 21 22  2  0
 22 23  1  0
  1 24  1  0
  1 25  1  0
  2 26  1  0
  2 27  1  0
  3 28  1  0
  3 29  1  0
  4 30  1  0
  4 31  1  0
  5 32  1  1
  6 33  1  6
  7 34  1  0
  7 35  1  0
 11 36  1  0
 13 37  1  0
 17 38  1  0
 21 39  1  0
 22 40  1  0
 23 41  1  0
M  END
>  <filename_input>  (12) 
6WTN_RXT_docked.sdf

>  <pdb_id>  (12) 
6WTN_RXT

>  <pose_rank>  (12) 
11

>  <num_atoms_heavy>  (12) 
23

>  <num_torsions>  (12) 
5

>  <pose>  (12) 
[20.99670707289194, 13.904988628332086, 7.91507683835577, -2.335764491479131, 1.0987926787839133, 4.860324234149995, 7.0532874064694235, -4.996435520911371, -0.8404015381133246, 1.400571989635475, -1.464480463229897]

>  <energy>  (12) 
-1733.1749061594892

>  <inter_energy>  (12) 
-1725.6749688149162

>  <intra_energy>  (12) 
29.85664914641471

>  <rmsd>  (12) 
2.17403

>  <sdf_rank>  (12) 
0

$$$$

     RDKit          3D

 41 44  0  0  0  0  0  0  0  0999 V2000
   22.5416   15.3347    6.9642 C   0  0  0  0  0  0  0  0  0  0  0  0
   22.3387   15.4129    5.3906 C   0  0  0  0  0  0  0  0  0  0  0  0
   22.9969   16.7933    4.9565 C   0  0  0  0  0  0  0  0  0  0  0  0
   23.8671   17.2167    6.1090 C   0  0  0  0  0  0  0  0  0  0  0  0
   23.3431   16.5742    7.3995 C   0  0  1  0  0  0  0  0  0  0  0  0
   22.4182   17.5112    8.1542 C   0  0  1  0  0  0  0  0  0  0  0  0
   21.6255   18.3014    7.1077 C   0  0  0  0  0  0  0  0  0  0  0  0
   21.5436   19.7006    7.4992 C   0  0  0  0  0  0  0  0  0  0  0  0
   21.5445   20.8036    7.7796 N   0  0  0  0  0  0  0  0  0  0  0  0
   21.3929   16.7698    8.9066 N   0  0  0  0  0  0  0  0  0  0  0  0
   21.5603   15.5728    9.5067 C   0  0  0  0  0  0  0  0  0  0  0  0
   20.1146   17.2341    9.2074 N   0  0  0  0  0  0  0  0  0  0  0  0
   19.5098   16.3068    9.9527 C   0  0  0  0  0  0  0  0  0  0  0  0
   20.3794   15.2587   10.1308 C   0  0  0  0  0  0  0  0  0  0  0  0
   20.1294   14.0543   10.9621 C   0  0  0  0  0  0  0  0  0  0  0  0
   20.2772   12.9132   10.3034 N   0  0  0  0  0  0  0  0  0  0  0  0
   20.0191   11.7657   10.9826 C   0  0  0  0  0  0  0  0  0  0  0  0
   19.5945   11.6574   12.2315 N   0  0  0  0  0  0  0  0  0  0  0  0
   19.4249   12.8183   12.9047 C   0  0  0  0  0  0  0  0  0  0  0  0
   19.6586   14.0186   12.3123 C   0  0  0  0  0  0  0  0  0  0  0  0
   19.3817   14.9972   13.2396 C   0  0  0  0  0  0  0  0  0  0  0  0
   18.9840   14.3678   14.3917 C   0  0  0  0  0  0  0  0  0  0  0  0
   19.0090   13.0376   14.1674 N   0  0  0  0  0  0  0  0  0  0  0  0
   21.5634   15.3264    7.4673 H   0  0  0  0  0  0  0  0  0  0  0  0
   23.0803   14.4150    7.2361 H   0  0  0  0  0  0  0  0  0  0  0  0
   22.8435   14.5712    4.8939 H   0  0  0  0  0  0  0  0  0  0  0  0
   21.2771   15.3557    5.1085 H   0  0  0  0  0  0  0  0  0  0  0  0
   23.6033   16.6590    4.0486 H   0  0  0  0  0  0  0  0  0  0  0  0
   22.2326   17.5507    4.7283 H   0  0  0  0  0  0  0  0  0  0  0  0
   24.9016   16.8892    5.9287 H   0  0  0  0  0  0  0  0  0  0  0  0
   23.8444   18.3122    6.2061 H   0  0  0  0  0  0  0  0  0  0  0  0
   24.1825   16.3285    8.0666 H   0  0  0  0  0  0  0  0  0  0  0  0
   23.0304   18.1244    8.8319 H   0  0  0  0  0  0  0  0  0  0  0  0
   22.1304   18.2245    6.1334 H   0  0  0  0  0  0  0  0  0  0  0  0
   20.6095   17.8863    7.0344 H   0  0  0  0  0  0  0  0  0  0  0  0
   22.4748   14.9616    9.4972 H   0  0  0  0  0  0  0  0  0  0  0  0
   18.4883   16.3710   10.3560 H   0  0  0  0  0  0  0  0  0  0  0  0
   20.1804   10.8249   10.4358 H   0  0  0  0  0  0  0  0  0  0  0  0
   19.4640   16.0833   13.0853 H   0  0  0  0  0  0  0  0  0  0  0  0
   18.6956   14.8604   15.3320 H   0  0  0  0  0  0  0  0  0  0  0  0
   18.7523   12.3096   14.8493 H   0  0  0  0  0  0  0  0  0  0  0  0
  1  2  1  0
  5  1  1  0
  2  3  1  0
  3  4  1  0
  4  5  1  0
  5  6  1  0
  6  7  1  0
  6 10  1  0
  7  8  1  0
  8  9  3  0
 10 11  1  0
 10 12  1  0
 11 14  2  0
 12 13  2  0
 13 14  1  0
 14 15  1  0
 15 16  2  0
 15 20  1  0
 16 17  1  0
 17 18  2  0
 18 19  1  0
 19 20  2  0
 19 23  1  0
 20 21  1  0
 21 22  2  0
 22 23  1  0
  1 24  1  0
  1 25  1  0
  2 26  1  0
  2 27  1  0
  3 28  1  0
  3 29  1  0
  4 30  1  0
  4 31  1  0
  5 32  1  1
  6 33  1  1
  7 34  1  0
  7 35  1  0
 11 36  1  0
 13 37  1  0
 17 38  1  0
 21 39  1  0
 22 40  1  0
 23 41  1  0
M  END
>  <filename_input>  (13) 
6WTN_RXT_docked.sdf

>  <pdb_id>  (13) 
6WTN_RXT

>  <pose_rank>  (13) 
12

>  <num_atoms_heavy>  (13) 
23

>  <num_torsions>  (13) 
5

>  <pose>  (13) 
[21.39294281884866, 16.769760682604193, 8.906638718186512, 0.7789230240968494, -0.2822626852731254, 1.095851113046079, 2.44006333279159, -1.9462094421306437, -2.593462068688581, 0.7245974501383001, -2.101234555563778]

>  <energy>  (13) 
-696.4575765040055

>  <inter_energy>  (13) 
-738.535954874238

>  <intra_energy>  (13) 
65.71904139591538

>  <rmsd>  (13) 
4.52361

>  <sdf_rank>  (13) 
0

$$$$

     RDKit          3D

 41 44  0  0  0  0  0  0  0  0999 V2000
   20.8841   21.8346    9.2297 C   0  0  0  0  0  0  0  0  0  0  0  0
   22.1862   22.0548    8.3469 C   0  0  0  0  0  0  0  0  0  0  0  0
   22.7436   20.5940    8.0598 C   0  0  0  0  0  0  0  0  0  0  0  0
   21.6136   19.6512    8.3748 C   0  0  0  0  0  0  0  0  0  0  0  0
   20.6644   20.3187    9.3779 C   0  0  1  0  0  0  0  0  0  0  0  0
   20.9882   19.9174   10.8051 C   0  0  1  0  0  0  0  0  0  0  0  0
   20.1390   20.8006   11.7252 C   0  0  0  0  0  0  0  0  0  0  0  0
   19.4831   21.8413   10.9477 C   0  0  0  0  0  0  0  0  0  0  0  0
   18.9102   22.6394   10.3732 N   0  0  0  0  0  0  0  0  0  0  0  0
   20.5386   18.5463   11.0971 N   0  0  0  0  0  0  0  0  0  0  0  0
   20.9696   17.4233   10.4856 C   0  0  0  0  0  0  0  0  0  0  0  0
   19.6714   18.1793   12.1234 N   0  0  0  0  0  0  0  0  0  0  0  0
   19.5576   16.8497   12.1041 C   0  0  0  0  0  0  0  0  0  0  0  0
   20.3355   16.3628   11.0822 C   0  0  0  0  0  0  0  0  0  0  0  0
   20.5524   14.9292   10.7630 C   0  0  0  0  0  0  0  0  0  0  0  0
   21.1147   14.7268    9.5795 N   0  0  0  0  0  0  0  0  0  0  0  0
   21.3029   13.4384    9.1930 C   0  0  0  0  0  0  0  0  0  0  0  0
   20.9493   12.3483    9.8551 N   0  0  0  0  0  0  0  0  0  0  0  0
   20.3594   12.5471   11.0560 C   0  0  0  0  0  0  0  0  0  0  0  0
   20.1289   13.7991   11.5308 C   0  0  0  0  0  0  0  0  0  0  0  0
   19.5073   13.6694   12.7519 C   0  0  0  0  0  0  0  0  0  0  0  0
   19.3728   12.3272   13.0015 C   0  0  0  0  0  0  0  0  0  0  0  0
   19.8917   11.6562   11.9523 N   0  0  0  0  0  0  0  0  0  0  0  0
   21.0230   22.2908   10.2210 H   0  0  0  0  0  0  0  0  0  0  0  0
   20.0121   22.3033    8.7503 H   0  0  0  0  0  0  0  0  0  0  0  0
   21.9328   22.5635    7.4051 H   0  0  0  0  0  0  0  0  0  0  0  0
   22.9284   22.6862    8.8573 H   0  0  0  0  0  0  0  0  0  0  0  0
   23.0391   20.4979    7.0046 H   0  0  0  0  0  0  0  0  0  0  0  0
   23.6334   20.3748    8.6682 H   0  0  0  0  0  0  0  0  0  0  0  0
   21.0650   19.4132    7.4515 H   0  0  0  0  0  0  0  0  0  0  0  0
   22.0160   18.7236    8.8078 H   0  0  0  0  0  0  0  0  0  0  0  0
   19.6268   20.0149    9.1754 H   0  0  0  0  0  0  0  0  0  0  0  0
   22.0749   20.0090   10.9486 H   0  0  0  0  0  0  0  0  0  0  0  0
   19.3771   20.1824   12.2226 H   0  0  0  0  0  0  0  0  0  0  0  0
   20.7895   21.2681   12.4790 H   0  0  0  0  0  0  0  0  0  0  0  0
   21.6955   17.3682    9.6609 H   0  0  0  0  0  0  0  0  0  0  0  0
   18.9448   16.2463   12.7900 H   0  0  0  0  0  0  0  0  0  0  0  0
   21.8031   13.2844    8.2255 H   0  0  0  0  0  0  0  0  0  0  0  0
   19.1790   14.4901   13.4066 H   0  0  0  0  0  0  0  0  0  0  0  0
   18.9218   11.8776   13.8983 H   0  0  0  0  0  0  0  0  0  0  0  0
   19.9249   10.6316   11.8528 H   0  0  0  0  0  0  0  0  0  0  0  0
  1  2  1  0
  5  1  1  0
  2  3  1  0
  3  4  1  0
  4  5  1  0
  5  6  1  0
  6  7  1  0
  6 10  1  0
  7  8  1  0
  8  9  3  0
 10 11  1  0
 10 12  1  0
 11 14  2  0
 12 13  2  0
 13 14  1  0
 14 15  1  0
 15 16  2  0
 15 20  1  0
 16 17  1  0
 17 18  2  0
 18 19  1  0
 19 20  2  0
 19 23  1  0
 20 21  1  0
 21 22  2  0
 22 23  1  0
  1 24  1  0
  1 25  1  0
  2 26  1  0
  2 27  1  0
  3 28  1  0
  3 29  1  0
  4 30  1  0
  4 31  1  0
  5 32  1  6
  6 33  1  1
  7 34  1  0
  7 35  1  0
 11 36  1  0
 13 37  1  0
 17 38  1  0
 21 39  1  0
 22 40  1  0
 23 41  1  0
M  END
>  <filename_input>  (14) 
6WTN_RXT_docked.sdf

>  <pdb_id>  (14) 
6WTN_RXT

>  <pose_rank>  (14) 
13

>  <num_atoms_heavy>  (14) 
23

>  <num_torsions>  (14) 
5

>  <pose>  (14) 
[20.53863231934037, 18.546285569048337, 11.09707110091569, -3.811129504792088, 0.28486534241041855, -1.8413673006900668, -3.114304184024248, -1.4717529096724835, -0.22763622255803495, -3.3121183136475776, -1.1905531419295436]

>  <energy>  (14) 
-450.2000182694243

>  <inter_energy>  (14) 
-607.4110327978751

>  <intra_energy>  (14) 
158.6441195238017

>  <rmsd>  (14) 
7.06385

>  <sdf_rank>  (14) 
0

$$$$

     RDKit          3D

 41 44  0  0  0  0  0  0  0  0999 V2000
   20.3409   13.7227    8.3233 C   0  0  0  0  0  0  0  0  0  0  0  0
   20.5447   12.9836    9.7145 C   0  0  0  0  0  0  0  0  0  0  0  0
   22.0548   12.4869    9.7020 C   0  0  0  0  0  0  0  0  0  0  0  0
   22.7364   13.2641    8.6084 C   0  0  0  0  0  0  0  0  0  0  0  0
   21.6896   13.7151    7.5821 C   0  0  1  0  0  0  0  0  0  0  0  0
   21.5983   12.7485    6.4159 C   0  0  1  0  0  0  0  0  0  0  0  0
   20.2501   12.9949    5.7308 C   0  0  0  0  0  0  0  0  0  0  0  0
   19.6822   11.7319    5.2835 C   0  0  0  0  0  0  0  0  0  0  0  0
   19.1837   10.7559    4.9768 N   0  0  0  0  0  0  0  0  0  0  0  0
   22.5972   13.0556    5.3789 N   0  0  0  0  0  0  0  0  0  0  0  0
   22.3334   13.4561    4.1176 C   0  0  0  0  0  0  0  0  0  0  0  0
   23.9773   13.0814    5.5657 N   0  0  0  0  0  0  0  0  0  0  0  0
   24.5366   13.4610    4.4149 C   0  0  0  0  0  0  0  0  0  0  0  0
   23.5374   13.6759    3.4973 C   0  0  0  0  0  0  0  0  0  0  0  0
   23.7226   14.1826    2.1142 C   0  0  0  0  0  0  0  0  0  0  0  0
   24.5388   13.4391    1.3801 N   0  0  0  0  0  0  0  0  0  0  0  0
   24.7977   13.8632    0.1161 C   0  0  0  0  0  0  0  0  0  0  0  0
   24.3526   14.9685   -0.4603 N   0  0  0  0  0  0  0  0  0  0  0  0
   23.5330   15.7411    0.2886 C   0  0  0  0  0  0  0  0  0  0  0  0
   23.2130   15.4009    1.5646 C   0  0  0  0  0  0  0  0  0  0  0  0
   22.3876   16.3848    2.0593 C   0  0  0  0  0  0  0  0  0  0  0  0
   22.2161   17.3130    1.0639 C   0  0  0  0  0  0  0  0  0  0  0  0
   22.9284   16.9082   -0.0079 N   0  0  0  0  0  0  0  0  0  0  0  0
   19.5834   13.1937    7.7264 H   0  0  0  0  0  0  0  0  0  0  0  0
   19.9978   14.7553    8.4844 H   0  0  0  0  0  0  0  0  0  0  0  0
   20.3737   13.6786   10.5498 H   0  0  0  0  0  0  0  0  0  0  0  0
   19.8380   12.1511    9.8465 H   0  0  0  0  0  0  0  0  0  0  0  0
   22.5326   12.6912   10.6715 H   0  0  0  0  0  0  0  0  0  0  0  0
   22.1215   11.4027    9.5284 H   0  0  0  0  0  0  0  0  0  0  0  0
   23.2335   14.1460    9.0388 H   0  0  0  0  0  0  0  0  0  0  0  0
   23.4868   12.6283    8.1158 H   0  0  0  0  0  0  0  0  0  0  0  0
   21.9599   14.7008    7.1754 H   0  0  0  0  0  0  0  0  0  0  0  0
   21.7415   11.7291    6.8038 H   0  0  0  0  0  0  0  0  0  0  0  0
   19.5611   13.4724    6.4431 H   0  0  0  0  0  0  0  0  0  0  0  0
   20.4009   13.6517    4.8613 H   0  0  0  0  0  0  0  0  0  0  0  0
   21.3369   13.5829    3.6694 H   0  0  0  0  0  0  0  0  0  0  0  0
   25.6146   13.5814    4.2324 H   0  0  0  0  0  0  0  0  0  0  0  0
   25.4472   13.2187   -0.4945 H   0  0  0  0  0  0  0  0  0  0  0  0
   21.9469   16.4204    3.0666 H   0  0  0  0  0  0  0  0  0  0  0  0
   21.6058   18.2259    1.1283 H   0  0  0  0  0  0  0  0  0  0  0  0
   22.9986   17.4090   -0.9053 H   0  0  0  0  0  0  0  0  0  0  0  0
  1  2  1  0
  5  1  1  0
  2  3  1  0
  3  4  1  0
  4  5  1  0
  5  6  1  0
  6  7  1  0
  6 10  1  0
  7  8  1  0
  8  9  3  0
 10 11  1  0
 10 12  1  0
 11 14  2  0
 12 13  2  0
 13 14  1  0
 14 15  1  0
 15 16  2  0
 15 20  1  0
 16 17  1  0
 17 18  2  0
 18 19  1  0
 19 20  2  0
 19 23  1  0
 20 21  1  0
 21 22  2  0
 22 23  1  0
  1 24  1  0
  1 25  1  0
  2 26  1  0
  2 27  1  0
  3 28  1  0
  3 29  1  0
  4 30  1  0
  4 31  1  0
  5 32  1  6
  6 33  1  1
  7 34  1  0
  7 35  1  0
 11 36  1  0
 13 37  1  0
 17 38  1  0
 21 39  1  0
 22 40  1  0
 23 41  1  0
M  END
>  <filename_input>  (15) 
6WTN_RXT_docked.sdf

>  <pdb_id>  (15) 
6WTN_RXT

>  <pose_rank>  (15) 
14

>  <num_atoms_heavy>  (15) 
23

>  <num_torsions>  (15) 
5

>  <pose>  (15) 
[22.597159491484277, 13.055571693237688, 5.378926285167886, 2.2482771465984523, 2.7725364808340016, 0.7490916882929356, 7.539682175819792, -4.5700747239851935, -0.41104872659244673, 0.6368374542314271, -1.4471670525668563]

>  <energy>  (15) 
-410.1751783915659

>  <inter_energy>  (15) 
-407.67116771360605

>  <intra_energy>  (15) 
12.343179942493501

>  <rmsd>  (15) 
8.80848

>  <sdf_rank>  (15) 
0

$$$$

     RDKit          3D

 41 44  0  0  0  0  0  0  0  0999 V2000
   18.8552    6.8665   11.0230 C   0  0  0  0  0  0  0  0  0  0  0  0
   19.5642    5.4453   11.0516 C   0  0  0  0  0  0  0  0  0  0  0  0
   21.0498    5.7335   11.5384 C   0  0  0  0  0  0  0  0  0  0  0  0
   21.0263    7.1110   12.1441 C   0  0  0  0  0  0  0  0  0  0  0  0
   19.8634    7.9080   11.5400 C   0  0  1  0  0  0  0  0  0  0  0  0
   20.3199    8.7642   10.3732 C   0  0  1  0  0  0  0  0  0  0  0  0
   19.2938    8.5795    9.2502 C   0  0  0  0  0  0  0  0  0  0  0  0
   18.5684    7.3324    9.4407 C   0  0  0  0  0  0  0  0  0  0  0  0
   18.0025    6.3694    9.6589 N   0  0  0  0  0  0  0  0  0  0  0  0
   20.2542   10.1989   10.6964 N   0  0  0  0  0  0  0  0  0  0  0  0
   20.5818   11.2138    9.8697 C   0  0  0  0  0  0  0  0  0  0  0  0
   19.7446   10.7418   11.8736 N   0  0  0  0  0  0  0  0  0  0  0  0
   19.7989   12.0709   11.7657 C   0  0  0  0  0  0  0  0  0  0  0  0
   20.3359   12.3849   10.5411 C   0  0  0  0  0  0  0  0  0  0  0  0
   20.5007   13.7536    9.9902 C   0  0  0  0  0  0  0  0  0  0  0  0
   20.8768   13.7737    8.7190 N   0  0  0  0  0  0  0  0  0  0  0  0
   21.0955   14.9896    8.1547 C   0  0  0  0  0  0  0  0  0  0  0  0
   21.0120   16.1698    8.7480 N   0  0  0  0  0  0  0  0  0  0  0  0
   20.6454   16.1564   10.0499 C   0  0  0  0  0  0  0  0  0  0  0  0
   20.4030   14.9898   10.7031 C   0  0  0  0  0  0  0  0  0  0  0  0
   20.0734   15.3049   12.0017 C   0  0  0  0  0  0  0  0  0  0  0  0
   20.1185   16.6712   12.1148 C   0  0  0  0  0  0  0  0  0  0  0  0
   20.4766   17.1751   10.9156 N   0  0  0  0  0  0  0  0  0  0  0  0
   18.5563    7.1145    9.9939 H   0  0  0  0  0  0  0  0  0  0  0  0
   17.9546    6.8585   11.6544 H   0  0  0  0  0  0  0  0  0  0  0  0
   19.0514    4.7720   11.7543 H   0  0  0  0  0  0  0  0  0  0  0  0
   19.5408    4.9531   10.0682 H   0  0  0  0  0  0  0  0  0  0  0  0
   21.3572    4.9907   12.2892 H   0  0  0  0  0  0  0  0  0  0  0  0
   21.7665    5.6708   10.7062 H   0  0  0  0  0  0  0  0  0  0  0  0
   20.8916    7.0318   13.2330 H   0  0  0  0  0  0  0  0  0  0  0  0
   21.9758    7.6242   11.9317 H   0  0  0  0  0  0  0  0  0  0  0  0
   19.4335    8.5808   12.2967 H   0  0  0  0  0  0  0  0  0  0  0  0
   21.3479    8.4707   10.1144 H   0  0  0  0  0  0  0  0  0  0  0  0
   18.5840    9.4197    9.2632 H   0  0  0  0  0  0  0  0  0  0  0  0
   19.8175    8.5492    8.2834 H   0  0  0  0  0  0  0  0  0  0  0  0
   20.9736   11.1197    8.8461 H   0  0  0  0  0  0  0  0  0  0  0  0
   19.4695   12.7924   12.5279 H   0  0  0  0  0  0  0  0  0  0  0  0
   21.3718   14.9940    7.0900 H   0  0  0  0  0  0  0  0  0  0  0  0
   19.8207   14.5927   12.8011 H   0  0  0  0  0  0  0  0  0  0  0  0
   19.9011   17.2531   13.0226 H   0  0  0  0  0  0  0  0  0  0  0  0
   20.6006   18.1741   10.6977 H   0  0  0  0  0  0  0  0  0  0  0  0
  1  2  1  0
  5  1  1  0
  2  3  1  0
  3  4  1  0
  4  5  1  0
  5  6  1  0
  6  7  1  0
  6 10  1  0
  7  8  1  0
  8  9  3  0
 10 11  1  0
 10 12  1  0
 11 14  2  0
 12 13  2  0
 13 14  1  0
 14 15  1  0
 15 16  2  0
 15 20  1  0
 16 17  1  0
 17 18  2  0
 18 19  1  0
 19 20  2  0
 19 23  1  0
 20 21  1  0
 21 22  2  0
 22 23  1  0
  1 24  1  0
  1 25  1  0
  2 26  1  0
  2 27  1  0
  3 28  1  0
  3 29  1  0
  4 30  1  0
  4 31  1  0
  5 32  1  1
  6 33  1  6
  7 34  1  0
  7 35  1  0
 11 36  1  0
 13 37  1  0
 17 38  1  0
 21 39  1  0
 22 40  1  0
 23 41  1  0
M  END
>  <filename_input>  (16) 
6WTN_RXT_docked.sdf

>  <pdb_id>  (16) 
6WTN_RXT

>  <pose_rank>  (16) 
15

>  <num_atoms_heavy>  (16) 
23

>  <num_torsions>  (16) 
5

>  <pose>  (16) 
[20.25419825691872, 10.198934307757428, 10.696387657078457, -0.7012716701915738, 2.661048585677238, 1.2506588618248868, 3.547174263640447, 0.5981190019741905, -0.8643299666025298, 2.743040479900736, -2.8546186535954474]

>  <energy>  (16) 
-79.87870607586723

>  <inter_energy>  (16) 
-465.8592705622046

>  <intra_energy>  (16) 
379.22938835798266

>  <rmsd>  (16) 
5.75738

>  <sdf_rank>  (16) 
0

$$$$

     RDKit          3D

 41 44  0  0  0  0  0  0  0  0999 V2000
   19.1752    7.8884    9.5719 C   0  0  0  0  0  0  0  0  0  0  0  0
   19.9093    6.7050   10.3362 C   0  0  0  0  0  0  0  0  0  0  0  0
   20.6396    7.3973   11.5668 C   0  0  0  0  0  0  0  0  0  0  0  0
   20.0025    8.7525   11.7165 C   0  0  0  0  0  0  0  0  0  0  0  0
   19.4116    9.1838   10.3683 C   0  0  1  0  0  0  0  0  0  0  0  0
   20.3747   10.0631    9.5923 C   0  0  1  0  0  0  0  0  0  0  0  0
   19.8802   10.1028    8.1425 C   0  0  0  0  0  0  0  0  0  0  0  0
   20.6581   11.0668    7.3788 C   0  0  0  0  0  0  0  0  0  0  0  0
   21.3237   11.7984    6.8159 N   0  0  0  0  0  0  0  0  0  0  0  0
   20.3090   11.4640   10.0397 N   0  0  0  0  0  0  0  0  0  0  0  0
   20.7260   12.5402    9.3405 C   0  0  0  0  0  0  0  0  0  0  0  0
   19.7105   11.9120   11.2150 N   0  0  0  0  0  0  0  0  0  0  0  0
   19.7994   13.2435   11.2350 C   0  0  0  0  0  0  0  0  0  0  0  0
   20.4458   13.6521   10.0940 C   0  0  0  0  0  0  0  0  0  0  0  0
   20.6836   15.0600    9.6874 C   0  0  0  0  0  0  0  0  0  0  0  0
   21.3053   15.1795    8.5225 N   0  0  0  0  0  0  0  0  0  0  0  0
   21.6024   16.4366    8.1027 C   0  0  0  0  0  0  0  0  0  0  0  0
   21.3732   17.5678    8.7505 N   0  0  0  0  0  0  0  0  0  0  0  0
   20.7546   17.4526    9.9479 C   0  0  0  0  0  0  0  0  0  0  0  0
   20.4153   16.2379   10.4533 C   0  0  0  0  0  0  0  0  0  0  0  0
   19.8256   16.4509   11.6785 C   0  0  0  0  0  0  0  0  0  0  0  0
   19.8136   17.8052   11.8964 C   0  0  0  0  0  0  0  0  0  0  0  0
   20.3915   18.4015   10.8330 N   0  0  0  0  0  0  0  0  0  0  0  0
   19.5891    7.9921    8.5580 H   0  0  0  0  0  0  0  0  0  0  0  0
   18.0982    7.6809    9.4883 H   0  0  0  0  0  0  0  0  0  0  0  0
   19.1793    5.9615   10.6888 H   0  0  0  0  0  0  0  0  0  0  0  0
   20.6162    6.1698    9.6852 H   0  0  0  0  0  0  0  0  0  0  0  0
   20.4944    6.8033   12.4812 H   0  0  0  0  0  0  0  0  0  0  0  0
   21.7239    7.4774   11.3996 H   0  0  0  0  0  0  0  0  0  0  0  0
   19.2023    8.7016   12.4695 H   0  0  0  0  0  0  0  0  0  0  0  0
   20.7591    9.4829   12.0389 H   0  0  0  0  0  0  0  0  0  0  0  0
   18.4897    9.7623   10.5280 H   0  0  0  0  0  0  0  0  0  0  0  0
   21.3895    9.6598    9.7248 H   0  0  0  0  0  0  0  0  0  0  0  0
   19.9917    9.1055    7.6919 H   0  0  0  0  0  0  0  0  0  0  0  0
   18.8214   10.4010    8.1296 H   0  0  0  0  0  0  0  0  0  0  0  0
   21.2026   12.5282    8.3492 H   0  0  0  0  0  0  0  0  0  0  0  0
   19.4195   13.9019   12.0302 H   0  0  0  0  0  0  0  0  0  0  0  0
   22.0855   16.5239    7.1184 H   0  0  0  0  0  0  0  0  0  0  0  0
   19.4358   15.6781   12.3574 H   0  0  0  0  0  0  0  0  0  0  0  0
   19.4052   18.3148   12.7815 H   0  0  0  0  0  0  0  0  0  0  0  0
   20.5320   19.4152   10.7169 H   0  0  0  0  0  0  0  0  0  0  0  0
  1  2  1  0
  5  1  1  0
  2  3  1  0
  3  4  1  0
  4  5  1  0
  5  6  1  0
  6  7  1  0
  6 10  1  0
  7  8  1  0
  8  9  3  0
 10 11  1  0
 10 12  1  0
 11 14  2  0
 12 13  2  0
 13 14  1  0
 14 15  1  0
 15 16  2  0
 15 20  1  0
 16 17  1  0
 17 18  2  0
 18 19  1  0
 19 20  2  0
 19 23  1  0
 20 21  1  0
 21 22  2  0
 22 23  1  0
  1 24  1  0
  1 25  1  0
  2 26  1  0
  2 27  1  0
  3 28  1  0
  3 29  1  0
  4 30  1  0
  4 31  1  0
  5 32  1  1
  6 33  1  6
  7 34  1  0
  7 35  1  0
 11 36  1  0
 13 37  1  0
 17 38  1  0
 21 39  1  0
 22 40  1  0
 23 41  1  0
M  END
>  <filename_input>  (17) 
6WTN_RXT_docked.sdf

>  <pdb_id>  (17) 
6WTN_RXT

>  <pose_rank>  (17) 
16

>  <num_atoms_heavy>  (17) 
23

>  <num_torsions>  (17) 
5

>  <pose>  (17) 
[20.309012434401783, 11.464040930444256, 10.039687131100534, -0.692271298443239, 2.519483690855711, 1.2968702378372046, 3.4227093299811706, 0.937727497306517, -0.3506722353765711, -0.14634985437939743, -2.8150087568644753]

>  <energy>  (17) 
-424.3435587525508

>  <inter_energy>  (17) 
-541.5059136191802

>  <intra_energy>  (17) 
102.33712002489817

>  <rmsd>  (17) 
4.88123

>  <sdf_rank>  (17) 
0

$$$$

     RDKit          3D

 41 44  0  0  0  0  0  0  0  0999 V2000
   20.5948   12.8015    6.9119 C   0  0  0  0  0  0  0  0  0  0  0  0
   19.3466   13.1811    6.0056 C   0  0  0  0  0  0  0  0  0  0  0  0
   19.3452   12.1081    4.8326 C   0  0  0  0  0  0  0  0  0  0  0  0
   20.2344   10.9865    5.2975 C   0  0  0  0  0  0  0  0  0  0  0  0
   21.2325   11.5282    6.3285 C   0  0  1  0  0  0  0  0  0  0  0  0
   22.5556   11.8983    5.6839 C   0  0  1  0  0  0  0  0  0  0  0  0
   23.6466   11.6809    6.7377 C   0  0  0  0  0  0  0  0  0  0  0  0
   23.6974   12.8198    7.6421 C   0  0  0  0  0  0  0  0  0  0  0  0
   23.7751   13.7446    8.3007 N   0  0  0  0  0  0  0  0  0  0  0  0
   22.9066   10.9696    4.5969 N   0  0  0  0  0  0  0  0  0  0  0  0
   22.5733    9.6637    4.5310 C   0  0  0  0  0  0  0  0  0  0  0  0
   23.5513   11.3161    3.4118 N   0  0  0  0  0  0  0  0  0  0  0  0
   23.6338   10.2183    2.6574 C   0  0  0  0  0  0  0  0  0  0  0  0
   23.0546    9.1776    3.3416 C   0  0  0  0  0  0  0  0  0  0  0  0
   22.8676    7.7974    2.8275 C   0  0  0  0  0  0  0  0  0  0  0  0
   23.9953    7.1063    2.7365 N   0  0  0  0  0  0  0  0  0  0  0  0
   23.9145    5.8491    2.2289 C   0  0  0  0  0  0  0  0  0  0  0  0
   22.8301    5.2421    1.7735 N   0  0  0  0  0  0  0  0  0  0  0  0
   21.6784    5.9475    1.8472 C   0  0  0  0  0  0  0  0  0  0  0  0
   21.6560    7.2131    2.3411 C   0  0  0  0  0  0  0  0  0  0  0  0
   20.3570    7.6619    2.2673 C   0  0  0  0  0  0  0  0  0  0  0  0
   19.6049    6.6495    1.7278 C   0  0  0  0  0  0  0  0  0  0  0  0
   20.4288    5.6127    1.4702 N   0  0  0  0  0  0  0  0  0  0  0  0
   21.3261   13.6231    6.9042 H   0  0  0  0  0  0  0  0  0  0  0  0
   20.2761   12.6293    7.9506 H   0  0  0  0  0  0  0  0  0  0  0  0
   18.4146   13.1196    6.5865 H   0  0  0  0  0  0  0  0  0  0  0  0
   19.4130   14.2102    5.6228 H   0  0  0  0  0  0  0  0  0  0  0  0
   18.3248   11.7382    4.6539 H   0  0  0  0  0  0  0  0  0  0  0  0
   19.7040   12.5425    3.8879 H   0  0  0  0  0  0  0  0  0  0  0  0
   19.6215   10.1978    5.7580 H   0  0  0  0  0  0  0  0  0  0  0  0
   20.7804   10.5679    4.4392 H   0  0  0  0  0  0  0  0  0  0  0  0
   21.4382   10.7640    7.0925 H   0  0  0  0  0  0  0  0  0  0  0  0
   22.4760   12.9279    5.3051 H   0  0  0  0  0  0  0  0  0  0  0  0
   23.4226   10.7695    7.3115 H   0  0  0  0  0  0  0  0  0  0  0  0
   24.6191   11.5748    6.2348 H   0  0  0  0  0  0  0  0  0  0  0  0
   22.0182    9.0940    5.2907 H   0  0  0  0  0  0  0  0  0  0  0  0
   24.0883   10.1573    1.6575 H   0  0  0  0  0  0  0  0  0  0  0  0
   24.8511    5.2734    2.1924 H   0  0  0  0  0  0  0  0  0  0  0  0
   19.9898    8.6497    2.5828 H   0  0  0  0  0  0  0  0  0  0  0  0
   18.5217    6.6780    1.5386 H   0  0  0  0  0  0  0  0  0  0  0  0
   20.1487    4.7131    1.0539 H   0  0  0  0  0  0  0  0  0  0  0  0
  1  2  1  0
  5  1  1  0
  2  3  1  0
  3  4  1  0
  4  5  1  0
  5  6  1  0
  6  7  1  0
  6 10  1  0
  7  8  1  0
  8  9  3  0
 10 11  1  0
 10 12  1  0
 11 14  2  0
 12 13  2  0
 13 14  1  0
 14 15  1  0
 15 16  2  0
 15 20  1  0
 16 17  1  0
 17 18  2  0
 18 19  1  0
 19 20  2  0
 19 23  1  0
 20 21  1  0
 21 22  2  0
 22 23  1  0
  1 24  1  0
  1 25  1  0
  2 26  1  0
  2 27  1  0
  3 28  1  0
  3 29  1  0
  4 30  1  0
  4 31  1  0
  5 32  1  1
  6 33  1  6
  7 34  1  0
  7 35  1  0
 11 36  1  0
 13 37  1  0
 17 38  1  0
 21 39  1  0
 22 40  1  0
 23 41  1  0
M  END
>  <filename_input>  (18) 
6WTN_RXT_docked.sdf

>  <pdb_id>  (18) 
6WTN_RXT

>  <pose_rank>  (18) 
17

>  <num_atoms_heavy>  (18) 
23

>  <num_torsions>  (18) 
5

>  <pose>  (18) 
[22.90662655003463, 10.969631080031306, 4.5969387961221075, -0.8506438479574426, -2.182114338233044, 1.8053107730371871, -4.775969378207729, 3.193924019624983, 0.45471032965564795, 1.7118755646297594, 1.3620996187243988]

>  <energy>  (18) 
-373.9855079868906

>  <inter_energy>  (18) 
-383.5891311296598

>  <intra_energy>  (18) 
42.009279594440045

>  <rmsd>  (18) 
9.01168

>  <sdf_rank>  (18) 
0

$$$$

     RDKit          3D

 41 44  0  0  0  0  0  0  0  0999 V2000
   20.4903   12.8989    7.2295 C   0  0  0  0  0  0  0  0  0  0  0  0
   19.3192   12.9789    6.1591 C   0  0  0  0  0  0  0  0  0  0  0  0
   19.6412   11.8317    5.1068 C   0  0  0  0  0  0  0  0  0  0  0  0
   20.6388   10.9252    5.7759 C   0  0  0  0  0  0  0  0  0  0  0  0
   21.3974   11.7151    6.8498 C   0  0  1  0  0  0  0  0  0  0  0  0
   22.7108   12.2593    6.3192 C   0  0  1  0  0  0  0  0  0  0  0  0
   23.8299   11.6310    7.1564 C   0  0  0  0  0  0  0  0  0  0  0  0
   23.8100   12.1801    8.5039 C   0  0  0  0  0  0  0  0  0  0  0  0
   23.8313   12.6644    9.5335 N   0  0  0  0  0  0  0  0  0  0  0  0
   22.9748   11.7942    4.9476 N   0  0  0  0  0  0  0  0  0  0  0  0
   23.3930   10.5606    4.5953 C   0  0  0  0  0  0  0  0  0  0  0  0
   22.7356   12.5229    3.7849 N   0  0  0  0  0  0  0  0  0  0  0  0
   23.0411   11.7430    2.7458 C   0  0  0  0  0  0  0  0  0  0  0  0
   23.4727   10.5306    3.2258 C   0  0  0  0  0  0  0  0  0  0  0  0
   23.8380    9.3507    2.4022 C   0  0  0  0  0  0  0  0  0  0  0  0
   24.7555    9.6086    1.4806 N   0  0  0  0  0  0  0  0  0  0  0  0
   25.1092    8.5908    0.6538 C   0  0  0  0  0  0  0  0  0  0  0  0
   24.6079    7.3660    0.6385 N   0  0  0  0  0  0  0  0  0  0  0  0
   23.6588    7.1002    1.5649 C   0  0  0  0  0  0  0  0  0  0  0  0
   23.2384    8.0525    2.4382 C   0  0  0  0  0  0  0  0  0  0  0  0
   22.2662    7.4855    3.2304 C   0  0  0  0  0  0  0  0  0  0  0  0
   22.1140    6.1846    2.8226 C   0  0  0  0  0  0  0  0  0  0  0  0
   22.9668    5.9682    1.7997 N   0  0  0  0  0  0  0  0  0  0  0  0
   21.0709   13.8331    7.2189 H   0  0  0  0  0  0  0  0  0  0  0  0
   20.0777   12.7572    8.2393 H   0  0  0  0  0  0  0  0  0  0  0  0
   18.3452   12.8011    6.6384 H   0  0  0  0  0  0  0  0  0  0  0  0
   19.2616   13.9695    5.6844 H   0  0  0  0  0  0  0  0  0  0  0  0
   18.7263   11.2749    4.8561 H   0  0  0  0  0  0  0  0  0  0  0  0
   20.0380   12.2452    4.1678 H   0  0  0  0  0  0  0  0  0  0  0  0
   20.1122   10.0804    6.2439 H   0  0  0  0  0  0  0  0  0  0  0  0
   21.3490   10.5417    5.0286 H   0  0  0  0  0  0  0  0  0  0  0  0
   21.6299   11.0629    7.7045 H   0  0  0  0  0  0  0  0  0  0  0  0
   22.6661   13.3578    6.3553 H   0  0  0  0  0  0  0  0  0  0  0  0
   23.6819   10.5421    7.2042 H   0  0  0  0  0  0  0  0  0  0  0  0
   24.8003   11.8548    6.6890 H   0  0  0  0  0  0  0  0  0  0  0  0
   23.6269    9.7319    5.2797 H   0  0  0  0  0  0  0  0  0  0  0  0
   22.9609   12.0236    1.6852 H   0  0  0  0  0  0  0  0  0  0  0  0
   25.8972    8.8078   -0.0824 H   0  0  0  0  0  0  0  0  0  0  0  0
   21.7135    7.9834    4.0407 H   0  0  0  0  0  0  0  0  0  0  0  0
   21.4196    5.4483    3.2533 H   0  0  0  0  0  0  0  0  0  0  0  0
   23.0716    5.0831    1.2834 H   0  0  0  0  0  0  0  0  0  0  0  0
  1  2  1  0
  5  1  1  0
  2  3  1  0
  3  4  1  0
  4  5  1  0
  5  6  1  0
  6  7  1  0
  6 10  1  0
  7  8  1  0
  8  9  3  0
 10 11  1  0
 10 12  1  0
 11 14  2  0
 12 13  2  0
 13 14  1  0
 14 15  1  0
 15 16  2  0
 15 20  1  0
 16 17  1  0
 17 18  2  0
 18 19  1  0
 19 20  2  0
 19 23  1  0
 20 21  1  0
 21 22  2  0
 22 23  1  0
  1 24  1  0
  1 25  1  0
  2 26  1  0
  2 27  1  0
  3 28  1  0
  3 29  1  0
  4 30  1  0
  4 31  1  0
  5 32  1  1
  6 33  1  6
  7 34  1  0
  7 35  1  0
 11 36  1  0
 13 37  1  0
 17 38  1  0
 21 39  1  0
 22 40  1  0
 23 41  1  0
M  END
>  <filename_input>  (19) 
6WTN_RXT_docked.sdf

>  <pdb_id>  (19) 
6WTN_RXT

>  <pose_rank>  (19) 
18

>  <num_atoms_heavy>  (19) 
23

>  <num_torsions>  (19) 
5

>  <pose>  (19) 
[22.97482613564986, 11.794234910992524, 4.947630231761195, 0.28770464720094474, -2.4158875043665127, 1.7296579374213608, -5.078007298859182, 2.4073171824105275, 0.9987435568476145, 1.8933005168763368, 1.3241518307974056]

>  <energy>  (19) 
-414.63194548552724

>  <inter_energy>  (19) 
-458.37795218592987

>  <intra_energy>  (19) 
31.863399595184074

>  <rmsd>  (19) 
8.80123

>  <sdf_rank>  (19) 
0

$$$$

     RDKit          3D

 41 44  0  0  0  0  0  0  0  0999 V2000
   19.6538   18.8431    1.9765 C   0  0  0  0  0  0  0  0  0  0  0  0
   20.7472   19.0158    0.8372 C   0  0  0  0  0  0  0  0  0  0  0  0
   21.9299   19.8306    1.5188 C   0  0  0  0  0  0  0  0  0  0  0  0
   21.7030   19.7250    3.0027 C   0  0  0  0  0  0  0  0  0  0  0  0
   20.2152   19.4631    3.2683 C   0  0  1  0  0  0  0  0  0  0  0  0
   19.4645   20.7501    3.5563 C   0  0  1  0  0  0  0  0  0  0  0  0
   17.9753   20.3966    3.6286 C   0  0  0  0  0  0  0  0  0  0  0  0
   17.2639   21.0142    2.5195 C   0  0  0  0  0  0  0  0  0  0  0  0
   16.7365   21.5588    1.6707 N   0  0  0  0  0  0  0  0  0  0  0  0
   19.7816   21.2737    4.8952 N   0  0  0  0  0  0  0  0  0  0  0  0
   19.7470   20.5744    6.0488 C   0  0  0  0  0  0  0  0  0  0  0  0
   20.2686   22.5490    5.1720 N   0  0  0  0  0  0  0  0  0  0  0  0
   20.4910   22.6233    6.4859 C   0  0  0  0  0  0  0  0  0  0  0  0
   20.1525   21.4184    7.0517 C   0  0  0  0  0  0  0  0  0  0  0  0
   20.3193   21.0526    8.4809 C   0  0  0  0  0  0  0  0  0  0  0  0
   19.9664   19.8045    8.7553 N   0  0  0  0  0  0  0  0  0  0  0  0
   20.0448   19.4072   10.0517 C   0  0  0  0  0  0  0  0  0  0  0  0
   20.4013   20.1453   11.0909 N   0  0  0  0  0  0  0  0  0  0  0  0
   20.7464   21.4250   10.8211 C   0  0  0  0  0  0  0  0  0  0  0  0
   20.7021   21.9162    9.5551 C   0  0  0  0  0  0  0  0  0  0  0  0
   21.0889   23.2359    9.6107 C   0  0  0  0  0  0  0  0  0  0  0  0
   21.3674   23.5251   10.9224 C   0  0  0  0  0  0  0  0  0  0  0  0
   21.1459   22.4102   11.6491 N   0  0  0  0  0  0  0  0  0  0  0  0
   18.7267   19.3592    1.6863 H   0  0  0  0  0  0  0  0  0  0  0  0
   19.4253   17.7781    2.1303 H   0  0  0  0  0  0  0  0  0  0  0  0
   21.1034   18.0341    0.4918 H   0  0  0  0  0  0  0  0  0  0  0  0
   20.3445   19.5343   -0.0454 H   0  0  0  0  0  0  0  0  0  0  0  0
   22.9019   19.3922    1.2483 H   0  0  0  0  0  0  0  0  0  0  0  0
   21.9419   20.8790    1.1860 H   0  0  0  0  0  0  0  0  0  0  0  0
   22.3006   18.8952    3.4081 H   0  0  0  0  0  0  0  0  0  0  0  0
   22.0059   20.6632    3.4905 H   0  0  0  0  0  0  0  0  0  0  0  0
   20.0976   18.8077    4.1438 H   0  0  0  0  0  0  0  0  0  0  0  0
   19.7296   21.4826    2.7797 H   0  0  0  0  0  0  0  0  0  0  0  0
   17.8569   19.3043    3.5745 H   0  0  0  0  0  0  0  0  0  0  0  0
   17.5607   20.7696    4.5768 H   0  0  0  0  0  0  0  0  0  0  0  0
   19.4487   19.5219    6.1638 H   0  0  0  0  0  0  0  0  0  0  0  0
   20.8793   23.5005    7.0242 H   0  0  0  0  0  0  0  0  0  0  0  0
   19.7839   18.3592   10.2605 H   0  0  0  0  0  0  0  0  0  0  0  0
   21.1612   23.9303    8.7606 H   0  0  0  0  0  0  0  0  0  0  0  0
   21.7107   24.4946   11.3127 H   0  0  0  0  0  0  0  0  0  0  0  0
   21.2630   22.3259   12.6689 H   0  0  0  0  0  0  0  0  0  0  0  0
  1  2  1  0
  5  1  1  0
  2  3  1  0
  3  4  1  0
  4  5  1  0
  5  6  1  0
  6  7  1  0
  6 10  1  0
  7  8  1  0
  8  9  3  0
 10 11  1  0
 10 12  1  0
 11 14  2  0
 12 13  2  0
 13 14  1  0
 14 15  1  0
 15 16  2  0
 15 20  1  0
 16 17  1  0
 17 18  2  0
 18 19  1  0
 19 20  2  0
 19 23  1  0
 20 21  1  0
 21 22  2  0
 22 23  1  0
  1 24  1  0
  1 25  1  0
  2 26  1  0
  2 27  1  0
  3 28  1  0
  3 29  1  0
  4 30  1  0
  4 31  1  0
  5 32  1  1
  6 33  1  6
  7 34  1  0
  7 35  1  0
 11 36  1  0
 13 37  1  0
 17 38  1  0
 21 39  1  0
 22 40  1  0
 23 41  1  0
M  END
>  <filename_input>  (20) 
6WTN_RXT_docked.sdf

>  <pdb_id>  (20) 
6WTN_RXT

>  <pose_rank>  (20) 
19

>  <num_atoms_heavy>  (20) 
23

>  <num_torsions>  (20) 
5

>  <pose>  (20) 
[19.78163262099723, 21.273656190057405, 4.895195516714969, -3.4451878933189577, -3.0982813616030875, 2.957692308018538, 3.4452538402537147, 2.8524885539346467, -0.19683809880775094, 1.1436963524675925, 1.8656169549711479]

>  <energy>  (20) 
-219.1021766082578

>  <inter_energy>  (20) 
-215.20018434726938

>  <intra_energy>  (20) 
17.905135325752756

>  <rmsd>  (20) 
8.98526

>  <sdf_rank>  (20) 
0

$$$$

     RDKit          3D

 41 44  0  0  0  0  0  0  0  0999 V2000
   20.3188   20.1249    8.6852 C   0  0  0  0  0  0  0  0  0  0  0  0
   20.4373   20.4250   10.2406 C   0  0  0  0  0  0  0  0  0  0  0  0
   19.5788   21.7423   10.4746 C   0  0  0  0  0  0  0  0  0  0  0  0
   18.7126   21.8935    9.2532 C   0  0  0  0  0  0  0  0  0  0  0  0
   19.3771   21.1760    8.0715 C   0  0  1  0  0  0  0  0  0  0  0  0
   20.1996   22.1328    7.2284 C   0  0  1  0  0  0  0  0  0  0  0  0
   21.6197   21.5619    7.1548 C   0  0  0  0  0  0  0  0  0  0  0  0
   22.4657   22.4364    6.3566 C   0  0  0  0  0  0  0  0  0  0  0  0
   23.0726   23.1644    5.7266 N   0  0  0  0  0  0  0  0  0  0  0  0
   19.7406   22.1534    5.8298 N   0  0  0  0  0  0  0  0  0  0  0  0
   19.3246   21.0866    5.1159 C   0  0  0  0  0  0  0  0  0  0  0  0
   19.5645   23.2952    5.0516 N   0  0  0  0  0  0  0  0  0  0  0  0
   19.0793   22.9109    3.8692 C   0  0  0  0  0  0  0  0  0  0  0  0
   18.9449   21.5440    3.8793 C   0  0  0  0  0  0  0  0  0  0  0  0
   18.3674   20.7200    2.7876 C   0  0  0  0  0  0  0  0  0  0  0  0
   17.1062   20.3686    2.9965 N   0  0  0  0  0  0  0  0  0  0  0  0
   16.5203   19.5728    2.0648 C   0  0  0  0  0  0  0  0  0  0  0  0
   17.0843   19.0706    0.9778 N   0  0  0  0  0  0  0  0  0  0  0  0
   18.3763   19.4108    0.7668 C   0  0  0  0  0  0  0  0  0  0  0  0
   19.0493   20.2039    1.6411 C   0  0  0  0  0  0  0  0  0  0  0  0
   20.3315   20.3500    1.1627 C   0  0  0  0  0  0  0  0  0  0  0  0
   20.4146   19.6388   -0.0074 C   0  0  0  0  0  0  0  0  0  0  0  0
   19.2140   19.0654   -0.2305 N   0  0  0  0  0  0  0  0  0  0  0  0
   21.3109   20.1918    8.2149 H   0  0  0  0  0  0  0  0  0  0  0  0
   19.9228   19.1121    8.5193 H   0  0  0  0  0  0  0  0  0  0  0  0
   20.0294   19.5888   10.8275 H   0  0  0  0  0  0  0  0  0  0  0  0
   21.4830   20.5528   10.5572 H   0  0  0  0  0  0  0  0  0  0  0  0
   18.9556   21.6378   11.3749 H   0  0  0  0  0  0  0  0  0  0  0  0
   20.2221   22.6219   10.6244 H   0  0  0  0  0  0  0  0  0  0  0  0
   17.7250   21.4488    9.4453 H   0  0  0  0  0  0  0  0  0  0  0  0
   18.5908   22.9607    9.0164 H   0  0  0  0  0  0  0  0  0  0  0  0
   18.6101   20.7342    7.4185 H   0  0  0  0  0  0  0  0  0  0  0  0
   20.1258   23.1347    7.6766 H   0  0  0  0  0  0  0  0  0  0  0  0
   22.0336   21.4821    8.1708 H   0  0  0  0  0  0  0  0  0  0  0  0
   21.5855   20.5667    6.6874 H   0  0  0  0  0  0  0  0  0  0  0  0
   19.2953   20.0428    5.4616 H   0  0  0  0  0  0  0  0  0  0  0  0
   18.8296   23.5758    3.0293 H   0  0  0  0  0  0  0  0  0  0  0  0
   15.4632   19.3182    2.2315 H   0  0  0  0  0  0  0  0  0  0  0  0
   21.1401   20.9298    1.6318 H   0  0  0  0  0  0  0  0  0  0  0  0
   21.3031   19.5514   -0.6500 H   0  0  0  0  0  0  0  0  0  0  0  0
   18.9767   18.4628   -1.0314 H   0  0  0  0  0  0  0  0  0  0  0  0
  1  2  1  0
  5  1  1  0
  2  3  1  0
  3  4  1  0
  4  5  1  0
  5  6  1  0
  6  7  1  0
  6 10  1  0
  7  8  1  0
  8  9  3  0
 10 11  1  0
 10 12  1  0
 11 14  2  0
 12 13  2  0
 13 14  1  0
 14 15  1  0
 15 16  2  0
 15 20  1  0
 16 17  1  0
 17 18  2  0
 18 19  1  0
 19 20  2  0
 19 23  1  0
 20 21  1  0
 21 22  2  0
 22 23  1  0
  1 24  1  0
  1 25  1  0
  2 26  1  0
  2 27  1  0
  3 28  1  0
  3 29  1  0
  4 30  1  0
  4 31  1  0
  5 32  1  6
  6 33  1  1
  7 34  1  0
  7 35  1  0
 11 36  1  0
 13 37  1  0
 17 38  1  0
 21 39  1  0
 22 40  1  0
 23 41  1  0
M  END
>  <filename_input>  (21) 
6WTN_RXT_docked.sdf

>  <pdb_id>  (21) 
6WTN_RXT

>  <pose_rank>  (21) 
20

>  <num_atoms_heavy>  (21) 
23

>  <num_torsions>  (21) 
5

>  <pose>  (21) 
[19.74064623902157, 22.1534397413954, 5.829783351798386, 0.058399244309681964, -2.1794002419014245, 0.9858067155489622, -1.4826624308528866, -3.2270035415778406, -1.0412884237314857, -0.018129789732596435, 2.832117784589198]

>  <energy>  (21) 
-173.80433761970446

>  <inter_energy>  (21) 
-141.65925838169528

>  <intra_energy>  (21) 
8.937867621937706

>  <rmsd>  (21) 
11.2781

>  <sdf_rank>  (21) 
0

$$$$

     RDKit          3D

 41 44  0  0  0  0  0  0  0  0999 V2000
   13.9754   20.6128    0.9681 C   0  0  0  0  0  0  0  0  0  0  0  0
   13.0197   21.2967    2.0368 C   0  0  0  0  0  0  0  0  0  0  0  0
   13.9429   22.3293    2.8169 C   0  0  0  0  0  0  0  0  0  0  0  0
   15.1686   22.5143    1.9635 C   0  0  0  0  0  0  0  0  0  0  0  0
   15.3600   21.2751    1.0801 C   0  0  1  0  0  0  0  0  0  0  0  0
   16.3235   20.2851    1.7081 C   0  0  1  0  0  0  0  0  0  0  0  0
   17.0908   19.6150    0.5635 C   0  0  0  0  0  0  0  0  0  0  0  0
   16.2393   18.6399   -0.1012 C   0  0  0  0  0  0  0  0  0  0  0  0
   15.5805   17.8359   -0.5646 N   0  0  0  0  0  0  0  0  0  0  0  0
   17.3635   20.9671    2.4958 N   0  0  0  0  0  0  0  0  0  0  0  0
   17.3315   21.1914    3.8260 C   0  0  0  0  0  0  0  0  0  0  0  0
   18.5953   21.3989    2.0096 N   0  0  0  0  0  0  0  0  0  0  0  0
   19.2813   21.9088    3.0347 C   0  0  0  0  0  0  0  0  0  0  0  0
   18.5075   21.8115    4.1653 C   0  0  0  0  0  0  0  0  0  0  0  0
   18.9240   22.1932    5.5383 C   0  0  0  0  0  0  0  0  0  0  0  0
   18.1304   23.0917    6.1045 N   0  0  0  0  0  0  0  0  0  0  0  0
   18.4716   23.5287    7.3444 C   0  0  0  0  0  0  0  0  0  0  0  0
   19.5405   23.1838    8.0444 N   0  0  0  0  0  0  0  0  0  0  0  0
   20.3642   22.2802    7.4659 C   0  0  0  0  0  0  0  0  0  0  0  0
   20.1079   21.7824    6.2280 C   0  0  0  0  0  0  0  0  0  0  0  0
   21.1263   20.9112    5.9146 C   0  0  0  0  0  0  0  0  0  0  0  0
   21.9903   20.8924    6.9799 C   0  0  0  0  0  0  0  0  0  0  0  0
   21.5137   21.7397    7.9154 N   0  0  0  0  0  0  0  0  0  0  0  0
   14.0583   19.5358    1.1758 H   0  0  0  0  0  0  0  0  0  0  0  0
   13.5700   20.7412   -0.0464 H   0  0  0  0  0  0  0  0  0  0  0  0
   12.1922   21.8204    1.5358 H   0  0  0  0  0  0  0  0  0  0  0  0
   12.5633   20.5591    2.7133 H   0  0  0  0  0  0  0  0  0  0  0  0
   13.4193   23.2879    2.9471 H   0  0  0  0  0  0  0  0  0  0  0  0
   14.2017   21.9610    3.8205 H   0  0  0  0  0  0  0  0  0  0  0  0
   15.0437   23.4034    1.3280 H   0  0  0  0  0  0  0  0  0  0  0  0
   16.0502   22.6488    2.6074 H   0  0  0  0  0  0  0  0  0  0  0  0
   15.7747   21.5677    0.1042 H   0  0  0  0  0  0  0  0  0  0  0  0
   15.7438   19.5979    2.3420 H   0  0  0  0  0  0  0  0  0  0  0  0
   17.4042   20.3800   -0.1622 H   0  0  0  0  0  0  0  0  0  0  0  0
   17.9754   19.1041    0.9715 H   0  0  0  0  0  0  0  0  0  0  0  0
   16.5135   20.9260    4.5119 H   0  0  0  0  0  0  0  0  0  0  0  0
   20.2941   22.3348    2.9828 H   0  0  0  0  0  0  0  0  0  0  0  0
   17.7856   24.2467    7.8177 H   0  0  0  0  0  0  0  0  0  0  0  0
   21.2285   20.3364    4.9823 H   0  0  0  0  0  0  0  0  0  0  0  0
   22.9090   20.2926    7.0577 H   0  0  0  0  0  0  0  0  0  0  0  0
   21.9559   21.9403    8.8238 H   0  0  0  0  0  0  0  0  0  0  0  0
  1  2  1  0
  5  1  1  0
  2  3  1  0
  3  4  1  0
  4  5  1  0
  5  6  1  0
  6  7  1  0
  6 10  1  0
  7  8  1  0
  8  9  3  0
 10 11  1  0
 10 12  1  0
 11 14  2  0
 12 13  2  0
 13 14  1  0
 14 15  1  0
 15 16  2  0
 15 20  1  0
 16 17  1  0
 17 18  2  0
 18 19  1  0
 19 20  2  0
 19 23  1  0
 20 21  1  0
 21 22  2  0
 22 23  1  0
  1 24  1  0
  1 25  1  0
  2 26  1  0
  2 27  1  0
  3 28  1  0
  3 29  1  0
  4 30  1  0
  4 31  1  0
  5 32  1  6
  6 33  1  1
  7 34  1  0
  7 35  1  0
 11 36  1  0
 13 37  1  0
 17 38  1  0
 21 39  1  0
 22 40  1  0
 23 41  1  0
M  END
>  <filename_input>  (22) 
6WTN_RXT_docked.sdf

>  <pdb_id>  (22) 
6WTN_RXT

>  <pose_rank>  (22) 
21

>  <num_atoms_heavy>  (22) 
23

>  <num_torsions>  (22) 
5

>  <pose>  (22) 
[17.363486163190064, 20.96713862562929, 2.495769042803789, 0.09224825352108894, -0.7750625634954786, 4.861735027888046, 2.403915491676556, -0.8908145047380567, 0.5170975376089509, 1.8037238088543746, 1.5065255711397803]

>  <energy>  (22) 
-89.23576117634045

>  <inter_energy>  (22) 
-106.29937626837894

>  <intra_energy>  (22) 
26.904290432958184

>  <rmsd>  (22) 
11.0034

>  <sdf_rank>  (22) 
0

$$$$

     RDKit          3D

 41 44  0  0  0  0  0  0  0  0999 V2000
   25.1304   12.2461   19.2636 C   0  0  0  0  0  0  0  0  0  0  0  0
   25.3676   13.8101   19.4095 C   0  0  0  0  0  0  0  0  0  0  0  0
   25.8181   14.2969   17.9649 C   0  0  0  0  0  0  0  0  0  0  0  0
   25.4337   13.1922   17.0179 C   0  0  0  0  0  0  0  0  0  0  0  0
   25.3611   11.8687   17.7897 C   0  0  1  0  0  0  0  0  0  0  0  0
   26.6588   11.0891   17.6846 C   0  0  1  0  0  0  0  0  0  0  0  0
   27.2985   11.0890   19.0770 C   0  0  0  0  0  0  0  0  0  0  0  0
   28.6280   11.6770   19.0127 C   0  0  0  0  0  0  0  0  0  0  0  0
   29.6761   12.1060   18.8996 N   0  0  0  0  0  0  0  0  0  0  0  0
   26.4139    9.6668   17.3944 N   0  0  0  0  0  0  0  0  0  0  0  0
   27.0772    8.6220   17.9323 C   0  0  0  0  0  0  0  0  0  0  0  0
   25.3878    9.1680   16.5953 N   0  0  0  0  0  0  0  0  0  0  0  0
   25.4581    7.8356   16.6274 C   0  0  0  0  0  0  0  0  0  0  0  0
   26.5122    7.4763   17.4314 C   0  0  0  0  0  0  0  0  0  0  0  0
   26.8921    6.0884   17.7969 C   0  0  0  0  0  0  0  0  0  0  0  0
   25.8672    5.2483   17.8331 N   0  0  0  0  0  0  0  0  0  0  0  0
   26.1257    3.9683   18.2065 C   0  0  0  0  0  0  0  0  0  0  0  0
   27.2926    3.4676   18.5800 N   0  0  0  0  0  0  0  0  0  0  0  0
   28.3400    4.3233   18.5621 C   0  0  0  0  0  0  0  0  0  0  0  0
   28.1830    5.6239   18.2016 C   0  0  0  0  0  0  0  0  0  0  0  0
   29.4141    6.2312   18.3015 C   0  0  0  0  0  0  0  0  0  0  0  0
   30.3069    5.2783   18.7218 C   0  0  0  0  0  0  0  0  0  0  0  0
   29.6329    4.1208   18.8832 N   0  0  0  0  0  0  0  0  0  0  0  0
   25.8376   11.6994   19.9047 H   0  0  0  0  0  0  0  0  0  0  0  0
   24.1075   11.9832   19.5711 H   0  0  0  0  0  0  0  0  0  0  0  0
   24.4391   14.3147   19.7150 H   0  0  0  0  0  0  0  0  0  0  0  0
   26.1208   14.0430   20.1766 H   0  0  0  0  0  0  0  0  0  0  0  0
   25.2991   15.2289   17.6962 H   0  0  0  0  0  0  0  0  0  0  0  0
   26.8979   14.5033   17.9271 H   0  0  0  0  0  0  0  0  0  0  0  0
   24.4520   13.4134   16.5738 H   0  0  0  0  0  0  0  0  0  0  0  0
   26.1849   13.1129   16.2183 H   0  0  0  0  0  0  0  0  0  0  0  0
   24.5602   11.2360   17.3795 H   0  0  0  0  0  0  0  0  0  0  0  0
   27.2708   11.5474   16.8937 H   0  0  0  0  0  0  0  0  0  0  0  0
   26.6731   11.6763   19.7654 H   0  0  0  0  0  0  0  0  0  0  0  0
   27.3783   10.0530   19.4382 H   0  0  0  0  0  0  0  0  0  0  0  0
   27.9161    8.6784   18.6415 H   0  0  0  0  0  0  0  0  0  0  0  0
   24.7861    7.1428   16.0997 H   0  0  0  0  0  0  0  0  0  0  0  0
   25.2735    3.2728   18.1976 H   0  0  0  0  0  0  0  0  0  0  0  0
   29.6402    7.2856   18.0845 H   0  0  0  0  0  0  0  0  0  0  0  0
   31.3822    5.4310   18.8964 H   0  0  0  0  0  0  0  0  0  0  0  0
   30.0396    3.2291   19.1998 H   0  0  0  0  0  0  0  0  0  0  0  0
  1  2  1  0
  5  1  1  0
  2  3  1  0
  3  4  1  0
  4  5  1  0
  5  6  1  0
  6  7  1  0
  6 10  1  0
  7  8  1  0
  8  9  3  0
 10 11  1  0
 10 12  1  0
 11 14  2  0
 12 13  2  0
 13 14  1  0
 14 15  1  0
 15 16  2  0
 15 20  1  0
 16 17  1  0
 17 18  2  0
 18 19  1  0
 19 20  2  0
 19 23  1  0
 20 21  1  0
 21 22  2  0
 22 23  1  0
  1 24  1  0
  1 25  1  0
  2 26  1  0
  2 27  1  0
  3 28  1  0
  3 29  1  0
  4 30  1  0
  4 31  1  0
  5 32  1  6
  6 33  1  6
  7 34  1  0
  7 35  1  0
 11 36  1  0
 13 37  1  0
 17 38  1  0
 21 39  1  0
 22 40  1  0
 23 41  1  0
M  END
>  <filename_input>  (23) 
6WTN_RXT_docked.sdf

>  <pdb_id>  (23) 
6WTN_RXT

>  <pose_rank>  (23) 
22

>  <num_atoms_heavy>  (23) 
23

>  <num_torsions>  (23) 
5

>  <pose>  (23) 
[26.413871812215557, 9.666781897427718, 17.3944014124189, 0.7240492475754181, -0.9315521561690472, 2.1625143057666794, -0.26062311410671063, 1.291067495045642, -1.2654643079416794, 0.9930746982558438, 2.1285439543778226]

>  <energy>  (23) 
-30.72711963842799

>  <inter_energy>  (23) 
-20.416242885979543

>  <intra_energy>  (23) 
15.112323942657898

>  <rmsd>  (23) 
13.2605

>  <sdf_rank>  (23) 
0

$$$$

     RDKit          3D

 41 44  0  0  0  0  0  0  0  0999 V2000
   25.2396   12.0352   18.8515 C   0  0  0  0  0  0  0  0  0  0  0  0
   24.1280   13.1336   19.1363 C   0  0  0  0  0  0  0  0  0  0  0  0
   22.7652   12.3233   19.2515 C   0  0  0  0  0  0  0  0  0  0  0  0
   23.1560   10.8843   19.4553 C   0  0  0  0  0  0  0  0  0  0  0  0
   24.5582   10.6556   18.8771 C   0  0  1  0  0  0  0  0  0  0  0  0
   24.4966   10.1171   17.4597 C   0  0  1  0  0  0  0  0  0  0  0  0
   24.9831   11.2349   16.5314 C   0  0  0  0  0  0  0  0  0  0  0  0
   24.0513   11.4034   15.4264 C   0  0  0  0  0  0  0  0  0  0  0  0
   23.2949   11.5898   14.5968 N   0  0  0  0  0  0  0  0  0  0  0  0
   25.4614    9.0244   17.2534 N   0  0  0  0  0  0  0  0  0  0  0  0
   26.5311    8.7539   18.0302 C   0  0  0  0  0  0  0  0  0  0  0  0
   25.3653    8.0314   16.2813 N   0  0  0  0  0  0  0  0  0  0  0  0
   26.3890    7.1927   16.4538 C   0  0  0  0  0  0  0  0  0  0  0  0
   27.1371    7.6347   17.5176 C   0  0  0  0  0  0  0  0  0  0  0  0
   28.3212    6.9474   18.0917 C   0  0  0  0  0  0  0  0  0  0  0  0
   29.1871    7.7705   18.6667 N   0  0  0  0  0  0  0  0  0  0  0  0
   30.3216    7.2232   19.1746 C   0  0  0  0  0  0  0  0  0  0  0  0
   30.6834    5.9510   19.1260 N   0  0  0  0  0  0  0  0  0  0  0  0
   29.8128    5.1077   18.5255 C   0  0  0  0  0  0  0  0  0  0  0  0
   28.6495    5.5591   17.9878 C   0  0  0  0  0  0  0  0  0  0  0  0
   27.9995    4.4757   17.4419 C   0  0  0  0  0  0  0  0  0  0  0  0
   28.7856    3.3735   17.6630 C   0  0  0  0  0  0  0  0  0  0  0  0
   29.8926    3.7785   18.3193 N   0  0  0  0  0  0  0  0  0  0  0  0
   25.6935   12.2097   17.8649 H   0  0  0  0  0  0  0  0  0  0  0  0
   26.0321   12.0855   19.6127 H   0  0  0  0  0  0  0  0  0  0  0  0
   24.3418   13.6651   20.0753 H   0  0  0  0  0  0  0  0  0  0  0  0
   24.0888   13.8955   18.3438 H   0  0  0  0  0  0  0  0  0  0  0  0
   22.1765   12.6847   20.1075 H   0  0  0  0  0  0  0  0  0  0  0  0
   22.1436   12.4492   18.3527 H   0  0  0  0  0  0  0  0  0  0  0  0
   23.1593   10.6528   20.5307 H   0  0  0  0  0  0  0  0  0  0  0  0
   22.4345   10.2296   18.9448 H   0  0  0  0  0  0  0  0  0  0  0  0
   25.1030    9.9205   19.4876 H   0  0  0  0  0  0  0  0  0  0  0  0
   23.4702    9.7704   17.2691 H   0  0  0  0  0  0  0  0  0  0  0  0
   25.0506   12.1755   17.0978 H   0  0  0  0  0  0  0  0  0  0  0  0
   25.9729   10.9685   16.1324 H   0  0  0  0  0  0  0  0  0  0  0  0
   26.8571    9.3252   18.9118 H   0  0  0  0  0  0  0  0  0  0  0  0
   26.5981    6.2992   15.8471 H   0  0  0  0  0  0  0  0  0  0  0  0
   31.0145    7.9114   19.6808 H   0  0  0  0  0  0  0  0  0  0  0  0
   27.0291    4.4909   16.9241 H   0  0  0  0  0  0  0  0  0  0  0  0
   28.5544    2.3420   17.3589 H   0  0  0  0  0  0  0  0  0  0  0  0
   30.6707    3.1715   18.6143 H   0  0  0  0  0  0  0  0  0  0  0  0
  1  2  1  0
  5  1  1  0
  2  3  1  0
  3  4  1  0
  4  5  1  0
  5  6  1  0
  6  7  1  0
  6 10  1  0
  7  8  1  0
  8  9  3  0
 10 11  1  0
 10 12  1  0
 11 14  2  0
 12 13  2  0
 13 14  1  0
 14 15  1  0
 15 16  2  0
 15 20  1  0
 16 17  1  0
 17 18  2  0
 18 19  1  0
 19 20  2  0
 19 23  1  0
 20 21  1  0
 21 22  2  0
 22 23  1  0
  1 24  1  0
  1 25  1  0
  2 26  1  0
  2 27  1  0
  3 28  1  0
  3 29  1  0
  4 30  1  0
  4 31  1  0
  5 32  1  1
  6 33  1  6
  7 34  1  0
  7 35  1  0
 11 36  1  0
 13 37  1  0
 17 38  1  0
 21 39  1  0
 22 40  1  0
 23 41  1  0
M  END
>  <filename_input>  (24) 
6WTN_RXT_docked.sdf

>  <pdb_id>  (24) 
6WTN_RXT

>  <pose_rank>  (24) 
23

>  <num_atoms_heavy>  (24) 
23

>  <num_torsions>  (24) 
5

>  <pose>  (24) 
[25.461409371221936, 9.024448113734524, 17.253394878522226, 0.9681423629739242, -0.857736211603468, 3.0516347495130076, -3.373381744305464, -2.870355251601044, -1.2988461108835907, 0.8299387279253904, -1.7740243512322806]

>  <energy>  (24) 
28.92706870921969

>  <inter_energy>  (24) 
3.1382851812401995

>  <intra_energy>  (24) 
15.57976443030378

>  <rmsd>  (24) 
13.0228

>  <sdf_rank>  (24) 
0

$$$$

     RDKit          3D

 41 44  0  0  0  0  0  0  0  0999 V2000
   20.1921    4.5959   16.5302 C   0  0  0  0  0  0  0  0  0  0  0  0
   20.1810    3.3246   17.4826 C   0  0  0  0  0  0  0  0  0  0  0  0
   21.5974    3.3358   18.2044 C   0  0  0  0  0  0  0  0  0  0  0  0
   22.1524    4.7202   18.0039 C   0  0  0  0  0  0  0  0  0  0  0  0
   21.5205    5.3407   16.7517 C   0  0  1  0  0  0  0  0  0  0  0  0
   22.3973    5.1457   15.5286 C   0  0  1  0  0  0  0  0  0  0  0  0
   21.9433    6.1678   14.4811 C   0  0  0  0  0  0  0  0  0  0  0  0
   21.2140    5.4964   13.4158 C   0  0  0  0  0  0  0  0  0  0  0  0
   20.6814    4.9135   12.5962 N   0  0  0  0  0  0  0  0  0  0  0  0
   23.7986    5.5026   15.8047 N   0  0  0  0  0  0  0  0  0  0  0  0
   24.8526    4.6606   15.7720 C   0  0  0  0  0  0  0  0  0  0  0  0
   24.2750    6.7896   16.0430 N   0  0  0  0  0  0  0  0  0  0  0  0
   25.5998    6.7131   16.1860 C   0  0  0  0  0  0  0  0  0  0  0  0
   25.9759    5.3997   16.0449 C   0  0  0  0  0  0  0  0  0  0  0  0
   27.3701    4.8894   16.0573 C   0  0  0  0  0  0  0  0  0  0  0  0
   27.9435    4.8792   14.8619 N   0  0  0  0  0  0  0  0  0  0  0  0
   29.2044    4.3810   14.7817 C   0  0  0  0  0  0  0  0  0  0  0  0
   29.9203    3.8627   15.7669 N   0  0  0  0  0  0  0  0  0  0  0  0
   29.3353    3.8539   16.9864 C   0  0  0  0  0  0  0  0  0  0  0  0
   28.0765    4.3316   17.1690 C   0  0  0  0  0  0  0  0  0  0  0  0
   27.7623    4.1689   18.4990 C   0  0  0  0  0  0  0  0  0  0  0  0
   28.8480    3.5925   19.1078 C   0  0  0  0  0  0  0  0  0  0  0  0
   29.7968    3.4001   18.1682 N   0  0  0  0  0  0  0  0  0  0  0  0
   20.1127    4.2772   15.4804 H   0  0  0  0  0  0  0  0  0  0  0  0
   19.3409    5.2539   16.7592 H   0  0  0  0  0  0  0  0  0  0  0  0
   19.3702    3.4030   18.2219 H   0  0  0  0  0  0  0  0  0  0  0  0
   20.0103    2.3925   16.9240 H   0  0  0  0  0  0  0  0  0  0  0  0
   21.4817    3.1217   19.2771 H   0  0  0  0  0  0  0  0  0  0  0  0
   22.2676    2.5683   17.7898 H   0  0  0  0  0  0  0  0  0  0  0  0
   21.9175    5.3412   18.8809 H   0  0  0  0  0  0  0  0  0  0  0  0
   23.2440    4.6660   17.8788 H   0  0  0  0  0  0  0  0  0  0  0  0
   21.3856    6.4231   16.8937 H   0  0  0  0  0  0  0  0  0  0  0  0
   22.3185    4.0944   15.2146 H   0  0  0  0  0  0  0  0  0  0  0  0
   21.2888    6.9122   14.9580 H   0  0  0  0  0  0  0  0  0  0  0  0
   22.8268    6.6666   14.0560 H   0  0  0  0  0  0  0  0  0  0  0  0
   24.8176    3.5809   15.5648 H   0  0  0  0  0  0  0  0  0  0  0  0
   26.2755    7.5584   16.3833 H   0  0  0  0  0  0  0  0  0  0  0  0
   29.6821    4.4116   13.7913 H   0  0  0  0  0  0  0  0  0  0  0  0
   26.8156    4.4491   18.9841 H   0  0  0  0  0  0  0  0  0  0  0  0
   28.9305    3.3330   20.1736 H   0  0  0  0  0  0  0  0  0  0  0  0
   30.7218    2.9762   18.3280 H   0  0  0  0  0  0  0  0  0  0  0  0
  1  2  1  0
  5  1  1  0
  2  3  1  0
  3  4  1  0
  4  5  1  0
  5  6  1  0
  6  7  1  0
  6 10  1  0
  7  8  1  0
  8  9  3  0
 10 11  1  0
 10 12  1  0
 11 14  2  0
 12 13  2  0
 13 14  1  0
 14 15  1  0
 15 16  2  0
 15 20  1  0
 16 17  1  0
 17 18  2  0
 18 19  1  0
 19 20  2  0
 19 23  1  0
 20 21  1  0
 21 22  2  0
 22 23  1  0
  1 24  1  0
  1 25  1  0
  2 26  1  0
  2 27  1  0
  3 28  1  0
  3 29  1  0
  4 30  1  0
  4 31  1  0
  5 32  1  1
  6 33  1  6
  7 34  1  0
  7 35  1  0
 11 36  1  0
 13 37  1  0
 17 38  1  0
 21 39  1  0
 22 40  1  0
 23 41  1  0
M  END
>  <filename_input>  (25) 
6WTN_RXT_docked.sdf

>  <pdb_id>  (25) 
6WTN_RXT

>  <pose_rank>  (25) 
24

>  <num_atoms_heavy>  (25) 
23

>  <num_torsions>  (25) 
5

>  <pose>  (25) 
[23.798584384379094, 5.502561582476895, 15.804706653334305, -1.2164820263710732, -4.0959212460164744, 0.7530873205949888, -1.2938523796164487, 5.762687879694855, 0.25205617992501245, 1.2591536461661352, 2.2830111727731017]

>  <energy>  (25) 
17.95330982274473

>  <inter_energy>  (25) 
21.506157491435616

>  <intra_energy>  (25) 
8.088357502455773

>  <rmsd>  (25) 
13.1815

>  <sdf_rank>  (25) 
0

$$$$

     RDKit          3D

 41 44  0  0  0  0  0  0  0  0999 V2000
   22.1360   11.3500    4.6960 C   0  0  0  0  0  0  0  0  0  0  0  0
   20.9320   10.4190    4.2410 C   0  0  0  0  0  0  0  0  0  0  0  0
   19.6430   11.0420    4.9320 C   0  0  0  0  0  0  0  0  0  0  0  0
   20.0330   12.4320    5.3570 C   0  0  0  0  0  0  0  0  0  0  0  0
   21.5540   12.4940    5.5450 C   0  0  1  0  0  0  0  0  0  0  0  0
   21.9470   12.2730    6.9940 C   0  0  1  0  0  0  0  0  0  0  0  0
   23.4650   12.4620    7.0830 C   0  0  0  0  0  0  0  0  0  0  0  0
   23.9140   12.2380    8.4490 C   0  0  0  0  0  0  0  0  0  0  0  0
   24.3230   12.1000    9.5020 N   0  0  0  0  0  0  0  0  0  0  0  0
   21.3960   13.3200    7.8700 N   0  0  0  0  0  0  0  0  0  0  0  0
   20.9870   13.1530    9.1450 C   0  0  0  0  0  0  0  0  0  0  0  0
   21.3050   14.6740    7.5560 N   0  0  0  0  0  0  0  0  0  0  0  0
   20.8130   15.3070    8.6230 C   0  0  0  0  0  0  0  0  0  0  0  0
   20.5870   14.3800    9.6110 C   0  0  0  0  0  0  0  0  0  0  0  0
   20.1140   14.6750   10.9870 C   0  0  0  0  0  0  0  0  0  0  0  0
   20.2030   15.9560   11.3170 N   0  0  0  0  0  0  0  0  0  0  0  0
   19.8340   16.3000   12.5780 C   0  0  0  0  0  0  0  0  0  0  0  0
   19.4270   15.4860   13.5390 N   0  0  0  0  0  0  0  0  0  0  0  0
   19.3500   14.1750   13.2150 C   0  0  0  0  0  0  0  0  0  0  0  0
   19.6960   13.7320   11.9780 C   0  0  0  0  0  0  0  0  0  0  0  0
   19.5280   12.3660   11.9670 C   0  0  0  0  0  0  0  0  0  0  0  0
   19.0750   12.0000   13.2090 C   0  0  0  0  0  0  0  0  0  0  0  0
   18.9790   13.1160   13.9610 N   0  0  0  0  0  0  0  0  0  0  0  0
   22.8531   10.7683    5.2938 H   0  0  0  0  0  0  0  0  0  0  0  0
   22.6617   11.7534    3.8180 H   0  0  0  0  0  0  0  0  0  0  0  0
   20.8271   10.4308    3.1461 H   0  0  0  0  0  0  0  0  0  0  0  0
   21.0894    9.3699    4.5320 H   0  0  0  0  0  0  0  0  0  0  0  0
   18.8072   11.0807    4.2179 H   0  0  0  0  0  0  0  0  0  0  0  0
   19.3116   10.4363    5.7883 H   0  0  0  0  0  0  0  0  0  0  0  0
   19.7283   13.1523    4.5835 H   0  0  0  0  0  0  0  0  0  0  0  0
   19.5331   12.6827    6.3042 H   0  0  0  0  0  0  0  0  0  0  0  0
   21.9313   13.4832    5.2464 H   0  0  0  0  0  0  0  0  0  0  0  0
   21.5850   11.2802    7.2996 H   0  0  0  0  0  0  0  0  0  0  0  0
   23.9616   11.7440    6.4137 H   0  0  0  0  0  0  0  0  0  0  0  0
   23.7198   13.4890    6.7824 H   0  0  0  0  0  0  0  0  0  0  0  0
   20.9762   12.2075    9.7071 H   0  0  0  0  0  0  0  0  0  0  0  0
   20.6211   16.3875    8.6984 H   0  0  0  0  0  0  0  0  0  0  0  0
   19.8782   17.3704   12.8275 H   0  0  0  0  0  0  0  0  0  0  0  0
   19.7212   11.6924   11.1191 H   0  0  0  0  0  0  0  0  0  0  0  0
   18.8329   10.9775   13.5343 H   0  0  0  0  0  0  0  0  0  0  0  0
   18.6725   13.1525   14.9437 H   0  0  0  0  0  0  0  0  0  0  0  0
  1  2  1  0
  5  1  1  0
  2  3  1  0
  3  4  1  0
  4  5  1  0
  5  6  1  0
  6  7  1  0
  6 10  1  0
  7  8  1  0
  8  9  3  0
 10 11  1  0
 10 12  1  0
 11 14  2  0
 12 13  2  0
 13 14  1  0
 14 15  1  0
 15 16  2  0
 15 20  1  0
 16 17  1  0
 17 18  2  0
 18 19  1  0
 19 20  2  0
 19 23  1  0
 20 21  1  0
 21 22  2  0
 22 23  1  0
  1 24  1  0
  1 25  1  0
  2 26  1  0
  2 27  1  0
  3 28  1  0
  3 29  1  0
  4 30  1  0
  4 31  1  0
  5 32  1  6
  6 33  1  1
  7 34  1  0
  7 35  1  0
 11 36  1  0
 13 37  1  0
 17 38  1  0
 21 39  1  0
 22 40  1  0
 23 41  1  0
M  END
>  <filename_input>  (26) 
6WTN_RXT_docked.sdf

>  <pdb_id>  (26) 
6WTN_RXT

>  <pose_rank>  (26) 
25

>  <num_atoms_heavy>  (26) 
23

>  <num_torsions>  (26) 
5

>  <pose>  (26) 
[21.396, 13.32, 7.87, 1e-06, 1e-06, 1e-06, 0.0, 0.0, 0.0, 0.0, 0.0]

>  <energy>  (26) 
-1946.2816046765438

>  <inter_energy>  (26) 
-1997.230063106033

>  <intra_energy>  (26) 
25.192869663610043

>  <rmsd>  (26) 
0.0

>  <sdf_rank>  (26) 
0

$$$$
