
     RDKit          3D

 36 37  0  0  0  0  0  0  0  0999 V2000
   14.3827  -15.6636    9.1293 P   0  0  2  0  0  0  0  0  0  0  0  0
   13.5471  -16.2581   10.2048 O   0  0  0  0  0  0  0  0  0  0  0  0
   13.6710  -14.8182    7.9735 O   0  0  0  0  0  0  0  0  0  0  0  0
   15.3380  -16.7889    8.5021 O   0  0  0  0  0  0  0  0  0  0  0  0
   15.3722  -14.6921    9.9091 O   0  0  0  0  0  0  0  0  0  0  0  0
   15.9116  -13.5457    9.2735 C   0  0  0  0  0  0  0  0  0  0  0  0
   16.2815  -12.4921   10.2880 C   0  0  1  0  0  0  0  0  0  0  0  0
   17.6124  -12.0175    9.9846 O   0  0  0  0  0  0  0  0  0  0  0  0
   15.3684  -11.2687   10.3247 C   0  0  1  0  0  0  0  0  0  0  0  0
   15.1503  -10.8785   11.6881 O   0  0  0  0  0  0  0  0  0  0  0  0
   16.1775  -10.1956    9.5833 C   0  0  1  0  0  0  0  0  0  0  0  0
   15.9267   -8.8827   10.0314 O   0  0  0  0  0  0  0  0  0  0  0  0
   17.6172  -10.6118    9.8806 C   0  0  2  0  0  0  0  0  0  0  0  0
   18.6016  -10.2970    8.8416 N   0  0  0  0  0  0  0  0  0  0  0  0
   19.5812   -9.4228    9.1237 C   0  0  0  0  0  0  0  0  0  0  0  0
   19.5728   -8.8680   10.2106 O   0  0  0  0  0  0  0  0  0  0  0  0
   20.5315   -9.1386    8.2323 N   0  0  0  0  0  0  0  0  0  0  0  0
   20.5606   -9.7401    7.0497 C   0  0  0  0  0  0  0  0  0  0  0  0
   21.5532   -9.4266    6.1437 N   0  0  0  0  0  0  0  0  0  0  0  0
   19.5660  -10.7002    6.7365 C   0  0  0  0  0  0  0  0  0  0  0  0
   18.5973  -10.9730    7.6550 C   0  0  0  0  0  0  0  0  0  0  0  0
   19.5861  -11.4043    5.3994 C   0  0  0  0  0  0  0  0  0  0  0  0
   16.8113  -13.8356    8.7109 H   0  0  0  0  0  0  0  0  0  0  0  0
   15.1520  -13.1296    8.5953 H   0  0  0  0  0  0  0  0  0  0  0  0
   16.1927  -12.9842   11.2678 H   0  0  0  0  0  0  0  0  0  0  0  0
   14.3798  -11.4413    9.8743 H   0  0  0  0  0  0  0  0  0  0  0  0
   15.5330  -11.5629   12.2925 H   0  0  0  0  0  0  0  0  0  0  0  0
   15.9226  -10.1525    8.5141 H   0  0  0  0  0  0  0  0  0  0  0  0
   15.9237   -8.8667   11.0213 H   0  0  0  0  0  0  0  0  0  0  0  0
   17.9150  -10.0572   10.7827 H   0  0  0  0  0  0  0  0  0  0  0  0
   21.5779   -9.8921    5.2252 H   0  0  0  0  0  0  0  0  0  0  0  0
   22.2694   -8.7271    6.3860 H   0  0  0  0  0  0  0  0  0  0  0  0
   17.8237  -11.7260    7.4441 H   0  0  0  0  0  0  0  0  0  0  0  0
   19.6172  -12.4923    5.5584 H   0  0  0  0  0  0  0  0  0  0  0  0
   18.6801  -11.1422    4.8333 H   0  0  0  0  0  0  0  0  0  0  0  0
   20.4756  -11.0908    4.8333 H   0  0  0  0  0  0  0  0  0  0  0  0
  1  2  2  0
  1  3  1  6
  1  4  1  0
  1  5  1  0
  5  6  1  0
  7  6  1  0
  7  8  1  0
  7  9  1  0
  8 13  1  0
  9 10  1  0
  9 11  1  0
 11 12  1  0
 11 13  1  0
 13 14  1  0
 14 15  1  0
 14 21  1  0
 15 16  2  0
 15 17  1  0
 17 18  2  0
 18 19  1  0
 18 20  1  0
 20 21  2  0
 20 22  1  0
  6 23  1  0
  6 24  1  0
  7 25  1  1
  9 26  1  6
 10 27  1  0
 11 28  1  6
 12 29  1  0
 13 30  1  1
 19 31  1  0
 19 32  1  0
 21 33  1  0
 22 34  1  0
 22 35  1  0
 22 36  1  0
M  CHG  2   3  -1   4  -1
M  END
>  <filename_input>  (1) 
6XBO_5MC_docked.sdf

>  <pdb_id>  (1) 
6XBO_5MC

>  <pose_rank>  (1) 
0

>  <num_atoms_heavy>  (1) 
22

>  <num_torsions>  (1) 
4

>  <pose>  (1) 
[16.28147024247945, -12.492060795963123, 10.288046894967957, -2.3990075296207207, -0.4937669439276103, 5.7201148842930225, -0.014076564239052312, -0.544820159298031, -0.43713886089632986, -1.4350927420542354]

>  <energy>  (1) 
-910.3583168132833

>  <inter_energy>  (1) 
-885.8504118189712

>  <intra_energy>  (1) 
0.0

>  <rmsd>  (1) 
0.228082

>  <sdf_rank>  (1) 
0

$$$$

     RDKit          3D

 36 37  0  0  0  0  0  0  0  0999 V2000
   14.5405  -15.6119   10.2602 P   0  0  2  0  0  0  0  0  0  0  0  0
   14.0024  -16.4940    9.1922 O   0  0  0  0  0  0  0  0  0  0  0  0
   15.8716  -16.0509   11.0299 O   0  0  0  0  0  0  0  0  0  0  0  0
   13.3757  -15.2520   11.3024 O   0  0  0  0  0  0  0  0  0  0  0  0
   14.8380  -14.2418    9.5084 O   0  0  0  0  0  0  0  0  0  0  0  0
   16.1649  -13.7603    9.3789 C   0  0  0  0  0  0  0  0  0  0  0  0
   16.4441  -12.6746   10.3887 C   0  0  1  0  0  0  0  0  0  0  0  0
   17.7263  -12.0848   10.0777 O   0  0  0  0  0  0  0  0  0  0  0  0
   15.4263  -11.5370   10.4259 C   0  0  1  0  0  0  0  0  0  0  0  0
   15.1803  -11.1632   11.7893 O   0  0  0  0  0  0  0  0  0  0  0  0
   16.1336  -10.3988    9.6778 C   0  0  1  0  0  0  0  0  0  0  0  0
   15.7693   -9.1118   10.1232 O   0  0  0  0  0  0  0  0  0  0  0  0
   17.6059  -10.6845    9.9696 C   0  0  2  0  0  0  0  0  0  0  0  0
   18.5539  -10.2871    8.9252 N   0  0  0  0  0  0  0  0  0  0  0  0
   19.3578   -9.2349    9.1491 C   0  0  0  0  0  0  0  0  0  0  0  0
   19.2184   -8.6043   10.1845 O   0  0  0  0  0  0  0  0  0  0  0  0
   20.2728   -8.8615    8.2537 N   0  0  0  0  0  0  0  0  0  0  0  0
   20.4437   -9.5420    7.1273 C   0  0  0  0  0  0  0  0  0  0  0  0
   21.3958   -9.1336    6.2155 N   0  0  0  0  0  0  0  0  0  0  0  0
   19.6409  -10.6836    6.8793 C   0  0  0  0  0  0  0  0  0  0  0  0
   18.7049  -11.0468    7.8005 C   0  0  0  0  0  0  0  0  0  0  0  0
   19.8257  -11.4788    5.6076 C   0  0  0  0  0  0  0  0  0  0  0  0
   16.8671  -14.5915    9.5401 H   0  0  0  0  0  0  0  0  0  0  0  0
   16.2902  -13.3421    8.3692 H   0  0  0  0  0  0  0  0  0  0  0  0
   16.4036  -13.1695   11.3702 H   0  0  0  0  0  0  0  0  0  0  0  0
   14.4549  -11.7981    9.9807 H   0  0  0  0  0  0  0  0  0  0  0  0
   15.6113  -11.8181   12.3939 H   0  0  0  0  0  0  0  0  0  0  0  0
   15.8713  -10.3820    8.6097 H   0  0  0  0  0  0  0  0  0  0  0  0
   15.7643   -9.0943   11.1131 H   0  0  0  0  0  0  0  0  0  0  0  0
   17.8572  -10.1027   10.8687 H   0  0  0  0  0  0  0  0  0  0  0  0
   21.5303   -9.6601    5.3406 H   0  0  0  0  0  0  0  0  0  0  0  0
   21.9719   -8.3022    6.4100 H   0  0  0  0  0  0  0  0  0  0  0  0
   18.0806  -11.9383    7.6407 H   0  0  0  0  0  0  0  0  0  0  0  0
   20.0681  -12.5218    5.8593 H   0  0  0  0  0  0  0  0  0  0  0  0
   18.8969  -11.4500    5.0189 H   0  0  0  0  0  0  0  0  0  0  0  0
   20.6466  -11.0434    5.0189 H   0  0  0  0  0  0  0  0  0  0  0  0
  1  2  2  0
  1  3  1  1
  1  4  1  0
  1  5  1  0
  5  6  1  0
  7  6  1  0
  7  8  1  0
  7  9  1  0
  8 13  1  0
  9 10  1  0
  9 11  1  0
 11 12  1  0
 11 13  1  0
 13 14  1  0
 14 15  1  0
 14 21  1  0
 15 16  2  0
 15 17  1  0
 17 18  2  0
 18 19  1  0
 18 20  1  0
 20 21  2  0
 20 22  1  0
  6 23  1  0
  6 24  1  0
  7 25  1  1
  9 26  1  6
 10 27  1  0
 11 28  1  6
 12 29  1  0
 13 30  1  1
 19 31  1  0
 19 32  1  0
 21 33  1  0
 22 34  1  0
 22 35  1  0
 22 36  1  0
M  CHG  2   3  -1   4  -1
M  END
>  <filename_input>  (2) 
6XBO_5MC_docked.sdf

>  <pdb_id>  (2) 
6XBO_5MC

>  <pose_rank>  (2) 
1

>  <num_atoms_heavy>  (2) 
22

>  <num_torsions>  (2) 
4

>  <pose>  (2) 
[16.444143337954106, -12.674623868184964, 10.388654719485231, -3.123465804069866, -1.6059112074356567, -5.161754612883897, -0.1356645051675497, 0.4373807813478705, 1.3792218780730274, -0.7820366645193524]

>  <energy>  (2) 
-817.7043088325398

>  <inter_energy>  (2) 
-812.7002118019036

>  <intra_energy>  (2) 
0.4038316945316116

>  <rmsd>  (2) 
0.820297

>  <sdf_rank>  (2) 
0

$$$$

     RDKit          3D

 36 37  0  0  0  0  0  0  0  0999 V2000
   14.8426  -15.4083    8.4129 P   0  0  2  0  0  0  0  0  0  0  0  0
   15.7875  -16.5503    8.3058 O   0  0  0  0  0  0  0  0  0  0  0  0
   13.8242  -15.3585    9.6447 O   0  0  0  0  0  0  0  0  0  0  0  0
   14.0622  -15.2200    7.0244 O   0  0  0  0  0  0  0  0  0  0  0  0
   15.7926  -14.1360    8.5102 O   0  0  0  0  0  0  0  0  0  0  0  0
   15.2671  -12.8644    8.8510 C   0  0  0  0  0  0  0  0  0  0  0  0
   15.9883  -12.2863   10.0435 C   0  0  1  0  0  0  0  0  0  0  0  0
   17.3668  -12.0594    9.6738 O   0  0  0  0  0  0  0  0  0  0  0  0
   15.4399  -10.9581   10.5602 C   0  0  1  0  0  0  0  0  0  0  0  0
   15.4495  -10.9654   11.9950 O   0  0  0  0  0  0  0  0  0  0  0  0
   16.4394   -9.9247   10.0230 C   0  0  1  0  0  0  0  0  0  0  0  0
   16.5856   -8.7914   10.8487 O   0  0  0  0  0  0  0  0  0  0  0  0
   17.7364  -10.7298    9.9608 C   0  0  2  0  0  0  0  0  0  0  0  0
   18.6776  -10.3460    8.9051 N   0  0  0  0  0  0  0  0  0  0  0  0
   19.6280   -9.4396    9.1853 C   0  0  0  0  0  0  0  0  0  0  0  0
   19.6272   -8.9153   10.2874 O   0  0  0  0  0  0  0  0  0  0  0  0
   20.5404   -9.0917    8.2772 N   0  0  0  0  0  0  0  0  0  0  0  0
   20.5611   -9.6591    7.0777 C   0  0  0  0  0  0  0  0  0  0  0  0
   21.5142   -9.2798    6.1546 N   0  0  0  0  0  0  0  0  0  0  0  0
   19.5984  -10.6511    6.7642 C   0  0  0  0  0  0  0  0  0  0  0  0
   18.6678  -10.9891    7.7004 C   0  0  0  0  0  0  0  0  0  0  0  0
   19.6100  -11.3171    5.4077 C   0  0  0  0  0  0  0  0  0  0  0  0
   15.3850  -12.1845    7.9944 H   0  0  0  0  0  0  0  0  0  0  0  0
   14.2033  -12.9804    9.1057 H   0  0  0  0  0  0  0  0  0  0  0  0
   15.8549  -13.0208   10.8514 H   0  0  0  0  0  0  0  0  0  0  0  0
   14.4065  -10.7534   10.2435 H   0  0  0  0  0  0  0  0  0  0  0  0
   14.7073  -10.4040   12.3328 H   0  0  0  0  0  0  0  0  0  0  0  0
   16.1157   -9.4990    9.0618 H   0  0  0  0  0  0  0  0  0  0  0  0
   16.5499   -9.0683   11.7986 H   0  0  0  0  0  0  0  0  0  0  0  0
   18.2462  -10.5619   10.9210 H   0  0  0  0  0  0  0  0  0  0  0  0
   21.5323   -9.7187    5.2229 H   0  0  0  0  0  0  0  0  0  0  0  0
   22.2076   -8.5578    6.3972 H   0  0  0  0  0  0  0  0  0  0  0  0
   17.9202  -11.7678    7.4890 H   0  0  0  0  0  0  0  0  0  0  0  0
   19.6289  -12.4095    5.5357 H   0  0  0  0  0  0  0  0  0  0  0  0
   18.7067  -11.0289    4.8500 H   0  0  0  0  0  0  0  0  0  0  0  0
   20.5027  -10.9977    4.8500 H   0  0  0  0  0  0  0  0  0  0  0  0
  1  2  2  0
  1  3  1  1
  1  4  1  0
  1  5  1  0
  5  6  1  0
  7  6  1  0
  7  8  1  0
  7  9  1  0
  8 13  1  0
  9 10  1  0
  9 11  1  0
 11 12  1  0
 11 13  1  0
 13 14  1  0
 14 15  1  0
 14 21  1  0
 15 16  2  0
 15 17  1  0
 17 18  2  0
 18 19  1  0
 18 20  1  0
 20 21  2  0
 20 22  1  0
  6 23  1  0
  6 24  1  0
  7 25  1  1
  9 26  1  1
 10 27  1  0
 11 28  1  6
 12 29  1  0
 13 30  1  1
 19 31  1  0
 19 32  1  0
 21 33  1  0
 22 34  1  0
 22 35  1  0
 22 36  1  0
M  CHG  2   3  -1   4  -1
M  END
>  <filename_input>  (3) 
6XBO_5MC_docked.sdf

>  <pdb_id>  (3) 
6XBO_5MC

>  <pose_rank>  (3) 
2

>  <num_atoms_heavy>  (3) 
22

>  <num_torsions>  (3) 
4

>  <pose>  (3) 
[15.988250383879135, -12.286299394294764, 10.043531435436261, 0.3196578492214845, 0.13592923182937666, -0.3108239222285524, -0.4273300668983948, -1.7355663869087226, -0.9601093357586488, -1.729586731350666]

>  <energy>  (3) 
-849.2612557167752

>  <inter_energy>  (3) 
-859.1753115560404

>  <intra_energy>  (3) 
4.7576835416168155

>  <rmsd>  (3) 
0.661995

>  <sdf_rank>  (3) 
0

$$$$

     RDKit          3D

 36 37  0  0  0  0  0  0  0  0999 V2000
   15.7993  -14.4102    7.3609 P   0  0  2  0  0  0  0  0  0  0  0  0
   14.6069  -14.0245    6.5624 O   0  0  0  0  0  0  0  0  0  0  0  0
   17.1899  -14.6514    6.6092 O   0  0  0  0  0  0  0  0  0  0  0  0
   15.4396  -15.6584    8.3017 O   0  0  0  0  0  0  0  0  0  0  0  0
   15.9914  -13.1950    8.3695 O   0  0  0  0  0  0  0  0  0  0  0  0
   15.3037  -13.1669    9.6086 C   0  0  0  0  0  0  0  0  0  0  0  0
   16.1257  -12.4699   10.6645 C   0  0  1  0  0  0  0  0  0  0  0  0
   17.4357  -12.2023   10.1161 O   0  0  0  0  0  0  0  0  0  0  0  0
   15.5663  -11.1368   11.1561 C   0  0  1  0  0  0  0  0  0  0  0  0
   15.7451  -11.0407   12.5765 O   0  0  0  0  0  0  0  0  0  0  0  0
   16.4344  -10.0965   10.4353 C   0  0  1  0  0  0  0  0  0  0  0  0
   16.6112   -8.9010   11.1614 O   0  0  0  0  0  0  0  0  0  0  0  0
   17.7593  -10.8388   10.2687 C   0  0  2  0  0  0  0  0  0  0  0  0
   18.5459  -10.4857    9.0838 N   0  0  0  0  0  0  0  0  0  0  0  0
   19.3670   -9.4249    9.1462 C   0  0  0  0  0  0  0  0  0  0  0  0
   19.3731   -8.7511   10.1637 O   0  0  0  0  0  0  0  0  0  0  0  0
   20.1424   -9.0895    8.1144 N   0  0  0  0  0  0  0  0  0  0  0  0
   20.1548   -9.8169    7.0045 C   0  0  0  0  0  0  0  0  0  0  0  0
   20.9643   -9.4472    5.9498 N   0  0  0  0  0  0  0  0  0  0  0  0
   19.3319  -10.9681    6.9219 C   0  0  0  0  0  0  0  0  0  0  0  0
   18.5394  -11.2922    7.9818 C   0  0  0  0  0  0  0  0  0  0  0  0
   19.3380  -11.8162    5.6711 C   0  0  0  0  0  0  0  0  0  0  0  0
   14.3521  -12.6302    9.4804 H   0  0  0  0  0  0  0  0  0  0  0  0
   15.1202  -14.2021    9.9325 H   0  0  0  0  0  0  0  0  0  0  0  0
   16.1310  -13.1503   11.5288 H   0  0  0  0  0  0  0  0  0  0  0  0
   14.4928  -11.0066   10.9545 H   0  0  0  0  0  0  0  0  0  0  0  0
   14.9724  -11.4561   13.0353 H   0  0  0  0  0  0  0  0  0  0  0  0
   15.9758   -9.7572    9.4948 H   0  0  0  0  0  0  0  0  0  0  0  0
   16.5823   -9.0967   12.1314 H   0  0  0  0  0  0  0  0  0  0  0  0
   18.3680  -10.5775   11.1469 H   0  0  0  0  0  0  0  0  0  0  0  0
   20.9757  -10.0102    5.0873 H   0  0  0  0  0  0  0  0  0  0  0  0
   21.5571   -8.6082    6.0250 H   0  0  0  0  0  0  0  0  0  0  0  0
   17.9042  -12.1897    7.9503 H   0  0  0  0  0  0  0  0  0  0  0  0
   19.3457  -12.8803    5.9497 H   0  0  0  0  0  0  0  0  0  0  0  0
   18.4383  -11.5993    5.0766 H   0  0  0  0  0  0  0  0  0  0  0  0
   20.2345  -11.5864    5.0766 H   0  0  0  0  0  0  0  0  0  0  0  0
  1  2  2  0
  1  3  1  6
  1  4  1  0
  1  5  1  0
  5  6  1  0
  7  6  1  0
  7  8  1  0
  7  9  1  0
  8 13  1  0
  9 10  1  0
  9 11  1  0
 11 12  1  0
 11 13  1  0
 13 14  1  0
 14 15  1  0
 14 21  1  0
 15 16  2  0
 15 17  1  0
 17 18  2  0
 18 19  1  0
 18 20  1  0
 20 21  2  0
 20 22  1  0
  6 23  1  0
  6 24  1  0
  7 25  1  1
  9 26  1  1
 10 27  1  0
 11 28  1  6
 12 29  1  0
 13 30  1  1
 19 31  1  0
 19 32  1  0
 21 33  1  0
 22 34  1  0
 22 35  1  0
 22 36  1  0
M  CHG  2   3  -1   4  -1
M  END
>  <filename_input>  (4) 
6XBO_5MC_docked.sdf

>  <pdb_id>  (4) 
6XBO_5MC

>  <pose_rank>  (4) 
3

>  <num_atoms_heavy>  (4) 
22

>  <num_torsions>  (4) 
4

>  <pose>  (4) 
[16.12565676814348, -12.469873185087735, 10.664467613406224, -3.0341068331792247, -3.326844479930466, 3.723037825477141, -0.5482442081834611, -2.9839596682361487, -0.5569298292070465, 2.739569981768987]

>  <energy>  (4) 
-757.9813791041239

>  <inter_energy>  (4) 
-775.5563674212847

>  <intra_energy>  (4) 
15.778039181481873

>  <rmsd>  (4) 
1.32765

>  <sdf_rank>  (4) 
0

$$$$

     RDKit          3D

 36 37  0  0  0  0  0  0  0  0999 V2000
   14.7554  -14.1559    7.3147 P   0  0  2  0  0  0  0  0  0  0  0  0
   14.3512  -15.4370    7.9500 O   0  0  0  0  0  0  0  0  0  0  0  0
   13.6858  -13.3559    6.4355 O   0  0  0  0  0  0  0  0  0  0  0  0
   16.1191  -14.3646    6.4966 O   0  0  0  0  0  0  0  0  0  0  0  0
   15.1670  -13.2344    8.5444 O   0  0  0  0  0  0  0  0  0  0  0  0
   16.0159  -13.7279    9.5668 C   0  0  0  0  0  0  0  0  0  0  0  0
   16.3551  -12.6404   10.5560 C   0  0  1  0  0  0  0  0  0  0  0  0
   17.6660  -12.1254   10.2320 O   0  0  0  0  0  0  0  0  0  0  0  0
   15.3993  -11.4497   10.5741 C   0  0  1  0  0  0  0  0  0  0  0  0
   15.1772  -11.0386   11.9307 O   0  0  0  0  0  0  0  0  0  0  0  0
   16.1641  -10.3647    9.8040 C   0  0  1  0  0  0  0  0  0  0  0  0
   15.8699   -9.0522   10.2263 O   0  0  0  0  0  0  0  0  0  0  0  0
   17.6199  -10.7229   10.0985 C   0  0  2  0  0  0  0  0  0  0  0  0
   18.5849  -10.3955    9.0453 N   0  0  0  0  0  0  0  0  0  0  0  0
   19.5913   -9.5534    9.3306 C   0  0  0  0  0  0  0  0  0  0  0  0
   19.6230   -9.0353   10.4350 O   0  0  0  0  0  0  0  0  0  0  0  0
   20.5253   -9.2608    8.4248 N   0  0  0  0  0  0  0  0  0  0  0  0
   20.5108   -9.8228    7.2227 C   0  0  0  0  0  0  0  0  0  0  0  0
   21.4873   -9.5013    6.3021 N   0  0  0  0  0  0  0  0  0  0  0  0
   19.4866  -10.7494    6.9038 C   0  0  0  0  0  0  0  0  0  0  0  0
   18.5352  -11.0311    7.8376 C   0  0  0  0  0  0  0  0  0  0  0  0
   19.4568  -11.4085    5.5442 C   0  0  0  0  0  0  0  0  0  0  0  0
   15.5060  -14.5479   10.0937 H   0  0  0  0  0  0  0  0  0  0  0  0
   16.9479  -14.0880    9.1066 H   0  0  0  0  0  0  0  0  0  0  0  0
   16.2910  -13.1144   11.5465 H   0  0  0  0  0  0  0  0  0  0  0  0
   14.4142  -11.6669   10.1353 H   0  0  0  0  0  0  0  0  0  0  0  0
   15.5456  -11.7205   12.5467 H   0  0  0  0  0  0  0  0  0  0  0  0
   15.9002  -10.3534    8.7361 H   0  0  0  0  0  0  0  0  0  0  0  0
   15.8622   -9.0178   11.2157 H   0  0  0  0  0  0  0  0  0  0  0  0
   17.9042  -10.1390   10.9863 H   0  0  0  0  0  0  0  0  0  0  0  0
   21.4782   -9.9362    5.3685 H   0  0  0  0  0  0  0  0  0  0  0  0
   22.2254   -8.8265    6.5487 H   0  0  0  0  0  0  0  0  0  0  0  0
   17.7393  -11.7592    7.6220 H   0  0  0  0  0  0  0  0  0  0  0  0
   19.4075  -12.5005    5.6671 H   0  0  0  0  0  0  0  0  0  0  0  0
   18.5734  -11.0619    4.9880 H   0  0  0  0  0  0  0  0  0  0  0  0
   20.3679  -11.1429    4.9880 H   0  0  0  0  0  0  0  0  0  0  0  0
  1  2  2  0
  1  3  1  6
  1  4  1  0
  1  5  1  0
  5  6  1  0
  7  6  1  0
  7  8  1  0
  7  9  1  0
  8 13  1  0
  9 10  1  0
  9 11  1  0
 11 12  1  0
 11 13  1  0
 13 14  1  0
 14 15  1  0
 14 21  1  0
 15 16  2  0
 15 17  1  0
 17 18  2  0
 18 19  1  0
 18 20  1  0
 20 21  2  0
 20 22  1  0
  6 23  1  0
  6 24  1  0
  7 25  1  1
  9 26  1  6
 10 27  1  0
 11 28  1  6
 12 29  1  0
 13 30  1  1
 19 31  1  0
 19 32  1  0
 21 33  1  0
 22 34  1  0
 22 35  1  0
 22 36  1  0
M  CHG  2   3  -1   4  -1
M  END
>  <filename_input>  (5) 
6XBO_5MC_docked.sdf

>  <pdb_id>  (5) 
6XBO_5MC

>  <pose_rank>  (5) 
4

>  <num_atoms_heavy>  (5) 
22

>  <num_torsions>  (5) 
4

>  <pose>  (5) 
[16.355141804090202, -12.64040893151769, 10.555962004648343, -0.5130570364371876, -3.2097040608169936, 5.349255639956622, 0.06773219130295187, 7.974955781585245, -0.07994678014400951, 2.0477571590172543]

>  <energy>  (5) 
-804.8784009417808

>  <inter_energy>  (5) 
-807.2303814314262

>  <intra_energy>  (5) 
2.905524702128896

>  <rmsd>  (5) 
1.17242

>  <sdf_rank>  (5) 
0

$$$$

     RDKit          3D

 36 37  0  0  0  0  0  0  0  0999 V2000
   14.5640  -15.4202   10.3626 P   0  0  2  0  0  0  0  0  0  0  0  0
   13.4792  -15.3083   11.3720 O   0  0  0  0  0  0  0  0  0  0  0  0
   14.3896  -16.4461    9.1485 O   0  0  0  0  0  0  0  0  0  0  0  0
   15.9688  -15.6503   11.1016 O   0  0  0  0  0  0  0  0  0  0  0  0
   14.6708  -13.9541    9.7544 O   0  0  0  0  0  0  0  0  0  0  0  0
   15.9321  -13.3959    9.4274 C   0  0  0  0  0  0  0  0  0  0  0  0
   16.3143  -12.3174   10.4108 C   0  0  1  0  0  0  0  0  0  0  0  0
   17.6514  -11.8689   10.0951 O   0  0  0  0  0  0  0  0  0  0  0  0
   15.4168  -11.0821   10.4100 C   0  0  1  0  0  0  0  0  0  0  0  0
   15.2024  -10.6489   11.7610 O   0  0  0  0  0  0  0  0  0  0  0  0
   16.2401  -10.0418    9.6382 C   0  0  1  0  0  0  0  0  0  0  0  0
   16.0056   -8.7130   10.0469 O   0  0  0  0  0  0  0  0  0  0  0  0
   17.6741  -10.4670    9.9496 C   0  0  2  0  0  0  0  0  0  0  0  0
   18.6634  -10.1957    8.9030 N   0  0  0  0  0  0  0  0  0  0  0  0
   19.6583   -9.3320    9.1630 C   0  0  0  0  0  0  0  0  0  0  0  0
   19.6601   -8.7501   10.2357 O   0  0  0  0  0  0  0  0  0  0  0  0
   20.6130   -9.0869    8.2648 N   0  0  0  0  0  0  0  0  0  0  0  0
   20.6310   -9.7182    7.0976 C   0  0  0  0  0  0  0  0  0  0  0  0
   21.6285   -9.4449    6.1840 N   0  0  0  0  0  0  0  0  0  0  0  0
   19.6195  -10.6683    6.8086 C   0  0  0  0  0  0  0  0  0  0  0  0
   18.6466  -10.9010    7.7337 C   0  0  0  0  0  0  0  0  0  0  0  0
   19.6267  -11.4058    5.4896 C   0  0  0  0  0  0  0  0  0  0  0  0
   16.6936  -14.1894    9.4490 H   0  0  0  0  0  0  0  0  0  0  0  0
   15.8699  -12.9505    8.4236 H   0  0  0  0  0  0  0  0  0  0  0  0
   16.2184  -12.7792   11.4046 H   0  0  0  0  0  0  0  0  0  0  0  0
   14.4265  -11.2554    9.9637 H   0  0  0  0  0  0  0  0  0  0  0  0
   15.5430  -11.3369   12.3861 H   0  0  0  0  0  0  0  0  0  0  0  0
   15.9867  -10.0271    8.5679 H   0  0  0  0  0  0  0  0  0  0  0  0
   15.9977   -8.6685   11.0359 H   0  0  0  0  0  0  0  0  0  0  0  0
   17.9781   -9.8898   10.8352 H   0  0  0  0  0  0  0  0  0  0  0  0
   21.6446   -9.9336    5.2775 H   0  0  0  0  0  0  0  0  0  0  0  0
   22.3570   -8.7522    6.4087 H   0  0  0  0  0  0  0  0  0  0  0  0
   17.8599  -11.6454    7.5417 H   0  0  0  0  0  0  0  0  0  0  0  0
   19.6372  -12.4899    5.6757 H   0  0  0  0  0  0  0  0  0  0  0  0
   18.7259  -11.1409    4.9164 H   0  0  0  0  0  0  0  0  0  0  0  0
   20.5221  -11.1234    4.9164 H   0  0  0  0  0  0  0  0  0  0  0  0
  1  2  2  0
  1  3  1  6
  1  4  1  0
  1  5  1  0
  5  6  1  0
  7  6  1  0
  7  8  1  0
  7  9  1  0
  8 13  1  0
  9 10  1  0
  9 11  1  0
 11 12  1  0
 11 13  1  0
 13 14  1  0
 14 15  1  0
 14 21  1  0
 15 16  2  0
 15 17  1  0
 17 18  2  0
 18 19  1  0
 18 20  1  0
 20 21  2  0
 20 22  1  0
  6 23  1  0
  6 24  1  0
  7 25  1  1
  9 26  1  6
 10 27  1  0
 11 28  1  6
 12 29  1  0
 13 30  1  1
 19 31  1  0
 19 32  1  0
 21 33  1  0
 22 34  1  0
 22 35  1  0
 22 36  1  0
M  CHG  2   3  -1   4  -1
M  END
>  <filename_input>  (6) 
6XBO_5MC_docked.sdf

>  <pdb_id>  (6) 
6XBO_5MC

>  <pose_rank>  (6) 
5

>  <num_atoms_heavy>  (6) 
22

>  <num_torsions>  (6) 
4

>  <pose>  (6) 
[16.31431549078599, -12.317439014312184, 10.410800534612587, 0.554396942353149, -0.24687142813253893, 6.184612085030381, -0.007234849935035134, 0.20143341190596126, 1.2652986356807232, 3.6968096540618487]

>  <energy>  (6) 
-821.5814226793575

>  <inter_energy>  (6) 
-832.3092828924412

>  <intra_energy>  (6) 
0.9586415018369845

>  <rmsd>  (6) 
0.858453

>  <sdf_rank>  (6) 
0

$$$$

     RDKit          3D

 36 37  0  0  0  0  0  0  0  0999 V2000
   15.7271  -16.0538    9.9759 P   0  0  2  0  0  0  0  0  0  0  0  0
   14.5190  -15.5930   10.7084 O   0  0  0  0  0  0  0  0  0  0  0  0
   15.5466  -16.7719    8.5586 O   0  0  0  0  0  0  0  0  0  0  0  0
   16.6435  -16.9410   10.9483 O   0  0  0  0  0  0  0  0  0  0  0  0
   16.5650  -14.7210    9.7472 O   0  0  0  0  0  0  0  0  0  0  0  0
   15.9179  -13.5110    9.3917 C   0  0  0  0  0  0  0  0  0  0  0  0
   16.2772  -12.4058   10.3539 C   0  0  1  0  0  0  0  0  0  0  0  0
   17.6075  -11.9405   10.0341 O   0  0  0  0  0  0  0  0  0  0  0  0
   15.3583  -11.1867   10.3241 C   0  0  1  0  0  0  0  0  0  0  0  0
   15.1307  -10.7296   11.6650 O   0  0  0  0  0  0  0  0  0  0  0  0
   16.1664  -10.1483    9.5341 C   0  0  1  0  0  0  0  0  0  0  0  0
   15.9070   -8.8157    9.9142 O   0  0  0  0  0  0  0  0  0  0  0  0
   17.6063  -10.5418    9.8596 C   0  0  2  0  0  0  0  0  0  0  0  0
   18.5951  -10.2748    8.8114 N   0  0  0  0  0  0  0  0  0  0  0  0
   19.5774   -9.3934    9.0595 C   0  0  0  0  0  0  0  0  0  0  0  0
   19.5679   -8.7933   10.1221 O   0  0  0  0  0  0  0  0  0  0  0  0
   20.5314   -9.1505    8.1600 N   0  0  0  0  0  0  0  0  0  0  0  0
   20.5616   -9.8013    7.0038 C   0  0  0  0  0  0  0  0  0  0  0  0
   21.5582   -9.5300    6.0885 N   0  0  0  0  0  0  0  0  0  0  0  0
   19.5641  -10.7699    6.7281 C   0  0  0  0  0  0  0  0  0  0  0  0
   18.5916  -11.0000    7.6542 C   0  0  0  0  0  0  0  0  0  0  0  0
   19.5853  -11.5296    5.4218 C   0  0  0  0  0  0  0  0  0  0  0  0
   16.2291  -13.2207    8.3773 H   0  0  0  0  0  0  0  0  0  0  0  0
   14.8301  -13.6699    9.4290 H   0  0  0  0  0  0  0  0  0  0  0  0
   16.1852  -12.8486   11.3567 H   0  0  0  0  0  0  0  0  0  0  0  0
   14.3730  -11.3866    9.8777 H   0  0  0  0  0  0  0  0  0  0  0  0
   15.4671  -11.4053   12.3056 H   0  0  0  0  0  0  0  0  0  0  0  0
   15.9173  -10.1602    8.4627 H   0  0  0  0  0  0  0  0  0  0  0  0
   15.8944   -8.7508   10.9020 H   0  0  0  0  0  0  0  0  0  0  0  0
   17.8965   -9.9411   10.7342 H   0  0  0  0  0  0  0  0  0  0  0  0
   21.5837  -10.0337    5.1905 H   0  0  0  0  0  0  0  0  0  0  0  0
   22.2764   -8.8237    6.3034 H   0  0  0  0  0  0  0  0  0  0  0  0
   17.8156  -11.7583    7.4727 H   0  0  0  0  0  0  0  0  0  0  0  0
   19.6156  -12.6099    5.6265 H   0  0  0  0  0  0  0  0  0  0  0  0
   18.6802  -11.2910    4.8441 H   0  0  0  0  0  0  0  0  0  0  0  0
   20.4757  -11.2407    4.8441 H   0  0  0  0  0  0  0  0  0  0  0  0
  1  2  2  0
  1  3  1  6
  1  4  1  0
  1  5  1  0
  5  6  1  0
  7  6  1  0
  7  8  1  0
  7  9  1  0
  8 13  1  0
  9 10  1  0
  9 11  1  0
 11 12  1  0
 11 13  1  0
 13 14  1  0
 14 15  1  0
 14 21  1  0
 15 16  2  0
 15 17  1  0
 17 18  2  0
 18 19  1  0
 18 20  1  0
 20 21  2  0
 20 22  1  0
  6 23  1  0
  6 24  1  0
  7 25  1  1
  9 26  1  6
 10 27  1  0
 11 28  1  6
 12 29  1  0
 13 30  1  1
 19 31  1  0
 19 32  1  0
 21 33  1  0
 22 34  1  0
 22 35  1  0
 22 36  1  0
M  CHG  2   3  -1   4  -1
M  END
>  <filename_input>  (7) 
6XBO_5MC_docked.sdf

>  <pdb_id>  (7) 
6XBO_5MC

>  <pose_rank>  (7) 
6

>  <num_atoms_heavy>  (7) 
22

>  <num_torsions>  (7) 
4

>  <pose>  (7) 
[16.277187168327615, -12.40584994679715, 10.353914103223962, 2.8846536159681895, 0.21661090887550677, 5.51261032723028, -6.284987449958805, -7.797707006464607, -7.232402461512091, 0.5175120110163034]

>  <energy>  (7) 
-815.1953580954726

>  <inter_energy>  (7) 
-810.5032785446892

>  <intra_energy>  (7) 
0.0

>  <rmsd>  (7) 
0.958222

>  <sdf_rank>  (7) 
0

$$$$

     RDKit          3D

 36 37  0  0  0  0  0  0  0  0999 V2000
   15.9384  -15.7215    9.3115 P   0  0  2  0  0  0  0  0  0  0  0  0
   15.0902  -15.3182    8.1599 O   0  0  0  0  0  0  0  0  0  0  0  0
   17.1408  -16.7467    9.0664 O   0  0  0  0  0  0  0  0  0  0  0  0
   15.0084  -16.2173   10.5206 O   0  0  0  0  0  0  0  0  0  0  0  0
   16.5600  -14.3502    9.8251 O   0  0  0  0  0  0  0  0  0  0  0  0
   15.7491  -13.1965    9.9689 C   0  0  0  0  0  0  0  0  0  0  0  0
   16.4028  -12.1899   10.8830 C   0  0  1  0  0  0  0  0  0  0  0  0
   17.6971  -11.8531   10.3353 O   0  0  0  0  0  0  0  0  0  0  0  0
   15.6407  -10.8795   11.0664 C   0  0  1  0  0  0  0  0  0  0  0  0
   15.7158  -10.4738   12.4407 O   0  0  0  0  0  0  0  0  0  0  0  0
   16.4054   -9.8924   10.1740 C   0  0  1  0  0  0  0  0  0  0  0  0
   16.3751   -8.5622   10.6401 O   0  0  0  0  0  0  0  0  0  0  0  0
   17.8254  -10.4549   10.2108 C   0  0  2  0  0  0  0  0  0  0  0  0
   18.6304  -10.2390    9.0053 N   0  0  0  0  0  0  0  0  0  0  0  0
   19.6035   -9.3141    9.0356 C   0  0  0  0  0  0  0  0  0  0  0  0
   19.7334   -8.6369   10.0425 O   0  0  0  0  0  0  0  0  0  0  0  0
   20.3980   -9.1122    7.9838 N   0  0  0  0  0  0  0  0  0  0  0  0
   20.2763   -9.8463    6.8850 C   0  0  0  0  0  0  0  0  0  0  0  0
   21.1092   -9.6160    5.8091 N   0  0  0  0  0  0  0  0  0  0  0  0
   19.2873  -10.8606    6.8359 C   0  0  0  0  0  0  0  0  0  0  0  0
   18.4782  -11.0484    7.9160 C   0  0  0  0  0  0  0  0  0  0  0  0
   19.1381  -11.7148    5.5982 C   0  0  0  0  0  0  0  0  0  0  0  0
   15.5953  -12.7389    8.9805 H   0  0  0  0  0  0  0  0  0  0  0  0
   14.7858  -13.4962   10.4074 H   0  0  0  0  0  0  0  0  0  0  0  0
   16.4449  -12.6738   11.8700 H   0  0  0  0  0  0  0  0  0  0  0  0
   14.5741  -10.9483   10.8061 H   0  0  0  0  0  0  0  0  0  0  0  0
   15.5703  -11.2596   13.0251 H   0  0  0  0  0  0  0  0  0  0  0  0
   15.9653   -9.8196    9.1685 H   0  0  0  0  0  0  0  0  0  0  0  0
   16.3750   -8.5594   11.6301 H   0  0  0  0  0  0  0  0  0  0  0  0
   18.3376   -9.9370   11.0350 H   0  0  0  0  0  0  0  0  0  0  0  0
   21.0167  -10.1845    4.9552 H   0  0  0  0  0  0  0  0  0  0  0  0
   21.8234   -8.8756    5.8599 H   0  0  0  0  0  0  0  0  0  0  0  0
   17.7142  -11.8398    7.9106 H   0  0  0  0  0  0  0  0  0  0  0  0
   18.9557  -12.7588    5.8930 H   0  0  0  0  0  0  0  0  0  0  0  0
   18.2902  -11.3491    5.0004 H   0  0  0  0  0  0  0  0  0  0  0  0
   20.0597  -11.6583    5.0004 H   0  0  0  0  0  0  0  0  0  0  0  0
  1  2  2  0
  1  3  1  6
  1  4  1  0
  1  5  1  0
  5  6  1  0
  7  6  1  0
  7  8  1  0
  7  9  1  0
  8 13  1  0
  9 10  1  0
  9 11  1  0
 11 12  1  0
 11 13  1  0
 13 14  1  0
 14 15  1  0
 14 21  1  0
 15 16  2  0
 15 17  1  0
 17 18  2  0
 18 19  1  0
 18 20  1  0
 20 21  2  0
 20 22  1  0
  6 23  1  0
  6 24  1  0
  7 25  1  1
  9 26  1  6
 10 27  1  0
 11 28  1  6
 12 29  1  0
 13 30  1  1
 19 31  1  0
 19 32  1  0
 21 33  1  0
 22 34  1  0
 22 35  1  0
 22 36  1  0
M  CHG  2   3  -1   4  -1
M  END
>  <filename_input>  (8) 
6XBO_5MC_docked.sdf

>  <pdb_id>  (8) 
6XBO_5MC

>  <pose_rank>  (8) 
7

>  <num_atoms_heavy>  (8) 
22

>  <num_torsions>  (8) 
4

>  <pose>  (8) 
[16.402847916473227, -12.189862851546216, 10.883001270647148, 0.012553484780189436, 0.18704884074739617, -0.16054887230540926, -0.1910429182863777, 4.435683832832455, -0.3335777722783805, 2.009058035575633]

>  <energy>  (8) 
-772.3077614376525

>  <inter_energy>  (8) 
-773.2335057194668

>  <intra_energy>  (8) 
0.049875031507626996

>  <rmsd>  (8) 
0.86081

>  <sdf_rank>  (8) 
0

$$$$

     RDKit          3D

 36 37  0  0  0  0  0  0  0  0999 V2000
   15.6302  -14.6814    7.9923 P   0  0  2  0  0  0  0  0  0  0  0  0
   16.4787  -14.5523    6.7792 O   0  0  0  0  0  0  0  0  0  0  0  0
   15.6597  -16.0517    8.8160 O   0  0  0  0  0  0  0  0  0  0  0  0
   14.1218  -14.2616    7.6445 O   0  0  0  0  0  0  0  0  0  0  0  0
   16.1543  -13.5230    8.9485 O   0  0  0  0  0  0  0  0  0  0  0  0
   15.3152  -12.9776    9.9523 C   0  0  0  0  0  0  0  0  0  0  0  0
   16.1025  -12.0984   10.8923 C   0  0  1  0  0  0  0  0  0  0  0  0
   17.4090  -11.8744   10.3167 O   0  0  0  0  0  0  0  0  0  0  0  0
   15.4946  -10.7251   11.1685 C   0  0  1  0  0  0  0  0  0  0  0  0
   15.6546  -10.4048   12.5580 O   0  0  0  0  0  0  0  0  0  0  0  0
   16.3361   -9.7797   10.3005 C   0  0  1  0  0  0  0  0  0  0  0  0
   16.4659   -8.4812   10.8339 O   0  0  0  0  0  0  0  0  0  0  0  0
   17.6863  -10.4936   10.2584 C   0  0  2  0  0  0  0  0  0  0  0  0
   18.4739  -10.3012    9.0377 N   0  0  0  0  0  0  0  0  0  0  0  0
   19.3331   -9.2708    8.9791 C   0  0  0  0  0  0  0  0  0  0  0  0
   19.3730   -8.4906    9.9166 O   0  0  0  0  0  0  0  0  0  0  0  0
   20.1103   -9.0789    7.9125 N   0  0  0  0  0  0  0  0  0  0  0  0
   20.0861   -9.9232    6.8890 C   0  0  0  0  0  0  0  0  0  0  0  0
   20.8984   -9.7010    5.7957 N   0  0  0  0  0  0  0  0  0  0  0  0
   19.2216  -11.0456    6.9374 C   0  0  0  0  0  0  0  0  0  0  0  0
   18.4280  -11.2226    8.0307 C   0  0  0  0  0  0  0  0  0  0  0  0
   19.1855  -12.0250    5.7871 C   0  0  0  0  0  0  0  0  0  0  0  0
   14.5255  -12.3786    9.4753 H   0  0  0  0  0  0  0  0  0  0  0  0
   14.8748  -13.8039   10.5296 H   0  0  0  0  0  0  0  0  0  0  0  0
   16.1205  -12.6366   11.8515 H   0  0  0  0  0  0  0  0  0  0  0  0
   14.4196  -10.6641   10.9431 H   0  0  0  0  0  0  0  0  0  0  0  0
   15.2875  -11.1397   13.1105 H   0  0  0  0  0  0  0  0  0  0  0  0
   15.8770   -9.6056    9.3162 H   0  0  0  0  0  0  0  0  0  0  0  0
   16.4612   -8.5287   11.8228 H   0  0  0  0  0  0  0  0  0  0  0  0
   18.2765  -10.0793   11.0891 H   0  0  0  0  0  0  0  0  0  0  0  0
   20.8814  -10.3549    5.0001 H   0  0  0  0  0  0  0  0  0  0  0  0
   21.5216   -8.8812    5.7753 H   0  0  0  0  0  0  0  0  0  0  0  0
   17.7607  -12.0942    8.1012 H   0  0  0  0  0  0  0  0  0  0  0  0
   19.1477  -13.0515    6.1806 H   0  0  0  0  0  0  0  0  0  0  0  0
   18.2938  -11.8351    5.1717 H   0  0  0  0  0  0  0  0  0  0  0  0
   20.0889  -11.9013    5.1717 H   0  0  0  0  0  0  0  0  0  0  0  0
  1  2  2  0
  1  3  1  1
  1  4  1  0
  1  5  1  0
  5  6  1  0
  7  6  1  0
  7  8  1  0
  7  9  1  0
  8 13  1  0
  9 10  1  0
  9 11  1  0
 11 12  1  0
 11 13  1  0
 13 14  1  0
 14 15  1  0
 14 21  1  0
 15 16  2  0
 15 17  1  0
 17 18  2  0
 18 19  1  0
 18 20  1  0
 20 21  2  0
 20 22  1  0
  6 23  1  0
  6 24  1  0
  7 25  1  1
  9 26  1  6
 10 27  1  0
 11 28  1  6
 12 29  1  0
 13 30  1  1
 19 31  1  0
 19 32  1  0
 21 33  1  0
 22 34  1  0
 22 35  1  0
 22 36  1  0
M  CHG  2   3  -1   4  -1
M  END
>  <filename_input>  (9) 
6XBO_5MC_docked.sdf

>  <pdb_id>  (9) 
6XBO_5MC

>  <pose_rank>  (9) 
8

>  <num_atoms_heavy>  (9) 
22

>  <num_torsions>  (9) 
4

>  <pose>  (9) 
[16.102452186541754, -12.098376852809269, 10.892315235492138, 0.07237528788782356, 0.22329778099161385, -0.26484964154418567, 12.102915583873171, -27.789496238050592, -12.753779544352529, 16.507994901403165]

>  <energy>  (9) 
-801.811492349991

>  <inter_energy>  (9) 
-815.0477453834523

>  <intra_energy>  (9) 
8.00921706278606

>  <rmsd>  (9) 
1.18347

>  <sdf_rank>  (9) 
0

$$$$

     RDKit          3D

 36 37  0  0  0  0  0  0  0  0999 V2000
   15.3112  -16.0826    9.6507 P   0  0  2  0  0  0  0  0  0  0  0  0
   15.0039  -16.5780   11.0176 O   0  0  0  0  0  0  0  0  0  0  0  0
   14.2342  -16.2975    8.4885 O   0  0  0  0  0  0  0  0  0  0  0  0
   16.7528  -16.6166    9.1933 O   0  0  0  0  0  0  0  0  0  0  0  0
   15.5124  -14.5171    9.8496 O   0  0  0  0  0  0  0  0  0  0  0  0
   16.8126  -13.9547    9.8992 C   0  0  0  0  0  0  0  0  0  0  0  0
   16.8157  -12.6766   10.7010 C   0  0  1  0  0  0  0  0  0  0  0  0
   17.9855  -11.9124   10.3320 O   0  0  0  0  0  0  0  0  0  0  0  0
   15.6053  -11.7693   10.4922 C   0  0  1  0  0  0  0  0  0  0  0  0
   15.2001  -11.2189   11.7539 O   0  0  0  0  0  0  0  0  0  0  0  0
   16.1409  -10.6635    9.5726 C   0  0  1  0  0  0  0  0  0  0  0  0
   15.5152   -9.4142    9.7602 O   0  0  0  0  0  0  0  0  0  0  0  0
   17.6166  -10.6028    9.9637 C   0  0  2  0  0  0  0  0  0  0  0  0
   18.5455  -10.2169    8.8979 N   0  0  0  0  0  0  0  0  0  0  0  0
   19.4090   -9.2140    9.1256 C   0  0  0  0  0  0  0  0  0  0  0  0
   19.3388   -8.6132   10.1855 O   0  0  0  0  0  0  0  0  0  0  0  0
   20.3090   -8.8556    8.2092 N   0  0  0  0  0  0  0  0  0  0  0  0
   20.4049   -9.5046    7.0556 C   0  0  0  0  0  0  0  0  0  0  0  0
   21.3431   -9.1125    6.1226 N   0  0  0  0  0  0  0  0  0  0  0  0
   19.5371  -10.5960    6.8009 C   0  0  0  0  0  0  0  0  0  0  0  0
   18.6175  -10.9441    7.7442 C   0  0  0  0  0  0  0  0  0  0  0  0
   19.6358  -11.3552    5.4980 C   0  0  0  0  0  0  0  0  0  0  0  0
   17.4991  -14.6753   10.3676 H   0  0  0  0  0  0  0  0  0  0  0  0
   17.1365  -13.7268    8.8730 H   0  0  0  0  0  0  0  0  0  0  0  0
   16.7988  -12.9913   11.7548 H   0  0  0  0  0  0  0  0  0  0  0  0
   14.7322  -12.2875   10.0688 H   0  0  0  0  0  0  0  0  0  0  0  0
   15.5935  -11.7533   12.4886 H   0  0  0  0  0  0  0  0  0  0  0  0
   15.9550  -10.8841    8.5111 H   0  0  0  0  0  0  0  0  0  0  0  0
   15.4243   -9.2328   10.7293 H   0  0  0  0  0  0  0  0  0  0  0  0
   17.6930   -9.8358   10.7485 H   0  0  0  0  0  0  0  0  0  0  0  0
   21.4194   -9.6146    5.2265 H   0  0  0  0  0  0  0  0  0  0  0  0
   21.9671   -8.3177    6.3223 H   0  0  0  0  0  0  0  0  0  0  0  0
   17.9436  -11.7977    7.5791 H   0  0  0  0  0  0  0  0  0  0  0  0
   19.7750  -12.4261    5.7072 H   0  0  0  0  0  0  0  0  0  0  0  0
   18.7114  -11.2118    4.9191 H   0  0  0  0  0  0  0  0  0  0  0  0
   20.4927  -10.9802    4.9191 H   0  0  0  0  0  0  0  0  0  0  0  0
  1  2  2  0
  1  3  1  6
  1  4  1  0
  1  5  1  0
  5  6  1  0
  7  6  1  0
  7  8  1  0
  7  9  1  0
  8 13  1  0
  9 10  1  0
  9 11  1  0
 11 12  1  0
 11 13  1  0
 13 14  1  0
 14 15  1  0
 14 21  1  0
 15 16  2  0
 15 17  1  0
 17 18  2  0
 18 19  1  0
 18 20  1  0
 20 21  2  0
 20 22  1  0
  6 23  1  0
  6 24  1  0
  7 25  1  1
  9 26  1  6
 10 27  1  0
 11 28  1  6
 12 29  1  0
 13 30  1  1
 19 31  1  0
 19 32  1  0
 21 33  1  0
 22 34  1  0
 22 35  1  0
 22 36  1  0
M  CHG  2   3  -1   4  -1
M  END
>  <filename_input>  (10) 
6XBO_5MC_docked.sdf

>  <pdb_id>  (10) 
6XBO_5MC

>  <pose_rank>  (10) 
9

>  <num_atoms_heavy>  (10) 
22

>  <num_torsions>  (10) 
4

>  <pose>  (10) 
[16.815656049434562, -12.67658922727197, 10.700956876515326, -3.831117646247411, -0.8909739054682383, 5.253731760724292, 0.19980153302904982, 0.6418653270115445, 0.46802332281304676, -3.2852448328495996]

>  <energy>  (10) 
-814.9481273084419

>  <inter_energy>  (10) 
-819.4243513391449

>  <intra_energy>  (10) 
0.0

>  <rmsd>  (10) 
0.705964

>  <sdf_rank>  (10) 
0

$$$$

     RDKit          3D

 36 37  0  0  0  0  0  0  0  0999 V2000
   16.6318  -15.7025    8.9835 P   0  0  2  0  0  0  0  0  0  0  0  0
   17.0559  -14.9906    7.7500 O   0  0  0  0  0  0  0  0  0  0  0  0
   17.6508  -16.7188    9.6804 O   0  0  0  0  0  0  0  0  0  0  0  0
   15.2092  -16.4028    8.7418 O   0  0  0  0  0  0  0  0  0  0  0  0
   16.3271  -14.5296   10.0142 O   0  0  0  0  0  0  0  0  0  0  0  0
   15.8035  -13.2906    9.5671 C   0  0  0  0  0  0  0  0  0  0  0  0
   16.1411  -12.1833   10.5346 C   0  0  1  0  0  0  0  0  0  0  0  0
   17.4531  -11.6759   10.2036 O   0  0  0  0  0  0  0  0  0  0  0  0
   15.1860  -10.9918   10.5259 C   0  0  1  0  0  0  0  0  0  0  0  0
   14.9608  -10.5529   11.8733 O   0  0  0  0  0  0  0  0  0  0  0  0
   15.9536   -9.9233    9.7357 C   0  0  1  0  0  0  0  0  0  0  0  0
   15.6593   -8.6022   10.1303 O   0  0  0  0  0  0  0  0  0  0  0  0
   17.4084  -10.2764   10.0412 C   0  0  2  0  0  0  0  0  0  0  0  0
   18.3763   -9.9714    8.9840 N   0  0  0  0  0  0  0  0  0  0  0  0
   19.3974   -9.1447    9.2621 C   0  0  0  0  0  0  0  0  0  0  0  0
   19.4403   -8.6208   10.3635 O   0  0  0  0  0  0  0  0  0  0  0  0
   20.3340   -8.8729    8.3526 N   0  0  0  0  0  0  0  0  0  0  0  0
   20.3073   -9.4415    7.1538 C   0  0  0  0  0  0  0  0  0  0  0  0
   21.2869   -9.1418    6.2292 N   0  0  0  0  0  0  0  0  0  0  0  0
   19.2669  -10.3526    6.8426 C   0  0  0  0  0  0  0  0  0  0  0  0
   18.3131  -10.6129    7.7801 C   0  0  0  0  0  0  0  0  0  0  0  0
   19.2229  -11.0189    5.4869 C   0  0  0  0  0  0  0  0  0  0  0  0
   16.2329  -13.0523    8.5828 H   0  0  0  0  0  0  0  0  0  0  0  0
   14.7090  -13.3757    9.4981 H   0  0  0  0  0  0  0  0  0  0  0  0
   16.0741  -12.6368   11.5345 H   0  0  0  0  0  0  0  0  0  0  0  0
   14.2020  -11.2173   10.0892 H   0  0  0  0  0  0  0  0  0  0  0  0
   15.3091  -11.2317   12.5041 H   0  0  0  0  0  0  0  0  0  0  0  0
   15.6924   -9.9337    8.6672 H   0  0  0  0  0  0  0  0  0  0  0  0
   15.6472   -8.5480   11.1187 H   0  0  0  0  0  0  0  0  0  0  0  0
   17.6909   -9.6746   10.9176 H   0  0  0  0  0  0  0  0  0  0  0  0
   21.2683   -9.5818    5.2981 H   0  0  0  0  0  0  0  0  0  0  0  0
   22.0368   -8.4780    6.4702 H   0  0  0  0  0  0  0  0  0  0  0  0
   17.5046  -11.3288    7.5705 H   0  0  0  0  0  0  0  0  0  0  0  0
   19.1510  -12.1089    5.6162 H   0  0  0  0  0  0  0  0  0  0  0  0
   18.3467  -10.6572    4.9288 H   0  0  0  0  0  0  0  0  0  0  0  0
   20.1391  -10.7755    4.9288 H   0  0  0  0  0  0  0  0  0  0  0  0
  1  2  2  0
  1  3  1  1
  1  4  1  0
  1  5  1  0
  5  6  1  0
  7  6  1  0
  7  8  1  0
  7  9  1  0
  8 13  1  0
  9 10  1  0
  9 11  1  0
 11 12  1  0
 11 13  1  0
 13 14  1  0
 14 15  1  0
 14 21  1  0
 15 16  2  0
 15 17  1  0
 17 18  2  0
 18 19  1  0
 18 20  1  0
 20 21  2  0
 20 22  1  0
  6 23  1  0
  6 24  1  0
  7 25  1  1
  9 26  1  6
 10 27  1  0
 11 28  1  6
 12 29  1  0
 13 30  1  1
 19 31  1  0
 19 32  1  0
 21 33  1  0
 22 34  1  0
 22 35  1  0
 22 36  1  0
M  CHG  2   3  -1   4  -1
M  END
>  <filename_input>  (11) 
6XBO_5MC_docked.sdf

>  <pdb_id>  (11) 
6XBO_5MC

>  <pose_rank>  (11) 
10

>  <num_atoms_heavy>  (11) 
22

>  <num_torsions>  (11) 
4

>  <pose>  (11) 
[16.141070795189137, -12.18328134921623, 10.534628976721171, 3.902443996833344, -1.9922776408677587, 4.461872522359959, 0.09008509472269463, -1.3618970041007403, 6.712333951921246, -4.476432650129063]

>  <energy>  (11) 
-750.7619718890782

>  <inter_energy>  (11) 
-742.9603223609153

>  <intra_energy>  (11) 
0.0

>  <rmsd>  (11) 
1.12613

>  <sdf_rank>  (11) 
0

$$$$

     RDKit          3D

 36 37  0  0  0  0  0  0  0  0999 V2000
   15.6409  -15.4711   11.2072 P   0  0  2  0  0  0  0  0  0  0  0  0
   14.8747  -16.7206   10.9624 O   0  0  0  0  0  0  0  0  0  0  0  0
   17.2388  -15.5242   11.1786 O   0  0  0  0  0  0  0  0  0  0  0  0
   15.1210  -14.7732   12.5545 O   0  0  0  0  0  0  0  0  0  0  0  0
   15.1616  -14.4967   10.0447 O   0  0  0  0  0  0  0  0  0  0  0  0
   16.0584  -13.5636    9.4664 C   0  0  0  0  0  0  0  0  0  0  0  0
   16.3787  -12.4531   10.4361 C   0  0  1  0  0  0  0  0  0  0  0  0
   17.6864  -11.9304   10.1114 O   0  0  0  0  0  0  0  0  0  0  0  0
   15.4101  -11.2728   10.4237 C   0  0  1  0  0  0  0  0  0  0  0  0
   15.1736  -10.8373   11.7703 O   0  0  0  0  0  0  0  0  0  0  0  0
   16.1689  -10.1949    9.6377 C   0  0  1  0  0  0  0  0  0  0  0  0
   15.8576   -8.8776   10.0317 O   0  0  0  0  0  0  0  0  0  0  0  0
   17.6262  -10.5315    9.9496 C   0  0  2  0  0  0  0  0  0  0  0  0
   18.5954  -10.2146    8.8971 N   0  0  0  0  0  0  0  0  0  0  0  0
   19.5360   -9.2882    9.1429 C   0  0  0  0  0  0  0  0  0  0  0  0
   19.5039   -8.6925   10.2075 O   0  0  0  0  0  0  0  0  0  0  0  0
   20.4725   -8.9976    8.2391 N   0  0  0  0  0  0  0  0  0  0  0  0
   20.5274   -9.6427    7.0806 C   0  0  0  0  0  0  0  0  0  0  0  0
   21.5049   -9.3216    6.1610 N   0  0  0  0  0  0  0  0  0  0  0  0
   19.5755  -10.6568    6.8070 C   0  0  0  0  0  0  0  0  0  0  0  0
   18.6201  -10.9357    7.7376 C   0  0  0  0  0  0  0  0  0  0  0  0
   19.6257  -11.4107    5.4982 C   0  0  0  0  0  0  0  0  0  0  0  0
   16.9891  -14.0814    9.1914 H   0  0  0  0  0  0  0  0  0  0  0  0
   15.5844  -13.1264    8.5752 H   0  0  0  0  0  0  0  0  0  0  0  0
   16.3124  -12.9081   11.4354 H   0  0  0  0  0  0  0  0  0  0  0  0
   14.4307  -11.5093    9.9824 H   0  0  0  0  0  0  0  0  0  0  0  0
   15.5372  -11.5069   12.4024 H   0  0  0  0  0  0  0  0  0  0  0  0
   15.9127  -10.2077    8.5680 H   0  0  0  0  0  0  0  0  0  0  0  0
   15.8447   -8.8231   11.0201 H   0  0  0  0  0  0  0  0  0  0  0  0
   17.8978   -9.9270   10.8277 H   0  0  0  0  0  0  0  0  0  0  0  0
   21.5495   -9.8208    5.2612 H   0  0  0  0  0  0  0  0  0  0  0  0
   22.1899   -8.5826    6.3744 H   0  0  0  0  0  0  0  0  0  0  0  0
   17.8801  -11.7294    7.5577 H   0  0  0  0  0  0  0  0  0  0  0  0
   19.6976  -12.4898    5.6992 H   0  0  0  0  0  0  0  0  0  0  0  0
   18.7119  -11.2052    4.9214 H   0  0  0  0  0  0  0  0  0  0  0  0
   20.5042  -11.0858    4.9214 H   0  0  0  0  0  0  0  0  0  0  0  0
  1  2  2  0
  1  3  1  1
  1  4  1  0
  1  5  1  0
  5  6  1  0
  7  6  1  0
  7  8  1  0
  7  9  1  0
  8 13  1  0
  9 10  1  0
  9 11  1  0
 11 12  1  0
 11 13  1  0
 13 14  1  0
 14 15  1  0
 14 21  1  0
 15 16  2  0
 15 17  1  0
 17 18  2  0
 18 19  1  0
 18 20  1  0
 20 21  2  0
 20 22  1  0
  6 23  1  0
  6 24  1  0
  7 25  1  1
  9 26  1  6
 10 27  1  0
 11 28  1  6
 12 29  1  0
 13 30  1  1
 19 31  1  0
 19 32  1  0
 21 33  1  0
 22 34  1  0
 22 35  1  0
 22 36  1  0
M  CHG  2   3  -1   4  -1
M  END
>  <filename_input>  (12) 
6XBO_5MC_docked.sdf

>  <pdb_id>  (12) 
6XBO_5MC

>  <pose_rank>  (12) 
11

>  <num_atoms_heavy>  (12) 
22

>  <num_torsions>  (12) 
4

>  <pose>  (12) 
[16.37872847808866, -12.453118230809297, 10.436128598133756, 5.362034187408876, -1.4311274844878228, 2.901150397472059, 6.272671367974184, -6.468930333906761, 1.9107021360258585, -1.319273256445009]

>  <energy>  (12) 
-808.7358844680318

>  <inter_energy>  (12) 
-813.7027958480093

>  <intra_energy>  (12) 
4.576291070872728

>  <rmsd>  (12) 
1.36365

>  <sdf_rank>  (12) 
0

$$$$

     RDKit          3D

 36 37  0  0  0  0  0  0  0  0999 V2000
   14.9108  -15.9778    8.8733 P   0  0  2  0  0  0  0  0  0  0  0  0
   14.6519  -15.2835    7.5852 O   0  0  0  0  0  0  0  0  0  0  0  0
   15.9223  -17.2161    8.8962 O   0  0  0  0  0  0  0  0  0  0  0  0
   13.5183  -16.3707    9.5654 O   0  0  0  0  0  0  0  0  0  0  0  0
   15.5104  -14.8375    9.8066 O   0  0  0  0  0  0  0  0  0  0  0  0
   16.1757  -13.7184    9.2461 C   0  0  0  0  0  0  0  0  0  0  0  0
   16.5558  -12.7263   10.3173 C   0  0  1  0  0  0  0  0  0  0  0  0
   17.8473  -12.1704    9.9831 O   0  0  0  0  0  0  0  0  0  0  0  0
   15.5958  -11.5520   10.4931 C   0  0  1  0  0  0  0  0  0  0  0  0
   15.4360  -11.2734   11.8916 O   0  0  0  0  0  0  0  0  0  0  0  0
   16.3178  -10.3915    9.7949 C   0  0  1  0  0  0  0  0  0  0  0  0
   16.0372   -9.1278   10.3534 O   0  0  0  0  0  0  0  0  0  0  0  0
   17.7877  -10.7621    9.9859 C   0  0  2  0  0  0  0  0  0  0  0  0
   18.7002  -10.3272    8.9248 N   0  0  0  0  0  0  0  0  0  0  0  0
   19.6293   -9.4009    9.2114 C   0  0  0  0  0  0  0  0  0  0  0  0
   19.6320   -8.9027   10.3255 O   0  0  0  0  0  0  0  0  0  0  0  0
   20.5165   -9.0062    8.2975 N   0  0  0  0  0  0  0  0  0  0  0  0
   20.5333   -9.5446    7.0846 C   0  0  0  0  0  0  0  0  0  0  0  0
   21.4600   -9.1169    6.1558 N   0  0  0  0  0  0  0  0  0  0  0  0
   19.5937  -10.5560    6.7629 C   0  0  0  0  0  0  0  0  0  0  0  0
   18.6885  -10.9420    7.7054 C   0  0  0  0  0  0  0  0  0  0  0  0
   19.6015  -11.1896    5.3910 C   0  0  0  0  0  0  0  0  0  0  0  0
   17.0862  -14.0607    8.7326 H   0  0  0  0  0  0  0  0  0  0  0  0
   15.4963  -13.2252    8.5352 H   0  0  0  0  0  0  0  0  0  0  0  0
   16.5410  -13.2927   11.2602 H   0  0  0  0  0  0  0  0  0  0  0  0
   14.5922  -11.7360   10.0821 H   0  0  0  0  0  0  0  0  0  0  0  0
   15.8519  -11.9984   12.4222 H   0  0  0  0  0  0  0  0  0  0  0  0
   16.0036  -10.2816    8.7465 H   0  0  0  0  0  0  0  0  0  0  0  0
   16.0517   -9.1930   11.3412 H   0  0  0  0  0  0  0  0  0  0  0  0
   18.1107  -10.2623   10.9110 H   0  0  0  0  0  0  0  0  0  0  0  0
   21.4750   -9.5333    5.2138 H   0  0  0  0  0  0  0  0  0  0  0  0
   22.1367   -8.3814    6.4045 H   0  0  0  0  0  0  0  0  0  0  0  0
   17.9597  -11.7365    7.4875 H   0  0  0  0  0  0  0  0  0  0  0  0
   19.6151  -12.2848    5.4929 H   0  0  0  0  0  0  0  0  0  0  0  0
   18.6995  -10.8837    4.8407 H   0  0  0  0  0  0  0  0  0  0  0  0
   20.4957  -10.8614    4.8407 H   0  0  0  0  0  0  0  0  0  0  0  0
  1  2  2  0
  1  3  1  6
  1  4  1  0
  1  5  1  0
  5  6  1  0
  7  6  1  0
  7  8  1  0
  7  9  1  0
  8 13  1  0
  9 10  1  0
  9 11  1  0
 11 12  1  0
 11 13  1  0
 13 14  1  0
 14 15  1  0
 14 21  1  0
 15 16  2  0
 15 17  1  0
 17 18  2  0
 18 19  1  0
 18 20  1  0
 20 21  2  0
 20 22  1  0
  6 23  1  0
  6 24  1  0
  7 25  1  1
  9 26  1  6
 10 27  1  0
 11 28  1  6
 12 29  1  0
 13 30  1  1
 19 31  1  0
 19 32  1  0
 21 33  1  0
 22 34  1  0
 22 35  1  0
 22 36  1  0
M  CHG  2   3  -1   4  -1
M  END
>  <filename_input>  (13) 
6XBO_5MC_docked.sdf

>  <pdb_id>  (13) 
6XBO_5MC

>  <pose_rank>  (13) 
12

>  <num_atoms_heavy>  (13) 
22

>  <num_torsions>  (13) 
4

>  <pose>  (13) 
[16.555810701137712, -12.726338209495214, 10.317318796839327, -5.203240431757408, -3.2450392809175024, 0.6701095580013721, 6.232855542192895, -6.653936035571303, -0.07518683544593177, 0.7763871414313666]

>  <energy>  (13) 
-859.6820471198785

>  <inter_energy>  (13) 
-852.3352907297337

>  <intra_energy>  (13) 
0.0

>  <rmsd>  (13) 
0.373703

>  <sdf_rank>  (13) 
0

$$$$

     RDKit          3D

 36 37  0  0  0  0  0  0  0  0999 V2000
   15.1848  -13.8351   12.0652 P   0  0  2  0  0  0  0  0  0  0  0  0
   14.5869  -12.8071   12.9563 O   0  0  0  0  0  0  0  0  0  0  0  0
   14.7445  -15.3624   12.2401 O   0  0  0  0  0  0  0  0  0  0  0  0
   16.7830  -13.7006   12.0804 O   0  0  0  0  0  0  0  0  0  0  0  0
   14.7606  -13.3665   10.6053 O   0  0  0  0  0  0  0  0  0  0  0  0
   15.5967  -12.5071    9.8492 C   0  0  0  0  0  0  0  0  0  0  0  0
   16.2106  -11.4447   10.7272 C   0  0  1  0  0  0  0  0  0  0  0  0
   17.5672  -11.2179   10.2837 O   0  0  0  0  0  0  0  0  0  0  0  0
   15.5030  -10.0916   10.7104 C   0  0  1  0  0  0  0  0  0  0  0  0
   15.4663   -9.5574   12.0416 O   0  0  0  0  0  0  0  0  0  0  0  0
   16.4000   -9.2294    9.8118 C   0  0  1  0  0  0  0  0  0  0  0  0
   16.3937   -7.8601   10.1470 O   0  0  0  0  0  0  0  0  0  0  0  0
   17.7789   -9.8451   10.0435 C   0  0  2  0  0  0  0  0  0  0  0  0
   18.7063   -9.7820    8.9105 N   0  0  0  0  0  0  0  0  0  0  0  0
   19.8618   -9.1140    9.0581 C   0  0  0  0  0  0  0  0  0  0  0  0
   20.0640   -8.5229   10.1065 O   0  0  0  0  0  0  0  0  0  0  0  0
   20.7634   -9.0674    8.0766 N   0  0  0  0  0  0  0  0  0  0  0  0
   20.5633   -9.7125    6.9342 C   0  0  0  0  0  0  0  0  0  0  0  0
   21.5107   -9.6465    5.9330 N   0  0  0  0  0  0  0  0  0  0  0  0
   19.3732  -10.4629    6.7620 C   0  0  0  0  0  0  0  0  0  0  0  0
   18.4584  -10.4933    7.7714 C   0  0  0  0  0  0  0  0  0  0  0  0
   19.1297  -11.2131    5.4729 C   0  0  0  0  0  0  0  0  0  0  0  0
   16.3994  -13.1005    9.3870 H   0  0  0  0  0  0  0  0  0  0  0  0
   14.9883  -12.0157    9.0757 H   0  0  0  0  0  0  0  0  0  0  0  0
   16.1324  -11.8314   11.7540 H   0  0  0  0  0  0  0  0  0  0  0  0
   14.4643  -10.1404   10.3515 H   0  0  0  0  0  0  0  0  0  0  0  0
   15.5172  -10.2985   12.6961 H   0  0  0  0  0  0  0  0  0  0  0  0
   16.0631   -9.2365    8.7647 H   0  0  0  0  0  0  0  0  0  0  0  0
   16.3933   -7.7614   11.1321 H   0  0  0  0  0  0  0  0  0  0  0  0
   18.2354   -9.2714   10.8635 H   0  0  0  0  0  0  0  0  0  0  0  0
   21.3577  -10.1463    5.0454 H   0  0  0  0  0  0  0  0  0  0  0  0
   22.3708   -9.0975    6.0731 H   0  0  0  0  0  0  0  0  0  0  0  0
   17.5345  -11.0817    7.6702 H   0  0  0  0  0  0  0  0  0  0  0  0
   18.7975  -12.2365    5.7014 H   0  0  0  0  0  0  0  0  0  0  0  0
   18.3529  -10.6971    4.8895 H   0  0  0  0  0  0  0  0  0  0  0  0
   20.0615  -11.2516    4.8895 H   0  0  0  0  0  0  0  0  0  0  0  0
  1  2  2  0
  1  3  1  1
  1  4  1  0
  1  5  1  0
  5  6  1  0
  7  6  1  0
  7  8  1  0
  7  9  1  0
  8 13  1  0
  9 10  1  0
  9 11  1  0
 11 12  1  0
 11 13  1  0
 13 14  1  0
 14 15  1  0
 14 21  1  0
 15 16  2  0
 15 17  1  0
 17 18  2  0
 18 19  1  0
 18 20  1  0
 20 21  2  0
 20 22  1  0
  6 23  1  0
  6 24  1  0
  7 25  1  1
  9 26  1  6
 10 27  1  0
 11 28  1  6
 12 29  1  0
 13 30  1  1
 19 31  1  0
 19 32  1  0
 21 33  1  0
 22 34  1  0
 22 35  1  0
 22 36  1  0
M  CHG  2   3  -1   4  -1
M  END
>  <filename_input>  (14) 
6XBO_5MC_docked.sdf

>  <pdb_id>  (14) 
6XBO_5MC

>  <pose_rank>  (14) 
13

>  <num_atoms_heavy>  (14) 
22

>  <num_torsions>  (14) 
4

>  <pose>  (14) 
[16.21055773089719, -11.444661517716991, 10.72716376056852, 1.7631969928792308, -2.0212286338814627, 5.415129090149981, 0.04566760389651024, -0.3745775661749149, 2.4509325597440053, 2.8143470467896194]

>  <energy>  (14) 
-771.6936025386317

>  <inter_energy>  (14) 
-803.7713358624131

>  <intra_energy>  (14) 
34.64049318203371

>  <rmsd>  (14) 
1.97453

>  <sdf_rank>  (14) 
0

$$$$

     RDKit          3D

 36 37  0  0  0  0  0  0  0  0999 V2000
   15.9610  -16.4657    9.8646 P   0  0  2  0  0  0  0  0  0  0  0  0
   15.2708  -16.9355    8.6353 O   0  0  0  0  0  0  0  0  0  0  0  0
   17.5549  -16.3380    9.8573 O   0  0  0  0  0  0  0  0  0  0  0  0
   15.4672  -17.3266   11.1246 O   0  0  0  0  0  0  0  0  0  0  0  0
   15.3540  -15.0161   10.1116 O   0  0  0  0  0  0  0  0  0  0  0  0
   15.9540  -13.8712    9.5299 C   0  0  0  0  0  0  0  0  0  0  0  0
   16.2978  -12.8491   10.5851 C   0  0  1  0  0  0  0  0  0  0  0  0
   17.5912  -12.2875   10.2684 O   0  0  0  0  0  0  0  0  0  0  0  0
   15.3217  -11.6813   10.7087 C   0  0  1  0  0  0  0  0  0  0  0  0
   15.1251  -11.3704   12.0957 O   0  0  0  0  0  0  0  0  0  0  0  0
   16.0485  -10.5305    9.9996 C   0  0  1  0  0  0  0  0  0  0  0  0
   15.7414   -9.2567   10.5198 O   0  0  0  0  0  0  0  0  0  0  0  0
   17.5170  -10.8803   10.2349 C   0  0  2  0  0  0  0  0  0  0  0  0
   18.4505  -10.4615    9.1857 N   0  0  0  0  0  0  0  0  0  0  0  0
   19.3834   -9.5418    9.4807 C   0  0  0  0  0  0  0  0  0  0  0  0
   19.3729   -9.0355   10.5910 O   0  0  0  0  0  0  0  0  0  0  0  0
   20.2889   -9.1619    8.5784 N   0  0  0  0  0  0  0  0  0  0  0  0
   20.3202   -9.7093    7.3698 C   0  0  0  0  0  0  0  0  0  0  0  0
   21.2658   -9.2970    6.4531 N   0  0  0  0  0  0  0  0  0  0  0  0
   19.3765  -10.7144    7.0403 C   0  0  0  0  0  0  0  0  0  0  0  0
   18.4528  -11.0851    7.9707 C   0  0  0  0  0  0  0  0  0  0  0  0
   19.4006  -11.3580    5.6731 C   0  0  0  0  0  0  0  0  0  0  0  0
   16.8738  -14.1728    9.0073 H   0  0  0  0  0  0  0  0  0  0  0  0
   15.2410  -13.4211    8.8235 H   0  0  0  0  0  0  0  0  0  0  0  0
   16.2659  -13.3924   11.5411 H   0  0  0  0  0  0  0  0  0  0  0  0
   14.3304  -11.8863   10.2784 H   0  0  0  0  0  0  0  0  0  0  0  0
   15.5621  -12.0614   12.6539 H   0  0  0  0  0  0  0  0  0  0  0  0
   15.7587  -10.4497    8.9415 H   0  0  0  0  0  0  0  0  0  0  0  0
   15.7502   -9.2933   11.5091 H   0  0  0  0  0  0  0  0  0  0  0  0
   17.8123  -10.3545   11.1549 H   0  0  0  0  0  0  0  0  0  0  0  0
   21.2920   -9.7203    5.5145 H   0  0  0  0  0  0  0  0  0  0  0  0
   21.9452   -8.5659    6.7075 H   0  0  0  0  0  0  0  0  0  0  0  0
   17.7202  -11.8745    7.7467 H   0  0  0  0  0  0  0  0  0  0  0  0
   19.4414  -12.4517    5.7834 H   0  0  0  0  0  0  0  0  0  0  0  0
   18.4914  -11.0789    5.1205 H   0  0  0  0  0  0  0  0  0  0  0  0
   20.2864  -11.0118    5.1205 H   0  0  0  0  0  0  0  0  0  0  0  0
  1  2  2  0
  1  3  1  6
  1  4  1  0
  1  5  1  0
  5  6  1  0
  7  6  1  0
  7  8  1  0
  7  9  1  0
  8 13  1  0
  9 10  1  0
  9 11  1  0
 11 12  1  0
 11 13  1  0
 13 14  1  0
 14 15  1  0
 14 21  1  0
 15 16  2  0
 15 17  1  0
 17 18  2  0
 18 19  1  0
 18 20  1  0
 20 21  2  0
 20 22  1  0
  6 23  1  0
  6 24  1  0
  7 25  1  1
  9 26  1  6
 10 27  1  0
 11 28  1  6
 12 29  1  0
 13 30  1  1
 19 31  1  0
 19 32  1  0
 21 33  1  0
 22 34  1  0
 22 35  1  0
 22 36  1  0
M  CHG  2   3  -1   4  -1
M  END
>  <filename_input>  (15) 
6XBO_5MC_docked.sdf

>  <pdb_id>  (15) 
6XBO_5MC

>  <pose_rank>  (15) 
14

>  <num_atoms_heavy>  (15) 
22

>  <num_torsions>  (15) 
4

>  <pose>  (15) 
[16.297771954290425, -12.84912395602354, 10.585140515787394, -5.530963600692882, -2.805372044754332, 0.10851039733272991, 6.26045177531516, -6.710813691082555, 0.9695564540223506, -0.3340245536424341]

>  <energy>  (15) 
-797.3262362882801

>  <inter_energy>  (15) 
-796.4406307308967

>  <intra_energy>  (15) 
0.0

>  <rmsd>  (15) 
1.04457

>  <sdf_rank>  (15) 
0

$$$$

     RDKit          3D

 36 37  0  0  0  0  0  0  0  0999 V2000
   16.3920  -16.4767   10.4271 P   0  0  2  0  0  0  0  0  0  0  0  0
   17.1841  -16.5759   11.6805 O   0  0  0  0  0  0  0  0  0  0  0  0
   15.0864  -17.3851   10.2620 O   0  0  0  0  0  0  0  0  0  0  0  0
   17.3615  -16.6421    9.1601 O   0  0  0  0  0  0  0  0  0  0  0  0
   15.9378  -14.9527   10.3833 O   0  0  0  0  0  0  0  0  0  0  0  0
   16.7481  -13.9734    9.7558 C   0  0  0  0  0  0  0  0  0  0  0  0
   16.8460  -12.7309   10.6060 C   0  0  1  0  0  0  0  0  0  0  0  0
   18.0394  -12.0117   10.2225 O   0  0  0  0  0  0  0  0  0  0  0  0
   15.6771  -11.7566   10.4792 C   0  0  1  0  0  0  0  0  0  0  0  0
   15.3468  -11.2386   11.7760 O   0  0  0  0  0  0  0  0  0  0  0  0
   16.2351  -10.6422    9.5835 C   0  0  1  0  0  0  0  0  0  0  0  0
   15.6817   -9.3719    9.8435 O   0  0  0  0  0  0  0  0  0  0  0  0
   17.7252  -10.6713    9.9199 C   0  0  2  0  0  0  0  0  0  0  0  0
   18.6334  -10.2891    8.8351 N   0  0  0  0  0  0  0  0  0  0  0  0
   19.5136   -9.2976    9.0489 C   0  0  0  0  0  0  0  0  0  0  0  0
   19.4750   -8.7030   10.1138 O   0  0  0  0  0  0  0  0  0  0  0  0
   20.3961   -8.9435    8.1139 N   0  0  0  0  0  0  0  0  0  0  0  0
   20.4576   -9.5860    6.9544 C   0  0  0  0  0  0  0  0  0  0  0  0
   21.3783   -9.1986    6.0022 N   0  0  0  0  0  0  0  0  0  0  0  0
   19.5715  -10.6659    6.7133 C   0  0  0  0  0  0  0  0  0  0  0  0
   18.6702  -11.0096    7.6756 C   0  0  0  0  0  0  0  0  0  0  0  0
   19.6312  -11.4176    5.4036 C   0  0  0  0  0  0  0  0  0  0  0  0
   17.7565  -14.3850    9.6020 H   0  0  0  0  0  0  0  0  0  0  0  0
   16.2917  -13.7048    8.7917 H   0  0  0  0  0  0  0  0  0  0  0  0
   16.8512  -13.0872   11.6467 H   0  0  0  0  0  0  0  0  0  0  0  0
   14.7637  -12.2127   10.0697 H   0  0  0  0  0  0  0  0  0  0  0  0
   15.7243  -11.8307   12.4738 H   0  0  0  0  0  0  0  0  0  0  0  0
   15.9998  -10.8098    8.5221 H   0  0  0  0  0  0  0  0  0  0  0  0
   15.6209   -9.2324   10.8217 H   0  0  0  0  0  0  0  0  0  0  0  0
   17.8694   -9.9418   10.7304 H   0  0  0  0  0  0  0  0  0  0  0  0
   21.4280   -9.6958    5.1015 H   0  0  0  0  0  0  0  0  0  0  0  0
   22.0159   -8.4123    6.1922 H   0  0  0  0  0  0  0  0  0  0  0  0
   17.9829  -11.8543    7.5209 H   0  0  0  0  0  0  0  0  0  0  0  0
   19.7167  -12.4960    5.6034 H   0  0  0  0  0  0  0  0  0  0  0  0
   18.7148  -11.2231    4.8271 H   0  0  0  0  0  0  0  0  0  0  0  0
   20.5054  -11.0811    4.8271 H   0  0  0  0  0  0  0  0  0  0  0  0
  1  2  2  0
  1  3  1  1
  1  4  1  0
  1  5  1  0
  5  6  1  0
  7  6  1  0
  7  8  1  0
  7  9  1  0
  8 13  1  0
  9 10  1  0
  9 11  1  0
 11 12  1  0
 11 13  1  0
 13 14  1  0
 14 15  1  0
 14 21  1  0
 15 16  2  0
 15 17  1  0
 17 18  2  0
 18 19  1  0
 18 20  1  0
 20 21  2  0
 20 22  1  0
  6 23  1  0
  6 24  1  0
  7 25  1  1
  9 26  1  6
 10 27  1  0
 11 28  1  6
 12 29  1  0
 13 30  1  1
 19 31  1  0
 19 32  1  0
 21 33  1  0
 22 34  1  0
 22 35  1  0
 22 36  1  0
M  CHG  2   3  -1   4  -1
M  END
>  <filename_input>  (16) 
6XBO_5MC_docked.sdf

>  <pdb_id>  (16) 
6XBO_5MC

>  <pose_rank>  (16) 
15

>  <num_atoms_heavy>  (16) 
22

>  <num_torsions>  (16) 
4

>  <pose>  (16) 
[16.84596072979545, -12.730890247972312, 10.605975264521172, -3.6706553354267104, -0.037020120434699114, 5.359254499885263, 0.1462729334779111, -0.1014122976798542, 0.7805379133617641, -3.496246670015327]

>  <energy>  (16) 
-778.0068603163052

>  <inter_energy>  (16) 
-773.0339205249159

>  <intra_energy>  (16) 
0.0

>  <rmsd>  (16) 
1.36284

>  <sdf_rank>  (16) 
0

$$$$

     RDKit          3D

 36 37  0  0  0  0  0  0  0  0999 V2000
   15.4817  -16.1169    8.9779 P   0  0  2  0  0  0  0  0  0  0  0  0
   15.4510  -17.0050   10.1690 O   0  0  0  0  0  0  0  0  0  0  0  0
   14.4399  -16.3748    7.7925 O   0  0  0  0  0  0  0  0  0  0  0  0
   16.9783  -16.0282    8.4079 O   0  0  0  0  0  0  0  0  0  0  0  0
   15.1975  -14.6698    9.5745 O   0  0  0  0  0  0  0  0  0  0  0  0
   15.7874  -13.5189    8.9944 C   0  0  0  0  0  0  0  0  0  0  0  0
   16.2267  -12.5447   10.0595 C   0  0  1  0  0  0  0  0  0  0  0  0
   17.5828  -12.1374    9.7702 O   0  0  0  0  0  0  0  0  0  0  0  0
   15.3911  -11.2712   10.1674 C   0  0  1  0  0  0  0  0  0  0  0  0
   15.2044  -10.9406   11.5512 O   0  0  0  0  0  0  0  0  0  0  0  0
   16.2611  -10.2124    9.4764 C   0  0  1  0  0  0  0  0  0  0  0  0
   16.0941   -8.9118    9.9944 O   0  0  0  0  0  0  0  0  0  0  0  0
   17.6738  -10.7311    9.7397 C   0  0  2  0  0  0  0  0  0  0  0  0
   18.6705  -10.4231    8.7104 N   0  0  0  0  0  0  0  0  0  0  0  0
   19.6026   -9.4924    8.9719 C   0  0  0  0  0  0  0  0  0  0  0  0
   19.5408   -8.8859   10.0290 O   0  0  0  0  0  0  0  0  0  0  0  0
   20.5627   -9.2093    8.0907 N   0  0  0  0  0  0  0  0  0  0  0  0
   20.6498   -9.8661    6.9408 C   0  0  0  0  0  0  0  0  0  0  0  0
   21.6512   -9.5525    6.0446 N   0  0  0  0  0  0  0  0  0  0  0  0
   19.7073  -10.8848    6.6522 C   0  0  0  0  0  0  0  0  0  0  0  0
   18.7277  -11.1560    7.5595 C   0  0  0  0  0  0  0  0  0  0  0  0
   19.7941  -11.6519    5.3530 C   0  0  0  0  0  0  0  0  0  0  0  0
   16.6625  -13.8228    8.4012 H   0  0  0  0  0  0  0  0  0  0  0  0
   15.0413  -13.0264    8.3536 H   0  0  0  0  0  0  0  0  0  0  0  0
   16.1127  -13.0813   11.0129 H   0  0  0  0  0  0  0  0  0  0  0  0
   14.3915  -11.3589    9.7169 H   0  0  0  0  0  0  0  0  0  0  0  0
   15.6042  -11.6483   12.1164 H   0  0  0  0  0  0  0  0  0  0  0  0
   16.0039  -10.0975    8.4131 H   0  0  0  0  0  0  0  0  0  0  0  0
   16.0987   -8.9476   10.9838 H   0  0  0  0  0  0  0  0  0  0  0  0
   18.0099  -10.2440   10.6669 H   0  0  0  0  0  0  0  0  0  0  0  0
   21.7209  -10.0609    5.1515 H   0  0  0  0  0  0  0  0  0  0  0  0
   22.3290   -8.8100    6.2688 H   0  0  0  0  0  0  0  0  0  0  0  0
   17.9941  -11.9530    7.3679 H   0  0  0  0  0  0  0  0  0  0  0  0
   19.9154  -12.7240    5.5677 H   0  0  0  0  0  0  0  0  0  0  0  0
   18.8726  -11.4961    4.7729 H   0  0  0  0  0  0  0  0  0  0  0  0
   20.6575  -11.2942    4.7729 H   0  0  0  0  0  0  0  0  0  0  0  0
  1  2  2  0
  1  3  1  6
  1  4  1  0
  1  5  1  0
  5  6  1  0
  7  6  1  0
  7  8  1  0
  7  9  1  0
  8 13  1  0
  9 10  1  0
  9 11  1  0
 11 12  1  0
 11 13  1  0
 13 14  1  0
 14 15  1  0
 14 21  1  0
 15 16  2  0
 15 17  1  0
 17 18  2  0
 18 19  1  0
 18 20  1  0
 20 21  2  0
 20 22  1  0
  6 23  1  0
  6 24  1  0
  7 25  1  1
  9 26  1  6
 10 27  1  0
 11 28  1  6
 12 29  1  0
 13 30  1  1
 19 31  1  0
 19 32  1  0
 21 33  1  0
 22 34  1  0
 22 35  1  0
 22 36  1  0
M  CHG  2   3  -1   4  -1
M  END
>  <filename_input>  (17) 
6XBO_5MC_docked.sdf

>  <pdb_id>  (17) 
6XBO_5MC

>  <pose_rank>  (17) 
16

>  <num_atoms_heavy>  (17) 
22

>  <num_torsions>  (17) 
4

>  <pose>  (17) 
[16.226735329070433, -12.544708793545542, 10.059485948273057, -3.3198234289729793, -0.5358984465108577, 5.140710012335507, -0.16514021267417944, -0.558301841848171, 0.6967681981756502, -2.4935220883672358]

>  <energy>  (17) 
-776.1154146307659

>  <inter_energy>  (17) 
-780.6729647266127

>  <intra_energy>  (17) 
0.011218154738637697

>  <rmsd>  (17) 
0.74849

>  <sdf_rank>  (17) 
0

$$$$

     RDKit          3D

 36 37  0  0  0  0  0  0  0  0999 V2000
   15.9361  -16.5770    9.3985 P   0  0  2  0  0  0  0  0  0  0  0  0
   17.2761  -16.3841    8.7859 O   0  0  0  0  0  0  0  0  0  0  0  0
   15.7620  -17.6700   10.5526 O   0  0  0  0  0  0  0  0  0  0  0  0
   14.8404  -16.7896    8.2466 O   0  0  0  0  0  0  0  0  0  0  0  0
   15.5913  -15.1522   10.0164 O   0  0  0  0  0  0  0  0  0  0  0  0
   16.0844  -13.9652    9.4187 C   0  0  0  0  0  0  0  0  0  0  0  0
   16.4579  -12.9489   10.4694 C   0  0  1  0  0  0  0  0  0  0  0  0
   17.7446  -12.3898   10.1226 O   0  0  0  0  0  0  0  0  0  0  0  0
   15.4889  -11.7787   10.6226 C   0  0  1  0  0  0  0  0  0  0  0  0
   15.3284  -11.4733   12.0154 O   0  0  0  0  0  0  0  0  0  0  0  0
   16.2012  -10.6270    9.9004 C   0  0  1  0  0  0  0  0  0  0  0  0
   15.9113   -9.3545   10.4337 O   0  0  0  0  0  0  0  0  0  0  0  0
   17.6741  -10.9822   10.0970 C   0  0  2  0  0  0  0  0  0  0  0  0
   18.5821  -10.5617    9.0264 N   0  0  0  0  0  0  0  0  0  0  0  0
   19.4331   -9.5498    9.2615 C   0  0  0  0  0  0  0  0  0  0  0  0
   19.3683   -8.9704   10.3336 O   0  0  0  0  0  0  0  0  0  0  0  0
   20.3147   -9.1600    8.3400 N   0  0  0  0  0  0  0  0  0  0  0  0
   20.4046   -9.7855    7.1730 C   0  0  0  0  0  0  0  0  0  0  0  0
   21.3237   -9.3612    6.2351 N   0  0  0  0  0  0  0  0  0  0  0  0
   19.5503  -10.8854    6.9093 C   0  0  0  0  0  0  0  0  0  0  0  0
   18.6494  -11.2657    7.8581 C   0  0  0  0  0  0  0  0  0  0  0  0
   19.6427  -11.6182    5.5908 C   0  0  0  0  0  0  0  0  0  0  0  0
   16.9742  -14.2068    8.8188 H   0  0  0  0  0  0  0  0  0  0  0  0
   15.2958  -13.5386    8.7814 H   0  0  0  0  0  0  0  0  0  0  0  0
   16.4484  -13.4962   11.4235 H   0  0  0  0  0  0  0  0  0  0  0  0
   14.4864  -11.9788   10.2166 H   0  0  0  0  0  0  0  0  0  0  0  0
   15.7130  -12.2050   12.5602 H   0  0  0  0  0  0  0  0  0  0  0  0
   15.8851  -10.5406    8.8503 H   0  0  0  0  0  0  0  0  0  0  0  0
   15.9219   -9.4009   11.4225 H   0  0  0  0  0  0  0  0  0  0  0  0
   17.9941  -10.4614   11.0115 H   0  0  0  0  0  0  0  0  0  0  0  0
   21.3953   -9.8450    5.3286 H   0  0  0  0  0  0  0  0  0  0  0  0
   21.9380   -8.5606    6.4415 H   0  0  0  0  0  0  0  0  0  0  0  0
   17.9865  -12.1265    7.6858 H   0  0  0  0  0  0  0  0  0  0  0  0
   19.7783  -12.6937    5.7777 H   0  0  0  0  0  0  0  0  0  0  0  0
   18.7174  -11.4594    5.0175 H   0  0  0  0  0  0  0  0  0  0  0  0
   20.4996  -11.2347    5.0175 H   0  0  0  0  0  0  0  0  0  0  0  0
  1  2  2  0
  1  3  1  1
  1  4  1  0
  1  5  1  0
  5  6  1  0
  7  6  1  0
  7  8  1  0
  7  9  1  0
  8 13  1  0
  9 10  1  0
  9 11  1  0
 11 12  1  0
 11 13  1  0
 13 14  1  0
 14 15  1  0
 14 21  1  0
 15 16  2  0
 15 17  1  0
 17 18  2  0
 18 19  1  0
 18 20  1  0
 20 21  2  0
 20 22  1  0
  6 23  1  0
  6 24  1  0
  7 25  1  1
  9 26  1  6
 10 27  1  0
 11 28  1  6
 12 29  1  0
 13 30  1  1
 19 31  1  0
 19 32  1  0
 21 33  1  0
 22 34  1  0
 22 35  1  0
 22 36  1  0
M  CHG  2   3  -1   4  -1
M  END
>  <filename_input>  (18) 
6XBO_5MC_docked.sdf

>  <pdb_id>  (18) 
6XBO_5MC

>  <pose_rank>  (18) 
17

>  <num_atoms_heavy>  (18) 
22

>  <num_torsions>  (18) 
4

>  <pose>  (18) 
[16.457862808150583, -12.948881977826371, 10.469379979557358, -4.804808358039589, -3.880318576976208, 0.33550548185023626, -6.424080804704385, -0.5064233393492369, 0.6565715656826558, 1.7591396256291656]

>  <energy>  (18) 
-796.9835912883648

>  <inter_energy>  (18) 
-789.8178778033383

>  <intra_energy>  (18) 
0.0

>  <rmsd>  (18) 
0.971515

>  <sdf_rank>  (18) 
0

$$$$

     RDKit          3D

 36 37  0  0  0  0  0  0  0  0999 V2000
   14.7736  -15.9182    9.2177 P   0  0  2  0  0  0  0  0  0  0  0  0
   15.8721  -16.9183    9.1797 O   0  0  0  0  0  0  0  0  0  0  0  0
   13.3602  -16.3432    9.8331 O   0  0  0  0  0  0  0  0  0  0  0  0
   14.5860  -15.2654    7.7647 O   0  0  0  0  0  0  0  0  0  0  0  0
   15.3624  -14.7398   10.1095 O   0  0  0  0  0  0  0  0  0  0  0  0
   15.9918  -13.6214    9.5076 C   0  0  0  0  0  0  0  0  0  0  0  0
   16.4826  -12.6522   10.5546 C   0  0  1  0  0  0  0  0  0  0  0  0
   17.7524  -12.1176   10.1183 O   0  0  0  0  0  0  0  0  0  0  0  0
   15.5661  -11.4614   10.8261 C   0  0  1  0  0  0  0  0  0  0  0  0
   15.5318  -11.1994   12.2365 O   0  0  0  0  0  0  0  0  0  0  0  0
   16.2504  -10.3060   10.0831 C   0  0  1  0  0  0  0  0  0  0  0  0
   16.0451   -9.0449   10.6790 O   0  0  0  0  0  0  0  0  0  0  0  0
   17.7230  -10.7085   10.1434 C   0  0  2  0  0  0  0  0  0  0  0  0
   18.5509  -10.2771    9.0137 N   0  0  0  0  0  0  0  0  0  0  0  0
   19.4179   -9.2681    9.1966 C   0  0  0  0  0  0  0  0  0  0  0  0
   19.4322   -8.6998   10.2765 O   0  0  0  0  0  0  0  0  0  0  0  0
   20.2303   -8.8689    8.2173 N   0  0  0  0  0  0  0  0  0  0  0  0
   20.2342   -9.4822    7.0404 C   0  0  0  0  0  0  0  0  0  0  0  0
   21.0827   -9.0484    6.0424 N   0  0  0  0  0  0  0  0  0  0  0  0
   19.3617  -10.5791    6.8284 C   0  0  0  0  0  0  0  0  0  0  0  0
   18.5320  -10.9690    7.8364 C   0  0  0  0  0  0  0  0  0  0  0  0
   19.3568  -11.2980    5.4991 C   0  0  0  0  0  0  0  0  0  0  0  0
   16.8469  -13.9683    8.9089 H   0  0  0  0  0  0  0  0  0  0  0  0
   15.2589  -13.1072    8.8686 H   0  0  0  0  0  0  0  0  0  0  0  0
   16.5361  -13.2313   11.4883 H   0  0  0  0  0  0  0  0  0  0  0  0
   14.5275  -11.6196   10.5000 H   0  0  0  0  0  0  0  0  0  0  0  0
   15.6430  -12.0488   12.7327 H   0  0  0  0  0  0  0  0  0  0  0  0
   15.8506  -10.1751    9.0668 H   0  0  0  0  0  0  0  0  0  0  0  0
   16.0604   -9.1391   11.6644 H   0  0  0  0  0  0  0  0  0  0  0  0
   18.1341  -10.2283   11.0436 H   0  0  0  0  0  0  0  0  0  0  0  0
   21.0875   -9.5228    5.1281 H   0  0  0  0  0  0  0  0  0  0  0  0
   21.7113   -8.2502    6.2117 H   0  0  0  0  0  0  0  0  0  0  0  0
   17.8574  -11.8277    7.7040 H   0  0  0  0  0  0  0  0  0  0  0  0
   19.3495  -12.3847    5.6700 H   0  0  0  0  0  0  0  0  0  0  0  0
   18.4606  -11.0103    4.9299 H   0  0  0  0  0  0  0  0  0  0  0  0
   20.2569  -11.0225    4.9299 H   0  0  0  0  0  0  0  0  0  0  0  0
  1  2  2  0
  1  3  1  1
  1  4  1  0
  1  5  1  0
  5  6  1  0
  7  6  1  0
  7  8  1  0
  7  9  1  0
  8 13  1  0
  9 10  1  0
  9 11  1  0
 11 12  1  0
 11 13  1  0
 13 14  1  0
 14 15  1  0
 14 21  1  0
 15 16  2  0
 15 17  1  0
 17 18  2  0
 18 19  1  0
 18 20  1  0
 20 21  2  0
 20 22  1  0
  6 23  1  0
  6 24  1  0
  7 25  1  1
  9 26  1  6
 10 27  1  0
 11 28  1  6
 12 29  1  0
 13 30  1  1
 19 31  1  0
 19 32  1  0
 21 33  1  0
 22 34  1  0
 22 35  1  0
 22 36  1  0
M  CHG  2   3  -1   4  -1
M  END
>  <filename_input>  (19) 
6XBO_5MC_docked.sdf

>  <pdb_id>  (19) 
6XBO_5MC

>  <pose_rank>  (19) 
18

>  <num_atoms_heavy>  (19) 
22

>  <num_torsions>  (19) 
4

>  <pose>  (19) 
[16.482609573474846, -12.652211054328014, 10.554626872147203, -3.614707473832691, -4.759877912290966, 1.2094438840897412, -6.462072385812098, -0.37874502765867124, 0.0173906758615041, 2.8793794098016376]

>  <energy>  (19) 
-852.2249589660197

>  <inter_energy>  (19) 
-842.4774892552857

>  <intra_energy>  (19) 
0.028235537820078413

>  <rmsd>  (19) 
0.388677

>  <sdf_rank>  (19) 
0

$$$$

     RDKit          3D

 36 37  0  0  0  0  0  0  0  0999 V2000
   14.5009  -15.7927    9.0254 P   0  0  2  0  0  0  0  0  0  0  0  0
   15.5576  -16.7516    8.6106 O   0  0  0  0  0  0  0  0  0  0  0  0
   13.2360  -16.3377    9.8379 O   0  0  0  0  0  0  0  0  0  0  0  0
   14.0312  -14.9250    7.7609 O   0  0  0  0  0  0  0  0  0  0  0  0
   15.2709  -14.7560    9.9545 O   0  0  0  0  0  0  0  0  0  0  0  0
   16.0631  -13.7260    9.3882 C   0  0  0  0  0  0  0  0  0  0  0  0
   16.4958  -12.7383   10.4435 C   0  0  1  0  0  0  0  0  0  0  0  0
   17.7634  -12.1718   10.0421 O   0  0  0  0  0  0  0  0  0  0  0  0
   15.5398  -11.5713   10.6799 C   0  0  1  0  0  0  0  0  0  0  0  0
   15.4559  -11.3027   12.0869 O   0  0  0  0  0  0  0  0  0  0  0  0
   16.2150  -10.4018    9.9506 C   0  0  1  0  0  0  0  0  0  0  0  0
   15.9579   -9.1435   10.5322 O   0  0  0  0  0  0  0  0  0  0  0  0
   17.6954  -10.7640   10.0576 C   0  0  2  0  0  0  0  0  0  0  0  0
   18.5451  -10.3164    8.9507 N   0  0  0  0  0  0  0  0  0  0  0  0
   19.3896   -9.2930    9.1577 C   0  0  0  0  0  0  0  0  0  0  0  0
   19.3657   -8.7265   10.2384 O   0  0  0  0  0  0  0  0  0  0  0  0
   20.2204   -8.8782    8.2006 N   0  0  0  0  0  0  0  0  0  0  0  0
   20.2657   -9.4892    7.0234 C   0  0  0  0  0  0  0  0  0  0  0  0
   21.1326   -9.0391    6.0486 N   0  0  0  0  0  0  0  0  0  0  0  0
   19.4180  -10.6005    6.7870 C   0  0  0  0  0  0  0  0  0  0  0  0
   18.5690  -11.0063    7.7724 C   0  0  0  0  0  0  0  0  0  0  0  0
   19.4604  -11.3170    5.4571 C   0  0  0  0  0  0  0  0  0  0  0  0
   16.9555  -14.1716    8.9244 H   0  0  0  0  0  0  0  0  0  0  0  0
   15.4632  -13.1950    8.6345 H   0  0  0  0  0  0  0  0  0  0  0  0
   16.5366  -13.3107   11.3819 H   0  0  0  0  0  0  0  0  0  0  0  0
   14.5162  -11.7593   10.3237 H   0  0  0  0  0  0  0  0  0  0  0  0
   15.7096  -12.1145   12.5936 H   0  0  0  0  0  0  0  0  0  0  0  0
   15.8426  -10.2873    8.9219 H   0  0  0  0  0  0  0  0  0  0  0  0
   15.9748   -9.2263   11.5186 H   0  0  0  0  0  0  0  0  0  0  0  0
   18.0660  -10.2679   10.9668 H   0  0  0  0  0  0  0  0  0  0  0  0
   21.1695   -9.5117    5.1341 H   0  0  0  0  0  0  0  0  0  0  0  0
   21.7428   -8.2306    6.2355 H   0  0  0  0  0  0  0  0  0  0  0  0
   17.9130  -11.8762    7.6211 H   0  0  0  0  0  0  0  0  0  0  0  0
   19.5246  -12.4019    5.6270 H   0  0  0  0  0  0  0  0  0  0  0  0
   18.5472  -11.0883    4.8881 H   0  0  0  0  0  0  0  0  0  0  0  0
   20.3403  -10.9823    4.8881 H   0  0  0  0  0  0  0  0  0  0  0  0
  1  2  2  0
  1  3  1  1
  1  4  1  0
  1  5  1  0
  5  6  1  0
  7  6  1  0
  7  8  1  0
  7  9  1  0
  8 13  1  0
  9 10  1  0
  9 11  1  0
 11 12  1  0
 11 13  1  0
 13 14  1  0
 14 15  1  0
 14 21  1  0
 15 16  2  0
 15 17  1  0
 17 18  2  0
 18 19  1  0
 18 20  1  0
 20 21  2  0
 20 22  1  0
  6 23  1  0
  6 24  1  0
  7 25  1  1
  9 26  1  6
 10 27  1  0
 11 28  1  6
 12 29  1  0
 13 30  1  1
 19 31  1  0
 19 32  1  0
 21 33  1  0
 22 34  1  0
 22 35  1  0
 22 36  1  0
M  CHG  2   3  -1   4  -1
M  END
>  <filename_input>  (20) 
6XBO_5MC_docked.sdf

>  <pdb_id>  (20) 
6XBO_5MC

>  <pose_rank>  (20) 
19

>  <num_atoms_heavy>  (20) 
22

>  <num_torsions>  (20) 
4

>  <pose>  (20) 
[16.49581773035502, -12.738267886002621, 10.443450597335266, -4.056268087441806, -4.581189992303944, 0.3392533896261373, -6.449160114247284, -0.22456474060358816, -0.1653711434890461, 2.6001515062271308]

>  <energy>  (20) 
-866.0596932562719

>  <inter_energy>  (20) 
-862.9626178299322

>  <intra_energy>  (20) 
0.01202780997826741

>  <rmsd>  (20) 
0.299395

>  <sdf_rank>  (20) 
0

$$$$

     RDKit          3D

 36 37  0  0  0  0  0  0  0  0999 V2000
   16.0634   -9.1076   13.9344 P   0  0  2  0  0  0  0  0  0  0  0  0
   15.2241   -9.8775   14.8890 O   0  0  0  0  0  0  0  0  0  0  0  0
   17.5607   -8.7299   14.3498 O   0  0  0  0  0  0  0  0  0  0  0  0
   15.2664   -7.8059   13.4416 O   0  0  0  0  0  0  0  0  0  0  0  0
   16.1321  -10.0418   12.6486 O   0  0  0  0  0  0  0  0  0  0  0  0
   15.5517   -9.6300   11.4227 C   0  0  0  0  0  0  0  0  0  0  0  0
   15.3769  -10.8026   10.4895 C   0  0  1  0  0  0  0  0  0  0  0  0
   16.0103  -10.4794    9.2314 O   0  0  0  0  0  0  0  0  0  0  0  0
   15.9839  -12.1187   10.9702 C   0  0  1  0  0  0  0  0  0  0  0  0
   15.0911  -13.1971   10.6561 O   0  0  0  0  0  0  0  0  0  0  0  0
   17.2763  -12.2373   10.1511 C   0  0  1  0  0  0  0  0  0  0  0  0
   17.6586  -13.5670    9.8800 O   0  0  0  0  0  0  0  0  0  0  0  0
   16.9142  -11.4970    8.8646 C   0  0  2  0  0  0  0  0  0  0  0  0
   18.0199  -10.8158    8.1856 N   0  0  0  0  0  0  0  0  0  0  0  0
   18.6025   -9.7683    8.7913 C   0  0  0  0  0  0  0  0  0  0  0  0
   18.1418   -9.3773    9.8515 O   0  0  0  0  0  0  0  0  0  0  0  0
   19.6445   -9.1439    8.2412 N   0  0  0  0  0  0  0  0  0  0  0  0
   20.1635   -9.5622    7.0936 C   0  0  0  0  0  0  0  0  0  0  0  0
   21.2405   -8.8972    6.5437 N   0  0  0  0  0  0  0  0  0  0  0  0
   19.5994  -10.6919    6.4495 C   0  0  0  0  0  0  0  0  0  0  0  0
   18.5298  -11.3134    7.0206 C   0  0  0  0  0  0  0  0  0  0  0  0
   20.1811  -11.1911    5.1471 C   0  0  0  0  0  0  0  0  0  0  0  0
   14.5684   -9.1794   11.6231 H   0  0  0  0  0  0  0  0  0  0  0  0
   16.2197   -8.8977   10.9459 H   0  0  0  0  0  0  0  0  0  0  0  0
   14.2907  -10.9611   10.4178 H   0  0  0  0  0  0  0  0  0  0  0  0
   16.1644  -12.1521   12.0548 H   0  0  0  0  0  0  0  0  0  0  0  0
   14.7555  -13.6026   11.4946 H   0  0  0  0  0  0  0  0  0  0  0  0
   18.1443  -11.8279   10.6887 H   0  0  0  0  0  0  0  0  0  0  0  0
   17.7976  -14.0507   10.7325 H   0  0  0  0  0  0  0  0  0  0  0  0
   16.5334  -12.2603    8.1701 H   0  0  0  0  0  0  0  0  0  0  0  0
   21.6450   -9.2200    5.6532 H   0  0  0  0  0  0  0  0  0  0  0  0
   21.6397   -8.0781    7.0238 H   0  0  0  0  0  0  0  0  0  0  0  0
   18.0838  -12.2023    6.5504 H   0  0  0  0  0  0  0  0  0  0  0  0
   21.0004  -11.8944    5.3571 H   0  0  0  0  0  0  0  0  0  0  0  0
   19.3981  -11.7027    4.5681 H   0  0  0  0  0  0  0  0  0  0  0  0
   20.5680  -10.3396    4.5681 H   0  0  0  0  0  0  0  0  0  0  0  0
  1  2  2  0
  1  3  1  1
  1  4  1  0
  1  5  1  0
  5  6  1  0
  7  6  1  0
  7  8  1  0
  7  9  1  0
  8 13  1  0
  9 10  1  0
  9 11  1  0
 11 12  1  0
 11 13  1  0
 13 14  1  0
 14 15  1  0
 14 21  1  0
 15 16  2  0
 15 17  1  0
 17 18  2  0
 18 19  1  0
 18 20  1  0
 20 21  2  0
 20 22  1  0
  6 23  1  0
  6 24  1  0
  7 25  1  6
  9 26  1  1
 10 27  1  0
 11 28  1  1
 12 29  1  0
 13 30  1  6
 19 31  1  0
 19 32  1  0
 21 33  1  0
 22 34  1  0
 22 35  1  0
 22 36  1  0
M  CHG  2   3  -1   4  -1
M  END
>  <filename_input>  (21) 
6XBO_5MC_docked.sdf

>  <pdb_id>  (21) 
6XBO_5MC

>  <pose_rank>  (21) 
20

>  <num_atoms_heavy>  (21) 
22

>  <num_torsions>  (21) 
4

>  <pose>  (21) 
[15.376899701098994, -10.802579975249474, 10.489509920655268, 2.203406290431614, 1.060938516518403, -1.8001853986042504, -3.192608683208888, 1.2211520500779918, 0.29580925353470416, 3.231840994271764]

>  <energy>  (21) 
-668.0588263413044

>  <inter_energy>  (21) 
-715.3164294157979

>  <intra_energy>  (21) 
51.203764291573066

>  <rmsd>  (21) 
4.39707

>  <sdf_rank>  (21) 
0

$$$$

     RDKit          3D

 36 37  0  0  0  0  0  0  0  0999 V2000
   14.5221  -15.5194   11.2822 P   0  0  2  0  0  0  0  0  0  0  0  0
   13.5125  -15.6414   10.1987 O   0  0  0  0  0  0  0  0  0  0  0  0
   15.8801  -16.3565   11.1733 O   0  0  0  0  0  0  0  0  0  0  0  0
   13.8207  -15.7596   12.7045 O   0  0  0  0  0  0  0  0  0  0  0  0
   14.8974  -13.9735   11.2805 O   0  0  0  0  0  0  0  0  0  0  0  0
   16.1201  -13.5259   10.7202 C   0  0  0  0  0  0  0  0  0  0  0  0
   16.5210  -12.1917   11.2995 C   0  0  1  0  0  0  0  0  0  0  0  0
   17.7058  -11.7350   10.6094 O   0  0  0  0  0  0  0  0  0  0  0  0
   15.4773  -11.0839   11.1765 C   0  0  1  0  0  0  0  0  0  0  0  0
   15.4510  -10.3183   12.3898 O   0  0  0  0  0  0  0  0  0  0  0  0
   15.9989  -10.2279   10.0143 C   0  0  1  0  0  0  0  0  0  0  0  0
   15.6617   -8.8629   10.1165 O   0  0  0  0  0  0  0  0  0  0  0  0
   17.5100  -10.4294   10.1157 C   0  0  2  0  0  0  0  0  0  0  0  0
   18.2493  -10.3712    8.8517 N   0  0  0  0  0  0  0  0  0  0  0  0
   18.9996   -9.2883    8.5916 C   0  0  0  0  0  0  0  0  0  0  0  0
   18.9801   -8.3610    9.3847 O   0  0  0  0  0  0  0  0  0  0  0  0
   19.7317   -9.2056    7.4800 N   0  0  0  0  0  0  0  0  0  0  0  0
   19.7715  -10.2088    6.6122 C   0  0  0  0  0  0  0  0  0  0  0  0
   20.5350  -10.0976    5.4680 N   0  0  0  0  0  0  0  0  0  0  0  0
   19.0250  -11.3842    6.8778 C   0  0  0  0  0  0  0  0  0  0  0  0
   18.2756  -11.4493    8.0138 C   0  0  0  0  0  0  0  0  0  0  0  0
   19.0639  -12.5424    5.9078 C   0  0  0  0  0  0  0  0  0  0  0  0
   16.9069  -14.2636   10.9366 H   0  0  0  0  0  0  0  0  0  0  0  0
   15.9885  -13.4123    9.6340 H   0  0  0  0  0  0  0  0  0  0  0  0
   16.6686  -12.3712   12.3747 H   0  0  0  0  0  0  0  0  0  0  0  0
   14.4563  -11.4555   11.0050 H   0  0  0  0  0  0  0  0  0  0  0  0
   15.4721  -10.9310   13.1672 H   0  0  0  0  0  0  0  0  0  0  0  0
   15.5584  -10.5273    9.0518 H   0  0  0  0  0  0  0  0  0  0  0  0
   15.5990   -8.6090   11.0713 H   0  0  0  0  0  0  0  0  0  0  0  0
   17.8857   -9.6088   10.7446 H   0  0  0  0  0  0  0  0  0  0  0  0
   20.5675  -10.8748    4.7929 H   0  0  0  0  0  0  0  0  0  0  0  0
   21.0724   -9.2373    5.2891 H   0  0  0  0  0  0  0  0  0  0  0  0
   17.7005  -12.3562    8.2523 H   0  0  0  0  0  0  0  0  0  0  0  0
   19.0956  -13.4887    6.4677 H   0  0  0  0  0  0  0  0  0  0  0  0
   18.1645  -12.5208    5.2748 H   0  0  0  0  0  0  0  0  0  0  0  0
   19.9598  -12.4607    5.2748 H   0  0  0  0  0  0  0  0  0  0  0  0
  1  2  2  0
  1  3  1  6
  1  4  1  0
  1  5  1  0
  5  6  1  0
  7  6  1  0
  7  8  1  0
  7  9  1  0
  8 13  1  0
  9 10  1  0
  9 11  1  0
 11 12  1  0
 11 13  1  0
 13 14  1  0
 14 15  1  0
 14 21  1  0
 15 16  2  0
 15 17  1  0
 17 18  2  0
 18 19  1  0
 18 20  1  0
 20 21  2  0
 20 22  1  0
  6 23  1  0
  6 24  1  0
  7 25  1  1
  9 26  1  6
 10 27  1  0
 11 28  1  6
 12 29  1  0
 13 30  1  1
 19 31  1  0
 19 32  1  0
 21 33  1  0
 22 34  1  0
 22 35  1  0
 22 36  1  0
M  CHG  2   3  -1   4  -1
M  END
>  <filename_input>  (22) 
6XBO_5MC_docked.sdf

>  <pdb_id>  (22) 
6XBO_5MC

>  <pose_rank>  (22) 
21

>  <num_atoms_heavy>  (22) 
22

>  <num_torsions>  (22) 
4

>  <pose>  (22) 
[16.5209658960315, -12.19174151809768, 11.299533439292482, -5.424590994306145, 3.7006779800892042, 0.8783829054157339, 6.109246117858423, -5.911528049669386, 0.4047973103826662, -0.5895961528802711]

>  <energy>  (22) 
-726.7119214729329

>  <inter_energy>  (22) 
-710.62971930945

>  <intra_energy>  (22) 
0.021205064956217278

>  <rmsd>  (22) 
1.3772

>  <sdf_rank>  (22) 
0

$$$$

     RDKit          3D

 36 37  0  0  0  0  0  0  0  0999 V2000
   16.1780  -16.0658   11.4512 P   0  0  2  0  0  0  0  0  0  0  0  0
   14.9153  -16.4730   12.1205 O   0  0  0  0  0  0  0  0  0  0  0  0
   16.9613  -17.1361   10.5579 O   0  0  0  0  0  0  0  0  0  0  0  0
   17.1639  -15.3906   12.5212 O   0  0  0  0  0  0  0  0  0  0  0  0
   15.7373  -14.8656   10.5046 O   0  0  0  0  0  0  0  0  0  0  0  0
   16.6988  -13.9639    9.9835 C   0  0  0  0  0  0  0  0  0  0  0  0
   16.7408  -12.6933   10.7961 C   0  0  1  0  0  0  0  0  0  0  0  0
   17.9165  -11.9467   10.4104 O   0  0  0  0  0  0  0  0  0  0  0  0
   15.5429  -11.7629   10.6196 C   0  0  1  0  0  0  0  0  0  0  0  0
   15.1729  -11.2168   11.8939 O   0  0  0  0  0  0  0  0  0  0  0  0
   16.0798  -10.6585    9.6991 C   0  0  1  0  0  0  0  0  0  0  0  0
   15.4804   -9.4000    9.9102 O   0  0  0  0  0  0  0  0  0  0  0  0
   17.5638  -10.6275   10.0610 C   0  0  2  0  0  0  0  0  0  0  0  0
   18.4781  -10.2484    8.9802 N   0  0  0  0  0  0  0  0  0  0  0  0
   19.3646   -9.2639    9.1996 C   0  0  0  0  0  0  0  0  0  0  0  0
   19.3270   -8.6722   10.2663 O   0  0  0  0  0  0  0  0  0  0  0  0
   20.2525   -8.9133    8.2684 N   0  0  0  0  0  0  0  0  0  0  0  0
   20.3129   -9.5527    7.1071 C   0  0  0  0  0  0  0  0  0  0  0  0
   21.2393   -9.1690    6.1589 N   0  0  0  0  0  0  0  0  0  0  0  0
   19.4199  -10.6255    6.8600 C   0  0  0  0  0  0  0  0  0  0  0  0
   18.5133  -10.9656    7.8185 C   0  0  0  0  0  0  0  0  0  0  0  0
   19.4782  -11.3736    5.5483 C   0  0  0  0  0  0  0  0  0  0  0  0
   17.6900  -14.4402   10.0083 H   0  0  0  0  0  0  0  0  0  0  0  0
   16.4200  -13.7111    8.9499 H   0  0  0  0  0  0  0  0  0  0  0  0
   16.7393  -13.0172   11.8473 H   0  0  0  0  0  0  0  0  0  0  0  0
   14.6525  -12.2616   10.2093 H   0  0  0  0  0  0  0  0  0  0  0  0
   15.5528  -11.7775   12.6161 H   0  0  0  0  0  0  0  0  0  0  0  0
   15.8689  -10.8661    8.6397 H   0  0  0  0  0  0  0  0  0  0  0  0
   15.4002   -9.2316   10.8824 H   0  0  0  0  0  0  0  0  0  0  0  0
   17.6696   -9.8691   10.8508 H   0  0  0  0  0  0  0  0  0  0  0  0
   21.2881   -9.6637    5.2569 H   0  0  0  0  0  0  0  0  0  0  0  0
   21.8818   -8.3878    6.3533 H   0  0  0  0  0  0  0  0  0  0  0  0
   17.8204  -11.8050    7.6592 H   0  0  0  0  0  0  0  0  0  0  0  0
   19.5622  -12.4526    5.7450 H   0  0  0  0  0  0  0  0  0  0  0  0
   18.5620  -11.1761    4.9725 H   0  0  0  0  0  0  0  0  0  0  0  0
   20.3528  -11.0367    4.9725 H   0  0  0  0  0  0  0  0  0  0  0  0
  1  2  2  0
  1  3  1  6
  1  4  1  0
  1  5  1  0
  5  6  1  0
  7  6  1  0
  7  8  1  0
  7  9  1  0
  8 13  1  0
  9 10  1  0
  9 11  1  0
 11 12  1  0
 11 13  1  0
 13 14  1  0
 14 15  1  0
 14 21  1  0
 15 16  2  0
 15 17  1  0
 17 18  2  0
 18 19  1  0
 18 20  1  0
 20 21  2  0
 20 22  1  0
  6 23  1  0
  6 24  1  0
  7 25  1  1
  9 26  1  6
 10 27  1  0
 11 28  1  6
 12 29  1  0
 13 30  1  1
 19 31  1  0
 19 32  1  0
 21 33  1  0
 22 34  1  0
 22 35  1  0
 22 36  1  0
M  CHG  2   3  -1   4  -1
M  END
>  <filename_input>  (23) 
6XBO_5MC_docked.sdf

>  <pdb_id>  (23) 
6XBO_5MC

>  <pose_rank>  (23) 
22

>  <num_atoms_heavy>  (23) 
22

>  <num_torsions>  (23) 
4

>  <pose>  (23) 
[16.740776122150415, -12.693317528494912, 10.796116513184543, -3.863554873553371, -0.4468642456985223, 5.259607929125, 0.20078687972078202, 0.07123021534516438, 1.4182720833108067, -2.229936809263207]

>  <energy>  (23) 
-772.6798393681664

>  <inter_energy>  (23) 
-781.9023145725538

>  <intra_energy>  (23) 
4.1154906281196775

>  <rmsd>  (23) 
1.60693

>  <sdf_rank>  (23) 
0

$$$$

     RDKit          3D

 36 37  0  0  0  0  0  0  0  0999 V2000
   14.9372  -15.2968   11.2279 P   0  0  2  0  0  0  0  0  0  0  0  0
   13.5408  -15.7873   11.3613 O   0  0  0  0  0  0  0  0  0  0  0  0
   16.1312  -16.3598   11.1897 O   0  0  0  0  0  0  0  0  0  0  0  0
   15.2206  -14.1654   12.3288 O   0  0  0  0  0  0  0  0  0  0  0  0
   14.9346  -14.5124    9.8439 O   0  0  0  0  0  0  0  0  0  0  0  0
   16.0620  -13.7548    9.4389 C   0  0  0  0  0  0  0  0  0  0  0  0
   16.3611  -12.6611   10.4342 C   0  0  1  0  0  0  0  0  0  0  0  0
   17.6643  -12.1152   10.1305 O   0  0  0  0  0  0  0  0  0  0  0  0
   15.3776  -11.4931   10.4395 C   0  0  1  0  0  0  0  0  0  0  0  0
   15.1257  -11.0893   11.7931 O   0  0  0  0  0  0  0  0  0  0  0  0
   16.1283  -10.3893    9.6820 C   0  0  1  0  0  0  0  0  0  0  0  0
   15.7972   -9.0847   10.1014 O   0  0  0  0  0  0  0  0  0  0  0  0
   17.5874  -10.7140    9.9979 C   0  0  2  0  0  0  0  0  0  0  0  0
   18.5601  -10.3626    8.9596 N   0  0  0  0  0  0  0  0  0  0  0  0
   19.4412   -9.3796    9.2060 C   0  0  0  0  0  0  0  0  0  0  0  0
   19.3519   -8.7664   10.2574 O   0  0  0  0  0  0  0  0  0  0  0  0
   20.3795   -9.0535    8.3163 N   0  0  0  0  0  0  0  0  0  0  0  0
   20.4963   -9.7165    7.1727 C   0  0  0  0  0  0  0  0  0  0  0  0
   21.4741   -9.3579    6.2674 N   0  0  0  0  0  0  0  0  0  0  0  0
   19.6095  -10.7883    6.9000 C   0  0  0  0  0  0  0  0  0  0  0  0
   18.6511  -11.1033    7.8158 C   0  0  0  0  0  0  0  0  0  0  0  0
   19.7312  -11.5631    5.6082 C   0  0  0  0  0  0  0  0  0  0  0  0
   16.9345  -14.4203    9.3620 H   0  0  0  0  0  0  0  0  0  0  0  0
   15.8440  -13.2933    8.4644 H   0  0  0  0  0  0  0  0  0  0  0  0
   16.2933  -13.1379   11.4232 H   0  0  0  0  0  0  0  0  0  0  0  0
   14.4045  -11.7325    9.9858 H   0  0  0  0  0  0  0  0  0  0  0  0
   15.5338  -11.7436   12.4140 H   0  0  0  0  0  0  0  0  0  0  0  0
   15.8800  -10.3826    8.6104 H   0  0  0  0  0  0  0  0  0  0  0  0
   15.7880   -9.0484   11.0907 H   0  0  0  0  0  0  0  0  0  0  0  0
   17.8448  -10.1249   10.8905 H   0  0  0  0  0  0  0  0  0  0  0  0
   21.5667   -9.8710    5.3791 H   0  0  0  0  0  0  0  0  0  0  0  0
   22.1114   -8.5771    6.4799 H   0  0  0  0  0  0  0  0  0  0  0  0
   17.9614  -11.9412    7.6367 H   0  0  0  0  0  0  0  0  0  0  0  0
   19.8983  -12.6268    5.8330 H   0  0  0  0  0  0  0  0  0  0  0  0
   18.8047  -11.4525    5.0257 H   0  0  0  0  0  0  0  0  0  0  0  0
   20.5792  -11.1738    5.0257 H   0  0  0  0  0  0  0  0  0  0  0  0
  1  2  2  0
  1  3  1  6
  1  4  1  0
  1  5  1  0
  5  6  1  0
  7  6  1  0
  7  8  1  0
  7  9  1  0
  8 13  1  0
  9 10  1  0
  9 11  1  0
 11 12  1  0
 11 13  1  0
 13 14  1  0
 14 15  1  0
 14 21  1  0
 15 16  2  0
 15 17  1  0
 17 18  2  0
 18 19  1  0
 18 20  1  0
 20 21  2  0
 20 22  1  0
  6 23  1  0
  6 24  1  0
  7 25  1  1
  9 26  1  6
 10 27  1  0
 11 28  1  6
 12 29  1  0
 13 30  1  1
 19 31  1  0
 19 32  1  0
 21 33  1  0
 22 34  1  0
 22 35  1  0
 22 36  1  0
M  CHG  2   3  -1   4  -1
M  END
>  <filename_input>  (24) 
6XBO_5MC_docked.sdf

>  <pdb_id>  (24) 
6XBO_5MC

>  <pose_rank>  (24) 
23

>  <num_atoms_heavy>  (24) 
22

>  <num_torsions>  (24) 
4

>  <pose>  (24) 
[16.36110371417922, -12.661109076673279, 10.434247501567574, 3.9627431023884645, -3.2320207808000205, 3.659815820866598, 6.210842559937736, -6.208870613753398, 2.0943980866432987, -2.050252520930771]

>  <energy>  (24) 
-752.8801889344446

>  <inter_energy>  (24) 
-792.5947301016962

>  <intra_energy>  (24) 
31.367193875004844

>  <rmsd>  (24) 
1.28462

>  <sdf_rank>  (24) 
0

$$$$

     RDKit          3D

 36 37  0  0  0  0  0  0  0  0999 V2000
   14.6474  -15.8338    9.2125 P   0  0  2  0  0  0  0  0  0  0  0  0
   14.1448  -15.0563    8.0501 O   0  0  0  0  0  0  0  0  0  0  0  0
   15.3478  -17.2479    8.9539 O   0  0  0  0  0  0  0  0  0  0  0  0
   13.4901  -15.9676   10.3149 O   0  0  0  0  0  0  0  0  0  0  0  0
   15.7219  -14.8690    9.8798 O   0  0  0  0  0  0  0  0  0  0  0  0
   16.0526  -13.6282    9.2796 C   0  0  0  0  0  0  0  0  0  0  0  0
   16.4249  -12.6068   10.3257 C   0  0  1  0  0  0  0  0  0  0  0  0
   17.7120  -12.0493    9.9777 O   0  0  0  0  0  0  0  0  0  0  0  0
   15.4558  -11.4358   10.4722 C   0  0  1  0  0  0  0  0  0  0  0  0
   15.2936  -11.1237   11.8633 O   0  0  0  0  0  0  0  0  0  0  0  0
   16.1689  -10.2876    9.7452 C   0  0  1  0  0  0  0  0  0  0  0  0
   15.8784   -9.0126   10.2720 O   0  0  0  0  0  0  0  0  0  0  0  0
   17.6415  -10.6419    9.9453 C   0  0  2  0  0  0  0  0  0  0  0  0
   18.5507  -10.2266    8.8736 N   0  0  0  0  0  0  0  0  0  0  0  0
   19.4054   -9.2173    9.1066 C   0  0  0  0  0  0  0  0  0  0  0  0
   19.3429   -8.6356   10.1777 O   0  0  0  0  0  0  0  0  0  0  0  0
   20.2881   -8.8323    8.1842 N   0  0  0  0  0  0  0  0  0  0  0  0
   20.3756   -9.4603    7.0184 C   0  0  0  0  0  0  0  0  0  0  0  0
   21.2959   -9.0409    6.0794 N   0  0  0  0  0  0  0  0  0  0  0  0
   19.5173  -10.5577    6.7569 C   0  0  0  0  0  0  0  0  0  0  0  0
   18.6153  -10.9330    7.7066 C   0  0  0  0  0  0  0  0  0  0  0  0
   19.6068  -11.2932    5.4398 C   0  0  0  0  0  0  0  0  0  0  0  0
   16.9041  -13.7730    8.5985 H   0  0  0  0  0  0  0  0  0  0  0  0
   15.1760  -13.2609    8.7258 H   0  0  0  0  0  0  0  0  0  0  0  0
   16.4143  -13.1495   11.2825 H   0  0  0  0  0  0  0  0  0  0  0  0
   14.4537  -11.6379   10.0660 H   0  0  0  0  0  0  0  0  0  0  0  0
   15.6735  -11.8549   12.4121 H   0  0  0  0  0  0  0  0  0  0  0  0
   15.8539  -10.2064    8.6944 H   0  0  0  0  0  0  0  0  0  0  0  0
   15.8878   -9.0542   11.2611 H   0  0  0  0  0  0  0  0  0  0  0  0
   17.9605  -10.1166   10.8576 H   0  0  0  0  0  0  0  0  0  0  0  0
   21.3656   -9.5267    5.1739 H   0  0  0  0  0  0  0  0  0  0  0  0
   21.9130   -8.2421    6.2842 H   0  0  0  0  0  0  0  0  0  0  0  0
   17.9494  -11.7918    7.5361 H   0  0  0  0  0  0  0  0  0  0  0  0
   19.7377  -12.3689    5.6287 H   0  0  0  0  0  0  0  0  0  0  0  0
   18.6824  -11.1315    4.8660 H   0  0  0  0  0  0  0  0  0  0  0  0
   20.4655  -10.9145    4.8660 H   0  0  0  0  0  0  0  0  0  0  0  0
  1  2  2  0
  1  3  1  6
  1  4  1  0
  1  5  1  0
  5  6  1  0
  7  6  1  0
  7  8  1  0
  7  9  1  0
  8 13  1  0
  9 10  1  0
  9 11  1  0
 11 12  1  0
 11 13  1  0
 13 14  1  0
 14 15  1  0
 14 21  1  0
 15 16  2  0
 15 17  1  0
 17 18  2  0
 18 19  1  0
 18 20  1  0
 20 21  2  0
 20 22  1  0
  6 23  1  0
  6 24  1  0
  7 25  1  1
  9 26  1  6
 10 27  1  0
 11 28  1  6
 12 29  1  0
 13 30  1  1
 19 31  1  0
 19 32  1  0
 21 33  1  0
 22 34  1  0
 22 35  1  0
 22 36  1  0
M  CHG  2   3  -1   4  -1
M  END
>  <filename_input>  (25) 
6XBO_5MC_docked.sdf

>  <pdb_id>  (25) 
6XBO_5MC

>  <pose_rank>  (25) 
24

>  <num_atoms_heavy>  (25) 
22

>  <num_torsions>  (25) 
4

>  <pose>  (25) 
[16.424852976141864, -12.606752098102104, 10.325728247093462, -4.716902193608532, -3.9915465871801867, 0.3593140879616738, -6.419282031837935, -0.6370288047466637, -0.543314651592897, 1.1530169091979345]

>  <energy>  (25) 
-866.6716724387855

>  <inter_energy>  (25) 
-869.8419481316884

>  <intra_energy>  (25) 
0.0

>  <rmsd>  (25) 
0.329869

>  <sdf_rank>  (25) 
0

$$$$

     RDKit          3D

 36 37  0  0  0  0  0  0  0  0999 V2000
   14.5190  -15.6360    9.0380 P   0  0  2  0  0  0  0  0  0  0  0  0
   13.8480  -14.9920    7.8790 O   0  0  0  0  0  0  0  0  0  0  0  0
   15.7590  -16.6100    8.7720 O   0  0  0  0  0  0  0  0  0  0  0  0
   13.4250  -16.3520    9.9670 O   0  0  0  0  0  0  0  0  0  0  0  0
   15.0370  -14.4090    9.9080 O   0  0  0  0  0  0  0  0  0  0  0  0
   16.1040  -13.5960    9.4500 C   0  0  0  0  0  0  0  0  0  0  0  0
   16.4090  -12.5000   10.4410 C   0  0  1  0  0  0  0  0  0  0  0  0
   17.7130  -11.9590   10.1320 O   0  0  0  0  0  0  0  0  0  0  0  0
   15.4290  -11.3290   10.4450 C   0  0  1  0  0  0  0  0  0  0  0  0
   15.1820  -10.9200   11.7980 O   0  0  0  0  0  0  0  0  0  0  0  0
   16.1810  -10.2300    9.6820 C   0  0  1  0  0  0  0  0  0  0  0  0
   15.8550   -8.9230   10.0980 O   0  0  0  0  0  0  0  0  0  0  0  0
   17.6400  -10.5580    9.9950 C   0  0  2  0  0  0  0  0  0  0  0  0
   18.6110  -10.2130    8.9530 N   0  0  0  0  0  0  0  0  0  0  0  0
   19.5490   -9.2910    9.2240 C   0  0  0  0  0  0  0  0  0  0  0  0
   19.5130   -8.7220   10.3030 O   0  0  0  0  0  0  0  0  0  0  0  0
   20.4870   -8.9760    8.3300 N   0  0  0  0  0  0  0  0  0  0  0  0
   20.5460   -9.5920    7.1560 C   0  0  0  0  0  0  0  0  0  0  0  0
   21.5250   -9.2460    6.2470 N   0  0  0  0  0  0  0  0  0  0  0  0
   19.5970  -10.6010    6.8550 C   0  0  0  0  0  0  0  0  0  0  0  0
   18.6400  -10.9050    7.7760 C   0  0  0  0  0  0  0  0  0  0  0  0
   19.6520  -11.3220    5.5280 C   0  0  0  0  0  0  0  0  0  0  0  0
   17.0001  -14.2197    9.3156 H   0  0  0  0  0  0  0  0  0  0  0  0
   15.8102  -13.1351    8.4954 H   0  0  0  0  0  0  0  0  0  0  0  0
   16.3424  -12.9734   11.4317 H   0  0  0  0  0  0  0  0  0  0  0  0
   14.4540  -11.5670    9.9947 H   0  0  0  0  0  0  0  0  0  0  0  0
   15.5802  -11.5793   12.4200 H   0  0  0  0  0  0  0  0  0  0  0  0
   15.9299  -10.2260    8.6110 H   0  0  0  0  0  0  0  0  0  0  0  0
   15.8453   -8.8843   11.0872 H   0  0  0  0  0  0  0  0  0  0  0  0
   17.9015   -9.9668   10.8850 H   0  0  0  0  0  0  0  0  0  0  0  0
   21.5728   -9.7227    5.3352 H   0  0  0  0  0  0  0  0  0  0  0  0
   22.2079   -8.5111    6.4804 H   0  0  0  0  0  0  0  0  0  0  0  0
   17.9022  -11.6956    7.5746 H   0  0  0  0  0  0  0  0  0  0  0  0
   19.7346  -12.4050    5.7023 H   0  0  0  0  0  0  0  0  0  0  0  0
   18.7352  -11.1112    4.9579 H   0  0  0  0  0  0  0  0  0  0  0  0
   20.5262  -10.9746    4.9579 H   0  0  0  0  0  0  0  0  0  0  0  0
  1  2  2  0
  1  3  1  6
  1  4  1  0
  1  5  1  0
  5  6  1  0
  7  6  1  0
  7  8  1  0
  7  9  1  0
  8 13  1  0
  9 10  1  0
  9 11  1  0
 11 12  1  0
 11 13  1  0
 13 14  1  0
 14 15  1  0
 14 21  1  0
 15 16  2  0
 15 17  1  0
 17 18  2  0
 18 19  1  0
 18 20  1  0
 20 21  2  0
 20 22  1  0
  6 23  1  0
  6 24  1  0
  7 25  1  1
  9 26  1  6
 10 27  1  0
 11 28  1  6
 12 29  1  0
 13 30  1  1
 19 31  1  0
 19 32  1  0
 21 33  1  0
 22 34  1  0
 22 35  1  0
 22 36  1  0
M  CHG  2   3  -1   4  -1
M  END
>  <filename_input>  (26) 
6XBO_5MC_docked.sdf

>  <pdb_id>  (26) 
6XBO_5MC

>  <pose_rank>  (26) 
25

>  <num_atoms_heavy>  (26) 
22

>  <num_torsions>  (26) 
4

>  <pose>  (26) 
[16.409, -12.5, 10.441, 1e-06, 1e-06, 1e-06, 0.0, 0.0, 0.0, 0.0]

>  <energy>  (26) 
-863.5227034058069

>  <inter_energy>  (26) 
-870.4919908943052

>  <intra_energy>  (26) 
0.0

>  <rmsd>  (26) 
0.0

>  <sdf_rank>  (26) 
0

$$$$
