
     RDKit          3D

 70 72  0  0  0  0  0  0  0  0999 V2000
   15.7092   20.7230  -11.3738 C   0  0  0  0  0  0  0  0  0  0  0  0
   17.1693   18.9462  -10.8976 C   0  0  0  0  0  0  0  0  0  0  0  0
   14.2814   17.4311  -11.1669 C   0  0  0  0  0  0  0  0  0  0  0  0
   15.6601   19.2694  -10.8583 C   0  0  2  0  0  0  0  0  0  0  0  0
   12.1130   16.8915  -10.1942 C   0  0  2  0  0  0  0  0  0  0  0  0
   10.9954   16.5511  -11.1921 C   0  0  1  0  0  0  0  0  0  0  0  0
   11.6077   17.4864   -8.8708 C   0  0  0  0  0  0  0  0  0  0  0  0
   12.6980   18.2550   -8.1494 C   0  0  0  0  0  0  0  0  0  0  0  0
   13.9578   17.7036   -7.9742 C   0  0  0  0  0  0  0  0  0  0  0  0
   12.4656   19.5318   -7.6580 C   0  0  0  0  0  0  0  0  0  0  0  0
   14.9618   18.4073   -7.3257 C   0  0  0  0  0  0  0  0  0  0  0  0
   13.4719   20.2362   -7.0138 C   0  0  0  0  0  0  0  0  0  0  0  0
   14.7166   19.6744   -6.8522 C   0  0  0  0  0  0  0  0  0  0  0  0
   10.6922   15.0649  -11.1847 C   0  0  0  0  0  0  0  0  0  0  0  0
    8.9284   13.3819  -11.6140 C   0  0  0  0  0  0  0  0  0  0  0  0
    9.3980   12.8302  -10.2843 C   0  0  2  0  0  0  0  0  0  0  0  0
   10.2546   13.3843  -14.3866 C   0  0  0  0  0  0  0  0  0  0  0  0
   11.6133   13.1018  -14.4669 C   0  0  0  0  0  0  0  0  0  0  0  0
   12.0295   11.9156  -15.0442 C   0  0  0  0  0  0  0  0  0  0  0  0
   11.0984   10.9888  -15.5385 C   0  0  0  0  0  0  0  0  0  0  0  0
    9.7339   11.2874  -15.4371 C   0  0  0  0  0  0  0  0  0  0  0  0
    9.3164   12.4770  -14.8715 C   0  0  0  0  0  0  0  0  0  0  0  0
   10.6994   13.3842   -9.8024 C   0  0  0  0  0  0  0  0  0  0  0  0
    9.4854   11.2976  -10.4439 C   0  0  0  0  0  0  0  0  0  0  0  0
   17.5145   19.5088  -12.2618 C   0  0  0  0  0  0  0  0  0  0  0  0
   13.0531   17.8087  -10.8244 N   0  0  0  0  0  0  0  0  0  0  0  0
    9.5874   14.6241  -12.0440 N   0  0  0  0  0  0  0  0  0  0  0  0
   11.5145    9.8057  -16.1115 N   0  0  0  0  0  0  0  0  0  0  0  0
   14.9247   18.4800  -11.7627 O   0  0  0  0  0  0  0  0  0  0  0  0
   14.7851   16.3324  -10.9672 O   0  0  0  0  0  0  0  0  0  0  0  0
    9.7801   17.2220  -10.8557 O   0  0  0  0  0  0  0  0  0  0  0  0
   10.7042   15.8891  -13.8544 O   0  0  0  0  0  0  0  0  0  0  0  0
    8.3705   15.1398  -14.0971 O   0  0  0  0  0  0  0  0  0  0  0  0
   16.7132   20.6987  -12.4123 O   0  0  0  0  0  0  0  0  0  0  0  0
    9.7037   14.8903  -13.6486 S   0  0  1  0  0  0  0  0  0  0  0  0
   14.7334   21.0250  -11.7819 H   0  0  0  0  0  0  0  0  0  0  0  0
   15.9451   21.4440  -10.5773 H   0  0  0  0  0  0  0  0  0  0  0  0
   17.7187   19.4569  -10.0929 H   0  0  0  0  0  0  0  0  0  0  0  0
   17.4234   17.8859  -10.7522 H   0  0  0  0  0  0  0  0  0  0  0  0
   15.1850   19.1015   -9.8805 H   0  0  0  0  0  0  0  0  0  0  0  0
   12.6034   15.9427   -9.9309 H   0  0  0  0  0  0  0  0  0  0  0  0
   11.3547   16.8718  -12.1810 H   0  0  0  0  0  0  0  0  0  0  0  0
   10.7711   18.1685   -9.0829 H   0  0  0  0  0  0  0  0  0  0  0  0
   11.2858   16.6578   -8.2229 H   0  0  0  0  0  0  0  0  0  0  0  0
   14.1643   16.6926   -8.3552 H   0  0  0  0  0  0  0  0  0  0  0  0
   11.4731   19.9900   -7.7806 H   0  0  0  0  0  0  0  0  0  0  0  0
   15.9538   17.9517   -7.1904 H   0  0  0  0  0  0  0  0  0  0  0  0
   13.2735   21.2481   -6.6306 H   0  0  0  0  0  0  0  0  0  0  0  0
   15.5141   20.2375   -6.3454 H   0  0  0  0  0  0  0  0  0  0  0  0
   11.6006   14.5356  -11.5082 H   0  0  0  0  0  0  0  0  0  0  0  0
   10.3752   14.8346  -10.1569 H   0  0  0  0  0  0  0  0  0  0  0  0
    9.1096   12.6167  -12.3832 H   0  0  0  0  0  0  0  0  0  0  0  0
    7.8648   13.6300  -11.4832 H   0  0  0  0  0  0  0  0  0  0  0  0
    8.6748   13.1322   -9.5125 H   0  0  0  0  0  0  0  0  0  0  0  0
   12.3520   13.8161  -14.0744 H   0  0  0  0  0  0  0  0  0  0  0  0
   13.1048   11.6956  -15.1168 H   0  0  0  0  0  0  0  0  0  0  0  0
    8.9888   10.5695  -15.8105 H   0  0  0  0  0  0  0  0  0  0  0  0
    8.2428   12.7072  -14.8043 H   0  0  0  0  0  0  0  0  0  0  0  0
   10.7110   13.3891   -8.7025 H   0  0  0  0  0  0  0  0  0  0  0  0
   11.5245   12.7593  -10.1750 H   0  0  0  0  0  0  0  0  0  0  0  0
   10.8209   14.4120  -10.1750 H   0  0  0  0  0  0  0  0  0  0  0  0
    9.5123   10.8264   -9.4503 H   0  0  0  0  0  0  0  0  0  0  0  0
    8.6064   10.9359  -10.9976 H   0  0  0  0  0  0  0  0  0  0  0  0
   10.3998   11.0381  -10.9976 H   0  0  0  0  0  0  0  0  0  0  0  0
   18.5844   19.7589  -12.3132 H   0  0  0  0  0  0  0  0  0  0  0  0
   17.3121   18.7815  -13.0619 H   0  0  0  0  0  0  0  0  0  0  0  0
   12.7578   18.7778  -11.0101 H   0  0  0  0  0  0  0  0  0  0  0  0
   10.8200    9.1349  -16.4701 H   0  0  0  0  0  0  0  0  0  0  0  0
   12.5199    9.5927  -16.1810 H   0  0  0  0  0  0  0  0  0  0  0  0
    9.6918   17.2708   -9.8709 H   0  0  0  0  0  0  0  0  0  0  0  0
  1  4  1  0
  1 34  1  0
  2  4  1  0
  2 25  1  0
  3 26  1  0
  3 29  1  0
  3 30  2  0
  4 29  1  0
  5  6  1  0
  5  7  1  0
  5 26  1  0
  6 14  1  0
  6 31  1  0
  7  8  1  0
  8  9  2  0
  8 10  1  0
  9 11  1  0
 10 12  2  0
 11 13  2  0
 12 13  1  0
 14 27  1  0
 15 16  1  0
 15 27  1  0
 16 23  1  0
 16 24  1  0
 17 18  2  0
 17 22  1  0
 17 35  1  0
 18 19  1  0
 19 20  2  0
 20 21  1  0
 20 28  1  0
 21 22  2  0
 25 34  1  0
 35 27  1  1
 32 35  2  0
 33 35  2  0
  1 36  1  0
  1 37  1  0
  2 38  1  0
  2 39  1  0
  4 40  1  1
  5 41  1  1
  6 42  1  6
  7 43  1  0
  7 44  1  0
  9 45  1  0
 10 46  1  0
 11 47  1  0
 12 48  1  0
 13 49  1  0
 14 50  1  0
 14 51  1  0
 15 52  1  0
 15 53  1  0
 16 54  1  1
 18 55  1  0
 19 56  1  0
 21 57  1  0
 22 58  1  0
 23 59  1  0
 23 60  1  0
 23 61  1  0
 24 62  1  0
 24 63  1  0
 24 64  1  0
 25 65  1  0
 25 66  1  0
 26 67  1  0
 28 68  1  0
 28 69  1  0
 31 70  1  0
M  END
>  <filename_input>  (1) 
6XCT_478_docked.sdf

>  <pdb_id>  (1) 
6XCT_478

>  <pose_rank>  (1) 
0

>  <num_atoms_heavy>  (1) 
35

>  <num_torsions>  (1) 
12

>  <pose>  (1) 
[10.995407479739164, 16.551082623752066, -11.192089275340946, -2.5135989835838775, 1.5041220464448295, 0.009565693547937482, -0.5205743130979558, 0.4019695425000806, 4.710258785504724, -1.0255612256347335, 0.39486064253372577, 0.597738133998413, -1.8608834981369573, -0.7678974856774141, -0.17495918919358827, -0.04242332801838138, -1.6384554924181791, 0.25587461572639736]

>  <energy>  (1) 
-744.4312196061358

>  <inter_energy>  (1) 
-872.1258688855457

>  <intra_energy>  (1) 
138.16656185581044

>  <rmsd>  (1) 
8.62864

>  <sdf_rank>  (1) 
0

$$$$

     RDKit          3D

 70 72  0  0  0  0  0  0  0  0999 V2000
    8.8325   10.9289   -9.9409 C   0  0  0  0  0  0  0  0  0  0  0  0
    9.4627   11.2982   -7.7089 C   0  0  0  0  0  0  0  0  0  0  0  0
   10.6494   13.8681   -9.7030 C   0  0  0  0  0  0  0  0  0  0  0  0
    9.8365   11.7740   -9.1293 C   0  0  2  0  0  0  0  0  0  0  0  0
   11.1940   15.8787  -10.9680 C   0  0  2  0  0  0  0  0  0  0  0  0
   11.0709   17.1818  -10.1634 C   0  0  1  0  0  0  0  0  0  0  0  0
   10.9754   16.0553  -12.4786 C   0  0  0  0  0  0  0  0  0  0  0  0
   11.3529   14.8049  -13.2494 C   0  0  0  0  0  0  0  0  0  0  0  0
   12.6814   14.4392  -13.4016 C   0  0  0  0  0  0  0  0  0  0  0  0
   10.3790   13.9911  -13.8105 C   0  0  0  0  0  0  0  0  0  0  0  0
   13.0311   13.2902  -14.0954 C   0  0  0  0  0  0  0  0  0  0  0  0
   10.7299   12.8399  -14.5001 C   0  0  0  0  0  0  0  0  0  0  0  0
   12.0529   12.4911  -14.6379 C   0  0  0  0  0  0  0  0  0  0  0  0
   12.2201   18.1228  -10.4710 C   0  0  0  0  0  0  0  0  0  0  0  0
   13.5596   18.9326   -8.5533 C   0  0  0  0  0  0  0  0  0  0  0  0
   13.1007   18.4382   -7.1975 C   0  0  2  0  0  0  0  0  0  0  0  0
   15.8213   18.8961  -10.5803 C   0  0  0  0  0  0  0  0  0  0  0  0
   15.4783   19.8804  -11.4999 C   0  0  0  0  0  0  0  0  0  0  0  0
   16.2878   20.9932  -11.6404 C   0  0  0  0  0  0  0  0  0  0  0  0
   17.4435   21.1473  -10.8588 C   0  0  0  0  0  0  0  0  0  0  0  0
   17.7647   20.1498   -9.9297 C   0  0  0  0  0  0  0  0  0  0  0  0
   16.9638   19.0317   -9.7961 C   0  0  0  0  0  0  0  0  0  0  0  0
   11.7378   18.8987   -6.7931 C   0  0  0  0  0  0  0  0  0  0  0  0
   14.1575   18.9024   -6.1730 C   0  0  0  0  0  0  0  0  0  0  0  0
    7.9520   11.3673   -7.8068 C   0  0  0  0  0  0  0  0  0  0  0  0
   10.2518   14.9008  -10.4407 N   0  0  0  0  0  0  0  0  0  0  0  0
   13.4263   17.9632   -9.6508 N   0  0  0  0  0  0  0  0  0  0  0  0
   18.2483   22.2583  -10.9981 N   0  0  0  0  0  0  0  0  0  0  0  0
    9.5568   13.1402   -9.3221 O   0  0  0  0  0  0  0  0  0  0  0  0
   11.8062   13.5817   -9.4192 O   0  0  0  0  0  0  0  0  0  0  0  0
    9.8677   17.8790  -10.4897 O   0  0  0  0  0  0  0  0  0  0  0  0
   14.4499   16.9794  -11.6780 O   0  0  0  0  0  0  0  0  0  0  0  0
   15.4381   16.5933   -9.4552 O   0  0  0  0  0  0  0  0  0  0  0  0
    7.6242   10.9542   -9.1493 O   0  0  0  0  0  0  0  0  0  0  0  0
   14.7981   17.4713  -10.3826 S   0  0  1  0  0  0  0  0  0  0  0  0
    8.6590   11.3745  -10.9315 H   0  0  0  0  0  0  0  0  0  0  0  0
    9.1944    9.9063  -10.1236 H   0  0  0  0  0  0  0  0  0  0  0  0
    9.8142   10.2742   -7.5141 H   0  0  0  0  0  0  0  0  0  0  0  0
    9.9045   11.8839   -6.8893 H   0  0  0  0  0  0  0  0  0  0  0  0
   10.9017   11.6622   -9.3802 H   0  0  0  0  0  0  0  0  0  0  0  0
   12.2309   15.5305  -10.8518 H   0  0  0  0  0  0  0  0  0  0  0  0
   11.0760   16.8923   -9.1022 H   0  0  0  0  0  0  0  0  0  0  0  0
    9.9143   16.2802  -12.6614 H   0  0  0  0  0  0  0  0  0  0  0  0
   11.6178   16.8786  -12.8243 H   0  0  0  0  0  0  0  0  0  0  0  0
   13.4702   15.0698  -12.9656 H   0  0  0  0  0  0  0  0  0  0  0  0
    9.3178   14.2617  -13.7074 H   0  0  0  0  0  0  0  0  0  0  0  0
   14.0907   13.0186  -14.2114 H   0  0  0  0  0  0  0  0  0  0  0  0
    9.9470   12.2036  -14.9384 H   0  0  0  0  0  0  0  0  0  0  0  0
   12.3278   11.5749  -15.1810 H   0  0  0  0  0  0  0  0  0  0  0  0
   12.5064   17.9704  -11.5220 H   0  0  0  0  0  0  0  0  0  0  0  0
   11.8427   19.1312  -10.2457 H   0  0  0  0  0  0  0  0  0  0  0  0
   12.9653   19.8217   -8.8104 H   0  0  0  0  0  0  0  0  0  0  0  0
   14.6360   19.1370   -8.4554 H   0  0  0  0  0  0  0  0  0  0  0  0
   13.0118   17.3428   -7.2434 H   0  0  0  0  0  0  0  0  0  0  0  0
   14.5700   19.7752  -12.1114 H   0  0  0  0  0  0  0  0  0  0  0  0
   16.0223   21.7680  -12.3748 H   0  0  0  0  0  0  0  0  0  0  0  0
   18.6613   20.2572   -9.3016 H   0  0  0  0  0  0  0  0  0  0  0  0
   17.2288   18.2489   -9.0702 H   0  0  0  0  0  0  0  0  0  0  0  0
   11.6693   18.9218   -5.6954 H   0  0  0  0  0  0  0  0  0  0  0  0
   11.5579   19.9075   -7.1930 H   0  0  0  0  0  0  0  0  0  0  0  0
   10.9829   18.2057   -7.1930 H   0  0  0  0  0  0  0  0  0  0  0  0
   13.7783   18.7358   -5.1540 H   0  0  0  0  0  0  0  0  0  0  0  0
   15.0849   18.3287   -6.3175 H   0  0  0  0  0  0  0  0  0  0  0  0
   14.3626   19.9734   -6.3175 H   0  0  0  0  0  0  0  0  0  0  0  0
    7.4895   10.6896   -7.0741 H   0  0  0  0  0  0  0  0  0  0  0  0
    7.5790   12.3799   -7.5932 H   0  0  0  0  0  0  0  0  0  0  0  0
    9.2485   15.0124  -10.6451 H   0  0  0  0  0  0  0  0  0  0  0  0
   19.0933   22.3581  -10.4178 H   0  0  0  0  0  0  0  0  0  0  0  0
   18.0044   22.9883  -11.6826 H   0  0  0  0  0  0  0  0  0  0  0  0
    9.4053   18.1470   -9.6563 H   0  0  0  0  0  0  0  0  0  0  0  0
  1  4  1  0
  1 34  1  0
  2  4  1  0
  2 25  1  0
  3 26  1  0
  3 29  1  0
  3 30  2  0
  4 29  1  0
  5  6  1  0
  5  7  1  0
  5 26  1  0
  6 14  1  0
  6 31  1  0
  7  8  1  0
  8  9  2  0
  8 10  1  0
  9 11  1  0
 10 12  2  0
 11 13  2  0
 12 13  1  0
 14 27  1  0
 15 16  1  0
 15 27  1  0
 16 23  1  0
 16 24  1  0
 17 18  2  0
 17 22  1  0
 17 35  1  0
 18 19  1  0
 19 20  2  0
 20 21  1  0
 20 28  1  0
 21 22  2  0
 25 34  1  0
 35 27  1  1
 32 35  2  0
 33 35  2  0
  1 36  1  0
  1 37  1  0
  2 38  1  0
  2 39  1  0
  4 40  1  6
  5 41  1  6
  6 42  1  1
  7 43  1  0
  7 44  1  0
  9 45  1  0
 10 46  1  0
 11 47  1  0
 12 48  1  0
 13 49  1  0
 14 50  1  0
 14 51  1  0
 15 52  1  0
 15 53  1  0
 16 54  1  6
 18 55  1  0
 19 56  1  0
 21 57  1  0
 22 58  1  0
 23 59  1  0
 23 60  1  0
 23 61  1  0
 24 62  1  0
 24 63  1  0
 24 64  1  0
 25 65  1  0
 25 66  1  0
 26 67  1  0
 28 68  1  0
 28 69  1  0
 31 70  1  0
M  END
>  <filename_input>  (2) 
6XCT_478_docked.sdf

>  <pdb_id>  (2) 
6XCT_478

>  <pose_rank>  (2) 
1

>  <num_atoms_heavy>  (2) 
35

>  <num_torsions>  (2) 
12

>  <pose>  (2) 
[11.070892294301474, 17.181785906508065, -10.163444292614734, -6.0679080344077265, -0.267826388925156, 1.5879991166594174, 0.04281277126852598, 0.4669654443796308, -0.5395570124760561, -0.6382738656573205, -0.1480776805767594, 0.18207867256910917, -0.2032149874734614, 0.17929886922735147, -0.102418372366885, 0.2271699404585204, -0.03794719030943259, -1.1997106370691553]

>  <energy>  (2) 
-1197.879171771764

>  <inter_energy>  (2) 
-1173.0689774480177

>  <intra_energy>  (2) 
3.4290161427207395

>  <rmsd>  (2) 
0.729469

>  <sdf_rank>  (2) 
0

$$$$

     RDKit          3D

 70 72  0  0  0  0  0  0  0  0999 V2000
    9.6389   10.9324  -10.1663 C   0  0  0  0  0  0  0  0  0  0  0  0
    9.3770   11.9806   -8.0811 C   0  0  0  0  0  0  0  0  0  0  0  0
   10.9430   14.2308  -10.0101 C   0  0  0  0  0  0  0  0  0  0  0  0
   10.2110   12.1254   -9.3722 C   0  0  2  0  0  0  0  0  0  0  0  0
   11.2936   16.6087   -9.6081 C   0  0  2  0  0  0  0  0  0  0  0  0
   11.8294   17.0136  -10.9900 C   0  0  1  0  0  0  0  0  0  0  0  0
   12.3918   16.3363   -8.5687 C   0  0  0  0  0  0  0  0  0  0  0  0
   13.4891   17.3817   -8.6256 C   0  0  0  0  0  0  0  0  0  0  0  0
   14.7547   17.0575   -9.0890 C   0  0  0  0  0  0  0  0  0  0  0  0
   13.2504   18.6893   -8.2269 C   0  0  0  0  0  0  0  0  0  0  0  0
   15.7581   18.0129   -9.1542 C   0  0  0  0  0  0  0  0  0  0  0  0
   14.2534   19.6448   -8.2970 C   0  0  0  0  0  0  0  0  0  0  0  0
   15.5020   19.3056   -8.7628 C   0  0  0  0  0  0  0  0  0  0  0  0
   11.1745   16.1984  -12.0888 C   0  0  0  0  0  0  0  0  0  0  0  0
   13.4478   15.3652  -12.6040 C   0  0  0  0  0  0  0  0  0  0  0  0
   13.8739   16.8161  -12.5229 C   0  0  2  0  0  0  0  0  0  0  0  0
   11.8295   12.6812  -13.8665 C   0  0  0  0  0  0  0  0  0  0  0  0
   13.0836   12.2144  -14.2426 C   0  0  0  0  0  0  0  0  0  0  0  0
   13.3789   10.8698  -14.1071 C   0  0  0  0  0  0  0  0  0  0  0  0
   12.4339    9.9734  -13.5840 C   0  0  0  0  0  0  0  0  0  0  0  0
   11.1804   10.4662  -13.2001 C   0  0  0  0  0  0  0  0  0  0  0  0
   10.8793   11.8069  -13.3456 C   0  0  0  0  0  0  0  0  0  0  0  0
   14.0145   17.5007  -13.8437 C   0  0  0  0  0  0  0  0  0  0  0  0
   15.2097   16.8455  -11.7504 C   0  0  0  0  0  0  0  0  0  0  0  0
    8.0070   11.7521   -8.6874 C   0  0  0  0  0  0  0  0  0  0  0  0
   10.4424   15.4353   -9.7508 N   0  0  0  0  0  0  0  0  0  0  0  0
   11.9969   15.1430  -12.6912 N   0  0  0  0  0  0  0  0  0  0  0  0
   12.7303    8.6337  -13.4472 N   0  0  0  0  0  0  0  0  0  0  0  0
    9.9239   13.3209  -10.0582 O   0  0  0  0  0  0  0  0  0  0  0  0
   12.1223   13.9614  -10.2036 O   0  0  0  0  0  0  0  0  0  0  0  0
   11.5494   18.3857  -11.2713 O   0  0  0  0  0  0  0  0  0  0  0  0
   12.1431   14.9193  -15.1516 O   0  0  0  0  0  0  0  0  0  0  0  0
   10.0142   14.5273  -13.9765 O   0  0  0  0  0  0  0  0  0  0  0  0
    8.2259   10.9496   -9.8657 O   0  0  0  0  0  0  0  0  0  0  0  0
   11.4357   14.3945  -14.0268 S   0  0  1  0  0  0  0  0  0  0  0  0
    9.8096   11.0643  -11.2449 H   0  0  0  0  0  0  0  0  0  0  0  0
   10.1152    9.9789   -9.8945 H   0  0  0  0  0  0  0  0  0  0  0  0
    9.7052   11.1230   -7.4754 H   0  0  0  0  0  0  0  0  0  0  0  0
    9.4434   12.8298   -7.3850 H   0  0  0  0  0  0  0  0  0  0  0  0
   11.2989   12.1428   -9.2107 H   0  0  0  0  0  0  0  0  0  0  0  0
   10.7220   17.4670   -9.2253 H   0  0  0  0  0  0  0  0  0  0  0  0
   12.9147   16.8362  -10.9657 H   0  0  0  0  0  0  0  0  0  0  0  0
   11.9426   16.3451   -7.5647 H   0  0  0  0  0  0  0  0  0  0  0  0
   12.8396   15.3565   -8.7914 H   0  0  0  0  0  0  0  0  0  0  0  0
   14.9665   16.0269   -9.4098 H   0  0  0  0  0  0  0  0  0  0  0  0
   12.2556   18.9710   -7.8514 H   0  0  0  0  0  0  0  0  0  0  0  0
   16.7583   17.7364   -9.5190 H   0  0  0  0  0  0  0  0  0  0  0  0
   14.0493   20.6778   -7.9788 H   0  0  0  0  0  0  0  0  0  0  0  0
   16.2939   20.0667   -8.8220 H   0  0  0  0  0  0  0  0  0  0  0  0
   10.2773   15.7237  -11.6649 H   0  0  0  0  0  0  0  0  0  0  0  0
   10.9693   16.9110  -12.9012 H   0  0  0  0  0  0  0  0  0  0  0  0
   13.9142   14.9229  -13.4966 H   0  0  0  0  0  0  0  0  0  0  0  0
   13.7721   14.8986  -11.6621 H   0  0  0  0  0  0  0  0  0  0  0  0
   13.0795   17.3792  -12.0113 H   0  0  0  0  0  0  0  0  0  0  0  0
   13.8357   12.9090  -14.6449 H   0  0  0  0  0  0  0  0  0  0  0  0
   14.3678   10.4980  -14.4134 H   0  0  0  0  0  0  0  0  0  0  0  0
   10.4299    9.7807  -12.7795 H   0  0  0  0  0  0  0  0  0  0  0  0
    9.8890   12.1834  -13.0498 H   0  0  0  0  0  0  0  0  0  0  0  0
   14.2334   18.5666  -13.6827 H   0  0  0  0  0  0  0  0  0  0  0  0
   14.8366   17.0391  -14.4103 H   0  0  0  0  0  0  0  0  0  0  0  0
   13.0770   17.4005  -14.4103 H   0  0  0  0  0  0  0  0  0  0  0  0
   15.0081   16.8411  -10.6691 H   0  0  0  0  0  0  0  0  0  0  0  0
   15.8063   15.9603  -12.0158 H   0  0  0  0  0  0  0  0  0  0  0  0
   15.7668   17.7561  -12.0158 H   0  0  0  0  0  0  0  0  0  0  0  0
    7.3579   11.2195   -7.9768 H   0  0  0  0  0  0  0  0  0  0  0  0
    7.5097   12.7022   -8.9322 H   0  0  0  0  0  0  0  0  0  0  0  0
    9.4230   15.5415   -9.6478 H   0  0  0  0  0  0  0  0  0  0  0  0
   12.0270    7.9874  -13.0618 H   0  0  0  0  0  0  0  0  0  0  0  0
   13.6550    8.2793  -13.7304 H   0  0  0  0  0  0  0  0  0  0  0  0
   11.4479   18.8828  -10.4212 H   0  0  0  0  0  0  0  0  0  0  0  0
  1  4  1  0
  1 34  1  0
  2  4  1  0
  2 25  1  0
  3 26  1  0
  3 29  1  0
  3 30  2  0
  4 29  1  0
  5  6  1  0
  5  7  1  0
  5 26  1  0
  6 14  1  0
  6 31  1  0
  7  8  1  0
  8  9  2  0
  8 10  1  0
  9 11  1  0
 10 12  2  0
 11 13  2  0
 12 13  1  0
 14 27  1  0
 15 16  1  0
 15 27  1  0
 16 23  1  0
 16 24  1  0
 17 18  2  0
 17 22  1  0
 17 35  1  0
 18 19  1  0
 19 20  2  0
 20 21  1  0
 20 28  1  0
 21 22  2  0
 25 34  1  0
 35 27  1  1
 32 35  2  0
 33 35  2  0
  1 36  1  0
  1 37  1  0
  2 38  1  0
  2 39  1  0
  4 40  1  1
  5 41  1  1
  6 42  1  1
  7 43  1  0
  7 44  1  0
  9 45  1  0
 10 46  1  0
 11 47  1  0
 12 48  1  0
 13 49  1  0
 14 50  1  0
 14 51  1  0
 15 52  1  0
 15 53  1  0
 16 54  1  1
 18 55  1  0
 19 56  1  0
 21 57  1  0
 22 58  1  0
 23 59  1  0
 23 60  1  0
 23 61  1  0
 24 62  1  0
 24 63  1  0
 24 64  1  0
 25 65  1  0
 25 66  1  0
 26 67  1  0
 28 68  1  0
 28 69  1  0
 31 70  1  0
M  END
>  <filename_input>  (3) 
6XCT_478_docked.sdf

>  <pdb_id>  (3) 
6XCT_478

>  <pose_rank>  (3) 
2

>  <num_atoms_heavy>  (3) 
35

>  <num_torsions>  (3) 
12

>  <pose>  (3) 
[11.829387452703916, 17.0136342327342, -10.990015688094463, -1.0999514720299337, 1.5694625401276021, -0.9829104644853225, 3.5263571346080513, -2.7042248396450157, 0.7393917526285932, -0.8727484906430906, 3.930834120113896, -0.4904056916601084, -0.49365240252273834, 1.4818923979832976, 1.9398712109885992, -0.008214403716744987, -2.2108155904626186, -0.9397697691691448]

>  <energy>  (3) 
-682.0313980514883

>  <inter_energy>  (3) 
-909.6247580496358

>  <intra_energy>  (3) 
232.9625712067135

>  <rmsd>  (3) 
6.48687

>  <sdf_rank>  (3) 
0

$$$$

     RDKit          3D

 70 72  0  0  0  0  0  0  0  0999 V2000
    7.4972   10.6352   -9.7881 C   0  0  0  0  0  0  0  0  0  0  0  0
    9.4304   10.0428   -8.5934 C   0  0  0  0  0  0  0  0  0  0  0  0
   10.3107   12.9025   -9.8016 C   0  0  0  0  0  0  0  0  0  0  0  0
    8.9969   10.9936   -9.7300 C   0  0  2  0  0  0  0  0  0  0  0  0
   11.1257   14.9467  -10.8486 C   0  0  2  0  0  0  0  0  0  0  0  0
   11.3214   16.1427   -9.9041 C   0  0  1  0  0  0  0  0  0  0  0  0
   10.8189   15.3428  -12.3011 C   0  0  0  0  0  0  0  0  0  0  0  0
   11.0954   14.2033  -13.2630 C   0  0  0  0  0  0  0  0  0  0  0  0
   12.3062   13.5289  -13.2348 C   0  0  0  0  0  0  0  0  0  0  0  0
   10.1404   13.8006  -14.1858 C   0  0  0  0  0  0  0  0  0  0  0  0
   12.5594   12.4784  -14.1043 C   0  0  0  0  0  0  0  0  0  0  0  0
   10.3932   12.7469  -15.0516 C   0  0  0  0  0  0  0  0  0  0  0  0
   11.5989   12.0873  -15.0067 C   0  0  0  0  0  0  0  0  0  0  0  0
   12.7224   16.7109  -10.0273 C   0  0  0  0  0  0  0  0  0  0  0  0
   13.9380   18.8521  -10.2828 C   0  0  0  0  0  0  0  0  0  0  0  0
   15.0878   18.0275  -10.8224 C   0  0  2  0  0  0  0  0  0  0  0  0
   13.6528   19.8586   -7.6176 C   0  0  0  0  0  0  0  0  0  0  0  0
   13.0759   21.1135   -7.7742 C   0  0  0  0  0  0  0  0  0  0  0  0
   13.8178   22.2450   -7.4870 C   0  0  0  0  0  0  0  0  0  0  0  0
   15.1404   22.1426   -7.0284 C   0  0  0  0  0  0  0  0  0  0  0  0
   15.6990   20.8686   -6.8661 C   0  0  0  0  0  0  0  0  0  0  0  0
   14.9635   19.7373   -7.1636 C   0  0  0  0  0  0  0  0  0  0  0  0
   16.3864   18.2245  -10.1099 C   0  0  0  0  0  0  0  0  0  0  0  0
   15.2284   18.3842  -12.3174 C   0  0  0  0  0  0  0  0  0  0  0  0
    8.3064   10.2947   -7.6085 C   0  0  0  0  0  0  0  0  0  0  0  0
   10.0619   14.0974  -10.3299 N   0  0  0  0  0  0  0  0  0  0  0  0
   12.9055   18.0910   -9.5638 N   0  0  0  0  0  0  0  0  0  0  0  0
   15.8781   23.2714   -6.7401 N   0  0  0  0  0  0  0  0  0  0  0  0
    9.1376   12.3478   -9.3716 O   0  0  0  0  0  0  0  0  0  0  0  0
   11.4045   12.3564   -9.7252 O   0  0  0  0  0  0  0  0  0  0  0  0
   10.4169   17.2026  -10.2180 O   0  0  0  0  0  0  0  0  0  0  0  0
   13.2869   17.3116   -7.2460 O   0  0  0  0  0  0  0  0  0  0  0  0
   11.3366   18.7107   -7.7984 O   0  0  0  0  0  0  0  0  0  0  0  0
    7.1165   10.4709   -8.4042 O   0  0  0  0  0  0  0  0  0  0  0  0
   12.7204   18.4026   -7.9739 S   0  0  1  0  0  0  0  0  0  0  0  0
    6.9205   11.4458  -10.2575 H   0  0  0  0  0  0  0  0  0  0  0  0
    7.3031    9.7335  -10.3877 H   0  0  0  0  0  0  0  0  0  0  0  0
    9.4575    8.9942   -8.9246 H   0  0  0  0  0  0  0  0  0  0  0  0
   10.4429   10.2166   -8.2004 H   0  0  0  0  0  0  0  0  0  0  0  0
    9.5738   10.8826  -10.6599 H   0  0  0  0  0  0  0  0  0  0  0  0
   12.0832   14.4061  -10.8790 H   0  0  0  0  0  0  0  0  0  0  0  0
   11.1402   15.7666   -8.8864 H   0  0  0  0  0  0  0  0  0  0  0  0
    9.7583   15.6245  -12.3775 H   0  0  0  0  0  0  0  0  0  0  0  0
   11.4709   16.1863  -12.5718 H   0  0  0  0  0  0  0  0  0  0  0  0
   13.0780   13.8316  -12.5118 H   0  0  0  0  0  0  0  0  0  0  0  0
    9.1731   14.3224  -14.2311 H   0  0  0  0  0  0  0  0  0  0  0  0
   13.5282   11.9585  -14.0718 H   0  0  0  0  0  0  0  0  0  0  0  0
    9.6262   12.4377  -15.7770 H   0  0  0  0  0  0  0  0  0  0  0  0
   11.7945   11.2487  -15.6912 H   0  0  0  0  0  0  0  0  0  0  0  0
   13.3975   16.0684   -9.4430 H   0  0  0  0  0  0  0  0  0  0  0  0
   12.9373   16.7320  -11.1059 H   0  0  0  0  0  0  0  0  0  0  0  0
   14.3515   19.6015   -9.5919 H   0  0  0  0  0  0  0  0  0  0  0  0
   13.4390   19.2908  -11.1594 H   0  0  0  0  0  0  0  0  0  0  0  0
   14.8525   16.9648  -10.6638 H   0  0  0  0  0  0  0  0  0  0  0  0
   12.0370   21.2060   -8.1239 H   0  0  0  0  0  0  0  0  0  0  0  0
   13.3651   23.2387   -7.6199 H   0  0  0  0  0  0  0  0  0  0  0  0
   16.7310   20.7678   -6.4989 H   0  0  0  0  0  0  0  0  0  0  0  0
   15.4134   18.7410   -7.0418 H   0  0  0  0  0  0  0  0  0  0  0  0
   16.2162   18.1987   -9.0235 H   0  0  0  0  0  0  0  0  0  0  0  0
   17.0842   17.4219  -10.3909 H   0  0  0  0  0  0  0  0  0  0  0  0
   16.8149   19.1979  -10.3909 H   0  0  0  0  0  0  0  0  0  0  0  0
   15.6304   19.4035  -12.4150 H   0  0  0  0  0  0  0  0  0  0  0  0
   15.9131   17.6722  -12.8014 H   0  0  0  0  0  0  0  0  0  0  0  0
   14.2421   18.3312  -12.8014 H   0  0  0  0  0  0  0  0  0  0  0  0
    8.1906    9.4352   -6.9319 H   0  0  0  0  0  0  0  0  0  0  0  0
    8.5080   11.1762   -6.9821 H   0  0  0  0  0  0  0  0  0  0  0  0
    9.0888   14.4320  -10.3737 H   0  0  0  0  0  0  0  0  0  0  0  0
   16.8477   23.1811   -6.4043 H   0  0  0  0  0  0  0  0  0  0  0  0
   15.4596   24.2048   -6.8606 H   0  0  0  0  0  0  0  0  0  0  0  0
   10.0748   17.6036   -9.3799 H   0  0  0  0  0  0  0  0  0  0  0  0
  1  4  1  0
  1 34  1  0
  2  4  1  0
  2 25  1  0
  3 26  1  0
  3 29  1  0
  3 30  2  0
  4 29  1  0
  5  6  1  0
  5  7  1  0
  5 26  1  0
  6 14  1  0
  6 31  1  0
  7  8  1  0
  8  9  2  0
  8 10  1  0
  9 11  1  0
 10 12  2  0
 11 13  2  0
 12 13  1  0
 14 27  1  0
 15 16  1  0
 15 27  1  0
 16 23  1  0
 16 24  1  0
 17 18  2  0
 17 22  1  0
 17 35  1  0
 18 19  1  0
 19 20  2  0
 20 21  1  0
 20 28  1  0
 21 22  2  0
 25 34  1  0
 35 27  1  6
 32 35  2  0
 33 35  2  0
  1 36  1  0
  1 37  1  0
  2 38  1  0
  2 39  1  0
  4 40  1  6
  5 41  1  6
  6 42  1  1
  7 43  1  0
  7 44  1  0
  9 45  1  0
 10 46  1  0
 11 47  1  0
 12 48  1  0
 13 49  1  0
 14 50  1  0
 14 51  1  0
 15 52  1  0
 15 53  1  0
 16 54  1  6
 18 55  1  0
 19 56  1  0
 21 57  1  0
 22 58  1  0
 23 59  1  0
 23 60  1  0
 23 61  1  0
 24 62  1  0
 24 63  1  0
 24 64  1  0
 25 65  1  0
 25 66  1  0
 26 67  1  0
 28 68  1  0
 28 69  1  0
 31 70  1  0
M  END
>  <filename_input>  (4) 
6XCT_478_docked.sdf

>  <pdb_id>  (4) 
6XCT_478

>  <pose_rank>  (4) 
3

>  <num_atoms_heavy>  (4) 
35

>  <num_torsions>  (4) 
12

>  <pose>  (4) 
[11.321404551674139, 16.14266396077416, -9.904109012595697, -1.9951387305278854, 1.3933717062198636, 5.4234422789861, -0.1689323204874544, -5.867465808530025, -0.8177908515918969, -1.1087737099339097, 12.262324681358194, 6.8396955826426185, -8.446475495155443, -6.956766397537865, -18.032248626484296, 2.986813038566722, 4.012761533980624, -1.354202754651407]

>  <energy>  (4) 
-814.863901785821

>  <inter_energy>  (4) 
-850.6039276903642

>  <intra_energy>  (4) 
22.336271181804257

>  <rmsd>  (4) 
3.10864

>  <sdf_rank>  (4) 
0

$$$$

     RDKit          3D

 70 72  0  0  0  0  0  0  0  0999 V2000
   18.5504   19.0259  -13.4661 C   0  0  0  0  0  0  0  0  0  0  0  0
   17.8634   21.0857  -14.3612 C   0  0  0  0  0  0  0  0  0  0  0  0
   16.1218   19.0484  -11.8246 C   0  0  0  0  0  0  0  0  0  0  0  0
   17.2561   19.8367  -13.6867 C   0  0  2  0  0  0  0  0  0  0  0  0
   14.0782   17.7221  -11.8846 C   0  0  2  0  0  0  0  0  0  0  0  0
   13.6747   16.8822  -13.1063 C   0  0  1  0  0  0  0  0  0  0  0  0
   12.8874   18.2454  -11.0668 C   0  0  0  0  0  0  0  0  0  0  0  0
   13.3078   18.6677   -9.6721 C   0  0  0  0  0  0  0  0  0  0  0  0
   14.6266   18.5485   -9.2620 C   0  0  0  0  0  0  0  0  0  0  0  0
   12.3866   19.1939   -8.7776 C   0  0  0  0  0  0  0  0  0  0  0  0
   15.0183   18.9445   -7.9918 C   0  0  0  0  0  0  0  0  0  0  0  0
   12.7806   19.5938   -7.5093 C   0  0  0  0  0  0  0  0  0  0  0  0
   14.0941   19.4713   -7.1211 C   0  0  0  0  0  0  0  0  0  0  0  0
   12.1713   16.6890  -13.1625 C   0  0  0  0  0  0  0  0  0  0  0  0
   11.9948   14.9772  -11.3830 C   0  0  0  0  0  0  0  0  0  0  0  0
   11.7297   16.0368  -10.3342 C   0  0  2  0  0  0  0  0  0  0  0  0
   11.3781   12.6638  -13.0271 C   0  0  0  0  0  0  0  0  0  0  0  0
   10.5553   12.6233  -11.9075 C   0  0  0  0  0  0  0  0  0  0  0  0
   10.3603   11.4229  -11.2485 C   0  0  0  0  0  0  0  0  0  0  0  0
   10.9721   10.2438  -11.7021 C   0  0  0  0  0  0  0  0  0  0  0  0
   11.7877   10.3041  -12.8390 C   0  0  0  0  0  0  0  0  0  0  0  0
   11.9932   11.5044  -13.4919 C   0  0  0  0  0  0  0  0  0  0  0  0
   12.8468   16.2498   -9.3648 C   0  0  0  0  0  0  0  0  0  0  0  0
   10.4408   15.6191   -9.5950 C   0  0  0  0  0  0  0  0  0  0  0  0
   19.0437   21.3233  -13.4408 C   0  0  0  0  0  0  0  0  0  0  0  0
   14.9074   18.8363  -12.3237 N   0  0  0  0  0  0  0  0  0  0  0  0
   11.6717   15.3683  -12.7632 N   0  0  0  0  0  0  0  0  0  0  0  0
   10.7749    9.0474  -11.0456 N   0  0  0  0  0  0  0  0  0  0  0  0
   16.6769   20.1362  -12.4389 O   0  0  0  0  0  0  0  0  0  0  0  0
   16.6654   18.4006  -10.9383 O   0  0  0  0  0  0  0  0  0  0  0  0
   14.0540   17.5254  -14.3239 O   0  0  0  0  0  0  0  0  0  0  0  0
   12.9166   14.1403  -14.5145 O   0  0  0  0  0  0  0  0  0  0  0  0
   10.4781   14.4434  -14.6820 O   0  0  0  0  0  0  0  0  0  0  0  0
   19.5275   20.0150  -13.0736 O   0  0  0  0  0  0  0  0  0  0  0  0
   11.6350   14.1852  -13.8848 S   0  0  1  0  0  0  0  0  0  0  0  0
   18.4114   18.2784  -12.6712 H   0  0  0  0  0  0  0  0  0  0  0  0
   18.8546   18.4669  -14.3633 H   0  0  0  0  0  0  0  0  0  0  0  0
   18.1837   20.8791  -15.3931 H   0  0  0  0  0  0  0  0  0  0  0  0
   17.1767   21.9382  -14.4689 H   0  0  0  0  0  0  0  0  0  0  0  0
   16.4552   19.3524  -14.2647 H   0  0  0  0  0  0  0  0  0  0  0  0
   14.6369   17.0553  -11.2114 H   0  0  0  0  0  0  0  0  0  0  0  0
   14.1893   15.9157  -13.0015 H   0  0  0  0  0  0  0  0  0  0  0  0
   12.4518   19.1120  -11.5857 H   0  0  0  0  0  0  0  0  0  0  0  0
   12.1523   17.4326  -10.9722 H   0  0  0  0  0  0  0  0  0  0  0  0
   15.3738   18.1336   -9.9544 H   0  0  0  0  0  0  0  0  0  0  0  0
   11.3331   19.2949   -9.0775 H   0  0  0  0  0  0  0  0  0  0  0  0
   16.0681   18.8371   -7.6812 H   0  0  0  0  0  0  0  0  0  0  0  0
   12.0395   20.0106   -6.8113 H   0  0  0  0  0  0  0  0  0  0  0  0
   14.4044   19.7941   -6.1164 H   0  0  0  0  0  0  0  0  0  0  0  0
   11.7120   17.4362  -12.4985 H   0  0  0  0  0  0  0  0  0  0  0  0
   11.9003   16.7976  -14.2230 H   0  0  0  0  0  0  0  0  0  0  0  0
   13.0633   14.7192  -11.3436 H   0  0  0  0  0  0  0  0  0  0  0  0
   11.3302   14.1348  -11.1409 H   0  0  0  0  0  0  0  0  0  0  0  0
   11.6271   17.0063  -10.8436 H   0  0  0  0  0  0  0  0  0  0  0  0
   10.0630   13.5390  -11.5482 H   0  0  0  0  0  0  0  0  0  0  0  0
    9.7171   11.3919  -10.3567 H   0  0  0  0  0  0  0  0  0  0  0  0
   12.2683    9.3889  -13.2150 H   0  0  0  0  0  0  0  0  0  0  0  0
   12.6428   11.5440  -14.3787 H   0  0  0  0  0  0  0  0  0  0  0  0
   12.4601   16.1761   -8.3377 H   0  0  0  0  0  0  0  0  0  0  0  0
   13.6195   15.4828   -9.5216 H   0  0  0  0  0  0  0  0  0  0  0  0
   13.2831   17.2473   -9.5216 H   0  0  0  0  0  0  0  0  0  0  0  0
   10.6071   15.6730   -8.5090 H   0  0  0  0  0  0  0  0  0  0  0  0
    9.6215   16.2977   -9.8746 H   0  0  0  0  0  0  0  0  0  0  0  0
   10.1752   14.5889   -9.8746 H   0  0  0  0  0  0  0  0  0  0  0  0
   19.8290   21.8889  -13.9636 H   0  0  0  0  0  0  0  0  0  0  0  0
   18.7548   21.9102  -12.5564 H   0  0  0  0  0  0  0  0  0  0  0  0
   14.5427   19.4786  -13.0415 H   0  0  0  0  0  0  0  0  0  0  0  0
   11.2302    8.1900  -11.3898 H   0  0  0  0  0  0  0  0  0  0  0  0
   10.1723    9.0110  -10.2111 H   0  0  0  0  0  0  0  0  0  0  0  0
   14.5459   18.3594  -14.1172 H   0  0  0  0  0  0  0  0  0  0  0  0
  1  4  1  0
  1 34  1  0
  2  4  1  0
  2 25  1  0
  3 26  1  0
  3 29  1  0
  3 30  2  0
  4 29  1  0
  5  6  1  0
  5  7  1  0
  5 26  1  0
  6 14  1  0
  6 31  1  0
  7  8  1  0
  8  9  2  0
  8 10  1  0
  9 11  1  0
 10 12  2  0
 11 13  2  0
 12 13  1  0
 14 27  1  0
 15 16  1  0
 15 27  1  0
 16 23  1  0
 16 24  1  0
 17 18  2  0
 17 22  1  0
 17 35  1  0
 18 19  1  0
 19 20  2  0
 20 21  1  0
 20 28  1  0
 21 22  2  0
 25 34  1  0
 35 27  1  1
 32 35  2  0
 33 35  2  0
  1 36  1  0
  1 37  1  0
  2 38  1  0
  2 39  1  0
  4 40  1  6
  5 41  1  1
  6 42  1  1
  7 43  1  0
  7 44  1  0
  9 45  1  0
 10 46  1  0
 11 47  1  0
 12 48  1  0
 13 49  1  0
 14 50  1  0
 14 51  1  0
 15 52  1  0
 15 53  1  0
 16 54  1  6
 18 55  1  0
 19 56  1  0
 21 57  1  0
 22 58  1  0
 23 59  1  0
 23 60  1  0
 23 61  1  0
 24 62  1  0
 24 63  1  0
 24 64  1  0
 25 65  1  0
 25 66  1  0
 26 67  1  0
 28 68  1  0
 28 69  1  0
 31 70  1  0
M  END
>  <filename_input>  (5) 
6XCT_478_docked.sdf

>  <pdb_id>  (5) 
6XCT_478

>  <pose_rank>  (5) 
4

>  <num_atoms_heavy>  (5) 
35

>  <num_torsions>  (5) 
12

>  <pose>  (5) 
[13.674714951995863, 16.882192320672548, -13.106312281468556, -1.159832694874739, 2.216080441860668, -2.19572397954975, -5.1072792872972395, 6.427648088527275, 1.6770053221218502, 0.3459517786786451, 5.9963599920570365, 1.4261814558643413, -6.764299301190819, -41.00729396344792, -36.69239474180067, -4.19076745250839, -0.9209064608559142, 4.515322365696174]

>  <energy>  (5) 
-335.03068432526175

>  <inter_energy>  (5) 
-666.4034580455441

>  <intra_energy>  (5) 
323.95571905707527

>  <rmsd>  (5) 
8.88024

>  <sdf_rank>  (5) 
0

$$$$

     RDKit          3D

 70 72  0  0  0  0  0  0  0  0999 V2000
    8.8340   11.5360   -9.3100 C   0  0  0  0  0  0  0  0  0  0  0  0
   10.6527   11.3996   -7.8304 C   0  0  0  0  0  0  0  0  0  0  0  0
    9.7286   14.6436   -9.1508 C   0  0  0  0  0  0  0  0  0  0  0  0
   10.0624   12.3653   -8.8804 C   0  0  2  0  0  0  0  0  0  0  0  0
   11.4115   15.8317  -10.4529 C   0  0  2  0  0  0  0  0  0  0  0  0
   11.3450   17.1938   -9.7451 C   0  0  1  0  0  0  0  0  0  0  0  0
   10.5704   15.7540  -11.7364 C   0  0  0  0  0  0  0  0  0  0  0  0
   11.3573   15.1560  -12.8867 C   0  0  0  0  0  0  0  0  0  0  0  0
   11.3961   15.7837  -14.1221 C   0  0  0  0  0  0  0  0  0  0  0  0
   12.0664   13.9737  -12.7279 C   0  0  0  0  0  0  0  0  0  0  0  0
   12.1240   15.2470  -15.1736 C   0  0  0  0  0  0  0  0  0  0  0  0
   12.7977   13.4406  -13.7790 C   0  0  0  0  0  0  0  0  0  0  0  0
   12.8273   14.0792  -14.9965 C   0  0  0  0  0  0  0  0  0  0  0  0
   12.6177   17.9877   -9.9701 C   0  0  0  0  0  0  0  0  0  0  0  0
   13.3176   18.0876   -7.5978 C   0  0  0  0  0  0  0  0  0  0  0  0
   14.2735   17.5630   -6.5471 C   0  0  2  0  0  0  0  0  0  0  0  0
   15.1926   18.4515  -11.1720 C   0  0  0  0  0  0  0  0  0  0  0  0
   16.0743   19.3759  -11.7199 C   0  0  0  0  0  0  0  0  0  0  0  0
   16.0426   19.6243  -13.0803 C   0  0  0  0  0  0  0  0  0  0  0  0
   15.1409   18.9468  -13.9159 C   0  0  0  0  0  0  0  0  0  0  0  0
   14.2692   18.0106  -13.3457 C   0  0  0  0  0  0  0  0  0  0  0  0
   14.2912   17.7697  -11.9852 C   0  0  0  0  0  0  0  0  0  0  0  0
   14.1264   16.1082   -6.2390 C   0  0  0  0  0  0  0  0  0  0  0  0
   14.0504   18.4127   -5.2780 C   0  0  0  0  0  0  0  0  0  0  0  0
    9.3869   11.0325   -7.0823 C   0  0  0  0  0  0  0  0  0  0  0  0
   10.9969   14.7896   -9.5234 N   0  0  0  0  0  0  0  0  0  0  0  0
   13.6895   17.7868   -8.9882 N   0  0  0  0  0  0  0  0  0  0  0  0
   15.1119   19.1935  -15.2723 N   0  0  0  0  0  0  0  0  0  0  0  0
    9.6285   13.5746   -8.3047 O   0  0  0  0  0  0  0  0  0  0  0  0
    8.7887   15.3567   -9.4806 O   0  0  0  0  0  0  0  0  0  0  0  0
   10.2693   17.9866  -10.2498 O   0  0  0  0  0  0  0  0  0  0  0  0
   16.0049   16.9432   -9.2164 O   0  0  0  0  0  0  0  0  0  0  0  0
   15.5724   19.3249   -8.7620 O   0  0  0  0  0  0  0  0  0  0  0  0
    8.3471   10.9572   -8.0791 O   0  0  0  0  0  0  0  0  0  0  0  0
   15.2215   18.1169   -9.4390 S   0  0  1  0  0  0  0  0  0  0  0  0
    8.0689   12.1807   -9.7670 H   0  0  0  0  0  0  0  0  0  0  0  0
    9.0833   10.7742  -10.0633 H   0  0  0  0  0  0  0  0  0  0  0  0
   11.1209   10.5214   -8.2989 H   0  0  0  0  0  0  0  0  0  0  0  0
   11.4565   11.8209   -7.2088 H   0  0  0  0  0  0  0  0  0  0  0  0
   10.7667   12.6619   -9.6716 H   0  0  0  0  0  0  0  0  0  0  0  0
   12.4558   15.6879  -10.7672 H   0  0  0  0  0  0  0  0  0  0  0  0
   11.2012   16.9806   -8.6756 H   0  0  0  0  0  0  0  0  0  0  0  0
    9.6861   15.1283  -11.5458 H   0  0  0  0  0  0  0  0  0  0  0  0
   10.2766   16.7764  -12.0165 H   0  0  0  0  0  0  0  0  0  0  0  0
   10.8410   16.7216  -14.2707 H   0  0  0  0  0  0  0  0  0  0  0  0
   12.0483   13.4540  -11.7586 H   0  0  0  0  0  0  0  0  0  0  0  0
   12.1386   15.7556  -16.1489 H   0  0  0  0  0  0  0  0  0  0  0  0
   13.3562   12.5034  -13.6381 H   0  0  0  0  0  0  0  0  0  0  0  0
   13.4123   13.6566  -15.8267 H   0  0  0  0  0  0  0  0  0  0  0  0
   13.0134   17.7140  -10.9593 H   0  0  0  0  0  0  0  0  0  0  0  0
   12.3261   19.0440   -9.8750 H   0  0  0  0  0  0  0  0  0  0  0  0
   12.3276   17.6475   -7.4074 H   0  0  0  0  0  0  0  0  0  0  0  0
   13.3358   19.1838   -7.5072 H   0  0  0  0  0  0  0  0  0  0  0  0
   15.2975   17.6528   -6.9388 H   0  0  0  0  0  0  0  0  0  0  0  0
   16.7919   19.9061  -11.0765 H   0  0  0  0  0  0  0  0  0  0  0  0
   16.7334   20.3627  -13.5132 H   0  0  0  0  0  0  0  0  0  0  0  0
   13.5617   17.4630  -13.9856 H   0  0  0  0  0  0  0  0  0  0  0  0
   13.5967   17.0393  -11.5447 H   0  0  0  0  0  0  0  0  0  0  0  0
   14.1118   15.9640   -5.1486 H   0  0  0  0  0  0  0  0  0  0  0  0
   13.1860   15.7353   -6.6708 H   0  0  0  0  0  0  0  0  0  0  0  0
   14.9731   15.5545   -6.6708 H   0  0  0  0  0  0  0  0  0  0  0  0
   14.2140   17.7897   -4.3863 H   0  0  0  0  0  0  0  0  0  0  0  0
   14.7578   19.2550   -5.2717 H   0  0  0  0  0  0  0  0  0  0  0  0
   13.0204   18.7988   -5.2717 H   0  0  0  0  0  0  0  0  0  0  0  0
    9.5070   10.0611   -6.5804 H   0  0  0  0  0  0  0  0  0  0  0  0
    9.1481   11.7727   -6.3044 H   0  0  0  0  0  0  0  0  0  0  0  0
   11.7067   14.1471   -9.1436 H   0  0  0  0  0  0  0  0  0  0  0  0
   14.4449   18.6889  -15.8734 H   0  0  0  0  0  0  0  0  0  0  0  0
   15.7573   19.8824  -15.6843 H   0  0  0  0  0  0  0  0  0  0  0  0
    9.7554   18.3654   -9.4932 H   0  0  0  0  0  0  0  0  0  0  0  0
  1  4  1  0
  1 34  1  0
  2  4  1  0
  2 25  1  0
  3 26  1  0
  3 29  1  0
  3 30  2  0
  4 29  1  0
  5  6  1  0
  5  7  1  0
  5 26  1  0
  6 14  1  0
  6 31  1  0
  7  8  1  0
  8  9  2  0
  8 10  1  0
  9 11  1  0
 10 12  2  0
 11 13  2  0
 12 13  1  0
 14 27  1  0
 15 16  1  0
 15 27  1  0
 16 23  1  0
 16 24  1  0
 17 18  2  0
 17 22  1  0
 17 35  1  0
 18 19  1  0
 19 20  2  0
 20 21  1  0
 20 28  1  0
 21 22  2  0
 25 34  1  0
 35 27  1  1
 32 35  2  0
 33 35  2  0
  1 36  1  0
  1 37  1  0
  2 38  1  0
  2 39  1  0
  4 40  1  6
  5 41  1  6
  6 42  1  1
  7 43  1  0
  7 44  1  0
  9 45  1  0
 10 46  1  0
 11 47  1  0
 12 48  1  0
 13 49  1  0
 14 50  1  0
 14 51  1  0
 15 52  1  0
 15 53  1  0
 16 54  1  6
 18 55  1  0
 19 56  1  0
 21 57  1  0
 22 58  1  0
 23 59  1  0
 23 60  1  0
 23 61  1  0
 24 62  1  0
 24 63  1  0
 24 64  1  0
 25 65  1  0
 25 66  1  0
 26 67  1  0
 28 68  1  0
 28 69  1  0
 31 70  1  0
M  END
>  <filename_input>  (6) 
6XCT_478_docked.sdf

>  <pdb_id>  (6) 
6XCT_478

>  <pose_rank>  (6) 
5

>  <num_atoms_heavy>  (6) 
35

>  <num_torsions>  (6) 
12

>  <pose>  (6) 
[11.344969601081058, 17.19384489734512, -9.745148031027954, 2.156156693939946, 4.1550123398452055, 3.934625383683128, -6.8668716495941355, 3.57238425143178, 2.0750626941941297, -0.17777828971306686, -0.7997964700380327, 5.444886066555327, -0.2279487168844575, 0.9110346365623051, 4.252290064957837, -2.2583600490488904, 7.426276218020549, -0.8303792647468821]

>  <energy>  (6) 
-770.3729991141098

>  <inter_energy>  (6) 
-853.9738422966467

>  <intra_energy>  (6) 
76.92574557731726

>  <rmsd>  (6) 
2.28969

>  <sdf_rank>  (6) 
0

$$$$

     RDKit          3D

 70 72  0  0  0  0  0  0  0  0999 V2000
   11.0680   11.9719  -13.0487 C   0  0  0  0  0  0  0  0  0  0  0  0
   11.7160   13.5779  -14.6350 C   0  0  0  0  0  0  0  0  0  0  0  0
   11.7662   15.2131  -11.7376 C   0  0  0  0  0  0  0  0  0  0  0  0
   11.1772   13.5046  -13.1900 C   0  0  2  0  0  0  0  0  0  0  0  0
   12.7709   17.0486  -10.4883 C   0  0  2  0  0  0  0  0  0  0  0  0
   14.1739   17.6739  -10.5215 C   0  0  1  0  0  0  0  0  0  0  0  0
   12.1711   16.9368   -9.0782 C   0  0  0  0  0  0  0  0  0  0  0  0
   13.0225   17.6546   -8.0486 C   0  0  0  0  0  0  0  0  0  0  0  0
   14.1231   17.0325   -7.4798 C   0  0  0  0  0  0  0  0  0  0  0  0
   12.7283   18.9538   -7.6596 C   0  0  0  0  0  0  0  0  0  0  0  0
   14.9118   17.6890   -6.5467 C   0  0  0  0  0  0  0  0  0  0  0  0
   13.5206   19.6107   -6.7299 C   0  0  0  0  0  0  0  0  0  0  0  0
   14.6106   18.9789   -6.1789 C   0  0  0  0  0  0  0  0  0  0  0  0
   14.7172   17.7189  -11.9370 C   0  0  0  0  0  0  0  0  0  0  0  0
   15.8857   19.8406  -11.4263 C   0  0  0  0  0  0  0  0  0  0  0  0
   16.6576   19.8509  -10.1236 C   0  0  2  0  0  0  0  0  0  0  0  0
   17.9136   19.7265  -13.5851 C   0  0  0  0  0  0  0  0  0  0  0  0
   17.6520   21.0691  -13.8323 C   0  0  0  0  0  0  0  0  0  0  0  0
   18.6893   21.9834  -13.7949 C   0  0  0  0  0  0  0  0  0  0  0  0
   19.9994   21.5755  -13.4991 C   0  0  0  0  0  0  0  0  0  0  0  0
   20.2395   20.2201  -13.2414 C   0  0  0  0  0  0  0  0  0  0  0  0
   19.2068   19.3033  -13.2898 C   0  0  0  0  0  0  0  0  0  0  0  0
   15.8942   20.3709   -8.9489 C   0  0  0  0  0  0  0  0  0  0  0  0
   17.9265   20.6959  -10.3645 C   0  0  0  0  0  0  0  0  0  0  0  0
   12.7840   12.5050  -14.5630 C   0  0  0  0  0  0  0  0  0  0  0  0
   12.8189   15.7338  -11.1135 N   0  0  0  0  0  0  0  0  0  0  0  0
   15.8992   18.5615  -12.1515 N   0  0  0  0  0  0  0  0  0  0  0  0
   21.0322   22.4884  -13.4598 N   0  0  0  0  0  0  0  0  0  0  0  0
   12.1063   13.9929  -12.2518 O   0  0  0  0  0  0  0  0  0  0  0  0
   10.6534   15.7172  -11.8275 O   0  0  0  0  0  0  0  0  0  0  0  0
   14.1512   19.0203  -10.0451 O   0  0  0  0  0  0  0  0  0  0  0  0
   15.6299   18.9773  -14.5763 O   0  0  0  0  0  0  0  0  0  0  0  0
   17.1814   17.2469  -13.7609 O   0  0  0  0  0  0  0  0  0  0  0  0
   12.2452   11.4680  -13.7177 O   0  0  0  0  0  0  0  0  0  0  0  0
   16.6022   18.5454  -13.6228 S   0  0  1  0  0  0  0  0  0  0  0  0
   11.0657   11.6773  -11.9889 H   0  0  0  0  0  0  0  0  0  0  0  0
   10.1370   11.5750  -13.4795 H   0  0  0  0  0  0  0  0  0  0  0  0
   10.9394   13.3338  -15.3747 H   0  0  0  0  0  0  0  0  0  0  0  0
   12.0717   14.5698  -14.9506 H   0  0  0  0  0  0  0  0  0  0  0  0
   10.2617   14.0891  -13.0164 H   0  0  0  0  0  0  0  0  0  0  0  0
   12.1078   17.7268  -11.0454 H   0  0  0  0  0  0  0  0  0  0  0  0
   14.8084   17.0457   -9.8791 H   0  0  0  0  0  0  0  0  0  0  0  0
   11.1653   17.3821   -9.0821 H   0  0  0  0  0  0  0  0  0  0  0  0
   12.1293   15.8717   -8.8065 H   0  0  0  0  0  0  0  0  0  0  0  0
   14.3747   16.0026   -7.7729 H   0  0  0  0  0  0  0  0  0  0  0  0
   11.8578   19.4679   -8.0931 H   0  0  0  0  0  0  0  0  0  0  0  0
   15.7779   17.1778   -6.1013 H   0  0  0  0  0  0  0  0  0  0  0  0
   13.2761   20.6410   -6.4321 H   0  0  0  0  0  0  0  0  0  0  0  0
   15.2400   19.5043   -5.4455 H   0  0  0  0  0  0  0  0  0  0  0  0
   14.9805   16.6913  -12.2280 H   0  0  0  0  0  0  0  0  0  0  0  0
   13.9193   18.1715  -12.5440 H   0  0  0  0  0  0  0  0  0  0  0  0
   14.8388   20.0945  -11.2036 H   0  0  0  0  0  0  0  0  0  0  0  0
   16.3843   20.5690  -12.0825 H   0  0  0  0  0  0  0  0  0  0  0  0
   16.8902   18.8102   -9.8539 H   0  0  0  0  0  0  0  0  0  0  0  0
   16.6277   21.4021  -14.0559 H   0  0  0  0  0  0  0  0  0  0  0  0
   18.4848   23.0446  -13.9999 H   0  0  0  0  0  0  0  0  0  0  0  0
   21.2580   19.8827  -12.9986 H   0  0  0  0  0  0  0  0  0  0  0  0
   19.4063   18.2392  -13.0949 H   0  0  0  0  0  0  0  0  0  0  0  0
   16.3807   20.0396   -8.0196 H   0  0  0  0  0  0  0  0  0  0  0  0
   15.8755   21.4702   -8.9812 H   0  0  0  0  0  0  0  0  0  0  0  0
   14.8644   19.9856   -8.9812 H   0  0  0  0  0  0  0  0  0  0  0  0
   18.3626   20.9864   -9.3973 H   0  0  0  0  0  0  0  0  0  0  0  0
   18.6584   20.1043  -10.9339 H   0  0  0  0  0  0  0  0  0  0  0  0
   17.6627   21.5994  -10.9339 H   0  0  0  0  0  0  0  0  0  0  0  0
   12.9966   12.1087  -15.5668 H   0  0  0  0  0  0  0  0  0  0  0  0
   13.7290   12.9017  -14.1635 H   0  0  0  0  0  0  0  0  0  0  0  0
   13.6936   15.1915  -11.0709 H   0  0  0  0  0  0  0  0  0  0  0  0
   21.9887   22.1748  -13.2413 H   0  0  0  0  0  0  0  0  0  0  0  0
   20.8472   23.4838  -13.6489 H   0  0  0  0  0  0  0  0  0  0  0  0
   14.1512   19.0200   -9.0551 H   0  0  0  0  0  0  0  0  0  0  0  0
  1  4  1  0
  1 34  1  0
  2  4  1  0
  2 25  1  0
  3 26  1  0
  3 29  1  0
  3 30  2  0
  4 29  1  0
  5  6  1  0
  5  7  1  0
  5 26  1  0
  6 14  1  0
  6 31  1  0
  7  8  1  0
  8  9  2  0
  8 10  1  0
  9 11  1  0
 10 12  2  0
 11 13  2  0
 12 13  1  0
 14 27  1  0
 15 16  1  0
 15 27  1  0
 16 23  1  0
 16 24  1  0
 17 18  2  0
 17 22  1  0
 17 35  1  0
 18 19  1  0
 19 20  2  0
 20 21  1  0
 20 28  1  0
 21 22  2  0
 25 34  1  0
 35 27  1  1
 32 35  2  0
 33 35  2  0
  1 36  1  0
  1 37  1  0
  2 38  1  0
  2 39  1  0
  4 40  1  6
  5 41  1  6
  6 42  1  1
  7 43  1  0
  7 44  1  0
  9 45  1  0
 10 46  1  0
 11 47  1  0
 12 48  1  0
 13 49  1  0
 14 50  1  0
 14 51  1  0
 15 52  1  0
 15 53  1  0
 16 54  1  1
 18 55  1  0
 19 56  1  0
 21 57  1  0
 22 58  1  0
 23 59  1  0
 23 60  1  0
 23 61  1  0
 24 62  1  0
 24 63  1  0
 24 64  1  0
 25 65  1  0
 25 66  1  0
 26 67  1  0
 28 68  1  0
 28 69  1  0
 31 70  1  0
M  END
>  <filename_input>  (7) 
6XCT_478_docked.sdf

>  <pdb_id>  (7) 
6XCT_478

>  <pose_rank>  (7) 
6

>  <num_atoms_heavy>  (7) 
35

>  <num_torsions>  (7) 
12

>  <pose>  (7) 
[14.173909394731274, 17.673910709664664, -10.521510703314313, -0.012833044745032076, -3.7867811341099844, 3.082018398047136, -1.9246475785181254, -0.3145579215184675, 0.21398389338894036, -0.9213370012593858, -2.965641093586926, -0.020844422859483326, -2.040424885089484, 1.2253629178039076, 1.182154436403669, -0.01379571331049655, -0.03545382620121193, -1.7033864228850444]

>  <energy>  (7) 
-573.0566735222617

>  <inter_energy>  (7) 
-800.603840364768

>  <intra_energy>  (7) 
225.80197932494258

>  <rmsd>  (7) 
5.23632

>  <sdf_rank>  (7) 
0

$$$$

     RDKit          3D

 70 72  0  0  0  0  0  0  0  0999 V2000
   10.9684   14.1283  -13.4269 C   0  0  0  0  0  0  0  0  0  0  0  0
   12.4578   12.5964  -12.4517 C   0  0  0  0  0  0  0  0  0  0  0  0
   11.3507   15.6801  -10.7905 C   0  0  0  0  0  0  0  0  0  0  0  0
   12.0389   14.0763  -12.3168 C   0  0  2  0  0  0  0  0  0  0  0  0
   12.5655   17.3970   -9.5593 C   0  0  2  0  0  0  0  0  0  0  0  0
   12.9617   18.2667  -10.7623 C   0  0  1  0  0  0  0  0  0  0  0  0
   13.5782   17.4313   -8.4043 C   0  0  0  0  0  0  0  0  0  0  0  0
   13.5300   18.7495   -7.6558 C   0  0  0  0  0  0  0  0  0  0  0  0
   14.5974   19.1600   -6.8722 C   0  0  0  0  0  0  0  0  0  0  0  0
   12.4230   19.5815   -7.7460 C   0  0  0  0  0  0  0  0  0  0  0  0
   14.5630   20.3701   -6.1954 C   0  0  0  0  0  0  0  0  0  0  0  0
   12.3919   20.7935   -7.0724 C   0  0  0  0  0  0  0  0  0  0  0  0
   13.4616   21.1858   -6.3024 C   0  0  0  0  0  0  0  0  0  0  0  0
   14.1980   17.7174  -11.4484 C   0  0  0  0  0  0  0  0  0  0  0  0
   15.6458   18.5188  -13.2893 C   0  0  0  0  0  0  0  0  0  0  0  0
   14.8521   19.2597  -14.3449 C   0  0  2  0  0  0  0  0  0  0  0  0
   17.4239   20.2556  -11.7291 C   0  0  0  0  0  0  0  0  0  0  0  0
   18.5791   19.6682  -12.2319 C   0  0  0  0  0  0  0  0  0  0  0  0
   19.4834   20.4399  -12.9392 C   0  0  0  0  0  0  0  0  0  0  0  0
   19.2443   21.8043  -13.1662 C   0  0  0  0  0  0  0  0  0  0  0  0
   18.0687   22.3739  -12.6614 C   0  0  0  0  0  0  0  0  0  0  0  0
   17.1697   21.6075  -11.9444 C   0  0  0  0  0  0  0  0  0  0  0  0
   13.8957   18.4107  -15.1180 C   0  0  0  0  0  0  0  0  0  0  0  0
   15.8771   19.9221  -15.2897 C   0  0  0  0  0  0  0  0  0  0  0  0
   11.0892   11.9525  -12.5475 C   0  0  0  0  0  0  0  0  0  0  0  0
   12.3681   16.0247  -10.0063 N   0  0  0  0  0  0  0  0  0  0  0  0
   15.1787   18.7074  -11.9079 N   0  0  0  0  0  0  0  0  0  0  0  0
   20.1454   22.5718  -13.8735 N   0  0  0  0  0  0  0  0  0  0  0  0
   11.4337   14.3454  -11.0745 O   0  0  0  0  0  0  0  0  0  0  0  0
   10.4569   16.4185  -11.1860 O   0  0  0  0  0  0  0  0  0  0  0  0
   11.9239   18.2960  -11.7431 O   0  0  0  0  0  0  0  0  0  0  0  0
   16.9385   18.1718  -10.2523 O   0  0  0  0  0  0  0  0  0  0  0  0
   15.5164   20.1639   -9.9774 O   0  0  0  0  0  0  0  0  0  0  0  0
   10.2764   12.8652  -13.3134 O   0  0  0  0  0  0  0  0  0  0  0  0
   16.2553   19.2863  -10.8286 S   0  0  1  0  0  0  0  0  0  0  0  0
   10.2769   14.9678  -13.2627 H   0  0  0  0  0  0  0  0  0  0  0  0
   11.4047   14.2807  -14.4252 H   0  0  0  0  0  0  0  0  0  0  0  0
   13.0572   12.4213  -13.3572 H   0  0  0  0  0  0  0  0  0  0  0  0
   13.0965   12.2165  -11.6407 H   0  0  0  0  0  0  0  0  0  0  0  0
   12.8707   14.7924  -12.3905 H   0  0  0  0  0  0  0  0  0  0  0  0
   11.6332   17.8188   -9.1559 H   0  0  0  0  0  0  0  0  0  0  0  0
   13.1502   19.2756  -10.3665 H   0  0  0  0  0  0  0  0  0  0  0  0
   13.3481   16.6150   -7.7039 H   0  0  0  0  0  0  0  0  0  0  0  0
   14.5864   17.3142   -8.8284 H   0  0  0  0  0  0  0  0  0  0  0  0
   15.4850   18.5161   -6.7859 H   0  0  0  0  0  0  0  0  0  0  0  0
   11.5614   19.2766   -8.3581 H   0  0  0  0  0  0  0  0  0  0  0  0
   15.4167   20.6770   -5.5733 H   0  0  0  0  0  0  0  0  0  0  0  0
   11.5082   21.4434   -7.1543 H   0  0  0  0  0  0  0  0  0  0  0  0
   13.4361   22.1499   -5.7734 H   0  0  0  0  0  0  0  0  0  0  0  0
   14.7053   17.0469  -10.7391 H   0  0  0  0  0  0  0  0  0  0  0  0
   13.8325   17.2208  -12.3594 H   0  0  0  0  0  0  0  0  0  0  0  0
   15.5997   17.4444  -13.5205 H   0  0  0  0  0  0  0  0  0  0  0  0
   16.6643   18.9328  -13.3265 H   0  0  0  0  0  0  0  0  0  0  0  0
   14.2100   19.9953  -13.8384 H   0  0  0  0  0  0  0  0  0  0  0  0
   18.7727   18.5978  -12.0685 H   0  0  0  0  0  0  0  0  0  0  0  0
   20.4024   19.9779  -13.3291 H   0  0  0  0  0  0  0  0  0  0  0  0
   17.8593   23.4394  -12.8369 H   0  0  0  0  0  0  0  0  0  0  0  0
   16.2533   22.0655  -11.5439 H   0  0  0  0  0  0  0  0  0  0  0  0
   13.2597   17.8463  -14.4201 H   0  0  0  0  0  0  0  0  0  0  0  0
   13.2654   19.0522  -15.7514 H   0  0  0  0  0  0  0  0  0  0  0  0
   14.4578   17.7088  -15.7514 H   0  0  0  0  0  0  0  0  0  0  0  0
   16.6538   20.4240  -14.6940 H   0  0  0  0  0  0  0  0  0  0  0  0
   16.3415   19.1528  -15.9242 H   0  0  0  0  0  0  0  0  0  0  0  0
   15.3665   20.6615  -15.9242 H   0  0  0  0  0  0  0  0  0  0  0  0
   11.1584   10.9807  -13.0582 H   0  0  0  0  0  0  0  0  0  0  0  0
   10.6595   11.7664  -11.5522 H   0  0  0  0  0  0  0  0  0  0  0  0
   13.0359   15.3001   -9.7063 H   0  0  0  0  0  0  0  0  0  0  0  0
   19.9569   23.5718  -14.0324 H   0  0  0  0  0  0  0  0  0  0  0  0
   21.0070   22.1450  -14.2429 H   0  0  0  0  0  0  0  0  0  0  0  0
   11.0434   18.3209  -11.2913 H   0  0  0  0  0  0  0  0  0  0  0  0
  1  4  1  0
  1 34  1  0
  2  4  1  0
  2 25  1  0
  3 26  1  0
  3 29  1  0
  3 30  2  0
  4 29  1  0
  5  6  1  0
  5  7  1  0
  5 26  1  0
  6 14  1  0
  6 31  1  0
  7  8  1  0
  8  9  2  0
  8 10  1  0
  9 11  1  0
 10 12  2  0
 11 13  2  0
 12 13  1  0
 14 27  1  0
 15 16  1  0
 15 27  1  0
 16 23  1  0
 16 24  1  0
 17 18  2  0
 17 22  1  0
 17 35  1  0
 18 19  1  0
 19 20  2  0
 20 21  1  0
 20 28  1  0
 21 22  2  0
 25 34  1  0
 35 27  1  6
 32 35  2  0
 33 35  2  0
  1 36  1  0
  1 37  1  0
  2 38  1  0
  2 39  1  0
  4 40  1  6
  5 41  1  1
  6 42  1  1
  7 43  1  0
  7 44  1  0
  9 45  1  0
 10 46  1  0
 11 47  1  0
 12 48  1  0
 13 49  1  0
 14 50  1  0
 14 51  1  0
 15 52  1  0
 15 53  1  0
 16 54  1  1
 18 55  1  0
 19 56  1  0
 21 57  1  0
 22 58  1  0
 23 59  1  0
 23 60  1  0
 23 61  1  0
 24 62  1  0
 24 63  1  0
 24 64  1  0
 25 65  1  0
 25 66  1  0
 26 67  1  0
 28 68  1  0
 28 69  1  0
 31 70  1  0
M  END
>  <filename_input>  (8) 
6XCT_478_docked.sdf

>  <pdb_id>  (8) 
6XCT_478

>  <pose_rank>  (8) 
7

>  <num_atoms_heavy>  (8) 
35

>  <num_torsions>  (8) 
12

>  <pose>  (8) 
[12.961742611596147, 18.26671800445281, -10.762294647406188, -1.4694111769053593, 0.009640427386736244, -0.38486194908930965, 8.693636661841646, 13.681007758448564, 20.258511323338862, 6.374223951552562, -1.8335407223434532, -1.3544722962565416, -13.670164679302642, -6.663160011883703, 13.669210529823983, -6.405484380708207, -0.14632487026171972, -1.2407402948835047]

>  <energy>  (8) 
-711.2394762729809

>  <inter_energy>  (8) 
-768.229183096454

>  <intra_energy>  (8) 
76.05375727505962

>  <rmsd>  (8) 
5.58094

>  <sdf_rank>  (8) 
0

$$$$

     RDKit          3D

 70 72  0  0  0  0  0  0  0  0999 V2000
    9.7022   11.7050   -8.0661 C   0  0  0  0  0  0  0  0  0  0  0  0
    8.0427   10.9342   -9.5383 C   0  0  0  0  0  0  0  0  0  0  0  0
   11.4559   11.3746  -10.7204 C   0  0  0  0  0  0  0  0  0  0  0  0
    9.4461   11.5762   -9.5823 C   0  0  2  0  0  0  0  0  0  0  0  0
   12.1743   13.6509  -11.2118 C   0  0  2  0  0  0  0  0  0  0  0  0
   12.0543   14.9559  -10.4098 C   0  0  1  0  0  0  0  0  0  0  0  0
   11.9749   13.8283  -12.7249 C   0  0  0  0  0  0  0  0  0  0  0  0
   12.2682   12.5477  -13.4826 C   0  0  0  0  0  0  0  0  0  0  0  0
   11.2437   11.6867  -13.8444 C   0  0  0  0  0  0  0  0  0  0  0  0
   13.5659   12.2124  -13.8423 C   0  0  0  0  0  0  0  0  0  0  0  0
   11.5054   10.5204  -14.5478 C   0  0  0  0  0  0  0  0  0  0  0  0
   13.8257   11.0480  -14.5498 C   0  0  0  0  0  0  0  0  0  0  0  0
   12.7961   10.2077  -14.9031 C   0  0  0  0  0  0  0  0  0  0  0  0
   13.2021   15.8964  -10.7242 C   0  0  0  0  0  0  0  0  0  0  0  0
   12.8019   16.7430   -8.4328 C   0  0  0  0  0  0  0  0  0  0  0  0
   13.1709   17.7421   -7.3563 C   0  0  2  0  0  0  0  0  0  0  0  0
   15.1579   18.4365  -11.2706 C   0  0  0  0  0  0  0  0  0  0  0  0
   15.0104   18.3495  -12.6501 C   0  0  0  0  0  0  0  0  0  0  0  0
   16.1344   18.3405  -13.4562 C   0  0  0  0  0  0  0  0  0  0  0  0
   17.4204   18.4302  -12.9009 C   0  0  0  0  0  0  0  0  0  0  0  0
   17.5466   18.5292  -11.5097 C   0  0  0  0  0  0  0  0  0  0  0  0
   16.4255   18.5264  -10.7018 C   0  0  0  0  0  0  0  0  0  0  0  0
   12.4436   19.0450   -7.4372 C   0  0  0  0  0  0  0  0  0  0  0  0
   14.6950   17.9631   -7.4574 C   0  0  0  0  0  0  0  0  0  0  0  0
    8.2781    9.8810   -8.4742 C   0  0  0  0  0  0  0  0  0  0  0  0
   11.2167   12.6826  -10.6946 N   0  0  0  0  0  0  0  0  0  0  0  0
   13.4927   16.9242   -9.7181 N   0  0  0  0  0  0  0  0  0  0  0  0
   18.5400   18.4237  -13.7058 N   0  0  0  0  0  0  0  0  0  0  0  0
   10.4067   10.7141  -10.1444 O   0  0  0  0  0  0  0  0  0  0  0  0
   12.4401   10.8262  -11.2012 O   0  0  0  0  0  0  0  0  0  0  0  0
   10.8498   15.6523  -10.7326 O   0  0  0  0  0  0  0  0  0  0  0  0
   14.0255   19.2548   -9.0781 O   0  0  0  0  0  0  0  0  0  0  0  0
   12.6006   18.7802  -11.0302 O   0  0  0  0  0  0  0  0  0  0  0  0
    9.1630   10.4859   -7.5092 O   0  0  0  0  0  0  0  0  0  0  0  0
   13.7353   18.4548  -10.2256 S   0  0  1  0  0  0  0  0  0  0  0  0
   10.7794   11.7855   -7.8581 H   0  0  0  0  0  0  0  0  0  0  0  0
    9.2385   12.6050   -7.6361 H   0  0  0  0  0  0  0  0  0  0  0  0
    7.2708   11.6570   -9.2355 H   0  0  0  0  0  0  0  0  0  0  0  0
    7.6747   10.5504  -10.5013 H   0  0  0  0  0  0  0  0  0  0  0  0
    9.5052   12.4982  -10.1793 H   0  0  0  0  0  0  0  0  0  0  0  0
   13.2064   13.2930  -11.0832 H   0  0  0  0  0  0  0  0  0  0  0  0
   12.0639   14.6690   -9.3479 H   0  0  0  0  0  0  0  0  0  0  0  0
   10.9327   14.1243  -12.9150 H   0  0  0  0  0  0  0  0  0  0  0  0
   12.6742   14.6019  -13.0748 H   0  0  0  0  0  0  0  0  0  0  0  0
   10.2073   11.9322  -13.5693 H   0  0  0  0  0  0  0  0  0  0  0  0
   14.3970   12.8768  -13.5634 H   0  0  0  0  0  0  0  0  0  0  0  0
   10.6807    9.8459  -14.8213 H   0  0  0  0  0  0  0  0  0  0  0  0
   14.8592   10.7958  -14.8294 H   0  0  0  0  0  0  0  0  0  0  0  0
   13.0047    9.2876  -15.4686 H   0  0  0  0  0  0  0  0  0  0  0  0
   14.1090   15.2874  -10.8533 H   0  0  0  0  0  0  0  0  0  0  0  0
   12.8933   16.4462  -11.6255 H   0  0  0  0  0  0  0  0  0  0  0  0
   13.0384   15.7362   -8.0582 H   0  0  0  0  0  0  0  0  0  0  0  0
   11.7318   16.8955   -8.6371 H   0  0  0  0  0  0  0  0  0  0  0  0
   12.8697   17.3259   -6.3837 H   0  0  0  0  0  0  0  0  0  0  0  0
   14.0073   18.2882  -13.0974 H   0  0  0  0  0  0  0  0  0  0  0  0
   16.0189   18.2620  -14.5473 H   0  0  0  0  0  0  0  0  0  0  0  0
   18.5457   18.6096  -11.0565 H   0  0  0  0  0  0  0  0  0  0  0  0
   16.5346   18.5953   -9.6094 H   0  0  0  0  0  0  0  0  0  0  0  0
   12.2378   19.4137   -6.4215 H   0  0  0  0  0  0  0  0  0  0  0  0
   13.0631   19.7779   -7.9748 H   0  0  0  0  0  0  0  0  0  0  0  0
   11.4946   18.9024   -7.9748 H   0  0  0  0  0  0  0  0  0  0  0  0
   15.1243   18.0254   -6.4466 H   0  0  0  0  0  0  0  0  0  0  0  0
   15.1524   17.1219   -7.9988 H   0  0  0  0  0  0  0  0  0  0  0  0
   14.8946   18.8996   -7.9988 H   0  0  0  0  0  0  0  0  0  0  0  0
    7.3275    9.5990   -7.9979 H   0  0  0  0  0  0  0  0  0  0  0  0
    8.7116    8.9647   -8.9014 H   0  0  0  0  0  0  0  0  0  0  0  0
   10.3287   13.0208  -10.2973 H   0  0  0  0  0  0  0  0  0  0  0  0
   19.4776   18.4901  -13.2845 H   0  0  0  0  0  0  0  0  0  0  0  0
   18.4388   18.3522  -14.7283 H   0  0  0  0  0  0  0  0  0  0  0  0
   10.3888   15.9188   -9.8980 H   0  0  0  0  0  0  0  0  0  0  0  0
  1  4  1  0
  1 34  1  0
  2  4  1  0
  2 25  1  0
  3 26  1  0
  3 29  1  0
  3 30  2  0
  4 29  1  0
  5  6  1  0
  5  7  1  0
  5 26  1  0
  6 14  1  0
  6 31  1  0
  7  8  1  0
  8  9  2  0
  8 10  1  0
  9 11  1  0
 10 12  2  0
 11 13  2  0
 12 13  1  0
 14 27  1  0
 15 16  1  0
 15 27  1  0
 16 23  1  0
 16 24  1  0
 17 18  2  0
 17 22  1  0
 17 35  1  0
 18 19  1  0
 19 20  2  0
 20 21  1  0
 20 28  1  0
 21 22  2  0
 25 34  1  0
 35 27  1  1
 32 35  2  0
 33 35  2  0
  1 36  1  0
  1 37  1  0
  2 38  1  0
  2 39  1  0
  4 40  1  6
  5 41  1  6
  6 42  1  1
  7 43  1  0
  7 44  1  0
  9 45  1  0
 10 46  1  0
 11 47  1  0
 12 48  1  0
 13 49  1  0
 14 50  1  0
 14 51  1  0
 15 52  1  0
 15 53  1  0
 16 54  1  1
 18 55  1  0
 19 56  1  0
 21 57  1  0
 22 58  1  0
 23 59  1  0
 23 60  1  0
 23 61  1  0
 24 62  1  0
 24 63  1  0
 24 64  1  0
 25 65  1  0
 25 66  1  0
 26 67  1  0
 28 68  1  0
 28 69  1  0
 31 70  1  0
M  END
>  <filename_input>  (9) 
6XCT_478_docked.sdf

>  <pdb_id>  (9) 
6XCT_478

>  <pose_rank>  (9) 
8

>  <num_atoms_heavy>  (9) 
35

>  <num_torsions>  (9) 
12

>  <pose>  (9) 
[12.05434216225433, 14.955947578902064, -10.409752781332582, -3.201714814438373, -5.198469724617281, 1.4619442133474498, 0.06132453408140086, -0.2837094384037557, -3.272754774331616, -0.10758298785942139, -0.087412105597707, -3.1596207369746137, 4.85631198890496, -4.165279174785862, 3.3011989617220783, 3.137771533548364, 1.3282738812448907, 1.9917095125197868]

>  <energy>  (9) 
-446.03898831449993

>  <inter_energy>  (9) 
-723.1306564855431

>  <intra_energy>  (9) 
274.4373503459456

>  <rmsd>  (9) 
2.2803

>  <sdf_rank>  (9) 
0

$$$$

     RDKit          3D

 70 72  0  0  0  0  0  0  0  0999 V2000
   13.3031   19.9429   -7.2546 C   0  0  0  0  0  0  0  0  0  0  0  0
   12.5996   17.7041   -7.1622 C   0  0  0  0  0  0  0  0  0  0  0  0
   14.2332   18.4687  -10.1809 C   0  0  0  0  0  0  0  0  0  0  0  0
   13.0589   18.7493   -8.2016 C   0  0  2  0  0  0  0  0  0  0  0  0
   14.3833   17.0177  -12.1332 C   0  0  2  0  0  0  0  0  0  0  0  0
   13.2611   16.0207  -12.4606 C   0  0  1  0  0  0  0  0  0  0  0  0
   15.7730   16.5726  -12.6141 C   0  0  0  0  0  0  0  0  0  0  0  0
   16.5319   17.7122  -13.2664 C   0  0  0  0  0  0  0  0  0  0  0  0
   16.0912   19.0207  -13.1428 C   0  0  0  0  0  0  0  0  0  0  0  0
   17.6907   17.4750  -13.9921 C   0  0  0  0  0  0  0  0  0  0  0  0
   16.7883   20.0676  -13.7274 C   0  0  0  0  0  0  0  0  0  0  0  0
   18.3894   18.5233  -14.5723 C   0  0  0  0  0  0  0  0  0  0  0  0
   17.9390   19.8154  -14.4361 C   0  0  0  0  0  0  0  0  0  0  0  0
   12.0396   16.2722  -11.5971 C   0  0  0  0  0  0  0  0  0  0  0  0
   10.0337   14.8596  -11.9264 C   0  0  0  0  0  0  0  0  0  0  0  0
   10.2090   14.3542  -13.3430 C   0  0  2  0  0  0  0  0  0  0  0  0
   10.6084   13.0496   -9.4888 C   0  0  0  0  0  0  0  0  0  0  0  0
   11.2743   11.9649  -10.0477 C   0  0  0  0  0  0  0  0  0  0  0  0
   10.7237   10.7003   -9.9436 C   0  0  0  0  0  0  0  0  0  0  0  0
    9.5086   10.4961   -9.2712 C   0  0  0  0  0  0  0  0  0  0  0  0
    8.8599   11.6006   -8.7049 C   0  0  0  0  0  0  0  0  0  0  0  0
    9.4022   12.8664   -8.8179 C   0  0  0  0  0  0  0  0  0  0  0  0
    8.9373   13.9925  -14.0394 C   0  0  0  0  0  0  0  0  0  0  0  0
   11.1531   13.1356  -13.2675 C   0  0  0  0  0  0  0  0  0  0  0  0
   13.6501   17.9297   -6.0933 C   0  0  0  0  0  0  0  0  0  0  0  0
   14.4073   17.2551  -10.6961 N   0  0  0  0  0  0  0  0  0  0  0  0
   11.2823   15.0853  -11.1834 N   0  0  0  0  0  0  0  0  0  0  0  0
    8.9621    9.2346   -9.1661 N   0  0  0  0  0  0  0  0  0  0  0  0
   14.2726   18.3881   -8.8168 O   0  0  0  0  0  0  0  0  0  0  0  0
   14.0849   19.5095  -10.8096 O   0  0  0  0  0  0  0  0  0  0  0  0
   12.8388   16.1456  -13.8193 O   0  0  0  0  0  0  0  0  0  0  0  0
   10.4443   15.5783   -8.9075 O   0  0  0  0  0  0  0  0  0  0  0  0
   12.6763   14.5915   -9.2405 O   0  0  0  0  0  0  0  0  0  0  0  0
   13.9024   19.3498   -6.0815 O   0  0  0  0  0  0  0  0  0  0  0  0
   11.2977   14.6705   -9.6065 S   0  0  1  0  0  0  0  0  0  0  0  0
   13.9859   20.6723   -7.7148 H   0  0  0  0  0  0  0  0  0  0  0  0
   12.3785   20.4919   -7.0228 H   0  0  0  0  0  0  0  0  0  0  0  0
   11.5857   17.9138   -6.7908 H   0  0  0  0  0  0  0  0  0  0  0  0
   12.5298   16.6724   -7.5374 H   0  0  0  0  0  0  0  0  0  0  0  0
   12.3534   18.9054   -9.0310 H   0  0  0  0  0  0  0  0  0  0  0  0
   14.1560   17.9433  -12.6825 H   0  0  0  0  0  0  0  0  0  0  0  0
   13.6728   15.0181  -12.2728 H   0  0  0  0  0  0  0  0  0  0  0  0
   16.3493   16.2083  -11.7509 H   0  0  0  0  0  0  0  0  0  0  0  0
   15.6388   15.7772  -13.3620 H   0  0  0  0  0  0  0  0  0  0  0  0
   15.1746   19.2320  -12.5725 H   0  0  0  0  0  0  0  0  0  0  0  0
   18.0590   16.4450  -14.1084 H   0  0  0  0  0  0  0  0  0  0  0  0
   16.4206   21.0991  -13.6240 H   0  0  0  0  0  0  0  0  0  0  0  0
   19.3073   18.3204  -15.1435 H   0  0  0  0  0  0  0  0  0  0  0  0
   18.4980   20.6453  -14.8930 H   0  0  0  0  0  0  0  0  0  0  0  0
   12.3736   16.7912  -10.6865 H   0  0  0  0  0  0  0  0  0  0  0  0
   11.3508   16.8563  -12.2250 H   0  0  0  0  0  0  0  0  0  0  0  0
    9.4867   15.8129  -11.9703 H   0  0  0  0  0  0  0  0  0  0  0  0
    9.4947   14.0685  -11.3845 H   0  0  0  0  0  0  0  0  0  0  0  0
   10.6250   15.1717  -13.9503 H   0  0  0  0  0  0  0  0  0  0  0  0
   12.2319   12.1112  -10.5689 H   0  0  0  0  0  0  0  0  0  0  0  0
   11.2452    9.8428  -10.3940 H   0  0  0  0  0  0  0  0  0  0  0  0
    7.9114   11.4592   -8.1660 H   0  0  0  0  0  0  0  0  0  0  0  0
    8.8811   13.7294   -8.3778 H   0  0  0  0  0  0  0  0  0  0  0  0
    8.1604   13.7715  -13.2926 H   0  0  0  0  0  0  0  0  0  0  0  0
    8.6119   14.8337  -14.6690 H   0  0  0  0  0  0  0  0  0  0  0  0
    9.1034   13.1060  -14.6690 H   0  0  0  0  0  0  0  0  0  0  0  0
   11.3463   12.8862  -12.2138 H   0  0  0  0  0  0  0  0  0  0  0  0
   10.6829   12.2760  -13.7675 H   0  0  0  0  0  0  0  0  0  0  0  0
   12.1029   13.3761  -13.7675 H   0  0  0  0  0  0  0  0  0  0  0  0
   13.2759   17.5993   -5.1131 H   0  0  0  0  0  0  0  0  0  0  0  0
   14.5668   17.3581   -6.3006 H   0  0  0  0  0  0  0  0  0  0  0  0
   14.5638   16.4598  -10.0606 H   0  0  0  0  0  0  0  0  0  0  0  0
    8.0697    9.0996   -8.6697 H   0  0  0  0  0  0  0  0  0  0  0  0
    9.4462    8.4271   -9.5839 H   0  0  0  0  0  0  0  0  0  0  0  0
   11.8898   16.4262  -13.8456 H   0  0  0  0  0  0  0  0  0  0  0  0
  1  4  1  0
  1 34  1  0
  2  4  1  0
  2 25  1  0
  3 26  1  0
  3 29  1  0
  3 30  2  0
  4 29  1  0
  5  6  1  0
  5  7  1  0
  5 26  1  0
  6 14  1  0
  6 31  1  0
  7  8  1  0
  8  9  2  0
  8 10  1  0
  9 11  1  0
 10 12  2  0
 11 13  2  0
 12 13  1  0
 14 27  1  0
 15 16  1  0
 15 27  1  0
 16 23  1  0
 16 24  1  0
 17 18  2  0
 17 22  1  0
 17 35  1  0
 18 19  1  0
 19 20  2  0
 20 21  1  0
 20 28  1  0
 21 22  2  0
 25 34  1  0
 35 27  1  6
 32 35  2  0
 33 35  2  0
  1 36  1  0
  1 37  1  0
  2 38  1  0
  2 39  1  0
  4 40  1  6
  5 41  1  6
  6 42  1  6
  7 43  1  0
  7 44  1  0
  9 45  1  0
 10 46  1  0
 11 47  1  0
 12 48  1  0
 13 49  1  0
 14 50  1  0
 14 51  1  0
 15 52  1  0
 15 53  1  0
 16 54  1  6
 18 55  1  0
 19 56  1  0
 21 57  1  0
 22 58  1  0
 23 59  1  0
 23 60  1  0
 23 61  1  0
 24 62  1  0
 24 63  1  0
 24 64  1  0
 25 65  1  0
 25 66  1  0
 26 67  1  0
 28 68  1  0
 28 69  1  0
 31 70  1  0
M  END
>  <filename_input>  (10) 
6XCT_478_docked.sdf

>  <pdb_id>  (10) 
6XCT_478

>  <pose_rank>  (10) 
9

>  <num_atoms_heavy>  (10) 
35

>  <num_torsions>  (10) 
12

>  <pose>  (10) 
[13.261058983679252, 16.02074016453751, -12.460562370456008, 1.1209755731130648, -1.2350117068876452, 1.535086542917129, -2.221626682872754, 0.21270766542285882, 1.0755353652390607, -0.5071241397247458, -0.7341359581513514, 1.662666567211007, -1.1863283922567485, 0.1236416817699571, 1.4529118100164855, -3.6660208257773252, -0.4566563397740926, 3.582857659807505]

>  <energy>  (10) 
-714.7695811645392

>  <inter_energy>  (10) 
-776.0467995490636

>  <intra_energy>  (10) 
27.71255865736999

>  <rmsd>  (10) 
8.17236

>  <sdf_rank>  (10) 
0

$$$$

     RDKit          3D

 70 72  0  0  0  0  0  0  0  0999 V2000
   17.8920   19.5715  -11.6957 C   0  0  0  0  0  0  0  0  0  0  0  0
   19.2530   19.7258  -13.6035 C   0  0  0  0  0  0  0  0  0  0  0  0
   16.1177   17.8146  -13.2369 C   0  0  0  0  0  0  0  0  0  0  0  0
   18.2127   18.7727  -12.9764 C   0  0  2  0  0  0  0  0  0  0  0  0
   13.7738   17.2148  -13.5298 C   0  0  2  0  0  0  0  0  0  0  0  0
   13.2545   17.6303  -12.1448 C   0  0  1  0  0  0  0  0  0  0  0  0
   14.0944   15.7171  -13.6521 C   0  0  0  0  0  0  0  0  0  0  0  0
   12.8585   14.9052  -13.9891 C   0  0  0  0  0  0  0  0  0  0  0  0
   12.9612   13.5662  -14.3329 C   0  0  0  0  0  0  0  0  0  0  0  0
   11.5954   15.4785  -13.9502 C   0  0  0  0  0  0  0  0  0  0  0  0
   11.8329   12.8164  -14.6302 C   0  0  0  0  0  0  0  0  0  0  0  0
   10.4675   14.7263  -14.2432 C   0  0  0  0  0  0  0  0  0  0  0  0
   10.5885   13.3983  -14.5789 C   0  0  0  0  0  0  0  0  0  0  0  0
   13.3375   16.4771  -11.1630 C   0  0  0  0  0  0  0  0  0  0  0  0
   13.2276   16.6433   -8.6956 C   0  0  0  0  0  0  0  0  0  0  0  0
   13.8878   17.9731   -8.3975 C   0  0  2  0  0  0  0  0  0  0  0  0
   11.4103   14.0713   -9.9947 C   0  0  0  0  0  0  0  0  0  0  0  0
   12.5517   13.6003  -10.6334 C   0  0  0  0  0  0  0  0  0  0  0  0
   12.8146   12.2424  -10.6449 C   0  0  0  0  0  0  0  0  0  0  0  0
   11.9512   11.3355  -10.0105 C   0  0  0  0  0  0  0  0  0  0  0  0
   10.8131   11.8318   -9.3626 C   0  0  0  0  0  0  0  0  0  0  0  0
   10.5424   13.1868   -9.3599 C   0  0  0  0  0  0  0  0  0  0  0  0
   15.3433   18.0365   -8.7296 C   0  0  0  0  0  0  0  0  0  0  0  0
   13.6595   18.2573   -6.8977 C   0  0  0  0  0  0  0  0  0  0  0  0
   18.5385   21.0477  -13.4059 C   0  0  0  0  0  0  0  0  0  0  0  0
   14.9547   18.0037  -13.8537 N   0  0  0  0  0  0  0  0  0  0  0  0
   12.4927   16.5808   -9.9677 N   0  0  0  0  0  0  0  0  0  0  0  0
   12.2158    9.9823  -10.0207 N   0  0  0  0  0  0  0  0  0  0  0  0
   17.0490   18.6666  -13.7617 O   0  0  0  0  0  0  0  0  0  0  0  0
   16.3354   17.0265  -12.3246 O   0  0  0  0  0  0  0  0  0  0  0  0
   14.0345   18.6948  -11.5983 O   0  0  0  0  0  0  0  0  0  0  0  0
   10.3726   16.1462  -11.1683 O   0  0  0  0  0  0  0  0  0  0  0  0
   10.4559   16.1075   -8.7070 O   0  0  0  0  0  0  0  0  0  0  0  0
   17.8711   20.9489  -12.1311 O   0  0  0  0  0  0  0  0  0  0  0  0
   11.0604   15.8013   -9.9645 S   0  0  1  0  0  0  0  0  0  0  0  0
   16.9142   19.2769  -11.2872 H   0  0  0  0  0  0  0  0  0  0  0  0
   18.6251   19.3945  -10.8949 H   0  0  0  0  0  0  0  0  0  0  0  0
   20.2128   19.6948  -13.0671 H   0  0  0  0  0  0  0  0  0  0  0  0
   19.5297   19.4958  -14.6430 H   0  0  0  0  0  0  0  0  0  0  0  0
   18.5647   17.7388  -12.8458 H   0  0  0  0  0  0  0  0  0  0  0  0
   12.9609   17.4088  -14.2450 H   0  0  0  0  0  0  0  0  0  0  0  0
   12.2110   17.9477  -12.2875 H   0  0  0  0  0  0  0  0  0  0  0  0
   14.8414   15.5761  -14.4472 H   0  0  0  0  0  0  0  0  0  0  0  0
   14.4802   15.3685  -12.6828 H   0  0  0  0  0  0  0  0  0  0  0  0
   13.9526   13.0911  -14.3706 H   0  0  0  0  0  0  0  0  0  0  0  0
   11.4875   16.5404  -13.6842 H   0  0  0  0  0  0  0  0  0  0  0  0
   11.9337   11.7565  -14.9069 H   0  0  0  0  0  0  0  0  0  0  0  0
    9.4724   15.1938  -14.2069 H   0  0  0  0  0  0  0  0  0  0  0  0
    9.6917   12.8030  -14.8058 H   0  0  0  0  0  0  0  0  0  0  0  0
   13.0507   15.5598  -11.6980 H   0  0  0  0  0  0  0  0  0  0  0  0
   14.3732   16.4806  -10.7923 H   0  0  0  0  0  0  0  0  0  0  0  0
   14.0111   15.8715   -8.7169 H   0  0  0  0  0  0  0  0  0  0  0  0
   12.4802   16.4890   -7.9034 H   0  0  0  0  0  0  0  0  0  0  0  0
   13.4308   18.7362   -9.0446 H   0  0  0  0  0  0  0  0  0  0  0  0
   13.2406   14.3023  -11.1258 H   0  0  0  0  0  0  0  0  0  0  0  0
   13.7125   11.8680  -11.1583 H   0  0  0  0  0  0  0  0  0  0  0  0
   10.1295   11.1376   -8.8519 H   0  0  0  0  0  0  0  0  0  0  0  0
    9.6413   13.5667   -8.8563 H   0  0  0  0  0  0  0  0  0  0  0  0
   15.9308   18.0621   -7.7999 H   0  0  0  0  0  0  0  0  0  0  0  0
   15.6244   17.1498   -9.3167 H   0  0  0  0  0  0  0  0  0  0  0  0
   15.5463   18.9444   -9.3167 H   0  0  0  0  0  0  0  0  0  0  0  0
   14.2363   17.5391   -6.2965 H   0  0  0  0  0  0  0  0  0  0  0  0
   13.9901   19.2801   -6.6639 H   0  0  0  0  0  0  0  0  0  0  0  0
   12.5895   18.1553   -6.6639 H   0  0  0  0  0  0  0  0  0  0  0  0
   19.2621   21.8761  -13.3960 H   0  0  0  0  0  0  0  0  0  0  0  0
   17.8267   21.2480  -14.2203 H   0  0  0  0  0  0  0  0  0  0  0  0
   14.8871   18.7292  -14.5817 H   0  0  0  0  0  0  0  0  0  0  0  0
   11.5733    9.3284   -9.5509 H   0  0  0  0  0  0  0  0  0  0  0  0
   13.0558    9.6253  -10.4980 H   0  0  0  0  0  0  0  0  0  0  0  0
   14.0036   18.6526  -10.6096 H   0  0  0  0  0  0  0  0  0  0  0  0
  1  4  1  0
  1 34  1  0
  2  4  1  0
  2 25  1  0
  3 26  1  0
  3 29  1  0
  3 30  2  0
  4 29  1  0
  5  6  1  0
  5  7  1  0
  5 26  1  0
  6 14  1  0
  6 31  1  0
  7  8  1  0
  8  9  2  0
  8 10  1  0
  9 11  1  0
 10 12  2  0
 11 13  2  0
 12 13  1  0
 14 27  1  0
 15 16  1  0
 15 27  1  0
 16 23  1  0
 16 24  1  0
 17 18  2  0
 17 22  1  0
 17 35  1  0
 18 19  1  0
 19 20  2  0
 20 21  1  0
 20 28  1  0
 21 22  2  0
 25 34  1  0
 35 27  1  6
 32 35  2  0
 33 35  2  0
  1 36  1  0
  1 37  1  0
  2 38  1  0
  2 39  1  0
  4 40  1  1
  5 41  1  6
  6 42  1  6
  7 43  1  0
  7 44  1  0
  9 45  1  0
 10 46  1  0
 11 47  1  0
 12 48  1  0
 13 49  1  0
 14 50  1  0
 14 51  1  0
 15 52  1  0
 15 53  1  0
 16 54  1  6
 18 55  1  0
 19 56  1  0
 21 57  1  0
 22 58  1  0
 23 59  1  0
 23 60  1  0
 23 61  1  0
 24 62  1  0
 24 63  1  0
 24 64  1  0
 25 65  1  0
 25 66  1  0
 26 67  1  0
 28 68  1  0
 28 69  1  0
 31 70  1  0
M  END
>  <filename_input>  (11) 
6XCT_478_docked.sdf

>  <pdb_id>  (11) 
6XCT_478

>  <pose_rank>  (11) 
10

>  <num_atoms_heavy>  (11) 
35

>  <num_torsions>  (11) 
12

>  <pose>  (11) 
[13.254495863926605, 17.630341261292635, -12.144782166008035, 0.8942350085061296, -1.3521752987083333, -1.4526876043717503, -42.62026688902794, -21.574942272434154, -12.8488647856977, 0.34088761935303236, -20.48225571272814, 4.414941249380067, -70.57803354106326, -12.684245247964434, -44.71989860441953, 0.9208852001506015, 5.858148197091665, 5.115728764437088]

>  <energy>  (11) 
-519.4085828869099

>  <inter_energy>  (11) 
-621.1647280373484

>  <intra_energy>  (11) 
119.38573468413327

>  <rmsd>  (11) 
7.49634

>  <sdf_rank>  (11) 
0

$$$$

     RDKit          3D

 70 72  0  0  0  0  0  0  0  0999 V2000
   14.2473   18.3516   -7.4755 C   0  0  0  0  0  0  0  0  0  0  0  0
   14.4580   20.6845   -7.3052 C   0  0  0  0  0  0  0  0  0  0  0  0
   14.8589   18.5315  -10.2724 C   0  0  0  0  0  0  0  0  0  0  0  0
   14.9717   19.5191   -8.1779 C   0  0  2  0  0  0  0  0  0  0  0  0
   14.9493   17.8668  -12.6153 C   0  0  2  0  0  0  0  0  0  0  0  0
   13.6872   17.0489  -12.9300 C   0  0  1  0  0  0  0  0  0  0  0  0
   16.1650   17.0122  -12.2250 C   0  0  0  0  0  0  0  0  0  0  0  0
   17.4154   17.4451  -12.9661 C   0  0  0  0  0  0  0  0  0  0  0  0
   18.0826   18.6080  -12.6133 C   0  0  0  0  0  0  0  0  0  0  0  0
   17.9284   16.6832  -14.0063 C   0  0  0  0  0  0  0  0  0  0  0  0
   19.2332   19.0018  -13.2801 C   0  0  0  0  0  0  0  0  0  0  0  0
   19.0818   17.0758  -14.6692 C   0  0  0  0  0  0  0  0  0  0  0  0
   19.7322   18.2307  -14.3030 C   0  0  0  0  0  0  0  0  0  0  0  0
   13.8350   15.6152  -12.4574 C   0  0  0  0  0  0  0  0  0  0  0  0
   12.4354   15.1324  -10.4735 C   0  0  0  0  0  0  0  0  0  0  0  0
   11.4786   16.2310  -10.0603 C   0  0  2  0  0  0  0  0  0  0  0  0
   11.1010   12.7694  -11.4122 C   0  0  0  0  0  0  0  0  0  0  0  0
    9.9215   13.3654  -10.9812 C   0  0  0  0  0  0  0  0  0  0  0  0
    9.1282   12.7139  -10.0541 C   0  0  0  0  0  0  0  0  0  0  0  0
    9.4921   11.4545   -9.5522 C   0  0  0  0  0  0  0  0  0  0  0  0
   10.6783   10.8662  -10.0084 C   0  0  0  0  0  0  0  0  0  0  0  0
   11.4782   11.5205  -10.9256 C   0  0  0  0  0  0  0  0  0  0  0  0
   10.7270   15.9625   -8.7969 C   0  0  0  0  0  0  0  0  0  0  0  0
   10.5040   16.4394  -11.2387 C   0  0  0  0  0  0  0  0  0  0  0  0
   12.9883   20.3212   -7.2353 C   0  0  0  0  0  0  0  0  0  0  0  0
   14.6495   18.8185  -11.5540 N   0  0  0  0  0  0  0  0  0  0  0  0
   12.6246   14.9801  -11.9238 N   0  0  0  0  0  0  0  0  0  0  0  0
    8.6991   10.8050   -8.6299 N   0  0  0  0  0  0  0  0  0  0  0  0
   14.5204   19.6131   -9.5081 O   0  0  0  0  0  0  0  0  0  0  0  0
   15.2653   17.4662   -9.8244 O   0  0  0  0  0  0  0  0  0  0  0  0
   12.5434   17.5869  -12.2649 O   0  0  0  0  0  0  0  0  0  0  0  0
   13.2776   12.7734  -12.8342 O   0  0  0  0  0  0  0  0  0  0  0  0
   11.3026   13.9597  -13.7052 O   0  0  0  0  0  0  0  0  0  0  0  0
   12.9408   18.8816   -7.1602 O   0  0  0  0  0  0  0  0  0  0  0  0
   12.1240   13.5827  -12.5989 S   0  0  1  0  0  0  0  0  0  0  0  0
   14.1644   17.4840   -8.1465 H   0  0  0  0  0  0  0  0  0  0  0  0
   14.7848   17.9990   -6.5829 H   0  0  0  0  0  0  0  0  0  0  0  0
   14.9267   20.6887   -6.3101 H   0  0  0  0  0  0  0  0  0  0  0  0
   14.6719   21.6900   -7.6966 H   0  0  0  0  0  0  0  0  0  0  0  0
   16.0674   19.4555   -8.2516 H   0  0  0  0  0  0  0  0  0  0  0  0
   15.2307   18.3859  -13.5434 H   0  0  0  0  0  0  0  0  0  0  0  0
   13.5560   17.0891  -14.0214 H   0  0  0  0  0  0  0  0  0  0  0  0
   16.3389   17.1124  -11.1435 H   0  0  0  0  0  0  0  0  0  0  0  0
   15.9508   15.9675  -12.4944 H   0  0  0  0  0  0  0  0  0  0  0  0
   17.6935   19.2277  -11.7920 H   0  0  0  0  0  0  0  0  0  0  0  0
   17.4151   15.7583  -14.3082 H   0  0  0  0  0  0  0  0  0  0  0  0
   19.7463   19.9307  -12.9906 H   0  0  0  0  0  0  0  0  0  0  0  0
   19.4777   16.4611  -15.4910 H   0  0  0  0  0  0  0  0  0  0  0  0
   20.6495   18.5369  -14.8272 H   0  0  0  0  0  0  0  0  0  0  0  0
   14.1803   15.0143  -13.3116 H   0  0  0  0  0  0  0  0  0  0  0  0
   14.5420   15.6544  -11.6156 H   0  0  0  0  0  0  0  0  0  0  0  0
   13.4156   15.3475  -10.0232 H   0  0  0  0  0  0  0  0  0  0  0  0
   11.9883   14.1903  -10.1233 H   0  0  0  0  0  0  0  0  0  0  0  0
   12.0672   17.1329   -9.8365 H   0  0  0  0  0  0  0  0  0  0  0  0
    9.6212   14.3478  -11.3745 H   0  0  0  0  0  0  0  0  0  0  0  0
    8.1995   13.1892   -9.7053 H   0  0  0  0  0  0  0  0  0  0  0  0
   10.9755    9.8756   -9.6336 H   0  0  0  0  0  0  0  0  0  0  0  0
   12.4128   11.0548  -11.2714 H   0  0  0  0  0  0  0  0  0  0  0  0
   11.3683   16.1916   -7.9330 H   0  0  0  0  0  0  0  0  0  0  0  0
    9.8276   16.5949   -8.7639 H   0  0  0  0  0  0  0  0  0  0  0  0
   10.4319   14.9033   -8.7639 H   0  0  0  0  0  0  0  0  0  0  0  0
    9.4981   16.6546  -10.8490 H   0  0  0  0  0  0  0  0  0  0  0  0
   10.8475   17.2844  -11.8535 H   0  0  0  0  0  0  0  0  0  0  0  0
   10.4718   15.5278  -11.8535 H   0  0  0  0  0  0  0  0  0  0  0  0
   12.5261   20.7665   -6.3419 H   0  0  0  0  0  0  0  0  0  0  0  0
   12.4366   20.6987   -8.1088 H   0  0  0  0  0  0  0  0  0  0  0  0
   14.2642   19.7405  -11.8034 H   0  0  0  0  0  0  0  0  0  0  0  0
    8.9786    9.8812   -8.2702 H   0  0  0  0  0  0  0  0  0  0  0  0
    7.8274   11.2437   -8.3005 H   0  0  0  0  0  0  0  0  0  0  0  0
   12.6724   17.5263  -11.2852 H   0  0  0  0  0  0  0  0  0  0  0  0
  1  4  1  0
  1 34  1  0
  2  4  1  0
  2 25  1  0
  3 26  1  0
  3 29  1  0
  3 30  2  0
  4 29  1  0
  5  6  1  0
  5  7  1  0
  5 26  1  0
  6 14  1  0
  6 31  1  0
  7  8  1  0
  8  9  2  0
  8 10  1  0
  9 11  1  0
 10 12  2  0
 11 13  2  0
 12 13  1  0
 14 27  1  0
 15 16  1  0
 15 27  1  0
 16 23  1  0
 16 24  1  0
 17 18  2  0
 17 22  1  0
 17 35  1  0
 18 19  1  0
 19 20  2  0
 20 21  1  0
 20 28  1  0
 21 22  2  0
 25 34  1  0
 35 27  1  1
 32 35  2  0
 33 35  2  0
  1 36  1  0
  1 37  1  0
  2 38  1  0
  2 39  1  0
  4 40  1  6
  5 41  1  6
  6 42  1  6
  7 43  1  0
  7 44  1  0
  9 45  1  0
 10 46  1  0
 11 47  1  0
 12 48  1  0
 13 49  1  0
 14 50  1  0
 14 51  1  0
 15 52  1  0
 15 53  1  0
 16 54  1  1
 18 55  1  0
 19 56  1  0
 21 57  1  0
 22 58  1  0
 23 59  1  0
 23 60  1  0
 23 61  1  0
 24 62  1  0
 24 63  1  0
 24 64  1  0
 25 65  1  0
 25 66  1  0
 26 67  1  0
 28 68  1  0
 28 69  1  0
 31 70  1  0
M  END
>  <filename_input>  (12) 
6XCT_478_docked.sdf

>  <pdb_id>  (12) 
6XCT_478

>  <pose_rank>  (12) 
11

>  <num_atoms_heavy>  (12) 
35

>  <num_torsions>  (12) 
12

>  <pose>  (12) 
[13.687206519155874, 17.04887437449301, -12.929962066652699, -3.0541036037573477, 1.4209587243057709, 0.4074010589958257, -4.796986937683874, 3.9326267379156774, 6.474952744452243, -12.113688663942597, -7.070742513639439, 9.024738705250968, 10.129826219691365, -5.943934425754941, 13.433586543261146, 2.5506379851523007, 6.269511239674077, -3.1410079357610248]

>  <energy>  (12) 
-598.6515880889164

>  <inter_energy>  (12) 
-738.1957225930495

>  <intra_energy>  (12) 
161.34853644402554

>  <rmsd>  (12) 
7.95533

>  <sdf_rank>  (12) 
0

$$$$

     RDKit          3D

 70 72  0  0  0  0  0  0  0  0999 V2000
   10.4455   11.4786  -10.6188 C   0  0  0  0  0  0  0  0  0  0  0  0
   10.7954   11.5036   -8.2966 C   0  0  0  0  0  0  0  0  0  0  0  0
   10.5441   14.7196   -9.8151 C   0  0  0  0  0  0  0  0  0  0  0  0
   10.9060   12.4498   -9.5117 C   0  0  2  0  0  0  0  0  0  0  0  0
   12.3616   15.5768  -11.1939 C   0  0  2  0  0  0  0  0  0  0  0  0
   12.2680   16.8142  -10.2881 C   0  0  1  0  0  0  0  0  0  0  0  0
   11.8937   15.8230  -12.6365 C   0  0  0  0  0  0  0  0  0  0  0  0
   11.3415   14.5603  -13.2698 C   0  0  0  0  0  0  0  0  0  0  0  0
   10.0641   14.5364  -13.8077 C   0  0  0  0  0  0  0  0  0  0  0  0
   12.1044   13.4030  -13.3367 C   0  0  0  0  0  0  0  0  0  0  0  0
    9.5592   13.3877  -14.3986 C   0  0  0  0  0  0  0  0  0  0  0  0
   11.5999   12.2564  -13.9321 C   0  0  0  0  0  0  0  0  0  0  0  0
   10.3316   12.2524  -14.4636 C   0  0  0  0  0  0  0  0  0  0  0  0
   13.4893   17.6996  -10.4470 C   0  0  0  0  0  0  0  0  0  0  0  0
   12.9421   19.1125   -8.4894 C   0  0  0  0  0  0  0  0  0  0  0  0
   13.1253   19.1403   -6.9865 C   0  0  2  0  0  0  0  0  0  0  0  0
   15.9711   19.1510  -10.9188 C   0  0  0  0  0  0  0  0  0  0  0  0
   15.7001   20.3273  -11.6081 C   0  0  0  0  0  0  0  0  0  0  0  0
   16.0941   20.4496  -12.9284 C   0  0  0  0  0  0  0  0  0  0  0  0
   16.7741   19.4071  -13.5772 C   0  0  0  0  0  0  0  0  0  0  0  0
   17.0479   18.2349  -12.8613 C   0  0  0  0  0  0  0  0  0  0  0  0
   16.6448   18.1062  -11.5459 C   0  0  0  0  0  0  0  0  0  0  0  0
   14.1630   20.0998   -6.5011 C   0  0  0  0  0  0  0  0  0  0  0  0
   13.4716   17.7000   -6.5533 C   0  0  0  0  0  0  0  0  0  0  0  0
    9.4414   10.8841   -8.5791 C   0  0  0  0  0  0  0  0  0  0  0  0
   11.5927   14.4911  -10.6006 N   0  0  0  0  0  0  0  0  0  0  0  0
   13.9694   18.3666   -9.2313 N   0  0  0  0  0  0  0  0  0  0  0  0
   17.1685   19.5311  -14.8926 N   0  0  0  0  0  0  0  0  0  0  0  0
   10.0012   13.5253   -9.4309 O   0  0  0  0  0  0  0  0  0  0  0  0
   10.1292   15.8159   -9.4594 O   0  0  0  0  0  0  0  0  0  0  0  0
   11.1322   17.6138  -10.6210 O   0  0  0  0  0  0  0  0  0  0  0  0
   16.3391   18.0226   -8.6057 O   0  0  0  0  0  0  0  0  0  0  0  0
   15.3697   20.2860   -8.6682 O   0  0  0  0  0  0  0  0  0  0  0  0
    9.3684   10.7314  -10.0115 O   0  0  0  0  0  0  0  0  0  0  0  0
   15.4811   18.9781   -9.2318 S   0  0  1  0  0  0  0  0  0  0  0  0
   10.0876   12.0325  -11.4992 H   0  0  0  0  0  0  0  0  0  0  0  0
   11.2594   10.8297  -10.9745 H   0  0  0  0  0  0  0  0  0  0  0  0
   11.5971   10.7505   -8.2896 H   0  0  0  0  0  0  0  0  0  0  0  0
   10.8897   11.9915   -7.3153 H   0  0  0  0  0  0  0  0  0  0  0  0
   11.8944   12.9165   -9.6355 H   0  0  0  0  0  0  0  0  0  0  0  0
   13.4275   15.3138  -11.2631 H   0  0  0  0  0  0  0  0  0  0  0  0
   12.1891   16.4384   -9.2573 H   0  0  0  0  0  0  0  0  0  0  0  0
   11.1071   16.5919  -12.6299 H   0  0  0  0  0  0  0  0  0  0  0  0
   12.7613   16.1520  -13.2273 H   0  0  0  0  0  0  0  0  0  0  0  0
    9.4415   15.4422  -13.7653 H   0  0  0  0  0  0  0  0  0  0  0  0
   13.1196   13.3950  -12.9133 H   0  0  0  0  0  0  0  0  0  0  0  0
    8.5411   13.3851  -14.8151 H   0  0  0  0  0  0  0  0  0  0  0  0
   12.2166   11.3467  -13.9792 H   0  0  0  0  0  0  0  0  0  0  0  0
    9.9362   11.3430  -14.9396 H   0  0  0  0  0  0  0  0  0  0  0  0
   14.3085   17.0751  -10.8328 H   0  0  0  0  0  0  0  0  0  0  0  0
   13.1793   18.5095  -11.1237 H   0  0  0  0  0  0  0  0  0  0  0  0
   11.9660   18.6534   -8.7049 H   0  0  0  0  0  0  0  0  0  0  0  0
   13.0203   20.1568   -8.8259 H   0  0  0  0  0  0  0  0  0  0  0  0
   12.1908   19.5028   -6.5332 H   0  0  0  0  0  0  0  0  0  0  0  0
   15.1762   21.1548  -11.1073 H   0  0  0  0  0  0  0  0  0  0  0  0
   15.8714   21.3764  -13.4773 H   0  0  0  0  0  0  0  0  0  0  0  0
   17.5880   17.4105  -13.3498 H   0  0  0  0  0  0  0  0  0  0  0  0
   16.8562   17.1784  -10.9941 H   0  0  0  0  0  0  0  0  0  0  0  0
   14.1702   20.1065   -5.4011 H   0  0  0  0  0  0  0  0  0  0  0  0
   15.1510   19.7901   -6.8724 H   0  0  0  0  0  0  0  0  0  0  0  0
   13.9315   21.1090   -6.8724 H   0  0  0  0  0  0  0  0  0  0  0  0
   13.4858   17.6409   -5.4549 H   0  0  0  0  0  0  0  0  0  0  0  0
   12.7146   17.0064   -6.9480 H   0  0  0  0  0  0  0  0  0  0  0  0
   14.4611   17.4263   -6.9480 H   0  0  0  0  0  0  0  0  0  0  0  0
    9.3580    9.9048   -8.0850 H   0  0  0  0  0  0  0  0  0  0  0  0
    8.6224   11.5113   -8.1973 H   0  0  0  0  0  0  0  0  0  0  0  0
   11.8691   13.5181  -10.7951 H   0  0  0  0  0  0  0  0  0  0  0  0
   17.6668   18.7579  -15.3560 H   0  0  0  0  0  0  0  0  0  0  0  0
   16.9648   20.3970  -15.4119 H   0  0  0  0  0  0  0  0  0  0  0  0
   10.6919   17.9238   -9.7903 H   0  0  0  0  0  0  0  0  0  0  0  0
  1  4  1  0
  1 34  1  0
  2  4  1  0
  2 25  1  0
  3 26  1  0
  3 29  1  0
  3 30  2  0
  4 29  1  0
  5  6  1  0
  5  7  1  0
  5 26  1  0
  6 14  1  0
  6 31  1  0
  7  8  1  0
  8  9  2  0
  8 10  1  0
  9 11  1  0
 10 12  2  0
 11 13  2  0
 12 13  1  0
 14 27  1  0
 15 16  1  0
 15 27  1  0
 16 23  1  0
 16 24  1  0
 17 18  2  0
 17 22  1  0
 17 35  1  0
 18 19  1  0
 19 20  2  0
 20 21  1  0
 20 28  1  0
 21 22  2  0
 25 34  1  0
 35 27  1  6
 32 35  2  0
 33 35  2  0
  1 36  1  0
  1 37  1  0
  2 38  1  0
  2 39  1  0
  4 40  1  6
  5 41  1  6
  6 42  1  1
  7 43  1  0
  7 44  1  0
  9 45  1  0
 10 46  1  0
 11 47  1  0
 12 48  1  0
 13 49  1  0
 14 50  1  0
 14 51  1  0
 15 52  1  0
 15 53  1  0
 16 54  1  1
 18 55  1  0
 19 56  1  0
 21 57  1  0
 22 58  1  0
 23 59  1  0
 23 60  1  0
 23 61  1  0
 24 62  1  0
 24 63  1  0
 24 64  1  0
 25 65  1  0
 25 66  1  0
 26 67  1  0
 28 68  1  0
 28 69  1  0
 31 70  1  0
M  END
>  <filename_input>  (13) 
6XCT_478_docked.sdf

>  <pdb_id>  (13) 
6XCT_478

>  <pose_rank>  (13) 
12

>  <num_atoms_heavy>  (13) 
35

>  <num_torsions>  (13) 
12

>  <pose>  (13) 
[12.267992099638631, 16.814231077782672, -10.2880730568751, -4.3940427276822165, 2.929164943053569, 3.1662823482283344, 6.064286131598184, -3.480689876273455, -2.786139824957042, -0.37196631711339634, 6.8178199870292335, 3.6115948381988745, 5.111484756462369, -5.261148797465367, -1.5648595879935931, -3.263764207284571, 0.8309896653341231, 1.9059203646208336]

>  <energy>  (13) 
-710.9670197775743

>  <inter_energy>  (13) 
-874.7988100069804

>  <intra_energy>  (13) 
178.47484777145806

>  <rmsd>  (13) 
1.8357

>  <sdf_rank>  (13) 
0

$$$$

     RDKit          3D

 70 72  0  0  0  0  0  0  0  0999 V2000
   12.7032    9.5966  -13.2899 C   0  0  0  0  0  0  0  0  0  0  0  0
   13.4279    9.5572  -15.5235 C   0  0  0  0  0  0  0  0  0  0  0  0
   11.6468   12.2766  -13.7769 C   0  0  0  0  0  0  0  0  0  0  0  0
   12.3633   10.2500  -14.6458 C   0  0  2  0  0  0  0  0  0  0  0  0
   11.5203   13.5136  -11.6810 C   0  0  2  0  0  0  0  0  0  0  0  0
   11.8891   14.9999  -11.8055 C   0  0  1  0  0  0  0  0  0  0  0  0
   11.7845   12.9199  -10.2887 C   0  0  0  0  0  0  0  0  0  0  0  0
   10.6198   12.0750   -9.8095 C   0  0  0  0  0  0  0  0  0  0  0  0
    9.7821   12.5275   -8.8018 C   0  0  0  0  0  0  0  0  0  0  0  0
   10.3571   10.8353  -10.3750 C   0  0  0  0  0  0  0  0  0  0  0  0
    8.7085   11.7638   -8.3684 C   0  0  0  0  0  0  0  0  0  0  0  0
    9.2803   10.0746   -9.9438 C   0  0  0  0  0  0  0  0  0  0  0  0
    8.4581   10.5414   -8.9453 C   0  0  0  0  0  0  0  0  0  0  0  0
   13.3875   15.2017  -11.6836 C   0  0  0  0  0  0  0  0  0  0  0  0
   15.2822   16.6848  -11.1019 C   0  0  0  0  0  0  0  0  0  0  0  0
   15.8897   17.1316  -12.4150 C   0  0  2  0  0  0  0  0  0  0  0  0
   13.9567   18.3955   -9.1724 C   0  0  0  0  0  0  0  0  0  0  0  0
   13.4003   19.2779   -8.2537 C   0  0  0  0  0  0  0  0  0  0  0  0
   14.1891   20.2682   -7.6964 C   0  0  0  0  0  0  0  0  0  0  0  0
   15.5457   20.3862   -8.0369 C   0  0  0  0  0  0  0  0  0  0  0  0
   16.0896   19.4797   -8.9555 C   0  0  0  0  0  0  0  0  0  0  0  0
   15.3006   18.4971   -9.5222 C   0  0  0  0  0  0  0  0  0  0  0  0
   17.1598   16.4364  -12.7846 C   0  0  0  0  0  0  0  0  0  0  0  0
   16.1155   18.6545  -12.3060 C   0  0  0  0  0  0  0  0  0  0  0  0
   14.6366    9.7047  -14.6212 C   0  0  0  0  0  0  0  0  0  0  0  0
   12.2464   12.7549  -12.6905 N   0  0  0  0  0  0  0  0  0  0  0  0
   13.8256   16.4847  -11.1222 N   0  0  0  0  0  0  0  0  0  0  0  0
   16.3315   21.3723   -7.4788 N   0  0  0  0  0  0  0  0  0  0  0  0
   12.5710   11.6396  -14.5572 O   0  0  0  0  0  0  0  0  0  0  0  0
   10.4540   12.3597  -14.0435 O   0  0  0  0  0  0  0  0  0  0  0  0
   11.5042   15.5232  -13.0776 O   0  0  0  0  0  0  0  0  0  0  0  0
   12.7732   16.0949   -8.9164 O   0  0  0  0  0  0  0  0  0  0  0  0
   11.8256   17.7351  -10.4906 O   0  0  0  0  0  0  0  0  0  0  0  0
   14.1467    9.5382  -13.2749 O   0  0  0  0  0  0  0  0  0  0  0  0
   12.9677   17.1218   -9.8904 S   0  0  1  0  0  0  0  0  0  0  0  0
   12.3292   10.2100  -12.4569 H   0  0  0  0  0  0  0  0  0  0  0  0
   12.2409    8.6054  -13.1729 H   0  0  0  0  0  0  0  0  0  0  0  0
   13.1817    8.5013  -15.7092 H   0  0  0  0  0  0  0  0  0  0  0  0
   13.5454    9.9773  -16.5333 H   0  0  0  0  0  0  0  0  0  0  0  0
   11.3314   10.1380  -15.0100 H   0  0  0  0  0  0  0  0  0  0  0  0
   10.4340   13.4417  -11.8386 H   0  0  0  0  0  0  0  0  0  0  0  0
   11.3575   15.5200  -10.9950 H   0  0  0  0  0  0  0  0  0  0  0  0
   12.6861   12.2913  -10.3343 H   0  0  0  0  0  0  0  0  0  0  0  0
   11.9193   13.7513   -9.5811 H   0  0  0  0  0  0  0  0  0  0  0  0
    9.9719   13.5071   -8.3389 H   0  0  0  0  0  0  0  0  0  0  0  0
   11.0095   10.4519  -11.1733 H   0  0  0  0  0  0  0  0  0  0  0  0
    8.0578   12.1361   -7.5635 H   0  0  0  0  0  0  0  0  0  0  0  0
    9.0835    9.0943  -10.4023 H   0  0  0  0  0  0  0  0  0  0  0  0
    7.6019    9.9381   -8.6090 H   0  0  0  0  0  0  0  0  0  0  0  0
   13.7825   14.4016  -11.0403 H   0  0  0  0  0  0  0  0  0  0  0  0
   13.7712   15.1854  -12.7144 H   0  0  0  0  0  0  0  0  0  0  0  0
   15.7526   15.7324  -10.8158 H   0  0  0  0  0  0  0  0  0  0  0  0
   15.4686   17.4992  -10.3864 H   0  0  0  0  0  0  0  0  0  0  0  0
   15.1928   16.8664  -13.2238 H   0  0  0  0  0  0  0  0  0  0  0  0
   12.3407   19.1894   -7.9719 H   0  0  0  0  0  0  0  0  0  0  0  0
   13.7472   20.9728   -6.9766 H   0  0  0  0  0  0  0  0  0  0  0  0
   17.1530   19.5504   -9.2278 H   0  0  0  0  0  0  0  0  0  0  0  0
   15.7341   17.7951  -10.2497 H   0  0  0  0  0  0  0  0  0  0  0  0
   17.6964   16.1426  -11.8704 H   0  0  0  0  0  0  0  0  0  0  0  0
   16.9277   15.5395  -13.3777 H   0  0  0  0  0  0  0  0  0  0  0  0
   17.7902   17.1152  -13.3777 H   0  0  0  0  0  0  0  0  0  0  0  0
   16.1583   18.9438  -11.2456 H   0  0  0  0  0  0  0  0  0  0  0  0
   17.0629   18.9208  -12.7974 H   0  0  0  0  0  0  0  0  0  0  0  0
   15.2860   19.1842  -12.7974 H   0  0  0  0  0  0  0  0  0  0  0  0
   15.3848    8.9328  -14.8544 H   0  0  0  0  0  0  0  0  0  0  0  0
   15.1246   10.6813  -14.7558 H   0  0  0  0  0  0  0  0  0  0  0  0
   13.2536   12.5841  -12.5591 H   0  0  0  0  0  0  0  0  0  0  0  0
   17.3256   21.4470   -7.7380 H   0  0  0  0  0  0  0  0  0  0  0  0
   15.9244   22.0342   -6.8027 H   0  0  0  0  0  0  0  0  0  0  0  0
   10.9228   16.3137  -12.9469 H   0  0  0  0  0  0  0  0  0  0  0  0
  1  4  1  0
  1 34  1  0
  2  4  1  0
  2 25  1  0
  3 26  1  0
  3 29  1  0
  3 30  2  0
  4 29  1  0
  5  6  1  0
  5  7  1  0
  5 26  1  0
  6 14  1  0
  6 31  1  0
  7  8  1  0
  8  9  2  0
  8 10  1  0
  9 11  1  0
 10 12  2  0
 11 13  2  0
 12 13  1  0
 14 27  1  0
 15 16  1  0
 15 27  1  0
 16 23  1  0
 16 24  1  0
 17 18  2  0
 17 22  1  0
 17 35  1  0
 18 19  1  0
 19 20  2  0
 20 21  1  0
 20 28  1  0
 21 22  2  0
 25 34  1  0
 35 27  1  6
 32 35  2  0
 33 35  2  0
  1 36  1  0
  1 37  1  0
  2 38  1  0
  2 39  1  0
  4 40  1  6
  5 41  1  6
  6 42  1  1
  7 43  1  0
  7 44  1  0
  9 45  1  0
 10 46  1  0
 11 47  1  0
 12 48  1  0
 13 49  1  0
 14 50  1  0
 14 51  1  0
 15 52  1  0
 15 53  1  0
 16 54  1  6
 18 55  1  0
 19 56  1  0
 21 57  1  0
 22 58  1  0
 23 59  1  0
 23 60  1  0
 23 61  1  0
 24 62  1  0
 24 63  1  0
 24 64  1  0
 25 65  1  0
 25 66  1  0
 26 67  1  0
 28 68  1  0
 28 69  1  0
 31 70  1  0
M  END
>  <filename_input>  (14) 
6XCT_478_docked.sdf

>  <pdb_id>  (14) 
6XCT_478

>  <pose_rank>  (14) 
13

>  <num_atoms_heavy>  (14) 
35

>  <num_torsions>  (14) 
12

>  <pose>  (14) 
[11.889127005779697, 14.999891864378013, -11.805486026801093, 3.492928033636477, 3.107726823105286, 2.4738411900911443, -3.875575964798389, -5.8135803857818, -1.1984168370353683, 0.3624684715840567, -0.7551973170779152, -0.4384036063815067, -1.2859273517036547, -1.148954147199364, -11.577346174737627, 4.404638060423246, -12.898560529096304, -1.8363588718478963]

>  <energy>  (14) 
-562.5883604224026

>  <inter_energy>  (14) 
-668.2953923677148

>  <intra_energy>  (14) 
119.28975547476603

>  <rmsd>  (14) 
4.91015

>  <sdf_rank>  (14) 
0

$$$$

     RDKit          3D

 70 72  0  0  0  0  0  0  0  0999 V2000
   15.5285   17.4817  -14.3222 C   0  0  0  0  0  0  0  0  0  0  0  0
   14.5539   18.0787  -12.2706 C   0  0  0  0  0  0  0  0  0  0  0  0
   12.3668   16.3435  -12.8985 C   0  0  0  0  0  0  0  0  0  0  0  0
   14.1308   17.6262  -13.6847 C   0  0  2  0  0  0  0  0  0  0  0  0
   11.7269   16.2128  -10.5506 C   0  0  2  0  0  0  0  0  0  0  0  0
   11.8397   17.5082   -9.7322 C   0  0  1  0  0  0  0  0  0  0  0  0
   11.8862   14.9323   -9.7165 C   0  0  0  0  0  0  0  0  0  0  0  0
   11.2103   13.7458  -10.3766 C   0  0  0  0  0  0  0  0  0  0  0  0
   10.3675   12.9164   -9.6532 C   0  0  0  0  0  0  0  0  0  0  0  0
   11.4094   13.4685  -11.7217 C   0  0  0  0  0  0  0  0  0  0  0  0
    9.7377   11.8372  -10.2552 C   0  0  0  0  0  0  0  0  0  0  0  0
   10.7753   12.3917  -12.3236 C   0  0  0  0  0  0  0  0  0  0  0  0
    9.9398   11.5818  -11.5908 C   0  0  0  0  0  0  0  0  0  0  0  0
   13.2855   17.9493   -9.6064 C   0  0  0  0  0  0  0  0  0  0  0  0
   14.6041   20.0363   -9.7889 C   0  0  0  0  0  0  0  0  0  0  0  0
   15.8684   20.1821   -8.9683 C   0  0  2  0  0  0  0  0  0  0  0  0
   14.4026   18.6371   -6.6342 C   0  0  0  0  0  0  0  0  0  0  0  0
   14.9406   17.4898   -7.2055 C   0  0  0  0  0  0  0  0  0  0  0  0
   15.8380   16.7251   -6.4822 C   0  0  0  0  0  0  0  0  0  0  0  0
   16.2216   17.0985   -5.1847 C   0  0  0  0  0  0  0  0  0  0  0  0
   15.6771   18.2644   -4.6320 C   0  0  0  0  0  0  0  0  0  0  0  0
   14.7714   19.0234   -5.3483 C   0  0  0  0  0  0  0  0  0  0  0  0
   16.5793   21.4850   -9.1420 C   0  0  0  0  0  0  0  0  0  0  0  0
   16.7887   19.0051   -9.3551 C   0  0  0  0  0  0  0  0  0  0  0  0
   15.6707   17.0879  -12.0100 C   0  0  0  0  0  0  0  0  0  0  0  0
   12.7160   16.2355  -11.6198 N   0  0  0  0  0  0  0  0  0  0  0  0
   13.5065   19.3177   -9.1249 N   0  0  0  0  0  0  0  0  0  0  0  0
   17.1182   16.3366   -4.4657 N   0  0  0  0  0  0  0  0  0  0  0  0
   13.4938   16.3708  -13.6718 O   0  0  0  0  0  0  0  0  0  0  0  0
   11.2239   16.3874  -13.3374 O   0  0  0  0  0  0  0  0  0  0  0  0
   11.1343   18.5796  -10.3605 O   0  0  0  0  0  0  0  0  0  0  0  0
   11.9342   19.2085   -7.2168 O   0  0  0  0  0  0  0  0  0  0  0  0
   13.6196   20.9990   -7.3578 O   0  0  0  0  0  0  0  0  0  0  0  0
   16.3397   16.9057  -13.2747 O   0  0  0  0  0  0  0  0  0  0  0  0
   13.2599   19.6290   -7.5433 S   0  0  1  0  0  0  0  0  0  0  0  0
   15.4911   16.8159  -15.1970 H   0  0  0  0  0  0  0  0  0  0  0  0
   15.9273   18.4411  -14.6836 H   0  0  0  0  0  0  0  0  0  0  0  0
   14.9177   19.1168  -12.2643 H   0  0  0  0  0  0  0  0  0  0  0  0
   13.7487   18.0819  -11.5212 H   0  0  0  0  0  0  0  0  0  0  0  0
   13.4209   18.3018  -14.1844 H   0  0  0  0  0  0  0  0  0  0  0  0
   10.7056   16.1825  -10.9580 H   0  0  0  0  0  0  0  0  0  0  0  0
   11.4107   17.2884   -8.7434 H   0  0  0  0  0  0  0  0  0  0  0  0
   12.9579   14.7132   -9.6006 H   0  0  0  0  0  0  0  0  0  0  0  0
   11.4101   15.0981   -8.7388 H   0  0  0  0  0  0  0  0  0  0  0  0
   10.1956   13.1171   -8.5854 H   0  0  0  0  0  0  0  0  0  0  0  0
   12.0768   14.1091  -12.3167 H   0  0  0  0  0  0  0  0  0  0  0  0
    9.0768   11.1860   -9.6643 H   0  0  0  0  0  0  0  0  0  0  0  0
   10.9414   12.1848  -13.3911 H   0  0  0  0  0  0  0  0  0  0  0  0
    9.4343   10.7316  -12.0721 H   0  0  0  0  0  0  0  0  0  0  0  0
   13.7860   17.2629   -8.9077 H   0  0  0  0  0  0  0  0  0  0  0  0
   13.6892   17.9288  -10.6294 H   0  0  0  0  0  0  0  0  0  0  0  0
   14.2457   21.0445  -10.0440 H   0  0  0  0  0  0  0  0  0  0  0  0
   14.8777   19.4322  -10.6666 H   0  0  0  0  0  0  0  0  0  0  0  0
   15.5908   20.1670   -7.9041 H   0  0  0  0  0  0  0  0  0  0  0  0
   14.6548   17.1922   -8.2252 H   0  0  0  0  0  0  0  0  0  0  0  0
   16.2568   15.8118   -6.9300 H   0  0  0  0  0  0  0  0  0  0  0  0
   15.9726   18.5784   -3.6200 H   0  0  0  0  0  0  0  0  0  0  0  0
   14.3418   19.9327   -4.9027 H   0  0  0  0  0  0  0  0  0  0  0  0
   16.8114   21.9105   -8.1545 H   0  0  0  0  0  0  0  0  0  0  0  0
   17.5133   21.3217   -9.6996 H   0  0  0  0  0  0  0  0  0  0  0  0
   15.9364   22.1820   -9.6996 H   0  0  0  0  0  0  0  0  0  0  0  0
   17.1674   18.5207   -8.4430 H   0  0  0  0  0  0  0  0  0  0  0  0
   16.2197   18.2746   -9.9490 H   0  0  0  0  0  0  0  0  0  0  0  0
   17.6349   19.3810   -9.9490 H   0  0  0  0  0  0  0  0  0  0  0  0
   16.3701   17.4877  -11.2611 H   0  0  0  0  0  0  0  0  0  0  0  0
   15.2831   16.1363  -11.6171 H   0  0  0  0  0  0  0  0  0  0  0  0
   13.7149   16.1659  -11.3784 H   0  0  0  0  0  0  0  0  0  0  0  0
   17.3907   16.6228   -3.5145 H   0  0  0  0  0  0  0  0  0  0  0  0
   17.5156   15.4813   -4.8798 H   0  0  0  0  0  0  0  0  0  0  0  0
   10.7456   19.1701   -9.6674 H   0  0  0  0  0  0  0  0  0  0  0  0
  1  4  1  0
  1 34  1  0
  2  4  1  0
  2 25  1  0
  3 26  1  0
  3 29  1  0
  3 30  2  0
  4 29  1  0
  5  6  1  0
  5  7  1  0
  5 26  1  0
  6 14  1  0
  6 31  1  0
  7  8  1  0
  8  9  2  0
  8 10  1  0
  9 11  1  0
 10 12  2  0
 11 13  2  0
 12 13  1  0
 14 27  1  0
 15 16  1  0
 15 27  1  0
 16 23  1  0
 16 24  1  0
 17 18  2  0
 17 22  1  0
 17 35  1  0
 18 19  1  0
 19 20  2  0
 20 21  1  0
 20 28  1  0
 21 22  2  0
 25 34  1  0
 35 27  1  6
 32 35  2  0
 33 35  2  0
  1 36  1  0
  1 37  1  0
  2 38  1  0
  2 39  1  0
  4 40  1  6
  5 41  1  6
  6 42  1  1
  7 43  1  0
  7 44  1  0
  9 45  1  0
 10 46  1  0
 11 47  1  0
 12 48  1  0
 13 49  1  0
 14 50  1  0
 14 51  1  0
 15 52  1  0
 15 53  1  0
 16 54  1  1
 18 55  1  0
 19 56  1  0
 21 57  1  0
 22 58  1  0
 23 59  1  0
 23 60  1  0
 23 61  1  0
 24 62  1  0
 24 63  1  0
 24 64  1  0
 25 65  1  0
 25 66  1  0
 26 67  1  0
 28 68  1  0
 28 69  1  0
 31 70  1  0
M  END
>  <filename_input>  (15) 
6XCT_478_docked.sdf

>  <pdb_id>  (15) 
6XCT_478

>  <pose_rank>  (15) 
14

>  <num_atoms_heavy>  (15) 
35

>  <num_torsions>  (15) 
12

>  <pose>  (15) 
[11.8396600540861, 17.508216153366114, -9.732188695110878, -0.19620455305998008, 3.7432292679786867, 4.40777940497855, 2.7585089151214137, 0.3736954797046862, 1.7316949312256058, -1.7539238429902637, -0.3908222281806682, -0.8593406019637745, -2.0421347881151672, -0.5330312830741578, 5.466133011094045, 1.0675985967082502, 2.7072781680651605, -1.9464362027036626]

>  <energy>  (15) 
-537.7953756830365

>  <inter_energy>  (15) 
-712.5325539937996

>  <intra_energy>  (15) 
186.45136113945694

>  <rmsd>  (15) 
5.56571

>  <sdf_rank>  (15) 
0

$$$$

     RDKit          3D

 70 72  0  0  0  0  0  0  0  0999 V2000
   11.7043   12.0693  -12.6601 C   0  0  0  0  0  0  0  0  0  0  0  0
   10.4626   13.8218  -13.6101 C   0  0  0  0  0  0  0  0  0  0  0  0
   11.5052   15.2955  -11.0029 C   0  0  0  0  0  0  0  0  0  0  0  0
   11.0314   13.3930  -12.2404 C   0  0  2  0  0  0  0  0  0  0  0  0
   12.2046   17.4094  -10.0121 C   0  0  2  0  0  0  0  0  0  0  0  0
   13.3507   18.4044  -10.2509 C   0  0  1  0  0  0  0  0  0  0  0  0
   11.9822   17.0574   -8.5332 C   0  0  0  0  0  0  0  0  0  0  0  0
   12.7370   17.9980   -7.6136 C   0  0  0  0  0  0  0  0  0  0  0  0
   12.2636   19.2765   -7.3625 C   0  0  0  0  0  0  0  0  0  0  0  0
   13.9121   17.5988   -6.9927 C   0  0  0  0  0  0  0  0  0  0  0  0
   12.9439   20.1362   -6.5129 C   0  0  0  0  0  0  0  0  0  0  0  0
   14.5889   18.4579   -6.1397 C   0  0  0  0  0  0  0  0  0  0  0  0
   14.1022   19.7215   -5.8997 C   0  0  0  0  0  0  0  0  0  0  0  0
   14.6915   17.7842   -9.9069 C   0  0  0  0  0  0  0  0  0  0  0  0
   15.5963   19.8649  -10.8966 C   0  0  0  0  0  0  0  0  0  0  0  0
   15.9905   21.0815  -10.0857 C   0  0  2  0  0  0  0  0  0  0  0  0
   17.8620   18.6503  -12.1396 C   0  0  0  0  0  0  0  0  0  0  0  0
   18.9047   19.5539  -11.9706 C   0  0  0  0  0  0  0  0  0  0  0  0
   19.4043   20.2306  -13.0687 C   0  0  0  0  0  0  0  0  0  0  0  0
   18.8810   20.0083  -14.3520 C   0  0  0  0  0  0  0  0  0  0  0  0
   17.8387   19.0850  -14.5023 C   0  0  0  0  0  0  0  0  0  0  0  0
   17.3302   18.4166  -13.4050 C   0  0  0  0  0  0  0  0  0  0  0  0
   17.3342   21.6450  -10.4175 C   0  0  0  0  0  0  0  0  0  0  0  0
   15.9267   20.6666   -8.6005 C   0  0  0  0  0  0  0  0  0  0  0  0
   11.6713   13.5512  -14.4835 C   0  0  0  0  0  0  0  0  0  0  0  0
   12.4571   16.1969  -10.7789 N   0  0  0  0  0  0  0  0  0  0  0  0
   15.8793   18.5700  -10.2601 N   0  0  0  0  0  0  0  0  0  0  0  0
   19.3816   20.6818  -15.4461 N   0  0  0  0  0  0  0  0  0  0  0  0
   12.0139   14.2854  -11.7709 O   0  0  0  0  0  0  0  0  0  0  0  0
   10.3569   15.3319  -10.5776 O   0  0  0  0  0  0  0  0  0  0  0  0
   13.4171   18.7970  -11.6226 O   0  0  0  0  0  0  0  0  0  0  0  0
   16.8122   16.4722  -11.1841 O   0  0  0  0  0  0  0  0  0  0  0  0
   18.1513   17.8896   -9.6794 O   0  0  0  0  0  0  0  0  0  0  0  0
   12.2832   12.3582  -13.9518 O   0  0  0  0  0  0  0  0  0  0  0  0
   17.2144   17.7730  -10.7514 S   0  0  1  0  0  0  0  0  0  0  0  0
   12.4838   11.7825  -11.9389 H   0  0  0  0  0  0  0  0  0  0  0  0
   10.9948   11.2295  -12.6953 H   0  0  0  0  0  0  0  0  0  0  0  0
    9.5985   13.2083  -13.9051 H   0  0  0  0  0  0  0  0  0  0  0  0
   10.0765   14.8509  -13.6536 H   0  0  0  0  0  0  0  0  0  0  0  0
   10.2844   13.3406  -11.4346 H   0  0  0  0  0  0  0  0  0  0  0  0
   11.2805   17.9032  -10.3472 H   0  0  0  0  0  0  0  0  0  0  0  0
   13.1456   19.2733   -9.6082 H   0  0  0  0  0  0  0  0  0  0  0  0
   10.9075   17.1249   -8.3083 H   0  0  0  0  0  0  0  0  0  0  0  0
   12.3568   16.0372   -8.3632 H   0  0  0  0  0  0  0  0  0  0  0  0
   11.3343   19.6143   -7.8444 H   0  0  0  0  0  0  0  0  0  0  0  0
   14.3108   16.5907   -7.1788 H   0  0  0  0  0  0  0  0  0  0  0  0
   12.5567   21.1494   -6.3299 H   0  0  0  0  0  0  0  0  0  0  0  0
   15.5185   18.1273   -5.6533 H   0  0  0  0  0  0  0  0  0  0  0  0
   14.6385   20.3988   -5.2188 H   0  0  0  0  0  0  0  0  0  0  0  0
   14.7132   17.6131   -8.8205 H   0  0  0  0  0  0  0  0  0  0  0  0
   14.7551   16.8674  -10.5115 H   0  0  0  0  0  0  0  0  0  0  0  0
   14.5147   19.9203  -11.0893 H   0  0  0  0  0  0  0  0  0  0  0  0
   16.2075   19.8960  -11.8106 H   0  0  0  0  0  0  0  0  0  0  0  0
   15.2908   21.8957  -10.3256 H   0  0  0  0  0  0  0  0  0  0  0  0
   19.3293   19.7294  -10.9712 H   0  0  0  0  0  0  0  0  0  0  0  0
   20.2230   20.9529  -12.9343 H   0  0  0  0  0  0  0  0  0  0  0  0
   17.4217   18.8905  -15.5014 H   0  0  0  0  0  0  0  0  0  0  0  0
   16.5053   17.7000  -13.5312 H   0  0  0  0  0  0  0  0  0  0  0  0
   17.8762   21.8723   -9.4877 H   0  0  0  0  0  0  0  0  0  0  0  0
   17.9051   20.9105  -11.0045 H   0  0  0  0  0  0  0  0  0  0  0  0
   17.2104   22.5670  -11.0045 H   0  0  0  0  0  0  0  0  0  0  0  0
   16.0633   21.5545   -7.9656 H   0  0  0  0  0  0  0  0  0  0  0  0
   14.9479   20.2115   -8.3887 H   0  0  0  0  0  0  0  0  0  0  0  0
   16.7233   19.9383   -8.3887 H   0  0  0  0  0  0  0  0  0  0  0  0
   11.3614   13.3902  -15.5266 H   0  0  0  0  0  0  0  0  0  0  0  0
   12.3707   14.4002  -14.4798 H   0  0  0  0  0  0  0  0  0  0  0  0
   13.4004   16.0328  -11.1587 H   0  0  0  0  0  0  0  0  0  0  0  0
   18.9878   20.5086  -16.3820 H   0  0  0  0  0  0  0  0  0  0  0  0
   20.1494   21.3581  -15.3275 H   0  0  0  0  0  0  0  0  0  0  0  0
   13.5821   19.7715  -11.6794 H   0  0  0  0  0  0  0  0  0  0  0  0
  1  4  1  0
  1 34  1  0
  2  4  1  0
  2 25  1  0
  3 26  1  0
  3 29  1  0
  3 30  2  0
  4 29  1  0
  5  6  1  0
  5  7  1  0
  5 26  1  0
  6 14  1  0
  6 31  1  0
  7  8  1  0
  8  9  2  0
  8 10  1  0
  9 11  1  0
 10 12  2  0
 11 13  2  0
 12 13  1  0
 14 27  1  0
 15 16  1  0
 15 27  1  0
 16 23  1  0
 16 24  1  0
 17 18  2  0
 17 22  1  0
 17 35  1  0
 18 19  1  0
 19 20  2  0
 20 21  1  0
 20 28  1  0
 21 22  2  0
 25 34  1  0
 35 27  1  1
 32 35  2  0
 33 35  2  0
  1 36  1  0
  1 37  1  0
  2 38  1  0
  2 39  1  0
  4 40  1  1
  5 41  1  6
  6 42  1  1
  7 43  1  0
  7 44  1  0
  9 45  1  0
 10 46  1  0
 11 47  1  0
 12 48  1  0
 13 49  1  0
 14 50  1  0
 14 51  1  0
 15 52  1  0
 15 53  1  0
 16 54  1  1
 18 55  1  0
 19 56  1  0
 21 57  1  0
 22 58  1  0
 23 59  1  0
 23 60  1  0
 23 61  1  0
 24 62  1  0
 24 63  1  0
 24 64  1  0
 25 65  1  0
 25 66  1  0
 26 67  1  0
 28 68  1  0
 28 69  1  0
 31 70  1  0
M  END
>  <filename_input>  (16) 
6XCT_478_docked.sdf

>  <pdb_id>  (16) 
6XCT_478

>  <pose_rank>  (16) 
15

>  <num_atoms_heavy>  (16) 
35

>  <num_torsions>  (16) 
12

>  <pose>  (16) 
[13.350701573572547, 18.404429941345356, -10.250884586976216, 3.059966680442053, 1.7347636701575913, 3.229727368630462, 2.4168876419665364, -0.5598836056944958, 0.13380726279323904, -1.2082099000759057, 3.3947911862885514, 2.7848826974086816, 4.343010851580618, 1.9302005582727706, 0.48956978921266797, 3.168843931743697, 0.24821920479906026, 2.212595415917826]

>  <energy>  (16) 
-602.8334530286959

>  <inter_energy>  (16) 
-729.0801221286644

>  <intra_energy>  (16) 
135.1480545480772

>  <rmsd>  (16) 
5.1403

>  <sdf_rank>  (16) 
0

$$$$

     RDKit          3D

 70 72  0  0  0  0  0  0  0  0999 V2000
   13.7579   12.3910  -15.1609 C   0  0  0  0  0  0  0  0  0  0  0  0
   11.7724   11.4023  -14.3888 C   0  0  0  0  0  0  0  0  0  0  0  0
   12.2676   15.0266  -14.3249 C   0  0  0  0  0  0  0  0  0  0  0  0
   12.5542   12.7270  -14.2557 C   0  0  2  0  0  0  0  0  0  0  0  0
   12.5461   16.1892  -12.2012 C   0  0  2  0  0  0  0  0  0  0  0  0
   11.2915   16.9742  -11.7884 C   0  0  1  0  0  0  0  0  0  0  0  0
   13.5817   17.0264  -12.9676 C   0  0  0  0  0  0  0  0  0  0  0  0
   14.6455   17.5857  -12.0425 C   0  0  0  0  0  0  0  0  0  0  0  0
   14.4600   18.8001  -11.4001 C   0  0  0  0  0  0  0  0  0  0  0  0
   15.8238   16.8914  -11.8076 C   0  0  0  0  0  0  0  0  0  0  0  0
   15.4246   19.3100  -10.5439 C   0  0  0  0  0  0  0  0  0  0  0  0
   16.7856   17.4004  -10.9475 C   0  0  0  0  0  0  0  0  0  0  0  0
   16.5826   18.6051  -10.3162 C   0  0  0  0  0  0  0  0  0  0  0  0
   10.4219   16.1582  -10.8510 C   0  0  0  0  0  0  0  0  0  0  0  0
   12.3210   15.7388   -9.3196 C   0  0  0  0  0  0  0  0  0  0  0  0
   12.0744   16.4147   -7.9872 C   0  0  2  0  0  0  0  0  0  0  0  0
   10.0382   12.7765   -9.3510 C   0  0  0  0  0  0  0  0  0  0  0  0
    8.9789   12.0489   -9.8809 C   0  0  0  0  0  0  0  0  0  0  0  0
    8.1199   11.3779   -9.0294 C   0  0  0  0  0  0  0  0  0  0  0  0
    8.3105   11.4121   -7.6391 C   0  0  0  0  0  0  0  0  0  0  0  0
    9.3908   12.1411   -7.1264 C   0  0  0  0  0  0  0  0  0  0  0  0
   10.2432   12.8218   -7.9746 C   0  0  0  0  0  0  0  0  0  0  0  0
   10.6782   16.9077   -7.7855 C   0  0  0  0  0  0  0  0  0  0  0  0
   13.0821   17.5792   -7.8852 C   0  0  0  0  0  0  0  0  0  0  0  0
   11.8665   11.2010  -15.8879 C   0  0  0  0  0  0  0  0  0  0  0  0
   12.1481   15.0382  -13.0004 N   0  0  0  0  0  0  0  0  0  0  0  0
   11.1216   15.2051   -9.9820 N   0  0  0  0  0  0  0  0  0  0  0  0
    7.4549   10.7407   -6.7915 N   0  0  0  0  0  0  0  0  0  0  0  0
   11.8502   13.8161  -14.8037 O   0  0  0  0  0  0  0  0  0  0  0  0
   12.6621   15.9505  -15.0259 O   0  0  0  0  0  0  0  0  0  0  0  0
   11.6373   18.1726  -11.0925 O   0  0  0  0  0  0  0  0  0  0  0  0
   12.4697   13.1407  -10.1963 O   0  0  0  0  0  0  0  0  0  0  0  0
   10.6075   13.5940  -11.7433 O   0  0  0  0  0  0  0  0  0  0  0  0
   13.1794   11.6628  -16.2665 O   0  0  0  0  0  0  0  0  0  0  0  0
   11.1484   13.6351  -10.4218 S   0  0  1  0  0  0  0  0  0  0  0  0
   14.2489   13.3099  -15.5137 H   0  0  0  0  0  0  0  0  0  0  0  0
   14.5314   11.8123  -14.6348 H   0  0  0  0  0  0  0  0  0  0  0  0
   12.2554   10.5841  -13.8345 H   0  0  0  0  0  0  0  0  0  0  0  0
   10.7499   11.4213  -13.9838 H   0  0  0  0  0  0  0  0  0  0  0  0
   12.7752   13.0218  -13.2192 H   0  0  0  0  0  0  0  0  0  0  0  0
   13.0422   15.8721  -11.2720 H   0  0  0  0  0  0  0  0  0  0  0  0
   10.7521   17.2074  -12.7183 H   0  0  0  0  0  0  0  0  0  0  0  0
   14.0652   16.3906  -13.7238 H   0  0  0  0  0  0  0  0  0  0  0  0
   13.0585   17.8712  -13.4394 H   0  0  0  0  0  0  0  0  0  0  0  0
   13.5337   19.3678  -11.5720 H   0  0  0  0  0  0  0  0  0  0  0  0
   15.9968   15.9276  -12.3086 H   0  0  0  0  0  0  0  0  0  0  0  0
   15.2631   20.2781  -10.0472 H   0  0  0  0  0  0  0  0  0  0  0  0
   17.7142   16.8382  -10.7697 H   0  0  0  0  0  0  0  0  0  0  0  0
   17.3450   19.0037   -9.6308 H   0  0  0  0  0  0  0  0  0  0  0  0
    9.8735   16.8603  -10.2058 H   0  0  0  0  0  0  0  0  0  0  0  0
    9.7809   15.5462  -11.5026 H   0  0  0  0  0  0  0  0  0  0  0  0
   12.7834   16.4746   -9.9941 H   0  0  0  0  0  0  0  0  0  0  0  0
   12.9642   14.8720   -9.1079 H   0  0  0  0  0  0  0  0  0  0  0  0
   12.2132   15.6674   -7.1920 H   0  0  0  0  0  0  0  0  0  0  0  0
    8.8250   12.0070  -10.9693 H   0  0  0  0  0  0  0  0  0  0  0  0
    7.2757   10.8098   -9.4473 H   0  0  0  0  0  0  0  0  0  0  0  0
    9.5620   12.1722   -6.0403 H   0  0  0  0  0  0  0  0  0  0  0  0
   11.0838   13.3994   -7.5625 H   0  0  0  0  0  0  0  0  0  0  0  0
   10.4676   16.9821   -6.7084 H   0  0  0  0  0  0  0  0  0  0  0  0
   10.5687   17.8989   -8.2498 H   0  0  0  0  0  0  0  0  0  0  0  0
    9.9706   16.2051   -8.2498 H   0  0  0  0  0  0  0  0  0  0  0  0
   13.2767   17.8041   -6.8262 H   0  0  0  0  0  0  0  0  0  0  0  0
   14.0231   17.2941   -8.3784 H   0  0  0  0  0  0  0  0  0  0  0  0
   12.6648   18.4695   -8.3784 H   0  0  0  0  0  0  0  0  0  0  0  0
   11.7479   10.1367  -16.1394 H   0  0  0  0  0  0  0  0  0  0  0  0
   11.0759   11.7504  -16.4199 H   0  0  0  0  0  0  0  0  0  0  0  0
   11.7628   14.2091  -12.5259 H   0  0  0  0  0  0  0  0  0  0  0  0
    7.6070   10.7746   -5.7733 H   0  0  0  0  0  0  0  0  0  0  0  0
    6.6636   10.2054   -7.1765 H   0  0  0  0  0  0  0  0  0  0  0  0
   11.5911   18.0125  -10.1166 H   0  0  0  0  0  0  0  0  0  0  0  0
  1  4  1  0
  1 34  1  0
  2  4  1  0
  2 25  1  0
  3 26  1  0
  3 29  1  0
  3 30  2  0
  4 29  1  0
  5  6  1  0
  5  7  1  0
  5 26  1  0
  6 14  1  0
  6 31  1  0
  7  8  1  0
  8  9  2  0
  8 10  1  0
  9 11  1  0
 10 12  2  0
 11 13  2  0
 12 13  1  0
 14 27  1  0
 15 16  1  0
 15 27  1  0
 16 23  1  0
 16 24  1  0
 17 18  2  0
 17 22  1  0
 17 35  1  0
 18 19  1  0
 19 20  2  0
 20 21  1  0
 20 28  1  0
 21 22  2  0
 25 34  1  0
 35 27  1  1
 32 35  2  0
 33 35  2  0
  1 36  1  0
  1 37  1  0
  2 38  1  0
  2 39  1  0
  4 40  1  1
  5 41  1  1
  6 42  1  6
  7 43  1  0
  7 44  1  0
  9 45  1  0
 10 46  1  0
 11 47  1  0
 12 48  1  0
 13 49  1  0
 14 50  1  0
 14 51  1  0
 15 52  1  0
 15 53  1  0
 16 54  1  1
 18 55  1  0
 19 56  1  0
 21 57  1  0
 22 58  1  0
 23 59  1  0
 23 60  1  0
 23 61  1  0
 24 62  1  0
 24 63  1  0
 24 64  1  0
 25 65  1  0
 25 66  1  0
 26 67  1  0
 28 68  1  0
 28 69  1  0
 31 70  1  0
M  END
>  <filename_input>  (17) 
6XCT_478_docked.sdf

>  <pdb_id>  (17) 
6XCT_478

>  <pose_rank>  (17) 
16

>  <num_atoms_heavy>  (17) 
35

>  <num_torsions>  (17) 
12

>  <pose>  (17) 
[11.291501782263486, 16.974171264294643, -11.788431026615909, -1.7508595000936362, 2.88329270085177, 1.2271700569336899, -8.021329937946588, 4.100871688547826, 2.104653262235765, -0.007809039121413694, -1.454830594577137, -0.09212576824126033, 1.8715459235847645, -3.5643489419215477, -3.7516186840894403, 3.6037019790258724, -0.2005830833103519, 0.15532046805200855]

>  <energy>  (17) 
-537.3563620272771

>  <inter_energy>  (17) 
-714.9083167606167

>  <intra_energy>  (17) 
166.74836605339044

>  <rmsd>  (17) 
7.15453

>  <sdf_rank>  (17) 
0

$$$$

     RDKit          3D

 70 72  0  0  0  0  0  0  0  0999 V2000
   14.9115   18.6697  -13.0519 C   0  0  0  0  0  0  0  0  0  0  0  0
   15.0824   17.5540  -15.1114 C   0  0  0  0  0  0  0  0  0  0  0  0
   12.6499   17.4036  -12.4110 C   0  0  0  0  0  0  0  0  0  0  0  0
   14.5932   17.2924  -13.6706 C   0  0  2  0  0  0  0  0  0  0  0  0
   12.1501   16.3963  -10.2489 C   0  0  2  0  0  0  0  0  0  0  0  0
   10.6704   15.9827  -10.2382 C   0  0  1  0  0  0  0  0  0  0  0  0
   12.4132   17.7876   -9.6525 C   0  0  0  0  0  0  0  0  0  0  0  0
   13.6554   17.7987   -8.7825 C   0  0  0  0  0  0  0  0  0  0  0  0
   13.5536   17.7832   -7.4001 C   0  0  0  0  0  0  0  0  0  0  0  0
   14.9226   17.8126   -9.3479 C   0  0  0  0  0  0  0  0  0  0  0  0
   14.6868   17.7811   -6.6003 C   0  0  0  0  0  0  0  0  0  0  0  0
   16.0550   17.8058   -8.5469 C   0  0  0  0  0  0  0  0  0  0  0  0
   15.9345   17.7869   -7.1772 C   0  0  0  0  0  0  0  0  0  0  0  0
   10.3385   15.1144  -11.4368 C   0  0  0  0  0  0  0  0  0  0  0  0
   11.0285   13.1957  -10.0331 C   0  0  0  0  0  0  0  0  0  0  0  0
   10.1548   12.0153   -9.6640 C   0  0  2  0  0  0  0  0  0  0  0  0
   11.8660   11.4610  -12.4972 C   0  0  0  0  0  0  0  0  0  0  0  0
   10.9534   10.7261  -13.2450 C   0  0  0  0  0  0  0  0  0  0  0  0
   10.9868    9.3442  -13.1939 C   0  0  0  0  0  0  0  0  0  0  0  0
   11.9371    8.6747  -12.4071 C   0  0  0  0  0  0  0  0  0  0  0  0
   12.8552    9.4337  -11.6707 C   0  0  0  0  0  0  0  0  0  0  0  0
   12.8159   10.8144  -11.7111 C   0  0  0  0  0  0  0  0  0  0  0  0
    8.8645   11.9343  -10.4134 C   0  0  0  0  0  0  0  0  0  0  0  0
    9.8963   12.1102   -8.1454 C   0  0  0  0  0  0  0  0  0  0  0  0
   14.4658   18.9184  -15.3457 C   0  0  0  0  0  0  0  0  0  0  0  0
   12.6525   16.3382  -11.6150 N   0  0  0  0  0  0  0  0  0  0  0  0
   10.8201   13.7292  -11.3874 N   0  0  0  0  0  0  0  0  0  0  0  0
   11.9709    7.2970  -12.3590 N   0  0  0  0  0  0  0  0  0  0  0  0
   13.2046   17.0673  -13.6144 O   0  0  0  0  0  0  0  0  0  0  0  0
   12.2038   18.5116  -12.1390 O   0  0  0  0  0  0  0  0  0  0  0  0
   10.3561   15.2171   -9.0740 O   0  0  0  0  0  0  0  0  0  0  0  0
   13.1477   13.7069  -12.2281 O   0  0  0  0  0  0  0  0  0  0  0  0
   11.2448   13.6197  -13.7895 O   0  0  0  0  0  0  0  0  0  0  0  0
   14.5580   19.6147  -14.0859 O   0  0  0  0  0  0  0  0  0  0  0  0
   11.8426   13.2253  -12.5534 S   0  0  1  0  0  0  0  0  0  0  0  0
   14.3097   18.8389  -12.1468 H   0  0  0  0  0  0  0  0  0  0  0  0
   15.9633   18.7588  -12.7423 H   0  0  0  0  0  0  0  0  0  0  0  0
   16.1803   17.5848  -15.1720 H   0  0  0  0  0  0  0  0  0  0  0  0
   14.8040   16.7838  -15.8458 H   0  0  0  0  0  0  0  0  0  0  0  0
   15.0451   16.4121  -13.1903 H   0  0  0  0  0  0  0  0  0  0  0  0
   12.6834   15.6846   -9.6015 H   0  0  0  0  0  0  0  0  0  0  0  0
   10.0878   16.9156  -10.2580 H   0  0  0  0  0  0  0  0  0  0  0  0
   12.5461   18.5080  -10.4731 H   0  0  0  0  0  0  0  0  0  0  0  0
   11.5521   18.0602   -9.0247 H   0  0  0  0  0  0  0  0  0  0  0  0
   12.5591   17.7725   -6.9303 H   0  0  0  0  0  0  0  0  0  0  0  0
   15.0302   17.8293  -10.4425 H   0  0  0  0  0  0  0  0  0  0  0  0
   14.5870   17.7747   -5.5048 H   0  0  0  0  0  0  0  0  0  0  0  0
   17.0531   17.8156   -9.0091 H   0  0  0  0  0  0  0  0  0  0  0  0
   16.8344   17.7764   -6.5447 H   0  0  0  0  0  0  0  0  0  0  0  0
    9.2434   15.0854  -11.5370 H   0  0  0  0  0  0  0  0  0  0  0  0
   10.8595   15.5767  -12.2881 H   0  0  0  0  0  0  0  0  0  0  0  0
   10.8295   14.0043   -9.3144 H   0  0  0  0  0  0  0  0  0  0  0  0
   12.0651   12.8288  -10.0056 H   0  0  0  0  0  0  0  0  0  0  0  0
   10.6865   11.0938   -9.9435 H   0  0  0  0  0  0  0  0  0  0  0  0
   10.2102   11.2395  -13.8727 H   0  0  0  0  0  0  0  0  0  0  0  0
   10.2588    8.7619  -13.7779 H   0  0  0  0  0  0  0  0  0  0  0  0
   13.6132    8.9270  -11.0554 H   0  0  0  0  0  0  0  0  0  0  0  0
   13.5352   11.4025  -11.1222 H   0  0  0  0  0  0  0  0  0  0  0  0
    8.0288   11.8818   -9.7001 H   0  0  0  0  0  0  0  0  0  0  0  0
    8.7512   12.8271  -11.0459 H   0  0  0  0  0  0  0  0  0  0  0  0
    8.8638   11.0343  -11.0459 H   0  0  0  0  0  0  0  0  0  0  0  0
   10.7929   11.7811   -7.5996 H   0  0  0  0  0  0  0  0  0  0  0  0
    9.6654   13.1517   -7.8771 H   0  0  0  0  0  0  0  0  0  0  0  0
    9.0464   11.4654   -7.8771 H   0  0  0  0  0  0  0  0  0  0  0  0
   15.0217   19.4611  -16.1245 H   0  0  0  0  0  0  0  0  0  0  0  0
   13.4233   18.8376  -15.6874 H   0  0  0  0  0  0  0  0  0  0  0  0
   13.0204   15.4460  -11.9749 H   0  0  0  0  0  0  0  0  0  0  0  0
   12.6738    6.8191  -11.7772 H   0  0  0  0  0  0  0  0  0  0  0  0
   11.2932    6.7459  -12.9048 H   0  0  0  0  0  0  0  0  0  0  0  0
   10.5724   15.7439   -8.2643 H   0  0  0  0  0  0  0  0  0  0  0  0
  1  4  1  0
  1 34  1  0
  2  4  1  0
  2 25  1  0
  3 26  1  0
  3 29  1  0
  3 30  2  0
  4 29  1  0
  5  6  1  0
  5  7  1  0
  5 26  1  0
  6 14  1  0
  6 31  1  0
  7  8  1  0
  8  9  2  0
  8 10  1  0
  9 11  1  0
 10 12  2  0
 11 13  2  0
 12 13  1  0
 14 27  1  0
 15 16  1  0
 15 27  1  0
 16 23  1  0
 16 24  1  0
 17 18  2  0
 17 22  1  0
 17 35  1  0
 18 19  1  0
 19 20  2  0
 20 21  1  0
 20 28  1  0
 21 22  2  0
 25 34  1  0
 35 27  1  1
 32 35  2  0
 33 35  2  0
  1 36  1  0
  1 37  1  0
  2 38  1  0
  2 39  1  0
  4 40  1  1
  5 41  1  1
  6 42  1  6
  7 43  1  0
  7 44  1  0
  9 45  1  0
 10 46  1  0
 11 47  1  0
 12 48  1  0
 13 49  1  0
 14 50  1  0
 14 51  1  0
 15 52  1  0
 15 53  1  0
 16 54  1  1
 18 55  1  0
 19 56  1  0
 21 57  1  0
 22 58  1  0
 23 59  1  0
 23 60  1  0
 23 61  1  0
 24 62  1  0
 24 63  1  0
 24 64  1  0
 25 65  1  0
 25 66  1  0
 26 67  1  0
 28 68  1  0
 28 69  1  0
 31 70  1  0
M  END
>  <filename_input>  (18) 
6XCT_478_docked.sdf

>  <pdb_id>  (18) 
6XCT_478

>  <pose_rank>  (18) 
17

>  <num_atoms_heavy>  (18) 
35

>  <num_torsions>  (18) 
12

>  <pose>  (18) 
[10.6704048242998, 15.982711970627264, -10.238172894398042, -1.8170498101813812, 0.6465816642409159, 1.7136373778358942, -8.754421904898585, 3.9403034045198932, 1.5141111112898096, 0.8224730242355047, -0.6901436923417803, -0.355021727351462, 2.6426966064152775, -3.919905639974863, -4.760560081006232, 3.0190208116012633, 0.30566079924823525, 0.10462959071350937]

>  <energy>  (18) 
-593.0795104880444

>  <inter_energy>  (18) 
-741.6080966601683

>  <intra_energy>  (18) 
156.3769732665097

>  <rmsd>  (18) 
8.28842

>  <sdf_rank>  (18) 
0

$$$$

     RDKit          3D

 70 72  0  0  0  0  0  0  0  0999 V2000
   20.2984   20.3506  -11.7015 C   0  0  0  0  0  0  0  0  0  0  0  0
   20.0857   22.6164  -12.2815 C   0  0  0  0  0  0  0  0  0  0  0  0
   17.2382   21.1792  -10.6761 C   0  0  0  0  0  0  0  0  0  0  0  0
   19.1976   21.4148  -11.8930 C   0  0  2  0  0  0  0  0  0  0  0  0
   15.8648   19.4653  -11.7324 C   0  0  2  0  0  0  0  0  0  0  0  0
   15.7210   18.3698  -10.6647 C   0  0  1  0  0  0  0  0  0  0  0  0
   15.7796   18.9447  -13.1755 C   0  0  0  0  0  0  0  0  0  0  0  0
   17.0996   18.3588  -13.6387 C   0  0  0  0  0  0  0  0  0  0  0  0
   18.0943   19.1731  -14.1573 C   0  0  0  0  0  0  0  0  0  0  0  0
   17.3483   16.9968  -13.5441 C   0  0  0  0  0  0  0  0  0  0  0  0
   19.3076   18.6436  -14.5711 C   0  0  0  0  0  0  0  0  0  0  0  0
   18.5638   16.4693  -13.9540 C   0  0  0  0  0  0  0  0  0  0  0  0
   19.5402   17.2931  -14.4628 C   0  0  0  0  0  0  0  0  0  0  0  0
   14.4628   17.5527  -10.8882 C   0  0  0  0  0  0  0  0  0  0  0  0
   13.9404   17.3473   -8.4773 C   0  0  0  0  0  0  0  0  0  0  0  0
   13.7312   18.4608   -7.4726 C   0  0  2  0  0  0  0  0  0  0  0  0
   12.0517   15.9585  -11.4900 C   0  0  0  0  0  0  0  0  0  0  0  0
   12.6053   16.3185  -12.7132 C   0  0  0  0  0  0  0  0  0  0  0  0
   12.6988   15.3770  -13.7222 C   0  0  0  0  0  0  0  0  0  0  0  0
   12.2538   14.0607  -13.5234 C   0  0  0  0  0  0  0  0  0  0  0  0
   11.7102   13.7154  -12.2797 C   0  0  0  0  0  0  0  0  0  0  0  0
   11.6050   14.6575  -11.2743 C   0  0  0  0  0  0  0  0  0  0  0  0
   14.9889   19.0809   -6.9561 C   0  0  0  0  0  0  0  0  0  0  0  0
   12.9030   17.8658   -6.3142 C   0  0  0  0  0  0  0  0  0  0  0  0
   21.1698   22.4817  -11.2311 C   0  0  0  0  0  0  0  0  0  0  0  0
   17.1257   20.1664  -11.5307 N   0  0  0  0  0  0  0  0  0  0  0  0
   13.4454   17.6268   -9.8334 N   0  0  0  0  0  0  0  0  0  0  0  0
   12.3498   13.1224  -14.5292 N   0  0  0  0  0  0  0  0  0  0  0  0
   18.5321   21.6205  -10.6695 O   0  0  0  0  0  0  0  0  0  0  0  0
   16.3350   21.6705  -10.0102 O   0  0  0  0  0  0  0  0  0  0  0  0
   16.8191   17.4575  -10.7090 O   0  0  0  0  0  0  0  0  0  0  0  0
   11.2118   18.2802  -10.6755 O   0  0  0  0  0  0  0  0  0  0  0  0
   11.4535   16.4714   -9.0213 O   0  0  0  0  0  0  0  0  0  0  0  0
   21.3755   21.0649  -11.0558 O   0  0  0  0  0  0  0  0  0  0  0  0
   11.9287   17.1445  -10.1883 S   0  0  1  0  0  0  0  0  0  0  0  0
   19.9394   19.5284  -11.0651 H   0  0  0  0  0  0  0  0  0  0  0  0
   20.6086   19.8906  -12.6513 H   0  0  0  0  0  0  0  0  0  0  0  0
   20.4878   22.5161  -13.3005 H   0  0  0  0  0  0  0  0  0  0  0  0
   19.5725   23.5892  -12.3003 H   0  0  0  0  0  0  0  0  0  0  0  0
   18.4013   21.1857  -12.6165 H   0  0  0  0  0  0  0  0  0  0  0  0
   15.0100   20.1459  -11.6061 H   0  0  0  0  0  0  0  0  0  0  0  0
   15.6845   18.8861   -9.6940 H   0  0  0  0  0  0  0  0  0  0  0  0
   15.0053   18.1652  -13.2282 H   0  0  0  0  0  0  0  0  0  0  0  0
   15.5311   19.7918  -13.8317 H   0  0  0  0  0  0  0  0  0  0  0  0
   17.9188   20.2557  -14.2420 H   0  0  0  0  0  0  0  0  0  0  0  0
   16.5734   16.3288  -13.1399 H   0  0  0  0  0  0  0  0  0  0  0  0
   20.0834   19.3041  -14.9858 H   0  0  0  0  0  0  0  0  0  0  0  0
   18.7474   15.3878  -13.8718 H   0  0  0  0  0  0  0  0  0  0  0  0
   20.5051   16.8725  -14.7823 H   0  0  0  0  0  0  0  0  0  0  0  0
   14.0007   17.8978  -11.8249 H   0  0  0  0  0  0  0  0  0  0  0  0
   14.7928   16.5035  -10.9053 H   0  0  0  0  0  0  0  0  0  0  0  0
   15.0200   17.1471   -8.5435 H   0  0  0  0  0  0  0  0  0  0  0  0
   13.3565   16.4906   -8.1096 H   0  0  0  0  0  0  0  0  0  0  0  0
   13.2122   19.2877   -7.9795 H   0  0  0  0  0  0  0  0  0  0  0  0
   12.9662   17.3446  -12.8776 H   0  0  0  0  0  0  0  0  0  0  0  0
   13.1279   15.6636  -14.6936 H   0  0  0  0  0  0  0  0  0  0  0  0
   11.3645   12.6864  -12.1018 H   0  0  0  0  0  0  0  0  0  0  0  0
   11.1684   14.3796  -10.3037 H   0  0  0  0  0  0  0  0  0  0  0  0
   14.9759   19.0745   -5.8562 H   0  0  0  0  0  0  0  0  0  0  0  0
   15.8554   18.5067   -7.3160 H   0  0  0  0  0  0  0  0  0  0  0  0
   15.0611   20.1178   -7.3160 H   0  0  0  0  0  0  0  0  0  0  0  0
   13.3383   18.1786   -5.3537 H   0  0  0  0  0  0  0  0  0  0  0  0
   11.8660   18.2267   -6.3817 H   0  0  0  0  0  0  0  0  0  0  0  0
   12.9142   16.7679   -6.3817 H   0  0  0  0  0  0  0  0  0  0  0  0
   22.0972   22.9636  -11.5742 H   0  0  0  0  0  0  0  0  0  0  0  0
   20.8810   22.9679  -10.2876 H   0  0  0  0  0  0  0  0  0  0  0  0
   17.9542   19.8691  -12.0656 H   0  0  0  0  0  0  0  0  0  0  0  0
   12.0192   12.1601  -14.3692 H   0  0  0  0  0  0  0  0  0  0  0  0
   12.7523   13.3838  -15.4406 H   0  0  0  0  0  0  0  0  0  0  0  0
   17.0951   17.2282   -9.7863 H   0  0  0  0  0  0  0  0  0  0  0  0
  1  4  1  0
  1 34  1  0
  2  4  1  0
  2 25  1  0
  3 26  1  0
  3 29  1  0
  3 30  2  0
  4 29  1  0
  5  6  1  0
  5  7  1  0
  5 26  1  0
  6 14  1  0
  6 31  1  0
  7  8  1  0
  8  9  2  0
  8 10  1  0
  9 11  1  0
 10 12  2  0
 11 13  2  0
 12 13  1  0
 14 27  1  0
 15 16  1  0
 15 27  1  0
 16 23  1  0
 16 24  1  0
 17 18  2  0
 17 22  1  0
 17 35  1  0
 18 19  1  0
 19 20  2  0
 20 21  1  0
 20 28  1  0
 21 22  2  0
 25 34  1  0
 35 27  1  1
 32 35  2  0
 33 35  2  0
  1 36  1  0
  1 37  1  0
  2 38  1  0
  2 39  1  0
  4 40  1  6
  5 41  1  1
  6 42  1  1
  7 43  1  0
  7 44  1  0
  9 45  1  0
 10 46  1  0
 11 47  1  0
 12 48  1  0
 13 49  1  0
 14 50  1  0
 14 51  1  0
 15 52  1  0
 15 53  1  0
 16 54  1  6
 18 55  1  0
 19 56  1  0
 21 57  1  0
 22 58  1  0
 23 59  1  0
 23 60  1  0
 23 61  1  0
 24 62  1  0
 24 63  1  0
 24 64  1  0
 25 65  1  0
 25 66  1  0
 26 67  1  0
 28 68  1  0
 28 69  1  0
 31 70  1  0
M  END
>  <filename_input>  (19) 
6XCT_478_docked.sdf

>  <pdb_id>  (19) 
6XCT_478

>  <pose_rank>  (19) 
18

>  <num_atoms_heavy>  (19) 
35

>  <num_torsions>  (19) 
12

>  <pose>  (19) 
[15.721016232002603, 18.36984670433417, -10.664685236832788, -0.1350868846240916, 0.3342546836771774, 2.968102444496732, 0.3174686768696362, -5.453790665342596, -2.6731902635182787, -0.35506809972600195, -4.523773188721229, -6.320774497034139, 5.593655795163869, 13.578222770566468, -1.430113730861932, 0.4015473506299564, 12.949148313876341, 4.8267542931844885]

>  <energy>  (19) 
-502.2675727621777

>  <inter_energy>  (19) 
-587.0086899840513

>  <intra_energy>  (19) 
87.69052362685309

>  <rmsd>  (19) 
8.74804

>  <sdf_rank>  (19) 
0

$$$$

     RDKit          3D

 70 72  0  0  0  0  0  0  0  0999 V2000
    8.8074   10.5446   -8.6121 C   0  0  0  0  0  0  0  0  0  0  0  0
    7.8082    9.6527  -10.5413 C   0  0  0  0  0  0  0  0  0  0  0  0
   11.2779   10.1086  -10.9115 C   0  0  0  0  0  0  0  0  0  0  0  0
    9.1154   10.3531  -10.1120 C   0  0  2  0  0  0  0  0  0  0  0  0
   11.6906   11.9421  -12.4630 C   0  0  2  0  0  0  0  0  0  0  0  0
   11.1509   13.3806  -12.4613 C   0  0  1  0  0  0  0  0  0  0  0  0
   11.8584   11.3406  -13.8668 C   0  0  0  0  0  0  0  0  0  0  0  0
   13.3047   10.9874  -14.1559 C   0  0  0  0  0  0  0  0  0  0  0  0
   13.8827   11.3054  -15.3752 C   0  0  0  0  0  0  0  0  0  0  0  0
   14.0874   10.3488  -13.2045 C   0  0  0  0  0  0  0  0  0  0  0  0
   15.2084   10.9953  -15.6400 C   0  0  0  0  0  0  0  0  0  0  0  0
   15.4143   10.0435  -13.4689 C   0  0  0  0  0  0  0  0  0  0  0  0
   15.9717   10.3698  -14.6829 C   0  0  0  0  0  0  0  0  0  0  0  0
   12.2774   14.3853  -12.3121 C   0  0  0  0  0  0  0  0  0  0  0  0
   11.9395   14.1757   -9.8688 C   0  0  0  0  0  0  0  0  0  0  0  0
   10.4511   14.2700   -9.6066 C   0  0  2  0  0  0  0  0  0  0  0  0
   13.5956   17.3460  -11.7529 C   0  0  0  0  0  0  0  0  0  0  0  0
   13.5807   17.3553  -13.1429 C   0  0  0  0  0  0  0  0  0  0  0  0
   14.6292   17.9380  -13.8316 C   0  0  0  0  0  0  0  0  0  0  0  0
   15.7014   18.5302  -13.1460 C   0  0  0  0  0  0  0  0  0  0  0  0
   15.6912   18.5207  -11.7455 C   0  0  0  0  0  0  0  0  0  0  0  0
   14.6505   17.9288  -11.0557 C   0  0  0  0  0  0  0  0  0  0  0  0
   10.0414   15.4118   -8.7339 C   0  0  0  0  0  0  0  0  0  0  0  0
   10.0232   12.9261   -8.9799 C   0  0  0  0  0  0  0  0  0  0  0  0
    7.6763    8.6477   -9.4146 C   0  0  0  0  0  0  0  0  0  0  0  0
   10.8102   11.1005  -11.6638 N   0  0  0  0  0  0  0  0  0  0  0  0
   12.4312   14.9952  -10.9864 N   0  0  0  0  0  0  0  0  0  0  0  0
   16.7448   19.1129  -13.8337 N   0  0  0  0  0  0  0  0  0  0  0  0
   10.2376    9.5147  -10.2527 O   0  0  0  0  0  0  0  0  0  0  0  0
   12.4464    9.7507  -10.8270 O   0  0  0  0  0  0  0  0  0  0  0  0
   10.4863   13.6848  -13.6885 O   0  0  0  0  0  0  0  0  0  0  0  0
   12.4021   16.9558   -9.4764 O   0  0  0  0  0  0  0  0  0  0  0  0
   11.0471   16.9310  -11.5331 O   0  0  0  0  0  0  0  0  0  0  0  0
    8.1391    9.3230   -8.2272 O   0  0  0  0  0  0  0  0  0  0  0  0
   12.2640   16.6120  -10.8562 S   0  0  1  0  0  0  0  0  0  0  0  0
    9.7358   10.6789   -8.0375 H   0  0  0  0  0  0  0  0  0  0  0  0
    8.1952   11.4379   -8.4191 H   0  0  0  0  0  0  0  0  0  0  0  0
    6.9590   10.3514  -10.5686 H   0  0  0  0  0  0  0  0  0  0  0  0
    7.8208    9.2207  -11.5528 H   0  0  0  0  0  0  0  0  0  0  0  0
    9.3586   11.2559  -10.6916 H   0  0  0  0  0  0  0  0  0  0  0  0
   12.7005   11.9814  -12.0288 H   0  0  0  0  0  0  0  0  0  0  0  0
   10.4521   13.4483  -11.6145 H   0  0  0  0  0  0  0  0  0  0  0  0
   11.2473   10.4288  -13.9395 H   0  0  0  0  0  0  0  0  0  0  0  0
   11.5348   12.0913  -14.6028 H   0  0  0  0  0  0  0  0  0  0  0  0
   13.2808   11.8113  -16.1444 H   0  0  0  0  0  0  0  0  0  0  0  0
   13.6511   10.0820  -12.2306 H   0  0  0  0  0  0  0  0  0  0  0  0
   15.6488   11.2498  -16.6153 H   0  0  0  0  0  0  0  0  0  0  0  0
   16.0232    9.5383  -12.7045 H   0  0  0  0  0  0  0  0  0  0  0  0
   17.0257   10.1309  -14.8878 H   0  0  0  0  0  0  0  0  0  0  0  0
   13.2192   13.8720  -12.5565 H   0  0  0  0  0  0  0  0  0  0  0  0
   12.0239   15.2141  -12.9894 H   0  0  0  0  0  0  0  0  0  0  0  0
   12.4665   14.4926   -8.9568 H   0  0  0  0  0  0  0  0  0  0  0  0
   12.1347   13.1298  -10.1480 H   0  0  0  0  0  0  0  0  0  0  0  0
    9.9456   14.4679  -10.5633 H   0  0  0  0  0  0  0  0  0  0  0  0
   12.7412   16.9026  -13.6910 H   0  0  0  0  0  0  0  0  0  0  0  0
   14.6229   17.9372  -14.9315 H   0  0  0  0  0  0  0  0  0  0  0  0
   16.5180   18.9880  -11.1905 H   0  0  0  0  0  0  0  0  0  0  0  0
   14.6555   17.9180   -9.9558 H   0  0  0  0  0  0  0  0  0  0  0  0
   10.1454   15.1219   -7.6779 H   0  0  0  0  0  0  0  0  0  0  0  0
   10.6840   16.2803   -8.9407 H   0  0  0  0  0  0  0  0  0  0  0  0
    8.9932   15.6736   -8.9407 H   0  0  0  0  0  0  0  0  0  0  0  0
   10.0493   13.0081   -7.8833 H   0  0  0  0  0  0  0  0  0  0  0  0
    9.0019   12.6786   -9.3049 H   0  0  0  0  0  0  0  0  0  0  0  0
   10.7135   12.1337   -9.3049 H   0  0  0  0  0  0  0  0  0  0  0  0
    6.6265    8.3413   -9.2961 H   0  0  0  0  0  0  0  0  0  0  0  0
    8.2598    7.7370   -9.6150 H   0  0  0  0  0  0  0  0  0  0  0  0
    9.7959   11.2789  -11.6820 H   0  0  0  0  0  0  0  0  0  0  0  0
   17.5250   19.5438  -13.3174 H   0  0  0  0  0  0  0  0  0  0  0  0
   16.7441   19.1172  -14.8637 H   0  0  0  0  0  0  0  0  0  0  0  0
    9.6036   14.0888  -13.4944 H   0  0  0  0  0  0  0  0  0  0  0  0
  1  4  1  0
  1 34  1  0
  2  4  1  0
  2 25  1  0
  3 26  1  0
  3 29  1  0
  3 30  2  0
  4 29  1  0
  5  6  1  0
  5  7  1  0
  5 26  1  0
  6 14  1  0
  6 31  1  0
  7  8  1  0
  8  9  2  0
  8 10  1  0
  9 11  1  0
 10 12  2  0
 11 13  2  0
 12 13  1  0
 14 27  1  0
 15 16  1  0
 15 27  1  0
 16 23  1  0
 16 24  1  0
 17 18  2  0
 17 22  1  0
 17 35  1  0
 18 19  1  0
 19 20  2  0
 20 21  1  0
 20 28  1  0
 21 22  2  0
 25 34  1  0
 35 27  1  1
 32 35  2  0
 33 35  2  0
  1 36  1  0
  1 37  1  0
  2 38  1  0
  2 39  1  0
  4 40  1  6
  5 41  1  1
  6 42  1  1
  7 43  1  0
  7 44  1  0
  9 45  1  0
 10 46  1  0
 11 47  1  0
 12 48  1  0
 13 49  1  0
 14 50  1  0
 14 51  1  0
 15 52  1  0
 15 53  1  0
 16 54  1  6
 18 55  1  0
 19 56  1  0
 21 57  1  0
 22 58  1  0
 23 59  1  0
 23 60  1  0
 23 61  1  0
 24 62  1  0
 24 63  1  0
 24 64  1  0
 25 65  1  0
 25 66  1  0
 26 67  1  0
 28 68  1  0
 28 69  1  0
 31 70  1  0
M  END
>  <filename_input>  (20) 
6XCT_478_docked.sdf

>  <pdb_id>  (20) 
6XCT_478

>  <pose_rank>  (20) 
19

>  <num_atoms_heavy>  (20) 
35

>  <num_torsions>  (20) 
12

>  <pose>  (20) 
[11.150863245778742, 13.38059910392289, -12.461295876148752, -0.377423564299676, -0.706251237322817, 0.07993133964572172, -0.47137903657737246, -0.19749043391472967, -3.576708649621083, -0.5005428531009405, 5.240023177262619, -0.9292378821508329, -0.46674555456185557, -10.17944453715157, -3.043468964558267, -3.5197977085485803, 3.093080335305396, 5.343327474220009]

>  <energy>  (20) 
-479.8447272180023

>  <inter_energy>  (20) 
-591.1513089469862

>  <intra_energy>  (20) 
135.16962424915963

>  <rmsd>  (20) 
4.02526

>  <sdf_rank>  (20) 
0

$$$$

     RDKit          3D

 70 72  0  0  0  0  0  0  0  0999 V2000
   16.8220   21.6698  -15.3296 C   0  0  0  0  0  0  0  0  0  0  0  0
   17.4860   20.4232  -13.4532 C   0  0  0  0  0  0  0  0  0  0  0  0
   15.2240   18.5016  -14.5380 C   0  0  0  0  0  0  0  0  0  0  0  0
   16.2768   20.5629  -14.4030 C   0  0  2  0  0  0  0  0  0  0  0  0
   14.8926   17.4768  -12.3518 C   0  0  2  0  0  0  0  0  0  0  0  0
   13.4466   17.9759  -12.2082 C   0  0  1  0  0  0  0  0  0  0  0  0
   15.6550   17.3825  -11.0212 C   0  0  0  0  0  0  0  0  0  0  0  0
   16.5696   18.5744  -10.8138 C   0  0  0  0  0  0  0  0  0  0  0  0
   17.9120   18.5063  -11.1531 C   0  0  0  0  0  0  0  0  0  0  0  0
   16.0838   19.7645  -10.2909 C   0  0  0  0  0  0  0  0  0  0  0  0
   18.7498   19.5974  -10.9766 C   0  0  0  0  0  0  0  0  0  0  0  0
   16.9217   20.8563  -10.1191 C   0  0  0  0  0  0  0  0  0  0  0  0
   18.2500   20.7713  -10.4648 C   0  0  0  0  0  0  0  0  0  0  0  0
   12.4597   16.8311  -12.3346 C   0  0  0  0  0  0  0  0  0  0  0  0
   12.1561   14.5291  -11.4766 C   0  0  0  0  0  0  0  0  0  0  0  0
   11.2094   14.2295  -12.6198 C   0  0  2  0  0  0  0  0  0  0  0  0
   12.7840   17.0865   -8.7182 C   0  0  0  0  0  0  0  0  0  0  0  0
   14.0570   16.5289   -8.7429 C   0  0  0  0  0  0  0  0  0  0  0  0
   15.0144   16.9770   -7.8507 C   0  0  0  0  0  0  0  0  0  0  0  0
   14.7213   17.9950   -6.9298 C   0  0  0  0  0  0  0  0  0  0  0  0
   13.4362   18.5517   -6.9295 C   0  0  0  0  0  0  0  0  0  0  0  0
   12.4749   18.0973   -7.8119 C   0  0  0  0  0  0  0  0  0  0  0  0
   11.7889   14.4365  -13.9816 C   0  0  0  0  0  0  0  0  0  0  0  0
    9.9678   15.1232  -12.4158 C   0  0  0  0  0  0  0  0  0  0  0  0
   18.6086   20.4076  -14.4712 C   0  0  0  0  0  0  0  0  0  0  0  0
   15.6090   18.3472  -13.2744 N   0  0  0  0  0  0  0  0  0  0  0  0
   12.3286   15.9556  -11.1644 N   0  0  0  0  0  0  0  0  0  0  0  0
   15.6773   18.4425   -6.0426 N   0  0  0  0  0  0  0  0  0  0  0  0
   16.0554   19.3939  -15.1557 O   0  0  0  0  0  0  0  0  0  0  0  0
   14.2923   17.9272  -15.0880 O   0  0  0  0  0  0  0  0  0  0  0  0
   13.2293   18.5687  -10.9269 O   0  0  0  0  0  0  0  0  0  0  0  0
   10.8394   15.4463   -9.2544 O   0  0  0  0  0  0  0  0  0  0  0  0
   10.8213   17.6738  -10.3053 O   0  0  0  0  0  0  0  0  0  0  0  0
   18.2154   21.3316  -15.5066 O   0  0  0  0  0  0  0  0  0  0  0  0
   11.5502   16.5317   -9.8524 S   0  0  1  0  0  0  0  0  0  0  0  0
   16.2942   21.6653  -16.2947 H   0  0  0  0  0  0  0  0  0  0  0  0
   16.6836   22.6766  -14.9089 H   0  0  0  0  0  0  0  0  0  0  0  0
   17.5680   21.2783  -12.7661 H   0  0  0  0  0  0  0  0  0  0  0  0
   17.4533   19.5531  -12.7811 H   0  0  0  0  0  0  0  0  0  0  0  0
   15.3212   20.7614  -13.8957 H   0  0  0  0  0  0  0  0  0  0  0  0
   14.8367   16.4495  -12.7411 H   0  0  0  0  0  0  0  0  0  0  0  0
   13.2929   18.7147  -13.0086 H   0  0  0  0  0  0  0  0  0  0  0  0
   14.9286   17.3426  -10.1961 H   0  0  0  0  0  0  0  0  0  0  0  0
   16.2750   16.4742  -11.0445 H   0  0  0  0  0  0  0  0  0  0  0  0
   18.3188   17.5727  -11.5688 H   0  0  0  0  0  0  0  0  0  0  0  0
   15.0232   19.8427  -10.0097 H   0  0  0  0  0  0  0  0  0  0  0  0
   19.8138   19.5234  -11.2459 H   0  0  0  0  0  0  0  0  0  0  0  0
   16.5223   21.7938   -9.7048 H   0  0  0  0  0  0  0  0  0  0  0  0
   18.9109   21.6405  -10.3322 H   0  0  0  0  0  0  0  0  0  0  0  0
   11.4698   17.2630  -12.5431 H   0  0  0  0  0  0  0  0  0  0  0  0
   12.8533   16.1910  -13.1381 H   0  0  0  0  0  0  0  0  0  0  0  0
   11.7717   14.0276  -10.5761 H   0  0  0  0  0  0  0  0  0  0  0  0
   13.1439   14.1644  -11.7945 H   0  0  0  0  0  0  0  0  0  0  0  0
   10.9652   13.1573  -12.5916 H   0  0  0  0  0  0  0  0  0  0  0  0
   14.3013   15.7372   -9.4664 H   0  0  0  0  0  0  0  0  0  0  0  0
   16.0192   16.5296   -7.8632 H   0  0  0  0  0  0  0  0  0  0  0  0
   13.1903   19.3567   -6.2214 H   0  0  0  0  0  0  0  0  0  0  0  0
   11.4654   18.5341   -7.7984 H   0  0  0  0  0  0  0  0  0  0  0  0
   12.8210   14.8052  -13.8887 H   0  0  0  0  0  0  0  0  0  0  0  0
   11.7882   13.4825  -14.5293 H   0  0  0  0  0  0  0  0  0  0  0  0
   11.1839   15.1741  -14.5293 H   0  0  0  0  0  0  0  0  0  0  0  0
    9.7840   15.2554  -11.3394 H   0  0  0  0  0  0  0  0  0  0  0  0
   10.1418   16.1045  -12.8814 H   0  0  0  0  0  0  0  0  0  0  0  0
    9.0924   14.6466  -12.8814 H   0  0  0  0  0  0  0  0  0  0  0  0
   19.5513   20.7320  -14.0064 H   0  0  0  0  0  0  0  0  0  0  0  0
   18.7755   19.3973  -14.8732 H   0  0  0  0  0  0  0  0  0  0  0  0
   16.4379   18.8580  -12.9383 H   0  0  0  0  0  0  0  0  0  0  0  0
   15.4481   19.1902   -5.3723 H   0  0  0  0  0  0  0  0  0  0  0  0
   16.6207   18.0290   -6.0502 H   0  0  0  0  0  0  0  0  0  0  0  0
   13.4673   17.9196  -10.2184 H   0  0  0  0  0  0  0  0  0  0  0  0
  1  4  1  0
  1 34  1  0
  2  4  1  0
  2 25  1  0
  3 26  1  0
  3 29  1  0
  3 30  2  0
  4 29  1  0
  5  6  1  0
  5  7  1  0
  5 26  1  0
  6 14  1  0
  6 31  1  0
  7  8  1  0
  8  9  2  0
  8 10  1  0
  9 11  1  0
 10 12  2  0
 11 13  2  0
 12 13  1  0
 14 27  1  0
 15 16  1  0
 15 27  1  0
 16 23  1  0
 16 24  1  0
 17 18  2  0
 17 22  1  0
 17 35  1  0
 18 19  1  0
 19 20  2  0
 20 21  1  0
 20 28  1  0
 21 22  2  0
 25 34  1  0
 35 27  1  6
 32 35  2  0
 33 35  2  0
  1 36  1  0
  1 37  1  0
  2 38  1  0
  2 39  1  0
  4 40  1  1
  5 41  1  6
  6 42  1  6
  7 43  1  0
  7 44  1  0
  9 45  1  0
 10 46  1  0
 11 47  1  0
 12 48  1  0
 13 49  1  0
 14 50  1  0
 14 51  1  0
 15 52  1  0
 15 53  1  0
 16 54  1  6
 18 55  1  0
 19 56  1  0
 21 57  1  0
 22 58  1  0
 23 59  1  0
 23 60  1  0
 23 61  1  0
 24 62  1  0
 24 63  1  0
 24 64  1  0
 25 65  1  0
 25 66  1  0
 26 67  1  0
 28 68  1  0
 28 69  1  0
 31 70  1  0
M  END
>  <filename_input>  (21) 
6XCT_478_docked.sdf

>  <pdb_id>  (21) 
6XCT_478

>  <pose_rank>  (21) 
20

>  <num_atoms_heavy>  (21) 
35

>  <num_torsions>  (21) 
12

>  <pose>  (21) 
[13.446620707018742, 17.97594131550978, -12.208172974698657, 2.053329453533319, -2.2258668590059267, -1.3972532615546476, -0.5677877098205265, 1.2578049929433008, 2.2810651406311266, -1.227993591874887, 1.4267090724388196, -0.23693757482241937, 2.6755285166475957, -0.552845265039308, 2.668813745633118, 1.0043293495530283, -2.479769115060409, 1.9172745084604443]

>  <energy>  (21) 
-374.1886137509547

>  <inter_energy>  (21) 
-653.249115853696

>  <intra_energy>  (21) 
291.8001512994574

>  <rmsd>  (21) 
8.1844

>  <sdf_rank>  (21) 
0

$$$$

     RDKit          3D

 70 72  0  0  0  0  0  0  0  0999 V2000
   17.5059   18.1961  -14.3328 C   0  0  0  0  0  0  0  0  0  0  0  0
   15.1645   18.2324  -14.1541 C   0  0  0  0  0  0  0  0  0  0  0  0
   16.3536   20.4885  -11.9182 C   0  0  0  0  0  0  0  0  0  0  0  0
   16.4107   18.6691  -13.3541 C   0  0  2  0  0  0  0  0  0  0  0  0
   16.9417   19.7769   -9.6628 C   0  0  2  0  0  0  0  0  0  0  0  0
   15.6529   19.2123   -9.0455 C   0  0  1  0  0  0  0  0  0  0  0  0
   17.1948   21.2562   -9.3338 C   0  0  0  0  0  0  0  0  0  0  0  0
   18.4563   21.7706  -10.0002 C   0  0  0  0  0  0  0  0  0  0  0  0
   19.4612   20.8974  -10.3868 C   0  0  0  0  0  0  0  0  0  0  0  0
   18.6305   23.1246  -10.2495 C   0  0  0  0  0  0  0  0  0  0  0  0
   20.6114   21.3617  -11.0074 C   0  0  0  0  0  0  0  0  0  0  0  0
   19.7792   23.5869  -10.8744 C   0  0  0  0  0  0  0  0  0  0  0  0
   20.7640   22.7054  -11.2541 C   0  0  0  0  0  0  0  0  0  0  0  0
   14.6616   18.8144  -10.1225 C   0  0  0  0  0  0  0  0  0  0  0  0
   12.6601   19.1126   -8.6967 C   0  0  0  0  0  0  0  0  0  0  0  0
   13.2721   19.1869   -7.3136 C   0  0  2  0  0  0  0  0  0  0  0  0
   12.3439   16.0330  -10.8429 C   0  0  0  0  0  0  0  0  0  0  0  0
   11.4479   14.9841  -10.6721 C   0  0  0  0  0  0  0  0  0  0  0  0
   10.7339   14.5142  -11.7596 C   0  0  0  0  0  0  0  0  0  0  0  0
   10.8929   15.0901  -13.0298 C   0  0  0  0  0  0  0  0  0  0  0  0
   11.7918   16.1538  -13.1779 C   0  0  0  0  0  0  0  0  0  0  0  0
   12.5148   16.6169  -12.0952 C   0  0  0  0  0  0  0  0  0  0  0  0
   12.4761   18.5167   -6.2412 C   0  0  0  0  0  0  0  0  0  0  0  0
   13.4654   20.6840   -6.9920 C   0  0  0  0  0  0  0  0  0  0  0  0
   15.5564   18.7340  -15.5294 C   0  0  0  0  0  0  0  0  0  0  0  0
   16.9020   19.5888  -11.1068 N   0  0  0  0  0  0  0  0  0  0  0  0
   13.3833   18.2650   -9.6563 N   0  0  0  0  0  0  0  0  0  0  0  0
   10.1787   14.6223  -14.1126 N   0  0  0  0  0  0  0  0  0  0  0  0
   16.4868   20.0677  -13.2121 O   0  0  0  0  0  0  0  0  0  0  0  0
   15.7912   21.5231  -11.5804 O   0  0  0  0  0  0  0  0  0  0  0  0
   15.9194   18.0390   -8.2758 O   0  0  0  0  0  0  0  0  0  0  0  0
   12.5096   16.4064   -8.2753 O   0  0  0  0  0  0  0  0  0  0  0  0
   14.5937   16.1465   -9.5619 O   0  0  0  0  0  0  0  0  0  0  0  0
   16.9778   18.5148  -15.6392 O   0  0  0  0  0  0  0  0  0  0  0  0
   13.2603   16.6501   -9.4661 S   0  0  1  0  0  0  0  0  0  0  0  0
   18.4488   18.7330  -14.1518 H   0  0  0  0  0  0  0  0  0  0  0  0
   17.7359   17.1261  -14.2216 H   0  0  0  0  0  0  0  0  0  0  0  0
   15.0300   17.1407  -14.1391 H   0  0  0  0  0  0  0  0  0  0  0  0
   14.2069   18.6166  -13.7727 H   0  0  0  0  0  0  0  0  0  0  0  0
   16.4530   18.2749  -12.3281 H   0  0  0  0  0  0  0  0  0  0  0  0
   17.7784   19.2206   -9.2150 H   0  0  0  0  0  0  0  0  0  0  0  0
   15.2397   20.0085   -8.4088 H   0  0  0  0  0  0  0  0  0  0  0  0
   16.3384   21.8510   -9.6842 H   0  0  0  0  0  0  0  0  0  0  0  0
   17.3196   21.3490   -8.2448 H   0  0  0  0  0  0  0  0  0  0  0  0
   19.3445   19.8200  -10.1986 H   0  0  0  0  0  0  0  0  0  0  0  0
   17.8496   23.8384   -9.9486 H   0  0  0  0  0  0  0  0  0  0  0  0
   21.4011   20.6550  -11.3021 H   0  0  0  0  0  0  0  0  0  0  0  0
   19.9030   24.6629  -11.0670 H   0  0  0  0  0  0  0  0  0  0  0  0
   21.6716   23.0746  -11.7541 H   0  0  0  0  0  0  0  0  0  0  0  0
   14.4429   19.7089  -10.7241 H   0  0  0  0  0  0  0  0  0  0  0  0
   15.1456   17.9997  -10.6810 H   0  0  0  0  0  0  0  0  0  0  0  0
   11.6385   18.7174   -8.5960 H   0  0  0  0  0  0  0  0  0  0  0  0
   12.6979   20.1342   -9.1027 H   0  0  0  0  0  0  0  0  0  0  0  0
   14.2228   18.6337   -7.3285 H   0  0  0  0  0  0  0  0  0  0  0  0
   11.3078   14.5310   -9.6796 H   0  0  0  0  0  0  0  0  0  0  0  0
   10.0318   13.6778  -11.6273 H   0  0  0  0  0  0  0  0  0  0  0  0
   11.9233   16.6241  -14.1635 H   0  0  0  0  0  0  0  0  0  0  0  0
   13.2254   17.4469  -12.2228 H   0  0  0  0  0  0  0  0  0  0  0  0
   12.8501   18.8316   -5.2558 H   0  0  0  0  0  0  0  0  0  0  0  0
   11.4176   18.7996   -6.3391 H   0  0  0  0  0  0  0  0  0  0  0  0
   12.5745   17.4255   -6.3391 H   0  0  0  0  0  0  0  0  0  0  0  0
   13.4836   20.8253   -5.9013 H   0  0  0  0  0  0  0  0  0  0  0  0
   14.4159   21.0318   -7.4227 H   0  0  0  0  0  0  0  0  0  0  0  0
   12.6344   21.2618   -7.4227 H   0  0  0  0  0  0  0  0  0  0  0  0
   15.0212   18.1717  -16.3088 H   0  0  0  0  0  0  0  0  0  0  0  0
   15.2999   19.7955  -15.6607 H   0  0  0  0  0  0  0  0  0  0  0  0
   17.3106   18.7341  -11.5111 H   0  0  0  0  0  0  0  0  0  0  0  0
   10.3056   15.0546  -15.0388 H   0  0  0  0  0  0  0  0  0  0  0  0
    9.5183   13.8407  -13.9951 H   0  0  0  0  0  0  0  0  0  0  0  0
   15.8695   18.2584   -7.3117 H   0  0  0  0  0  0  0  0  0  0  0  0
  1  4  1  0
  1 34  1  0
  2  4  1  0
  2 25  1  0
  3 26  1  0
  3 29  1  0
  3 30  2  0
  4 29  1  0
  5  6  1  0
  5  7  1  0
  5 26  1  0
  6 14  1  0
  6 31  1  0
  7  8  1  0
  8  9  2  0
  8 10  1  0
  9 11  1  0
 10 12  2  0
 11 13  2  0
 12 13  1  0
 14 27  1  0
 15 16  1  0
 15 27  1  0
 16 23  1  0
 16 24  1  0
 17 18  2  0
 17 22  1  0
 17 35  1  0
 18 19  1  0
 19 20  2  0
 20 21  1  0
 20 28  1  0
 21 22  2  0
 25 34  1  0
 35 27  1  6
 32 35  2  0
 33 35  2  0
  1 36  1  0
  1 37  1  0
  2 38  1  0
  2 39  1  0
  4 40  1  1
  5 41  1  1
  6 42  1  1
  7 43  1  0
  7 44  1  0
  9 45  1  0
 10 46  1  0
 11 47  1  0
 12 48  1  0
 13 49  1  0
 14 50  1  0
 14 51  1  0
 15 52  1  0
 15 53  1  0
 16 54  1  6
 18 55  1  0
 19 56  1  0
 21 57  1  0
 22 58  1  0
 23 59  1  0
 23 60  1  0
 23 61  1  0
 24 62  1  0
 24 63  1  0
 24 64  1  0
 25 65  1  0
 25 66  1  0
 26 67  1  0
 28 68  1  0
 28 69  1  0
 31 70  1  0
M  END
>  <filename_input>  (22) 
6XCT_478_docked.sdf

>  <pdb_id>  (22) 
6XCT_478

>  <pose_rank>  (22) 
21

>  <num_atoms_heavy>  (22) 
35

>  <num_torsions>  (22) 
12

>  <pose>  (22) 
[15.652919197855844, 19.212296374175203, -9.045534037648244, -1.0672302351135052, 0.4517484765917277, 2.1940510064930954, -9.308290611138878, 3.8528170322445456, 3.7018532027776376, -0.7927578176282628, -6.2215761224054935, 1.0392699276120367, 4.485214278341159, -3.4172204893235016, -28.83541924121289, -1.0385562547199931, 3.2926631730205504, -1.3885731569529234]

>  <energy>  (22) 
-566.209737669909

>  <inter_energy>  (22) 
-738.6982655008933

>  <intra_energy>  (22) 
180.87238312289196

>  <rmsd>  (22) 
8.64594

>  <sdf_rank>  (22) 
0

$$$$

     RDKit          3D

 70 72  0  0  0  0  0  0  0  0999 V2000
   22.2336   21.2625  -10.4493 C   0  0  0  0  0  0  0  0  0  0  0  0
   20.8195   21.2287  -12.3240 C   0  0  0  0  0  0  0  0  0  0  0  0
   18.7804   22.3687  -10.1936 C   0  0  0  0  0  0  0  0  0  0  0  0
   20.7271   21.2561  -10.7831 C   0  0  2  0  0  0  0  0  0  0  0  0
   17.0115   20.6937  -10.1263 C   0  0  2  0  0  0  0  0  0  0  0  0
   16.2263   21.2172  -11.3387 C   0  0  1  0  0  0  0  0  0  0  0  0
   16.4525   21.1590   -8.7729 C   0  0  0  0  0  0  0  0  0  0  0  0
   15.4654   20.1597   -8.2009 C   0  0  0  0  0  0  0  0  0  0  0  0
   14.5780   20.5308   -7.2026 C   0  0  0  0  0  0  0  0  0  0  0  0
   15.4182   18.8546   -8.6700 C   0  0  0  0  0  0  0  0  0  0  0  0
   13.6653   19.6240   -6.6847 C   0  0  0  0  0  0  0  0  0  0  0  0
   14.5018   17.9500   -8.1544 C   0  0  0  0  0  0  0  0  0  0  0  0
   13.6268   18.3371   -7.1667 C   0  0  0  0  0  0  0  0  0  0  0  0
   15.6058   20.0752  -12.1206 C   0  0  0  0  0  0  0  0  0  0  0  0
   16.8684   19.0277  -13.9744 C   0  0  0  0  0  0  0  0  0  0  0  0
   15.9609   19.8678  -14.8484 C   0  0  2  0  0  0  0  0  0  0  0  0
   14.7167   17.0228  -12.0199 C   0  0  0  0  0  0  0  0  0  0  0  0
   14.3058   16.4161  -13.2012 C   0  0  0  0  0  0  0  0  0  0  0  0
   12.9919   16.0047  -13.3344 C   0  0  0  0  0  0  0  0  0  0  0  0
   12.0719   16.1805  -12.2889 C   0  0  0  0  0  0  0  0  0  0  0  0
   12.5092   16.7830  -11.1027 C   0  0  0  0  0  0  0  0  0  0  0  0
   13.8184   17.2055  -10.9720 C   0  0  0  0  0  0  0  0  0  0  0  0
   15.6697   19.2819  -16.1919 C   0  0  0  0  0  0  0  0  0  0  0  0
   16.6346   21.2489  -14.9920 C   0  0  0  0  0  0  0  0  0  0  0  0
   21.8824   22.2884  -12.5340 C   0  0  0  0  0  0  0  0  0  0  0  0
   18.4066   21.0937  -10.2517 N   0  0  0  0  0  0  0  0  0  0  0  0
   16.5194   19.0086  -12.5461 N   0  0  0  0  0  0  0  0  0  0  0  0
   10.7630   15.7676  -12.4221 N   0  0  0  0  0  0  0  0  0  0  0  0
   20.1406   22.4444  -10.3077 O   0  0  0  0  0  0  0  0  0  0  0  0
   18.0394   23.3378  -10.0817 O   0  0  0  0  0  0  0  0  0  0  0  0
   15.1545   22.0692  -10.9317 O   0  0  0  0  0  0  0  0  0  0  0  0
   16.6556   17.7231  -10.4357 O   0  0  0  0  0  0  0  0  0  0  0  0
   17.2200   16.6700  -12.5896 O   0  0  0  0  0  0  0  0  0  0  0  0
   22.8151   22.1331  -11.4449 O   0  0  0  0  0  0  0  0  0  0  0  0
   16.3906   17.5498  -11.8289 S   0  0  1  0  0  0  0  0  0  0  0  0
   22.4070   21.6572   -9.4373 H   0  0  0  0  0  0  0  0  0  0  0  0
   22.6722   20.2539  -10.4646 H   0  0  0  0  0  0  0  0  0  0  0  0
   21.1418   20.2456  -12.6977 H   0  0  0  0  0  0  0  0  0  0  0  0
   19.8711   21.4081  -12.8516 H   0  0  0  0  0  0  0  0  0  0  0  0
   20.1225   20.4457  -10.3499 H   0  0  0  0  0  0  0  0  0  0  0  0
   16.9128   19.5981  -10.1331 H   0  0  0  0  0  0  0  0  0  0  0  0
   16.9469   21.7698  -11.9595 H   0  0  0  0  0  0  0  0  0  0  0  0
   17.2862   21.2814   -8.0658 H   0  0  0  0  0  0  0  0  0  0  0  0
   15.9251   22.1116   -8.9288 H   0  0  0  0  0  0  0  0  0  0  0  0
   14.5980   21.5602   -6.8154 H   0  0  0  0  0  0  0  0  0  0  0  0
   16.1146   18.5341   -9.4588 H   0  0  0  0  0  0  0  0  0  0  0  0
   12.9725   19.9343   -5.8886 H   0  0  0  0  0  0  0  0  0  0  0  0
   14.4749   16.9190   -8.5369 H   0  0  0  0  0  0  0  0  0  0  0  0
   12.8978   17.6189   -6.7634 H   0  0  0  0  0  0  0  0  0  0  0  0
   14.8289   19.6193  -11.4892 H   0  0  0  0  0  0  0  0  0  0  0  0
   15.2275   20.5263  -13.0498 H   0  0  0  0  0  0  0  0  0  0  0  0
   16.8367   17.9930  -14.3463 H   0  0  0  0  0  0  0  0  0  0  0  0
   17.8656   19.4874  -14.0390 H   0  0  0  0  0  0  0  0  0  0  0  0
   14.9760   19.9286  -14.3623 H   0  0  0  0  0  0  0  0  0  0  0  0
   15.0200   16.2644  -14.0238 H   0  0  0  0  0  0  0  0  0  0  0  0
   12.6635   15.5332  -14.2724 H   0  0  0  0  0  0  0  0  0  0  0  0
   11.8053   16.9210  -10.2688 H   0  0  0  0  0  0  0  0  0  0  0  0
   14.1507   17.6860  -10.0400 H   0  0  0  0  0  0  0  0  0  0  0  0
   15.1833   18.3032  -16.0675 H   0  0  0  0  0  0  0  0  0  0  0  0
   15.0015   19.9554  -16.7486 H   0  0  0  0  0  0  0  0  0  0  0  0
   16.6101   19.1559  -16.7486 H   0  0  0  0  0  0  0  0  0  0  0  0
   16.8370   21.6638  -13.9936 H   0  0  0  0  0  0  0  0  0  0  0  0
   17.5807   21.1399  -15.5425 H   0  0  0  0  0  0  0  0  0  0  0  0
   15.9663   21.9274  -15.5425 H   0  0  0  0  0  0  0  0  0  0  0  0
   22.3903   22.1354  -13.4977 H   0  0  0  0  0  0  0  0  0  0  0  0
   21.4477   23.2987  -12.5528 H   0  0  0  0  0  0  0  0  0  0  0  0
   19.1245   20.3680  -10.3893 H   0  0  0  0  0  0  0  0  0  0  0  0
   10.0988   15.9030  -11.6466 H   0  0  0  0  0  0  0  0  0  0  0  0
   10.4495   15.3238  -13.2971 H   0  0  0  0  0  0  0  0  0  0  0  0
   15.1151   22.1005   -9.9430 H   0  0  0  0  0  0  0  0  0  0  0  0
  1  4  1  0
  1 34  1  0
  2  4  1  0
  2 25  1  0
  3 26  1  0
  3 29  1  0
  3 30  2  0
  4 29  1  0
  5  6  1  0
  5  7  1  0
  5 26  1  0
  6 14  1  0
  6 31  1  0
  7  8  1  0
  8  9  2  0
  8 10  1  0
  9 11  1  0
 10 12  2  0
 11 13  2  0
 12 13  1  0
 14 27  1  0
 15 16  1  0
 15 27  1  0
 16 23  1  0
 16 24  1  0
 17 18  2  0
 17 22  1  0
 17 35  1  0
 18 19  1  0
 19 20  2  0
 20 21  1  0
 20 28  1  0
 21 22  2  0
 25 34  1  0
 35 27  1  6
 32 35  2  0
 33 35  2  0
  1 36  1  0
  1 37  1  0
  2 38  1  0
  2 39  1  0
  4 40  1  1
  5 41  1  1
  6 42  1  6
  7 43  1  0
  7 44  1  0
  9 45  1  0
 10 46  1  0
 11 47  1  0
 12 48  1  0
 13 49  1  0
 14 50  1  0
 14 51  1  0
 15 52  1  0
 15 53  1  0
 16 54  1  1
 18 55  1  0
 19 56  1  0
 21 57  1  0
 22 58  1  0
 23 59  1  0
 23 60  1  0
 23 61  1  0
 24 62  1  0
 24 63  1  0
 24 64  1  0
 25 65  1  0
 25 66  1  0
 26 67  1  0
 28 68  1  0
 28 69  1  0
 31 70  1  0
M  END
>  <filename_input>  (23) 
6XCT_478_docked.sdf

>  <pdb_id>  (23) 
6XCT_478

>  <pose_rank>  (23) 
22

>  <num_atoms_heavy>  (23) 
35

>  <num_torsions>  (23) 
12

>  <pose>  (23) 
[16.226292711508897, 21.21719179104911, -11.33870755044465, -1.813226128072035, 1.5405537376020828, -0.00486519606095792, -0.7991113035431472, 3.47154311408081, 3.3713897222021365, -1.22491853317735, -1.4914195627183926, -1.3900872080764326, 0.40178965289085067, 0.094370656169044, -0.93491358367333, -3.3811844671944575, 4.25585634086432, -1.9232004274393373]

>  <energy>  (23) 
-433.26028069428514

>  <inter_energy>  (23) 
-557.1344512375288

>  <intra_energy>  (23) 
134.06085296360348

>  <rmsd>  (23) 
9.70209

>  <sdf_rank>  (23) 
0

$$$$

     RDKit          3D

 70 72  0  0  0  0  0  0  0  0999 V2000
   20.5385   20.3641  -13.8199 C   0  0  0  0  0  0  0  0  0  0  0  0
   21.7741   19.7178  -11.9301 C   0  0  0  0  0  0  0  0  0  0  0  0
   18.5245   19.0823  -11.2231 C   0  0  0  0  0  0  0  0  0  0  0  0
   20.3194   20.0519  -12.3247 C   0  0  2  0  0  0  0  0  0  0  0  0
   16.1483   18.6828  -10.8578 C   0  0  2  0  0  0  0  0  0  0  0  0
   15.4117   17.3450  -11.0268 C   0  0  1  0  0  0  0  0  0  0  0  0
   15.2893   19.9136  -11.1865 C   0  0  0  0  0  0  0  0  0  0  0  0
   15.7345   20.5799  -12.4741 C   0  0  0  0  0  0  0  0  0  0  0  0
   15.4544   20.0052  -13.7042 C   0  0  0  0  0  0  0  0  0  0  0  0
   16.4219   21.7853  -12.4534 C   0  0  0  0  0  0  0  0  0  0  0  0
   15.8489   20.6167  -14.8849 C   0  0  0  0  0  0  0  0  0  0  0  0
   16.8117   22.3980  -13.6351 C   0  0  0  0  0  0  0  0  0  0  0  0
   16.5219   21.8148  -14.8462 C   0  0  0  0  0  0  0  0  0  0  0  0
   13.9240   17.5634  -11.2263 C   0  0  0  0  0  0  0  0  0  0  0  0
   12.6481   15.6287  -12.0963 C   0  0  0  0  0  0  0  0  0  0  0  0
   12.8197   14.1310  -11.9528 C   0  0  2  0  0  0  0  0  0  0  0  0
   12.4096   18.0186   -8.8045 C   0  0  0  0  0  0  0  0  0  0  0  0
   11.5792   19.1332   -8.8255 C   0  0  0  0  0  0  0  0  0  0  0  0
   11.9323   20.2594   -8.1042 C   0  0  0  0  0  0  0  0  0  0  0  0
   13.1109   20.2873   -7.3423 C   0  0  0  0  0  0  0  0  0  0  0  0
   13.9275   19.1496   -7.3252 C   0  0  0  0  0  0  0  0  0  0  0  0
   13.5825   18.0277   -8.0544 C   0  0  0  0  0  0  0  0  0  0  0  0
   13.2343   13.4269  -13.2039 C   0  0  0  0  0  0  0  0  0  0  0  0
   11.4751   13.5761  -11.4369 C   0  0  0  0  0  0  0  0  0  0  0  0
   22.1527   18.8198  -13.0908 C   0  0  0  0  0  0  0  0  0  0  0  0
   17.3459   18.6768  -11.6871 N   0  0  0  0  0  0  0  0  0  0  0  0
   13.0546   16.4201  -10.9256 N   0  0  0  0  0  0  0  0  0  0  0  0
   13.4605   21.4097   -6.6218 N   0  0  0  0  0  0  0  0  0  0  0  0
   19.4672   18.9379  -12.2025 O   0  0  0  0  0  0  0  0  0  0  0  0
   18.7473   19.5393  -10.1086 O   0  0  0  0  0  0  0  0  0  0  0  0
   15.8827   16.6370  -12.1744 O   0  0  0  0  0  0  0  0  0  0  0  0
   12.1171   15.4358   -8.8575 O   0  0  0  0  0  0  0  0  0  0  0  0
   10.7146   16.8080  -10.3462 O   0  0  0  0  0  0  0  0  0  0  0  0
   21.5046   19.3803  -14.2511 O   0  0  0  0  0  0  0  0  0  0  0  0
   11.9734   16.5700   -9.7142 S   0  0  1  0  0  0  0  0  0  0  0  0
   19.5986   20.2599  -14.3817 H   0  0  0  0  0  0  0  0  0  0  0  0
   20.8839   21.3948  -13.9882 H   0  0  0  0  0  0  0  0  0  0  0  0
   22.4040   20.6186  -11.8868 H   0  0  0  0  0  0  0  0  0  0  0  0
   21.8959   19.2685  -10.9335 H   0  0  0  0  0  0  0  0  0  0  0  0
   19.8519   20.8378  -11.7132 H   0  0  0  0  0  0  0  0  0  0  0  0
   16.4064   18.7707   -9.7921 H   0  0  0  0  0  0  0  0  0  0  0  0
   15.6026   16.7683  -10.1097 H   0  0  0  0  0  0  0  0  0  0  0  0
   14.2407   19.5987  -11.2921 H   0  0  0  0  0  0  0  0  0  0  0  0
   15.4022   20.6394  -10.3677 H   0  0  0  0  0  0  0  0  0  0  0  0
   14.9110   19.0496  -13.7444 H   0  0  0  0  0  0  0  0  0  0  0  0
   16.6600   22.2596  -11.4899 H   0  0  0  0  0  0  0  0  0  0  0  0
   15.6233   20.1433  -15.8518 H   0  0  0  0  0  0  0  0  0  0  0  0
   17.3547   23.3541  -13.6033 H   0  0  0  0  0  0  0  0  0  0  0  0
   16.8279   22.3057  -15.7818 H   0  0  0  0  0  0  0  0  0  0  0  0
   13.6175   18.3975  -10.5781 H   0  0  0  0  0  0  0  0  0  0  0  0
   13.7966   17.7547  -12.3020 H   0  0  0  0  0  0  0  0  0  0  0  0
   13.2493   15.9593  -12.9561 H   0  0  0  0  0  0  0  0  0  0  0  0
   11.5692   15.8018  -12.2222 H   0  0  0  0  0  0  0  0  0  0  0  0
   13.6477   13.9457  -11.2529 H   0  0  0  0  0  0  0  0  0  0  0  0
   10.6483   19.1197   -9.4113 H   0  0  0  0  0  0  0  0  0  0  0  0
   11.2806   21.1452   -8.1279 H   0  0  0  0  0  0  0  0  0  0  0  0
   14.8504   19.1491   -6.7267 H   0  0  0  0  0  0  0  0  0  0  0  0
   14.2346   17.1419   -8.0424 H   0  0  0  0  0  0  0  0  0  0  0  0
   13.7766   12.5059  -12.9438 H   0  0  0  0  0  0  0  0  0  0  0  0
   12.3418   13.1725  -13.7945 H   0  0  0  0  0  0  0  0  0  0  0  0
   13.8897   14.0839  -13.7945 H   0  0  0  0  0  0  0  0  0  0  0  0
   11.4761   13.5766  -10.3369 H   0  0  0  0  0  0  0  0  0  0  0  0
   10.6528   14.2084  -11.8030 H   0  0  0  0  0  0  0  0  0  0  0  0
   11.3380   12.5480  -11.8030 H   0  0  0  0  0  0  0  0  0  0  0  0
   23.2440   18.8118  -13.2284 H   0  0  0  0  0  0  0  0  0  0  0  0
   21.8397   17.7799  -12.9159 H   0  0  0  0  0  0  0  0  0  0  0  0
   17.2779   18.3490  -12.6612 H   0  0  0  0  0  0  0  0  0  0  0  0
   14.3284   21.4160   -6.0671 H   0  0  0  0  0  0  0  0  0  0  0  0
   12.8538   22.2419   -6.6382 H   0  0  0  0  0  0  0  0  0  0  0  0
   16.4068   15.8490  -11.8838 H   0  0  0  0  0  0  0  0  0  0  0  0
  1  4  1  0
  1 34  1  0
  2  4  1  0
  2 25  1  0
  3 26  1  0
  3 29  1  0
  3 30  2  0
  4 29  1  0
  5  6  1  0
  5  7  1  0
  5 26  1  0
  6 14  1  0
  6 31  1  0
  7  8  1  0
  8  9  2  0
  8 10  1  0
  9 11  1  0
 10 12  2  0
 11 13  2  0
 12 13  1  0
 14 27  1  0
 15 16  1  0
 15 27  1  0
 16 23  1  0
 16 24  1  0
 17 18  2  0
 17 22  1  0
 17 35  1  0
 18 19  1  0
 19 20  2  0
 20 21  1  0
 20 28  1  0
 21 22  2  0
 25 34  1  0
 35 27  1  6
 32 35  2  0
 33 35  2  0
  1 36  1  0
  1 37  1  0
  2 38  1  0
  2 39  1  0
  4 40  1  1
  5 41  1  1
  6 42  1  1
  7 43  1  0
  7 44  1  0
  9 45  1  0
 10 46  1  0
 11 47  1  0
 12 48  1  0
 13 49  1  0
 14 50  1  0
 14 51  1  0
 15 52  1  0
 15 53  1  0
 16 54  1  1
 18 55  1  0
 19 56  1  0
 21 57  1  0
 22 58  1  0
 23 59  1  0
 23 60  1  0
 23 61  1  0
 24 62  1  0
 24 63  1  0
 24 64  1  0
 25 65  1  0
 25 66  1  0
 26 67  1  0
 28 68  1  0
 28 69  1  0
 31 70  1  0
M  END
>  <filename_input>  (24) 
6XCT_478_docked.sdf

>  <pdb_id>  (24) 
6XCT_478

>  <pose_rank>  (24) 
23

>  <num_atoms_heavy>  (24) 
35

>  <num_torsions>  (24) 
12

>  <pose>  (24) 
[15.411727925948412, 17.345020280620158, -11.026759909851256, -0.530599208942827, 1.3941434161352542, -3.4775821518896395, -36.6451609143391, -0.021796514897584295, -0.8128782250575475, -0.804571433940645, -30.148184862839422, -3.5523576124964165, -32.85078487476978, -43.76825327615075, -52.39281212150651, -2.864732118770181, 0.5543672349139035, -1.9665099350028161]

>  <energy>  (24) 
-446.1405040278151

>  <inter_energy>  (24) 
-489.24052432653394

>  <intra_energy>  (24) 
45.178549858582336

>  <rmsd>  (24) 
8.71672

>  <sdf_rank>  (24) 
0

$$$$

     RDKit          3D

 70 72  0  0  0  0  0  0  0  0999 V2000
   11.0253   11.9561  -11.3295 C   0  0  0  0  0  0  0  0  0  0  0  0
   10.4889   12.0146  -13.6151 C   0  0  0  0  0  0  0  0  0  0  0  0
   12.2125   14.6127  -11.6411 C   0  0  0  0  0  0  0  0  0  0  0  0
   10.7709   12.9867  -12.4493 C   0  0  2  0  0  0  0  0  0  0  0  0
   13.7387   16.4384  -11.1153 C   0  0  2  0  0  0  0  0  0  0  0  0
   13.0730   17.7702  -11.4946 C   0  0  1  0  0  0  0  0  0  0  0  0
   15.2740   16.4722  -11.1652 C   0  0  0  0  0  0  0  0  0  0  0  0
   15.7793   17.0850  -12.4572 C   0  0  0  0  0  0  0  0  0  0  0  0
   17.0849   16.8810  -12.8763 C   0  0  0  0  0  0  0  0  0  0  0  0
   14.9453   17.8541  -13.2564 C   0  0  0  0  0  0  0  0  0  0  0  0
   17.5482   17.4293  -14.0631 C   0  0  0  0  0  0  0  0  0  0  0  0
   15.4087   18.3980  -14.4453 C   0  0  0  0  0  0  0  0  0  0  0  0
   16.7060   18.1820  -14.8467 C   0  0  0  0  0  0  0  0  0  0  0  0
   13.7187   18.9306  -10.7617 C   0  0  0  0  0  0  0  0  0  0  0  0
   12.5999   18.8906   -8.5539 C   0  0  0  0  0  0  0  0  0  0  0  0
   12.7317   18.7251   -7.0545 C   0  0  2  0  0  0  0  0  0  0  0  0
   15.9984   20.4174   -9.7729 C   0  0  0  0  0  0  0  0  0  0  0  0
   15.3551   21.5606  -10.2328 C   0  0  0  0  0  0  0  0  0  0  0  0
   15.9911   22.3779  -11.1498 C   0  0  0  0  0  0  0  0  0  0  0  0
   17.2812   22.0749  -11.6126 C   0  0  0  0  0  0  0  0  0  0  0  0
   17.9165   20.9249  -11.1276 C   0  0  0  0  0  0  0  0  0  0  0  0
   17.2783   20.1008  -10.2204 C   0  0  0  0  0  0  0  0  0  0  0  0
   11.8157   17.7079   -6.4551 C   0  0  0  0  0  0  0  0  0  0  0  0
   12.4846   20.1145   -6.4296 C   0  0  0  0  0  0  0  0  0  0  0  0
   11.6219   11.0301  -13.4052 C   0  0  0  0  0  0  0  0  0  0  0  0
   13.2361   15.3870  -11.9893 N   0  0  0  0  0  0  0  0  0  0  0  0
   13.8575   18.7833   -9.3083 N   0  0  0  0  0  0  0  0  0  0  0  0
   17.9150   22.8918  -12.5249 N   0  0  0  0  0  0  0  0  0  0  0  0
   11.9398   13.7426  -12.6597 O   0  0  0  0  0  0  0  0  0  0  0  0
   11.6118   14.6405  -10.5739 O   0  0  0  0  0  0  0  0  0  0  0  0
   13.2091   18.0368  -12.8912 O   0  0  0  0  0  0  0  0  0  0  0  0
   16.0675   18.2587   -8.3257 O   0  0  0  0  0  0  0  0  0  0  0  0
   14.7522   20.1763   -7.5136 O   0  0  0  0  0  0  0  0  0  0  0  0
   11.7766   10.9053  -11.9766 O   0  0  0  0  0  0  0  0  0  0  0  0
   15.2054   19.3648   -8.5984 S   0  0  1  0  0  0  0  0  0  0  0  0
   11.6080   12.4050  -10.5115 H   0  0  0  0  0  0  0  0  0  0  0  0
   10.0928   11.5886  -10.8762 H   0  0  0  0  0  0  0  0  0  0  0  0
    9.5046   11.5331  -13.5181 H   0  0  0  0  0  0  0  0  0  0  0  0
   10.4530   12.4790  -14.6117 H   0  0  0  0  0  0  0  0  0  0  0  0
    9.9781   13.7289  -12.2749 H   0  0  0  0  0  0  0  0  0  0  0  0
   13.4752   16.2392  -10.0660 H   0  0  0  0  0  0  0  0  0  0  0  0
   12.0122   17.6758  -11.2192 H   0  0  0  0  0  0  0  0  0  0  0  0
   15.6453   17.0684  -10.3187 H   0  0  0  0  0  0  0  0  0  0  0  0
   15.6420   15.4370  -11.1095 H   0  0  0  0  0  0  0  0  0  0  0  0
   17.7637   16.2751  -12.2583 H   0  0  0  0  0  0  0  0  0  0  0  0
   13.9062   18.0342  -12.9439 H   0  0  0  0  0  0  0  0  0  0  0  0
   18.5890   17.2620  -14.3771 H   0  0  0  0  0  0  0  0  0  0  0  0
   14.7358   19.0044  -15.0694 H   0  0  0  0  0  0  0  0  0  0  0  0
   17.0691   18.6104  -15.7925 H   0  0  0  0  0  0  0  0  0  0  0  0
   14.7251   19.0744  -11.1819 H   0  0  0  0  0  0  0  0  0  0  0  0
   13.0406   19.7843  -10.9073 H   0  0  0  0  0  0  0  0  0  0  0  0
   11.9142   18.1137   -8.9231 H   0  0  0  0  0  0  0  0  0  0  0  0
   12.2324   19.9144   -8.7170 H   0  0  0  0  0  0  0  0  0  0  0  0
   13.7393   18.3399   -6.8387 H   0  0  0  0  0  0  0  0  0  0  0  0
   14.3478   21.8134   -9.8702 H   0  0  0  0  0  0  0  0  0  0  0  0
   15.4788   23.2775  -11.5216 H   0  0  0  0  0  0  0  0  0  0  0  0
   18.9312   20.6758  -11.4714 H   0  0  0  0  0  0  0  0  0  0  0  0
   17.7814   19.1947   -9.8518 H   0  0  0  0  0  0  0  0  0  0  0  0
   11.8693   17.7674   -5.3580 H   0  0  0  0  0  0  0  0  0  0  0  0
   10.7843   17.9048   -6.7831 H   0  0  0  0  0  0  0  0  0  0  0  0
   12.1191   16.7027   -6.7831 H   0  0  0  0  0  0  0  0  0  0  0  0
   12.4994   20.0312   -5.3329 H   0  0  0  0  0  0  0  0  0  0  0  0
   13.2733   20.8086   -6.7553 H   0  0  0  0  0  0  0  0  0  0  0  0
   11.5048   20.4940   -6.7553 H   0  0  0  0  0  0  0  0  0  0  0  0
   11.3696   10.0559  -13.8493 H   0  0  0  0  0  0  0  0  0  0  0  0
   12.5505   11.3746  -13.8837 H   0  0  0  0  0  0  0  0  0  0  0  0
   13.6867   15.2390  -12.9036 H   0  0  0  0  0  0  0  0  0  0  0  0
   18.8617   22.6571  -12.8557 H   0  0  0  0  0  0  0  0  0  0  0  0
   17.4416   23.7367  -12.8756 H   0  0  0  0  0  0  0  0  0  0  0  0
   13.6557   18.9112  -13.0182 H   0  0  0  0  0  0  0  0  0  0  0  0
  1  4  1  0
  1 34  1  0
  2  4  1  0
  2 25  1  0
  3 26  1  0
  3 29  1  0
  3 30  2  0
  4 29  1  0
  5  6  1  0
  5  7  1  0
  5 26  1  0
  6 14  1  0
  6 31  1  0
  7  8  1  0
  8  9  2  0
  8 10  1  0
  9 11  1  0
 10 12  2  0
 11 13  2  0
 12 13  1  0
 14 27  1  0
 15 16  1  0
 15 27  1  0
 16 23  1  0
 16 24  1  0
 17 18  2  0
 17 22  1  0
 17 35  1  0
 18 19  1  0
 19 20  2  0
 20 21  1  0
 20 28  1  0
 21 22  2  0
 25 34  1  0
 35 27  1  6
 32 35  2  0
 33 35  2  0
  1 36  1  0
  1 37  1  0
  2 38  1  0
  2 39  1  0
  4 40  1  1
  5 41  1  1
  6 42  1  1
  7 43  1  0
  7 44  1  0
  9 45  1  0
 10 46  1  0
 11 47  1  0
 12 48  1  0
 13 49  1  0
 14 50  1  0
 14 51  1  0
 15 52  1  0
 15 53  1  0
 16 54  1  6
 18 55  1  0
 19 56  1  0
 21 57  1  0
 22 58  1  0
 23 59  1  0
 23 60  1  0
 23 61  1  0
 24 62  1  0
 24 63  1  0
 24 64  1  0
 25 65  1  0
 25 66  1  0
 26 67  1  0
 28 68  1  0
 28 69  1  0
 31 70  1  0
M  END
>  <filename_input>  (25) 
6XCT_478_docked.sdf

>  <pdb_id>  (25) 
6XCT_478

>  <pose_rank>  (25) 
24

>  <num_atoms_heavy>  (25) 
35

>  <num_torsions>  (25) 
12

>  <pose>  (25) 
[13.07295009216822, 17.770180837294063, -11.494576105134403, -0.3337367733069609, -1.3580095315439025, 0.12475442494845868, -12.158248245142133, 0.665290808915688, 0.08948437902456718, 0.35411713805323464, -3.949800065206852, 4.895663192516088, -5.827761246441757, -5.623105891334318, -7.930759728454012, -3.7298288831591835, 7.673313047928998, -1.6806012966537431]

>  <energy>  (25) 
-370.7326950572677

>  <inter_energy>  (25) 
-694.3234985983586

>  <intra_energy>  (25) 
332.39136508968835

>  <rmsd>  (25) 
3.88763

>  <sdf_rank>  (25) 
0

$$$$

     RDKit          3D

 70 72  0  0  0  0  0  0  0  0999 V2000
    9.7980   10.7080  -10.3170 C   0  0  0  0  0  0  0  0  0  0  0  0
    9.1380   11.0550   -8.0900 C   0  0  0  0  0  0  0  0  0  0  0  0
   10.8010   13.6670  -10.0410 C   0  0  0  0  0  0  0  0  0  0  0  0
   10.1080   11.6490   -9.1340 C   0  0  2  0  0  0  0  0  0  0  0  0
   11.3000   15.9030  -10.8720 C   0  0  2  0  0  0  0  0  0  0  0  0
   11.1750   17.2100  -10.0740 C   0  0  1  0  0  0  0  0  0  0  0  0
   11.0230   16.0610  -12.3750 C   0  0  0  0  0  0  0  0  0  0  0  0
   11.2050   14.7520  -13.1190 C   0  0  0  0  0  0  0  0  0  0  0  0
   12.4650   14.3290  -13.5130 C   0  0  0  0  0  0  0  0  0  0  0  0
   10.1180   13.9410  -13.4130 C   0  0  0  0  0  0  0  0  0  0  0  0
   12.6380   13.1270  -14.1830 C   0  0  0  0  0  0  0  0  0  0  0  0
   10.2930   12.7370  -14.0790 C   0  0  0  0  0  0  0  0  0  0  0  0
   11.5510   12.3320  -14.4590 C   0  0  0  0  0  0  0  0  0  0  0  0
   12.3230   18.1510  -10.3860 C   0  0  0  0  0  0  0  0  0  0  0  0
   14.0350   18.7710   -8.7090 C   0  0  0  0  0  0  0  0  0  0  0  0
   13.7780   18.3090   -7.2900 C   0  0  2  0  0  0  0  0  0  0  0  0
   16.0190   18.4080  -10.9170 C   0  0  0  0  0  0  0  0  0  0  0  0
   15.8770   19.3620  -11.9180 C   0  0  0  0  0  0  0  0  0  0  0  0
   16.8550   20.3260  -12.0840 C   0  0  0  0  0  0  0  0  0  0  0  0
   17.9820   20.3610  -11.2480 C   0  0  0  0  0  0  0  0  0  0  0  0
   18.1000   19.3980  -10.2380 C   0  0  0  0  0  0  0  0  0  0  0  0
   17.1300   18.4270  -10.0780 C   0  0  0  0  0  0  0  0  0  0  0  0
   12.5730   17.4410   -7.1240 C   0  0  0  0  0  0  0  0  0  0  0  0
   13.6560   19.5800   -6.4230 C   0  0  0  0  0  0  0  0  0  0  0  0
    7.8980   10.9090   -8.9490 C   0  0  0  0  0  0  0  0  0  0  0  0
   10.4010   14.9080  -10.3030 N   0  0  0  0  0  0  0  0  0  0  0  0
   13.6110   17.8330   -9.7590 N   0  0  0  0  0  0  0  0  0  0  0  0
   18.9550   21.3240  -11.4130 N   0  0  0  0  0  0  0  0  0  0  0  0
    9.7650   12.9680   -9.4870 O   0  0  0  0  0  0  0  0  0  0  0  0
   11.9080   13.1970  -10.2740 O   0  0  0  0  0  0  0  0  0  0  0  0
    9.9710   17.9040  -10.4040 O   0  0  0  0  0  0  0  0  0  0  0  0
   14.2050   16.8630  -11.9570 O   0  0  0  0  0  0  0  0  0  0  0  0
   15.3450   16.1200   -9.9040 O   0  0  0  0  0  0  0  0  0  0  0  0
    8.3670   10.5190  -10.2560 O   0  0  0  0  0  0  0  0  0  0  0  0
   14.7790   17.1730  -10.6860 S   0  0  1  0  0  0  0  0  0  0  0  0
   10.0897   11.1718  -11.2709 H   0  0  0  0  0  0  0  0  0  0  0  0
   10.3507    9.7589  -10.2556 H   0  0  0  0  0  0  0  0  0  0  0  0
    9.4895   10.0845   -7.7097 H   0  0  0  0  0  0  0  0  0  0  0  0
    9.0064   11.6577   -7.1793 H   0  0  0  0  0  0  0  0  0  0  0  0
   11.1549   11.7053   -8.8011 H   0  0  0  0  0  0  0  0  0  0  0  0
   12.3485   15.5803  -10.7906 H   0  0  0  0  0  0  0  0  0  0  0  0
   11.1803   16.9259   -9.0113 H   0  0  0  0  0  0  0  0  0  0  0  0
    9.9884   16.4083  -12.5123 H   0  0  0  0  0  0  0  0  0  0  0  0
   11.7402   16.7893  -12.7814 H   0  0  0  0  0  0  0  0  0  0  0  0
   13.3409   14.9562  -13.2909 H   0  0  0  0  0  0  0  0  0  0  0  0
    9.1072   14.2562  -13.1148 H   0  0  0  0  0  0  0  0  0  0  0  0
   13.6446   12.8100  -14.4934 H   0  0  0  0  0  0  0  0  0  0  0  0
    9.4222   12.1037  -14.3041 H   0  0  0  0  0  0  0  0  0  0  0  0
   11.6872   11.3742  -14.9826 H   0  0  0  0  0  0  0  0  0  0  0  0
   12.4711   18.1497  -11.4760 H   0  0  0  0  0  0  0  0  0  0  0  0
   12.0261   19.1251   -9.9701 H   0  0  0  0  0  0  0  0  0  0  0  0
   13.4969   19.7182   -8.8613 H   0  0  0  0  0  0  0  0  0  0  0  0
   15.1266   18.8654   -8.8065 H   0  0  0  0  0  0  0  0  0  0  0  0
   14.6163   17.6675   -6.9805 H   0  0  0  0  0  0  0  0  0  0  0  0
   14.9935   19.3504  -12.5732 H   0  0  0  0  0  0  0  0  0  0  0  0
   16.7481   21.0754  -12.8821 H   0  0  0  0  0  0  0  0  0  0  0  0
   18.9715   19.4147   -9.5670 H   0  0  0  0  0  0  0  0  0  0  0  0
   17.2355   17.6691   -9.2878 H   0  0  0  0  0  0  0  0  0  0  0  0
   12.3708   17.2954   -6.0526 H   0  0  0  0  0  0  0  0  0  0  0  0
   11.7056   17.9231   -7.5986 H   0  0  0  0  0  0  0  0  0  0  0  0
   12.7555   16.4656   -7.5986 H   0  0  0  0  0  0  0  0  0  0  0  0
   13.6827   19.3020   -5.3590 H   0  0  0  0  0  0  0  0  0  0  0  0
   14.4932   20.2577   -6.6460 H   0  0  0  0  0  0  0  0  0  0  0  0
   12.7051   20.0861   -6.6460 H   0  0  0  0  0  0  0  0  0  0  0  0
    7.2340   10.1363   -8.5343 H   0  0  0  0  0  0  0  0  0  0  0  0
    7.3217   11.8451   -8.9891 H   0  0  0  0  0  0  0  0  0  0  0  0
    9.4272   15.1733  -10.0976 H   0  0  0  0  0  0  0  0  0  0  0  0
   19.7767   21.3376  -10.7921 H   0  0  0  0  0  0  0  0  0  0  0  0
   18.8601   22.0298  -12.1572 H   0  0  0  0  0  0  0  0  0  0  0  0
    9.5060   18.1720   -9.5721 H   0  0  0  0  0  0  0  0  0  0  0  0
  1  4  1  0
  1 34  1  0
  2  4  1  0
  2 25  1  0
  3 26  1  0
  3 29  1  0
  3 30  2  0
  4 29  1  0
  5  6  1  0
  5  7  1  0
  5 26  1  0
  6 14  1  0
  6 31  1  0
  7  8  1  0
  8  9  2  0
  8 10  1  0
  9 11  1  0
 10 12  2  0
 11 13  2  0
 12 13  1  0
 14 27  1  0
 15 16  1  0
 15 27  1  0
 16 23  1  0
 16 24  1  0
 17 18  2  0
 17 22  1  0
 17 35  1  0
 18 19  1  0
 19 20  2  0
 20 21  1  0
 20 28  1  0
 21 22  2  0
 25 34  1  0
 35 27  1  1
 32 35  2  0
 33 35  2  0
  1 36  1  0
  1 37  1  0
  2 38  1  0
  2 39  1  0
  4 40  1  1
  5 41  1  6
  6 42  1  1
  7 43  1  0
  7 44  1  0
  9 45  1  0
 10 46  1  0
 11 47  1  0
 12 48  1  0
 13 49  1  0
 14 50  1  0
 14 51  1  0
 15 52  1  0
 15 53  1  0
 16 54  1  1
 18 55  1  0
 19 56  1  0
 21 57  1  0
 22 58  1  0
 23 59  1  0
 23 60  1  0
 23 61  1  0
 24 62  1  0
 24 63  1  0
 24 64  1  0
 25 65  1  0
 25 66  1  0
 26 67  1  0
 28 68  1  0
 28 69  1  0
 31 70  1  0
M  END
>  <filename_input>  (26) 
6XCT_478_docked.sdf

>  <pdb_id>  (26) 
6XCT_478

>  <pose_rank>  (26) 
25

>  <num_atoms_heavy>  (26) 
35

>  <num_torsions>  (26) 
12

>  <pose>  (26) 
[11.175, 17.21, -10.074, 1e-06, 1e-06, 1e-06, 0.0, 0.0, 0.0, 0.0, 0.0, 0.0, 0.0, 0.0, 0.0, 0.0, 0.0, 0.0]

>  <energy>  (26) 
-1102.6945908396663

>  <inter_energy>  (26) 
-1156.4040316223268

>  <intra_energy>  (26) 
50.783089602319265

>  <rmsd>  (26) 
0.0

>  <sdf_rank>  (26) 
0

$$$$
