
     RDKit          3D

 39 40  0  0  0  0  0  0  0  0999 V2000
   -8.2947   26.9608   18.8224 C   0  0  0  0  0  0  0  0  0  0  0  0
   -8.3911   26.4546   20.0649 N   0  0  0  0  0  0  0  0  0  0  0  0
   -8.9241   25.2182   20.1927 C   0  0  0  0  0  0  0  0  0  0  0  0
   -9.0270   24.7004   21.4181 N   0  0  0  0  0  0  0  0  0  0  0  0
   -9.3746   24.4771   19.1675 N   0  0  0  0  0  0  0  0  0  0  0  0
   -9.2381   24.9834   17.9241 C   0  0  0  0  0  0  0  0  0  0  0  0
   -9.6649   24.1996   16.9109 N   0  0  0  0  0  0  0  0  0  0  0  0
   -8.6966   26.2790   17.6836 C   0  0  0  0  0  0  0  0  0  0  0  0
   -8.5005   26.8300   16.2672 C   0  0  0  0  0  0  0  0  0  0  0  0
   -8.0456   28.2700   16.1316 C   0  0  0  0  0  0  0  0  0  0  0  0
   -6.7651   28.6681   16.5103 C   0  0  0  0  0  0  0  0  0  0  0  0
   -6.3775   30.0039   16.4390 C   0  0  0  0  0  0  0  0  0  0  0  0
   -5.1675   30.4960   16.8488 O   0  0  0  0  0  0  0  0  0  0  0  0
   -4.0039   29.7265   16.5477 C   0  0  0  0  0  0  0  0  0  0  0  0
   -7.2674   30.9696   15.9601 C   0  0  0  0  0  0  0  0  0  0  0  0
   -6.8906   32.2921   15.8168 O   0  0  0  0  0  0  0  0  0  0  0  0
   -7.1219   33.1289   16.9381 C   0  0  0  0  0  0  0  0  0  0  0  0
   -8.5253   30.5580   15.5216 C   0  0  0  0  0  0  0  0  0  0  0  0
   -9.3170   31.5678   15.0627 O   0  0  0  0  0  0  0  0  0  0  0  0
  -10.5437   31.8151   15.7471 C   0  0  0  0  0  0  0  0  0  0  0  0
   -8.9071   29.2225   15.6043 C   0  0  0  0  0  0  0  0  0  0  0  0
   -7.8744   27.9703   18.7031 H   0  0  0  0  0  0  0  0  0  0  0  0
   -9.4286   23.7608   21.5480 H   0  0  0  0  0  0  0  0  0  0  0  0
   -8.7048   25.2401   22.2340 H   0  0  0  0  0  0  0  0  0  0  0  0
   -9.5883   24.5286   15.9378 H   0  0  0  0  0  0  0  0  0  0  0  0
  -10.0672   23.2728   17.1110 H   0  0  0  0  0  0  0  0  0  0  0  0
   -7.7492   26.1992   15.7696 H   0  0  0  0  0  0  0  0  0  0  0  0
   -9.5044   26.8105   15.8180 H   0  0  0  0  0  0  0  0  0  0  0  0
   -6.0489   27.9153   16.8713 H   0  0  0  0  0  0  0  0  0  0  0  0
   -3.5224   29.4082   17.4841 H   0  0  0  0  0  0  0  0  0  0  0  0
   -4.2915   28.8400   15.9634 H   0  0  0  0  0  0  0  0  0  0  0  0
   -3.3008   30.3384   15.9634 H   0  0  0  0  0  0  0  0  0  0  0  0
   -6.9632   32.5549   17.8629 H   0  0  0  0  0  0  0  0  0  0  0  0
   -6.4253   33.9798   16.9105 H   0  0  0  0  0  0  0  0  0  0  0  0
   -8.1566   33.5012   16.9105 H   0  0  0  0  0  0  0  0  0  0  0  0
  -10.3712   31.7803   16.8330 H   0  0  0  0  0  0  0  0  0  0  0  0
  -10.9255   32.8082   15.4681 H   0  0  0  0  0  0  0  0  0  0  0  0
  -11.2804   31.0474   15.4681 H   0  0  0  0  0  0  0  0  0  0  0  0
   -9.9023   28.9181   15.2481 H   0  0  0  0  0  0  0  0  0  0  0  0
  1  2  2  0
  1  8  1  0
  2  3  1  0
  3  4  1  0
  3  5  2  0
  5  6  1  0
  6  7  1  0
  6  8  2  0
  8  9  1  0
  9 10  1  0
 10 11  2  0
 10 21  1  0
 11 12  1  0
 12 13  1  0
 12 15  2  0
 13 14  1  0
 15 16  1  0
 15 18  1  0
 16 17  1  0
 18 19  1  0
 18 21  2  0
 19 20  1  0
  1 22  1  0
  4 23  1  0
  4 24  1  0
  7 25  1  0
  7 26  1  0
  9 27  1  0
  9 28  1  0
 11 29  1  0
 14 30  1  0
 14 31  1  0
 14 32  1  0
 17 33  1  0
 17 34  1  0
 17 35  1  0
 20 36  1  0
 20 37  1  0
 20 38  1  0
 21 39  1  0
M  END
>  <filename_input>  (1) 
6XG5_TOP_docked.sdf

>  <pdb_id>  (1) 
6XG5_TOP

>  <pose_rank>  (1) 
0

>  <num_atoms_heavy>  (1) 
21

>  <num_torsions>  (1) 
5

>  <pose>  (1) 
[-8.045565384497902, 28.270004011823413, 16.13157763223431, 1.8998276993322536, 5.5016790937102025, -1.6743809555310083, 6.797528817452351, -0.2021923953281425, 1.3762076606222, -0.165901403329155, 0.0052755241438178346]

>  <energy>  (1) 
-1649.0752479974406

>  <inter_energy>  (1) 
-1603.051093828696

>  <intra_energy>  (1) 
14.979835391343933

>  <rmsd>  (1) 
0.37594

>  <sdf_rank>  (1) 
0

$$$$

     RDKit          3D

 39 40  0  0  0  0  0  0  0  0999 V2000
   -8.0940   26.8217   18.9135 C   0  0  0  0  0  0  0  0  0  0  0  0
   -8.2975   26.3691   20.1638 N   0  0  0  0  0  0  0  0  0  0  0  0
   -8.9509   25.1929   20.3002 C   0  0  0  0  0  0  0  0  0  0  0  0
   -9.1611   24.7286   21.5333 N   0  0  0  0  0  0  0  0  0  0  0  0
   -9.4200   24.4627   19.2755 N   0  0  0  0  0  0  0  0  0  0  0  0
   -9.1764   24.9116   18.0264 C   0  0  0  0  0  0  0  0  0  0  0  0
   -9.6266   24.1373   17.0160 N   0  0  0  0  0  0  0  0  0  0  0  0
   -8.5035   26.1422   17.7761 C   0  0  0  0  0  0  0  0  0  0  0  0
   -8.1882   26.6243   16.3560 C   0  0  0  0  0  0  0  0  0  0  0  0
   -7.8837   28.0975   16.1669 C   0  0  0  0  0  0  0  0  0  0  0  0
   -8.9009   29.0430   16.0550 C   0  0  0  0  0  0  0  0  0  0  0  0
   -8.6118   30.3850   15.8204 C   0  0  0  0  0  0  0  0  0  0  0  0
   -9.5434   31.3703   15.6318 O   0  0  0  0  0  0  0  0  0  0  0  0
  -10.6565   31.0760   14.7885 C   0  0  0  0  0  0  0  0  0  0  0  0
   -7.2844   30.8105   15.7163 C   0  0  0  0  0  0  0  0  0  0  0  0
   -6.9641   32.1450   15.5485 O   0  0  0  0  0  0  0  0  0  0  0  0
   -6.8406   32.9084   16.7371 C   0  0  0  0  0  0  0  0  0  0  0  0
   -6.2679   29.8727   15.8932 C   0  0  0  0  0  0  0  0  0  0  0  0
   -5.0091   30.3834   15.7848 O   0  0  0  0  0  0  0  0  0  0  0  0
   -3.9294   29.4644   15.6297 C   0  0  0  0  0  0  0  0  0  0  0  0
   -6.5662   28.5324   16.1189 C   0  0  0  0  0  0  0  0  0  0  0  0
   -7.5745   27.7829   18.7865 H   0  0  0  0  0  0  0  0  0  0  0  0
   -9.6559   23.8356   21.6700 H   0  0  0  0  0  0  0  0  0  0  0  0
   -8.8288   25.2633   22.3486 H   0  0  0  0  0  0  0  0  0  0  0  0
   -9.4724   24.4246   16.0390 H   0  0  0  0  0  0  0  0  0  0  0  0
  -10.1241   23.2593   17.2223 H   0  0  0  0  0  0  0  0  0  0  0  0
   -7.3129   26.0592   16.0033 H   0  0  0  0  0  0  0  0  0  0  0  0
   -9.1169   26.4559   15.7910 H   0  0  0  0  0  0  0  0  0  0  0  0
   -9.9492   28.7245   16.1534 H   0  0  0  0  0  0  0  0  0  0  0  0
  -11.5350   30.8437   15.4085 H   0  0  0  0  0  0  0  0  0  0  0  0
  -10.8758   31.9470   14.1535 H   0  0  0  0  0  0  0  0  0  0  0  0
  -10.4167   30.2104   14.1535 H   0  0  0  0  0  0  0  0  0  0  0  0
   -6.9475   32.2476   17.6100 H   0  0  0  0  0  0  0  0  0  0  0  0
   -5.8526   33.3915   16.7617 H   0  0  0  0  0  0  0  0  0  0  0  0
   -7.6259   33.6783   16.7617 H   0  0  0  0  0  0  0  0  0  0  0  0
   -3.5659   29.1551   16.6208 H   0  0  0  0  0  0  0  0  0  0  0  0
   -4.2768   28.5807   15.0744 H   0  0  0  0  0  0  0  0  0  0  0  0
   -3.1126   29.9487   15.0744 H   0  0  0  0  0  0  0  0  0  0  0  0
   -5.7492   27.8097   16.2609 H   0  0  0  0  0  0  0  0  0  0  0  0
  1  2  2  0
  1  8  1  0
  2  3  1  0
  3  4  1  0
  3  5  2  0
  5  6  1  0
  6  7  1  0
  6  8  2  0
  8  9  1  0
  9 10  1  0
 10 11  2  0
 10 21  1  0
 11 12  1  0
 12 13  1  0
 12 15  2  0
 13 14  1  0
 15 16  1  0
 15 18  1  0
 16 17  1  0
 18 19  1  0
 18 21  2  0
 19 20  1  0
  1 22  1  0
  4 23  1  0
  4 24  1  0
  7 25  1  0
  7 26  1  0
  9 27  1  0
  9 28  1  0
 11 29  1  0
 14 30  1  0
 14 31  1  0
 14 32  1  0
 17 33  1  0
 17 34  1  0
 17 35  1  0
 20 36  1  0
 20 37  1  0
 20 38  1  0
 21 39  1  0
M  END
>  <filename_input>  (2) 
6XG5_TOP_docked.sdf

>  <pdb_id>  (2) 
6XG5_TOP

>  <pose_rank>  (2) 
1

>  <num_atoms_heavy>  (2) 
21

>  <num_torsions>  (2) 
5

>  <pose>  (2) 
[-7.883712443681087, 28.097469056187144, 16.16693759881676, 0.8927241385626183, 3.128306671068947, -0.36538242811218397, -0.9573381079940116, -3.3871468307343147, 0.5567605351866635, 16.04930146191951, -0.22267474040229054]

>  <energy>  (2) 
-1614.4942770963528

>  <inter_energy>  (2) 
-1589.254596945569

>  <intra_energy>  (2) 
7.4027933550713225

>  <rmsd>  (2) 
0.398272

>  <sdf_rank>  (2) 
0

$$$$

     RDKit          3D

 39 40  0  0  0  0  0  0  0  0999 V2000
   -8.4029   27.0351   18.8479 C   0  0  0  0  0  0  0  0  0  0  0  0
   -8.4392   26.4845   20.0747 N   0  0  0  0  0  0  0  0  0  0  0  0
   -8.9420   25.2335   20.1798 C   0  0  0  0  0  0  0  0  0  0  0  0
   -8.9853   24.6717   21.3892 N   0  0  0  0  0  0  0  0  0  0  0  0
   -9.4189   24.5188   19.1477 N   0  0  0  0  0  0  0  0  0  0  0  0
   -9.3426   25.0704   17.9185 C   0  0  0  0  0  0  0  0  0  0  0  0
   -9.7943   24.3132   16.8960 N   0  0  0  0  0  0  0  0  0  0  0  0
   -8.8368   26.3847   17.7026 C   0  0  0  0  0  0  0  0  0  0  0  0
   -8.7089   26.9882   16.2998 C   0  0  0  0  0  0  0  0  0  0  0  0
   -8.4212   28.4734   16.1989 C   0  0  0  0  0  0  0  0  0  0  0  0
   -7.1943   29.0059   16.5896 C   0  0  0  0  0  0  0  0  0  0  0  0
   -6.9616   30.3785   16.5504 C   0  0  0  0  0  0  0  0  0  0  0  0
   -5.8154   30.9955   16.9742 O   0  0  0  0  0  0  0  0  0  0  0  0
   -4.5699   30.4131   16.5915 C   0  0  0  0  0  0  0  0  0  0  0  0
   -7.9561   31.2474   16.0923 C   0  0  0  0  0  0  0  0  0  0  0  0
   -7.7326   32.6073   15.9807 O   0  0  0  0  0  0  0  0  0  0  0  0
   -6.7836   33.0027   15.0039 C   0  0  0  0  0  0  0  0  0  0  0  0
   -9.1590   30.7055   15.6416 C   0  0  0  0  0  0  0  0  0  0  0  0
  -10.0609   31.6289   15.2047 O   0  0  0  0  0  0  0  0  0  0  0  0
  -11.0682   31.1955   14.2924 C   0  0  0  0  0  0  0  0  0  0  0  0
   -9.3860   29.3335   15.6922 C   0  0  0  0  0  0  0  0  0  0  0  0
   -8.0077   28.0568   18.7478 H   0  0  0  0  0  0  0  0  0  0  0  0
   -9.3627   23.7199   21.5018 H   0  0  0  0  0  0  0  0  0  0  0  0
   -8.6412   25.1897   22.2103 H   0  0  0  0  0  0  0  0  0  0  0  0
   -9.7635   24.6770   15.9329 H   0  0  0  0  0  0  0  0  0  0  0  0
  -10.1698   23.3717   17.0790 H   0  0  0  0  0  0  0  0  0  0  0  0
   -7.8921   26.4591   15.7870 H   0  0  0  0  0  0  0  0  0  0  0  0
   -9.7054   26.8652   15.8506 H   0  0  0  0  0  0  0  0  0  0  0  0
   -6.3968   28.3314   16.9344 H   0  0  0  0  0  0  0  0  0  0  0  0
   -3.9980   30.1457   17.4924 H   0  0  0  0  0  0  0  0  0  0  0  0
   -4.7563   29.5088   15.9937 H   0  0  0  0  0  0  0  0  0  0  0  0
   -3.9954   31.1360   15.9937 H   0  0  0  0  0  0  0  0  0  0  0  0
   -5.8788   33.3797   15.5032 H   0  0  0  0  0  0  0  0  0  0  0  0
   -6.5225   32.1385   14.3755 H   0  0  0  0  0  0  0  0  0  0  0  0
   -7.2134   33.7966   14.3755 H   0  0  0  0  0  0  0  0  0  0  0  0
  -11.9363   30.8219   14.8552 H   0  0  0  0  0  0  0  0  0  0  0  0
  -11.3774   32.0402   13.6593 H   0  0  0  0  0  0  0  0  0  0  0  0
  -10.6674   30.3902   13.6593 H   0  0  0  0  0  0  0  0  0  0  0  0
  -10.3402   28.9261   15.3268 H   0  0  0  0  0  0  0  0  0  0  0  0
  1  2  2  0
  1  8  1  0
  2  3  1  0
  3  4  1  0
  3  5  2  0
  5  6  1  0
  6  7  1  0
  6  8  2  0
  8  9  1  0
  9 10  1  0
 10 11  2  0
 10 21  1  0
 11 12  1  0
 12 13  1  0
 12 15  2  0
 13 14  1  0
 15 16  1  0
 15 18  1  0
 16 17  1  0
 18 19  1  0
 18 21  2  0
 19 20  1  0
  1 22  1  0
  4 23  1  0
  4 24  1  0
  7 25  1  0
  7 26  1  0
  9 27  1  0
  9 28  1  0
 11 29  1  0
 14 30  1  0
 14 31  1  0
 14 32  1  0
 17 33  1  0
 17 34  1  0
 17 35  1  0
 20 36  1  0
 20 37  1  0
 20 38  1  0
 21 39  1  0
M  END
>  <filename_input>  (3) 
6XG5_TOP_docked.sdf

>  <pdb_id>  (3) 
6XG5_TOP

>  <pose_rank>  (3) 
2

>  <num_atoms_heavy>  (3) 
21

>  <num_torsions>  (3) 
5

>  <pose>  (3) 
[-8.42120502981488, 28.473404897434826, 16.198933650395386, -0.8532317994312076, -5.020924523511093, 4.133654339426748, 0.5763352818715894, 2.5437566615470053, -0.10219128760964578, -0.1683573128342951, -0.0965050245079957]

>  <energy>  (3) 
-1552.368811619345

>  <inter_energy>  (3) 
-1566.3739915377384

>  <intra_energy>  (3) 
21.519233456460775

>  <rmsd>  (3) 
0.826825

>  <sdf_rank>  (3) 
0

$$$$

     RDKit          3D

 39 40  0  0  0  0  0  0  0  0999 V2000
   -9.1379   25.0286   17.8382 C   0  0  0  0  0  0  0  0  0  0  0  0
   -9.3845   24.4800   19.0414 N   0  0  0  0  0  0  0  0  0  0  0  0
   -9.1669   25.2498   20.1318 C   0  0  0  0  0  0  0  0  0  0  0  0
   -9.4067   24.7218   21.3335 N   0  0  0  0  0  0  0  0  0  0  0  0
   -8.7081   26.5111   20.0902 N   0  0  0  0  0  0  0  0  0  0  0  0
   -8.4997   27.0596   18.8749 C   0  0  0  0  0  0  0  0  0  0  0  0
   -8.0751   28.3412   18.8639 N   0  0  0  0  0  0  0  0  0  0  0  0
   -8.6919   26.3304   17.6661 C   0  0  0  0  0  0  0  0  0  0  0  0
   -8.4990   26.9721   16.2880 C   0  0  0  0  0  0  0  0  0  0  0  0
   -8.0150   28.4083   16.2447 C   0  0  0  0  0  0  0  0  0  0  0  0
   -6.6619   28.7244   16.3474 C   0  0  0  0  0  0  0  0  0  0  0  0
   -6.2331   30.0493   16.3680 C   0  0  0  0  0  0  0  0  0  0  0  0
   -4.9357   30.4549   16.5309 O   0  0  0  0  0  0  0  0  0  0  0  0
   -3.9058   29.5738   16.0842 C   0  0  0  0  0  0  0  0  0  0  0  0
   -7.1600   31.0900   16.2613 C   0  0  0  0  0  0  0  0  0  0  0  0
   -6.7598   32.4126   16.2136 O   0  0  0  0  0  0  0  0  0  0  0  0
   -6.5621   33.0473   17.4662 C   0  0  0  0  0  0  0  0  0  0  0  0
   -8.5065   30.7690   16.0938 C   0  0  0  0  0  0  0  0  0  0  0  0
   -9.3312   31.8487   15.9881 O   0  0  0  0  0  0  0  0  0  0  0  0
  -10.6747   31.6211   15.5667 C   0  0  0  0  0  0  0  0  0  0  0  0
   -8.9269   29.4426   16.0828 C   0  0  0  0  0  0  0  0  0  0  0  0
   -9.2987   24.4111   16.9422 H   0  0  0  0  0  0  0  0  0  0  0  0
   -9.2506   25.2829   22.1830 H   0  0  0  0  0  0  0  0  0  0  0  0
   -9.7479   23.7531   21.4116 H   0  0  0  0  0  0  0  0  0  0  0  0
   -7.8977   28.8173   17.9680 H   0  0  0  0  0  0  0  0  0  0  0  0
   -7.9285   28.8428   19.7515 H   0  0  0  0  0  0  0  0  0  0  0  0
   -7.7666   26.3612   15.7400 H   0  0  0  0  0  0  0  0  0  0  0  0
   -9.5078   27.0037   15.8506 H   0  0  0  0  0  0  0  0  0  0  0  0
   -5.9204   27.9145   16.4133 H   0  0  0  0  0  0  0  0  0  0  0  0
   -3.3945   29.1364   16.9544 H   0  0  0  0  0  0  0  0  0  0  0  0
   -4.3484   28.7704   15.4769 H   0  0  0  0  0  0  0  0  0  0  0  0
   -3.1806   30.1354   15.4769 H   0  0  0  0  0  0  0  0  0  0  0  0
   -6.7834   32.3368   18.2763 H   0  0  0  0  0  0  0  0  0  0  0  0
   -5.5173   33.3818   17.5470 H   0  0  0  0  0  0  0  0  0  0  0  0
   -7.2324   33.9158   17.5470 H   0  0  0  0  0  0  0  0  0  0  0  0
  -11.3222   31.5114   16.4492 H   0  0  0  0  0  0  0  0  0  0  0  0
  -11.0190   32.4737   14.9630 H   0  0  0  0  0  0  0  0  0  0  0  0
  -10.7190   30.7027   14.9630 H   0  0  0  0  0  0  0  0  0  0  0  0
   -9.9933   29.2110   15.9443 H   0  0  0  0  0  0  0  0  0  0  0  0
  1  2  2  0
  1  8  1  0
  2  3  1  0
  3  4  1  0
  3  5  2  0
  5  6  1  0
  6  7  1  0
  6  8  2  0
  8  9  1  0
  9 10  1  0
 10 11  2  0
 10 21  1  0
 11 12  1  0
 12 13  1  0
 12 15  2  0
 13 14  1  0
 15 16  1  0
 15 18  1  0
 16 17  1  0
 18 19  1  0
 18 21  2  0
 19 20  1  0
  1 22  1  0
  4 23  1  0
  4 24  1  0
  7 25  1  0
  7 26  1  0
  9 27  1  0
  9 28  1  0
 11 29  1  0
 14 30  1  0
 14 31  1  0
 14 32  1  0
 17 33  1  0
 17 34  1  0
 17 35  1  0
 20 36  1  0
 20 37  1  0
 20 38  1  0
 21 39  1  0
M  END
>  <filename_input>  (4) 
6XG5_TOP_docked.sdf

>  <pdb_id>  (4) 
6XG5_TOP

>  <pose_rank>  (4) 
3

>  <num_atoms_heavy>  (4) 
21

>  <num_torsions>  (4) 
5

>  <pose>  (4) 
[-8.015012757055272, 28.408321260415846, 16.24472067334368, 0.07691858005123359, 0.03830885492148668, 0.02072687748660801, 0.29534286137504917, -0.11438328415062358, 0.09779280939158493, 6.36587812979898, -2.974414094111378]

>  <energy>  (4) 
-930.543343173128

>  <inter_energy>  (4) 
-963.523717910887

>  <intra_energy>  (4) 
73.65861281575025

>  <rmsd>  (4) 
1.52248

>  <sdf_rank>  (4) 
0

$$$$

     RDKit          3D

 39 40  0  0  0  0  0  0  0  0999 V2000
   -7.7115   27.4990   16.1869 C   0  0  0  0  0  0  0  0  0  0  0  0
   -8.7818   26.6947   16.0570 N   0  0  0  0  0  0  0  0  0  0  0  0
   -9.2289   26.0705   17.1704 C   0  0  0  0  0  0  0  0  0  0  0  0
  -10.2900   25.2691   17.0600 N   0  0  0  0  0  0  0  0  0  0  0  0
   -8.6662   26.1891   18.3839 N   0  0  0  0  0  0  0  0  0  0  0  0
   -7.6157   27.0274   18.5054 C   0  0  0  0  0  0  0  0  0  0  0  0
   -7.0951   27.1555   19.7446 N   0  0  0  0  0  0  0  0  0  0  0  0
   -7.0646   27.7256   17.3924 C   0  0  0  0  0  0  0  0  0  0  0  0
   -5.9017   28.7120   17.5440 C   0  0  0  0  0  0  0  0  0  0  0  0
   -5.9823   30.0151   16.7731 C   0  0  0  0  0  0  0  0  0  0  0  0
   -4.8365   30.7262   16.4228 C   0  0  0  0  0  0  0  0  0  0  0  0
   -4.9240   31.9525   15.7684 C   0  0  0  0  0  0  0  0  0  0  0  0
   -3.8596   32.7500   15.4441 O   0  0  0  0  0  0  0  0  0  0  0  0
   -2.5636   32.1522   15.4338 C   0  0  0  0  0  0  0  0  0  0  0  0
   -6.1728   32.4810   15.4295 C   0  0  0  0  0  0  0  0  0  0  0  0
   -6.2896   33.6637   14.7229 O   0  0  0  0  0  0  0  0  0  0  0  0
   -6.3429   34.8489   15.4999 C   0  0  0  0  0  0  0  0  0  0  0  0
   -7.3141   31.7363   15.7239 C   0  0  0  0  0  0  0  0  0  0  0  0
   -8.4822   32.3278   15.3461 O   0  0  0  0  0  0  0  0  0  0  0  0
   -9.6369   31.4999   15.2199 C   0  0  0  0  0  0  0  0  0  0  0  0
   -7.2177   30.5159   16.3855 C   0  0  0  0  0  0  0  0  0  0  0  0
   -7.3286   28.0045   15.2881 H   0  0  0  0  0  0  0  0  0  0  0  0
  -10.6542   24.7797   17.8899 H   0  0  0  0  0  0  0  0  0  0  0  0
  -10.7448   25.1399   16.1449 H   0  0  0  0  0  0  0  0  0  0  0  0
   -6.2919   27.7803   19.9037 H   0  0  0  0  0  0  0  0  0  0  0  0
   -7.5012   26.6283   20.5308 H   0  0  0  0  0  0  0  0  0  0  0  0
   -5.8220   28.9654   18.6115 H   0  0  0  0  0  0  0  0  0  0  0  0
   -5.0334   28.1882   17.1178 H   0  0  0  0  0  0  0  0  0  0  0  0
   -3.8470   30.3125   16.6670 H   0  0  0  0  0  0  0  0  0  0  0  0
   -2.2239   31.9955   16.4682 H   0  0  0  0  0  0  0  0  0  0  0  0
   -2.6103   31.1847   14.9126 H   0  0  0  0  0  0  0  0  0  0  0  0
   -1.8579   32.8158   14.9126 H   0  0  0  0  0  0  0  0  0  0  0  0
   -6.3311   34.5876   16.5683 H   0  0  0  0  0  0  0  0  0  0  0  0
   -5.4722   35.4794   15.2670 H   0  0  0  0  0  0  0  0  0  0  0  0
   -7.2666   35.3988   15.2670 H   0  0  0  0  0  0  0  0  0  0  0  0
  -10.0082   31.2336   16.2205 H   0  0  0  0  0  0  0  0  0  0  0  0
  -10.4198   32.0437   14.6710 H   0  0  0  0  0  0  0  0  0  0  0  0
   -9.3731   30.5839   14.6710 H   0  0  0  0  0  0  0  0  0  0  0  0
   -8.1303   29.9419   16.6037 H   0  0  0  0  0  0  0  0  0  0  0  0
  1  2  2  0
  1  8  1  0
  2  3  1  0
  3  4  1  0
  3  5  2  0
  5  6  1  0
  6  7  1  0
  6  8  2  0
  8  9  1  0
  9 10  1  0
 10 11  2  0
 10 21  1  0
 11 12  1  0
 12 13  1  0
 12 15  2  0
 13 14  1  0
 15 16  1  0
 15 18  1  0
 16 17  1  0
 18 19  1  0
 18 21  2  0
 19 20  1  0
  1 22  1  0
  4 23  1  0
  4 24  1  0
  7 25  1  0
  7 26  1  0
  9 27  1  0
  9 28  1  0
 11 29  1  0
 14 30  1  0
 14 31  1  0
 14 32  1  0
 17 33  1  0
 17 34  1  0
 17 35  1  0
 20 36  1  0
 20 37  1  0
 20 38  1  0
 21 39  1  0
M  END
>  <filename_input>  (5) 
6XG5_TOP_docked.sdf

>  <pdb_id>  (5) 
6XG5_TOP

>  <pose_rank>  (5) 
4

>  <num_atoms_heavy>  (5) 
21

>  <num_torsions>  (5) 
5

>  <pose>  (5) 
[-5.982322514715192, 30.015054219611134, 16.77310685343631, 4.070398067434513, -1.9664210497028798, -3.4611655514457786, 0.11105103011969619, 6.112167799115879, -0.03337985444137079, 2.20738879377607, 0.8536574220015569]

>  <energy>  (5) 
-398.3703674199289

>  <inter_energy>  (5) 
-403.32216096016333

>  <intra_energy>  (5) 
22.42913238872845

>  <rmsd>  (5) 
2.95607

>  <sdf_rank>  (5) 
0

$$$$

     RDKit          3D

 39 40  0  0  0  0  0  0  0  0999 V2000
   -8.1462   26.9553   18.9228 C   0  0  0  0  0  0  0  0  0  0  0  0
   -8.2980   26.4136   20.1446 N   0  0  0  0  0  0  0  0  0  0  0  0
   -8.8868   25.1983   20.2168 C   0  0  0  0  0  0  0  0  0  0  0  0
   -9.0452   24.6457   21.4210 N   0  0  0  0  0  0  0  0  0  0  0  0
   -9.3406   24.5113   19.1560 N   0  0  0  0  0  0  0  0  0  0  0  0
   -9.1486   25.0514   17.9342 C   0  0  0  0  0  0  0  0  0  0  0  0
   -9.5809   24.3205   16.8845 N   0  0  0  0  0  0  0  0  0  0  0  0
   -8.5457   26.3292   17.7516 C   0  0  0  0  0  0  0  0  0  0  0  0
   -8.2876   26.9170   16.3602 C   0  0  0  0  0  0  0  0  0  0  0  0
   -7.6189   28.2757   16.2858 C   0  0  0  0  0  0  0  0  0  0  0  0
   -6.2336   28.4104   16.3506 C   0  0  0  0  0  0  0  0  0  0  0  0
   -5.6328   29.6667   16.3429 C   0  0  0  0  0  0  0  0  0  0  0  0
   -4.2893   29.8982   16.4681 O   0  0  0  0  0  0  0  0  0  0  0  0
   -3.4399   28.7701   16.6752 C   0  0  0  0  0  0  0  0  0  0  0  0
   -6.4162   30.8202   16.2455 C   0  0  0  0  0  0  0  0  0  0  0  0
   -5.8457   32.0774   16.1702 O   0  0  0  0  0  0  0  0  0  0  0  0
   -5.4645   32.5100   14.8746 C   0  0  0  0  0  0  0  0  0  0  0  0
   -7.7972   30.6792   16.1157 C   0  0  0  0  0  0  0  0  0  0  0  0
   -8.4741   31.8577   16.0163 O   0  0  0  0  0  0  0  0  0  0  0  0
   -9.7076   31.8582   15.3000 C   0  0  0  0  0  0  0  0  0  0  0  0
   -8.3897   29.4202   16.1328 C   0  0  0  0  0  0  0  0  0  0  0  0
   -7.6798   27.9488   18.8485 H   0  0  0  0  0  0  0  0  0  0  0  0
   -9.4901   23.7210   21.5088 H   0  0  0  0  0  0  0  0  0  0  0  0
   -8.7225   25.1440   22.2627 H   0  0  0  0  0  0  0  0  0  0  0  0
   -9.4638   24.6773   15.9254 H   0  0  0  0  0  0  0  0  0  0  0  0
  -10.0278   23.4061   17.0428 H   0  0  0  0  0  0  0  0  0  0  0  0
   -7.6493   26.2057   15.8155 H   0  0  0  0  0  0  0  0  0  0  0  0
   -9.2890   27.0743   15.9329 H   0  0  0  0  0  0  0  0  0  0  0  0
   -5.6045   27.5100   16.4087 H   0  0  0  0  0  0  0  0  0  0  0  0
   -3.3122   28.6005   17.7545 H   0  0  0  0  0  0  0  0  0  0  0  0
   -3.8939   27.8799   16.2153 H   0  0  0  0  0  0  0  0  0  0  0  0
   -2.4589   28.9604   16.2153 H   0  0  0  0  0  0  0  0  0  0  0  0
   -4.7396   33.3328   14.9613 H   0  0  0  0  0  0  0  0  0  0  0  0
   -5.0052   31.6727   14.3288 H   0  0  0  0  0  0  0  0  0  0  0  0
   -6.3530   32.8602   14.3288 H   0  0  0  0  0  0  0  0  0  0  0  0
  -10.5455   31.8585   16.0127 H   0  0  0  0  0  0  0  0  0  0  0  0
   -9.7639   32.7564   14.6674 H   0  0  0  0  0  0  0  0  0  0  0  0
   -9.7646   30.9601   14.6674 H   0  0  0  0  0  0  0  0  0  0  0  0
   -9.4807   29.3309   16.0240 H   0  0  0  0  0  0  0  0  0  0  0  0
  1  2  2  0
  1  8  1  0
  2  3  1  0
  3  4  1  0
  3  5  2  0
  5  6  1  0
  6  7  1  0
  6  8  2  0
  8  9  1  0
  9 10  1  0
 10 11  2  0
 10 21  1  0
 11 12  1  0
 12 13  1  0
 12 15  2  0
 13 14  1  0
 15 16  1  0
 15 18  1  0
 16 17  1  0
 18 19  1  0
 18 21  2  0
 19 20  1  0
  1 22  1  0
  4 23  1  0
  4 24  1  0
  7 25  1  0
  7 26  1  0
  9 27  1  0
  9 28  1  0
 11 29  1  0
 14 30  1  0
 14 31  1  0
 14 32  1  0
 17 33  1  0
 17 34  1  0
 17 35  1  0
 20 36  1  0
 20 37  1  0
 20 38  1  0
 21 39  1  0
M  END
>  <filename_input>  (6) 
6XG5_TOP_docked.sdf

>  <pdb_id>  (6) 
6XG5_TOP

>  <pose_rank>  (6) 
5

>  <num_atoms_heavy>  (6) 
21

>  <num_torsions>  (6) 
5

>  <pose>  (6) 
[-7.618949554644336, 28.275735074325862, 16.285755791793367, 0.06799864190627383, 0.05894603678820011, -0.11341256361452275, -0.24792575210882867, 2.8706477996645208, -0.19108981710944667, 6.38097823964007, 0.1257688429943375]

>  <energy>  (6) 
-1533.8782802951357

>  <inter_energy>  (6) 
-1553.923503668658

>  <intra_energy>  (6) 
8.602933957419486

>  <rmsd>  (6) 
0.808441

>  <sdf_rank>  (6) 
0

$$$$

     RDKit          3D

 39 40  0  0  0  0  0  0  0  0999 V2000
   -8.2803   26.8709   18.7882 C   0  0  0  0  0  0  0  0  0  0  0  0
   -8.3750   26.3966   20.0434 N   0  0  0  0  0  0  0  0  0  0  0  0
   -8.9309   25.1744   20.2056 C   0  0  0  0  0  0  0  0  0  0  0  0
   -9.0326   24.6881   21.4439 N   0  0  0  0  0  0  0  0  0  0  0  0
   -9.4054   24.4181   19.2025 N   0  0  0  0  0  0  0  0  0  0  0  0
   -9.2705   24.8916   17.9461 C   0  0  0  0  0  0  0  0  0  0  0  0
   -9.7219   24.0925   16.9559 N   0  0  0  0  0  0  0  0  0  0  0  0
   -8.7059   26.1702   17.6697 C   0  0  0  0  0  0  0  0  0  0  0  0
   -8.5122   26.6832   16.2388 C   0  0  0  0  0  0  0  0  0  0  0  0
   -7.7127   27.9580   16.0530 C   0  0  0  0  0  0  0  0  0  0  0  0
   -6.3199   27.9568   16.0940 C   0  0  0  0  0  0  0  0  0  0  0  0
   -5.5969   29.1420   15.9833 C   0  0  0  0  0  0  0  0  0  0  0  0
   -4.2350   29.2456   16.0775 O   0  0  0  0  0  0  0  0  0  0  0  0
   -3.4787   28.0354   16.0922 C   0  0  0  0  0  0  0  0  0  0  0  0
   -6.2629   30.3577   15.8043 C   0  0  0  0  0  0  0  0  0  0  0  0
   -5.5711   31.5416   15.6265 O   0  0  0  0  0  0  0  0  0  0  0  0
   -5.0170   31.7497   14.3378 C   0  0  0  0  0  0  0  0  0  0  0  0
   -7.6531   30.3472   15.6990 C   0  0  0  0  0  0  0  0  0  0  0  0
   -8.2106   31.5770   15.5149 O   0  0  0  0  0  0  0  0  0  0  0  0
   -9.5181   31.6367   14.9480 C   0  0  0  0  0  0  0  0  0  0  0  0
   -8.3679   29.1594   15.8192 C   0  0  0  0  0  0  0  0  0  0  0  0
   -7.8413   27.8687   18.6410 H   0  0  0  0  0  0  0  0  0  0  0  0
   -9.4513   23.7601   21.6000 H   0  0  0  0  0  0  0  0  0  0  0  0
   -8.6923   25.2408   22.2437 H   0  0  0  0  0  0  0  0  0  0  0  0
   -9.6479   24.3966   15.9746 H   0  0  0  0  0  0  0  0  0  0  0  0
  -10.1404   23.1789   17.1818 H   0  0  0  0  0  0  0  0  0  0  0  0
   -8.0040   25.8901   15.6707 H   0  0  0  0  0  0  0  0  0  0  0  0
   -9.5253   26.9356   15.8926 H   0  0  0  0  0  0  0  0  0  0  0  0
   -5.7829   27.0046   16.2158 H   0  0  0  0  0  0  0  0  0  0  0  0
   -3.2900   27.7336   17.1330 H   0  0  0  0  0  0  0  0  0  0  0  0
   -4.0431   27.2440   15.5775 H   0  0  0  0  0  0  0  0  0  0  0  0
   -2.5199   28.1960   15.5775 H   0  0  0  0  0  0  0  0  0  0  0  0
   -3.9914   32.1348   14.4375 H   0  0  0  0  0  0  0  0  0  0  0  0
   -4.9991   30.7970   13.7882 H   0  0  0  0  0  0  0  0  0  0  0  0
   -5.6305   32.4787   13.7882 H   0  0  0  0  0  0  0  0  0  0  0  0
  -10.2660   31.6709   15.7539 H   0  0  0  0  0  0  0  0  0  0  0  0
   -9.6073   32.5399   14.3264 H   0  0  0  0  0  0  0  0  0  0  0  0
   -9.6893   30.7455   14.3264 H   0  0  0  0  0  0  0  0  0  0  0  0
   -9.4640   29.1725   15.7279 H   0  0  0  0  0  0  0  0  0  0  0  0
  1  2  2  0
  1  8  1  0
  2  3  1  0
  3  4  1  0
  3  5  2  0
  5  6  1  0
  6  7  1  0
  6  8  2  0
  8  9  1  0
  9 10  1  0
 10 11  2  0
 10 21  1  0
 11 12  1  0
 12 13  1  0
 12 15  2  0
 13 14  1  0
 15 16  1  0
 15 18  1  0
 16 17  1  0
 18 19  1  0
 18 21  2  0
 19 20  1  0
  1 22  1  0
  4 23  1  0
  4 24  1  0
  7 25  1  0
  7 26  1  0
  9 27  1  0
  9 28  1  0
 11 29  1  0
 14 30  1  0
 14 31  1  0
 14 32  1  0
 17 33  1  0
 17 34  1  0
 17 35  1  0
 20 36  1  0
 20 37  1  0
 20 38  1  0
 21 39  1  0
M  END
>  <filename_input>  (7) 
6XG5_TOP_docked.sdf

>  <pdb_id>  (7) 
6XG5_TOP

>  <pose_rank>  (7) 
6

>  <num_atoms_heavy>  (7) 
21

>  <num_torsions>  (7) 
5

>  <pose>  (7) 
[-7.712655046523435, 27.95799409066911, 16.052992716483068, 0.1814158289197488, -1.728000863870214, 5.802627282801947, -0.03183305120892899, -3.553865919498748, -0.0705455362649641, -25.120188224126274, 6.551478843090358]

>  <energy>  (7) 
-1559.8678661458844

>  <inter_energy>  (7) 
-1532.7173759468367

>  <intra_energy>  (7) 
9.93843574253795

>  <rmsd>  (7) 
1.06048

>  <sdf_rank>  (7) 
0

$$$$

     RDKit          3D

 39 40  0  0  0  0  0  0  0  0999 V2000
   -9.2357   24.8405   17.9678 C   0  0  0  0  0  0  0  0  0  0  0  0
   -9.1988   24.3173   19.2065 N   0  0  0  0  0  0  0  0  0  0  0  0
   -8.8939   25.1529   20.2252 C   0  0  0  0  0  0  0  0  0  0  0  0
   -8.8532   24.6510   21.4608 N   0  0  0  0  0  0  0  0  0  0  0  0
   -8.6116   26.4574   20.0773 N   0  0  0  0  0  0  0  0  0  0  0  0
   -8.6879   26.9753   18.8335 C   0  0  0  0  0  0  0  0  0  0  0  0
   -8.4363   28.2971   18.7214 N   0  0  0  0  0  0  0  0  0  0  0  0
   -8.9936   26.1780   17.6930 C   0  0  0  0  0  0  0  0  0  0  0  0
   -9.1251   26.7797   16.2898 C   0  0  0  0  0  0  0  0  0  0  0  0
   -8.4472   28.1110   16.0312 C   0  0  0  0  0  0  0  0  0  0  0  0
   -7.0761   28.2780   16.2145 C   0  0  0  0  0  0  0  0  0  0  0  0
   -6.4730   29.5202   16.0333 C   0  0  0  0  0  0  0  0  0  0  0  0
   -5.1495   29.7928   16.2530 O   0  0  0  0  0  0  0  0  0  0  0  0
   -4.1863   28.9800   15.5833 C   0  0  0  0  0  0  0  0  0  0  0  0
   -7.2372   30.6219   15.6386 C   0  0  0  0  0  0  0  0  0  0  0  0
   -6.6572   31.8517   15.3880 O   0  0  0  0  0  0  0  0  0  0  0  0
   -7.2935   32.9712   15.9821 C   0  0  0  0  0  0  0  0  0  0  0  0
   -8.5972   30.4365   15.3935 C   0  0  0  0  0  0  0  0  0  0  0  0
   -9.2552   31.5642   15.0032 O   0  0  0  0  0  0  0  0  0  0  0  0
  -10.6806   31.5243   14.9676 C   0  0  0  0  0  0  0  0  0  0  0  0
   -9.1930   29.1937   15.5853 C   0  0  0  0  0  0  0  0  0  0  0  0
   -9.4705   24.1710   17.1272 H   0  0  0  0  0  0  0  0  0  0  0  0
   -8.6239   25.2621   22.2576 H   0  0  0  0  0  0  0  0  0  0  0  0
   -9.0510   23.6524   21.6178 H   0  0  0  0  0  0  0  0  0  0  0  0
   -8.4784   28.7529   17.7987 H   0  0  0  0  0  0  0  0  0  0  0  0
   -8.2022   28.8496   19.5585 H   0  0  0  0  0  0  0  0  0  0  0  0
   -8.7049   26.0528   15.5792 H   0  0  0  0  0  0  0  0  0  0  0  0
  -10.1994   26.9857   16.1734 H   0  0  0  0  0  0  0  0  0  0  0  0
   -6.4601   27.4149   16.5071 H   0  0  0  0  0  0  0  0  0  0  0  0
   -3.5670   28.4573   16.3271 H   0  0  0  0  0  0  0  0  0  0  0  0
   -4.7041   28.2417   14.9533 H   0  0  0  0  0  0  0  0  0  0  0  0
   -3.5456   29.6145   14.9533 H   0  0  0  0  0  0  0  0  0  0  0  0
   -7.2433   32.8829   17.0774 H   0  0  0  0  0  0  0  0  0  0  0  0
   -6.7845   33.8933   15.6648 H   0  0  0  0  0  0  0  0  0  0  0  0
   -8.3462   33.0057   15.6648 H   0  0  0  0  0  0  0  0  0  0  0  0
  -11.0729   31.5133   15.9952 H   0  0  0  0  0  0  0  0  0  0  0  0
  -11.0592   32.4122   14.4400 H   0  0  0  0  0  0  0  0  0  0  0  0
  -11.0089   30.6166   14.4400 H   0  0  0  0  0  0  0  0  0  0  0  0
  -10.2666   29.0678   15.3813 H   0  0  0  0  0  0  0  0  0  0  0  0
  1  2  2  0
  1  8  1  0
  2  3  1  0
  3  4  1  0
  3  5  2  0
  5  6  1  0
  6  7  1  0
  6  8  2  0
  8  9  1  0
  9 10  1  0
 10 11  2  0
 10 21  1  0
 11 12  1  0
 12 13  1  0
 12 15  2  0
 13 14  1  0
 15 16  1  0
 15 18  1  0
 16 17  1  0
 18 19  1  0
 18 21  2  0
 19 20  1  0
  1 22  1  0
  4 23  1  0
  4 24  1  0
  7 25  1  0
  7 26  1  0
  9 27  1  0
  9 28  1  0
 11 29  1  0
 14 30  1  0
 14 31  1  0
 14 32  1  0
 17 33  1  0
 17 34  1  0
 17 35  1  0
 20 36  1  0
 20 37  1  0
 20 38  1  0
 21 39  1  0
M  END
>  <filename_input>  (8) 
6XG5_TOP_docked.sdf

>  <pdb_id>  (8) 
6XG5_TOP

>  <pose_rank>  (8) 
7

>  <num_atoms_heavy>  (8) 
21

>  <num_torsions>  (8) 
5

>  <pose>  (8) 
[-8.447166627954745, 28.11101593229269, 16.031235075802552, -0.11554191661846713, -0.05794069741647573, -0.10848506082166255, 0.7473171626695215, -0.9332755861780901, 0.4938524633172512, 5.929228397515217, -2.6510351547877233]

>  <energy>  (8) 
-964.2406704115215

>  <inter_energy>  (8) 
-1069.2512903213171

>  <intra_energy>  (8) 
92.24364742881494

>  <rmsd>  (8) 
1.54184

>  <sdf_rank>  (8) 
0

$$$$

     RDKit          3D

 39 40  0  0  0  0  0  0  0  0999 V2000
   -4.8273   35.5110   17.6048 C   0  0  0  0  0  0  0  0  0  0  0  0
   -4.2740   36.3084   18.5362 N   0  0  0  0  0  0  0  0  0  0  0  0
   -5.0434   37.2982   19.0433 C   0  0  0  0  0  0  0  0  0  0  0  0
   -4.5108   38.0985   19.9686 N   0  0  0  0  0  0  0  0  0  0  0  0
   -6.3088   37.5434   18.6668 N   0  0  0  0  0  0  0  0  0  0  0  0
   -6.8617   36.7129   17.7581 C   0  0  0  0  0  0  0  0  0  0  0  0
   -8.1470   36.9611   17.4276 N   0  0  0  0  0  0  0  0  0  0  0  0
   -6.1333   35.6454   17.1583 C   0  0  0  0  0  0  0  0  0  0  0  0
   -6.7796   34.6768   16.1622 C   0  0  0  0  0  0  0  0  0  0  0  0
   -6.2175   33.2707   16.0859 C   0  0  0  0  0  0  0  0  0  0  0  0
   -6.9726   32.1628   16.4651 C   0  0  0  0  0  0  0  0  0  0  0  0
   -6.4267   30.8817   16.4493 C   0  0  0  0  0  0  0  0  0  0  0  0
   -7.0691   29.7464   16.8649 O   0  0  0  0  0  0  0  0  0  0  0  0
   -8.3678   29.4884   16.3324 C   0  0  0  0  0  0  0  0  0  0  0  0
   -5.1091   30.6841   16.0266 C   0  0  0  0  0  0  0  0  0  0  0  0
   -4.5603   29.4181   15.9383 O   0  0  0  0  0  0  0  0  0  0  0  0
   -3.3022   29.2411   16.5683 C   0  0  0  0  0  0  0  0  0  0  0  0
   -4.3776   31.7865   15.5867 C   0  0  0  0  0  0  0  0  0  0  0  0
   -3.1090   31.4932   15.1846 O   0  0  0  0  0  0  0  0  0  0  0  0
   -2.7265   31.8684   13.8627 C   0  0  0  0  0  0  0  0  0  0  0  0
   -4.9283   33.0641   15.6139 C   0  0  0  0  0  0  0  0  0  0  0  0
   -4.2103   34.7087   17.1739 H   0  0  0  0  0  0  0  0  0  0  0  0
   -5.0715   38.8615   20.3740 H   0  0  0  0  0  0  0  0  0  0  0  0
   -3.5390   37.9534   20.2774 H   0  0  0  0  0  0  0  0  0  0  0  0
   -8.6265   36.3631   16.7396 H   0  0  0  0  0  0  0  0  0  0  0  0
   -8.6481   37.7484   17.8635 H   0  0  0  0  0  0  0  0  0  0  0  0
   -7.8435   34.5920   16.4284 H   0  0  0  0  0  0  0  0  0  0  0  0
   -6.5744   35.1139   15.1738 H   0  0  0  0  0  0  0  0  0  0  0  0
   -8.0166   32.3023   16.7821 H   0  0  0  0  0  0  0  0  0  0  0  0
   -9.0810   29.3468   17.1578 H   0  0  0  0  0  0  0  0  0  0  0  0
   -8.6868   30.3408   15.7145 H   0  0  0  0  0  0  0  0  0  0  0  0
   -8.3368   28.5789   15.7145 H   0  0  0  0  0  0  0  0  0  0  0  0
   -3.4331   29.2595   17.6604 H   0  0  0  0  0  0  0  0  0  0  0  0
   -2.8739   28.2739   16.2667 H   0  0  0  0  0  0  0  0  0  0  0  0
   -2.6237   30.0527   16.2667 H   0  0  0  0  0  0  0  0  0  0  0  0
   -1.9419   32.6378   13.9124 H   0  0  0  0  0  0  0  0  0  0  0  0
   -2.3424   30.9870   13.3281 H   0  0  0  0  0  0  0  0  0  0  0  0
   -3.6001   32.2695   13.3281 H   0  0  0  0  0  0  0  0  0  0  0  0
   -4.3358   33.9197   15.2576 H   0  0  0  0  0  0  0  0  0  0  0  0
  1  2  2  0
  1  8  1  0
  2  3  1  0
  3  4  1  0
  3  5  2  0
  5  6  1  0
  6  7  1  0
  6  8  2  0
  8  9  1  0
  9 10  1  0
 10 11  2  0
 10 21  1  0
 11 12  1  0
 12 13  1  0
 12 15  2  0
 13 14  1  0
 15 16  1  0
 15 18  1  0
 16 17  1  0
 18 19  1  0
 18 21  2  0
 19 20  1  0
  1 22  1  0
  4 23  1  0
  4 24  1  0
  7 25  1  0
  7 26  1  0
  9 27  1  0
  9 28  1  0
 11 29  1  0
 14 30  1  0
 14 31  1  0
 14 32  1  0
 17 33  1  0
 17 34  1  0
 17 35  1  0
 20 36  1  0
 20 37  1  0
 20 38  1  0
 21 39  1  0
M  END
>  <filename_input>  (9) 
6XG5_TOP_docked.sdf

>  <pdb_id>  (9) 
6XG5_TOP

>  <pose_rank>  (9) 
8

>  <num_atoms_heavy>  (9) 
21

>  <num_torsions>  (9) 
5

>  <pose>  (9) 
[-6.217483006296528, 33.27069806874592, 16.085929724457564, -0.24589543085536453, -0.052761001408708, -2.3890389377231958, 0.6927362118412536, -0.8817233539644592, -0.6809429656462166, 0.6294165616145051, 0.6066952144248644]

>  <energy>  (9) 
-221.80810897589393

>  <inter_energy>  (9) 
-265.6468183171974

>  <intra_energy>  (9) 
39.49670020010874

>  <rmsd>  (9) 
8.17421

>  <sdf_rank>  (9) 
0

$$$$

     RDKit          3D

 39 40  0  0  0  0  0  0  0  0999 V2000
   -7.7295   34.4007   17.1172 C   0  0  0  0  0  0  0  0  0  0  0  0
   -8.2071   35.4713   17.7769 N   0  0  0  0  0  0  0  0  0  0  0  0
   -7.3120   36.2559   18.4187 C   0  0  0  0  0  0  0  0  0  0  0  0
   -7.7681   37.3225   19.0780 N   0  0  0  0  0  0  0  0  0  0  0  0
   -5.9893   36.0261   18.4526 N   0  0  0  0  0  0  0  0  0  0  0  0
   -5.5215   34.9690   17.7564 C   0  0  0  0  0  0  0  0  0  0  0  0
   -4.1840   34.7855   17.7777 N   0  0  0  0  0  0  0  0  0  0  0  0
   -6.3824   34.0775   17.0537 C   0  0  0  0  0  0  0  0  0  0  0  0
   -5.8424   32.9062   16.2263 C   0  0  0  0  0  0  0  0  0  0  0  0
   -6.6669   31.6342   16.1900 C   0  0  0  0  0  0  0  0  0  0  0  0
   -6.3133   30.5153   16.9413 C   0  0  0  0  0  0  0  0  0  0  0  0
   -7.0422   29.3318   16.8542 C   0  0  0  0  0  0  0  0  0  0  0  0
   -6.7324   28.1664   17.5021 O   0  0  0  0  0  0  0  0  0  0  0  0
   -5.3726   27.9633   17.8850 C   0  0  0  0  0  0  0  0  0  0  0  0
   -8.1629   29.2559   16.0222 C   0  0  0  0  0  0  0  0  0  0  0  0
   -8.9440   28.1165   15.9637 O   0  0  0  0  0  0  0  0  0  0  0  0
   -8.6523   27.2171   14.9069 C   0  0  0  0  0  0  0  0  0  0  0  0
   -8.5515   30.3969   15.3215 C   0  0  0  0  0  0  0  0  0  0  0  0
   -9.6600   30.2285   14.5469 O   0  0  0  0  0  0  0  0  0  0  0  0
  -10.7129   31.1820   14.6758 C   0  0  0  0  0  0  0  0  0  0  0  0
   -7.8124   31.5727   15.4080 C   0  0  0  0  0  0  0  0  0  0  0  0
   -8.4465   33.7460   16.6001 H   0  0  0  0  0  0  0  0  0  0  0  0
   -7.1112   37.9394   19.5767 H   0  0  0  0  0  0  0  0  0  0  0  0
   -8.7772   37.5289   19.0882 H   0  0  0  0  0  0  0  0  0  0  0  0
   -3.7642   33.9964   17.2660 H   0  0  0  0  0  0  0  0  0  0  0  0
   -3.5835   35.4347   18.3057 H   0  0  0  0  0  0  0  0  0  0  0  0
   -5.7338   33.2578   15.1896 H   0  0  0  0  0  0  0  0  0  0  0  0
   -4.9062   32.6183   16.7269 H   0  0  0  0  0  0  0  0  0  0  0  0
   -5.4446   30.5676   17.6140 H   0  0  0  0  0  0  0  0  0  0  0  0
   -5.2985   27.9523   18.9825 H   0  0  0  0  0  0  0  0  0  0  0  0
   -5.0183   27.0023   17.4839 H   0  0  0  0  0  0  0  0  0  0  0  0
   -4.7531   28.7789   17.4839 H   0  0  0  0  0  0  0  0  0  0  0  0
   -8.3384   26.2493   15.3251 H   0  0  0  0  0  0  0  0  0  0  0  0
   -9.5504   27.0751   14.2879 H   0  0  0  0  0  0  0  0  0  0  0  0
   -7.8417   27.6292   14.2879 H   0  0  0  0  0  0  0  0  0  0  0  0
  -10.9141   31.3642   15.7418 H   0  0  0  0  0  0  0  0  0  0  0  0
  -10.4155   32.1243   14.1926 H   0  0  0  0  0  0  0  0  0  0  0  0
  -11.6212   30.7928   14.1926 H   0  0  0  0  0  0  0  0  0  0  0  0
   -8.1392   32.4630   14.8508 H   0  0  0  0  0  0  0  0  0  0  0  0
  1  2  2  0
  1  8  1  0
  2  3  1  0
  3  4  1  0
  3  5  2  0
  5  6  1  0
  6  7  1  0
  6  8  2  0
  8  9  1  0
  9 10  1  0
 10 11  2  0
 10 21  1  0
 11 12  1  0
 12 13  1  0
 12 15  2  0
 13 14  1  0
 15 16  1  0
 15 18  1  0
 16 17  1  0
 18 19  1  0
 18 21  2  0
 19 20  1  0
  1 22  1  0
  4 23  1  0
  4 24  1  0
  7 25  1  0
  7 26  1  0
  9 27  1  0
  9 28  1  0
 11 29  1  0
 14 30  1  0
 14 31  1  0
 14 32  1  0
 17 33  1  0
 17 34  1  0
 17 35  1  0
 20 36  1  0
 20 37  1  0
 20 38  1  0
 21 39  1  0
M  END
>  <filename_input>  (10) 
6XG5_TOP_docked.sdf

>  <pdb_id>  (10) 
6XG5_TOP

>  <pose_rank>  (10) 
9

>  <num_atoms_heavy>  (10) 
21

>  <num_torsions>  (10) 
5

>  <pose>  (10) 
[-6.6668543259051924, 31.63423067034584, 16.18995098511124, -2.5597790198364465, 1.2277708889365135, -1.3302466850123438, -0.6235693122358169, -0.29693927680345106, -0.5782020985408699, -3.165632425882885, 5.790838266465689]

>  <energy>  (10) 
-506.0718408642409

>  <inter_energy>  (10) 
-476.9463227059429

>  <intra_energy>  (10) 
13.89577155872348

>  <rmsd>  (10) 
7.1909

>  <sdf_rank>  (10) 
0

$$$$

     RDKit          3D

 39 40  0  0  0  0  0  0  0  0999 V2000
   -2.5660   31.2403   17.0599 C   0  0  0  0  0  0  0  0  0  0  0  0
   -1.3139   30.9174   16.6895 N   0  0  0  0  0  0  0  0  0  0  0  0
   -0.8985   31.3356   15.4723 C   0  0  0  0  0  0  0  0  0  0  0  0
    0.3410   31.0245   15.0886 N   0  0  0  0  0  0  0  0  0  0  0  0
   -1.6567   32.0328   14.6106 N   0  0  0  0  0  0  0  0  0  0  0  0
   -2.8977   32.3801   15.0110 C   0  0  0  0  0  0  0  0  0  0  0  0
   -3.6224   33.1132   14.1390 N   0  0  0  0  0  0  0  0  0  0  0  0
   -3.4317   31.9824   16.2706 C   0  0  0  0  0  0  0  0  0  0  0  0
   -4.8237   32.4188   16.7398 C   0  0  0  0  0  0  0  0  0  0  0  0
   -5.9584   31.4246   16.5887 C   0  0  0  0  0  0  0  0  0  0  0  0
   -7.1497   31.7698   15.9540 C   0  0  0  0  0  0  0  0  0  0  0  0
   -8.2087   30.8689   15.8743 C   0  0  0  0  0  0  0  0  0  0  0  0
   -9.4350   31.1407   15.3298 O   0  0  0  0  0  0  0  0  0  0  0  0
  -10.3193   31.9770   16.0751 C   0  0  0  0  0  0  0  0  0  0  0  0
   -8.0822   29.5857   16.4140 C   0  0  0  0  0  0  0  0  0  0  0  0
   -9.0912   28.6481   16.2937 O   0  0  0  0  0  0  0  0  0  0  0  0
   -8.7599   27.4669   15.5823 C   0  0  0  0  0  0  0  0  0  0  0  0
   -6.8662   29.2220   16.9910 C   0  0  0  0  0  0  0  0  0  0  0  0
   -6.8354   27.9500   17.4788 O   0  0  0  0  0  0  0  0  0  0  0  0
   -7.8858   27.5482   18.3562 C   0  0  0  0  0  0  0  0  0  0  0  0
   -5.8163   30.1316   17.0738 C   0  0  0  0  0  0  0  0  0  0  0  0
   -2.9226   30.8971   18.0423 H   0  0  0  0  0  0  0  0  0  0  0  0
    0.6865   31.3287   14.1672 H   0  0  0  0  0  0  0  0  0  0  0  0
    0.9523   30.4802   15.7139 H   0  0  0  0  0  0  0  0  0  0  0  0
   -4.5774   33.4102   14.3850 H   0  0  0  0  0  0  0  0  0  0  0  0
   -3.2201   33.3754   13.2278 H   0  0  0  0  0  0  0  0  0  0  0  0
   -4.7471   32.6711   17.8077 H   0  0  0  0  0  0  0  0  0  0  0  0
   -5.0934   33.2538   16.0764 H   0  0  0  0  0  0  0  0  0  0  0  0
   -7.2555   32.7701   15.5086 H   0  0  0  0  0  0  0  0  0  0  0  0
  -10.1530   31.8197   17.1510 H   0  0  0  0  0  0  0  0  0  0  0  0
  -10.1262   33.0305   15.8244 H   0  0  0  0  0  0  0  0  0  0  0  0
  -11.3604   31.7253   15.8244 H   0  0  0  0  0  0  0  0  0  0  0  0
   -8.5338   26.6606   16.2955 H   0  0  0  0  0  0  0  0  0  0  0  0
   -9.6093   27.1694   14.9498 H   0  0  0  0  0  0  0  0  0  0  0  0
   -7.8798   27.6545   14.9498 H   0  0  0  0  0  0  0  0  0  0  0  0
   -7.5600   27.6728   19.3994 H   0  0  0  0  0  0  0  0  0  0  0  0
   -8.7746   28.1698   18.1729 H   0  0  0  0  0  0  0  0  0  0  0  0
   -8.1329   26.4921   18.1729 H   0  0  0  0  0  0  0  0  0  0  0  0
   -4.8635   29.8227   17.5285 H   0  0  0  0  0  0  0  0  0  0  0  0
  1  2  2  0
  1  8  1  0
  2  3  1  0
  3  4  1  0
  3  5  2  0
  5  6  1  0
  6  7  1  0
  6  8  2  0
  8  9  1  0
  9 10  1  0
 10 11  2  0
 10 21  1  0
 11 12  1  0
 12 13  1  0
 12 15  2  0
 13 14  1  0
 15 16  1  0
 15 18  1  0
 16 17  1  0
 18 19  1  0
 18 21  2  0
 19 20  1  0
  1 22  1  0
  4 23  1  0
  4 24  1  0
  7 25  1  0
  7 26  1  0
  9 27  1  0
  9 28  1  0
 11 29  1  0
 14 30  1  0
 14 31  1  0
 14 32  1  0
 17 33  1  0
 17 34  1  0
 17 35  1  0
 20 36  1  0
 20 37  1  0
 20 38  1  0
 21 39  1  0
M  END
>  <filename_input>  (11) 
6XG5_TOP_docked.sdf

>  <pdb_id>  (11) 
6XG5_TOP

>  <pose_rank>  (11) 
10

>  <num_atoms_heavy>  (11) 
21

>  <num_torsions>  (11) 
5

>  <pose>  (11) 
[-5.958381006569704, 31.42459211813708, 16.58869831689331, -0.7292880643142825, 0.4817410439228998, 2.455454715942022, -1.4872113600035404, -2.8350030414932013, 2.5483330925726126, -3.602683663425021, -1.2890495923453409]

>  <energy>  (11) 
-334.97832201787514

>  <inter_energy>  (11) 
-409.9152745294157

>  <intra_energy>  (11) 
78.02891367505538

>  <rmsd>  (11) 
7.0459

>  <sdf_rank>  (11) 
0

$$$$

     RDKit          3D

 39 40  0  0  0  0  0  0  0  0999 V2000
   -8.3069   28.3676   18.3882 C   0  0  0  0  0  0  0  0  0  0  0  0
   -8.6284   27.6067   19.4499 N   0  0  0  0  0  0  0  0  0  0  0  0
   -8.9599   26.3172   19.2127 C   0  0  0  0  0  0  0  0  0  0  0  0
   -9.2813   25.5477   20.2543 N   0  0  0  0  0  0  0  0  0  0  0  0
   -9.0041   25.7577   17.9927 N   0  0  0  0  0  0  0  0  0  0  0  0
   -8.6442   26.5236   16.9415 C   0  0  0  0  0  0  0  0  0  0  0  0
   -8.6616   25.9230   15.7324 N   0  0  0  0  0  0  0  0  0  0  0  0
   -8.2859   27.8951   17.0846 C   0  0  0  0  0  0  0  0  0  0  0  0
   -7.8329   28.7473   15.8943 C   0  0  0  0  0  0  0  0  0  0  0  0
   -7.3639   30.1602   16.1815 C   0  0  0  0  0  0  0  0  0  0  0  0
   -6.0112   30.4649   16.3188 C   0  0  0  0  0  0  0  0  0  0  0  0
   -5.5944   31.7536   16.6430 C   0  0  0  0  0  0  0  0  0  0  0  0
   -4.2964   32.1300   16.8618 O   0  0  0  0  0  0  0  0  0  0  0  0
   -3.2902   31.1222   16.7674 C   0  0  0  0  0  0  0  0  0  0  0  0
   -6.5338   32.7743   16.8137 C   0  0  0  0  0  0  0  0  0  0  0  0
   -6.1476   34.0766   17.0718 O   0  0  0  0  0  0  0  0  0  0  0  0
   -5.8212   34.8639   15.9384 C   0  0  0  0  0  0  0  0  0  0  0  0
   -7.8818   32.4804   16.6120 C   0  0  0  0  0  0  0  0  0  0  0  0
   -8.7193   33.5405   16.7902 O   0  0  0  0  0  0  0  0  0  0  0  0
   -9.9758   33.5165   16.1154 C   0  0  0  0  0  0  0  0  0  0  0  0
   -8.2899   31.1881   16.2966 C   0  0  0  0  0  0  0  0  0  0  0  0
   -8.0466   29.4218   18.5636 H   0  0  0  0  0  0  0  0  0  0  0  0
   -9.5383   24.5614   20.1061 H   0  0  0  0  0  0  0  0  0  0  0  0
   -9.2723   25.9401   21.2066 H   0  0  0  0  0  0  0  0  0  0  0  0
   -8.3974   26.4535   14.8900 H   0  0  0  0  0  0  0  0  0  0  0  0
   -8.9392   24.9343   15.6524 H   0  0  0  0  0  0  0  0  0  0  0  0
   -7.0013   28.2169   15.4072 H   0  0  0  0  0  0  0  0  0  0  0  0
   -8.7367   28.8721   15.2798 H   0  0  0  0  0  0  0  0  0  0  0  0
   -5.2606   29.6749   16.1688 H   0  0  0  0  0  0  0  0  0  0  0  0
   -2.9833   30.8148   17.7780 H   0  0  0  0  0  0  0  0  0  0  0  0
   -3.6915   30.2530   16.2257 H   0  0  0  0  0  0  0  0  0  0  0  0
   -2.4204   31.5222   16.2257 H   0  0  0  0  0  0  0  0  0  0  0  0
   -5.4195   35.8332   16.2687 H   0  0  0  0  0  0  0  0  0  0  0  0
   -5.0658   34.3408   15.3337 H   0  0  0  0  0  0  0  0  0  0  0  0
   -6.7252   35.0285   15.3337 H   0  0  0  0  0  0  0  0  0  0  0  0
  -10.7893   33.5010   16.8557 H   0  0  0  0  0  0  0  0  0  0  0  0
  -10.0707   34.4130   15.4851 H   0  0  0  0  0  0  0  0  0  0  0  0
  -10.0364   32.6171   15.4851 H   0  0  0  0  0  0  0  0  0  0  0  0
   -9.3579   30.9787   16.1366 H   0  0  0  0  0  0  0  0  0  0  0  0
  1  2  2  0
  1  8  1  0
  2  3  1  0
  3  4  1  0
  3  5  2  0
  5  6  1  0
  6  7  1  0
  6  8  2  0
  8  9  1  0
  9 10  1  0
 10 11  2  0
 10 21  1  0
 11 12  1  0
 12 13  1  0
 12 15  2  0
 13 14  1  0
 15 16  1  0
 15 18  1  0
 16 17  1  0
 18 19  1  0
 18 21  2  0
 19 20  1  0
  1 22  1  0
  4 23  1  0
  4 24  1  0
  7 25  1  0
  7 26  1  0
  9 27  1  0
  9 28  1  0
 11 29  1  0
 14 30  1  0
 14 31  1  0
 14 32  1  0
 17 33  1  0
 17 34  1  0
 17 35  1  0
 20 36  1  0
 20 37  1  0
 20 38  1  0
 21 39  1  0
M  END
>  <filename_input>  (12) 
6XG5_TOP_docked.sdf

>  <pdb_id>  (12) 
6XG5_TOP

>  <pose_rank>  (12) 
11

>  <num_atoms_heavy>  (12) 
21

>  <num_torsions>  (12) 
5

>  <pose>  (12) 
[-7.363895898777221, 30.160173090164708, 16.181496075870374, 0.3177849752363491, 0.06597056636675869, 0.03714745361886489, -0.21700015244274512, 2.8555170901669564, -0.13447726124671264, 6.606038079152141, 0.19689966131536346]

>  <energy>  (12) 
-578.8972092026554

>  <inter_energy>  (12) 
-573.6361125182491

>  <intra_energy>  (12) 
8.752927218552584

>  <rmsd>  (12) 
2.09746

>  <sdf_rank>  (12) 
0

$$$$

     RDKit          3D

 39 40  0  0  0  0  0  0  0  0999 V2000
   -3.4974   30.7826   15.2241 C   0  0  0  0  0  0  0  0  0  0  0  0
   -2.3043   30.4005   14.7343 N   0  0  0  0  0  0  0  0  0  0  0  0
   -1.2113   31.0674   15.1697 C   0  0  0  0  0  0  0  0  0  0  0  0
   -0.0194   30.7014   14.6945 N   0  0  0  0  0  0  0  0  0  0  0  0
   -1.2434   32.0893   16.0403 N   0  0  0  0  0  0  0  0  0  0  0  0
   -2.4434   32.4372   16.5502 C   0  0  0  0  0  0  0  0  0  0  0  0
   -2.4396   33.4424   17.4517 N   0  0  0  0  0  0  0  0  0  0  0  0
   -3.6547   31.8023   16.1508 C   0  0  0  0  0  0  0  0  0  0  0  0
   -5.0087   32.1693   16.7673 C   0  0  0  0  0  0  0  0  0  0  0  0
   -6.1252   31.1484   16.6662 C   0  0  0  0  0  0  0  0  0  0  0  0
   -6.0310   29.9025   17.2827 C   0  0  0  0  0  0  0  0  0  0  0  0
   -7.0351   28.9491   17.1331 C   0  0  0  0  0  0  0  0  0  0  0  0
   -6.9992   27.6801   17.6455 O   0  0  0  0  0  0  0  0  0  0  0  0
   -7.7631   27.4198   18.8225 C   0  0  0  0  0  0  0  0  0  0  0  0
   -8.1729   29.2393   16.3748 C   0  0  0  0  0  0  0  0  0  0  0  0
   -9.2152   28.3381   16.2612 O   0  0  0  0  0  0  0  0  0  0  0  0
   -8.8853   27.0727   15.7127 C   0  0  0  0  0  0  0  0  0  0  0  0
   -8.2934   30.5097   15.8129 C   0  0  0  0  0  0  0  0  0  0  0  0
   -9.4400   30.7017   15.1020 O   0  0  0  0  0  0  0  0  0  0  0  0
  -10.3653   31.6753   15.5819 C   0  0  0  0  0  0  0  0  0  0  0  0
   -7.2813   31.4532   15.9606 C   0  0  0  0  0  0  0  0  0  0  0  0
   -4.3971   30.2577   14.8705 H   0  0  0  0  0  0  0  0  0  0  0  0
    0.8317   31.1900   15.0069 H   0  0  0  0  0  0  0  0  0  0  0  0
    0.0494   29.9302   14.0152 H   0  0  0  0  0  0  0  0  0  0  0  0
   -3.3235   33.7552   17.8780 H   0  0  0  0  0  0  0  0  0  0  0  0
   -1.5528   33.8964   17.7131 H   0  0  0  0  0  0  0  0  0  0  0  0
   -4.8407   32.3685   17.8360 H   0  0  0  0  0  0  0  0  0  0  0  0
   -5.3610   33.0283   16.1774 H   0  0  0  0  0  0  0  0  0  0  0  0
   -5.1495   29.6681   17.8975 H   0  0  0  0  0  0  0  0  0  0  0  0
   -7.1497   27.6288   19.7114 H   0  0  0  0  0  0  0  0  0  0  0  0
   -8.6539   28.0651   18.8317 H   0  0  0  0  0  0  0  0  0  0  0  0
   -8.0745   26.3648   18.8317 H   0  0  0  0  0  0  0  0  0  0  0  0
   -8.6987   26.3573   16.5272 H   0  0  0  0  0  0  0  0  0  0  0  0
   -9.7196   26.7130   15.0927 H   0  0  0  0  0  0  0  0  0  0  0  0
   -7.9815   27.1662   15.0927 H   0  0  0  0  0  0  0  0  0  0  0  0
  -10.3628   31.6727   16.6819 H   0  0  0  0  0  0  0  0  0  0  0  0
  -10.0723   32.6708   15.2170 H   0  0  0  0  0  0  0  0  0  0  0  0
  -11.3744   31.4334   15.2170 H   0  0  0  0  0  0  0  0  0  0  0  0
   -7.3986   32.4514   15.5135 H   0  0  0  0  0  0  0  0  0  0  0  0
  1  2  2  0
  1  8  1  0
  2  3  1  0
  3  4  1  0
  3  5  2  0
  5  6  1  0
  6  7  1  0
  6  8  2  0
  8  9  1  0
  9 10  1  0
 10 11  2  0
 10 21  1  0
 11 12  1  0
 12 13  1  0
 12 15  2  0
 13 14  1  0
 15 16  1  0
 15 18  1  0
 16 17  1  0
 18 19  1  0
 18 21  2  0
 19 20  1  0
  1 22  1  0
  4 23  1  0
  4 24  1  0
  7 25  1  0
  7 26  1  0
  9 27  1  0
  9 28  1  0
 11 29  1  0
 14 30  1  0
 14 31  1  0
 14 32  1  0
 17 33  1  0
 17 34  1  0
 17 35  1  0
 20 36  1  0
 20 37  1  0
 20 38  1  0
 21 39  1  0
M  END
>  <filename_input>  (13) 
6XG5_TOP_docked.sdf

>  <pdb_id>  (13) 
6XG5_TOP

>  <pose_rank>  (13) 
12

>  <num_atoms_heavy>  (13) 
21

>  <num_torsions>  (13) 
5

>  <pose>  (13) 
[-6.125177001067146, 31.148442446316828, 16.666172662585076, 2.395319541998603, -1.5878591298903932, 1.1742581576219884, 1.5841309740579383, 0.352863637909631, -0.8220497059724214, 6.023257969702306, 0.4829132014094398]

>  <energy>  (13) 
-417.92792623655157

>  <inter_energy>  (13) 
-455.7443720339831

>  <intra_energy>  (13) 
40.798881906063045

>  <rmsd>  (13) 
7.03081

>  <sdf_rank>  (13) 
0

$$$$

     RDKit          3D

 39 40  0  0  0  0  0  0  0  0999 V2000
   -4.2680   35.1195   15.6794 C   0  0  0  0  0  0  0  0  0  0  0  0
   -3.1096   35.5264   16.2288 N   0  0  0  0  0  0  0  0  0  0  0  0
   -3.0834   35.6948   17.5704 C   0  0  0  0  0  0  0  0  0  0  0  0
   -1.9423   36.0977   18.1323 N   0  0  0  0  0  0  0  0  0  0  0  0
   -4.1368   35.4990   18.3798 N   0  0  0  0  0  0  0  0  0  0  0  0
   -5.2814   35.0563   17.8185 C   0  0  0  0  0  0  0  0  0  0  0  0
   -6.3115   34.8321   18.6621 N   0  0  0  0  0  0  0  0  0  0  0  0
   -5.4139   34.8550   16.4144 C   0  0  0  0  0  0  0  0  0  0  0  0
   -6.7007   34.3076   15.7876 C   0  0  0  0  0  0  0  0  0  0  0  0
   -6.9396   32.8126   15.8690 C   0  0  0  0  0  0  0  0  0  0  0  0
   -5.9821   31.9496   16.3981 C   0  0  0  0  0  0  0  0  0  0  0  0
   -6.1859   30.5721   16.4124 C   0  0  0  0  0  0  0  0  0  0  0  0
   -5.2779   29.6458   16.8503 O   0  0  0  0  0  0  0  0  0  0  0  0
   -3.8991   29.8881   16.5727 C   0  0  0  0  0  0  0  0  0  0  0  0
   -7.3746   30.0320   15.9132 C   0  0  0  0  0  0  0  0  0  0  0  0
   -7.6333   28.6751   15.9728 O   0  0  0  0  0  0  0  0  0  0  0  0
   -8.8149   28.2977   16.6600 C   0  0  0  0  0  0  0  0  0  0  0  0
   -8.3572   30.9029   15.4440 C   0  0  0  0  0  0  0  0  0  0  0  0
   -9.4830   30.2847   14.9886 O   0  0  0  0  0  0  0  0  0  0  0  0
  -10.7083   31.0131   15.0378 C   0  0  0  0  0  0  0  0  0  0  0  0
   -8.1415   32.2775   15.4257 C   0  0  0  0  0  0  0  0  0  0  0  0
   -4.3087   34.9895   14.5878 H   0  0  0  0  0  0  0  0  0  0  0  0
   -1.8907   36.2350   19.1518 H   0  0  0  0  0  0  0  0  0  0  0  0
   -1.1130   36.2715   17.5467 H   0  0  0  0  0  0  0  0  0  0  0  0
   -7.2126   34.4933   18.2959 H   0  0  0  0  0  0  0  0  0  0  0  0
   -6.1961   34.9997   19.6718 H   0  0  0  0  0  0  0  0  0  0  0  0
   -7.5465   34.8038   16.2859 H   0  0  0  0  0  0  0  0  0  0  0  0
   -6.5987   34.5163   14.7124 H   0  0  0  0  0  0  0  0  0  0  0  0
   -5.0502   32.3631   16.8111 H   0  0  0  0  0  0  0  0  0  0  0  0
   -3.3462   29.9853   17.5186 H   0  0  0  0  0  0  0  0  0  0  0  0
   -3.4888   29.0483   15.9927 H   0  0  0  0  0  0  0  0  0  0  0  0
   -3.7997   30.8175   15.9927 H   0  0  0  0  0  0  0  0  0  0  0  0
   -8.6417   28.3530   17.7449 H   0  0  0  0  0  0  0  0  0  0  0  0
   -9.6331   28.9792   16.3841 H   0  0  0  0  0  0  0  0  0  0  0  0
   -9.0865   27.2680   16.3841 H   0  0  0  0  0  0  0  0  0  0  0  0
  -10.9925   31.1821   16.0870 H   0  0  0  0  0  0  0  0  0  0  0  0
  -10.5798   31.9815   14.5323 H   0  0  0  0  0  0  0  0  0  0  0  0
  -11.4977   30.4375   14.5323 H   0  0  0  0  0  0  0  0  0  0  0  0
   -8.9318   32.9473   15.0561 H   0  0  0  0  0  0  0  0  0  0  0  0
  1  2  2  0
  1  8  1  0
  2  3  1  0
  3  4  1  0
  3  5  2  0
  5  6  1  0
  6  7  1  0
  6  8  2  0
  8  9  1  0
  9 10  1  0
 10 11  2  0
 10 21  1  0
 11 12  1  0
 12 13  1  0
 12 15  2  0
 13 14  1  0
 15 16  1  0
 15 18  1  0
 16 17  1  0
 18 19  1  0
 18 21  2  0
 19 20  1  0
  1 22  1  0
  4 23  1  0
  4 24  1  0
  7 25  1  0
  7 26  1  0
  9 27  1  0
  9 28  1  0
 11 29  1  0
 14 30  1  0
 14 31  1  0
 14 32  1  0
 17 33  1  0
 17 34  1  0
 17 35  1  0
 20 36  1  0
 20 37  1  0
 20 38  1  0
 21 39  1  0
M  END
>  <filename_input>  (14) 
6XG5_TOP_docked.sdf

>  <pdb_id>  (14) 
6XG5_TOP

>  <pose_rank>  (14) 
13

>  <num_atoms_heavy>  (14) 
21

>  <num_torsions>  (14) 
5

>  <pose>  (14) 
[-6.939566582040309, 32.81257940514592, 15.868992671830945, -2.8449462707004645, 0.6729414948253727, -0.879940848046115, -0.8497148211731798, 3.5181415870342527, -0.16541686047981974, 4.8293145817262655, 1.873363252787598]

>  <energy>  (14) 
-418.558006096109

>  <inter_energy>  (14) 
-448.1098905337382

>  <intra_energy>  (14) 
30.297901155372063

>  <rmsd>  (14) 
7.6013

>  <sdf_rank>  (14) 
0

$$$$

     RDKit          3D

 39 40  0  0  0  0  0  0  0  0999 V2000
   -4.6374   34.8705   15.5431 C   0  0  0  0  0  0  0  0  0  0  0  0
   -4.0857   35.7415   14.6792 N   0  0  0  0  0  0  0  0  0  0  0  0
   -4.8859   36.7082   14.1751 C   0  0  0  0  0  0  0  0  0  0  0  0
   -4.3552   37.5812   13.3170 N   0  0  0  0  0  0  0  0  0  0  0  0
   -6.1898   36.8420   14.4674 N   0  0  0  0  0  0  0  0  0  0  0  0
   -6.7199   35.9829   15.3629 C   0  0  0  0  0  0  0  0  0  0  0  0
   -8.0230   36.1658   15.6657 N   0  0  0  0  0  0  0  0  0  0  0  0
   -5.9634   34.9255   15.9454 C   0  0  0  0  0  0  0  0  0  0  0  0
   -6.5573   33.9819   16.9967 C   0  0  0  0  0  0  0  0  0  0  0  0
   -6.9203   32.5780   16.5540 C   0  0  0  0  0  0  0  0  0  0  0  0
   -8.1724   32.2842   16.0179 C   0  0  0  0  0  0  0  0  0  0  0  0
   -8.5175   30.9803   15.6711 C   0  0  0  0  0  0  0  0  0  0  0  0
   -9.7419   30.5881   15.2007 O   0  0  0  0  0  0  0  0  0  0  0  0
  -10.8552   31.4427   15.4598 C   0  0  0  0  0  0  0  0  0  0  0  0
   -7.5963   29.9419   15.8352 C   0  0  0  0  0  0  0  0  0  0  0  0
   -7.8863   28.6491   15.4401 O   0  0  0  0  0  0  0  0  0  0  0  0
   -7.3793   27.6173   16.2705 C   0  0  0  0  0  0  0  0  0  0  0  0
   -6.3225   30.2498   16.3112 C   0  0  0  0  0  0  0  0  0  0  0  0
   -5.4924   29.1752   16.4267 O   0  0  0  0  0  0  0  0  0  0  0  0
   -4.1978   29.2678   15.8352 C   0  0  0  0  0  0  0  0  0  0  0  0
   -5.9892   31.5541   16.6632 C   0  0  0  0  0  0  0  0  0  0  0  0
   -4.0023   34.0711   15.9526 H   0  0  0  0  0  0  0  0  0  0  0  0
   -4.9390   38.3289   12.9158 H   0  0  0  0  0  0  0  0  0  0  0  0
   -3.3616   37.5074   13.0557 H   0  0  0  0  0  0  0  0  0  0  0  0
   -8.4868   35.5432   16.3425 H   0  0  0  0  0  0  0  0  0  0  0  0
   -8.5532   36.9280   15.2198 H   0  0  0  0  0  0  0  0  0  0  0  0
   -5.8223   33.8909   17.8101 H   0  0  0  0  0  0  0  0  0  0  0  0
   -7.5157   34.4434   17.2770 H   0  0  0  0  0  0  0  0  0  0  0  0
   -8.9000   33.0951   15.8663 H   0  0  0  0  0  0  0  0  0  0  0  0
  -10.9918   31.5476   16.5462 H   0  0  0  0  0  0  0  0  0  0  0  0
  -10.6689   32.4320   15.0164 H   0  0  0  0  0  0  0  0  0  0  0  0
  -11.7627   31.0071   15.0164 H   0  0  0  0  0  0  0  0  0  0  0  0
   -7.5161   27.8956   17.3259 H   0  0  0  0  0  0  0  0  0  0  0  0
   -7.9204   26.6820   16.0648 H   0  0  0  0  0  0  0  0  0  0  0  0
   -6.3083   27.4741   16.0648 H   0  0  0  0  0  0  0  0  0  0  0  0
   -3.4360   29.3223   16.6268 H   0  0  0  0  0  0  0  0  0  0  0  0
   -4.0154   28.3804   15.2112 H   0  0  0  0  0  0  0  0  0  0  0  0
   -4.1436   30.1721   15.2112 H   0  0  0  0  0  0  0  0  0  0  0  0
   -4.9769   31.7763   17.0319 H   0  0  0  0  0  0  0  0  0  0  0  0
  1  2  2  0
  1  8  1  0
  2  3  1  0
  3  4  1  0
  3  5  2  0
  5  6  1  0
  6  7  1  0
  6  8  2  0
  8  9  1  0
  9 10  1  0
 10 11  2  0
 10 21  1  0
 11 12  1  0
 12 13  1  0
 12 15  2  0
 13 14  1  0
 15 16  1  0
 15 18  1  0
 16 17  1  0
 18 19  1  0
 18 21  2  0
 19 20  1  0
  1 22  1  0
  4 23  1  0
  4 24  1  0
  7 25  1  0
  7 26  1  0
  9 27  1  0
  9 28  1  0
 11 29  1  0
 14 30  1  0
 14 31  1  0
 14 32  1  0
 17 33  1  0
 17 34  1  0
 17 35  1  0
 20 36  1  0
 20 37  1  0
 20 38  1  0
 21 39  1  0
M  END
>  <filename_input>  (15) 
6XG5_TOP_docked.sdf

>  <pdb_id>  (15) 
6XG5_TOP

>  <pose_rank>  (15) 
14

>  <num_atoms_heavy>  (15) 
21

>  <num_torsions>  (15) 
5

>  <pose>  (15) 
[-6.920335833390135, 32.57803523295662, 16.55397997494691, 0.7559143367505221, 0.0968836421211597, -3.040288579208569, -0.557881942995348, -1.1203477215695916, -0.5868229157988442, -28.034503875763065, 5.083263398644041]

>  <energy>  (15) 
-344.54794570616554

>  <inter_energy>  (15) 
-370.2282067097301

>  <intra_energy>  (15) 
40.69129991687499

>  <rmsd>  (15) 
8.11141

>  <sdf_rank>  (15) 
0

$$$$

     RDKit          3D

 39 40  0  0  0  0  0  0  0  0999 V2000
   -4.8018   32.7078   17.5891 C   0  0  0  0  0  0  0  0  0  0  0  0
   -3.5253   33.0296   17.8655 N   0  0  0  0  0  0  0  0  0  0  0  0
   -3.2765   34.2977   18.2642 C   0  0  0  0  0  0  0  0  0  0  0  0
   -2.0158   34.6343   18.5430 N   0  0  0  0  0  0  0  0  0  0  0  0
   -4.2132   35.2524   18.3845 N   0  0  0  0  0  0  0  0  0  0  0  0
   -5.4937   34.9047   18.1385 C   0  0  0  0  0  0  0  0  0  0  0  0
   -6.4176   35.8751   18.3046 N   0  0  0  0  0  0  0  0  0  0  0  0
   -5.8592   33.5973   17.7059 C   0  0  0  0  0  0  0  0  0  0  0  0
   -7.3193   33.1946   17.4733 C   0  0  0  0  0  0  0  0  0  0  0  0
   -7.5872   31.7928   16.9615 C   0  0  0  0  0  0  0  0  0  0  0  0
   -6.7328   30.7331   17.2591 C   0  0  0  0  0  0  0  0  0  0  0  0
   -6.9543   29.4624   16.7340 C   0  0  0  0  0  0  0  0  0  0  0  0
   -6.1357   28.3805   16.9175 O   0  0  0  0  0  0  0  0  0  0  0  0
   -4.7270   28.6093   16.9199 C   0  0  0  0  0  0  0  0  0  0  0  0
   -8.0598   29.2239   15.9126 C   0  0  0  0  0  0  0  0  0  0  0  0
   -8.3421   27.9596   15.4293 O   0  0  0  0  0  0  0  0  0  0  0  0
   -8.2405   26.8997   16.3659 C   0  0  0  0  0  0  0  0  0  0  0  0
   -8.9480   30.2709   15.6696 C   0  0  0  0  0  0  0  0  0  0  0  0
   -9.9991   29.9395   14.8681 O   0  0  0  0  0  0  0  0  0  0  0  0
  -10.7010   30.9984   14.2195 C   0  0  0  0  0  0  0  0  0  0  0  0
   -8.7143   31.5394   16.1915 C   0  0  0  0  0  0  0  0  0  0  0  0
   -5.0186   31.6834   17.2520 H   0  0  0  0  0  0  0  0  0  0  0  0
   -1.7943   35.5925   18.8491 H   0  0  0  0  0  0  0  0  0  0  0  0
   -1.2642   33.9360   18.4521 H   0  0  0  0  0  0  0  0  0  0  0  0
   -7.4130   35.6735   18.1328 H   0  0  0  0  0  0  0  0  0  0  0  0
   -6.1271   36.8171   18.6033 H   0  0  0  0  0  0  0  0  0  0  0  0
   -7.8472   33.3014   18.4324 H   0  0  0  0  0  0  0  0  0  0  0  0
   -7.6673   33.8577   16.6674 H   0  0  0  0  0  0  0  0  0  0  0  0
   -5.8695   30.9029   17.9193 H   0  0  0  0  0  0  0  0  0  0  0  0
   -4.3668   28.6678   17.9576 H   0  0  0  0  0  0  0  0  0  0  0  0
   -4.2202   27.7817   16.4020 H   0  0  0  0  0  0  0  0  0  0  0  0
   -4.5082   29.5548   16.4020 H   0  0  0  0  0  0  0  0  0  0  0  0
   -8.2796   27.3074   17.3868 H   0  0  0  0  0  0  0  0  0  0  0  0
   -9.0757   26.1990   16.2187 H   0  0  0  0  0  0  0  0  0  0  0  0
   -7.2876   26.3703   16.2187 H   0  0  0  0  0  0  0  0  0  0  0  0
  -11.1419   31.6637   14.9764 H   0  0  0  0  0  0  0  0  0  0  0  0
  -10.0025   31.5703   13.5909 H   0  0  0  0  0  0  0  0  0  0  0  0
  -11.4997   30.5779   13.5909 H   0  0  0  0  0  0  0  0  0  0  0  0
   -9.4303   32.3503   15.9919 H   0  0  0  0  0  0  0  0  0  0  0  0
  1  2  2  0
  1  8  1  0
  2  3  1  0
  3  4  1  0
  3  5  2  0
  5  6  1  0
  6  7  1  0
  6  8  2  0
  8  9  1  0
  9 10  1  0
 10 11  2  0
 10 21  1  0
 11 12  1  0
 12 13  1  0
 12 15  2  0
 13 14  1  0
 15 16  1  0
 15 18  1  0
 16 17  1  0
 18 19  1  0
 18 21  2  0
 19 20  1  0
  1 22  1  0
  4 23  1  0
  4 24  1  0
  7 25  1  0
  7 26  1  0
  9 27  1  0
  9 28  1  0
 11 29  1  0
 14 30  1  0
 14 31  1  0
 14 32  1  0
 17 33  1  0
 17 34  1  0
 17 35  1  0
 20 36  1  0
 20 37  1  0
 20 38  1  0
 21 39  1  0
M  END
>  <filename_input>  (16) 
6XG5_TOP_docked.sdf

>  <pdb_id>  (16) 
6XG5_TOP

>  <pose_rank>  (16) 
15

>  <num_atoms_heavy>  (16) 
21

>  <num_torsions>  (16) 
5

>  <pose>  (16) 
[-7.587184641465245, 31.792770355240055, 16.961549293944678, -2.416285364001517, 0.7867169606974234, -0.8546351734812168, -0.8665718834537351, 2.1610434677516475, 0.6456293814705341, -0.8549757923806958, 0.06805536464080775]

>  <energy>  (16) 
-345.8826651024428

>  <inter_energy>  (16) 
-401.4281214290422

>  <intra_energy>  (16) 
59.22559546568867

>  <rmsd>  (16) 
6.97483

>  <sdf_rank>  (16) 
0

$$$$

     RDKit          3D

 39 40  0  0  0  0  0  0  0  0999 V2000
   -7.7649   35.3115   18.8947 C   0  0  0  0  0  0  0  0  0  0  0  0
   -8.5470   36.4048   18.8464 N   0  0  0  0  0  0  0  0  0  0  0  0
   -8.4260   37.2082   17.7653 C   0  0  0  0  0  0  0  0  0  0  0  0
   -9.1945   38.2971   17.7007 N   0  0  0  0  0  0  0  0  0  0  0  0
   -7.5696   36.9939   16.7534 N   0  0  0  0  0  0  0  0  0  0  0  0
   -6.8177   35.8743   16.7987 C   0  0  0  0  0  0  0  0  0  0  0  0
   -5.9941   35.6661   15.7492 N   0  0  0  0  0  0  0  0  0  0  0  0
   -6.8653   34.9677   17.8967 C   0  0  0  0  0  0  0  0  0  0  0  0
   -6.0442   33.6741   17.9215 C   0  0  0  0  0  0  0  0  0  0  0  0
   -6.6223   32.4629   17.2161 C   0  0  0  0  0  0  0  0  0  0  0  0
   -7.8798   32.5001   16.6171 C   0  0  0  0  0  0  0  0  0  0  0  0
   -8.4274   31.3647   16.0250 C   0  0  0  0  0  0  0  0  0  0  0  0
   -9.6776   31.2897   15.4722 O   0  0  0  0  0  0  0  0  0  0  0  0
  -10.5028   32.4521   15.5418 C   0  0  0  0  0  0  0  0  0  0  0  0
   -7.7074   30.1669   16.0022 C   0  0  0  0  0  0  0  0  0  0  0  0
   -8.1967   29.0413   15.3656 O   0  0  0  0  0  0  0  0  0  0  0  0
   -9.1155   29.2742   14.3108 C   0  0  0  0  0  0  0  0  0  0  0  0
   -6.4233   30.1504   16.5452 C   0  0  0  0  0  0  0  0  0  0  0  0
   -5.7969   28.9428   16.4665 O   0  0  0  0  0  0  0  0  0  0  0  0
   -4.9548   28.7020   15.3407 C   0  0  0  0  0  0  0  0  0  0  0  0
   -5.8874   31.2874   17.1422 C   0  0  0  0  0  0  0  0  0  0  0  0
   -7.8431   34.6543   19.7733 H   0  0  0  0  0  0  0  0  0  0  0  0
   -9.1255   38.9287   16.8901 H   0  0  0  0  0  0  0  0  0  0  0  0
   -9.8566   38.5060   18.4615 H   0  0  0  0  0  0  0  0  0  0  0  0
   -5.3939   34.8295   15.7236 H   0  0  0  0  0  0  0  0  0  0  0  0
   -5.9661   36.3440   14.9742 H   0  0  0  0  0  0  0  0  0  0  0  0
   -5.0715   33.8927   17.4567 H   0  0  0  0  0  0  0  0  0  0  0  0
   -6.0057   33.3876   18.9828 H   0  0  0  0  0  0  0  0  0  0  0  0
   -8.4491   33.4413   16.6117 H   0  0  0  0  0  0  0  0  0  0  0  0
  -10.6855   32.7095   16.5956 H   0  0  0  0  0  0  0  0  0  0  0  0
   -9.9971   33.2913   15.0418 H   0  0  0  0  0  0  0  0  0  0  0  0
  -11.4618   32.2515   15.0418 H   0  0  0  0  0  0  0  0  0  0  0  0
  -10.1008   29.5241   14.7312 H   0  0  0  0  0  0  0  0  0  0  0  0
   -8.7584   30.1103   13.6915 H   0  0  0  0  0  0  0  0  0  0  0  0
   -9.1999   28.3691   13.6915 H   0  0  0  0  0  0  0  0  0  0  0  0
   -3.9513   28.4152   15.6881 H   0  0  0  0  0  0  0  0  0  0  0  0
   -5.3787   27.8891   14.7329 H   0  0  0  0  0  0  0  0  0  0  0  0
   -4.8850   29.6162   14.7329 H   0  0  0  0  0  0  0  0  0  0  0  0
   -4.8704   31.2544   17.5601 H   0  0  0  0  0  0  0  0  0  0  0  0
  1  2  2  0
  1  8  1  0
  2  3  1  0
  3  4  1  0
  3  5  2  0
  5  6  1  0
  6  7  1  0
  6  8  2  0
  8  9  1  0
  9 10  1  0
 10 11  2  0
 10 21  1  0
 11 12  1  0
 12 13  1  0
 12 15  2  0
 13 14  1  0
 15 16  1  0
 15 18  1  0
 16 17  1  0
 18 19  1  0
 18 21  2  0
 19 20  1  0
  1 22  1  0
  4 23  1  0
  4 24  1  0
  7 25  1  0
  7 26  1  0
  9 27  1  0
  9 28  1  0
 11 29  1  0
 14 30  1  0
 14 31  1  0
 14 32  1  0
 17 33  1  0
 17 34  1  0
 17 35  1  0
 20 36  1  0
 20 37  1  0
 20 38  1  0
 21 39  1  0
M  END
>  <filename_input>  (17) 
6XG5_TOP_docked.sdf

>  <pdb_id>  (17) 
6XG5_TOP

>  <pose_rank>  (17) 
16

>  <num_atoms_heavy>  (17) 
21

>  <num_torsions>  (17) 
5

>  <pose>  (17) 
[-6.622306299850386, 32.462902334890366, 17.216083570458533, -0.7578372442228315, -0.29659891058687293, 2.817633351978538, -0.23758949446046007, 1.8296258415245135, -1.214240053352029, -1.4168469093681026, 1.7906225000303977]

>  <energy>  (17) 
-405.5792936015464

>  <inter_energy>  (17) 
-428.0338314692139

>  <intra_energy>  (17) 
51.0138093263723

>  <rmsd>  (17) 
7.58263

>  <sdf_rank>  (17) 
0

$$$$

     RDKit          3D

 39 40  0  0  0  0  0  0  0  0999 V2000
   -7.1266   29.9311   16.5808 C   0  0  0  0  0  0  0  0  0  0  0  0
   -6.8366   31.2440   16.5402 N   0  0  0  0  0  0  0  0  0  0  0  0
   -7.6948   32.0496   15.8742 C   0  0  0  0  0  0  0  0  0  0  0  0
   -7.4230   33.3549   15.8241 N   0  0  0  0  0  0  0  0  0  0  0  0
   -8.8001   31.6227   15.2422 N   0  0  0  0  0  0  0  0  0  0  0  0
   -9.0966   30.3086   15.3225 C   0  0  0  0  0  0  0  0  0  0  0  0
  -10.2337   29.9153   14.7098 N   0  0  0  0  0  0  0  0  0  0  0  0
   -8.2538   29.3764   15.9936 C   0  0  0  0  0  0  0  0  0  0  0  0
   -8.6188   27.8936   16.1220 C   0  0  0  0  0  0  0  0  0  0  0  0
   -8.8370   27.3434   17.5179 C   0  0  0  0  0  0  0  0  0  0  0  0
   -9.4551   28.1006   18.5109 C   0  0  0  0  0  0  0  0  0  0  0  0
   -9.5959   27.6089   19.8062 C   0  0  0  0  0  0  0  0  0  0  0  0
  -10.1287   28.3034   20.8589 O   0  0  0  0  0  0  0  0  0  0  0  0
   -9.4203   29.4537   21.3192 C   0  0  0  0  0  0  0  0  0  0  0  0
   -9.1362   26.3282   20.1260 C   0  0  0  0  0  0  0  0  0  0  0  0
   -9.3196   25.7878   21.3854 O   0  0  0  0  0  0  0  0  0  0  0  0
   -8.4150   24.7614   21.7586 C   0  0  0  0  0  0  0  0  0  0  0  0
   -8.5767   25.5488   19.1144 C   0  0  0  0  0  0  0  0  0  0  0  0
   -8.1686   24.3133   19.5194 O   0  0  0  0  0  0  0  0  0  0  0  0
   -8.4038   23.9470   20.8777 C   0  0  0  0  0  0  0  0  0  0  0  0
   -8.4324   26.0514   17.8248 C   0  0  0  0  0  0  0  0  0  0  0  0
   -6.4318   29.2611   17.1086 H   0  0  0  0  0  0  0  0  0  0  0  0
   -8.0574   33.9943   15.3244 H   0  0  0  0  0  0  0  0  0  0  0  0
   -6.5787   33.7232   16.2850 H   0  0  0  0  0  0  0  0  0  0  0  0
  -10.5160   28.9251   14.7346 H   0  0  0  0  0  0  0  0  0  0  0  0
  -10.8188   30.6055   14.2177 H   0  0  0  0  0  0  0  0  0  0  0  0
   -9.5481   27.7331   15.5558 H   0  0  0  0  0  0  0  0  0  0  0  0
   -7.7375   27.3549   15.7437 H   0  0  0  0  0  0  0  0  0  0  0  0
   -9.8381   29.1027   18.2678 H   0  0  0  0  0  0  0  0  0  0  0  0
   -9.4137   29.4644   22.4191 H   0  0  0  0  0  0  0  0  0  0  0  0
   -8.3858   29.4206   20.9466 H   0  0  0  0  0  0  0  0  0  0  0  0
   -9.9153   30.3626   20.9466 H   0  0  0  0  0  0  0  0  0  0  0  0
   -8.3616   24.7008   22.8556 H   0  0  0  0  0  0  0  0  0  0  0  0
   -8.7647   23.7998   21.3548 H   0  0  0  0  0  0  0  0  0  0  0  0
   -7.4171   24.9875   21.3548 H   0  0  0  0  0  0  0  0  0  0  0  0
   -7.9306   24.6839   21.5434 H   0  0  0  0  0  0  0  0  0  0  0  0
   -9.4869   23.9227   21.0687 H   0  0  0  0  0  0  0  0  0  0  0  0
   -7.9755   22.9520   21.0687 H   0  0  0  0  0  0  0  0  0  0  0  0
   -7.9929   25.4180   17.0401 H   0  0  0  0  0  0  0  0  0  0  0  0
  1  2  2  0
  1  8  1  0
  2  3  1  0
  3  4  1  0
  3  5  2  0
  5  6  1  0
  6  7  1  0
  6  8  2  0
  8  9  1  0
  9 10  1  0
 10 11  2  0
 10 21  1  0
 11 12  1  0
 12 13  1  0
 12 15  2  0
 13 14  1  0
 15 16  1  0
 15 18  1  0
 16 17  1  0
 18 19  1  0
 18 21  2  0
 19 20  1  0
  1 22  1  0
  4 23  1  0
  4 24  1  0
  7 25  1  0
  7 26  1  0
  9 27  1  0
  9 28  1  0
 11 29  1  0
 14 30  1  0
 14 31  1  0
 14 32  1  0
 17 33  1  0
 17 34  1  0
 17 35  1  0
 20 36  1  0
 20 37  1  0
 20 38  1  0
 21 39  1  0
M  END
>  <filename_input>  (18) 
6XG5_TOP_docked.sdf

>  <pdb_id>  (18) 
6XG5_TOP

>  <pose_rank>  (18) 
17

>  <num_atoms_heavy>  (18) 
21

>  <num_torsions>  (18) 
5

>  <pose>  (18) 
[-8.837007444924438, 27.343417959359623, 17.517864642882653, -1.5397605102646903, -1.5291429080352963, -2.7082645323830734, -1.344341280048518, -1.3522313902276404, 3.484240879351925, -0.7187953187404188, 1.2093246570135459]

>  <energy>  (18) 
-64.49380372463673

>  <inter_energy>  (18) 
-374.82690928252237

>  <intra_energy>  (18) 
321.8116390300687

>  <rmsd>  (18) 
6.48268

>  <sdf_rank>  (18) 
0

$$$$

     RDKit          3D

 39 40  0  0  0  0  0  0  0  0999 V2000
    1.4119   26.1791   22.0929 C   0  0  0  0  0  0  0  0  0  0  0  0
    1.0074   25.6556   23.2641 N   0  0  0  0  0  0  0  0  0  0  0  0
    0.9194   26.4935   24.3220 C   0  0  0  0  0  0  0  0  0  0  0  0
    0.5194   25.9913   25.4916 N   0  0  0  0  0  0  0  0  0  0  0  0
    1.2239   27.8008   24.2812 N   0  0  0  0  0  0  0  0  0  0  0  0
    1.5934   28.3187   23.0911 C   0  0  0  0  0  0  0  0  0  0  0  0
    1.8563   29.6429   23.0727 N   0  0  0  0  0  0  0  0  0  0  0  0
    1.7240   27.5191   21.9191 C   0  0  0  0  0  0  0  0  0  0  0  0
    2.0983   28.1203   20.5602 C   0  0  0  0  0  0  0  0  0  0  0  0
    0.9971   28.7913   19.7628 C   0  0  0  0  0  0  0  0  0  0  0  0
    0.5934   30.0970   20.0341 C   0  0  0  0  0  0  0  0  0  0  0  0
   -0.4602   30.6829   19.3367 C   0  0  0  0  0  0  0  0  0  0  0  0
   -0.9669   31.9315   19.5781 O   0  0  0  0  0  0  0  0  0  0  0  0
   -0.2615   33.0480   19.0371 C   0  0  0  0  0  0  0  0  0  0  0  0
   -1.1183   29.9715   18.3295 C   0  0  0  0  0  0  0  0  0  0  0  0
   -2.1241   30.5483   17.5762 O   0  0  0  0  0  0  0  0  0  0  0  0
   -1.7353   31.0696   16.3160 C   0  0  0  0  0  0  0  0  0  0  0  0
   -0.6696   28.6890   18.0168 C   0  0  0  0  0  0  0  0  0  0  0  0
   -1.3655   28.0803   17.0156 O   0  0  0  0  0  0  0  0  0  0  0  0
   -1.1490   26.6860   16.8072 C   0  0  0  0  0  0  0  0  0  0  0  0
    0.3784   28.1084   18.7245 C   0  0  0  0  0  0  0  0  0  0  0  0
    1.5000   25.5079   21.2259 H   0  0  0  0  0  0  0  0  0  0  0  0
    0.4424   26.6041   26.3159 H   0  0  0  0  0  0  0  0  0  0  0  0
    0.2877   24.9908   25.5702 H   0  0  0  0  0  0  0  0  0  0  0  0
    2.1433   30.0988   22.1948 H   0  0  0  0  0  0  0  0  0  0  0  0
    1.7698   30.1971   23.9365 H   0  0  0  0  0  0  0  0  0  0  0  0
    2.8815   28.8722   20.7374 H   0  0  0  0  0  0  0  0  0  0  0  0
    2.4021   27.2588   19.9474 H   0  0  0  0  0  0  0  0  0  0  0  0
    1.1152   30.6743   20.8116 H   0  0  0  0  0  0  0  0  0  0  0  0
    0.1298   33.6672   19.8578 H   0  0  0  0  0  0  0  0  0  0  0  0
    0.5741   32.6889   18.4182 H   0  0  0  0  0  0  0  0  0  0  0  0
   -0.9445   33.6484   18.4182 H   0  0  0  0  0  0  0  0  0  0  0  0
   -1.0837   31.9431   16.4658 H   0  0  0  0  0  0  0  0  0  0  0  0
   -1.1903   30.2980   15.7523 H   0  0  0  0  0  0  0  0  0  0  0  0
   -2.6302   31.3721   15.7523 H   0  0  0  0  0  0  0  0  0  0  0  0
   -1.0701   26.1778   17.7796 H   0  0  0  0  0  0  0  0  0  0  0  0
   -1.9925   26.2646   16.2407 H   0  0  0  0  0  0  0  0  0  0  0  0
   -0.2175   26.5402   16.2407 H   0  0  0  0  0  0  0  0  0  0  0  0
    0.7202   27.0973   18.4584 H   0  0  0  0  0  0  0  0  0  0  0  0
  1  2  2  0
  1  8  1  0
  2  3  1  0
  3  4  1  0
  3  5  2  0
  5  6  1  0
  6  7  1  0
  6  8  2  0
  8  9  1  0
  9 10  1  0
 10 11  2  0
 10 21  1  0
 11 12  1  0
 12 13  1  0
 12 15  2  0
 13 14  1  0
 15 16  1  0
 15 18  1  0
 16 17  1  0
 18 19  1  0
 18 21  2  0
 19 20  1  0
  1 22  1  0
  4 23  1  0
  4 24  1  0
  7 25  1  0
  7 26  1  0
  9 27  1  0
  9 28  1  0
 11 29  1  0
 14 30  1  0
 14 31  1  0
 14 32  1  0
 17 33  1  0
 17 34  1  0
 17 35  1  0
 20 36  1  0
 20 37  1  0
 20 38  1  0
 21 39  1  0
M  END
>  <filename_input>  (19) 
6XG5_TOP_docked.sdf

>  <pdb_id>  (19) 
6XG5_TOP

>  <pose_rank>  (19) 
18

>  <num_atoms_heavy>  (19) 
21

>  <num_torsions>  (19) 
5

>  <pose>  (19) 
[0.9971145582893505, 28.79132200403683, 19.76281887921198, -0.284246210792796, -0.7021124471506519, 1.4850147526410786, 1.1991402488187122, -3.2041016426587983, 0.5064130974533201, 0.046954177568048795, 1.8508530673300871]

>  <energy>  (19) 
-174.52110544153726

>  <inter_energy>  (19) 
-177.1300642856654

>  <intra_energy>  (19) 
15.231513531543152

>  <rmsd>  (19) 
9.559

>  <sdf_rank>  (19) 
0

$$$$

     RDKit          3D

 39 40  0  0  0  0  0  0  0  0999 V2000
    1.0561   30.7327   17.5969 C   0  0  0  0  0  0  0  0  0  0  0  0
    0.5389   31.5248   16.6406 N   0  0  0  0  0  0  0  0  0  0  0  0
   -0.7588   31.3349   16.3109 C   0  0  0  0  0  0  0  0  0  0  0  0
   -1.2884   32.1121   15.3644 N   0  0  0  0  0  0  0  0  0  0  0  0
   -1.5524   30.4021   16.8617 N   0  0  0  0  0  0  0  0  0  0  0  0
   -1.0297   29.6394   17.8447 C   0  0  0  0  0  0  0  0  0  0  0  0
   -1.8622   28.7366   18.4056 N   0  0  0  0  0  0  0  0  0  0  0  0
    0.3282   29.7560   18.2598 C   0  0  0  0  0  0  0  0  0  0  0  0
    0.9038   28.9204   19.4082 C   0  0  0  0  0  0  0  0  0  0  0  0
    0.7581   29.4670   20.8148 C   0  0  0  0  0  0  0  0  0  0  0  0
    0.0843   30.6604   21.0665 C   0  0  0  0  0  0  0  0  0  0  0  0
    0.0088   31.1851   22.3543 C   0  0  0  0  0  0  0  0  0  0  0  0
   -0.5732   32.3791   22.6855 O   0  0  0  0  0  0  0  0  0  0  0  0
   -1.1476   33.1505   21.6310 C   0  0  0  0  0  0  0  0  0  0  0  0
    0.5928   30.5043   23.4262 C   0  0  0  0  0  0  0  0  0  0  0  0
    0.4791   30.9664   24.7244 O   0  0  0  0  0  0  0  0  0  0  0  0
   -0.7497   30.6906   25.3765 C   0  0  0  0  0  0  0  0  0  0  0  0
    1.2102   29.2785   23.1807 C   0  0  0  0  0  0  0  0  0  0  0  0
    1.7396   28.6858   24.2877 O   0  0  0  0  0  0  0  0  0  0  0  0
    1.9345   27.2732   24.2574 C   0  0  0  0  0  0  0  0  0  0  0  0
    1.2882   28.7658   21.8894 C   0  0  0  0  0  0  0  0  0  0  0  0
    2.1137   30.8670   17.8678 H   0  0  0  0  0  0  0  0  0  0  0  0
   -2.2742   31.9918   15.0912 H   0  0  0  0  0  0  0  0  0  0  0  0
   -0.7114   32.8323   14.9070 H   0  0  0  0  0  0  0  0  0  0  0  0
   -1.5238   28.1240   19.1614 H   0  0  0  0  0  0  0  0  0  0  0  0
   -2.8357   28.6604   18.0778 H   0  0  0  0  0  0  0  0  0  0  0  0
    0.4064   27.9395   19.3830 H   0  0  0  0  0  0  0  0  0  0  0  0
    1.9884   28.9037   19.2256 H   0  0  0  0  0  0  0  0  0  0  0  0
   -0.3956   31.1966   20.2346 H   0  0  0  0  0  0  0  0  0  0  0  0
   -1.7528   33.9632   22.0589 H   0  0  0  0  0  0  0  0  0  0  0  0
   -0.3460   33.5778   21.0107 H   0  0  0  0  0  0  0  0  0  0  0  0
   -1.7867   32.5049   21.0107 H   0  0  0  0  0  0  0  0  0  0  0  0
   -0.6020   30.7237   26.4660 H   0  0  0  0  0  0  0  0  0  0  0  0
   -1.4967   31.4434   25.0846 H   0  0  0  0  0  0  0  0  0  0  0  0
   -1.1033   29.6907   25.0846 H   0  0  0  0  0  0  0  0  0  0  0  0
    1.9876   26.8882   25.2864 H   0  0  0  0  0  0  0  0  0  0  0  0
    1.0933   26.7982   23.7311 H   0  0  0  0  0  0  0  0  0  0  0  0
    2.8728   27.0436   23.7311 H   0  0  0  0  0  0  0  0  0  0  0  0
    1.7753   27.7945   21.7182 H   0  0  0  0  0  0  0  0  0  0  0  0
  1  2  2  0
  1  8  1  0
  2  3  1  0
  3  4  1  0
  3  5  2  0
  5  6  1  0
  6  7  1  0
  6  8  2  0
  8  9  1  0
  9 10  1  0
 10 11  2  0
 10 21  1  0
 11 12  1  0
 12 13  1  0
 12 15  2  0
 13 14  1  0
 15 16  1  0
 15 18  1  0
 16 17  1  0
 18 19  1  0
 18 21  2  0
 19 20  1  0
  1 22  1  0
  4 23  1  0
  4 24  1  0
  7 25  1  0
  7 26  1  0
  9 27  1  0
  9 28  1  0
 11 29  1  0
 14 30  1  0
 14 31  1  0
 14 32  1  0
 17 33  1  0
 17 34  1  0
 17 35  1  0
 20 36  1  0
 20 37  1  0
 20 38  1  0
 21 39  1  0
M  END
>  <filename_input>  (20) 
6XG5_TOP_docked.sdf

>  <pdb_id>  (20) 
6XG5_TOP

>  <pose_rank>  (20) 
19

>  <num_atoms_heavy>  (20) 
21

>  <num_torsions>  (20) 
5

>  <pose>  (20) 
[0.7581289625053456, 29.467019344279645, 20.814848082785844, -1.3272017641337146, -2.7199286931933395, -2.110866023673989, 6.079247031984624, 2.7660231067122925, -0.09954847946957493, -1.3275779481500514, 1.729397797443555]

>  <energy>  (20) 
-169.80618370019434

>  <inter_energy>  (20) 
-172.65853180420564

>  <intra_energy>  (20) 
9.781721774537258

>  <rmsd>  (20) 
10.5376

>  <sdf_rank>  (20) 
0

$$$$

     RDKit          3D

 39 40  0  0  0  0  0  0  0  0999 V2000
  -17.5463   26.4624   21.4074 C   0  0  0  0  0  0  0  0  0  0  0  0
  -17.0475   25.2134   21.4271 N   0  0  0  0  0  0  0  0  0  0  0  0
  -16.5412   24.7281   20.2708 C   0  0  0  0  0  0  0  0  0  0  0  0
  -16.0418   23.4908   20.2721 N   0  0  0  0  0  0  0  0  0  0  0  0
  -16.5203   25.4028   19.1099 N   0  0  0  0  0  0  0  0  0  0  0  0
  -16.9913   26.6675   19.1146 C   0  0  0  0  0  0  0  0  0  0  0  0
  -16.9222   27.3339   17.9425 N   0  0  0  0  0  0  0  0  0  0  0  0
  -17.5522   27.2679   20.2785 C   0  0  0  0  0  0  0  0  0  0  0  0
  -18.0425   28.7197   20.2907 C   0  0  0  0  0  0  0  0  0  0  0  0
  -17.9163   29.4917   21.5894 C   0  0  0  0  0  0  0  0  0  0  0  0
  -18.0304   30.8799   21.6257 C   0  0  0  0  0  0  0  0  0  0  0  0
  -17.8522   31.5847   22.8136 C   0  0  0  0  0  0  0  0  0  0  0  0
  -17.8807   32.9482   22.9324 O   0  0  0  0  0  0  0  0  0  0  0  0
  -17.7885   33.7190   21.7348 C   0  0  0  0  0  0  0  0  0  0  0  0
  -17.5770   30.9018   24.0017 C   0  0  0  0  0  0  0  0  0  0  0  0
  -17.4592   31.5678   25.2077 O   0  0  0  0  0  0  0  0  0  0  0  0
  -16.1631   32.0446   25.5299 C   0  0  0  0  0  0  0  0  0  0  0  0
  -17.5275   29.5087   23.9739 C   0  0  0  0  0  0  0  0  0  0  0  0
  -17.2646   28.9330   25.1808 O   0  0  0  0  0  0  0  0  0  0  0  0
  -17.2597   27.5084   25.2514 C   0  0  0  0  0  0  0  0  0  0  0  0
  -17.6985   28.8132   22.7809 C   0  0  0  0  0  0  0  0  0  0  0  0
  -17.9727   26.8670   22.3373 H   0  0  0  0  0  0  0  0  0  0  0  0
  -15.6490   23.0930   19.4070 H   0  0  0  0  0  0  0  0  0  0  0  0
  -16.0491   22.9334   21.1383 H   0  0  0  0  0  0  0  0  0  0  0  0
  -17.2653   28.3031   17.8801 H   0  0  0  0  0  0  0  0  0  0  0  0
  -16.5265   26.8732   17.1106 H   0  0  0  0  0  0  0  0  0  0  0  0
  -17.4714   29.2664   19.5258 H   0  0  0  0  0  0  0  0  0  0  0  0
  -19.1255   28.6506   20.1106 H   0  0  0  0  0  0  0  0  0  0  0  0
  -18.2651   31.4279   20.7013 H   0  0  0  0  0  0  0  0  0  0  0  0
  -17.6614   34.7811   21.9912 H   0  0  0  0  0  0  0  0  0  0  0  0
  -16.9247   33.3782   21.1451 H   0  0  0  0  0  0  0  0  0  0  0  0
  -18.7083   33.5916   21.1451 H   0  0  0  0  0  0  0  0  0  0  0  0
  -16.0491   32.0865   26.6232 H   0  0  0  0  0  0  0  0  0  0  0  0
  -15.4073   31.3656   25.1082 H   0  0  0  0  0  0  0  0  0  0  0  0
  -16.0275   33.0515   25.1082 H   0  0  0  0  0  0  0  0  0  0  0  0
  -17.2586   27.1936   26.3054 H   0  0  0  0  0  0  0  0  0  0  0  0
  -18.1565   27.1134   24.7517 H   0  0  0  0  0  0  0  0  0  0  0  0
  -16.3602   27.1196   24.7517 H   0  0  0  0  0  0  0  0  0  0  0  0
  -17.6607   27.7138   22.7818 H   0  0  0  0  0  0  0  0  0  0  0  0
  1  2  2  0
  1  8  1  0
  2  3  1  0
  3  4  1  0
  3  5  2  0
  5  6  1  0
  6  7  1  0
  6  8  2  0
  8  9  1  0
  9 10  1  0
 10 11  2  0
 10 21  1  0
 11 12  1  0
 12 13  1  0
 12 15  2  0
 13 14  1  0
 15 16  1  0
 15 18  1  0
 16 17  1  0
 18 19  1  0
 18 21  2  0
 19 20  1  0
  1 22  1  0
  4 23  1  0
  4 24  1  0
  7 25  1  0
  7 26  1  0
  9 27  1  0
  9 28  1  0
 11 29  1  0
 14 30  1  0
 14 31  1  0
 14 32  1  0
 17 33  1  0
 17 34  1  0
 17 35  1  0
 20 36  1  0
 20 37  1  0
 20 38  1  0
 21 39  1  0
M  END
>  <filename_input>  (21) 
6XG5_TOP_docked.sdf

>  <pdb_id>  (21) 
6XG5_TOP

>  <pose_rank>  (21) 
20

>  <num_atoms_heavy>  (21) 
21

>  <num_torsions>  (21) 
5

>  <pose>  (21) 
[-17.916267941672814, 29.491721978352803, 21.5894414816388, -2.027363047134891, -2.890973777043644, -1.858309344201461, -0.45866356555742294, -0.16064344768845723, 0.24807670663937986, -4.778692288806771, 0.6698057232214114]

>  <energy>  (21) 
-144.48080384033977

>  <inter_energy>  (21) 
-187.60779026259888

>  <intra_energy>  (21) 
40.74977702604677

>  <rmsd>  (21) 
11.1578

>  <sdf_rank>  (21) 
0

$$$$

     RDKit          3D

 39 40  0  0  0  0  0  0  0  0999 V2000
  -14.4320   34.5706   25.8992 C   0  0  0  0  0  0  0  0  0  0  0  0
  -15.3699   35.0132   25.0426 N   0  0  0  0  0  0  0  0  0  0  0  0
  -16.2661   34.1113   24.5819 C   0  0  0  0  0  0  0  0  0  0  0  0
  -17.2039   34.5331   23.7316 N   0  0  0  0  0  0  0  0  0  0  0  0
  -16.2686   32.8092   24.9100 N   0  0  0  0  0  0  0  0  0  0  0  0
  -15.3440   32.3876   25.7980 C   0  0  0  0  0  0  0  0  0  0  0  0
  -15.3951   31.0819   26.1377 N   0  0  0  0  0  0  0  0  0  0  0  0
  -14.3515   33.2568   26.3360 C   0  0  0  0  0  0  0  0  0  0  0  0
  -13.3335   32.7842   27.3793 C   0  0  0  0  0  0  0  0  0  0  0  0
  -11.8816   33.1650   27.1652 C   0  0  0  0  0  0  0  0  0  0  0  0
  -10.8525   32.2434   27.3467 C   0  0  0  0  0  0  0  0  0  0  0  0
   -9.5187   32.6190   27.2071 C   0  0  0  0  0  0  0  0  0  0  0  0
   -8.4429   31.8020   27.4290 O   0  0  0  0  0  0  0  0  0  0  0  0
   -8.6487   30.3936   27.3245 C   0  0  0  0  0  0  0  0  0  0  0  0
   -9.1910   33.9319   26.8568 C   0  0  0  0  0  0  0  0  0  0  0  0
   -7.8802   34.3186   26.6476 O   0  0  0  0  0  0  0  0  0  0  0  0
   -7.3496   34.0452   25.3612 C   0  0  0  0  0  0  0  0  0  0  0  0
  -10.2251   34.8347   26.6129 C   0  0  0  0  0  0  0  0  0  0  0  0
   -9.8077   36.0851   26.2673 O   0  0  0  0  0  0  0  0  0  0  0  0
  -10.0805   37.1519   27.1740 C   0  0  0  0  0  0  0  0  0  0  0  0
  -11.5548   34.4529   26.7629 C   0  0  0  0  0  0  0  0  0  0  0  0
  -13.6885   35.2896   26.2735 H   0  0  0  0  0  0  0  0  0  0  0  0
  -17.9007   33.8702   23.3630 H   0  0  0  0  0  0  0  0  0  0  0  0
  -17.2309   35.5217   23.4437 H   0  0  0  0  0  0  0  0  0  0  0  0
  -14.7168   30.6980   26.8111 H   0  0  0  0  0  0  0  0  0  0  0  0
  -16.1124   30.4697   25.7235 H   0  0  0  0  0  0  0  0  0  0  0  0
  -13.6423   33.1969   28.3511 H   0  0  0  0  0  0  0  0  0  0  0  0
  -13.3483   31.6866   27.3072 H   0  0  0  0  0  0  0  0  0  0  0  0
  -11.0974   31.2024   27.6043 H   0  0  0  0  0  0  0  0  0  0  0  0
   -8.7125   29.9567   28.3319 H   0  0  0  0  0  0  0  0  0  0  0  0
   -9.5848   30.1992   26.7805 H   0  0  0  0  0  0  0  0  0  0  0  0
   -7.8074   29.9395   26.7805 H   0  0  0  0  0  0  0  0  0  0  0  0
   -6.3762   33.5435   25.4650 H   0  0  0  0  0  0  0  0  0  0  0  0
   -8.0420   33.3916   24.8103 H   0  0  0  0  0  0  0  0  0  0  0  0
   -7.2192   34.9883   24.8103 H   0  0  0  0  0  0  0  0  0  0  0  0
   -9.9873   36.7875   28.2076 H   0  0  0  0  0  0  0  0  0  0  0  0
   -9.3622   37.9680   27.0067 H   0  0  0  0  0  0  0  0  0  0  0  0
  -11.1025   37.5229   27.0067 H   0  0  0  0  0  0  0  0  0  0  0  0
  -12.3556   35.1794   26.5606 H   0  0  0  0  0  0  0  0  0  0  0  0
  1  2  2  0
  1  8  1  0
  2  3  1  0
  3  4  1  0
  3  5  2  0
  5  6  1  0
  6  7  1  0
  6  8  2  0
  8  9  1  0
  9 10  1  0
 10 11  2  0
 10 21  1  0
 11 12  1  0
 12 13  1  0
 12 15  2  0
 13 14  1  0
 15 16  1  0
 15 18  1  0
 16 17  1  0
 18 19  1  0
 18 21  2  0
 19 20  1  0
  1 22  1  0
  4 23  1  0
  4 24  1  0
  7 25  1  0
  7 26  1  0
  9 27  1  0
  9 28  1  0
 11 29  1  0
 14 30  1  0
 14 31  1  0
 14 32  1  0
 17 33  1  0
 17 34  1  0
 17 35  1  0
 20 36  1  0
 20 37  1  0
 20 38  1  0
 21 39  1  0
M  END
>  <filename_input>  (22) 
6XG5_TOP_docked.sdf

>  <pdb_id>  (22) 
6XG5_TOP

>  <pose_rank>  (22) 
21

>  <num_atoms_heavy>  (22) 
21

>  <num_torsions>  (22) 
5

>  <pose>  (22) 
[-11.881630679655371, 33.164958483504016, 27.165223672736072, 0.5374642180309542, 0.07551949515588885, 5.295255321652015, 0.2099472042656527, -3.4529259083630843, 1.4573661233480373, -3.7371631989201175, -0.6954908533482849]

>  <energy>  (22) 
-145.3482379620247

>  <inter_energy>  (22) 
-140.35510719721879

>  <intra_energy>  (22) 
25.113156473653753

>  <rmsd>  (22) 
12.0611

>  <sdf_rank>  (22) 
0

$$$$

     RDKit          3D

 39 40  0  0  0  0  0  0  0  0999 V2000
   -3.3430   21.9474    9.5309 C   0  0  0  0  0  0  0  0  0  0  0  0
   -3.7107   23.2300    9.3604 N   0  0  0  0  0  0  0  0  0  0  0  0
   -4.8128   23.4665    8.6131 C   0  0  0  0  0  0  0  0  0  0  0  0
   -5.1922   24.7330    8.4338 N   0  0  0  0  0  0  0  0  0  0  0  0
   -5.5474   22.5105    8.0217 N   0  0  0  0  0  0  0  0  0  0  0  0
   -5.1870   21.2271    8.2317 C   0  0  0  0  0  0  0  0  0  0  0  0
   -5.9666   20.2869    7.6561 N   0  0  0  0  0  0  0  0  0  0  0  0
   -4.0385   20.8730    8.9968 C   0  0  0  0  0  0  0  0  0  0  0  0
   -3.6605   19.4135    9.2712 C   0  0  0  0  0  0  0  0  0  0  0  0
   -2.4101   19.1547   10.0887 C   0  0  0  0  0  0  0  0  0  0  0  0
   -1.1426   19.1868    9.5110 C   0  0  0  0  0  0  0  0  0  0  0  0
   -0.0052   18.8876   10.2569 C   0  0  0  0  0  0  0  0  0  0  0  0
    1.2695   18.8302    9.7610 O   0  0  0  0  0  0  0  0  0  0  0  0
    1.4481   18.2777    8.4573 C   0  0  0  0  0  0  0  0  0  0  0  0
   -0.1175   18.5709   11.6137 C   0  0  0  0  0  0  0  0  0  0  0  0
    0.9980   18.3329   12.3952 O   0  0  0  0  0  0  0  0  0  0  0  0
    1.7847   19.4681   12.7169 C   0  0  0  0  0  0  0  0  0  0  0  0
   -1.3804   18.6029   12.2035 C   0  0  0  0  0  0  0  0  0  0  0  0
   -1.3876   18.2911   13.5301 O   0  0  0  0  0  0  0  0  0  0  0  0
   -1.3773   19.3669   14.4665 C   0  0  0  0  0  0  0  0  0  0  0  0
   -2.5124   18.8947   11.4486 C   0  0  0  0  0  0  0  0  0  0  0  0
   -2.4418   21.7394   10.1264 H   0  0  0  0  0  0  0  0  0  0  0  0
   -6.0274   24.9455    7.8696 H   0  0  0  0  0  0  0  0  0  0  0  0
   -4.6500   25.4983    8.8595 H   0  0  0  0  0  0  0  0  0  0  0  0
   -5.7449   19.2885    7.7785 H   0  0  0  0  0  0  0  0  0  0  0  0
   -6.7830   20.5681    7.0945 H   0  0  0  0  0  0  0  0  0  0  0  0
   -4.5039   18.9496    9.8038 H   0  0  0  0  0  0  0  0  0  0  0  0
   -3.4391   18.9909    8.2801 H   0  0  0  0  0  0  0  0  0  0  0  0
   -1.0386   19.4528    8.4487 H   0  0  0  0  0  0  0  0  0  0  0  0
    1.7855   17.2343    8.5442 H   0  0  0  0  0  0  0  0  0  0  0  0
    0.4937   18.3102    7.9113 H   0  0  0  0  0  0  0  0  0  0  0  0
    2.2029   18.8628    7.9113 H   0  0  0  0  0  0  0  0  0  0  0  0
    1.8541   19.5682   13.8101 H   0  0  0  0  0  0  0  0  0  0  0  0
    2.7934   19.3467   12.2951 H   0  0  0  0  0  0  0  0  0  0  0  0
    1.3170   20.3699   12.2951 H   0  0  0  0  0  0  0  0  0  0  0  0
   -1.3812   18.9627   15.4895 H   0  0  0  0  0  0  0  0  0  0  0  0
   -0.4733   19.9753   14.3161 H   0  0  0  0  0  0  0  0  0  0  0  0
   -2.2695   19.9925   14.3161 H   0  0  0  0  0  0  0  0  0  0  0  0
   -3.4989   18.9196   11.9346 H   0  0  0  0  0  0  0  0  0  0  0  0
  1  2  2  0
  1  8  1  0
  2  3  1  0
  3  4  1  0
  3  5  2  0
  5  6  1  0
  6  7  1  0
  6  8  2  0
  8  9  1  0
  9 10  1  0
 10 11  2  0
 10 21  1  0
 11 12  1  0
 12 13  1  0
 12 15  2  0
 13 14  1  0
 15 16  1  0
 15 18  1  0
 16 17  1  0
 18 19  1  0
 18 21  2  0
 19 20  1  0
  1 22  1  0
  4 23  1  0
  4 24  1  0
  7 25  1  0
  7 26  1  0
  9 27  1  0
  9 28  1  0
 11 29  1  0
 14 30  1  0
 14 31  1  0
 14 32  1  0
 17 33  1  0
 17 34  1  0
 17 35  1  0
 20 36  1  0
 20 37  1  0
 20 38  1  0
 21 39  1  0
M  END
>  <filename_input>  (23) 
6XG5_TOP_docked.sdf

>  <pdb_id>  (23) 
6XG5_TOP

>  <pose_rank>  (23) 
22

>  <num_atoms_heavy>  (23) 
21

>  <num_torsions>  (23) 
5

>  <pose>  (23) 
[-2.41009815903787, 19.154692083248595, 10.088683145828353, 1.9059244930336254, 0.5773814932809362, -0.45102962540222136, -0.8665059689532831, 2.643256177073268, -1.1517764494052027, 3.4957801920713765, 0.1001574974560919]

>  <energy>  (23) 
-83.61538624202555

>  <inter_energy>  (23) 
-122.36591341134252

>  <intra_energy>  (23) 
14.851612845790818

>  <rmsd>  (23) 
13.4772

>  <sdf_rank>  (23) 
0

$$$$

     RDKit          3D

 39 40  0  0  0  0  0  0  0  0999 V2000
   -0.2210   18.8055   14.3797 C   0  0  0  0  0  0  0  0  0  0  0  0
   -0.7606   18.4772   15.5673 N   0  0  0  0  0  0  0  0  0  0  0  0
   -0.2846   19.1115   16.6628 C   0  0  0  0  0  0  0  0  0  0  0  0
   -0.8087   18.7985   17.8492 N   0  0  0  0  0  0  0  0  0  0  0  0
    0.6961   20.0287   16.6417 N   0  0  0  0  0  0  0  0  0  0  0  0
    1.2023   20.3735   15.4392 C   0  0  0  0  0  0  0  0  0  0  0  0
    2.1598   21.3254   15.4460 N   0  0  0  0  0  0  0  0  0  0  0  0
    0.7744   19.7590   14.2272 C   0  0  0  0  0  0  0  0  0  0  0  0
    1.3186   20.1872   12.8602 C   0  0  0  0  0  0  0  0  0  0  0  0
    0.3369   20.7815   11.8693 C   0  0  0  0  0  0  0  0  0  0  0  0
   -0.6267   21.7070   12.2646 C   0  0  0  0  0  0  0  0  0  0  0  0
   -1.5628   22.2007   11.3593 C   0  0  0  0  0  0  0  0  0  0  0  0
   -2.5828   23.0592   11.6703 O   0  0  0  0  0  0  0  0  0  0  0  0
   -3.0805   23.0387   13.0077 C   0  0  0  0  0  0  0  0  0  0  0  0
   -1.5341   21.7893   10.0237 C   0  0  0  0  0  0  0  0  0  0  0  0
   -2.4084   22.3103    9.0879 O   0  0  0  0  0  0  0  0  0  0  0  0
   -2.0412   23.5574    8.5214 C   0  0  0  0  0  0  0  0  0  0  0  0
   -0.5287   20.9129    9.6175 C   0  0  0  0  0  0  0  0  0  0  0  0
   -0.5763   20.5785    8.2973 O   0  0  0  0  0  0  0  0  0  0  0  0
   -0.0014   19.3334    7.9051 C   0  0  0  0  0  0  0  0  0  0  0  0
    0.3973   20.4181   10.5308 C   0  0  0  0  0  0  0  0  0  0  0  0
   -0.5892   18.2896   13.4807 H   0  0  0  0  0  0  0  0  0  0  0  0
   -0.4673   19.2643   18.7021 H   0  0  0  0  0  0  0  0  0  0  0  0
   -1.5547   18.0911   17.9123 H   0  0  0  0  0  0  0  0  0  0  0  0
    2.5865   21.6329   14.5604 H   0  0  0  0  0  0  0  0  0  0  0  0
    2.4636   21.7440   16.3367 H   0  0  0  0  0  0  0  0  0  0  0  0
    2.1021   20.9385   13.0384 H   0  0  0  0  0  0  0  0  0  0  0  0
    1.6597   19.2531   12.3899 H   0  0  0  0  0  0  0  0  0  0  0  0
   -0.6486   22.0532   13.3085 H   0  0  0  0  0  0  0  0  0  0  0  0
   -2.2373   23.0735   13.7133 H   0  0  0  0  0  0  0  0  0  0  0  0
   -3.7309   23.9108   13.1703 H   0  0  0  0  0  0  0  0  0  0  0  0
   -3.6569   22.1160   13.1703 H   0  0  0  0  0  0  0  0  0  0  0  0
   -1.8292   24.2772    9.3257 H   0  0  0  0  0  0  0  0  0  0  0  0
   -1.1432   23.4274    7.8995 H   0  0  0  0  0  0  0  0  0  0  0  0
   -2.8663   23.9348    7.8995 H   0  0  0  0  0  0  0  0  0  0  0  0
    0.2659   18.7545    8.8014 H   0  0  0  0  0  0  0  0  0  0  0  0
   -0.7288   18.7663    7.3057 H   0  0  0  0  0  0  0  0  0  0  0  0
    0.9021   19.5193    7.3057 H   0  0  0  0  0  0  0  0  0  0  0  0
    1.1857   19.7317   10.1884 H   0  0  0  0  0  0  0  0  0  0  0  0
  1  2  2  0
  1  8  1  0
  2  3  1  0
  3  4  1  0
  3  5  2  0
  5  6  1  0
  6  7  1  0
  6  8  2  0
  8  9  1  0
  9 10  1  0
 10 11  2  0
 10 21  1  0
 11 12  1  0
 12 13  1  0
 12 15  2  0
 13 14  1  0
 15 16  1  0
 15 18  1  0
 16 17  1  0
 18 19  1  0
 18 21  2  0
 19 20  1  0
  1 22  1  0
  4 23  1  0
  4 24  1  0
  7 25  1  0
  7 26  1  0
  9 27  1  0
  9 28  1  0
 11 29  1  0
 14 30  1  0
 14 31  1  0
 14 32  1  0
 17 33  1  0
 17 34  1  0
 17 35  1  0
 20 36  1  0
 20 37  1  0
 20 38  1  0
 21 39  1  0
M  END
>  <filename_input>  (24) 
6XG5_TOP_docked.sdf

>  <pdb_id>  (24) 
6XG5_TOP

>  <pose_rank>  (24) 
23

>  <num_atoms_heavy>  (24) 
21

>  <num_torsions>  (24) 
5

>  <pose>  (24) 
[0.3369474701474346, 20.78154565200174, 11.869318847935094, 0.35602609896932536, 2.646365729520601, -3.169571830552655, -0.6706677968202049, -3.460636423865803, 0.7444153103665162, -0.6213323777652886, 1.2161753955008539]

>  <energy>  (24) 
-63.91167316898515

>  <inter_energy>  (24) 
-61.79811272935232

>  <intra_energy>  (24) 
7.302014423266636

>  <rmsd>  (24) 
12.1669

>  <sdf_rank>  (24) 
0

$$$$

     RDKit          3D

 39 40  0  0  0  0  0  0  0  0999 V2000
   -4.1909   33.2358   26.4771 C   0  0  0  0  0  0  0  0  0  0  0  0
   -2.9633   33.4290   25.9622 N   0  0  0  0  0  0  0  0  0  0  0  0
   -2.8613   33.5221   24.6169 C   0  0  0  0  0  0  0  0  0  0  0  0
   -1.6510   33.7141   24.0889 N   0  0  0  0  0  0  0  0  0  0  0  0
   -3.8972   33.4181   23.7688 N   0  0  0  0  0  0  0  0  0  0  0  0
   -5.1269   33.2606   24.3021 C   0  0  0  0  0  0  0  0  0  0  0  0
   -6.1529   33.1975   23.4267 N   0  0  0  0  0  0  0  0  0  0  0  0
   -5.3399   33.1437   25.7059 C   0  0  0  0  0  0  0  0  0  0  0  0
   -6.7425   33.0121   26.3090 C   0  0  0  0  0  0  0  0  0  0  0  0
   -7.6404   34.2331   26.2693 C   0  0  0  0  0  0  0  0  0  0  0  0
   -7.1148   35.5232   26.2396 C   0  0  0  0  0  0  0  0  0  0  0  0
   -7.9476   36.6391   26.2649 C   0  0  0  0  0  0  0  0  0  0  0  0
   -7.5213   37.9395   26.3044 O   0  0  0  0  0  0  0  0  0  0  0  0
   -6.9900   38.4246   27.5370 C   0  0  0  0  0  0  0  0  0  0  0  0
   -9.3358   36.4797   26.2971 C   0  0  0  0  0  0  0  0  0  0  0  0
  -10.1894   37.5667   26.2575 O   0  0  0  0  0  0  0  0  0  0  0  0
  -10.5454   38.0303   24.9654 C   0  0  0  0  0  0  0  0  0  0  0  0
   -9.8597   35.1881   26.2614 C   0  0  0  0  0  0  0  0  0  0  0  0
  -11.2211   35.1345   26.2852 O   0  0  0  0  0  0  0  0  0  0  0  0
  -11.8562   34.0490   25.6123 C   0  0  0  0  0  0  0  0  0  0  0  0
   -9.0199   34.0787   26.2447 C   0  0  0  0  0  0  0  0  0  0  0  0
   -4.2888   33.1461   27.5690 H   0  0  0  0  0  0  0  0  0  0  0  0
   -1.5407   33.7891   23.0676 H   0  0  0  0  0  0  0  0  0  0  0  0
   -0.8271   33.7873   24.7027 H   0  0  0  0  0  0  0  0  0  0  0  0
   -7.1165   33.0779   23.7704 H   0  0  0  0  0  0  0  0  0  0  0  0
   -5.9721   33.2690   22.4153 H   0  0  0  0  0  0  0  0  0  0  0  0
   -7.2592   32.2057   25.7679 H   0  0  0  0  0  0  0  0  0  0  0  0
   -6.5703   32.8263   27.3794 H   0  0  0  0  0  0  0  0  0  0  0  0
   -6.0245   35.6625   26.1954 H   0  0  0  0  0  0  0  0  0  0  0  0
   -7.5149   37.9453   28.3765 H   0  0  0  0  0  0  0  0  0  0  0  0
   -5.9172   38.1880   27.5922 H   0  0  0  0  0  0  0  0  0  0  0  0
   -7.1284   39.5145   27.5922 H   0  0  0  0  0  0  0  0  0  0  0  0
  -11.2129   38.8996   25.0588 H   0  0  0  0  0  0  0  0  0  0  0  0
   -9.6373   38.3224   24.4176 H   0  0  0  0  0  0  0  0  0  0  0  0
  -11.0620   37.2284   24.4176 H   0  0  0  0  0  0  0  0  0  0  0  0
  -12.2665   33.3476   26.3538 H   0  0  0  0  0  0  0  0  0  0  0  0
  -12.6711   34.4346   24.9821 H   0  0  0  0  0  0  0  0  0  0  0  0
  -11.1207   33.5276   24.9821 H   0  0  0  0  0  0  0  0  0  0  0  0
   -9.4537   33.0684   26.2115 H   0  0  0  0  0  0  0  0  0  0  0  0
  1  2  2  0
  1  8  1  0
  2  3  1  0
  3  4  1  0
  3  5  2  0
  5  6  1  0
  6  7  1  0
  6  8  2  0
  8  9  1  0
  9 10  1  0
 10 11  2  0
 10 21  1  0
 11 12  1  0
 12 13  1  0
 12 15  2  0
 13 14  1  0
 15 16  1  0
 15 18  1  0
 16 17  1  0
 18 19  1  0
 18 21  2  0
 19 20  1  0
  1 22  1  0
  4 23  1  0
  4 24  1  0
  7 25  1  0
  7 26  1  0
  9 27  1  0
  9 28  1  0
 11 29  1  0
 14 30  1  0
 14 31  1  0
 14 32  1  0
 17 33  1  0
 17 34  1  0
 17 35  1  0
 20 36  1  0
 20 37  1  0
 20 38  1  0
 21 39  1  0
M  END
>  <filename_input>  (25) 
6XG5_TOP_docked.sdf

>  <pdb_id>  (25) 
6XG5_TOP

>  <pose_rank>  (25) 
24

>  <num_atoms_heavy>  (25) 
21

>  <num_torsions>  (25) 
5

>  <pose>  (25) 
[-7.6403890073499925, 34.23313657675503, 26.269264000752667, -0.20446324132652352, -1.011041227265679, -5.1922152162835244, -1.4919464138209824, -3.378138882153422, -0.2387265375439909, -1.8340635505988203, 2.017616696949756]

>  <energy>  (25) 
-83.11620798804495

>  <inter_energy>  (25) 
-68.67429911487022

>  <intra_energy>  (25) 
11.099811971935756

>  <rmsd>  (25) 
11.6999

>  <sdf_rank>  (25) 
0

$$$$

     RDKit          3D

 39 40  0  0  0  0  0  0  0  0999 V2000
   -8.2920   26.8250   18.9160 C   0  0  0  0  0  0  0  0  0  0  0  0
   -8.3520   26.3000   20.1530 N   0  0  0  0  0  0  0  0  0  0  0  0
   -8.9430   25.0910   20.2870 C   0  0  0  0  0  0  0  0  0  0  0  0
   -9.0110   24.5550   21.5070 N   0  0  0  0  0  0  0  0  0  0  0  0
   -9.4840   24.3950   19.2740 N   0  0  0  0  0  0  0  0  0  0  0  0
   -9.3840   24.9180   18.0340 C   0  0  0  0  0  0  0  0  0  0  0  0
   -9.9030   24.1780   17.0310 N   0  0  0  0  0  0  0  0  0  0  0  0
   -8.7870   26.1880   17.7880 C   0  0  0  0  0  0  0  0  0  0  0  0
   -8.6340   26.7560   16.3730 C   0  0  0  0  0  0  0  0  0  0  0  0
   -8.1170   28.1750   16.2390 C   0  0  0  0  0  0  0  0  0  0  0  0
   -6.7620   28.4720   16.3700 C   0  0  0  0  0  0  0  0  0  0  0  0
   -6.3050   29.7860   16.3060 C   0  0  0  0  0  0  0  0  0  0  0  0
   -5.0060   30.1780   16.4880 O   0  0  0  0  0  0  0  0  0  0  0  0
   -4.0050   29.1610   16.5120 C   0  0  0  0  0  0  0  0  0  0  0  0
   -7.2040   30.8330   16.0840 C   0  0  0  0  0  0  0  0  0  0  0  0
   -6.7730   32.1400   15.9510 O   0  0  0  0  0  0  0  0  0  0  0  0
   -6.4700   32.8200   17.1580 C   0  0  0  0  0  0  0  0  0  0  0  0
   -8.5500   30.5260   15.8890 C   0  0  0  0  0  0  0  0  0  0  0  0
   -9.3460   31.6100   15.6690 O   0  0  0  0  0  0  0  0  0  0  0  0
  -10.6340   31.3850   15.0990 C   0  0  0  0  0  0  0  0  0  0  0  0
   -8.9990   29.2110   15.9630 C   0  0  0  0  0  0  0  0  0  0  0  0
   -7.8249   27.8132   18.7925 H   0  0  0  0  0  0  0  0  0  0  0  0
   -9.4551   23.6354   21.6415 H   0  0  0  0  0  0  0  0  0  0  0  0
   -8.6194   25.0608   22.3143 H   0  0  0  0  0  0  0  0  0  0  0  0
   -9.8585   24.5218   16.0611 H   0  0  0  0  0  0  0  0  0  0  0  0
  -10.3434   23.2697   17.2358 H   0  0  0  0  0  0  0  0  0  0  0  0
   -7.9394   26.0997   15.8281 H   0  0  0  0  0  0  0  0  0  0  0  0
   -9.6585   26.7928   15.9742 H   0  0  0  0  0  0  0  0  0  0  0  0
   -6.0417   27.6555   16.5265 H   0  0  0  0  0  0  0  0  0  0  0  0
   -3.7601   28.9122   17.5551 H   0  0  0  0  0  0  0  0  0  0  0  0
   -4.3818   28.2635   15.9997 H   0  0  0  0  0  0  0  0  0  0  0  0
   -3.1016   29.5235   15.9997 H   0  0  0  0  0  0  0  0  0  0  0  0
   -6.7509   32.1895   18.0145 H   0  0  0  0  0  0  0  0  0  0  0  0
   -5.3916   33.0334   17.1979 H   0  0  0  0  0  0  0  0  0  0  0  0
   -7.0324   33.7645   17.1979 H   0  0  0  0  0  0  0  0  0  0  0  0
  -11.3734   31.2558   15.9032 H   0  0  0  0  0  0  0  0  0  0  0  0
  -10.9155   32.2476   14.4771 H   0  0  0  0  0  0  0  0  0  0  0  0
  -10.6064   30.4781   14.4771 H   0  0  0  0  0  0  0  0  0  0  0  0
  -10.0643   28.9899   15.8011 H   0  0  0  0  0  0  0  0  0  0  0  0
  1  2  2  0
  1  8  1  0
  2  3  1  0
  3  4  1  0
  3  5  2  0
  5  6  1  0
  6  7  1  0
  6  8  2  0
  8  9  1  0
  9 10  1  0
 10 11  2  0
 10 21  1  0
 11 12  1  0
 12 13  1  0
 12 15  2  0
 13 14  1  0
 15 16  1  0
 15 18  1  0
 16 17  1  0
 18 19  1  0
 18 21  2  0
 19 20  1  0
  1 22  1  0
  4 23  1  0
  4 24  1  0
  7 25  1  0
  7 26  1  0
  9 27  1  0
  9 28  1  0
 11 29  1  0
 14 30  1  0
 14 31  1  0
 14 32  1  0
 17 33  1  0
 17 34  1  0
 17 35  1  0
 20 36  1  0
 20 37  1  0
 20 38  1  0
 21 39  1  0
M  END
>  <filename_input>  (26) 
6XG5_TOP_docked.sdf

>  <pdb_id>  (26) 
6XG5_TOP

>  <pose_rank>  (26) 
25

>  <num_atoms_heavy>  (26) 
21

>  <num_torsions>  (26) 
5

>  <pose>  (26) 
[-8.117, 28.175, 16.239, 1e-06, 1e-06, 1e-06, 0.0, 0.0, 0.0, 0.0, 0.0]

>  <energy>  (26) 
-1550.6826410360968

>  <inter_energy>  (26) 
-1572.183952168529

>  <intra_energy>  (26) 
13.181179481016871

>  <rmsd>  (26) 
0.0

>  <sdf_rank>  (26) 
0

$$$$
