
     RDKit          3D

 57 58  0  0  0  0  0  0  0  0999 V2000
    6.5599   -7.9542  102.6875 C   0  0  0  0  0  0  0  0  0  0  0  0
    7.0677   -7.8430  104.0732 C   0  0  0  0  0  0  0  0  0  0  0  0
    6.6976  -10.3470  104.4654 C   0  0  0  0  0  0  0  0  0  0  0  0
    6.1260   -9.2970  102.2329 C   0  0  0  0  0  0  0  0  0  0  0  0
    7.6835   -8.8894  106.2720 C   0  0  2  0  0  0  0  0  0  0  0  0
    8.3035  -10.2982  106.6098 C   0  0  1  0  0  0  0  0  0  0  0  0
    9.2999   -9.8842  107.7737 C   0  0  1  0  0  0  0  0  0  0  0  0
    9.6461   -8.6463  107.5008 C   0  0  1  0  0  0  0  0  0  0  0  0
   11.0658   -8.5524  106.9656 C   0  0  0  0  0  0  0  0  0  0  0  0
   13.9313   -5.8694  109.5080 C   0  0  0  0  0  0  0  0  0  0  0  0
   13.4589   -4.3933  109.1951 C   0  0  2  0  0  0  0  0  0  0  0  0
   12.1658   -4.1131  109.9266 C   0  0  2  0  0  0  0  0  0  0  0  0
   12.3953   -3.5579  111.3641 C   0  0  2  0  0  0  0  0  0  0  0  0
   11.1391   -3.7842  112.1848 C   0  0  0  0  0  0  0  0  0  0  0  0
    7.1323   -9.0167  104.9137 N   0  0  0  0  0  0  0  0  0  0  0  0
    6.1823  -10.4668  103.0871 N   0  0  0  0  0  0  0  0  0  0  0  0
    5.6343   -9.4446  100.8757 N   0  0  0  0  0  0  0  0  0  0  0  0
    6.7844  -11.2851  105.2048 O   0  0  0  0  0  0  0  0  0  0  0  0
    8.7099   -8.1046  106.2453 O   0  0  0  0  0  0  0  0  0  0  0  0
   11.9612   -8.0355  107.9669 O   0  0  0  0  0  0  0  0  0  0  0  0
   12.5705  -10.5299  108.3602 O   0  0  0  0  0  0  0  0  0  0  0  0
   11.9057   -9.0805  110.3198 O   0  0  0  0  0  0  0  0  0  0  0  0
   14.2134   -8.7901  109.2794 O   0  0  0  0  0  0  0  0  0  0  0  0
   16.6156   -7.7492  108.9887 O   0  0  0  0  0  0  0  0  0  0  0  0
   15.2849   -8.4196  106.9338 O   0  0  0  0  0  0  0  0  0  0  0  0
   14.5911   -6.3303  108.3114 O   0  0  0  0  0  0  0  0  0  0  0  0
   11.4093   -4.2764  113.4998 O   0  0  0  0  0  0  0  0  0  0  0  0
   12.7124   -2.1588  111.3920 O   0  0  0  0  0  0  0  0  0  0  0  0
   11.4130   -5.3182  109.9463 O   0  0  0  0  0  0  0  0  0  0  0  0
   13.3381   -4.1580  107.8026 O   0  0  0  0  0  0  0  0  0  0  0  0
    8.5601   -9.9509  109.0646 O   0  0  0  0  0  0  0  0  0  0  0  0
    7.4112  -11.2027  107.0410 O   0  0  0  0  0  0  0  0  0  0  0  0
   12.6247   -9.1829  109.0004 P   0  0  2  0  0  0  0  0  0  0  0  0
   15.2203   -7.8518  108.3530 P   0  0  1  0  0  0  0  0  0  0  0  0
    6.5067   -7.0787  102.0237 H   0  0  0  0  0  0  0  0  0  0  0  0
    7.3956   -6.8679  104.4629 H   0  0  0  0  0  0  0  0  0  0  0  0
    6.9086   -8.5336  106.9670 H   0  0  0  0  0  0  0  0  0  0  0  0
    8.7505  -10.7973  105.7374 H   0  0  0  0  0  0  0  0  0  0  0  0
   10.1824  -10.5364  107.8499 H   0  0  0  0  0  0  0  0  0  0  0  0
    9.5369   -8.0739  108.4337 H   0  0  0  0  0  0  0  0  0  0  0  0
   11.4036   -9.5549  106.6640 H   0  0  0  0  0  0  0  0  0  0  0  0
   11.0711   -7.8686  106.1041 H   0  0  0  0  0  0  0  0  0  0  0  0
   14.6296   -5.8765  110.3579 H   0  0  0  0  0  0  0  0  0  0  0  0
   13.0850   -6.5173  109.7800 H   0  0  0  0  0  0  0  0  0  0  0  0
   14.2286   -3.6951  109.5557 H   0  0  0  0  0  0  0  0  0  0  0  0
   11.6135   -3.3223  109.3979 H   0  0  0  0  0  0  0  0  0  0  0  0
   13.2598   -4.0963  111.7797 H   0  0  0  0  0  0  0  0  0  0  0  0
   10.6012   -2.8287  112.2723 H   0  0  0  0  0  0  0  0  0  0  0  0
   10.5410   -4.5474  111.6654 H   0  0  0  0  0  0  0  0  0  0  0  0
    5.3270  -10.3675  100.5368 H   0  0  0  0  0  0  0  0  0  0  0  0
    5.5924   -8.6265  100.2513 H   0  0  0  0  0  0  0  0  0  0  0  0
   11.0585   -3.6375  114.1698 H   0  0  0  0  0  0  0  0  0  0  0  0
   12.7813   -1.8547  112.3316 H   0  0  0  0  0  0  0  0  0  0  0  0
   11.2451   -5.5871  110.8842 H   0  0  0  0  0  0  0  0  0  0  0  0
   12.8911   -3.2874  107.6526 H   0  0  0  0  0  0  0  0  0  0  0  0
    9.2020   -9.8930  109.8161 H   0  0  0  0  0  0  0  0  0  0  0  0
    7.4024  -11.2116  108.0309 H   0  0  0  0  0  0  0  0  0  0  0  0
  1  2  2  0
  1  4  1  0
  2 15  1  0
  3 15  1  0
  3 16  1  0
  3 18  2  0
  4 16  2  0
  4 17  1  0
  5  6  1  0
  5 15  1  0
  5 19  1  0
  6  7  1  0
  6 32  1  0
  7  8  1  0
  7 31  1  0
  8  9  1  0
  8 19  1  0
  9 20  1  0
 10 11  1  0
 10 26  1  0
 11 12  1  0
 11 30  1  0
 12 13  1  0
 12 29  1  0
 13 14  1  0
 13 28  1  0
 14 27  1  0
 20 33  1  0
 21 33  2  0
 33 22  1  1
 23 33  1  0
 23 34  1  0
 24 34  2  0
 34 25  1  6
 26 34  1  0
  1 35  1  0
  2 36  1  0
  5 37  1  1
  6 38  1  6
  7 39  1  1
  8 40  1  1
  9 41  1  0
  9 42  1  0
 10 43  1  0
 10 44  1  0
 11 45  1  1
 12 46  1  6
 13 47  1  1
 14 48  1  0
 14 49  1  0
 17 50  1  0
 17 51  1  0
 27 52  1  0
 28 53  1  0
 29 54  1  0
 30 55  1  0
 31 56  1  0
 32 57  1  0
M  CHG  2  22  -1  25  -1
M  END
>  <filename_input>  (1) 
6XHT_V2V_docked.sdf

>  <pdb_id>  (1) 
6XHT_V2V

>  <pose_rank>  (1) 
0

>  <num_atoms_heavy>  (1) 
34

>  <num_torsions>  (1) 
12

>  <pose>  (1) 
[11.961233893936926, -8.03553320490713, 107.966938339166, -0.3101578551729646, 0.9903158947541038, 0.3175758200129458, -9.021349240673041, 0.8645265788082648, 4.65180344213666, -4.667938581994222, 0.19011570294551494, -0.8126398899887064, 4.713143513199357, 1.993987564687437, -0.6608181430606036, -8.344559456124292, 9.671121728627115, -1.6464165393109462]

>  <energy>  (1) 
-651.1252344047552

>  <inter_energy>  (1) 
-792.6583789825186

>  <intra_energy>  (1) 
149.0839457778326

>  <rmsd>  (1) 
9.13884

>  <sdf_rank>  (1) 
0

$$$$

     RDKit          3D

 57 58  0  0  0  0  0  0  0  0999 V2000
   12.5048   -5.6173  109.4021 C   0  0  0  0  0  0  0  0  0  0  0  0
   12.9806   -7.0170  109.3324 C   0  0  0  0  0  0  0  0  0  0  0  0
   15.3358   -6.2394  108.6928 C   0  0  0  0  0  0  0  0  0  0  0  0
   13.4921   -4.5526  109.1032 C   0  0  0  0  0  0  0  0  0  0  0  0
   14.8185   -8.6915  108.9759 C   0  0  2  0  0  0  0  0  0  0  0  0
   14.7824   -9.1675  110.4778 C   0  0  1  0  0  0  0  0  0  0  0  0
   14.7438  -10.7396  110.2634 C   0  0  1  0  0  0  0  0  0  0  0  0
   14.1294  -10.9111  109.1145 C   0  0  1  0  0  0  0  0  0  0  0  0
   12.7115  -11.4292  109.2939 C   0  0  0  0  0  0  0  0  0  0  0  0
    7.2005   -9.3745  105.9429 C   0  0  0  0  0  0  0  0  0  0  0  0
    7.4556   -9.0401  104.4187 C   0  0  2  0  0  0  0  0  0  0  0  0
    6.1487   -9.1128  103.6621 C   0  0  2  0  0  0  0  0  0  0  0  0
    6.3247   -9.6349  102.2048 C   0  0  2  0  0  0  0  0  0  0  0  0
    5.6221   -8.6839  101.2537 C   0  0  0  0  0  0  0  0  0  0  0  0
   14.3580   -7.2942  108.9941 N   0  0  0  0  0  0  0  0  0  0  0  0
   14.8689   -4.8401  108.7523 N   0  0  0  0  0  0  0  0  0  0  0  0
   13.0627   -3.1683  109.1744 N   0  0  0  0  0  0  0  0  0  0  0  0
   16.4670   -6.5307  108.4282 O   0  0  0  0  0  0  0  0  0  0  0  0
   13.9255   -9.4288  108.4023 O   0  0  0  0  0  0  0  0  0  0  0  0
   11.8043  -10.3539  109.5978 O   0  0  0  0  0  0  0  0  0  0  0  0
    9.7719  -10.7517  111.1658 O   0  0  0  0  0  0  0  0  0  0  0  0
   10.0195  -12.1318  109.0642 O   0  0  0  0  0  0  0  0  0  0  0  0
    9.2690   -9.7037  108.8813 O   0  0  0  0  0  0  0  0  0  0  0  0
    9.0896   -7.7307  107.1452 O   0  0  0  0  0  0  0  0  0  0  0  0
   10.8736   -9.5100  106.8380 O   0  0  0  0  0  0  0  0  0  0  0  0
    8.3785  -10.0752  106.3914 O   0  0  0  0  0  0  0  0  0  0  0  0
    4.6426   -9.3299  100.4364 O   0  0  0  0  0  0  0  0  0  0  0  0
    5.7973  -10.9540  102.0032 O   0  0  0  0  0  0  0  0  0  0  0  0
    5.5656   -7.8171  103.6857 O   0  0  0  0  0  0  0  0  0  0  0  0
    8.4424   -9.8823  103.8477 O   0  0  0  0  0  0  0  0  0  0  0  0
   16.1469  -11.2331  110.1882 O   0  0  0  0  0  0  0  0  0  0  0  0
   15.8575   -8.8072  111.1948 O   0  0  0  0  0  0  0  0  0  0  0  0
   10.1876  -10.7929  109.7331 P   0  0  2  0  0  0  0  0  0  0  0  0
    9.4465   -9.2168  107.3053 P   0  0  1  0  0  0  0  0  0  0  0  0
   11.4637   -5.3774  109.6643 H   0  0  0  0  0  0  0  0  0  0  0  0
   12.2866   -7.8454  109.5378 H   0  0  0  0  0  0  0  0  0  0  0  0
   15.7970   -8.7650  108.4788 H   0  0  0  0  0  0  0  0  0  0  0  0
   13.9520   -8.7315  111.0525 H   0  0  0  0  0  0  0  0  0  0  0  0
   14.2324  -11.2813  111.0727 H   0  0  0  0  0  0  0  0  0  0  0  0
   14.7379  -11.6190  108.5326 H   0  0  0  0  0  0  0  0  0  0  0  0
   12.3880  -11.9211  108.3648 H   0  0  0  0  0  0  0  0  0  0  0  0
   12.7024  -12.1427  110.1311 H   0  0  0  0  0  0  0  0  0  0  0  0
    7.0617   -8.4488  106.5206 H   0  0  0  0  0  0  0  0  0  0  0  0
    6.2920   -9.9795  106.0791 H   0  0  0  0  0  0  0  0  0  0  0  0
    7.8509   -8.0161  104.3459 H   0  0  0  0  0  0  0  0  0  0  0  0
    5.4863   -9.8425  104.1507 H   0  0  0  0  0  0  0  0  0  0  0  0
    7.4066   -9.6836  102.0121 H   0  0  0  0  0  0  0  0  0  0  0  0
    5.1237   -7.9018  101.8453 H   0  0  0  0  0  0  0  0  0  0  0  0
    6.3869   -8.2674  100.5817 H   0  0  0  0  0  0  0  0  0  0  0  0
   13.7304   -2.4109  108.9711 H   0  0  0  0  0  0  0  0  0  0  0  0
   12.0902   -2.9432  109.4283 H   0  0  0  0  0  0  0  0  0  0  0  0
    3.9713   -9.7728  101.0137 H   0  0  0  0  0  0  0  0  0  0  0  0
    5.6273  -11.3791  102.8810 H   0  0  0  0  0  0  0  0  0  0  0  0
    5.4365   -7.5303  104.6244 H   0  0  0  0  0  0  0  0  0  0  0  0
    8.9581  -10.3224  104.5691 H   0  0  0  0  0  0  0  0  0  0  0  0
   16.5023  -11.3580  111.1037 H   0  0  0  0  0  0  0  0  0  0  0  0
   15.6490   -8.8771  112.1601 H   0  0  0  0  0  0  0  0  0  0  0  0
  1  2  2  0
  1  4  1  0
  2 15  1  0
  3 15  1  0
  3 16  1  0
  3 18  2  0
  4 16  2  0
  4 17  1  0
  5  6  1  0
  5 15  1  0
  5 19  1  0
  6  7  1  0
  6 32  1  0
  7  8  1  0
  7 31  1  0
  8  9  1  0
  8 19  1  0
  9 20  1  0
 10 11  1  0
 10 26  1  0
 11 12  1  0
 11 30  1  0
 12 13  1  0
 12 29  1  0
 13 14  1  0
 13 28  1  0
 14 27  1  0
 20 33  1  0
 21 33  2  0
 33 22  1  6
 23 33  1  0
 23 34  1  0
 24 34  2  0
 34 25  1  6
 26 34  1  0
  1 35  1  0
  2 36  1  0
  5 37  1  6
  6 38  1  1
  7 39  1  1
  8 40  1  6
  9 41  1  0
  9 42  1  0
 10 43  1  0
 10 44  1  0
 11 45  1  1
 12 46  1  1
 13 47  1  6
 14 48  1  0
 14 49  1  0
 17 50  1  0
 17 51  1  0
 27 52  1  0
 28 53  1  0
 29 54  1  0
 30 55  1  0
 31 56  1  0
 32 57  1  0
M  CHG  2  22  -1  25  -1
M  END
>  <filename_input>  (2) 
6XHT_V2V_docked.sdf

>  <pdb_id>  (2) 
6XHT_V2V

>  <pose_rank>  (2) 
1

>  <num_atoms_heavy>  (2) 
34

>  <num_torsions>  (2) 
12

>  <pose>  (2) 
[11.80427209481143, -10.35394420732957, 109.5978372604601, -0.707274723657722, -0.9096077509879673, -0.5190397853272335, -1.2434626276320302, 2.162758995389934, -1.0068075702286907, -3.4540666805178857, -1.1295278849152197, -0.8397723702740985, 0.6214435604604364, 2.5107924278906597, 1.0904624322651963, -0.49685151525239213, 6.6474721788702995, -0.19407859415527803]

>  <energy>  (2) 
-734.948047507039

>  <inter_energy>  (2) 
-748.4312311644136

>  <intra_energy>  (2) 
27.069279049029575

>  <rmsd>  (2) 
2.93095

>  <sdf_rank>  (2) 
0

$$$$

     RDKit          3D

 57 58  0  0  0  0  0  0  0  0999 V2000
   11.4488   -4.9800  115.0007 C   0  0  0  0  0  0  0  0  0  0  0  0
   11.8349   -4.7354  113.5929 C   0  0  0  0  0  0  0  0  0  0  0  0
    9.3883   -4.3639  112.9318 C   0  0  0  0  0  0  0  0  0  0  0  0
   10.0046   -4.9070  115.3273 C   0  0  0  0  0  0  0  0  0  0  0  0
   11.2335   -4.1472  111.2263 C   0  0  2  0  0  0  0  0  0  0  0  0
   12.6727   -3.5149  111.3369 C   0  0  1  0  0  0  0  0  0  0  0  0
   13.1978   -3.7758  109.8621 C   0  0  1  0  0  0  0  0  0  0  0  0
   12.5810   -4.8677  109.4696 C   0  0  1  0  0  0  0  0  0  0  0  0
   13.5064   -6.0736  109.4492 C   0  0  0  0  0  0  0  0  0  0  0  0
    7.9423   -9.1123  105.8481 C   0  0  0  0  0  0  0  0  0  0  0  0
    7.7715   -9.8811  104.4771 C   0  0  2  0  0  0  0  0  0  0  0  0
    7.0258   -9.0034  103.4976 C   0  0  2  0  0  0  0  0  0  0  0  0
    5.9628   -9.7893  102.6732 C   0  0  2  0  0  0  0  0  0  0  0  0
    6.1735   -9.5014  101.1982 C   0  0  0  0  0  0  0  0  0  0  0  0
   10.8205   -4.4315  112.6096 N   0  0  0  0  0  0  0  0  0  0  0  0
    8.9923   -4.6140  114.3319 N   0  0  0  0  0  0  0  0  0  0  0  0
    9.5918   -5.1293  116.7006 N   0  0  0  0  0  0  0  0  0  0  0  0
    8.5946   -4.0977  112.0753 O   0  0  0  0  0  0  0  0  0  0  0  0
   11.4383   -5.2609  110.6035 O   0  0  0  0  0  0  0  0  0  0  0  0
   13.4375   -6.7551  108.1833 O   0  0  0  0  0  0  0  0  0  0  0  0
   11.7429   -8.3090  109.3922 O   0  0  0  0  0  0  0  0  0  0  0  0
   13.6944   -9.3170  108.1439 O   0  0  0  0  0  0  0  0  0  0  0  0
   11.7277   -8.3700  106.8296 O   0  0  0  0  0  0  0  0  0  0  0  0
   10.8847  -10.5060  105.5391 O   0  0  0  0  0  0  0  0  0  0  0  0
    9.9619   -9.9928  107.8473 O   0  0  0  0  0  0  0  0  0  0  0  0
    9.2647   -8.5383  105.8119 O   0  0  0  0  0  0  0  0  0  0  0  0
    5.2384   -8.5562  100.6721 O   0  0  0  0  0  0  0  0  0  0  0  0
    4.6109   -9.4515  103.0153 O   0  0  0  0  0  0  0  0  0  0  0  0
    7.9886   -8.3859  102.6543 O   0  0  0  0  0  0  0  0  0  0  0  0
    7.1372  -11.1372  104.6476 O   0  0  0  0  0  0  0  0  0  0  0  0
   12.8028   -2.6156  109.0159 O   0  0  0  0  0  0  0  0  0  0  0  0
   12.6771   -2.2042  111.6230 O   0  0  0  0  0  0  0  0  0  0  0  0
   12.6460   -8.2376  108.2062 P   0  0  2  0  0  0  0  0  0  0  0  0
   10.4676   -9.4061  106.5279 P   0  0  1  0  0  0  0  0  0  0  0  0
   12.2007   -5.2062  115.7710 H   0  0  0  0  0  0  0  0  0  0  0  0
   12.8928   -4.7849  113.2955 H   0  0  0  0  0  0  0  0  0  0  0  0
   10.4796   -3.5242  110.7227 H   0  0  0  0  0  0  0  0  0  0  0  0
   13.2740   -3.9420  112.1531 H   0  0  0  0  0  0  0  0  0  0  0  0
   14.2899   -3.8911  109.7981 H   0  0  0  0  0  0  0  0  0  0  0  0
   12.1789   -4.6612  108.4667 H   0  0  0  0  0  0  0  0  0  0  0  0
   14.5395   -5.7371  109.6209 H   0  0  0  0  0  0  0  0  0  0  0  0
   13.1916   -6.7704  110.2400 H   0  0  0  0  0  0  0  0  0  0  0  0
    7.1834   -8.3216  105.9415 H   0  0  0  0  0  0  0  0  0  0  0  0
    7.8153   -9.7850  106.7092 H   0  0  0  0  0  0  0  0  0  0  0  0
    8.7701  -10.0977  104.0699 H   0  0  0  0  0  0  0  0  0  0  0  0
    6.4553   -8.2438  104.0521 H   0  0  0  0  0  0  0  0  0  0  0  0
    6.1016  -10.8550  102.9075 H   0  0  0  0  0  0  0  0  0  0  0  0
    7.1893   -9.1025  101.0610 H   0  0  0  0  0  0  0  0  0  0  0  0
    6.0253  -10.4465  100.6551 H   0  0  0  0  0  0  0  0  0  0  0  0
    8.5941   -5.0838  116.9523 H   0  0  0  0  0  0  0  0  0  0  0  0
   10.2966   -5.3326  117.4237 H   0  0  0  0  0  0  0  0  0  0  0  0
    4.7811   -8.0939  101.4186 H   0  0  0  0  0  0  0  0  0  0  0  0
    4.5158   -9.4277  104.0004 H   0  0  0  0  0  0  0  0  0  0  0  0
    8.6784   -7.9434  103.2098 H   0  0  0  0  0  0  0  0  0  0  0  0
    7.0402  -11.3294  105.6139 H   0  0  0  0  0  0  0  0  0  0  0  0
   12.5443   -1.8566  109.5966 H   0  0  0  0  0  0  0  0  0  0  0  0
   12.6775   -2.0808  112.6053 H   0  0  0  0  0  0  0  0  0  0  0  0
  1  2  2  0
  1  4  1  0
  2 15  1  0
  3 15  1  0
  3 16  1  0
  3 18  2  0
  4 16  2  0
  4 17  1  0
  5  6  1  0
  5 15  1  0
  5 19  1  0
  6  7  1  0
  6 32  1  0
  7  8  1  0
  7 31  1  0
  8  9  1  0
  8 19  1  0
  9 20  1  0
 10 11  1  0
 10 26  1  0
 11 12  1  0
 11 30  1  0
 12 13  1  0
 12 29  1  0
 13 14  1  0
 13 28  1  0
 14 27  1  0
 20 33  1  0
 21 33  2  0
 33 22  1  1
 23 33  1  0
 23 34  1  0
 24 34  2  0
 34 25  1  1
 26 34  1  0
  1 35  1  0
  2 36  1  0
  5 37  1  6
  6 38  1  1
  7 39  1  1
  8 40  1  6
  9 41  1  0
  9 42  1  0
 10 43  1  0
 10 44  1  0
 11 45  1  6
 12 46  1  1
 13 47  1  6
 14 48  1  0
 14 49  1  0
 17 50  1  0
 17 51  1  0
 27 52  1  0
 28 53  1  0
 29 54  1  0
 30 55  1  0
 31 56  1  0
 32 57  1  0
M  CHG  2  22  -1  25  -1
M  END
>  <filename_input>  (3) 
6XHT_V2V_docked.sdf

>  <pdb_id>  (3) 
6XHT_V2V

>  <pose_rank>  (3) 
2

>  <num_atoms_heavy>  (3) 
34

>  <num_torsions>  (3) 
12

>  <pose>  (3) 
[13.437512056307398, -6.7550802915051325, 108.18333596122062, -1.366557019104247, -2.724663058573695, 0.5647304625875426, -2.744868605740721, -1.5822974443633484, -0.362463310157932, -1.8021858699917113, 1.6884228386366997, 1.2060829397103228, 0.7547873224942995, 2.5292375172727186, 1.4680707121545673, 0.8191170941894532, 2.9686120621370837, 0.4768764369448406]

>  <energy>  (3) 
-675.0416077220785

>  <inter_energy>  (3) 
-686.8995633478759

>  <intra_energy>  (3) 
12.338827141885005

>  <rmsd>  (3) 
3.80824

>  <sdf_rank>  (3) 
0

$$$$

     RDKit          3D

 57 58  0  0  0  0  0  0  0  0999 V2000
    6.6527   -7.8805  103.3526 C   0  0  0  0  0  0  0  0  0  0  0  0
    7.0972   -7.7831  104.7610 C   0  0  0  0  0  0  0  0  0  0  0  0
    7.2560  -10.3332  104.9418 C   0  0  0  0  0  0  0  0  0  0  0  0
    6.5215   -9.2410  102.7784 C   0  0  0  0  0  0  0  0  0  0  0  0
    7.8748   -8.8598  106.8928 C   0  0  2  0  0  0  0  0  0  0  0  0
    8.5217  -10.2541  107.2408 C   0  0  1  0  0  0  0  0  0  0  0  0
    9.4503   -9.8269  108.4549 C   0  0  1  0  0  0  0  0  0  0  0  0
    9.7704   -8.5753  108.2144 C   0  0  1  0  0  0  0  0  0  0  0  0
   11.2097   -8.4310  107.7470 C   0  0  0  0  0  0  0  0  0  0  0  0
   12.9553  -10.4258  112.0105 C   0  0  0  0  0  0  0  0  0  0  0  0
   13.7290   -9.6811  113.1710 C   0  0  2  0  0  0  0  0  0  0  0  0
   14.4904  -10.6923  113.9978 C   0  0  2  0  0  0  0  0  0  0  0  0
   16.0246  -10.4219  114.0168 C   0  0  2  0  0  0  0  0  0  0  0  0
   16.6960  -11.3276  113.0011 C   0  0  0  0  0  0  0  0  0  0  0  0
    7.3908   -8.9843  105.5089 N   0  0  0  0  0  0  0  0  0  0  0  0
    6.8060  -10.4412  103.5398 N   0  0  0  0  0  0  0  0  0  0  0  0
    6.0998   -9.3728  101.3961 N   0  0  0  0  0  0  0  0  0  0  0  0
    7.5237  -11.2916  105.6083 O   0  0  0  0  0  0  0  0  0  0  0  0
    8.8767   -8.0442  106.9240 O   0  0  0  0  0  0  0  0  0  0  0  0
   11.9942   -7.7039  108.7100 O   0  0  0  0  0  0  0  0  0  0  0  0
   14.0888   -6.1863  108.9489 O   0  0  0  0  0  0  0  0  0  0  0  0
   13.6500   -7.3781  106.7649 O   0  0  0  0  0  0  0  0  0  0  0  0
   14.5153   -8.7067  108.7595 O   0  0  0  0  0  0  0  0  0  0  0  0
   15.2905  -10.7616  110.2139 O   0  0  0  0  0  0  0  0  0  0  0  0
   15.3941   -8.4231  111.1955 O   0  0  0  0  0  0  0  0  0  0  0  0
   13.1002   -9.5890  110.8450 O   0  0  0  0  0  0  0  0  0  0  0  0
   17.5978  -12.2650  113.5951 O   0  0  0  0  0  0  0  0  0  0  0  0
   16.6283  -10.6477  115.2987 O   0  0  0  0  0  0  0  0  0  0  0  0
   14.1939  -11.9820  113.4797 O   0  0  0  0  0  0  0  0  0  0  0  0
   12.8610   -8.8946  113.9691 O   0  0  0  0  0  0  0  0  0  0  0  0
    8.6544   -9.9344  109.7091 O   0  0  0  0  0  0  0  0  0  0  0  0
    7.6389  -11.1911  107.6184 O   0  0  0  0  0  0  0  0  0  0  0  0
   13.5907   -7.4180  108.2693 P   0  0  2  0  0  0  0  0  0  0  0  0
   14.6300   -9.3754  110.2734 P   0  0  1  0  0  0  0  0  0  0  0  0
    6.4295   -6.9825  102.7578 H   0  0  0  0  0  0  0  0  0  0  0  0
    7.2038   -6.7976  105.2379 H   0  0  0  0  0  0  0  0  0  0  0  0
    7.0582   -8.5376  107.5557 H   0  0  0  0  0  0  0  0  0  0  0  0
    9.0236  -10.7269  106.3837 H   0  0  0  0  0  0  0  0  0  0  0  0
   10.3481  -10.4532  108.5635 H   0  0  0  0  0  0  0  0  0  0  0  0
    9.6008   -8.0199  109.1486 H   0  0  0  0  0  0  0  0  0  0  0  0
   11.6454   -9.4316  107.6098 H   0  0  0  0  0  0  0  0  0  0  0  0
   11.2159   -7.8746  106.7981 H   0  0  0  0  0  0  0  0  0  0  0  0
   13.3976  -11.4164  111.8288 H   0  0  0  0  0  0  0  0  0  0  0  0
   11.8974  -10.5864  112.2659 H   0  0  0  0  0  0  0  0  0  0  0  0
   14.4464   -8.9796  112.7202 H   0  0  0  0  0  0  0  0  0  0  0  0
   14.1722  -10.6163  115.0480 H   0  0  0  0  0  0  0  0  0  0  0  0
   16.1639   -9.3581  113.7740 H   0  0  0  0  0  0  0  0  0  0  0  0
   15.9171  -11.8854  112.4606 H   0  0  0  0  0  0  0  0  0  0  0  0
   17.2851  -10.6865  112.3288 H   0  0  0  0  0  0  0  0  0  0  0  0
    6.0013  -10.3075  100.9747 H   0  0  0  0  0  0  0  0  0  0  0  0
    5.8991   -8.5318  100.8365 H   0  0  0  0  0  0  0  0  0  0  0  0
   17.5371  -12.2019  114.5812 H   0  0  0  0  0  0  0  0  0  0  0  0
   15.9862  -10.4075  116.0129 H   0  0  0  0  0  0  0  0  0  0  0  0
   14.0488  -12.6130  114.2286 H   0  0  0  0  0  0  0  0  0  0  0  0
   13.0483   -9.0644  114.9263 H   0  0  0  0  0  0  0  0  0  0  0  0
    9.2570   -9.8530  110.4904 H   0  0  0  0  0  0  0  0  0  0  0  0
    7.6019  -11.2304  108.6069 H   0  0  0  0  0  0  0  0  0  0  0  0
  1  2  2  0
  1  4  1  0
  2 15  1  0
  3 15  1  0
  3 16  1  0
  3 18  2  0
  4 16  2  0
  4 17  1  0
  5  6  1  0
  5 15  1  0
  5 19  1  0
  6  7  1  0
  6 32  1  0
  7  8  1  0
  7 31  1  0
  8  9  1  0
  8 19  1  0
  9 20  1  0
 10 11  1  0
 10 26  1  0
 11 12  1  0
 11 30  1  0
 12 13  1  0
 12 29  1  0
 13 14  1  0
 13 28  1  0
 14 27  1  0
 20 33  1  0
 21 33  2  0
 33 22  1  6
 23 33  1  0
 23 34  1  0
 24 34  2  0
 34 25  1  1
 26 34  1  0
  1 35  1  0
  2 36  1  0
  5 37  1  1
  6 38  1  6
  7 39  1  1
  8 40  1  1
  9 41  1  0
  9 42  1  0
 10 43  1  0
 10 44  1  0
 11 45  1  6
 12 46  1  1
 13 47  1  6
 14 48  1  0
 14 49  1  0
 17 50  1  0
 17 51  1  0
 27 52  1  0
 28 53  1  0
 29 54  1  0
 30 55  1  0
 31 56  1  0
 32 57  1  0
M  CHG  2  22  -1  25  -1
M  END
>  <filename_input>  (4) 
6XHT_V2V_docked.sdf

>  <pdb_id>  (4) 
6XHT_V2V

>  <pose_rank>  (4) 
3

>  <num_atoms_heavy>  (4) 
34

>  <num_torsions>  (4) 
12

>  <pose>  (4) 
[11.99420886129782, -7.703920116840347, 108.71001563890391, -0.09463276588623992, -1.9669806190577523, -3.497224150074778, -0.4447488646867638, 0.31443308974694767, -1.8977164037087093, -2.372134705645694, -1.8232224255384653, 0.47052362188779745, -1.0083263474927415, -3.228129431237938, -5.064922931629288, -0.3914802652495889, 3.223579634477924, -1.840804453429948]

>  <energy>  (4) 
-420.9442267881018

>  <inter_energy>  (4) 
-576.3291462262679

>  <intra_energy>  (4) 
161.22688207291844

>  <rmsd>  (4) 
9.77454

>  <sdf_rank>  (4) 
0

$$$$

     RDKit          3D

 57 58  0  0  0  0  0  0  0  0999 V2000
    6.5330  -10.7953  102.6865 C   0  0  0  0  0  0  0  0  0  0  0  0
    6.9375  -10.6301  104.1006 C   0  0  0  0  0  0  0  0  0  0  0  0
    6.5608   -8.1001  103.9672 C   0  0  0  0  0  0  0  0  0  0  0  0
    6.1493   -9.5695  101.9462 C   0  0  0  0  0  0  0  0  0  0  0  0
    7.2983   -9.1834  106.1219 C   0  0  2  0  0  0  0  0  0  0  0  0
    8.0571  -10.5146  106.4902 C   0  0  1  0  0  0  0  0  0  0  0  0
    8.8418  -10.0311  107.7823 C   0  0  1  0  0  0  0  0  0  0  0  0
    9.0486   -8.7472  107.5939 C   0  0  1  0  0  0  0  0  0  0  0  0
   10.4967   -8.4446  107.2441 C   0  0  0  0  0  0  0  0  0  0  0  0
   15.8040   -9.4965  109.2635 C   0  0  0  0  0  0  0  0  0  0  0  0
   15.5675  -10.4283  110.5188 C   0  0  2  0  0  0  0  0  0  0  0  0
   16.7294  -11.3850  110.6614 C   0  0  2  0  0  0  0  0  0  0  0  0
   16.4375  -12.7837  110.0404 C   0  0  2  0  0  0  0  0  0  0  0  0
   17.3004  -13.8202  110.7361 C   0  0  0  0  0  0  0  0  0  0  0  0
    6.9362   -9.3161  104.7020 N   0  0  0  0  0  0  0  0  0  0  0  0
    6.1631   -8.2535  102.5537 N   0  0  0  0  0  0  0  0  0  0  0  0
    5.7354   -9.6965  100.5612 N   0  0  0  0  0  0  0  0  0  0  0  0
    6.5698   -7.0390  104.5226 O   0  0  0  0  0  0  0  0  0  0  0  0
    8.2055   -8.2720  106.2488 O   0  0  0  0  0  0  0  0  0  0  0  0
   10.9999   -7.3504  108.0322 O   0  0  0  0  0  0  0  0  0  0  0  0
   11.4072   -9.2220  109.7868 O   0  0  0  0  0  0  0  0  0  0  0  0
   10.5530   -6.9665  110.5389 O   0  0  0  0  0  0  0  0  0  0  0  0
   12.9974   -7.2131  109.8638 O   0  0  0  0  0  0  0  0  0  0  0  0
   13.9790   -8.2143  107.6338 O   0  0  0  0  0  0  0  0  0  0  0  0
   14.8197   -5.9722  108.4757 O   0  0  0  0  0  0  0  0  0  0  0  0
   15.4891   -8.1600  109.7043 O   0  0  0  0  0  0  0  0  0  0  0  0
   18.4383  -14.2123  109.9640 O   0  0  0  0  0  0  0  0  0  0  0  0
   16.6955  -12.8476  108.6304 O   0  0  0  0  0  0  0  0  0  0  0  0
   17.0391  -11.4822  112.0449 O   0  0  0  0  0  0  0  0  0  0  0  0
   14.3279  -11.1120  110.4472 O   0  0  0  0  0  0  0  0  0  0  0  0
    7.9683  -10.2547  108.9675 O   0  0  0  0  0  0  0  0  0  0  0  0
    7.2493  -11.5466  106.7775 O   0  0  0  0  0  0  0  0  0  0  0  0
   11.4450   -7.7412  109.6050 P   0  0  2  0  0  0  0  0  0  0  0  0
   14.3157   -7.3625  108.8677 P   0  0  1  0  0  0  0  0  0  0  0  0
    6.5178  -11.7846  102.2057 H   0  0  0  0  0  0  0  0  0  0  0  0
    7.2388  -11.5066  104.6932 H   0  0  0  0  0  0  0  0  0  0  0  0
    6.4049   -8.9647  106.7253 H   0  0  0  0  0  0  0  0  0  0  0  0
    8.6686  -10.9093  105.6654 H   0  0  0  0  0  0  0  0  0  0  0  0
    9.7884  -10.5664  107.9478 H   0  0  0  0  0  0  0  0  0  0  0  0
    8.7523   -8.2390  108.5234 H   0  0  0  0  0  0  0  0  0  0  0  0
   11.1079   -9.3384  107.4378 H   0  0  0  0  0  0  0  0  0  0  0  0
   10.5495   -8.1647  106.1816 H   0  0  0  0  0  0  0  0  0  0  0  0
   16.8521   -9.5549  108.9347 H   0  0  0  0  0  0  0  0  0  0  0  0
   15.1803   -9.7998  108.4097 H   0  0  0  0  0  0  0  0  0  0  0  0
   15.5151   -9.7977  111.4186 H   0  0  0  0  0  0  0  0  0  0  0  0
   17.5915  -10.9956  110.0999 H   0  0  0  0  0  0  0  0  0  0  0  0
   15.3646  -12.9790  110.1845 H   0  0  0  0  0  0  0  0  0  0  0  0
   17.6524  -13.3997  111.6896 H   0  0  0  0  0  0  0  0  0  0  0  0
   16.6805  -14.7165  110.8851 H   0  0  0  0  0  0  0  0  0  0  0  0
    5.4642   -8.8594  100.0259 H   0  0  0  0  0  0  0  0  0  0  0  0
    5.7129  -10.6238  100.1134 H   0  0  0  0  0  0  0  0  0  0  0  0
   19.1774  -14.4670  110.5714 H   0  0  0  0  0  0  0  0  0  0  0  0
   17.6452  -13.0827  108.4790 H   0  0  0  0  0  0  0  0  0  0  0  0
   16.2440  -11.2326  112.5794 H   0  0  0  0  0  0  0  0  0  0  0  0
   13.9980  -11.2940  111.3627 H   0  0  0  0  0  0  0  0  0  0  0  0
    8.4943  -10.1201  109.7953 H   0  0  0  0  0  0  0  0  0  0  0  0
    7.1739  -11.6431  107.7599 H   0  0  0  0  0  0  0  0  0  0  0  0
  1  2  2  0
  1  4  1  0
  2 15  1  0
  3 15  1  0
  3 16  1  0
  3 18  2  0
  4 16  2  0
  4 17  1  0
  5  6  1  0
  5 15  1  0
  5 19  1  0
  6  7  1  0
  6 32  1  0
  7  8  1  0
  7 31  1  0
  8  9  1  0
  8 19  1  0
  9 20  1  0
 10 11  1  0
 10 26  1  0
 11 12  1  0
 11 30  1  0
 12 13  1  0
 12 29  1  0
 13 14  1  0
 13 28  1  0
 14 27  1  0
 20 33  1  0
 21 33  2  0
 33 22  1  1
 23 33  1  0
 23 34  1  0
 24 34  2  0
 34 25  1  6
 26 34  1  0
  1 35  1  0
  2 36  1  0
  5 37  1  1
  6 38  1  6
  7 39  1  1
  8 40  1  1
  9 41  1  0
  9 42  1  0
 10 43  1  0
 10 44  1  0
 11 45  1  1
 12 46  1  6
 13 47  1  6
 14 48  1  0
 14 49  1  0
 17 50  1  0
 17 51  1  0
 27 52  1  0
 28 53  1  0
 29 54  1  0
 30 55  1  0
 31 56  1  0
 32 57  1  0
M  CHG  2  22  -1  25  -1
M  END
>  <filename_input>  (5) 
6XHT_V2V_docked.sdf

>  <pdb_id>  (5) 
6XHT_V2V

>  <pose_rank>  (5) 
4

>  <num_atoms_heavy>  (5) 
34

>  <num_torsions>  (5) 
12

>  <pose>  (5) 
[10.999867852428054, -7.350414411104359, 108.03216423605821, 3.778505512160307, -3.34933608523213, -0.7978838515066442, -9.25341274766375, 0.4718072871530925, 1.4148499054492853, -3.3431302073334486, 1.2143984034416726, 6.840796944039359, -4.814844833983709, 2.0806224644397617, -4.820864769746723, 4.079083016789589, 2.906371433810835, -4.9715697898085764]

>  <energy>  (5) 
-539.176317385923

>  <inter_energy>  (5) 
-578.1239405572769

>  <intra_energy>  (5) 
40.84888762960645

>  <rmsd>  (5) 
9.52202

>  <sdf_rank>  (5) 
0

$$$$

     RDKit          3D

 57 58  0  0  0  0  0  0  0  0999 V2000
   16.9640  -11.1622  110.5106 C   0  0  0  0  0  0  0  0  0  0  0  0
   16.5463   -9.7672  110.2455 C   0  0  0  0  0  0  0  0  0  0  0  0
   14.0878  -10.4735  110.1126 C   0  0  0  0  0  0  0  0  0  0  0  0
   15.8953  -12.1883  110.5655 C   0  0  0  0  0  0  0  0  0  0  0  0
   14.7524   -8.0552  109.8465 C   0  0  2  0  0  0  0  0  0  0  0  0
   14.6762   -7.8753  108.2828 C   0  0  1  0  0  0  0  0  0  0  0  0
   13.7469   -6.5912  108.2023 C   0  0  1  0  0  0  0  0  0  0  0  0
   12.9822   -6.6574  109.2689 C   0  0  1  0  0  0  0  0  0  0  0  0
   11.5572   -7.0632  108.9289 C   0  0  0  0  0  0  0  0  0  0  0  0
    7.5132   -7.9613  105.3125 C   0  0  0  0  0  0  0  0  0  0  0  0
    7.1527   -9.1618  104.3488 C   0  0  2  0  0  0  0  0  0  0  0  0
    6.5794   -8.6178  103.0599 C   0  0  2  0  0  0  0  0  0  0  0  0
    6.2234   -9.7391  102.0386 C   0  0  2  0  0  0  0  0  0  0  0  0
    4.9054   -9.3945  101.3699 C   0  0  0  0  0  0  0  0  0  0  0  0
   15.1470   -9.4560  110.0633 N   0  0  0  0  0  0  0  0  0  0  0  0
   14.4951  -11.8692  110.3689 N   0  0  0  0  0  0  0  0  0  0  0  0
   16.2681  -13.5644  110.8357 N   0  0  0  0  0  0  0  0  0  0  0  0
   12.9435  -10.1530  109.9636 O   0  0  0  0  0  0  0  0  0  0  0  0
   13.5295   -7.8908  110.2308 O   0  0  0  0  0  0  0  0  0  0  0  0
   10.6059   -6.2515  109.6415 O   0  0  0  0  0  0  0  0  0  0  0  0
    8.2517   -5.8225  108.6311 O   0  0  0  0  0  0  0  0  0  0  0  0
    8.4583   -6.8622  110.9243 O   0  0  0  0  0  0  0  0  0  0  0  0
    8.9697   -8.2721  108.8645 O   0  0  0  0  0  0  0  0  0  0  0  0
    7.8573  -10.4185  107.8184 O   0  0  0  0  0  0  0  0  0  0  0  0
    6.5288   -8.2598  107.9540 O   0  0  0  0  0  0  0  0  0  0  0  0
    8.4748   -8.4877  106.2494 O   0  0  0  0  0  0  0  0  0  0  0  0
    5.0696   -8.6920  100.1354 O   0  0  0  0  0  0  0  0  0  0  0  0
    6.1060  -11.0387  102.6352 O   0  0  0  0  0  0  0  0  0  0  0  0
    7.5235   -7.7020  102.5220 O   0  0  0  0  0  0  0  0  0  0  0  0
    6.2777  -10.0923  104.9633 O   0  0  0  0  0  0  0  0  0  0  0  0
   14.6171   -5.3837  108.2532 O   0  0  0  0  0  0  0  0  0  0  0  0
   15.8615   -7.6473  107.6970 O   0  0  0  0  0  0  0  0  0  0  0  0
    9.0050   -6.7497  109.5255 P   0  0  2  0  0  0  0  0  0  0  0  0
    7.9097   -8.8844  107.7448 P   0  0  1  0  0  0  0  0  0  0  0  0
   18.0213  -11.4262  110.6604 H   0  0  0  0  0  0  0  0  0  0  0  0
   17.3003   -8.9684  110.1873 H   0  0  0  0  0  0  0  0  0  0  0  0
   15.4446   -7.3780  110.3683 H   0  0  0  0  0  0  0  0  0  0  0  0
   14.3168   -8.7731  107.7585 H   0  0  0  0  0  0  0  0  0  0  0  0
   13.1442   -6.5414  107.2834 H   0  0  0  0  0  0  0  0  0  0  0  0
   13.0084   -5.6635  109.7395 H   0  0  0  0  0  0  0  0  0  0  0  0
   11.3965   -6.9403  107.8477 H   0  0  0  0  0  0  0  0  0  0  0  0
   11.4121   -8.1131  109.2232 H   0  0  0  0  0  0  0  0  0  0  0  0
    7.9503   -7.1290  104.7413 H   0  0  0  0  0  0  0  0  0  0  0  0
    6.6215   -7.5691  105.8233 H   0  0  0  0  0  0  0  0  0  0  0  0
    8.0746   -9.7167  104.1202 H   0  0  0  0  0  0  0  0  0  0  0  0
    5.6272   -8.1095  103.2721 H   0  0  0  0  0  0  0  0  0  0  0  0
    7.0509   -9.7861  101.3154 H   0  0  0  0  0  0  0  0  0  0  0  0
    4.3589  -10.3283  101.1714 H   0  0  0  0  0  0  0  0  0  0  0  0
    4.3541   -8.7321  102.0535 H   0  0  0  0  0  0  0  0  0  0  0  0
   15.5436  -14.2953  110.8788 H   0  0  0  0  0  0  0  0  0  0  0  0
   17.2572  -13.8103  110.9845 H   0  0  0  0  0  0  0  0  0  0  0  0
    5.2908   -7.7452  100.3214 H   0  0  0  0  0  0  0  0  0  0  0  0
    6.1140  -10.9510  103.6213 H   0  0  0  0  0  0  0  0  0  0  0  0
    7.9964   -7.2434  103.2611 H   0  0  0  0  0  0  0  0  0  0  0  0
    6.3512  -10.0141  105.9474 H   0  0  0  0  0  0  0  0  0  0  0  0
   14.7912   -5.1420  109.1973 H   0  0  0  0  0  0  0  0  0  0  0  0
   16.5532   -7.5142  108.3927 H   0  0  0  0  0  0  0  0  0  0  0  0
  1  2  2  0
  1  4  1  0
  2 15  1  0
  3 15  1  0
  3 16  1  0
  3 18  2  0
  4 16  2  0
  4 17  1  0
  5  6  1  0
  5 15  1  0
  5 19  1  0
  6  7  1  0
  6 32  1  0
  7  8  1  0
  7 31  1  0
  8  9  1  0
  8 19  1  0
  9 20  1  0
 10 11  1  0
 10 26  1  0
 11 12  1  0
 11 30  1  0
 12 13  1  0
 12 29  1  0
 13 14  1  0
 13 28  1  0
 14 27  1  0
 20 33  1  0
 21 33  2  0
 33 22  1  1
 23 33  1  0
 23 34  1  0
 24 34  2  0
 34 25  1  1
 26 34  1  0
  1 35  1  0
  2 36  1  0
  5 37  1  1
  6 38  1  6
  7 39  1  6
  8 40  1  1
  9 41  1  0
  9 42  1  0
 10 43  1  0
 10 44  1  0
 11 45  1  6
 12 46  1  1
 13 47  1  6
 14 48  1  0
 14 49  1  0
 17 50  1  0
 17 51  1  0
 27 52  1  0
 28 53  1  0
 29 54  1  0
 30 55  1  0
 31 56  1  0
 32 57  1  0
M  CHG  2  22  -1  25  -1
M  END
>  <filename_input>  (6) 
6XHT_V2V_docked.sdf

>  <pdb_id>  (6) 
6XHT_V2V

>  <pose_rank>  (6) 
5

>  <num_atoms_heavy>  (6) 
34

>  <num_torsions>  (6) 
12

>  <pose>  (6) 
[10.605943527912292, -6.251456656226186, 109.64150509809738, -0.27928432178897655, -0.7876043822482323, -0.6746272792527478, 7.588627662106225, -1.1871333469038454, 5.050379081296321, -7.620506935312505, -23.55322108587161, -18.722543177421276, -18.843616709862143, -5.358786640219087, 4.88645835191692, -0.2880258578085901, -3.439330960547494, 2.6424691820032282]

>  <energy>  (6) 
-682.5783351821152

>  <inter_energy>  (6) 
-731.5211880052874

>  <intra_energy>  (6) 
67.82871690739158

>  <rmsd>  (6) 
4.76963

>  <sdf_rank>  (6) 
0

$$$$

     RDKit          3D

 57 58  0  0  0  0  0  0  0  0999 V2000
   11.0415  -12.0804  113.3118 C   0  0  0  0  0  0  0  0  0  0  0  0
   10.9373  -10.6448  112.9670 C   0  0  0  0  0  0  0  0  0  0  0  0
    9.0505  -10.3194  114.6684 C   0  0  0  0  0  0  0  0  0  0  0  0
   10.1169  -12.5942  114.3506 C   0  0  0  0  0  0  0  0  0  0  0  0
    9.9173   -8.3761  113.3148 C   0  0  2  0  0  0  0  0  0  0  0  0
   11.0713   -7.7079  114.1548 C   0  0  1  0  0  0  0  0  0  0  0  0
   11.2662   -6.3665  113.3291 C   0  0  1  0  0  0  0  0  0  0  0  0
   10.9387   -6.6763  112.0948 C   0  0  1  0  0  0  0  0  0  0  0  0
   12.1550   -6.7906  111.1901 C   0  0  0  0  0  0  0  0  0  0  0  0
   13.5806  -10.3132  109.4881 C   0  0  0  0  0  0  0  0  0  0  0  0
   14.0116  -11.1905  110.7309 C   0  0  2  0  0  0  0  0  0  0  0  0
   15.0318  -10.4341  111.5512 C   0  0  2  0  0  0  0  0  0  0  0  0
   15.7884  -11.3470  112.5619 C   0  0  2  0  0  0  0  0  0  0  0  0
   16.8562  -10.5264  113.2614 C   0  0  0  0  0  0  0  0  0  0  0  0
    9.9706   -9.8095  113.6423 N   0  0  0  0  0  0  0  0  0  0  0  0
    9.1414  -11.7519  115.0140 N   0  0  0  0  0  0  0  0  0  0  0  0
   10.2002  -13.9945  114.7221 N   0  0  0  0  0  0  0  0  0  0  0  0
    8.2769   -9.5760  115.2006 O   0  0  0  0  0  0  0  0  0  0  0  0
   10.2935   -8.2026  112.0907 O   0  0  0  0  0  0  0  0  0  0  0  0
   12.4916   -5.5149  110.6149 O   0  0  0  0  0  0  0  0  0  0  0  0
   13.6707   -4.2375  108.6847 O   0  0  0  0  0  0  0  0  0  0  0  0
   12.0127   -6.0659  108.1455 O   0  0  0  0  0  0  0  0  0  0  0  0
   14.3283   -6.6946  109.0028 O   0  0  0  0  0  0  0  0  0  0  0  0
   12.9980   -8.4436  107.5502 O   0  0  0  0  0  0  0  0  0  0  0  0
   15.4920   -8.1489  107.1813 O   0  0  0  0  0  0  0  0  0  0  0  0
   14.6219   -9.3291  109.3248 O   0  0  0  0  0  0  0  0  0  0  0  0
   17.9727  -11.3091  113.6920 O   0  0  0  0  0  0  0  0  0  0  0  0
   16.4150  -12.4823  111.9476 O   0  0  0  0  0  0  0  0  0  0  0  0
   14.3527   -9.3747  112.2114 O   0  0  0  0  0  0  0  0  0  0  0  0
   14.4906  -12.4661  110.3404 O   0  0  0  0  0  0  0  0  0  0  0  0
   10.3349   -5.3427  113.8791 O   0  0  0  0  0  0  0  0  0  0  0  0
   10.7425   -7.4440  115.4284 O   0  0  0  0  0  0  0  0  0  0  0  0
   13.1081   -5.5700  109.0524 P   0  0  2  0  0  0  0  0  0  0  0  0
   14.3561   -8.1496  108.2063 P   0  0  1  0  0  0  0  0  0  0  0  0
   11.7731  -12.7374  112.8189 H   0  0  0  0  0  0  0  0  0  0  0  0
   11.5950  -10.2142  112.1975 H   0  0  0  0  0  0  0  0  0  0  0  0
    8.9077   -7.9796  113.4974 H   0  0  0  0  0  0  0  0  0  0  0  0
   11.9584   -8.3494  114.2626 H   0  0  0  0  0  0  0  0  0  0  0  0
   12.2883   -5.9633  113.3802 H   0  0  0  0  0  0  0  0  0  0  0  0
   10.2560   -5.8895  111.7414 H   0  0  0  0  0  0  0  0  0  0  0  0
   13.0087   -7.1560  111.7796 H   0  0  0  0  0  0  0  0  0  0  0  0
   11.9211   -7.4916  110.3753 H   0  0  0  0  0  0  0  0  0  0  0  0
   13.4994  -10.9387  108.5869 H   0  0  0  0  0  0  0  0  0  0  0  0
   12.5985   -9.8429  109.6443 H   0  0  0  0  0  0  0  0  0  0  0  0
   13.1239  -11.3767  111.3533 H   0  0  0  0  0  0  0  0  0  0  0  0
   15.8109  -10.0361  110.8844 H   0  0  0  0  0  0  0  0  0  0  0  0
   15.0377  -11.7316  113.2680 H   0  0  0  0  0  0  0  0  0  0  0  0
   17.2171   -9.7551  112.5651 H   0  0  0  0  0  0  0  0  0  0  0  0
   16.3970  -10.0880  114.1597 H   0  0  0  0  0  0  0  0  0  0  0  0
    9.5686  -14.3750  115.4412 H   0  0  0  0  0  0  0  0  0  0  0  0
   10.8910  -14.6079  114.2667 H   0  0  0  0  0  0  0  0  0  0  0  0
   18.0001  -11.3284  114.6814 H   0  0  0  0  0  0  0  0  0  0  0  0
   16.7522  -13.0932  112.6499 H   0  0  0  0  0  0  0  0  0  0  0  0
   14.4290   -9.4938  113.1912 H   0  0  0  0  0  0  0  0  0  0  0  0
   14.6925  -13.0038  111.1468 H   0  0  0  0  0  0  0  0  0  0  0  0
   10.3605   -5.3708  114.8684 H   0  0  0  0  0  0  0  0  0  0  0  0
   11.3526   -7.9337  116.0350 H   0  0  0  0  0  0  0  0  0  0  0  0
  1  2  2  0
  1  4  1  0
  2 15  1  0
  3 15  1  0
  3 16  1  0
  3 18  2  0
  4 16  2  0
  4 17  1  0
  5  6  1  0
  5 15  1  0
  5 19  1  0
  6  7  1  0
  6 32  1  0
  7  8  1  0
  7 31  1  0
  8  9  1  0
  8 19  1  0
  9 20  1  0
 10 11  1  0
 10 26  1  0
 11 12  1  0
 11 30  1  0
 12 13  1  0
 12 29  1  0
 13 14  1  0
 13 28  1  0
 14 27  1  0
 20 33  1  0
 21 33  2  0
 33 22  1  6
 23 33  1  0
 23 34  1  0
 24 34  2  0
 34 25  1  6
 26 34  1  0
  1 35  1  0
  2 36  1  0
  5 37  1  6
  6 38  1  1
  7 39  1  6
  8 40  1  6
  9 41  1  0
  9 42  1  0
 10 43  1  0
 10 44  1  0
 11 45  1  1
 12 46  1  6
 13 47  1  1
 14 48  1  0
 14 49  1  0
 17 50  1  0
 17 51  1  0
 27 52  1  0
 28 53  1  0
 29 54  1  0
 30 55  1  0
 31 56  1  0
 32 57  1  0
M  CHG  2  22  -1  25  -1
M  END
>  <filename_input>  (7) 
6XHT_V2V_docked.sdf

>  <pdb_id>  (7) 
6XHT_V2V

>  <pose_rank>  (7) 
6

>  <num_atoms_heavy>  (7) 
34

>  <num_torsions>  (7) 
12

>  <pose>  (7) 
[12.491606280473293, -5.514875888886641, 110.61494709826792, 0.06042920860221802, 2.6504977857057463, 1.7270553400513355, -6.057687375199033, 15.778164749032921, 1.4274004157708, -3.2250233242158384, -5.9504987853474995, -3.0449030755943016, 0.294222937730144, -4.72135337399421, 0.5951851456489774, -31.25405718655258, -15.170043992978965, -0.42978834375936165]

>  <energy>  (7) 
-279.7493870201942

>  <inter_energy>  (7) 
-331.88904033352253

>  <intra_energy>  (7) 
50.51904554477962

>  <rmsd>  (7) 
9.261

>  <sdf_rank>  (7) 
0

$$$$

     RDKit          3D

 57 58  0  0  0  0  0  0  0  0999 V2000
   12.3672   -2.3700  113.4107 C   0  0  0  0  0  0  0  0  0  0  0  0
   11.3844   -3.4211  113.0645 C   0  0  0  0  0  0  0  0  0  0  0  0
   10.7168   -3.6801  115.5238 C   0  0  0  0  0  0  0  0  0  0  0  0
   12.4912   -2.0066  114.8426 C   0  0  0  0  0  0  0  0  0  0  0  0
    9.5883   -5.0462  113.7293 C   0  0  2  0  0  0  0  0  0  0  0  0
    8.5030   -4.2722  112.8888 C   0  0  1  0  0  0  0  0  0  0  0  0
    7.8405   -5.4891  112.1147 C   0  0  1  0  0  0  0  0  0  0  0  0
    8.8028   -6.3746  111.9859 C   0  0  1  0  0  0  0  0  0  0  0  0
    9.3342   -6.4415  110.5632 C   0  0  0  0  0  0  0  0  0  0  0  0
    7.9802   -8.9570  105.6684 C   0  0  0  0  0  0  0  0  0  0  0  0
    7.3085   -9.7365  104.4679 C   0  0  2  0  0  0  0  0  0  0  0  0
    6.5518   -8.7610  103.5952 C   0  0  2  0  0  0  0  0  0  0  0  0
    6.6401   -9.1145  102.0804 C   0  0  2  0  0  0  0  0  0  0  0  0
    5.2589   -9.5006  101.5844 C   0  0  0  0  0  0  0  0  0  0  0  0
   10.5908   -4.0365  114.1037 N   0  0  0  0  0  0  0  0  0  0  0  0
   11.7000   -2.6380  115.8802 N   0  0  0  0  0  0  0  0  0  0  0  0
   13.4364   -0.9709  115.2161 N   0  0  0  0  0  0  0  0  0  0  0  0
   10.0241   -4.2184  116.3392 O   0  0  0  0  0  0  0  0  0  0  0  0
   10.1056   -5.8663  112.8749 O   0  0  0  0  0  0  0  0  0  0  0  0
    9.7837   -7.7707  110.2426 O   0  0  0  0  0  0  0  0  0  0  0  0
    7.4853   -7.9790  109.0504 O   0  0  0  0  0  0  0  0  0  0  0  0
    8.2263   -9.7781  110.6618 O   0  0  0  0  0  0  0  0  0  0  0  0
    9.2947   -9.6549  108.3520 O   0  0  0  0  0  0  0  0  0  0  0  0
   10.3937   -7.5718  107.1723 O   0  0  0  0  0  0  0  0  0  0  0  0
   11.5353   -9.8347  107.0350 O   0  0  0  0  0  0  0  0  0  0  0  0
    9.3551   -9.3913  105.6954 O   0  0  0  0  0  0  0  0  0  0  0  0
    4.9521   -8.9560  100.2984 O   0  0  0  0  0  0  0  0  0  0  0  0
    7.5441  -10.1921  101.7972 O   0  0  0  0  0  0  0  0  0  0  0  0
    7.0635   -7.4618  103.8589 O   0  0  0  0  0  0  0  0  0  0  0  0
    6.4786  -10.7935  104.9186 O   0  0  0  0  0  0  0  0  0  0  0  0
    6.7372   -6.0300  112.9562 O   0  0  0  0  0  0  0  0  0  0  0  0
    7.5931   -3.6228  113.6306 O   0  0  0  0  0  0  0  0  0  0  0  0
    8.6144   -8.7891  109.5944 P   0  0  2  0  0  0  0  0  0  0  0  0
   10.1978   -9.0931  107.0788 P   0  0  1  0  0  0  0  0  0  0  0  0
   12.9791   -1.8799  112.6391 H   0  0  0  0  0  0  0  0  0  0  0  0
   11.2581   -3.7336  112.0174 H   0  0  0  0  0  0  0  0  0  0  0  0
    9.2139   -5.5636  114.6249 H   0  0  0  0  0  0  0  0  0  0  0  0
    8.9254   -3.4688  112.2674 H   0  0  0  0  0  0  0  0  0  0  0  0
    7.4214   -5.2120  111.1361 H   0  0  0  0  0  0  0  0  0  0  0  0
    8.3854   -7.3434  112.2977 H   0  0  0  0  0  0  0  0  0  0  0  0
    8.5330   -6.1548  109.8661 H   0  0  0  0  0  0  0  0  0  0  0  0
   10.1869   -5.7522  110.4748 H   0  0  0  0  0  0  0  0  0  0  0  0
    7.9242   -7.8715  105.4999 H   0  0  0  0  0  0  0  0  0  0  0  0
    7.4708   -9.1626  106.6214 H   0  0  0  0  0  0  0  0  0  0  0  0
    8.1015  -10.2073  103.8682 H   0  0  0  0  0  0  0  0  0  0  0  0
    5.4805   -8.8104  103.8398 H   0  0  0  0  0  0  0  0  0  0  0  0
    7.0262   -8.2217  101.5666 H   0  0  0  0  0  0  0  0  0  0  0  0
    5.2031  -10.5974  101.5225 H   0  0  0  0  0  0  0  0  0  0  0  0
    4.5280   -9.0907  102.2971 H   0  0  0  0  0  0  0  0  0  0  0  0
   13.5406   -0.7009  116.2046 H   0  0  0  0  0  0  0  0  0  0  0  0
   14.0033   -0.5058  114.4928 H   0  0  0  0  0  0  0  0  0  0  0  0
    4.4693   -8.0989  100.4097 H   0  0  0  0  0  0  0  0  0  0  0  0
    7.8704  -10.5811  102.6471 H   0  0  0  0  0  0  0  0  0  0  0  0
    7.1188   -7.3213  104.8373 H   0  0  0  0  0  0  0  0  0  0  0  0
    6.4687  -10.8062  105.9085 H   0  0  0  0  0  0  0  0  0  0  0  0
    6.9663   -5.9177  113.9128 H   0  0  0  0  0  0  0  0  0  0  0  0
    7.7893   -3.7629  114.5908 H   0  0  0  0  0  0  0  0  0  0  0  0
  1  2  2  0
  1  4  1  0
  2 15  1  0
  3 15  1  0
  3 16  1  0
  3 18  2  0
  4 16  2  0
  4 17  1  0
  5  6  1  0
  5 15  1  0
  5 19  1  0
  6  7  1  0
  6 32  1  0
  7  8  1  0
  7 31  1  0
  8  9  1  0
  8 19  1  0
  9 20  1  0
 10 11  1  0
 10 26  1  0
 11 12  1  0
 11 30  1  0
 12 13  1  0
 12 29  1  0
 13 14  1  0
 13 28  1  0
 14 27  1  0
 20 33  1  0
 21 33  2  0
 33 22  1  1
 23 33  1  0
 23 34  1  0
 24 34  2  0
 34 25  1  6
 26 34  1  0
  1 35  1  0
  2 36  1  0
  5 37  1  1
  6 38  1  6
  7 39  1  6
  8 40  1  1
  9 41  1  0
  9 42  1  0
 10 43  1  0
 10 44  1  0
 11 45  1  6
 12 46  1  1
 13 47  1  6
 14 48  1  0
 14 49  1  0
 17 50  1  0
 17 51  1  0
 27 52  1  0
 28 53  1  0
 29 54  1  0
 30 55  1  0
 31 56  1  0
 32 57  1  0
M  CHG  2  22  -1  25  -1
M  END
>  <filename_input>  (8) 
6XHT_V2V_docked.sdf

>  <pdb_id>  (8) 
6XHT_V2V

>  <pose_rank>  (8) 
7

>  <num_atoms_heavy>  (8) 
34

>  <num_torsions>  (8) 
12

>  <pose>  (8) 
[9.78371471834021, -7.770674789310289, 110.24261093759324, -3.3702029642818667, -2.607568978406381, 0.4856502561746385, -27.90838230961933, 6.676527196960549, -11.031816815405548, 1.8885717573287593, 0.504477330604029, -5.661001298113464, -0.6137547346147753, 0.4827355961662458, -0.6233499097768016, -2.020604945486225, 8.909273784381298, -0.15865483813225753]

>  <energy>  (8) 
-618.9077126688925

>  <inter_energy>  (8) 
-620.4666249157036

>  <intra_energy>  (8) 
2.7689881079964174

>  <rmsd>  (8) 
4.97104

>  <sdf_rank>  (8) 
0

$$$$

     RDKit          3D

 57 58  0  0  0  0  0  0  0  0999 V2000
    5.3161  -10.4832  102.3762 C   0  0  0  0  0  0  0  0  0  0  0  0
    6.2867  -10.3885  103.4895 C   0  0  0  0  0  0  0  0  0  0  0  0
    6.9222   -8.0043  102.8018 C   0  0  0  0  0  0  0  0  0  0  0  0
    5.1849   -9.3004  101.4921 C   0  0  0  0  0  0  0  0  0  0  0  0
    7.9732   -9.0886  104.8217 C   0  0  2  0  0  0  0  0  0  0  0  0
    7.1530   -8.4021  105.9790 C   0  0  1  0  0  0  0  0  0  0  0  0
    8.0116   -8.8645  107.2313 C   0  0  1  0  0  0  0  0  0  0  0  0
    8.5269  -10.0216  106.8817 C   0  0  1  0  0  0  0  0  0  0  0  0
    7.8466  -11.1873  107.5811 C   0  0  0  0  0  0  0  0  0  0  0  0
   11.4895   -9.3657  110.4443 C   0  0  0  0  0  0  0  0  0  0  0  0
   11.0768   -7.9461  111.0051 C   0  0  2  0  0  0  0  0  0  0  0  0
   11.1871   -6.9179  109.9022 C   0  0  2  0  0  0  0  0  0  0  0  0
   12.4981   -7.0625  109.0731 C   0  0  2  0  0  0  0  0  0  0  0  0
   13.1402   -5.6953  108.9263 C   0  0  0  0  0  0  0  0  0  0  0  0
    7.0482   -9.1752  103.6808 N   0  0  0  0  0  0  0  0  0  0  0  0
    5.9621   -8.0918  101.6836 N   0  0  0  0  0  0  0  0  0  0  0  0
    4.2334   -9.3543  100.3978 N   0  0  0  0  0  0  0  0  0  0  0  0
    7.5736   -7.0225  103.0166 O   0  0  0  0  0  0  0  0  0  0  0  0
    8.2040  -10.2761  105.2764 O   0  0  0  0  0  0  0  0  0  0  0  0
    7.4475  -10.8260  108.9160 O   0  0  0  0  0  0  0  0  0  0  0  0
    6.8029  -13.2927  109.4133 O   0  0  0  0  0  0  0  0  0  0  0  0
    6.7506  -11.5862  111.2755 O   0  0  0  0  0  0  0  0  0  0  0  0
    8.9963  -12.4522  110.4394 O   0  0  0  0  0  0  0  0  0  0  0  0
    9.6443  -11.0792  112.5920 O   0  0  0  0  0  0  0  0  0  0  0  0
   11.4662  -12.2061  111.2306 O   0  0  0  0  0  0  0  0  0  0  0  0
   10.2580  -10.1028  110.3028 O   0  0  0  0  0  0  0  0  0  0  0  0
   14.5691   -5.7416  108.9466 O   0  0  0  0  0  0  0  0  0  0  0  0
   12.2882   -7.6107  107.7638 O   0  0  0  0  0  0  0  0  0  0  0  0
   11.0868   -5.6329  110.5007 O   0  0  0  0  0  0  0  0  0  0  0  0
   11.8395   -7.5820  112.1430 O   0  0  0  0  0  0  0  0  0  0  0  0
    9.0852   -7.8571  107.4563 O   0  0  0  0  0  0  0  0  0  0  0  0
    7.1034   -7.0638  105.8989 O   0  0  0  0  0  0  0  0  0  0  0  0
    7.4302  -12.0861  110.0279 P   0  0  2  0  0  0  0  0  0  0  0  0
   10.1176  -11.4849  111.1874 P   0  0  1  0  0  0  0  0  0  0  0  0
    4.7181  -11.3917  102.2118 H   0  0  0  0  0  0  0  0  0  0  0  0
    6.4282  -11.2406  104.1707 H   0  0  0  0  0  0  0  0  0  0  0  0
    8.8981   -8.5721  104.5254 H   0  0  0  0  0  0  0  0  0  0  0  0
    6.0895   -8.6830  105.9843 H   0  0  0  0  0  0  0  0  0  0  0  0
    7.4252   -8.9537  108.1577 H   0  0  0  0  0  0  0  0  0  0  0  0
    9.5971   -9.9804  107.1327 H   0  0  0  0  0  0  0  0  0  0  0  0
    6.9559  -11.4813  107.0065 H   0  0  0  0  0  0  0  0  0  0  0  0
    8.5589  -12.0233  107.6425 H   0  0  0  0  0  0  0  0  0  0  0  0
   11.9888   -9.2625  109.4696 H   0  0  0  0  0  0  0  0  0  0  0  0
   12.1943   -9.8780  111.1156 H   0  0  0  0  0  0  0  0  0  0  0  0
   10.0309   -7.9931  111.3426 H   0  0  0  0  0  0  0  0  0  0  0  0
   10.3718   -7.0713  109.1798 H   0  0  0  0  0  0  0  0  0  0  0  0
   13.1456   -7.7637  109.6199 H   0  0  0  0  0  0  0  0  0  0  0  0
   12.8176   -5.2580  107.9699 H   0  0  0  0  0  0  0  0  0  0  0  0
   12.8194   -5.0883  109.7857 H   0  0  0  0  0  0  0  0  0  0  0  0
    4.1242   -8.5451   99.7700 H   0  0  0  0  0  0  0  0  0  0  0  0
    3.6672  -10.2017  100.2489 H   0  0  0  0  0  0  0  0  0  0  0  0
   14.8856   -5.7519  109.8846 H   0  0  0  0  0  0  0  0  0  0  0  0
   11.9354   -8.5322  107.8446 H   0  0  0  0  0  0  0  0  0  0  0  0
   11.0941   -5.7265  111.4863 H   0  0  0  0  0  0  0  0  0  0  0  0
   11.3408   -7.8201  112.9645 H   0  0  0  0  0  0  0  0  0  0  0  0
    9.2202   -7.7304  108.4288 H   0  0  0  0  0  0  0  0  0  0  0  0
    7.0892   -6.6789  106.8109 H   0  0  0  0  0  0  0  0  0  0  0  0
  1  2  2  0
  1  4  1  0
  2 15  1  0
  3 15  1  0
  3 16  1  0
  3 18  2  0
  4 16  2  0
  4 17  1  0
  5  6  1  0
  5 15  1  0
  5 19  1  0
  6  7  1  0
  6 32  1  0
  7  8  1  0
  7 31  1  0
  8  9  1  0
  8 19  1  0
  9 20  1  0
 10 11  1  0
 10 26  1  0
 11 12  1  0
 11 30  1  0
 12 13  1  0
 12 29  1  0
 13 14  1  0
 13 28  1  0
 14 27  1  0
 20 33  1  0
 21 33  2  0
 33 22  1  1
 23 33  1  0
 23 34  1  0
 24 34  2  0
 34 25  1  1
 26 34  1  0
  1 35  1  0
  2 36  1  0
  5 37  1  6
  6 38  1  1
  7 39  1  1
  8 40  1  6
  9 41  1  0
  9 42  1  0
 10 43  1  0
 10 44  1  0
 11 45  1  1
 12 46  1  6
 13 47  1  1
 14 48  1  0
 14 49  1  0
 17 50  1  0
 17 51  1  0
 27 52  1  0
 28 53  1  0
 29 54  1  0
 30 55  1  0
 31 56  1  0
 32 57  1  0
M  CHG  2  22  -1  25  -1
M  END
>  <filename_input>  (9) 
6XHT_V2V_docked.sdf

>  <pdb_id>  (9) 
6XHT_V2V

>  <pose_rank>  (9) 
8

>  <num_atoms_heavy>  (9) 
34

>  <num_torsions>  (9) 
12

>  <pose>  (9) 
[7.447474615886643, -10.826007275896858, 108.91595973271335, 3.572980640509499, -0.15411203840139942, -4.413967340870851, 2.3997321074656757, 2.3393894722587354, 2.5921949854477644, 4.54994041012442, -5.0127460078399455, 1.0559080625618231, 2.3916864597633247, 2.4646523456502147, -0.5118296829549062, 6.367949663165583, -1.668026680828191, -0.6489268092526848]

>  <energy>  (9) 
-569.5352358862186

>  <inter_energy>  (9) 
-586.3778948570514

>  <intra_energy>  (9) 
20.824753722168108

>  <rmsd>  (9) 
8.57553

>  <sdf_rank>  (9) 
0

$$$$

     RDKit          3D

 57 58  0  0  0  0  0  0  0  0999 V2000
   13.6888   -2.2158  113.2430 C   0  0  0  0  0  0  0  0  0  0  0  0
   13.0367   -3.0844  112.2376 C   0  0  0  0  0  0  0  0  0  0  0  0
   11.5935   -4.1829  114.0463 C   0  0  0  0  0  0  0  0  0  0  0  0
   13.2561   -2.3714  114.6524 C   0  0  0  0  0  0  0  0  0  0  0  0
   11.3533   -4.8448  111.6246 C   0  0  2  0  0  0  0  0  0  0  0  0
   12.3845   -5.9777  111.2549 C   0  0  1  0  0  0  0  0  0  0  0  0
   11.3973   -7.0471  110.6218 C   0  0  1  0  0  0  0  0  0  0  0  0
   10.2520   -6.8593  111.2379 C   0  0  1  0  0  0  0  0  0  0  0  0
    9.9554   -7.9587  112.2451 C   0  0  0  0  0  0  0  0  0  0  0  0
    8.1652  -10.2861  106.2216 C   0  0  0  0  0  0  0  0  0  0  0  0
    7.2745   -9.2383  105.4414 C   0  0  2  0  0  0  0  0  0  0  0  0
    7.7281   -9.1661  104.0009 C   0  0  2  0  0  0  0  0  0  0  0  0
    6.8942  -10.0864  103.0602 C   0  0  2  0  0  0  0  0  0  0  0  0
    6.1809   -9.2242  102.0351 C   0  0  0  0  0  0  0  0  0  0  0  0
   12.0192   -4.0246  112.6487 N   0  0  0  0  0  0  0  0  0  0  0  0
   12.2435   -3.3262  115.0578 N   0  0  0  0  0  0  0  0  0  0  0  0
   13.8659   -1.5268  115.6626 N   0  0  0  0  0  0  0  0  0  0  0  0
   10.7374   -4.9728  114.3248 O   0  0  0  0  0  0  0  0  0  0  0  0
   10.3732   -5.4911  112.1648 O   0  0  0  0  0  0  0  0  0  0  0  0
    9.3598   -9.1003  111.6021 O   0  0  0  0  0  0  0  0  0  0  0  0
    7.5810   -7.5339  110.5389 O   0  0  0  0  0  0  0  0  0  0  0  0
    6.8811   -9.2146  112.2905 O   0  0  0  0  0  0  0  0  0  0  0  0
    7.4259  -10.0204  109.9355 O   0  0  0  0  0  0  0  0  0  0  0  0
    9.8935  -10.7261  109.3426 O   0  0  0  0  0  0  0  0  0  0  0  0
    7.9497  -12.0591  108.4005 O   0  0  0  0  0  0  0  0  0  0  0  0
    8.4571   -9.6780  107.4963 O   0  0  0  0  0  0  0  0  0  0  0  0
    5.6599   -9.9754  100.9356 O   0  0  0  0  0  0  0  0  0  0  0  0
    5.9158  -10.8748  103.7530 O   0  0  0  0  0  0  0  0  0  0  0  0
    9.1091   -9.4996  103.9678 O   0  0  0  0  0  0  0  0  0  0  0  0
    7.2865   -7.9640  106.0619 O   0  0  0  0  0  0  0  0  0  0  0  0
   11.2662   -6.7548  109.1673 O   0  0  0  0  0  0  0  0  0  0  0  0
   13.3188   -5.6028  110.3680 O   0  0  0  0  0  0  0  0  0  0  0  0
    7.7646   -8.8995  111.1123 P   0  0  2  0  0  0  0  0  0  0  0  0
    8.4535  -10.6733  108.8086 P   0  0  1  0  0  0  0  0  0  0  0  0
   14.4609   -1.4864  112.9569 H   0  0  0  0  0  0  0  0  0  0  0  0
   13.3263   -3.0145  111.1787 H   0  0  0  0  0  0  0  0  0  0  0  0
   11.0211   -4.2144  110.7866 H   0  0  0  0  0  0  0  0  0  0  0  0
   12.9865   -6.3145  112.1117 H   0  0  0  0  0  0  0  0  0  0  0  0
   11.7435   -8.0853  110.7333 H   0  0  0  0  0  0  0  0  0  0  0  0
    9.4764   -6.8176  110.4589 H   0  0  0  0  0  0  0  0  0  0  0  0
   10.8945   -8.2670  112.7279 H   0  0  0  0  0  0  0  0  0  0  0  0
    9.2483   -7.5684  112.9918 H   0  0  0  0  0  0  0  0  0  0  0  0
    7.6144  -11.2277  106.3631 H   0  0  0  0  0  0  0  0  0  0  0  0
    9.0841  -10.5295  105.6682 H   0  0  0  0  0  0  0  0  0  0  0  0
    6.2289   -9.5791  105.4671 H   0  0  0  0  0  0  0  0  0  0  0  0
    7.5686   -8.1464  103.6207 H   0  0  0  0  0  0  0  0  0  0  0  0
    7.6011  -10.7849  102.5888 H   0  0  0  0  0  0  0  0  0  0  0  0
    5.3471   -8.7069  102.5321 H   0  0  0  0  0  0  0  0  0  0  0  0
    6.9202   -8.5182  101.6289 H   0  0  0  0  0  0  0  0  0  0  0  0
   13.5818   -1.6163  116.6486 H   0  0  0  0  0  0  0  0  0  0  0  0
   14.5827   -0.8378  115.3937 H   0  0  0  0  0  0  0  0  0  0  0  0
    5.1306  -10.7384  101.2785 H   0  0  0  0  0  0  0  0  0  0  0  0
    6.0417  -10.7733  104.7297 H   0  0  0  0  0  0  0  0  0  0  0  0
    9.4509   -9.5822  104.8932 H   0  0  0  0  0  0  0  0  0  0  0  0
    7.2854   -8.0760  107.0456 H   0  0  0  0  0  0  0  0  0  0  0  0
   10.8639   -5.8584  109.0458 H   0  0  0  0  0  0  0  0  0  0  0  0
   14.1212   -5.2809  110.8502 H   0  0  0  0  0  0  0  0  0  0  0  0
  1  2  2  0
  1  4  1  0
  2 15  1  0
  3 15  1  0
  3 16  1  0
  3 18  2  0
  4 16  2  0
  4 17  1  0
  5  6  1  0
  5 15  1  0
  5 19  1  0
  6  7  1  0
  6 32  1  0
  7  8  1  0
  7 31  1  0
  8  9  1  0
  8 19  1  0
  9 20  1  0
 10 11  1  0
 10 26  1  0
 11 12  1  0
 11 30  1  0
 12 13  1  0
 12 29  1  0
 13 14  1  0
 13 28  1  0
 14 27  1  0
 20 33  1  0
 21 33  2  0
 33 22  1  1
 23 33  1  0
 23 34  1  0
 24 34  2  0
 34 25  1  6
 26 34  1  0
  1 35  1  0
  2 36  1  0
  5 37  1  6
  6 38  1  1
  7 39  1  6
  8 40  1  6
  9 41  1  0
  9 42  1  0
 10 43  1  0
 10 44  1  0
 11 45  1  6
 12 46  1  6
 13 47  1  6
 14 48  1  0
 14 49  1  0
 17 50  1  0
 17 51  1  0
 27 52  1  0
 28 53  1  0
 29 54  1  0
 30 55  1  0
 31 56  1  0
 32 57  1  0
M  CHG  2  22  -1  25  -1
M  END
>  <filename_input>  (10) 
6XHT_V2V_docked.sdf

>  <pdb_id>  (10) 
6XHT_V2V

>  <pose_rank>  (10) 
9

>  <num_atoms_heavy>  (10) 
34

>  <num_torsions>  (10) 
12

>  <pose>  (10) 
[9.359793423978145, -9.100280220233406, 111.6020531206658, -3.4569328018509, -1.2102770690998552, 1.1213794710637037, -8.696367928854375, -5.577390928049104, -4.255571034923483, -1.200424134737673, 5.815406255737482, -7.259854375385948, -1.4525861585777629, 0.5460262644886947, 6.136361048304551, 1.4297235498439786, -2.522203326733702, -3.946617960109333]

>  <energy>  (10) 
-446.13026215298436

>  <inter_energy>  (10) 
-527.5592691060626

>  <intra_energy>  (10) 
73.84664152626037

>  <rmsd>  (10) 
3.62736

>  <sdf_rank>  (10) 
0

$$$$

     RDKit          3D

 57 58  0  0  0  0  0  0  0  0999 V2000
    6.0464  -10.5501  101.7936 C   0  0  0  0  0  0  0  0  0  0  0  0
    6.7060  -10.7445  103.1042 C   0  0  0  0  0  0  0  0  0  0  0  0
    6.4325   -8.2611  103.6689 C   0  0  0  0  0  0  0  0  0  0  0  0
    5.5947   -9.1776  101.4618 C   0  0  0  0  0  0  0  0  0  0  0  0
    7.4929   -9.8501  105.3154 C   0  0  2  0  0  0  0  0  0  0  0  0
    8.8841   -9.1116  105.2623 C   0  0  1  0  0  0  0  0  0  0  0  0
    9.1663   -8.9525  106.8160 C   0  0  1  0  0  0  0  0  0  0  0  0
    7.9780   -8.8699  107.3708 C   0  0  1  0  0  0  0  0  0  0  0  0
    7.6516   -7.4547  107.8198 C   0  0  0  0  0  0  0  0  0  0  0  0
    9.2179   -4.0867  113.0149 C   0  0  0  0  0  0  0  0  0  0  0  0
   10.4891   -4.0604  113.9548 C   0  0  2  0  0  0  0  0  0  0  0  0
   11.7400   -3.9996  113.1078 C   0  0  2  0  0  0  0  0  0  0  0  0
   11.9257   -2.6210  112.4062 C   0  0  2  0  0  0  0  0  0  0  0  0
   12.2835   -2.8547  110.9502 C   0  0  0  0  0  0  0  0  0  0  0  0
    6.8755   -9.6228  103.9993 N   0  0  0  0  0  0  0  0  0  0  0  0
    5.7803   -8.0555  102.3605 N   0  0  0  0  0  0  0  0  0  0  0  0
    4.9329   -8.9535  100.1900 N   0  0  0  0  0  0  0  0  0  0  0  0
    6.5918   -7.3729  104.4563 O   0  0  0  0  0  0  0  0  0  0  0  0
    6.8359   -9.1952  106.2151 O   0  0  0  0  0  0  0  0  0  0  0  0
    8.0236   -7.2514  109.1953 O   0  0  0  0  0  0  0  0  0  0  0  0
    6.9973   -9.3257  110.3749 O   0  0  0  0  0  0  0  0  0  0  0  0
    5.5749   -7.2732  109.9918 O   0  0  0  0  0  0  0  0  0  0  0  0
    7.3462   -7.2396  111.8230 O   0  0  0  0  0  0  0  0  0  0  0  0
    7.1859   -4.6816  111.2152 O   0  0  0  0  0  0  0  0  0  0  0  0
    5.9883   -5.5561  113.2752 O   0  0  0  0  0  0  0  0  0  0  0  0
    8.5775   -5.3554  113.2597 O   0  0  0  0  0  0  0  0  0  0  0  0
   13.5713   -2.3414  110.5997 O   0  0  0  0  0  0  0  0  0  0  0  0
   12.9482   -1.8100  113.0026 O   0  0  0  0  0  0  0  0  0  0  0  0
   11.6727   -5.0605  112.1648 O   0  0  0  0  0  0  0  0  0  0  0  0
   10.5115   -5.1596  114.8494 O   0  0  0  0  0  0  0  0  0  0  0  0
    9.8824  -10.1710  107.2855 O   0  0  0  0  0  0  0  0  0  0  0  0
    9.8585   -9.8162  104.6672 O   0  0  0  0  0  0  0  0  0  0  0  0
    6.9304   -7.8355  110.3304 P   0  0  2  0  0  0  0  0  0  0  0  0
    7.2233   -5.6821  112.3810 P   0  0  1  0  0  0  0  0  0  0  0  0
    5.8978  -11.3875  101.0960 H   0  0  0  0  0  0  0  0  0  0  0  0
    7.0668  -11.7417  103.3965 H   0  0  0  0  0  0  0  0  0  0  0  0
    7.5361  -10.9268  105.5364 H   0  0  0  0  0  0  0  0  0  0  0  0
    8.8619   -8.1840  104.6715 H   0  0  0  0  0  0  0  0  0  0  0  0
    9.7826   -8.0756  107.0634 H   0  0  0  0  0  0  0  0  0  0  0  0
    7.9776   -9.5649  108.2235 H   0  0  0  0  0  0  0  0  0  0  0  0
    8.2021   -6.7412  107.1890 H   0  0  0  0  0  0  0  0  0  0  0  0
    6.5672   -7.2977  107.7231 H   0  0  0  0  0  0  0  0  0  0  0  0
    8.5381   -3.2592  113.2660 H   0  0  0  0  0  0  0  0  0  0  0  0
    9.4933   -3.9686  111.9565 H   0  0  0  0  0  0  0  0  0  0  0  0
   10.4421   -3.1584  114.5828 H   0  0  0  0  0  0  0  0  0  0  0  0
   12.6224   -4.1141  113.7545 H   0  0  0  0  0  0  0  0  0  0  0  0
   10.9752   -2.0779  112.5135 H   0  0  0  0  0  0  0  0  0  0  0  0
   12.2737   -3.9375  110.7567 H   0  0  0  0  0  0  0  0  0  0  0  0
   11.5403   -2.3205  110.3400 H   0  0  0  0  0  0  0  0  0  0  0  0
    4.6100   -8.0087   99.9369 H   0  0  0  0  0  0  0  0  0  0  0  0
    4.7860   -9.7392   99.5404 H   0  0  0  0  0  0  0  0  0  0  0  0
   14.0810   -2.1383  111.4237 H   0  0  0  0  0  0  0  0  0  0  0  0
   12.8794   -1.8645  113.9887 H   0  0  0  0  0  0  0  0  0  0  0  0
   11.6178   -5.9250  112.6441 H   0  0  0  0  0  0  0  0  0  0  0  0
   10.5047   -4.8266  115.7816 H   0  0  0  0  0  0  0  0  0  0  0  0
    9.8920  -10.1873  108.2754 H   0  0  0  0  0  0  0  0  0  0  0  0
   10.4336  -10.2321  105.3574 H   0  0  0  0  0  0  0  0  0  0  0  0
  1  2  2  0
  1  4  1  0
  2 15  1  0
  3 15  1  0
  3 16  1  0
  3 18  2  0
  4 16  2  0
  4 17  1  0
  5  6  1  0
  5 15  1  0
  5 19  1  0
  6  7  1  0
  6 32  1  0
  7  8  1  0
  7 31  1  0
  8  9  1  0
  8 19  1  0
  9 20  1  0
 10 11  1  0
 10 26  1  0
 11 12  1  0
 11 30  1  0
 12 13  1  0
 12 29  1  0
 13 14  1  0
 13 28  1  0
 14 27  1  0
 20 33  1  0
 21 33  2  0
 33 22  1  6
 23 33  1  0
 23 34  1  0
 24 34  2  0
 34 25  1  1
 26 34  1  0
  1 35  1  0
  2 36  1  0
  5 37  1  1
  6 38  1  6
  7 39  1  6
  8 40  1  1
  9 41  1  0
  9 42  1  0
 10 43  1  0
 10 44  1  0
 11 45  1  1
 12 46  1  1
 13 47  1  6
 14 48  1  0
 14 49  1  0
 17 50  1  0
 17 51  1  0
 27 52  1  0
 28 53  1  0
 29 54  1  0
 30 55  1  0
 31 56  1  0
 32 57  1  0
M  CHG  2  22  -1  25  -1
M  END
>  <filename_input>  (11) 
6XHT_V2V_docked.sdf

>  <pdb_id>  (11) 
6XHT_V2V

>  <pose_rank>  (11) 
10

>  <num_atoms_heavy>  (11) 
34

>  <num_torsions>  (11) 
12

>  <pose>  (11) 
[8.023572292623438, -7.251380097348005, 109.19525778936354, -0.1447227036516489, 0.4205627528831492, -0.7462253516239123, 4.443078002851351, 2.4788043876914996, 1.1198963744296517, -2.927045065490638, 0.23239224417937449, -1.3428292746647454, -1.8787941380334972, -3.837793157763464, 1.1884571134456887, 26.42849481079638, 35.01385215687914, 9.231356364005393]

>  <energy>  (11) 
-607.7199046416822

>  <inter_energy>  (11) 
-634.4085256233498

>  <intra_energy>  (11) 
39.10890049134139

>  <rmsd>  (11) 
9.59998

>  <sdf_rank>  (11) 
0

$$$$

     RDKit          3D

 57 58  0  0  0  0  0  0  0  0999 V2000
    7.6687   -8.6673  103.4963 C   0  0  0  0  0  0  0  0  0  0  0  0
    8.2289   -8.6091  104.8651 C   0  0  0  0  0  0  0  0  0  0  0  0
    7.3057  -10.9382  105.3980 C   0  0  0  0  0  0  0  0  0  0  0  0
    6.9251   -9.8942  103.1225 C   0  0  0  0  0  0  0  0  0  0  0  0
    8.6522   -9.6615  107.1060 C   0  0  2  0  0  0  0  0  0  0  0  0
    9.4259   -8.2895  107.1561 C   0  0  1  0  0  0  0  0  0  0  0  0
    9.5339   -8.0961  108.7277 C   0  0  1  0  0  0  0  0  0  0  0  0
    8.4739   -8.6981  109.2181 C   0  0  1  0  0  0  0  0  0  0  0  0
    7.4230   -7.7096  109.6973 C   0  0  0  0  0  0  0  0  0  0  0  0
    4.0019   -4.1512  113.6897 C   0  0  0  0  0  0  0  0  0  0  0  0
    4.0729   -3.4848  115.1218 C   0  0  2  0  0  0  0  0  0  0  0  0
    3.9413   -1.9848  114.9860 C   0  0  2  0  0  0  0  0  0  0  0  0
    3.5306   -1.2930  116.3201 C   0  0  2  0  0  0  0  0  0  0  0  0
    4.7761   -0.7501  116.9960 C   0  0  0  0  0  0  0  0  0  0  0  0
    8.0470   -9.7240  105.7664 N   0  0  0  0  0  0  0  0  0  0  0  0
    6.7365  -11.0026  104.0374 N   0  0  0  0  0  0  0  0  0  0  0  0
    6.3730   -9.9900  101.7839 N   0  0  0  0  0  0  0  0  0  0  0  0
    7.1964  -11.8340  106.1854 O   0  0  0  0  0  0  0  0  0  0  0  0
    7.7207   -9.5170  107.9900 O   0  0  0  0  0  0  0  0  0  0  0  0
    7.9657   -6.3791  109.7787 O   0  0  0  0  0  0  0  0  0  0  0  0
    9.8614   -5.2507  111.1502 O   0  0  0  0  0  0  0  0  0  0  0  0
    8.5467   -7.1549  112.1644 O   0  0  0  0  0  0  0  0  0  0  0  0
    7.4643   -4.8566  111.9683 O   0  0  0  0  0  0  0  0  0  0  0  0
    5.2812   -4.4361  110.5555 O   0  0  0  0  0  0  0  0  0  0  0  0
    5.3194   -6.3032  112.2746 O   0  0  0  0  0  0  0  0  0  0  0  0
    5.2494   -3.8239  113.0445 O   0  0  0  0  0  0  0  0  0  0  0  0
    5.3245    0.3897  116.3292 O   0  0  0  0  0  0  0  0  0  0  0  0
    2.8607   -2.1712  117.2360 O   0  0  0  0  0  0  0  0  0  0  0  0
    2.9999   -1.7276  113.9530 O   0  0  0  0  0  0  0  0  0  0  0  0
    5.2515   -3.8492  115.8197 O   0  0  0  0  0  0  0  0  0  0  0  0
   10.7808   -8.7642  109.1937 O   0  0  0  0  0  0  0  0  0  0  0  0
   10.6427   -8.3233  106.5920 O   0  0  0  0  0  0  0  0  0  0  0  0
    8.5385   -5.9268  111.2926 P   0  0  2  0  0  0  0  0  0  0  0  0
    5.8063   -4.8956  111.9246 P   0  0  1  0  0  0  0  0  0  0  0  0
    7.7984   -7.8364  102.7873 H   0  0  0  0  0  0  0  0  0  0  0  0
    8.7830   -7.7184  105.1958 H   0  0  0  0  0  0  0  0  0  0  0  0
    9.2633  -10.5572  107.2915 H   0  0  0  0  0  0  0  0  0  0  0  0
    8.9234   -7.4860  106.5977 H   0  0  0  0  0  0  0  0  0  0  0  0
    9.5724   -7.0419  109.0394 H   0  0  0  0  0  0  0  0  0  0  0  0
    8.8245   -9.3335  110.0447 H   0  0  0  0  0  0  0  0  0  0  0  0
    6.5792   -7.7114  108.9916 H   0  0  0  0  0  0  0  0  0  0  0  0
    7.0875   -8.0133  110.6999 H   0  0  0  0  0  0  0  0  0  0  0  0
    3.8911   -5.2419  113.7793 H   0  0  0  0  0  0  0  0  0  0  0  0
    3.1390   -3.7851  113.1141 H   0  0  0  0  0  0  0  0  0  0  0  0
    3.2337   -3.8610  115.7254 H   0  0  0  0  0  0  0  0  0  0  0  0
    4.9214   -1.5561  114.7298 H   0  0  0  0  0  0  0  0  0  0  0  0
    2.8227   -0.4925  116.0595 H   0  0  0  0  0  0  0  0  0  0  0  0
    4.5184   -0.4628  118.0261 H   0  0  0  0  0  0  0  0  0  0  0  0
    5.5370   -1.5440  116.9680 H   0  0  0  0  0  0  0  0  0  0  0  0
    5.8524  -10.8324  101.5006 H   0  0  0  0  0  0  0  0  0  0  0  0
    6.5018   -9.2156  101.1171 H   0  0  0  0  0  0  0  0  0  0  0  0
    5.6398    1.0450  117.0010 H   0  0  0  0  0  0  0  0  0  0  0  0
    3.0680   -1.8994  118.1652 H   0  0  0  0  0  0  0  0  0  0  0  0
    2.1268   -1.4890  114.3541 H   0  0  0  0  0  0  0  0  0  0  0  0
    5.0869   -3.7983  116.7946 H   0  0  0  0  0  0  0  0  0  0  0  0
   10.7996   -8.7743  110.1834 H   0  0  0  0  0  0  0  0  0  0  0  0
   11.3343   -8.3426  107.3002 H   0  0  0  0  0  0  0  0  0  0  0  0
  1  2  2  0
  1  4  1  0
  2 15  1  0
  3 15  1  0
  3 16  1  0
  3 18  2  0
  4 16  2  0
  4 17  1  0
  5  6  1  0
  5 15  1  0
  5 19  1  0
  6  7  1  0
  6 32  1  0
  7  8  1  0
  7 31  1  0
  8  9  1  0
  8 19  1  0
  9 20  1  0
 10 11  1  0
 10 26  1  0
 11 12  1  0
 11 30  1  0
 12 13  1  0
 12 29  1  0
 13 14  1  0
 13 28  1  0
 14 27  1  0
 20 33  1  0
 21 33  2  0
 33 22  1  1
 23 33  1  0
 23 34  1  0
 24 34  2  0
 34 25  1  1
 26 34  1  0
  1 35  1  0
  2 36  1  0
  5 37  1  1
  6 38  1  6
  7 39  1  6
  8 40  1  1
  9 41  1  0
  9 42  1  0
 10 43  1  0
 10 44  1  0
 11 45  1  1
 12 46  1  6
 13 47  1  6
 14 48  1  0
 14 49  1  0
 17 50  1  0
 17 51  1  0
 27 52  1  0
 28 53  1  0
 29 54  1  0
 30 55  1  0
 31 56  1  0
 32 57  1  0
M  CHG  2  22  -1  25  -1
M  END
>  <filename_input>  (12) 
6XHT_V2V_docked.sdf

>  <pdb_id>  (12) 
6XHT_V2V

>  <pose_rank>  (12) 
11

>  <num_atoms_heavy>  (12) 
34

>  <num_torsions>  (12) 
12

>  <pose>  (12) 
[7.965736400296684, -6.379078968143619, 109.77865539169146, -1.367873863982766, 0.9100578127620894, 0.006082912618488839, -0.7590849612198795, 1.948475691879897, 0.17610165751697865, -1.5776875497708216, -0.2952932924109408, 4.1606159589841125, -0.30496598444746303, 0.19998787336511642, -1.7844674563359857, 1.0487239284751049, 4.989167859660092, 0.9627309263598798]

>  <energy>  (12) 
-407.331993261238

>  <inter_energy>  (12) 
-437.81538096489317

>  <intra_energy>  (12) 
30.322489447028648

>  <rmsd>  (12) 
10.2595

>  <sdf_rank>  (12) 
0

$$$$

     RDKit          3D

 57 58  0  0  0  0  0  0  0  0999 V2000
    8.3554   -6.8311  114.0233 C   0  0  0  0  0  0  0  0  0  0  0  0
    8.3931   -7.6346  112.7808 C   0  0  0  0  0  0  0  0  0  0  0  0
    6.1593   -6.6452  112.0114 C   0  0  0  0  0  0  0  0  0  0  0  0
    7.1852   -5.9419  114.2172 C   0  0  0  0  0  0  0  0  0  0  0  0
    7.4046   -8.2972  110.5689 C   0  0  2  0  0  0  0  0  0  0  0  0
    8.1582   -7.3670  109.5441 C   0  0  1  0  0  0  0  0  0  0  0  0
    8.6586   -8.4574  108.5051 C   0  0  1  0  0  0  0  0  0  0  0  0
    8.8212   -9.5524  109.2131 C   0  0  1  0  0  0  0  0  0  0  0  0
   10.2889   -9.8683  109.4520 C   0  0  0  0  0  0  0  0  0  0  0  0
   13.6928   -5.4481  107.8318 C   0  0  0  0  0  0  0  0  0  0  0  0
   13.6116   -3.8772  107.9919 C   0  0  2  0  0  0  0  0  0  0  0  0
   13.3471   -3.5320  109.4399 C   0  0  2  0  0  0  0  0  0  0  0  0
   12.0041   -4.1226  109.9641 C   0  0  2  0  0  0  0  0  0  0  0  0
   11.7242   -3.5576  111.3444 C   0  0  0  0  0  0  0  0  0  0  0  0
    7.3220   -7.5227  111.8172 N   0  0  0  0  0  0  0  0  0  0  0  0
    6.1087   -5.8454  113.2512 N   0  0  0  0  0  0  0  0  0  0  0  0
    7.1220   -5.1305  115.4186 N   0  0  0  0  0  0  0  0  0  0  0  0
    5.3070   -6.5875  111.1719 O   0  0  0  0  0  0  0  0  0  0  0  0
    8.2173   -9.2884  110.7334 O   0  0  0  0  0  0  0  0  0  0  0  0
   11.1022   -8.6915  109.2932 O   0  0  0  0  0  0  0  0  0  0  0  0
   12.9709  -10.2504  110.2019 O   0  0  0  0  0  0  0  0  0  0  0  0
   12.8655   -7.8454  110.9683 O   0  0  0  0  0  0  0  0  0  0  0  0
   13.7125   -8.3716  108.6236 O   0  0  0  0  0  0  0  0  0  0  0  0
   15.8601   -7.7910  110.0340 O   0  0  0  0  0  0  0  0  0  0  0  0
   15.9739   -7.7328  107.4990 O   0  0  0  0  0  0  0  0  0  0  0  0
   14.6785   -5.8877  108.7882 O   0  0  0  0  0  0  0  0  0  0  0  0
   11.4208   -4.5656  112.3122 O   0  0  0  0  0  0  0  0  0  0  0  0
   12.0048   -5.5549  110.0492 O   0  0  0  0  0  0  0  0  0  0  0  0
   13.3756   -2.1160  109.5565 O   0  0  0  0  0  0  0  0  0  0  0  0
   12.6443   -3.3043  107.1286 O   0  0  0  0  0  0  0  0  0  0  0  0
    7.5941   -8.6466  107.4809 O   0  0  0  0  0  0  0  0  0  0  0  0
    7.3730   -6.4585  108.9456 O   0  0  0  0  0  0  0  0  0  0  0  0
   12.6842   -8.8303  109.8435 P   0  0  2  0  0  0  0  0  0  0  0  0
   15.1056   -7.4774  108.7325 P   0  0  1  0  0  0  0  0  0  0  0  0
    9.1607   -6.8911  114.7702 H   0  0  0  0  0  0  0  0  0  0  0  0
    9.2355   -8.3161  112.5911 H   0  0  0  0  0  0  0  0  0  0  0  0
    6.4032   -8.6304  110.2589 H   0  0  0  0  0  0  0  0  0  0  0  0
    8.9348   -6.7439  110.0117 H   0  0  0  0  0  0  0  0  0  0  0  0
    9.5876   -8.1772  107.9868 H   0  0  0  0  0  0  0  0  0  0  0  0
    8.3276  -10.3642  108.6587 H   0  0  0  0  0  0  0  0  0  0  0  0
   10.4118  -10.2552  110.4744 H   0  0  0  0  0  0  0  0  0  0  0  0
   10.6105  -10.6187  108.7148 H   0  0  0  0  0  0  0  0  0  0  0  0
   12.7167   -5.9066  108.0488 H   0  0  0  0  0  0  0  0  0  0  0  0
   13.9648   -5.7380  106.8062 H   0  0  0  0  0  0  0  0  0  0  0  0
   14.5782   -3.4442  107.6952 H   0  0  0  0  0  0  0  0  0  0  0  0
   14.1261   -3.9864  110.0697 H   0  0  0  0  0  0  0  0  0  0  0  0
   11.2267   -3.8397  109.2392 H   0  0  0  0  0  0  0  0  0  0  0  0
   12.6123   -3.0036  111.6826 H   0  0  0  0  0  0  0  0  0  0  0  0
   10.8408   -2.9076  111.2598 H   0  0  0  0  0  0  0  0  0  0  0  0
    6.3191   -4.5049  115.5759 H   0  0  0  0  0  0  0  0  0  0  0  0
    7.8801   -5.1802  116.1141 H   0  0  0  0  0  0  0  0  0  0  0  0
   11.5329   -4.1933  113.2226 H   0  0  0  0  0  0  0  0  0  0  0  0
   12.0049   -5.8290  111.0005 H   0  0  0  0  0  0  0  0  0  0  0  0
   13.3807   -1.8638  110.5138 H   0  0  0  0  0  0  0  0  0  0  0  0
   11.9300   -2.8812  107.6679 H   0  0  0  0  0  0  0  0  0  0  0  0
    6.7262   -8.8009  107.9316 H   0  0  0  0  0  0  0  0  0  0  0  0
    6.9076   -5.9201  109.6337 H   0  0  0  0  0  0  0  0  0  0  0  0
  1  2  2  0
  1  4  1  0
  2 15  1  0
  3 15  1  0
  3 16  1  0
  3 18  2  0
  4 16  2  0
  4 17  1  0
  5  6  1  0
  5 15  1  0
  5 19  1  0
  6  7  1  0
  6 32  1  0
  7  8  1  0
  7 31  1  0
  8  9  1  0
  8 19  1  0
  9 20  1  0
 10 11  1  0
 10 26  1  0
 11 12  1  0
 11 30  1  0
 12 13  1  0
 12 29  1  0
 13 14  1  0
 13 28  1  0
 14 27  1  0
 20 33  1  0
 21 33  2  0
 33 22  1  1
 23 33  1  0
 23 34  1  0
 24 34  2  0
 34 25  1  6
 26 34  1  0
  1 35  1  0
  2 36  1  0
  5 37  1  6
  6 38  1  1
  7 39  1  6
  8 40  1  6
  9 41  1  0
  9 42  1  0
 10 43  1  0
 10 44  1  0
 11 45  1  6
 12 46  1  1
 13 47  1  6
 14 48  1  0
 14 49  1  0
 17 50  1  0
 17 51  1  0
 27 52  1  0
 28 53  1  0
 29 54  1  0
 30 55  1  0
 31 56  1  0
 32 57  1  0
M  CHG  2  22  -1  25  -1
M  END
>  <filename_input>  (13) 
6XHT_V2V_docked.sdf

>  <pdb_id>  (13) 
6XHT_V2V

>  <pose_rank>  (13) 
12

>  <num_atoms_heavy>  (13) 
34

>  <num_torsions>  (13) 
12

>  <pose>  (13) 
[11.102229923932724, -8.691494610027291, 109.29323733970578, 1.9972132841841737, -3.5459661954009953, -1.1978690705323252, -2.966018016343956, 3.6936400809465324, -10.43764357991775, 0.199746837168077, 0.32693236538657827, 1.9646452322549957, 2.1106361738912574, 1.7811429719205827, 0.9915150720609116, 5.627382832796107, 5.589068810440856, 5.7099317284755635]

>  <energy>  (13) 
-436.82896404086165

>  <inter_energy>  (13) 
-500.03066890905245

>  <intra_energy>  (13) 
65.37090628334255

>  <rmsd>  (13) 
7.86283

>  <sdf_rank>  (13) 
0

$$$$

     RDKit          3D

 57 58  0  0  0  0  0  0  0  0999 V2000
   11.4564   -4.6033  111.2019 C   0  0  0  0  0  0  0  0  0  0  0  0
   11.8963   -5.3250  109.9868 C   0  0  0  0  0  0  0  0  0  0  0  0
   13.2554   -3.2972  109.2112 C   0  0  0  0  0  0  0  0  0  0  0  0
   11.9462   -3.2151  111.3773 C   0  0  0  0  0  0  0  0  0  0  0  0
   13.2337   -5.4288  107.8634 C   0  0  2  0  0  0  0  0  0  0  0  0
   14.0216   -6.6673  108.4369 C   0  0  1  0  0  0  0  0  0  0  0  0
   13.9649   -7.6317  107.1777 C   0  0  1  0  0  0  0  0  0  0  0  0
   12.8483   -7.3189  106.5597 C   0  0  1  0  0  0  0  0  0  0  0  0
   11.7698   -8.3723  106.7553 C   0  0  0  0  0  0  0  0  0  0  0  0
   12.6544   -9.9255  111.7934 C   0  0  0  0  0  0  0  0  0  0  0  0
   13.8300   -9.2023  111.0221 C   0  0  2  0  0  0  0  0  0  0  0  0
   14.9907  -10.1581  110.8637 C   0  0  2  0  0  0  0  0  0  0  0  0
   15.7940  -10.3540  112.1842 C   0  0  2  0  0  0  0  0  0  0  0  0
   15.9186  -11.8395  112.4681 C   0  0  0  0  0  0  0  0  0  0  0  0
   12.7736   -4.6750  109.0403 N   0  0  0  0  0  0  0  0  0  0  0  0
   12.8160   -2.5663  110.4162 N   0  0  0  0  0  0  0  0  0  0  0  0
   11.5445   -2.4825  112.5637 N   0  0  0  0  0  0  0  0  0  0  0  0
   13.9895   -2.8151  108.3969 O   0  0  0  0  0  0  0  0  0  0  0  0
   12.2160   -5.9634  107.2731 O   0  0  0  0  0  0  0  0  0  0  0  0
   11.3108   -8.3933  108.1193 O   0  0  0  0  0  0  0  0  0  0  0  0
    9.0582   -9.1096  107.0423 O   0  0  0  0  0  0  0  0  0  0  0  0
    9.0825   -8.1833  109.3926 O   0  0  0  0  0  0  0  0  0  0  0  0
    9.9142  -10.5557  108.9779 O   0  0  0  0  0  0  0  0  0  0  0  0
   10.0540  -11.8463  111.2700 O   0  0  0  0  0  0  0  0  0  0  0  0
   12.0268  -11.9119  109.6742 O   0  0  0  0  0  0  0  0  0  0  0  0
   11.4787   -9.7351  110.9803 O   0  0  0  0  0  0  0  0  0  0  0  0
   16.0969  -12.6234  111.2856 O   0  0  0  0  0  0  0  0  0  0  0  0
   15.1876   -9.7218  113.3206 O   0  0  0  0  0  0  0  0  0  0  0  0
   15.8165   -9.6624  109.8188 O   0  0  0  0  0  0  0  0  0  0  0  0
   14.2222   -7.9984  111.6592 O   0  0  0  0  0  0  0  0  0  0  0  0
   15.1431   -7.3394  106.3149 O   0  0  0  0  0  0  0  0  0  0  0  0
   15.2908   -6.4007  108.7804 O   0  0  0  0  0  0  0  0  0  0  0  0
    9.7708   -9.0253  108.3508 P   0  0  2  0  0  0  0  0  0  0  0  0
   10.8753  -11.0705  110.2283 P   0  0  1  0  0  0  0  0  0  0  0  0
   10.7948   -5.0764  111.9425 H   0  0  0  0  0  0  0  0  0  0  0  0
   11.5557   -6.3550  109.8046 H   0  0  0  0  0  0  0  0  0  0  0  0
   13.8057   -4.7738  107.1897 H   0  0  0  0  0  0  0  0  0  0  0  0
   13.5956   -7.0586  109.3725 H   0  0  0  0  0  0  0  0  0  0  0  0
   13.9885   -8.6996  107.4403 H   0  0  0  0  0  0  0  0  0  0  0  0
   13.0977   -7.2019  105.4947 H   0  0  0  0  0  0  0  0  0  0  0  0
   10.9210   -8.1453  106.0936 H   0  0  0  0  0  0  0  0  0  0  0  0
   12.1944   -9.3577  106.5132 H   0  0  0  0  0  0  0  0  0  0  0  0
   12.8726  -10.9976  111.9069 H   0  0  0  0  0  0  0  0  0  0  0  0
   12.5193   -9.5146  112.8047 H   0  0  0  0  0  0  0  0  0  0  0  0
   13.4693   -8.9143  110.0237 H   0  0  0  0  0  0  0  0  0  0  0  0
   14.6065  -11.1572  110.6103 H   0  0  0  0  0  0  0  0  0  0  0  0
   16.7756   -9.8809  112.0335 H   0  0  0  0  0  0  0  0  0  0  0  0
   16.7846  -11.9985  113.1274 H   0  0  0  0  0  0  0  0  0  0  0  0
   14.9782  -12.1636  112.9378 H   0  0  0  0  0  0  0  0  0  0  0  0
   11.8719   -1.5166  112.7080 H   0  0  0  0  0  0  0  0  0  0  0  0
   10.9320   -2.9283  113.2615 H   0  0  0  0  0  0  0  0  0  0  0  0
   16.3093  -13.5570  111.5376 H   0  0  0  0  0  0  0  0  0  0  0  0
   15.5599  -10.1098  114.1518 H   0  0  0  0  0  0  0  0  0  0  0  0
   16.5966   -9.1940  110.2088 H   0  0  0  0  0  0  0  0  0  0  0  0
   14.1835   -8.1170  112.6413 H   0  0  0  0  0  0  0  0  0  0  0  0
   15.9290   -7.1444  106.8845 H   0  0  0  0  0  0  0  0  0  0  0  0
   15.3691   -6.3842  109.7672 H   0  0  0  0  0  0  0  0  0  0  0  0
  1  2  2  0
  1  4  1  0
  2 15  1  0
  3 15  1  0
  3 16  1  0
  3 18  2  0
  4 16  2  0
  4 17  1  0
  5  6  1  0
  5 15  1  0
  5 19  1  0
  6  7  1  0
  6 32  1  0
  7  8  1  0
  7 31  1  0
  8  9  1  0
  8 19  1  0
  9 20  1  0
 10 11  1  0
 10 26  1  0
 11 12  1  0
 11 30  1  0
 12 13  1  0
 12 29  1  0
 13 14  1  0
 13 28  1  0
 14 27  1  0
 20 33  1  0
 21 33  2  0
 33 22  1  1
 23 33  1  0
 23 34  1  0
 24 34  2  0
 34 25  1  6
 26 34  1  0
  1 35  1  0
  2 36  1  0
  5 37  1  6
  6 38  1  1
  7 39  1  1
  8 40  1  6
  9 41  1  0
  9 42  1  0
 10 43  1  0
 10 44  1  0
 11 45  1  6
 12 46  1  6
 13 47  1  6
 14 48  1  0
 14 49  1  0
 17 50  1  0
 17 51  1  0
 27 52  1  0
 28 53  1  0
 29 54  1  0
 30 55  1  0
 31 56  1  0
 32 57  1  0
M  CHG  2  22  -1  25  -1
M  END
>  <filename_input>  (14) 
6XHT_V2V_docked.sdf

>  <pdb_id>  (14) 
6XHT_V2V

>  <pose_rank>  (14) 
13

>  <num_atoms_heavy>  (14) 
34

>  <num_torsions>  (14) 
12

>  <pose>  (14) 
[11.31083935968891, -8.393275897686955, 108.11929170822435, 0.23535557038935198, -0.08088740182676124, -0.7607108063649042, -3.3746523563342667, -4.216475592777737, -8.816919782466599, -1.794100220920497, 5.275814772753207, 0.6678298984325829, 1.8486753576492783, 0.7270211426334092, -2.3891878754971496, 5.437508545838501, 0.13572040228300578, -0.06044142479811484]

>  <energy>  (14) 
-561.0944347778918

>  <inter_energy>  (14) 
-603.2544933664708

>  <intra_energy>  (14) 
53.84577441286146

>  <rmsd>  (14) 
6.42035

>  <sdf_rank>  (14) 
0

$$$$

     RDKit          3D

 57 58  0  0  0  0  0  0  0  0999 V2000
    4.4545    0.3752  105.2686 C   0  0  0  0  0  0  0  0  0  0  0  0
    4.5306   -0.6640  106.3198 C   0  0  0  0  0  0  0  0  0  0  0  0
    3.9559    1.0530  108.1317 C   0  0  0  0  0  0  0  0  0  0  0  0
    4.1246    1.7534  105.7040 C   0  0  0  0  0  0  0  0  0  0  0  0
    4.3146   -1.3732  108.7196 C   0  0  2  0  0  0  0  0  0  0  0  0
    3.5430   -2.5940  108.0889 C   0  0  1  0  0  0  0  0  0  0  0  0
    4.1173   -3.7707  108.9859 C   0  0  1  0  0  0  0  0  0  0  0  0
    5.3257   -3.3812  109.3250 C   0  0  1  0  0  0  0  0  0  0  0  0
    6.4055   -4.1372  108.5679 C   0  0  0  0  0  0  0  0  0  0  0  0
    8.0625   -9.4488  106.1490 C   0  0  0  0  0  0  0  0  0  0  0  0
    7.8944   -8.9887  104.6457 C   0  0  2  0  0  0  0  0  0  0  0  0
    6.5307   -9.4040  104.1419 C   0  0  2  0  0  0  0  0  0  0  0  0
    6.0069   -8.4870  102.9966 C   0  0  2  0  0  0  0  0  0  0  0  0
    5.7259   -9.3400  101.7734 C   0  0  0  0  0  0  0  0  0  0  0  0
    4.2780   -0.3140  107.6990 N   0  0  0  0  0  0  0  0  0  0  0  0
    3.8852    2.0981  107.0914 N   0  0  0  0  0  0  0  0  0  0  0  0
    4.0296    2.7947  104.6978 N   0  0  0  0  0  0  0  0  0  0  0  0
    3.7467    1.2802  109.2888 O   0  0  0  0  0  0  0  0  0  0  0  0
    5.5252   -1.8091  108.8406 O   0  0  0  0  0  0  0  0  0  0  0  0
    6.0787   -5.5349  108.4619 O   0  0  0  0  0  0  0  0  0  0  0  0
    5.1279   -6.5824  110.6405 O   0  0  0  0  0  0  0  0  0  0  0  0
    7.5338   -5.8150  110.5679 O   0  0  0  0  0  0  0  0  0  0  0  0
    6.8734   -7.9652  109.3709 O   0  0  0  0  0  0  0  0  0  0  0  0
    9.4057   -7.4317  108.8794 O   0  0  0  0  0  0  0  0  0  0  0  0
    8.6113   -9.8425  108.8788 O   0  0  0  0  0  0  0  0  0  0  0  0
    7.9419   -8.2492  106.9403 O   0  0  0  0  0  0  0  0  0  0  0  0
    4.5837   -8.9011  101.0337 O   0  0  0  0  0  0  0  0  0  0  0  0
    6.9284   -7.4507  102.6281 O   0  0  0  0  0  0  0  0  0  0  0  0
    5.6450   -9.4091  105.2532 O   0  0  0  0  0  0  0  0  0  0  0  0
    8.9343   -9.4831  103.8191 O   0  0  0  0  0  0  0  0  0  0  0  0
    3.2504   -3.9031  110.1897 O   0  0  0  0  0  0  0  0  0  0  0  0
    2.2080   -2.5160  108.1969 O   0  0  0  0  0  0  0  0  0  0  0  0
    6.3796   -6.4508  109.8386 P   0  0  2  0  0  0  0  0  0  0  0  0
    8.2515   -8.3919  108.5517 P   0  0  1  0  0  0  0  0  0  0  0  0
    4.6349    0.1353  104.2104 H   0  0  0  0  0  0  0  0  0  0  0  0
    4.7792   -1.7014  106.0516 H   0  0  0  0  0  0  0  0  0  0  0  0
    3.9123   -0.9995  109.6728 H   0  0  0  0  0  0  0  0  0  0  0  0
    3.6921   -2.6889  107.0032 H   0  0  0  0  0  0  0  0  0  0  0  0
    4.1422   -4.7431  108.4724 H   0  0  0  0  0  0  0  0  0  0  0  0
    5.4175   -3.5415  110.4093 H   0  0  0  0  0  0  0  0  0  0  0  0
    6.5010   -3.7126  107.5577 H   0  0  0  0  0  0  0  0  0  0  0  0
    7.3530   -4.0396  109.1181 H   0  0  0  0  0  0  0  0  0  0  0  0
    7.2755  -10.1678  106.4203 H   0  0  0  0  0  0  0  0  0  0  0  0
    9.0280   -9.9490  106.3148 H   0  0  0  0  0  0  0  0  0  0  0  0
    7.9686   -7.8920  104.6043 H   0  0  0  0  0  0  0  0  0  0  0  0
    6.5979  -10.4082  103.6980 H   0  0  0  0  0  0  0  0  0  0  0  0
    5.0973   -7.9956  103.3723 H   0  0  0  0  0  0  0  0  0  0  0  0
    6.6050   -9.3055  101.1131 H   0  0  0  0  0  0  0  0  0  0  0  0
    5.5158  -10.3604  102.1264 H   0  0  0  0  0  0  0  0  0  0  0  0
    3.8017    3.7600  104.9756 H   0  0  0  0  0  0  0  0  0  0  0  0
    4.1901    2.5685  103.7058 H   0  0  0  0  0  0  0  0  0  0  0  0
    3.8694   -8.6266  101.6618 H   0  0  0  0  0  0  0  0  0  0  0  0
    7.2996   -7.0333  103.4454 H   0  0  0  0  0  0  0  0  0  0  0  0
    6.1692   -9.4061  106.0930 H   0  0  0  0  0  0  0  0  0  0  0  0
    9.6680   -9.8319  104.3850 H   0  0  0  0  0  0  0  0  0  0  0  0
    3.8041   -3.8185  111.0060 H   0  0  0  0  0  0  0  0  0  0  0  0
    1.9546   -2.5011  109.1539 H   0  0  0  0  0  0  0  0  0  0  0  0
  1  2  2  0
  1  4  1  0
  2 15  1  0
  3 15  1  0
  3 16  1  0
  3 18  2  0
  4 16  2  0
  4 17  1  0
  5  6  1  0
  5 15  1  0
  5 19  1  0
  6  7  1  0
  6 32  1  0
  7  8  1  0
  7 31  1  0
  8  9  1  0
  8 19  1  0
  9 20  1  0
 10 11  1  0
 10 26  1  0
 11 12  1  0
 11 30  1  0
 12 13  1  0
 12 29  1  0
 13 14  1  0
 13 28  1  0
 14 27  1  0
 20 33  1  0
 21 33  2  0
 33 22  1  1
 23 33  1  0
 23 34  1  0
 24 34  2  0
 34 25  1  6
 26 34  1  0
  1 35  1  0
  2 36  1  0
  5 37  1  1
  6 38  1  6
  7 39  1  6
  8 40  1  1
  9 41  1  0
  9 42  1  0
 10 43  1  0
 10 44  1  0
 11 45  1  1
 12 46  1  6
 13 47  1  1
 14 48  1  0
 14 49  1  0
 17 50  1  0
 17 51  1  0
 27 52  1  0
 28 53  1  0
 29 54  1  0
 30 55  1  0
 31 56  1  0
 32 57  1  0
M  CHG  2  22  -1  25  -1
M  END
>  <filename_input>  (15) 
6XHT_V2V_docked.sdf

>  <pdb_id>  (15) 
6XHT_V2V

>  <pose_rank>  (15) 
14

>  <num_atoms_heavy>  (15) 
34

>  <num_torsions>  (15) 
12

>  <pose>  (15) 
[6.078696661439344, -5.534924740562385, 108.46191966944396, 0.5897215818993958, 2.4944585619554247, -2.3189619255628466, -1.4387806969366497, 2.3846745683094204, 2.0486373063867758, -1.0792273250417306, 0.3296547722821298, 1.0586780678663423, -0.43825936946706406, 0.6256782085627308, -0.5252323872933249, 1.3262952608741811, -1.7827315189626929, 0.23561539893592065]

>  <energy>  (15) 
-486.0237867254678

>  <inter_energy>  (15) 
-511.3646690759172

>  <intra_energy>  (15) 
17.728013126096677

>  <rmsd>  (15) 
7.81926

>  <sdf_rank>  (15) 
0

$$$$

     RDKit          3D

 57 58  0  0  0  0  0  0  0  0999 V2000
    8.2397   -6.0592  110.5281 C   0  0  0  0  0  0  0  0  0  0  0  0
    8.2241   -6.8777  109.2951 C   0  0  0  0  0  0  0  0  0  0  0  0
    7.4509   -8.9361  110.6090 C   0  0  0  0  0  0  0  0  0  0  0  0
    7.8510   -6.7323  111.7905 C   0  0  0  0  0  0  0  0  0  0  0  0
    7.7799   -9.0478  108.1110 C   0  0  2  0  0  0  0  0  0  0  0  0
    7.5457   -7.9946  106.9624 C   0  0  1  0  0  0  0  0  0  0  0  0
    8.0551   -8.8347  105.7159 C   0  0  1  0  0  0  0  0  0  0  0  0
    8.9720   -9.6413  106.2011 C   0  0  1  0  0  0  0  0  0  0  0  0
   10.3778   -9.2085  105.8175 C   0  0  0  0  0  0  0  0  0  0  0  0
   15.6501   -7.4562  108.8194 C   0  0  0  0  0  0  0  0  0  0  0  0
   15.8643   -8.2499  110.1701 C   0  0  2  0  0  0  0  0  0  0  0  0
   16.0317   -9.7217  109.8676 C   0  0  2  0  0  0  0  0  0  0  0  0
   15.5633  -10.6345  111.0401 C   0  0  2  0  0  0  0  0  0  0  0  0
   16.7744  -11.3247  111.6398 C   0  0  0  0  0  0  0  0  0  0  0  0
    7.8315   -8.2671  109.3571 N   0  0  0  0  0  0  0  0  0  0  0  0
    7.4707   -8.1300  111.8456 N   0  0  0  0  0  0  0  0  0  0  0  0
    7.8432   -5.9562  113.0166 N   0  0  0  0  0  0  0  0  0  0  0  0
    7.1251  -10.0885  110.5960 O   0  0  0  0  0  0  0  0  0  0  0  0
    8.9546   -9.5212  107.8538 O   0  0  0  0  0  0  0  0  0  0  0  0
   10.8898   -8.2361  106.7471 O   0  0  0  0  0  0  0  0  0  0  0  0
   13.0444   -9.6787  106.5920 O   0  0  0  0  0  0  0  0  0  0  0  0
   12.2716   -8.8219  108.8396 O   0  0  0  0  0  0  0  0  0  0  0  0
   13.3605   -7.2077  107.1961 O   0  0  0  0  0  0  0  0  0  0  0  0
   13.8252   -4.6356  107.5234 O   0  0  0  0  0  0  0  0  0  0  0  0
   12.3334   -5.8580  109.1736 O   0  0  0  0  0  0  0  0  0  0  0  0
   14.8960   -6.2791  109.1736 O   0  0  0  0  0  0  0  0  0  0  0  0
   16.8341  -12.7200  111.3327 O   0  0  0  0  0  0  0  0  0  0  0  0
   14.6182  -11.6374  110.6404 O   0  0  0  0  0  0  0  0  0  0  0  0
   17.3988   -9.9422  109.5482 O   0  0  0  0  0  0  0  0  0  0  0  0
   14.8154   -8.0181  111.0948 O   0  0  0  0  0  0  0  0  0  0  0  0
    6.9040   -9.6109  105.1768 O   0  0  0  0  0  0  0  0  0  0  0  0
    6.2645   -7.6296  106.8038 O   0  0  0  0  0  0  0  0  0  0  0  0
   12.4187   -8.5645  107.3629 P   0  0  2  0  0  0  0  0  0  0  0  0
   13.5607   -5.9551  108.2654 P   0  0  1  0  0  0  0  0  0  0  0  0
    8.5272   -4.9976  110.5087 H   0  0  0  0  0  0  0  0  0  0  0  0
    8.5110   -6.4290  108.3326 H   0  0  0  0  0  0  0  0  0  0  0  0
    7.0220   -9.8413  108.1882 H   0  0  0  0  0  0  0  0  0  0  0  0
    8.0496   -7.0338  107.1437 H   0  0  0  0  0  0  0  0  0  0  0  0
    8.4610   -8.2140  104.9035 H   0  0  0  0  0  0  0  0  0  0  0  0
    8.7480  -10.6457  105.8125 H   0  0  0  0  0  0  0  0  0  0  0  0
   11.0378  -10.0885  105.8176 H   0  0  0  0  0  0  0  0  0  0  0  0
   10.3435   -8.7527  104.8170 H   0  0  0  0  0  0  0  0  0  0  0  0
   16.6194   -7.1737  108.3828 H   0  0  0  0  0  0  0  0  0  0  0  0
   15.1235   -8.0653  108.0699 H   0  0  0  0  0  0  0  0  0  0  0  0
   16.7815   -7.8805  110.6520 H   0  0  0  0  0  0  0  0  0  0  0  0
   15.3887   -9.9932  109.0175 H   0  0  0  0  0  0  0  0  0  0  0  0
   15.0587   -9.9834  111.7691 H   0  0  0  0  0  0  0  0  0  0  0  0
   17.6820  -10.8412  111.2493 H   0  0  0  0  0  0  0  0  0  0  0  0
   16.6965  -11.2325  112.7331 H   0  0  0  0  0  0  0  0  0  0  0  0
    7.5767   -6.4015  113.9063 H   0  0  0  0  0  0  0  0  0  0  0  0
    8.1041   -4.9600  112.9972 H   0  0  0  0  0  0  0  0  0  0  0  0
   16.8564  -13.2422  112.1735 H   0  0  0  0  0  0  0  0  0  0  0  0
   14.2225  -12.0573  111.4449 H   0  0  0  0  0  0  0  0  0  0  0  0
   17.9233  -10.0269  110.3836 H   0  0  0  0  0  0  0  0  0  0  0  0
   15.1658   -8.0955  112.0175 H   0  0  0  0  0  0  0  0  0  0  0  0
    6.3688   -9.9718  105.9274 H   0  0  0  0  0  0  0  0  0  0  0  0
    5.8432   -7.5096  107.6916 H   0  0  0  0  0  0  0  0  0  0  0  0
  1  2  2  0
  1  4  1  0
  2 15  1  0
  3 15  1  0
  3 16  1  0
  3 18  2  0
  4 16  2  0
  4 17  1  0
  5  6  1  0
  5 15  1  0
  5 19  1  0
  6  7  1  0
  6 32  1  0
  7  8  1  0
  7 31  1  0
  8  9  1  0
  8 19  1  0
  9 20  1  0
 10 11  1  0
 10 26  1  0
 11 12  1  0
 11 30  1  0
 12 13  1  0
 12 29  1  0
 13 14  1  0
 13 28  1  0
 14 27  1  0
 20 33  1  0
 21 33  2  0
 33 22  1  1
 23 33  1  0
 23 34  1  0
 24 34  2  0
 34 25  1  1
 26 34  1  0
  1 35  1  0
  2 36  1  0
  5 37  1  1
  6 38  1  1
  7 39  1  6
  8 40  1  1
  9 41  1  0
  9 42  1  0
 10 43  1  0
 10 44  1  0
 11 45  1  1
 12 46  1  6
 13 47  1  1
 14 48  1  0
 14 49  1  0
 17 50  1  0
 17 51  1  0
 27 52  1  0
 28 53  1  0
 29 54  1  0
 30 55  1  0
 31 56  1  0
 32 57  1  0
M  CHG  2  22  -1  25  -1
M  END
>  <filename_input>  (16) 
6XHT_V2V_docked.sdf

>  <pdb_id>  (16) 
6XHT_V2V

>  <pose_rank>  (16) 
15

>  <num_atoms_heavy>  (16) 
34

>  <num_torsions>  (16) 
12

>  <pose>  (16) 
[10.88976839777336, -8.236149637203205, 106.74707275758414, 1.4810241934047739, -2.8858848343475185, -3.2769595700712637, -2.91799996551384, -3.462029125770097, -7.367941736280564, -5.198871649045658, -11.493015939862293, -6.985707848245843, 0.5162494056697116, 2.821534152896114, 1.3608018895992409, 4.967429789038484, 0.43347475484644793, 6.834730158669034]

>  <energy>  (16) 
-514.9385782947811

>  <inter_energy>  (16) 
-552.1418609474359

>  <intra_energy>  (16) 
35.04049318212842

>  <rmsd>  (16) 
8.21698

>  <sdf_rank>  (16) 
0

$$$$

     RDKit          3D

 57 58  0  0  0  0  0  0  0  0999 V2000
    3.7070   -4.6836  111.3047 C   0  0  0  0  0  0  0  0  0  0  0  0
    5.0409   -4.1832  111.7058 C   0  0  0  0  0  0  0  0  0  0  0  0
    5.9104   -6.5756  111.9907 C   0  0  0  0  0  0  0  0  0  0  0  0
    3.5215   -6.1539  111.2636 C   0  0  0  0  0  0  0  0  0  0  0  0
    7.4253   -4.5969  112.3781 C   0  0  2  0  0  0  0  0  0  0  0  0
    7.5979   -4.8844  113.9179 C   0  0  1  0  0  0  0  0  0  0  0  0
    9.1791   -4.8092  114.0325 C   0  0  1  0  0  0  0  0  0  0  0  0
    9.6239   -5.1945  112.8576 C   0  0  1  0  0  0  0  0  0  0  0  0
   10.2129   -6.5953  112.8984 C   0  0  0  0  0  0  0  0  0  0  0  0
    8.1017   -9.7149  107.3550 C   0  0  0  0  0  0  0  0  0  0  0  0
    8.0121   -8.9721  105.9622 C   0  0  2  0  0  0  0  0  0  0  0  0
    7.7055   -9.9768  104.8749 C   0  0  2  0  0  0  0  0  0  0  0  0
    7.4891   -9.3108  103.4832 C   0  0  2  0  0  0  0  0  0  0  0  0
    6.0465   -9.5158  103.0592 C   0  0  0  0  0  0  0  0  0  0  0  0
    6.0951   -5.1182  112.0265 N   0  0  0  0  0  0  0  0  0  0  0  0
    4.5810   -7.0846  111.5992 N   0  0  0  0  0  0  0  0  0  0  0  0
    2.2297   -6.6793  110.8625 N   0  0  0  0  0  0  0  0  0  0  0  0
    6.8252   -7.3010  112.2577 O   0  0  0  0  0  0  0  0  0  0  0  0
    8.3329   -5.3344  111.8281 O   0  0  0  0  0  0  0  0  0  0  0  0
   11.4014   -6.6787  112.0910 O   0  0  0  0  0  0  0  0  0  0  0  0
   12.3405   -8.2398  110.2392 O   0  0  0  0  0  0  0  0  0  0  0  0
   10.9724   -6.2161  109.5944 O   0  0  0  0  0  0  0  0  0  0  0  0
    9.7988   -8.2557  110.5715 O   0  0  0  0  0  0  0  0  0  0  0  0
   10.6066  -10.5382  109.5340 O   0  0  0  0  0  0  0  0  0  0  0  0
    8.1698  -10.2516  110.1843 O   0  0  0  0  0  0  0  0  0  0  0  0
    9.1176   -9.0180  108.1047 O   0  0  0  0  0  0  0  0  0  0  0  0
    5.7975   -9.1208  101.7077 O   0  0  0  0  0  0  0  0  0  0  0  0
    8.3447   -9.8374  102.4588 O   0  0  0  0  0  0  0  0  0  0  0  0
    6.5631  -10.7169  105.2830 O   0  0  0  0  0  0  0  0  0  0  0  0
    9.1865   -8.2309  105.6787 O   0  0  0  0  0  0  0  0  0  0  0  0
    9.5589   -3.3943  114.3004 O   0  0  0  0  0  0  0  0  0  0  0  0
    7.0152   -3.9765  114.7156 O   0  0  0  0  0  0  0  0  0  0  0  0
   11.1888   -7.3480  110.5641 P   0  0  2  0  0  0  0  0  0  0  0  0
    9.4197   -9.5666  109.6280 P   0  0  1  0  0  0  0  0  0  0  0  0
    2.8888   -3.9946  111.0483 H   0  0  0  0  0  0  0  0  0  0  0  0
    5.2296   -3.1008  111.7597 H   0  0  0  0  0  0  0  0  0  0  0  0
    7.5132   -3.5416  112.0802 H   0  0  0  0  0  0  0  0  0  0  0  0
    7.1281   -5.8254  114.2401 H   0  0  0  0  0  0  0  0  0  0  0  0
    9.5917   -5.4338  114.8384 H   0  0  0  0  0  0  0  0  0  0  0  0
   10.3791   -4.4573  112.5476 H   0  0  0  0  0  0  0  0  0  0  0  0
   10.4659   -6.8490  113.9384 H   0  0  0  0  0  0  0  0  0  0  0  0
    9.4684   -7.3003  112.5001 H   0  0  0  0  0  0  0  0  0  0  0  0
    7.1360   -9.6647  107.8793 H   0  0  0  0  0  0  0  0  0  0  0  0
    8.3472  -10.7801  107.2319 H   0  0  0  0  0  0  0  0  0  0  0  0
    7.1936   -8.2387  106.0081 H   0  0  0  0  0  0  0  0  0  0  0  0
    8.5700  -10.6441  104.7428 H   0  0  0  0  0  0  0  0  0  0  0  0
    7.7359   -8.2450  103.5978 H   0  0  0  0  0  0  0  0  0  0  0  0
    5.7992  -10.5826  103.1633 H   0  0  0  0  0  0  0  0  0  0  0  0
    5.4213   -8.8831  103.7063 H   0  0  0  0  0  0  0  0  0  0  0  0
    2.0765   -7.6972  110.8262 H   0  0  0  0  0  0  0  0  0  0  0  0
    1.4661   -6.0343  110.6141 H   0  0  0  0  0  0  0  0  0  0  0  0
    5.2697   -8.2832  101.7006 H   0  0  0  0  0  0  0  0  0  0  0  0
    9.1090  -10.3078  102.8768 H   0  0  0  0  0  0  0  0  0  0  0  0
    6.5228  -10.7430  106.2718 H   0  0  0  0  0  0  0  0  0  0  0  0
    9.6179   -7.9587  106.5272 H   0  0  0  0  0  0  0  0  0  0  0  0
    9.5996   -3.2430  115.2780 H   0  0  0  0  0  0  0  0  0  0  0  0
    7.1716   -4.2202  115.6623 H   0  0  0  0  0  0  0  0  0  0  0  0
  1  2  2  0
  1  4  1  0
  2 15  1  0
  3 15  1  0
  3 16  1  0
  3 18  2  0
  4 16  2  0
  4 17  1  0
  5  6  1  0
  5 15  1  0
  5 19  1  0
  6  7  1  0
  6 32  1  0
  7  8  1  0
  7 31  1  0
  8  9  1  0
  8 19  1  0
  9 20  1  0
 10 11  1  0
 10 26  1  0
 11 12  1  0
 11 30  1  0
 12 13  1  0
 12 29  1  0
 13 14  1  0
 13 28  1  0
 14 27  1  0
 20 33  1  0
 21 33  2  0
 33 22  1  6
 23 33  1  0
 23 34  1  0
 24 34  2  0
 34 25  1  1
 26 34  1  0
  1 35  1  0
  2 36  1  0
  5 37  1  1
  6 38  1  6
  7 39  1  1
  8 40  1  6
  9 41  1  0
  9 42  1  0
 10 43  1  0
 10 44  1  0
 11 45  1  1
 12 46  1  6
 13 47  1  1
 14 48  1  0
 14 49  1  0
 17 50  1  0
 17 51  1  0
 27 52  1  0
 28 53  1  0
 29 54  1  0
 30 55  1  0
 31 56  1  0
 32 57  1  0
M  CHG  2  22  -1  25  -1
M  END
>  <filename_input>  (17) 
6XHT_V2V_docked.sdf

>  <pdb_id>  (17) 
6XHT_V2V

>  <pose_rank>  (17) 
16

>  <num_atoms_heavy>  (17) 
34

>  <num_torsions>  (17) 
12

>  <pose>  (17) 
[11.40144738320928, -6.678746707772399, 112.09100536632637, -2.2167721607650623, -2.616766381884581, -1.4253979364763953, 0.726049203189697, -1.4198930999148622, 2.285350364505598, -1.5356708995936528, 0.19490332595468549, -0.840805127174472, -0.05210547759871844, -3.5007544040673944, 0.2631113235917021, 0.9648477855651204, 2.7744696466292615, -3.375304660088666]

>  <energy>  (17) 
-418.24321451808413

>  <inter_energy>  (17) 
-456.9551051786353

>  <intra_energy>  (17) 
39.38912165853348

>  <rmsd>  (17) 
6.25917

>  <sdf_rank>  (17) 
0

$$$$

     RDKit          3D

 57 58  0  0  0  0  0  0  0  0999 V2000
    7.5032  -10.8346  112.1177 C   0  0  0  0  0  0  0  0  0  0  0  0
    8.1953  -10.7593  110.8116 C   0  0  0  0  0  0  0  0  0  0  0  0
   10.1416   -9.4645  111.8587 C   0  0  0  0  0  0  0  0  0  0  0  0
    8.1767  -10.2009  113.2764 C   0  0  0  0  0  0  0  0  0  0  0  0
   10.1654  -10.0752  109.4119 C   0  0  2  0  0  0  0  0  0  0  0  0
   10.4315   -8.5534  109.1008 C   0  0  1  0  0  0  0  0  0  0  0  0
   11.6048   -8.6941  108.0413 C   0  0  1  0  0  0  0  0  0  0  0  0
   12.2303   -9.8015  108.3717 C   0  0  1  0  0  0  0  0  0  0  0  0
   13.5703   -9.5274  109.0352 C   0  0  0  0  0  0  0  0  0  0  0  0
   11.4840   -5.4154  110.4653 C   0  0  0  0  0  0  0  0  0  0  0  0
   11.0999   -4.7697  111.8565 C   0  0  2  0  0  0  0  0  0  0  0  0
   10.0550   -5.6248  112.5368 C   0  0  2  0  0  0  0  0  0  0  0  0
    8.6018   -5.2370  112.1302 C   0  0  2  0  0  0  0  0  0  0  0  0
    7.7099   -5.3204  113.3551 C   0  0  0  0  0  0  0  0  0  0  0  0
    9.4759  -10.0971  110.7114 N   0  0  0  0  0  0  0  0  0  0  0  0
    9.4555   -9.5276  113.1644 N   0  0  0  0  0  0  0  0  0  0  0  0
    7.5320  -10.2668  114.5748 N   0  0  0  0  0  0  0  0  0  0  0  0
   11.2080   -8.9386  111.7158 O   0  0  0  0  0  0  0  0  0  0  0  0
   11.3519  -10.5689  109.5487 O   0  0  0  0  0  0  0  0  0  0  0  0
   14.3313   -8.5652  108.2825 O   0  0  0  0  0  0  0  0  0  0  0  0
   16.5527   -7.5676  109.1868 O   0  0  0  0  0  0  0  0  0  0  0  0
   14.4412   -7.3680  110.5597 O   0  0  0  0  0  0  0  0  0  0  0  0
   14.7374   -5.8913  108.5046 O   0  0  0  0  0  0  0  0  0  0  0  0
   13.8017   -3.4324  108.6358 O   0  0  0  0  0  0  0  0  0  0  0  0
   12.3115   -5.2941  107.7662 O   0  0  0  0  0  0  0  0  0  0  0  0
   12.8936   -5.1637  110.2938 O   0  0  0  0  0  0  0  0  0  0  0  0
    6.7154   -6.3430  113.2563 O   0  0  0  0  0  0  0  0  0  0  0  0
    8.0512   -6.0789  111.1071 O   0  0  0  0  0  0  0  0  0  0  0  0
   10.2528   -5.5110  113.9394 O   0  0  0  0  0  0  0  0  0  0  0  0
   10.6723   -3.4254  111.7185 O   0  0  0  0  0  0  0  0  0  0  0  0
   10.9965   -8.8175  106.6876 O   0  0  0  0  0  0  0  0  0  0  0  0
    9.3811   -7.9086  108.5707 O   0  0  0  0  0  0  0  0  0  0  0  0
   15.0743   -7.3638  109.1932 P   0  0  2  0  0  0  0  0  0  0  0  0
   13.4184   -4.9160  108.7523 P   0  0  1  0  0  0  0  0  0  0  0  0
    6.5314  -11.3388  112.2241 H   0  0  0  0  0  0  0  0  0  0  0  0
    7.7355  -11.2069  109.9182 H   0  0  0  0  0  0  0  0  0  0  0  0
    9.5763  -10.6172  108.6574 H   0  0  0  0  0  0  0  0  0  0  0  0
   10.6520   -7.9578  109.9989 H   0  0  0  0  0  0  0  0  0  0  0  0
   12.2933   -7.8362  108.0312 H   0  0  0  0  0  0  0  0  0  0  0  0
   12.3593  -10.3807  107.4455 H   0  0  0  0  0  0  0  0  0  0  0  0
   13.3966   -9.1355  110.0483 H   0  0  0  0  0  0  0  0  0  0  0  0
   14.1391  -10.4679  109.0782 H   0  0  0  0  0  0  0  0  0  0  0  0
   11.2863   -6.4974  110.4771 H   0  0  0  0  0  0  0  0  0  0  0  0
   10.8923   -4.9881  109.6423 H   0  0  0  0  0  0  0  0  0  0  0  0
   11.9994   -4.7390  112.4890 H   0  0  0  0  0  0  0  0  0  0  0  0
   10.1745   -6.6696  112.2142 H   0  0  0  0  0  0  0  0  0  0  0  0
    8.6462   -4.2161  111.7232 H   0  0  0  0  0  0  0  0  0  0  0  0
    8.3394   -5.5279  114.2330 H   0  0  0  0  0  0  0  0  0  0  0  0
    7.1837   -4.3585  113.4438 H   0  0  0  0  0  0  0  0  0  0  0  0
    7.9803   -9.8340  115.3949 H   0  0  0  0  0  0  0  0  0  0  0  0
    6.6261  -10.7463  114.6762 H   0  0  0  0  0  0  0  0  0  0  0  0
    6.4408   -6.6252  114.1646 H   0  0  0  0  0  0  0  0  0  0  0  0
    7.5603   -6.8296  111.5261 H   0  0  0  0  0  0  0  0  0  0  0  0
    9.5001   -5.9439  114.4150 H   0  0  0  0  0  0  0  0  0  0  0  0
   10.5451   -3.0258  112.6153 H   0  0  0  0  0  0  0  0  0  0  0  0
   10.0302   -9.0137  106.7767 H   0  0  0  0  0  0  0  0  0  0  0  0
    8.8085   -7.5571  109.2978 H   0  0  0  0  0  0  0  0  0  0  0  0
  1  2  2  0
  1  4  1  0
  2 15  1  0
  3 15  1  0
  3 16  1  0
  3 18  2  0
  4 16  2  0
  4 17  1  0
  5  6  1  0
  5 15  1  0
  5 19  1  0
  6  7  1  0
  6 32  1  0
  7  8  1  0
  7 31  1  0
  8  9  1  0
  8 19  1  0
  9 20  1  0
 10 11  1  0
 10 26  1  0
 11 12  1  0
 11 30  1  0
 12 13  1  0
 12 29  1  0
 13 14  1  0
 13 28  1  0
 14 27  1  0
 20 33  1  0
 21 33  2  0
 33 22  1  1
 23 33  1  0
 23 34  1  0
 24 34  2  0
 34 25  1  6
 26 34  1  0
  1 35  1  0
  2 36  1  0
  5 37  1  6
  6 38  1  1
  7 39  1  6
  8 40  1  6
  9 41  1  0
  9 42  1  0
 10 43  1  0
 10 44  1  0
 11 45  1  1
 12 46  1  6
 13 47  1  6
 14 48  1  0
 14 49  1  0
 17 50  1  0
 17 51  1  0
 27 52  1  0
 28 53  1  0
 29 54  1  0
 30 55  1  0
 31 56  1  0
 32 57  1  0
M  CHG  2  22  -1  25  -1
M  END
>  <filename_input>  (18) 
6XHT_V2V_docked.sdf

>  <pdb_id>  (18) 
6XHT_V2V

>  <pose_rank>  (18) 
17

>  <num_atoms_heavy>  (18) 
34

>  <num_torsions>  (18) 
12

>  <pose>  (18) 
[14.33128583776445, -8.565161412857018, 108.28249089337152, 3.4152986718358918, -1.9588892345437217, 0.8652979806257286, -1.1990528294589669, -3.5277291066161407, -2.203675386115284, -1.2775422369805065, 0.791925611735628, 0.384181291763598, 1.632022638694397, 2.3206317365302387, 1.2481506816776615, -1.2159912918085782, -1.9021539964617837, 3.162978722219772]

>  <energy>  (18) 
-395.8328075926258

>  <inter_energy>  (18) 
-444.8339767325075

>  <intra_energy>  (18) 
52.276623732217914

>  <rmsd>  (18) 
7.7315

>  <sdf_rank>  (18) 
0

$$$$

     RDKit          3D

 57 58  0  0  0  0  0  0  0  0999 V2000
    6.5241   -7.9196  102.2532 C   0  0  0  0  0  0  0  0  0  0  0  0
    7.2915   -7.6903  103.4979 C   0  0  0  0  0  0  0  0  0  0  0  0
    6.7455  -10.0502  104.3309 C   0  0  0  0  0  0  0  0  0  0  0  0
    5.8767   -9.2436  102.0931 C   0  0  0  0  0  0  0  0  0  0  0  0
    8.1974   -8.5035  105.6948 C   0  0  2  0  0  0  0  0  0  0  0  0
    7.1695   -8.0832  106.8130 C   0  0  1  0  0  0  0  0  0  0  0  0
    8.0309   -8.4021  108.1073 C   0  0  1  0  0  0  0  0  0  0  0  0
    8.8206   -9.3915  107.7549 C   0  0  1  0  0  0  0  0  0  0  0  0
    8.3853  -10.7163  108.3600 C   0  0  0  0  0  0  0  0  0  0  0  0
    5.9587  -12.5152  113.6335 C   0  0  0  0  0  0  0  0  0  0  0  0
    5.1939  -13.2889  114.7809 C   0  0  2  0  0  0  0  0  0  0  0  0
    3.7037  -13.1960  114.5436 C   0  0  2  0  0  0  0  0  0  0  0  0
    2.9582  -14.5248  114.8685 C   0  0  2  0  0  0  0  0  0  0  0  0
    2.0828  -14.3115  116.0896 C   0  0  0  0  0  0  0  0  0  0  0  0
    7.3912   -8.7393  104.4868 N   0  0  0  0  0  0  0  0  0  0  0  0
    5.9714  -10.2859  103.0961 N   0  0  0  0  0  0  0  0  0  0  0  0
    5.1267   -9.5069  100.8791 N   0  0  0  0  0  0  0  0  0  0  0  0
    6.8722  -10.8841  105.1812 O   0  0  0  0  0  0  0  0  0  0  0  0
    8.6672   -9.6291  106.1221 O   0  0  0  0  0  0  0  0  0  0  0  0
    9.3738  -11.2121  109.2813 O   0  0  0  0  0  0  0  0  0  0  0  0
    8.9828   -9.4934  111.1894 O   0  0  0  0  0  0  0  0  0  0  0  0
   10.0516  -11.7220  111.7126 O   0  0  0  0  0  0  0  0  0  0  0  0
    7.5486  -11.6172  111.2481 O   0  0  0  0  0  0  0  0  0  0  0  0
    5.8860  -13.5424  110.5638 O   0  0  0  0  0  0  0  0  0  0  0  0
    8.3305  -14.0874  110.9763 O   0  0  0  0  0  0  0  0  0  0  0  0
    6.7708  -13.5047  112.9693 O   0  0  0  0  0  0  0  0  0  0  0  0
    0.6917  -14.2160  115.7727 O   0  0  0  0  0  0  0  0  0  0  0  0
    3.8407  -15.6262  115.1268 O   0  0  0  0  0  0  0  0  0  0  0  0
    3.5071  -12.8039  113.1919 O   0  0  0  0  0  0  0  0  0  0  0  0
    5.5526  -12.8189  116.0691 O   0  0  0  0  0  0  0  0  0  0  0  0
    8.8263   -7.1896  108.4466 O   0  0  0  0  0  0  0  0  0  0  0  0
    6.8172   -6.7891  106.7778 O   0  0  0  0  0  0  0  0  0  0  0  0
    9.0336  -10.9581  110.9074 P   0  0  2  0  0  0  0  0  0  0  0  0
    7.1407  -13.2190  111.3900 P   0  0  1  0  0  0  0  0  0  0  0  0
    6.4379   -7.1414  101.4805 H   0  0  0  0  0  0  0  0  0  0  0  0
    7.7853   -6.7226  103.6700 H   0  0  0  0  0  0  0  0  0  0  0  0
    8.9947   -7.7750  105.4861 H   0  0  0  0  0  0  0  0  0  0  0  0
    6.2014   -8.5991  106.7301 H   0  0  0  0  0  0  0  0  0  0  0  0
    7.4238   -8.6707  108.9843 H   0  0  0  0  0  0  0  0  0  0  0  0
    9.8343   -9.1205  108.0850 H   0  0  0  0  0  0  0  0  0  0  0  0
    7.4350  -10.5725  108.8951 H   0  0  0  0  0  0  0  0  0  0  0  0
    8.2636  -11.4491  107.5487 H   0  0  0  0  0  0  0  0  0  0  0  0
    5.2421  -12.0705  112.9273 H   0  0  0  0  0  0  0  0  0  0  0  0
    6.5687  -11.6928  114.0353 H   0  0  0  0  0  0  0  0  0  0  0  0
    5.4925  -14.3471  114.7494 H   0  0  0  0  0  0  0  0  0  0  0  0
    3.2728  -12.4501  115.2277 H   0  0  0  0  0  0  0  0  0  0  0  0
    2.3657  -14.7839  113.9786 H   0  0  0  0  0  0  0  0  0  0  0  0
    2.2280  -15.1581  116.7767 H   0  0  0  0  0  0  0  0  0  0  0  0
    2.3819  -13.3557  116.5446 H   0  0  0  0  0  0  0  0  0  0  0  0
    4.6680  -10.4193  100.7448 H   0  0  0  0  0  0  0  0  0  0  0  0
    5.0531   -8.7814  100.1517 H   0  0  0  0  0  0  0  0  0  0  0  0
    0.1643  -14.1798  116.6098 H   0  0  0  0  0  0  0  0  0  0  0  0
    3.9386  -15.7484  116.1044 H   0  0  0  0  0  0  0  0  0  0  0  0
    3.0635  -11.9193  113.1660 H   0  0  0  0  0  0  0  0  0  0  0  0
    5.1214  -13.3839  116.7583 H   0  0  0  0  0  0  0  0  0  0  0  0
    8.8859   -7.0987  109.4306 H   0  0  0  0  0  0  0  0  0  0  0  0
    6.7241   -6.4472  107.7022 H   0  0  0  0  0  0  0  0  0  0  0  0
  1  2  2  0
  1  4  1  0
  2 15  1  0
  3 15  1  0
  3 16  1  0
  3 18  2  0
  4 16  2  0
  4 17  1  0
  5  6  1  0
  5 15  1  0
  5 19  1  0
  6  7  1  0
  6 32  1  0
  7  8  1  0
  7 31  1  0
  8  9  1  0
  8 19  1  0
  9 20  1  0
 10 11  1  0
 10 26  1  0
 11 12  1  0
 11 30  1  0
 12 13  1  0
 12 29  1  0
 13 14  1  0
 13 28  1  0
 14 27  1  0
 20 33  1  0
 21 33  2  0
 33 22  1  1
 23 33  1  0
 23 34  1  0
 24 34  2  0
 34 25  1  6
 26 34  1  0
  1 35  1  0
  2 36  1  0
  5 37  1  6
  6 38  1  1
  7 39  1  1
  8 40  1  6
  9 41  1  0
  9 42  1  0
 10 43  1  0
 10 44  1  0
 11 45  1  1
 12 46  1  1
 13 47  1  6
 14 48  1  0
 14 49  1  0
 17 50  1  0
 17 51  1  0
 27 52  1  0
 28 53  1  0
 29 54  1  0
 30 55  1  0
 31 56  1  0
 32 57  1  0
M  CHG  2  22  -1  25  -1
M  END
>  <filename_input>  (19) 
6XHT_V2V_docked.sdf

>  <pdb_id>  (19) 
6XHT_V2V

>  <pose_rank>  (19) 
18

>  <num_atoms_heavy>  (19) 
34

>  <num_torsions>  (19) 
12

>  <pose>  (19) 
[9.373783509862422, -11.212108558071499, 109.28126985897772, 0.420795024464226, -2.3103956930344087, 3.5741134663912484, 2.064815504240732, 2.531924497995968, -0.7772964027233054, 1.7563541947278356, -0.2591557558758519, 0.8333173996892443, -0.6619281707799485, 0.44659009272634437, -1.1909143933384663, -1.821620034786075, 3.211998972865887, -3.580617676270178]

>  <energy>  (19) 
-479.5221656189201

>  <inter_energy>  (19) 
-523.8400218024383

>  <intra_energy>  (19) 
42.19407584610474

>  <rmsd>  (19) 
9.61896

>  <sdf_rank>  (19) 
0

$$$$

     RDKit          3D

 57 58  0  0  0  0  0  0  0  0999 V2000
    8.3681  -15.7768  115.6887 C   0  0  0  0  0  0  0  0  0  0  0  0
    7.4324  -14.9472  114.8971 C   0  0  0  0  0  0  0  0  0  0  0  0
    5.4832  -15.5914  116.4289 C   0  0  0  0  0  0  0  0  0  0  0  0
    7.8071  -16.5044  116.8522 C   0  0  0  0  0  0  0  0  0  0  0  0
    5.1400  -13.9992  114.5034 C   0  0  2  0  0  0  0  0  0  0  0  0
    5.7880  -12.5636  114.5551 C   0  0  1  0  0  0  0  0  0  0  0  0
    5.0859  -11.9033  113.2942 C   0  0  1  0  0  0  0  0  0  0  0  0
    4.8597  -12.9011  112.4696 C   0  0  1  0  0  0  0  0  0  0  0  0
    5.8119  -12.8932  111.2847 C   0  0  0  0  0  0  0  0  0  0  0  0
    8.6152   -9.4223  106.3110 C   0  0  0  0  0  0  0  0  0  0  0  0
    7.5390  -10.0508  105.3380 C   0  0  2  0  0  0  0  0  0  0  0  0
    7.3999   -9.1786  104.1109 C   0  0  2  0  0  0  0  0  0  0  0  0
    6.9561   -9.9793  102.8503 C   0  0  2  0  0  0  0  0  0  0  0  0
    5.5665   -9.5252  102.4435 C   0  0  0  0  0  0  0  0  0  0  0  0
    6.0409  -14.8665  115.2787 N   0  0  0  0  0  0  0  0  0  0  0  0
    6.4071  -16.4278  117.2203 N   0  0  0  0  0  0  0  0  0  0  0  0
    8.6990  -17.3174  117.6578 N   0  0  0  0  0  0  0  0  0  0  0  0
    4.3227  -15.4774  116.7020 O   0  0  0  0  0  0  0  0  0  0  0  0
    5.2096  -14.3187  113.2531 O   0  0  0  0  0  0  0  0  0  0  0  0
    7.1490  -12.5592  111.6998 O   0  0  0  0  0  0  0  0  0  0  0  0
    8.0874  -12.9812  109.3147 O   0  0  0  0  0  0  0  0  0  0  0  0
    9.5541  -11.8960  111.0622 O   0  0  0  0  0  0  0  0  0  0  0  0
    7.6937  -10.5359  109.9753 O   0  0  0  0  0  0  0  0  0  0  0  0
    7.6291   -8.2312  108.7014 O   0  0  0  0  0  0  0  0  0  0  0  0
    9.8545   -9.1646  109.4882 O   0  0  0  0  0  0  0  0  0  0  0  0
    8.6168  -10.2599  107.4850 O   0  0  0  0  0  0  0  0  0  0  0  0
    5.3823   -9.4838  101.0262 O   0  0  0  0  0  0  0  0  0  0  0  0
    6.9301  -11.3991  103.0555 O   0  0  0  0  0  0  0  0  0  0  0  0
    8.6452   -8.5263  103.9036 O   0  0  0  0  0  0  0  0  0  0  0  0
    6.2937  -10.2545  105.9835 O   0  0  0  0  0  0  0  0  0  0  0  0
    3.8045  -11.2913  113.7432 O   0  0  0  0  0  0  0  0  0  0  0  0
    5.5119  -11.8755  115.6733 O   0  0  0  0  0  0  0  0  0  0  0  0
    8.1760  -12.0444  110.4731 P   0  0  2  0  0  0  0  0  0  0  0  0
    8.4666   -9.4979  108.9374 P   0  0  1  0  0  0  0  0  0  0  0  0
    9.4336  -15.8505  115.4251 H   0  0  0  0  0  0  0  0  0  0  0  0
    7.7957  -14.3926  114.0193 H   0  0  0  0  0  0  0  0  0  0  0  0
    4.1133  -14.0700  114.8919 H   0  0  0  0  0  0  0  0  0  0  0  0
    6.8879  -12.5823  114.5488 H   0  0  0  0  0  0  0  0  0  0  0  0
    5.6907  -11.1199  112.8142 H   0  0  0  0  0  0  0  0  0  0  0  0
    3.8152  -12.8071  112.1376 H   0  0  0  0  0  0  0  0  0  0  0  0
    5.8178  -13.8907  110.8212 H   0  0  0  0  0  0  0  0  0  0  0  0
    5.4690  -12.1357  110.5645 H   0  0  0  0  0  0  0  0  0  0  0  0
    9.6080   -9.4241  105.8373 H   0  0  0  0  0  0  0  0  0  0  0  0
    8.3775   -8.3772  106.5584 H   0  0  0  0  0  0  0  0  0  0  0  0
    7.8868  -11.0470  105.0273 H   0  0  0  0  0  0  0  0  0  0  0  0
    6.6015   -8.4408  104.2785 H   0  0  0  0  0  0  0  0  0  0  0  0
    7.7003   -9.7771  102.0658 H   0  0  0  0  0  0  0  0  0  0  0  0
    4.8310  -10.2220  102.8719 H   0  0  0  0  0  0  0  0  0  0  0  0
    5.4323   -8.5010  102.8218 H   0  0  0  0  0  0  0  0  0  0  0  0
    8.3328  -17.8323  118.4712 H   0  0  0  0  0  0  0  0  0  0  0  0
    9.6984  -17.3797  117.4162 H   0  0  0  0  0  0  0  0  0  0  0  0
    4.4371   -9.2714  100.8223 H   0  0  0  0  0  0  0  0  0  0  0  0
    6.9265  -11.5922  104.0265 H   0  0  0  0  0  0  0  0  0  0  0  0
    9.0550   -8.3116  104.7788 H   0  0  0  0  0  0  0  0  0  0  0  0
    6.4232  -10.2333  106.9648 H   0  0  0  0  0  0  0  0  0  0  0  0
    3.7745  -11.2770  114.7326 H   0  0  0  0  0  0  0  0  0  0  0  0
    5.7337  -12.4282  116.4641 H   0  0  0  0  0  0  0  0  0  0  0  0
  1  2  2  0
  1  4  1  0
  2 15  1  0
  3 15  1  0
  3 16  1  0
  3 18  2  0
  4 16  2  0
  4 17  1  0
  5  6  1  0
  5 15  1  0
  5 19  1  0
  6  7  1  0
  6 32  1  0
  7  8  1  0
  7 31  1  0
  8  9  1  0
  8 19  1  0
  9 20  1  0
 10 11  1  0
 10 26  1  0
 11 12  1  0
 11 30  1  0
 12 13  1  0
 12 29  1  0
 13 14  1  0
 13 28  1  0
 14 27  1  0
 20 33  1  0
 21 33  2  0
 33 22  1  1
 23 33  1  0
 23 34  1  0
 24 34  2  0
 34 25  1  1
 26 34  1  0
  1 35  1  0
  2 36  1  0
  5 37  1  1
  6 38  1  6
  7 39  1  6
  8 40  1  6
  9 41  1  0
  9 42  1  0
 10 43  1  0
 10 44  1  0
 11 45  1  6
 12 46  1  1
 13 47  1  6
 14 48  1  0
 14 49  1  0
 17 50  1  0
 17 51  1  0
 27 52  1  0
 28 53  1  0
 29 54  1  0
 30 55  1  0
 31 56  1  0
 32 57  1  0
M  CHG  2  22  -1  25  -1
M  END
>  <filename_input>  (20) 
6XHT_V2V_docked.sdf

>  <pdb_id>  (20) 
6XHT_V2V

>  <pose_rank>  (20) 
19

>  <num_atoms_heavy>  (20) 
34

>  <num_torsions>  (20) 
12

>  <pose>  (20) 
[7.1489565073196015, -12.55916703137638, 111.69980915933415, -1.4805164113266602, -1.5151832761666268, -3.0197457613569596, -3.954911250623611, -2.040523958591673, -1.67895441446897, -2.6646413094044386, 1.0962321299321793, -0.30484202070321065, -0.46304795155778644, 0.47578814419102805, -0.5362244017524073, -0.11562705514940394, -0.3482805936880542, 0.006547954061086013]

>  <energy>  (20) 
-417.9723124017829

>  <inter_energy>  (20) 
-423.14827084959177

>  <intra_energy>  (20) 
12.535683978347869

>  <rmsd>  (20) 
9.77485

>  <sdf_rank>  (20) 
0

$$$$

     RDKit          3D

 57 58  0  0  0  0  0  0  0  0999 V2000
   11.7555   -3.2456  115.7671 C   0  0  0  0  0  0  0  0  0  0  0  0
   10.6171   -4.1731  115.5814 C   0  0  0  0  0  0  0  0  0  0  0  0
   10.9596   -4.1679  113.0430 C   0  0  0  0  0  0  0  0  0  0  0  0
   12.4705   -2.8011  114.5469 C   0  0  0  0  0  0  0  0  0  0  0  0
    9.1481   -5.5699  114.0983 C   0  0  2  0  0  0  0  0  0  0  0  0
    8.1766   -4.9247  113.0384 C   0  0  1  0  0  0  0  0  0  0  0  0
    7.3913   -6.2205  112.5659 C   0  0  1  0  0  0  0  0  0  0  0  0
    8.2460   -7.2080  112.7114 C   0  0  1  0  0  0  0  0  0  0  0  0
    8.7927   -7.6945  111.3790 C   0  0  0  0  0  0  0  0  0  0  0  0
    8.3146  -10.3753  105.2718 C   0  0  0  0  0  0  0  0  0  0  0  0
    7.1610   -9.7287  104.4052 C   0  0  2  0  0  0  0  0  0  0  0  0
    7.1081  -10.4042  103.0536 C   0  0  2  0  0  0  0  0  0  0  0  0
    6.3033   -9.5839  102.0015 C   0  0  2  0  0  0  0  0  0  0  0  0
    5.8709   -8.2711  102.6279 C   0  0  0  0  0  0  0  0  0  0  0  0
   10.2543   -4.6122  114.2533 N   0  0  0  0  0  0  0  0  0  0  0  0
   12.0918   -3.2367  113.2172 N   0  0  0  0  0  0  0  0  0  0  0  0
   13.5995   -1.9013  114.6934 N   0  0  0  0  0  0  0  0  0  0  0  0
   10.6187   -4.5743  111.9692 O   0  0  0  0  0  0  0  0  0  0  0  0
    9.5822   -6.6325  113.5047 O   0  0  0  0  0  0  0  0  0  0  0  0
    9.3412   -9.0197  111.4995 O   0  0  0  0  0  0  0  0  0  0  0  0
   10.9955  -10.7668  110.5206 O   0  0  0  0  0  0  0  0  0  0  0  0
   10.9414   -8.4262  109.5712 O   0  0  0  0  0  0  0  0  0  0  0  0
    9.0588  -10.0466  109.0036 O   0  0  0  0  0  0  0  0  0  0  0  0
    7.5737   -8.1415  107.9530 O   0  0  0  0  0  0  0  0  0  0  0  0
    9.8359   -8.6722  106.9314 O   0  0  0  0  0  0  0  0  0  0  0  0
    7.8533  -10.3235  106.6371 O   0  0  0  0  0  0  0  0  0  0  0  0
    6.7894   -7.2031  102.3823 O   0  0  0  0  0  0  0  0  0  0  0  0
    5.1365  -10.2646  101.5179 O   0  0  0  0  0  0  0  0  0  0  0  0
    6.5538  -11.6991  103.2414 O   0  0  0  0  0  0  0  0  0  0  0  0
    7.3088   -8.3240  104.2867 O   0  0  0  0  0  0  0  0  0  0  0  0
    6.2168   -6.4051  113.4628 O   0  0  0  0  0  0  0  0  0  0  0  0
    7.3348   -4.0125  113.5475 O   0  0  0  0  0  0  0  0  0  0  0  0
   10.1676   -9.5822  110.1485 P   0  0  2  0  0  0  0  0  0  0  0  0
    8.5983   -9.2400  107.6290 P   0  0  1  0  0  0  0  0  0  0  0  0
   12.0579   -2.9012  116.7671 H   0  0  0  0  0  0  0  0  0  0  0  0
   10.0479   -4.5277  116.4533 H   0  0  0  0  0  0  0  0  0  0  0  0
    8.6990   -5.7966  115.0765 H   0  0  0  0  0  0  0  0  0  0  0  0
    8.7016   -4.3580  112.2553 H   0  0  0  0  0  0  0  0  0  0  0  0
    7.0260   -6.1600  111.5301 H   0  0  0  0  0  0  0  0  0  0  0  0
    7.7126   -8.0135  113.2374 H   0  0  0  0  0  0  0  0  0  0  0  0
    7.9785   -7.7081  110.6394 H   0  0  0  0  0  0  0  0  0  0  0  0
    9.5932   -7.0116  111.0582 H   0  0  0  0  0  0  0  0  0  0  0  0
    8.4870  -11.4173  104.9645 H   0  0  0  0  0  0  0  0  0  0  0  0
    9.2668   -9.8394  105.1445 H   0  0  0  0  0  0  0  0  0  0  0  0
    6.2027   -9.8911  104.9202 H   0  0  0  0  0  0  0  0  0  0  0  0
    8.1263  -10.4766  102.6437 H   0  0  0  0  0  0  0  0  0  0  0  0
    6.9700   -9.4283  101.1406 H   0  0  0  0  0  0  0  0  0  0  0  0
    4.8906   -7.9919  102.2143 H   0  0  0  0  0  0  0  0  0  0  0  0
    5.8301   -8.4248  103.7164 H   0  0  0  0  0  0  0  0  0  0  0  0
   14.1123   -1.5786  113.8604 H   0  0  0  0  0  0  0  0  0  0  0  0
   13.8882   -1.5855  115.6303 H   0  0  0  0  0  0  0  0  0  0  0  0
    7.1059   -6.8350  103.2451 H   0  0  0  0  0  0  0  0  0  0  0  0
    4.5963  -10.5797  102.2854 H   0  0  0  0  0  0  0  0  0  0  0  0
    6.4736  -11.8864  104.2102 H   0  0  0  0  0  0  0  0  0  0  0  0
    7.3514   -7.9194  105.1892 H   0  0  0  0  0  0  0  0  0  0  0  0
    6.5118   -6.3587  114.4067 H   0  0  0  0  0  0  0  0  0  0  0  0
    7.3680   -4.0484  114.5363 H   0  0  0  0  0  0  0  0  0  0  0  0
  1  2  2  0
  1  4  1  0
  2 15  1  0
  3 15  1  0
  3 16  1  0
  3 18  2  0
  4 16  2  0
  4 17  1  0
  5  6  1  0
  5 15  1  0
  5 19  1  0
  6  7  1  0
  6 32  1  0
  7  8  1  0
  7 31  1  0
  8  9  1  0
  8 19  1  0
  9 20  1  0
 10 11  1  0
 10 26  1  0
 11 12  1  0
 11 30  1  0
 12 13  1  0
 12 29  1  0
 13 14  1  0
 13 28  1  0
 14 27  1  0
 20 33  1  0
 21 33  2  0
 33 22  1  6
 23 33  1  0
 23 34  1  0
 24 34  2  0
 34 25  1  6
 26 34  1  0
  1 35  1  0
  2 36  1  0
  5 37  1  1
  6 38  1  6
  7 39  1  6
  8 40  1  1
  9 41  1  0
  9 42  1  0
 10 43  1  0
 10 44  1  0
 11 45  1  1
 12 46  1  6
 13 47  1  6
 14 48  1  0
 14 49  1  0
 17 50  1  0
 17 51  1  0
 27 52  1  0
 28 53  1  0
 29 54  1  0
 30 55  1  0
 31 56  1  0
 32 57  1  0
M  CHG  2  22  -1  25  -1
M  END
>  <filename_input>  (21) 
6XHT_V2V_docked.sdf

>  <pdb_id>  (21) 
6XHT_V2V

>  <pose_rank>  (21) 
20

>  <num_atoms_heavy>  (21) 
34

>  <num_torsions>  (21) 
12

>  <pose>  (21) 
[9.341244796713424, -9.019667192212113, 111.49953505929862, -3.600915640436743, 0.21583519947475094, -2.7081687541890096, -0.25158584915693055, -3.233293376835802, 0.10824710444481116, -1.2559695093876964, 1.4605907984685838, 0.33841140252826224, 0.3155695902598725, -1.4423666086042701, -1.4068247954818929, -0.2964807462135187, 2.4216303410750997, -3.0574682236366173]

>  <energy>  (21) 
-370.2292755505106

>  <inter_energy>  (21) 
-521.2010495379924

>  <intra_energy>  (21) 
148.72181394198435

>  <rmsd>  (21) 
4.80105

>  <sdf_rank>  (21) 
0

$$$$

     RDKit          3D

 57 58  0  0  0  0  0  0  0  0999 V2000
    9.4860   -9.5991  111.8005 C   0  0  0  0  0  0  0  0  0  0  0  0
    9.2094   -9.5211  110.3486 C   0  0  0  0  0  0  0  0  0  0  0  0
    7.7664  -11.6346  110.4570 C   0  0  0  0  0  0  0  0  0  0  0  0
    8.8755  -10.7266  112.5447 C   0  0  0  0  0  0  0  0  0  0  0  0
    8.0703  -10.3890  108.2852 C   0  0  2  0  0  0  0  0  0  0  0  0
    7.7656   -8.8611  108.0485 C   0  0  1  0  0  0  0  0  0  0  0  0
    8.0160   -8.7737  106.4837 C   0  0  1  0  0  0  0  0  0  0  0  0
    8.9198   -9.6938  106.2320 C   0  0  1  0  0  0  0  0  0  0  0  0
   10.2881   -9.0929  105.9537 C   0  0  0  0  0  0  0  0  0  0  0  0
   15.1986   -6.6838  108.6973 C   0  0  0  0  0  0  0  0  0  0  0  0
   15.4045   -7.6612  109.9230 C   0  0  2  0  0  0  0  0  0  0  0  0
   15.4281   -9.0899  109.4289 C   0  0  2  0  0  0  0  0  0  0  0  0
   14.6276  -10.0588  110.3495 C   0  0  2  0  0  0  0  0  0  0  0  0
   15.5932  -11.0397  110.9886 C   0  0  0  0  0  0  0  0  0  0  0  0
    8.3677  -10.5139  109.7208 N   0  0  0  0  0  0  0  0  0  0  0  0
    8.0427  -11.7255  111.9044 N   0  0  0  0  0  0  0  0  0  0  0  0
    9.1158  -10.8267  113.9723 N   0  0  0  0  0  0  0  0  0  0  0  0
    7.0690  -12.4213  109.8834 O   0  0  0  0  0  0  0  0  0  0  0  0
    9.1503  -10.5920  107.6053 O   0  0  0  0  0  0  0  0  0  0  0  0
   10.5601   -7.9952  106.8440 O   0  0  0  0  0  0  0  0  0  0  0  0
   12.9511   -9.0104  106.8523 O   0  0  0  0  0  0  0  0  0  0  0  0
   11.9564   -8.1346  109.0032 O   0  0  0  0  0  0  0  0  0  0  0  0
   12.7776   -6.4833  107.2451 O   0  0  0  0  0  0  0  0  0  0  0  0
   13.2727   -3.9215  107.6067 O   0  0  0  0  0  0  0  0  0  0  0  0
   11.8222   -5.1642  109.2783 O   0  0  0  0  0  0  0  0  0  0  0  0
   14.3801   -5.6043  109.1918 O   0  0  0  0  0  0  0  0  0  0  0  0
   15.5173  -12.3507  110.4229 O   0  0  0  0  0  0  0  0  0  0  0  0
   13.6161  -10.8019  109.6543 O   0  0  0  0  0  0  0  0  0  0  0  0
   16.7890   -9.4829  109.3148 O   0  0  0  0  0  0  0  0  0  0  0  0
   14.4237   -7.4674  110.9278 O   0  0  0  0  0  0  0  0  0  0  0  0
    6.7366   -9.0895  105.7899 O   0  0  0  0  0  0  0  0  0  0  0  0
    6.5114   -8.4964  108.3550 O   0  0  0  0  0  0  0  0  0  0  0  0
   12.1020   -7.9759  107.5126 P   0  0  2  0  0  0  0  0  0  0  0  0
   13.0204   -5.2530  108.3312 P   0  0  1  0  0  0  0  0  0  0  0  0
   10.1170   -8.8529  112.3055 H   0  0  0  0  0  0  0  0  0  0  0  0
    9.6440   -8.7083  109.7482 H   0  0  0  0  0  0  0  0  0  0  0  0
    7.2654  -11.0825  107.9999 H   0  0  0  0  0  0  0  0  0  0  0  0
    8.3717   -8.1939  108.6791 H   0  0  0  0  0  0  0  0  0  0  0  0
    8.3533   -7.7822  106.1471 H   0  0  0  0  0  0  0  0  0  0  0  0
    8.5561  -10.2663  105.3659 H   0  0  0  0  0  0  0  0  0  0  0  0
   11.0563   -9.8678  106.0927 H   0  0  0  0  0  0  0  0  0  0  0  0
   10.3023   -8.7174  104.9198 H   0  0  0  0  0  0  0  0  0  0  0  0
   16.1677   -6.3003  108.3456 H   0  0  0  0  0  0  0  0  0  0  0  0
   14.7254   -7.1948  107.8458 H   0  0  0  0  0  0  0  0  0  0  0  0
   16.3718   -7.4332  110.3945 H   0  0  0  0  0  0  0  0  0  0  0  0
   14.9280   -9.1441  108.4506 H   0  0  0  0  0  0  0  0  0  0  0  0
   14.1173   -9.4370  111.0998 H   0  0  0  0  0  0  0  0  0  0  0  0
   16.6170  -10.6599  110.8559 H   0  0  0  0  0  0  0  0  0  0  0  0
   15.3197  -11.1243  112.0507 H   0  0  0  0  0  0  0  0  0  0  0  0
    8.7025  -11.6011  114.5111 H   0  0  0  0  0  0  0  0  0  0  0  0
    9.6997  -10.1232  114.4468 H   0  0  0  0  0  0  0  0  0  0  0  0
   15.4784  -13.0219  111.1496 H   0  0  0  0  0  0  0  0  0  0  0  0
   13.0190  -11.2406  110.3108 H   0  0  0  0  0  0  0  0  0  0  0  0
   17.1770   -9.5950  110.2187 H   0  0  0  0  0  0  0  0  0  0  0  0
   14.8445   -7.5506  111.8200 H   0  0  0  0  0  0  0  0  0  0  0  0
    6.0310   -9.2636  106.4621 H   0  0  0  0  0  0  0  0  0  0  0  0
    6.4076   -8.4662  109.3390 H   0  0  0  0  0  0  0  0  0  0  0  0
  1  2  2  0
  1  4  1  0
  2 15  1  0
  3 15  1  0
  3 16  1  0
  3 18  2  0
  4 16  2  0
  4 17  1  0
  5  6  1  0
  5 15  1  0
  5 19  1  0
  6  7  1  0
  6 32  1  0
  7  8  1  0
  7 31  1  0
  8  9  1  0
  8 19  1  0
  9 20  1  0
 10 11  1  0
 10 26  1  0
 11 12  1  0
 11 30  1  0
 12 13  1  0
 12 29  1  0
 13 14  1  0
 13 28  1  0
 14 27  1  0
 20 33  1  0
 21 33  2  0
 33 22  1  1
 23 33  1  0
 23 34  1  0
 24 34  2  0
 34 25  1  1
 26 34  1  0
  1 35  1  0
  2 36  1  0
  5 37  1  6
  6 38  1  1
  7 39  1  1
  8 40  1  6
  9 41  1  0
  9 42  1  0
 10 43  1  0
 10 44  1  0
 11 45  1  1
 12 46  1  6
 13 47  1  1
 14 48  1  0
 14 49  1  0
 17 50  1  0
 17 51  1  0
 27 52  1  0
 28 53  1  0
 29 54  1  0
 30 55  1  0
 31 56  1  0
 32 57  1  0
M  CHG  2  22  -1  25  -1
M  END
>  <filename_input>  (22) 
6XHT_V2V_docked.sdf

>  <pdb_id>  (22) 
6XHT_V2V

>  <pose_rank>  (22) 
21

>  <num_atoms_heavy>  (22) 
34

>  <num_torsions>  (22) 
12

>  <pose>  (22) 
[10.560113456666885, -7.9952349449161915, 106.8440416981427, 1.743853322395498, -2.489032824316594, -3.2677494518053614, -2.9573368918917646, -3.182702322874662, -7.615011687857378, -5.074786542766894, -11.44036517258896, -7.142355566200447, 0.7585977257475651, 2.7829104816365042, 1.4014281471716192, 5.071281619570177, -0.3578661061205756, 6.526338669314932]

>  <energy>  (22) 
-518.4386497323893

>  <inter_energy>  (22) 
-546.190997775204

>  <intra_energy>  (22) 
25.30173076665393

>  <rmsd>  (22) 
8.34867

>  <sdf_rank>  (22) 
0

$$$$

     RDKit          3D

 57 58  0  0  0  0  0  0  0  0999 V2000
   15.0956  -11.0717  111.5080 C   0  0  0  0  0  0  0  0  0  0  0  0
   14.3358  -10.7472  110.2800 C   0  0  0  0  0  0  0  0  0  0  0  0
   15.1398   -8.3166  110.3622 C   0  0  0  0  0  0  0  0  0  0  0  0
   15.8684   -9.9725  112.1343 C   0  0  0  0  0  0  0  0  0  0  0  0
   13.6513   -9.1213  108.4921 C   0  0  2  0  0  0  0  0  0  0  0  0
   12.2322   -8.6027  108.9401 C   0  0  1  0  0  0  0  0  0  0  0  0
   11.7941   -7.8369  107.6208 C   0  0  1  0  0  0  0  0  0  0  0  0
   12.9174   -7.4224  107.0793 C   0  0  1  0  0  0  0  0  0  0  0  0
   13.1190   -5.9255  107.2516 C   0  0  0  0  0  0  0  0  0  0  0  0
    8.7720   -5.3729  111.7690 C   0  0  0  0  0  0  0  0  0  0  0  0
    7.5762   -5.3776  110.7345 C   0  0  2  0  0  0  0  0  0  0  0  0
    6.2891   -5.7097  111.4548 C   0  0  2  0  0  0  0  0  0  0  0  0
    5.5792   -4.4486  112.0318 C   0  0  2  0  0  0  0  0  0  0  0  0
    4.8120   -4.8443  113.2799 C   0  0  0  0  0  0  0  0  0  0  0  0
   14.3780   -9.4078  109.7390 N   0  0  0  0  0  0  0  0  0  0  0  0
   15.8949   -8.6285  111.5919 N   0  0  0  0  0  0  0  0  0  0  0  0
   16.6350  -10.2586  113.3327 N   0  0  0  0  0  0  0  0  0  0  0  0
   15.1444   -7.2287  109.8616 O   0  0  0  0  0  0  0  0  0  0  0  0
   14.1813   -8.0939  107.9145 O   0  0  0  0  0  0  0  0  0  0  0  0
   12.3370   -5.4229  108.3504 O   0  0  0  0  0  0  0  0  0  0  0  0
   12.8003   -2.9100  107.8833 O   0  0  0  0  0  0  0  0  0  0  0  0
   14.1746   -4.1348  109.6135 O   0  0  0  0  0  0  0  0  0  0  0  0
   11.7734   -3.4819  110.1612 O   0  0  0  0  0  0  0  0  0  0  0  0
   11.4673   -5.8850  111.1958 O   0  0  0  0  0  0  0  0  0  0  0  0
   11.7937   -3.8923  112.7338 O   0  0  0  0  0  0  0  0  0  0  0  0
    9.5527   -4.2009  111.4582 O   0  0  0  0  0  0  0  0  0  0  0  0
    3.4383   -4.4493  113.2427 O   0  0  0  0  0  0  0  0  0  0  0  0
    4.6661   -3.8356  111.1103 O   0  0  0  0  0  0  0  0  0  0  0  0
    6.5978   -6.6484  112.4761 O   0  0  0  0  0  0  0  0  0  0  0  0
    7.8153   -6.2581  109.6499 O   0  0  0  0  0  0  0  0  0  0  0  0
   11.1063   -8.8087  106.7260 O   0  0  0  0  0  0  0  0  0  0  0  0
   11.3605   -9.5771  109.2413 O   0  0  0  0  0  0  0  0  0  0  0  0
   12.8298   -3.9381  108.9646 P   0  0  2  0  0  0  0  0  0  0  0  0
   11.1884   -4.3905  111.4200 P   0  0  1  0  0  0  0  0  0  0  0  0
   15.0872  -12.0844  111.9373 H   0  0  0  0  0  0  0  0  0  0  0  0
   13.7397  -11.5246  109.7797 H   0  0  0  0  0  0  0  0  0  0  0  0
   13.6480  -10.0068  107.8396 H   0  0  0  0  0  0  0  0  0  0  0  0
   12.2584   -8.0081  109.8652 H   0  0  0  0  0  0  0  0  0  0  0  0
   11.1086   -6.9971  107.8069 H   0  0  0  0  0  0  0  0  0  0  0  0
   12.8754   -7.6954  106.0146 H   0  0  0  0  0  0  0  0  0  0  0  0
   14.1831   -5.7260  107.4464 H   0  0  0  0  0  0  0  0  0  0  0  0
   12.7945   -5.4198  106.3302 H   0  0  0  0  0  0  0  0  0  0  0  0
    8.3883   -5.3162  112.7983 H   0  0  0  0  0  0  0  0  0  0  0  0
    9.3731   -6.2914  111.6986 H   0  0  0  0  0  0  0  0  0  0  0  0
    7.4880   -4.3725  110.2963 H   0  0  0  0  0  0  0  0  0  0  0  0
    5.5732   -6.1403  110.7392 H   0  0  0  0  0  0  0  0  0  0  0  0
    6.3661   -3.7115  112.2498 H   0  0  0  0  0  0  0  0  0  0  0  0
    4.8590   -5.9380  113.3877 H   0  0  0  0  0  0  0  0  0  0  0  0
    5.2794   -4.3262  114.1302 H   0  0  0  0  0  0  0  0  0  0  0  0
   17.1800   -9.5114  113.7861 H   0  0  0  0  0  0  0  0  0  0  0  0
   16.6341  -11.2089  113.7300 H   0  0  0  0  0  0  0  0  0  0  0  0
    3.0979   -4.3515  114.1671 H   0  0  0  0  0  0  0  0  0  0  0  0
    3.9584   -3.3605  111.6139 H   0  0  0  0  0  0  0  0  0  0  0  0
    6.4599   -6.2291  113.3623 H   0  0  0  0  0  0  0  0  0  0  0  0
    8.0581   -7.1524  109.9982 H   0  0  0  0  0  0  0  0  0  0  0  0
   10.6298   -9.4817  107.2739 H   0  0  0  0  0  0  0  0  0  0  0  0
   11.2858   -9.6606  110.2250 H   0  0  0  0  0  0  0  0  0  0  0  0
  1  2  2  0
  1  4  1  0
  2 15  1  0
  3 15  1  0
  3 16  1  0
  3 18  2  0
  4 16  2  0
  4 17  1  0
  5  6  1  0
  5 15  1  0
  5 19  1  0
  6  7  1  0
  6 32  1  0
  7  8  1  0
  7 31  1  0
  8  9  1  0
  8 19  1  0
  9 20  1  0
 10 11  1  0
 10 26  1  0
 11 12  1  0
 11 30  1  0
 12 13  1  0
 12 29  1  0
 13 14  1  0
 13 28  1  0
 14 27  1  0
 20 33  1  0
 21 33  2  0
 33 22  1  1
 23 33  1  0
 23 34  1  0
 24 34  2  0
 34 25  1  1
 26 34  1  0
  1 35  1  0
  2 36  1  0
  5 37  1  6
  6 38  1  1
  7 39  1  1
  8 40  1  6
  9 41  1  0
  9 42  1  0
 10 43  1  0
 10 44  1  0
 11 45  1  6
 12 46  1  6
 13 47  1  1
 14 48  1  0
 14 49  1  0
 17 50  1  0
 17 51  1  0
 27 52  1  0
 28 53  1  0
 29 54  1  0
 30 55  1  0
 31 56  1  0
 32 57  1  0
M  CHG  2  22  -1  25  -1
M  END
>  <filename_input>  (23) 
6XHT_V2V_docked.sdf

>  <pdb_id>  (23) 
6XHT_V2V

>  <pose_rank>  (23) 
22

>  <num_atoms_heavy>  (23) 
34

>  <num_torsions>  (23) 
12

>  <pose>  (23) 
[12.337040640523288, -5.422885188153405, 108.35040809913215, 1.4228317104378663, -0.5400067069000473, -3.0104587106473, -2.0997866998312027, 2.067418554223695, 1.2658200888530051, 3.4677835707256275, 0.9844383934347389, 0.5315685607748158, 4.7060284662697525, 2.161468479112796, 1.0297390257300678, -0.7741608412807839, -0.6877203611346717, -3.669530785984578]

>  <energy>  (23) 
-470.2194805818523

>  <inter_energy>  (23) 
-509.03303669885156

>  <intra_energy>  (23) 
47.157896416633534

>  <rmsd>  (23) 
7.16861

>  <sdf_rank>  (23) 
0

$$$$

     RDKit          3D

 57 58  0  0  0  0  0  0  0  0999 V2000
   12.9016   -2.3879  109.9319 C   0  0  0  0  0  0  0  0  0  0  0  0
   13.3328   -3.3407  108.8845 C   0  0  0  0  0  0  0  0  0  0  0  0
   12.6948   -5.3337  110.3616 C   0  0  0  0  0  0  0  0  0  0  0  0
   12.3705   -2.9630  111.1908 C   0  0  0  0  0  0  0  0  0  0  0  0
   13.6090   -5.6893  108.0381 C   0  0  2  0  0  0  0  0  0  0  0  0
   14.2712   -6.9212  108.7644 C   0  0  1  0  0  0  0  0  0  0  0  0
   14.1296   -8.0164  107.6246 C   0  0  1  0  0  0  0  0  0  0  0  0
   13.0517   -7.6739  106.9557 C   0  0  1  0  0  0  0  0  0  0  0  0
   11.8761   -8.5905  107.2538 C   0  0  0  0  0  0  0  0  0  0  0  0
    8.1580   -7.5321  109.5225 C   0  0  0  0  0  0  0  0  0  0  0  0
    6.9171   -6.6220  109.8859 C   0  0  2  0  0  0  0  0  0  0  0  0
    6.8667   -6.4142  111.3826 C   0  0  2  0  0  0  0  0  0  0  0  0
    8.2242   -6.7273  112.0800 C   0  0  2  0  0  0  0  0  0  0  0  0
    7.9792   -6.9299  113.5638 C   0  0  0  0  0  0  0  0  0  0  0  0
   13.2165   -4.7630  109.1119 N   0  0  0  0  0  0  0  0  0  0  0  0
   12.2692   -4.3915  111.4154 N   0  0  0  0  0  0  0  0  0  0  0  0
   11.9270   -2.0574  112.2343 N   0  0  0  0  0  0  0  0  0  0  0  0
   12.6131   -6.5219  110.4880 O   0  0  0  0  0  0  0  0  0  0  0  0
   12.5481   -6.1907  107.4966 O   0  0  0  0  0  0  0  0  0  0  0  0
   11.5429   -8.5632  108.6537 O   0  0  0  0  0  0  0  0  0  0  0  0
   10.3413   -9.7324  110.6378 O   0  0  0  0  0  0  0  0  0  0  0  0
   11.8834  -11.0675  109.1472 O   0  0  0  0  0  0  0  0  0  0  0  0
    9.5811  -10.4011  108.2829 O   0  0  0  0  0  0  0  0  0  0  0  0
    8.8833   -8.2945  106.8636 O   0  0  0  0  0  0  0  0  0  0  0  0
    7.3404  -10.3079  106.9570 O   0  0  0  0  0  0  0  0  0  0  0  0
    7.6041   -8.7705  109.0334 O   0  0  0  0  0  0  0  0  0  0  0  0
    8.8541   -6.1551  114.3878 O   0  0  0  0  0  0  0  0  0  0  0  0
    9.2025   -5.6904  111.9167 O   0  0  0  0  0  0  0  0  0  0  0  0
    5.8176   -7.2249  111.8941 O   0  0  0  0  0  0  0  0  0  0  0  0
    5.7025   -7.1557  109.3869 O   0  0  0  0  0  0  0  0  0  0  0  0
   15.3354   -7.9396  106.7538 O   0  0  0  0  0  0  0  0  0  0  0  0
   15.5581   -6.7373  109.0961 O   0  0  0  0  0  0  0  0  0  0  0  0
   10.8550   -9.9728  109.2574 P   0  0  2  0  0  0  0  0  0  0  0  0
    8.3438   -9.4463  107.7261 P   0  0  1  0  0  0  0  0  0  0  0  0
   12.9721   -1.3004  109.7826 H   0  0  0  0  0  0  0  0  0  0  0  0
   13.7413   -2.9665  107.9342 H   0  0  0  0  0  0  0  0  0  0  0  0
   14.2450   -5.1746  107.3029 H   0  0  0  0  0  0  0  0  0  0  0  0
   13.8042   -7.1584  109.7317 H   0  0  0  0  0  0  0  0  0  0  0  0
   14.0492   -9.0438  108.0094 H   0  0  0  0  0  0  0  0  0  0  0  0
   13.3173   -7.7063  105.8888 H   0  0  0  0  0  0  0  0  0  0  0  0
   11.0046   -8.2593  106.6700 H   0  0  0  0  0  0  0  0  0  0  0  0
   12.1552   -9.6187  106.9799 H   0  0  0  0  0  0  0  0  0  0  0  0
    8.7706   -7.0524  108.7449 H   0  0  0  0  0  0  0  0  0  0  0  0
    8.8105   -7.6950  110.3929 H   0  0  0  0  0  0  0  0  0  0  0  0
    7.0436   -5.6451  109.3964 H   0  0  0  0  0  0  0  0  0  0  0  0
    6.6723   -5.3527  111.5955 H   0  0  0  0  0  0  0  0  0  0  0  0
    8.6266   -7.6329  111.6027 H   0  0  0  0  0  0  0  0  0  0  0  0
    6.9413   -6.6440  113.7896 H   0  0  0  0  0  0  0  0  0  0  0  0
    8.1722   -7.9898  113.7864 H   0  0  0  0  0  0  0  0  0  0  0  0
   11.5542   -2.4330  113.1180 H   0  0  0  0  0  0  0  0  0  0  0  0
   11.9850   -1.0391  112.0914 H   0  0  0  0  0  0  0  0  0  0  0  0
    8.6534   -6.3329  115.3408 H   0  0  0  0  0  0  0  0  0  0  0  0
    9.5004   -5.3747  112.8065 H   0  0  0  0  0  0  0  0  0  0  0  0
    5.8399   -7.2077  112.8837 H   0  0  0  0  0  0  0  0  0  0  0  0
    5.1189   -7.4121  110.1444 H   0  0  0  0  0  0  0  0  0  0  0  0
   16.1472   -7.8879  107.3180 H   0  0  0  0  0  0  0  0  0  0  0  0
   15.6462   -6.7248  110.0821 H   0  0  0  0  0  0  0  0  0  0  0  0
  1  2  2  0
  1  4  1  0
  2 15  1  0
  3 15  1  0
  3 16  1  0
  3 18  2  0
  4 16  2  0
  4 17  1  0
  5  6  1  0
  5 15  1  0
  5 19  1  0
  6  7  1  0
  6 32  1  0
  7  8  1  0
  7 31  1  0
  8  9  1  0
  8 19  1  0
  9 20  1  0
 10 11  1  0
 10 26  1  0
 11 12  1  0
 11 30  1  0
 12 13  1  0
 12 29  1  0
 13 14  1  0
 13 28  1  0
 14 27  1  0
 20 33  1  0
 21 33  2  0
 33 22  1  1
 23 33  1  0
 23 34  1  0
 24 34  2  0
 34 25  1  6
 26 34  1  0
  1 35  1  0
  2 36  1  0
  5 37  1  6
  6 38  1  1
  7 39  1  1
  8 40  1  6
  9 41  1  0
  9 42  1  0
 10 43  1  0
 10 44  1  0
 11 45  1  6
 12 46  1  6
 13 47  1  6
 14 48  1  0
 14 49  1  0
 17 50  1  0
 17 51  1  0
 27 52  1  0
 28 53  1  0
 29 54  1  0
 30 55  1  0
 31 56  1  0
 32 57  1  0
M  CHG  2  22  -1  25  -1
M  END
>  <filename_input>  (24) 
6XHT_V2V_docked.sdf

>  <pdb_id>  (24) 
6XHT_V2V

>  <pose_rank>  (24) 
23

>  <num_atoms_heavy>  (24) 
34

>  <num_torsions>  (24) 
12

>  <pose>  (24) 
[11.54292018798639, -8.563237604539369, 108.65369137138977, 5.750890180693187, -0.18274884439760078, 2.4831451220727496, -18.651869787040315, -5.87182371398797, -16.27451912422888, -3.758351456489276, -0.5065719473555922, -1.4119044763128448, 3.4896077412983377, 8.232320482278908, 0.9850886542636751, -18.785882611581464, 12.545219113331415, -2.7853833390908425]

>  <energy>  (24) 
-452.15792998844705

>  <inter_energy>  (24) 
-543.976293292766

>  <intra_energy>  (24) 
94.88588752555093

>  <rmsd>  (24) 
5.10976

>  <sdf_rank>  (24) 
0

$$$$

     RDKit          3D

 57 58  0  0  0  0  0  0  0  0999 V2000
    6.7316  -10.5066  102.9440 C   0  0  0  0  0  0  0  0  0  0  0  0
    7.4963  -10.3077  104.1955 C   0  0  0  0  0  0  0  0  0  0  0  0
    7.0009   -7.7948  104.1602 C   0  0  0  0  0  0  0  0  0  0  0  0
    6.1157   -9.3056  102.3307 C   0  0  0  0  0  0  0  0  0  0  0  0
    8.3337   -8.8215  106.0391 C   0  0  2  0  0  0  0  0  0  0  0  0
    7.2296   -8.5152  107.1211 C   0  0  1  0  0  0  0  0  0  0  0  0
    8.0238   -8.9083  108.4379 C   0  0  1  0  0  0  0  0  0  0  0  0
    8.8634   -9.8463  108.0614 C   0  0  1  0  0  0  0  0  0  0  0  0
    8.4354  -11.2246  108.5390 C   0  0  0  0  0  0  0  0  0  0  0  0
    3.5721  -12.8144  114.4830 C   0  0  0  0  0  0  0  0  0  0  0  0
    3.9904  -13.4932  115.8484 C   0  0  2  0  0  0  0  0  0  0  0  0
    3.3070  -14.8361  115.9728 C   0  0  2  0  0  0  0  0  0  0  0  0
    2.7229  -15.3421  114.6200 C   0  0  2  0  0  0  0  0  0  0  0  0
    1.2451  -15.6352  114.8016 C   0  0  0  0  0  0  0  0  0  0  0  0
    7.6071   -8.9864  104.7703 N   0  0  0  0  0  0  0  0  0  0  0  0
    6.2425   -7.9817  102.9074 N   0  0  0  0  0  0  0  0  0  0  0  0
    5.3484   -9.4663  101.1096 N   0  0  0  0  0  0  0  0  0  0  0  0
    7.1189   -6.7267  104.6889 O   0  0  0  0  0  0  0  0  0  0  0  0
    8.8129   -9.9632  106.4092 O   0  0  0  0  0  0  0  0  0  0  0  0
    8.1108  -11.2068  109.9411 O   0  0  0  0  0  0  0  0  0  0  0  0
    8.4798  -13.5013  111.1015 O   0  0  0  0  0  0  0  0  0  0  0  0
    6.6060  -13.2325  109.4283 O   0  0  0  0  0  0  0  0  0  0  0  0
    6.3594  -12.2159  111.7517 O   0  0  0  0  0  0  0  0  0  0  0  0
    4.4056  -13.9649  112.0017 O   0  0  0  0  0  0  0  0  0  0  0  0
    6.4908  -14.2050  113.4290 O   0  0  0  0  0  0  0  0  0  0  0  0
    4.7927  -12.3005  113.9124 O   0  0  0  0  0  0  0  0  0  0  0  0
    0.6479  -16.2407  113.6520 O   0  0  0  0  0  0  0  0  0  0  0  0
    3.3657  -16.5268  114.1279 O   0  0  0  0  0  0  0  0  0  0  0  0
    2.2968  -14.7143  116.9647 O   0  0  0  0  0  0  0  0  0  0  0  0
    3.7191  -12.6590  116.9617 O   0  0  0  0  0  0  0  0  0  0  0  0
    8.7596   -7.7041  108.9138 O   0  0  0  0  0  0  0  0  0  0  0  0
    6.8395   -7.2322  107.1609 O   0  0  0  0  0  0  0  0  0  0  0  0
    7.4180  -12.6171  110.5375 P   0  0  2  0  0  0  0  0  0  0  0  0
    5.5197  -13.2287  112.7623 P   0  0  1  0  0  0  0  0  0  0  0  0
    6.6251  -11.5022  102.4886 H   0  0  0  0  0  0  0  0  0  0  0  0
    7.9797  -11.1645  104.6876 H   0  0  0  0  0  0  0  0  0  0  0  0
    9.1185   -8.0580  105.9336 H   0  0  0  0  0  0  0  0  0  0  0  0
    6.2848   -9.0492  106.9418 H   0  0  0  0  0  0  0  0  0  0  0  0
    7.3754   -9.2591  109.2543 H   0  0  0  0  0  0  0  0  0  0  0  0
    9.8472   -9.5740  108.4714 H   0  0  0  0  0  0  0  0  0  0  0  0
    7.5506  -11.5442  107.9689 H   0  0  0  0  0  0  0  0  0  0  0  0
    9.2690  -11.9248  108.3811 H   0  0  0  0  0  0  0  0  0  0  0  0
    3.1165  -13.5556  113.8100 H   0  0  0  0  0  0  0  0  0  0  0  0
    2.8291  -12.0180  114.6367 H   0  0  0  0  0  0  0  0  0  0  0  0
    5.0793  -13.6488  115.8434 H   0  0  0  0  0  0  0  0  0  0  0  0
    4.0473  -15.5944  116.2677 H   0  0  0  0  0  0  0  0  0  0  0  0
    2.8959  -14.5465  113.8804 H   0  0  0  0  0  0  0  0  0  0  0  0
    1.1257  -16.3158  115.6575 H   0  0  0  0  0  0  0  0  0  0  0  0
    0.7377  -14.6732  114.9664 H   0  0  0  0  0  0  0  0  0  0  0  0
    4.9108   -8.6468  100.6647 H   0  0  0  0  0  0  0  0  0  0  0  0
    5.2413  -10.3998  100.6878 H   0  0  0  0  0  0  0  0  0  0  0  0
   -0.0168  -16.9146  113.9419 H   0  0  0  0  0  0  0  0  0  0  0  0
    3.6662  -17.0806  114.8916 H   0  0  0  0  0  0  0  0  0  0  0  0
    2.7090  -14.7640  117.8634 H   0  0  0  0  0  0  0  0  0  0  0  0
    3.8826  -13.1619  117.7986 H   0  0  0  0  0  0  0  0  0  0  0  0
    8.7671   -7.6918  109.9037 H   0  0  0  0  0  0  0  0  0  0  0  0
    6.7516   -6.9431  108.1037 H   0  0  0  0  0  0  0  0  0  0  0  0
  1  2  2  0
  1  4  1  0
  2 15  1  0
  3 15  1  0
  3 16  1  0
  3 18  2  0
  4 16  2  0
  4 17  1  0
  5  6  1  0
  5 15  1  0
  5 19  1  0
  6  7  1  0
  6 32  1  0
  7  8  1  0
  7 31  1  0
  8  9  1  0
  8 19  1  0
  9 20  1  0
 10 11  1  0
 10 26  1  0
 11 12  1  0
 11 30  1  0
 12 13  1  0
 12 29  1  0
 13 14  1  0
 13 28  1  0
 14 27  1  0
 20 33  1  0
 21 33  2  0
 33 22  1  6
 23 33  1  0
 23 34  1  0
 24 34  2  0
 34 25  1  1
 26 34  1  0
  1 35  1  0
  2 36  1  0
  5 37  1  6
  6 38  1  6
  7 39  1  1
  8 40  1  6
  9 41  1  0
  9 42  1  0
 10 43  1  0
 10 44  1  0
 11 45  1  6
 12 46  1  1
 13 47  1  6
 14 48  1  0
 14 49  1  0
 17 50  1  0
 17 51  1  0
 27 52  1  0
 28 53  1  0
 29 54  1  0
 30 55  1  0
 31 56  1  0
 32 57  1  0
M  CHG  2  22  -1  25  -1
M  END
>  <filename_input>  (25) 
6XHT_V2V_docked.sdf

>  <pdb_id>  (25) 
6XHT_V2V

>  <pose_rank>  (25) 
24

>  <num_atoms_heavy>  (25) 
34

>  <num_torsions>  (25) 
12

>  <pose>  (25) 
[8.11083586402576, -11.206789034308018, 109.94109180861072, -2.776664370860378, 2.64633202967875, -4.996360208132177, -1.481450619352129, -20.63497371242685, -12.295243215770212, -8.912031895930928, 5.063966714029721, 13.11436377455484, 3.4383882327395634, 2.600425105537895, 0.21510949279882038, 18.26625737639377, -33.33527429198047, -13.467911879005907]

>  <energy>  (25) 
-412.8497872024129

>  <inter_energy>  (25) 
-464.3018076737587

>  <intra_energy>  (25) 
44.922074711038974

>  <rmsd>  (25) 
9.95911

>  <sdf_rank>  (25) 
0

$$$$

     RDKit          3D

 57 58  0  0  0  0  0  0  0  0999 V2000
   11.9020   -4.1610  111.3450 C   0  0  0  0  0  0  0  0  0  0  0  0
   12.3160   -5.0160  110.2100 C   0  0  0  0  0  0  0  0  0  0  0  0
   13.6130   -3.0760  109.1540 C   0  0  0  0  0  0  0  0  0  0  0  0
   12.3720   -2.7550  111.3380 C   0  0  0  0  0  0  0  0  0  0  0  0
   13.5870   -5.3530  108.0700 C   0  0  2  0  0  0  0  0  0  0  0  0
   14.3370   -6.5510  108.7670 C   0  0  1  0  0  0  0  0  0  0  0  0
   14.2500   -7.6350  107.6110 C   0  0  1  0  0  0  0  0  0  0  0  0
   13.1430   -7.3520  106.9620 C   0  0  1  0  0  0  0  0  0  0  0  0
   12.0330   -8.3470  107.2600 C   0  0  0  0  0  0  0  0  0  0  0  0
    7.9070   -8.9770  106.0270 C   0  0  0  0  0  0  0  0  0  0  0  0
    7.0110   -9.5620  104.8630 C   0  0  2  0  0  0  0  0  0  0  0  0
    7.7590   -9.4610  103.5530 C   0  0  2  0  0  0  0  0  0  0  0  0
    6.9580  -10.0530  102.3550 C   0  0  2  0  0  0  0  0  0  0  0  0
    6.0450   -8.9780  101.7950 C   0  0  0  0  0  0  0  0  0  0  0  0
   13.1510   -4.4710  109.1640 N   0  0  0  0  0  0  0  0  0  0  0  0
   13.1990   -2.2130  110.2780 N   0  0  0  0  0  0  0  0  0  0  0  0
   11.9950   -1.8920  112.4420 N   0  0  0  0  0  0  0  0  0  0  0  0
   14.3120   -2.6840  108.2640 O   0  0  0  0  0  0  0  0  0  0  0  0
   12.5530   -5.9130  107.5340 O   0  0  0  0  0  0  0  0  0  0  0  0
   11.6990   -8.3430  108.6600 O   0  0  0  0  0  0  0  0  0  0  0  0
   10.7550   -9.6370  110.7050 O   0  0  0  0  0  0  0  0  0  0  0  0
   11.9370  -10.8990  108.8630 O   0  0  0  0  0  0  0  0  0  0  0  0
    9.5780  -10.0240  108.4610 O   0  0  0  0  0  0  0  0  0  0  0  0
    7.3150   -9.7860  109.7880 O   0  0  0  0  0  0  0  0  0  0  0  0
    8.4400   -7.7130  108.8500 O   0  0  0  0  0  0  0  0  0  0  0  0
    7.2790   -9.4010  107.2540 O   0  0  0  0  0  0  0  0  0  0  0  0
    5.3670   -9.3830  100.6030 O   0  0  0  0  0  0  0  0  0  0  0  0
    6.1590  -11.1910  102.7090 O   0  0  0  0  0  0  0  0  0  0  0  0
    9.0090  -10.1160  103.7200 O   0  0  0  0  0  0  0  0  0  0  0  0
    5.7450   -8.9280  104.7970 O   0  0  0  0  0  0  0  0  0  0  0  0
   15.4360   -7.4670  106.7260 O   0  0  0  0  0  0  0  0  0  0  0  0
   15.6140   -6.2900  109.0850 O   0  0  0  0  0  0  0  0  0  0  0  0
   11.0200   -9.7660  109.2420 P   0  0  2  0  0  0  0  0  0  0  0  0
    8.1490   -9.2000  108.6380 P   0  0  1  0  0  0  0  0  0  0  0  0
   11.2729   -4.5518  112.1584 H   0  0  0  0  0  0  0  0  0  0  0  0
   11.9885   -6.0650  110.1627 H   0  0  0  0  0  0  0  0  0  0  0  0
   14.1783   -4.7869  107.3352 H   0  0  0  0  0  0  0  0  0  0  0  0
   13.8999   -6.8331  109.7362 H   0  0  0  0  0  0  0  0  0  0  0  0
   14.2411   -8.6713  107.9797 H   0  0  0  0  0  0  0  0  0  0  0  0
   13.3952   -7.3504  105.8913 H   0  0  0  0  0  0  0  0  0  0  0  0
   11.1407   -8.0760  106.6765 H   0  0  0  0  0  0  0  0  0  0  0  0
   12.3817   -9.3536  106.9857 H   0  0  0  0  0  0  0  0  0  0  0  0
    8.9297   -9.3768  105.9616 H   0  0  0  0  0  0  0  0  0  0  0  0
    7.9842   -7.8813  105.9682 H   0  0  0  0  0  0  0  0  0  0  0  0
    6.8092  -10.6223  105.0751 H   0  0  0  0  0  0  0  0  0  0  0  0
    7.9100   -8.4008  103.3018 H   0  0  0  0  0  0  0  0  0  0  0  0
    7.6968  -10.3915  101.6136 H   0  0  0  0  0  0  0  0  0  0  0  0
    5.2929   -8.7256  102.5570 H   0  0  0  0  0  0  0  0  0  0  0  0
    6.6753   -8.1143  101.5365 H   0  0  0  0  0  0  0  0  0  0  0  0
   12.3093   -0.9113  112.4596 H   0  0  0  0  0  0  0  0  0  0  0  0
   11.4131   -2.2602  113.2080 H   0  0  0  0  0  0  0  0  0  0  0  0
    4.5425   -9.8755  100.8434 H   0  0  0  0  0  0  0  0  0  0  0  0
    6.1076  -11.2643  103.6949 H   0  0  0  0  0  0  0  0  0  0  0  0
    9.2021  -10.2172  104.6857 H   0  0  0  0  0  0  0  0  0  0  0  0
    5.4114   -8.7609  105.7140 H   0  0  0  0  0  0  0  0  0  0  0  0
   16.2480   -7.3520  107.2806 H   0  0  0  0  0  0  0  0  0  0  0  0
   15.7113   -6.2701  110.0700 H   0  0  0  0  0  0  0  0  0  0  0  0
  1  2  2  0
  1  4  1  0
  2 15  1  0
  3 15  1  0
  3 16  1  0
  3 18  2  0
  4 16  2  0
  4 17  1  0
  5  6  1  0
  5 15  1  0
  5 19  1  0
  6  7  1  0
  6 32  1  0
  7  8  1  0
  7 31  1  0
  8  9  1  0
  8 19  1  0
  9 20  1  0
 10 11  1  0
 10 26  1  0
 11 12  1  0
 11 30  1  0
 12 13  1  0
 12 29  1  0
 13 14  1  0
 13 28  1  0
 14 27  1  0
 20 33  1  0
 21 33  2  0
 33 22  1  1
 23 33  1  0
 23 34  1  0
 24 34  2  0
 34 25  1  1
 26 34  1  0
  1 35  1  0
  2 36  1  0
  5 37  1  6
  6 38  1  1
  7 39  1  1
  8 40  1  6
  9 41  1  0
  9 42  1  0
 10 43  1  0
 10 44  1  0
 11 45  1  1
 12 46  1  6
 13 47  1  6
 14 48  1  0
 14 49  1  0
 17 50  1  0
 17 51  1  0
 27 52  1  0
 28 53  1  0
 29 54  1  0
 30 55  1  0
 31 56  1  0
 32 57  1  0
M  CHG  2  22  -1  25  -1
M  END
>  <filename_input>  (26) 
6XHT_V2V_docked.sdf

>  <pdb_id>  (26) 
6XHT_V2V

>  <pose_rank>  (26) 
25

>  <num_atoms_heavy>  (26) 
34

>  <num_torsions>  (26) 
12

>  <pose>  (26) 
[11.699, -8.343, 108.66, 1e-06, 1e-06, 1e-06, 0.0, 0.0, 0.0, 0.0, 0.0, 0.0, 0.0, 0.0, 0.0, 0.0, 0.0, 0.0]

>  <energy>  (26) 
-802.3413273678683

>  <inter_energy>  (26) 
-831.3316211306253

>  <intra_energy>  (26) 
28.365524866083096

>  <rmsd>  (26) 
0.0

>  <sdf_rank>  (26) 
0

$$$$
