
     RDKit          3D

 19 19  0  0  0  0  0  0  0  0999 V2000
   21.4076    9.3415   34.5983 C   0  0  0  0  0  0  0  0  0  0  0  0
   22.1923   10.2398   35.1932 C   0  0  0  0  0  0  0  0  0  0  0  0
   22.9043   11.2922   34.3469 C   0  0  0  0  0  0  0  0  0  0  0  0
   22.7172   11.2914   33.0547 C   0  0  0  0  0  0  0  0  0  0  0  0
   21.8168   10.2703   32.3767 C   0  0  0  0  0  0  0  0  0  0  0  0
   21.1958    7.7903   36.3167 O   0  0  0  0  0  0  0  0  0  0  0  0
   21.2066    9.3608   33.0934 C   0  0  0  0  0  0  0  0  0  0  0  0
   20.6730    8.2611   35.3852 C   0  0  0  0  0  0  0  0  0  0  0  0
   23.4298   12.7312   36.1616 C   0  0  0  0  0  0  0  0  0  0  0  0
   23.7453   12.2871   34.8672 O   0  0  0  0  0  0  0  0  0  0  0  0
   23.3509   12.2518   32.2705 O   0  0  0  0  0  0  0  0  0  0  0  0
   22.3258   10.2230   36.2849 H   0  0  0  0  0  0  0  0  0  0  0  0
   21.6787   10.2960   31.2857 H   0  0  0  0  0  0  0  0  0  0  0  0
   20.5547    8.6180   32.6105 H   0  0  0  0  0  0  0  0  0  0  0  0
   19.6688    7.9315   35.0805 H   0  0  0  0  0  0  0  0  0  0  0  0
   23.9010   12.0678   36.9018 H   0  0  0  0  0  0  0  0  0  0  0  0
   23.8029   13.7569   36.2984 H   0  0  0  0  0  0  0  0  0  0  0  0
   22.3385   12.7166   36.2984 H   0  0  0  0  0  0  0  0  0  0  0  0
   23.2147   12.2586   31.2899 H   0  0  0  0  0  0  0  0  0  0  0  0
  1  2  2  0
  1  7  1  0
  1  8  1  0
  2  3  1  0
  3  4  2  0
  3 10  1  0
  4  5  1  0
  4 11  1  0
  5  7  2  0
  6  8  2  0
  9 10  1  0
  2 12  1  0
  5 13  1  0
  7 14  1  0
  8 15  1  0
  9 16  1  0
  9 17  1  0
  9 18  1  0
 11 19  1  0
M  END
>  <filename_input>  (1) 
6XM9_V55_docked.sdf

>  <pdb_id>  (1) 
6XM9_V55

>  <pose_rank>  (1) 
0

>  <num_atoms_heavy>  (1) 
11

>  <num_torsions>  (1) 
2

>  <pose>  (1) 
[21.407636938635694, 9.341511339810802, 34.598345094074595, -0.668631500750034, -0.17630872110551954, -3.0833227742759313, -0.7579219036943459, -0.6227929583953815]

>  <energy>  (1) 
-454.93986351404845

>  <inter_energy>  (1) 
-467.64576525495346

>  <intra_energy>  (1) 
0.0

>  <rmsd>  (1) 
3.81863

>  <sdf_rank>  (1) 
0

$$$$

     RDKit          3D

 19 19  0  0  0  0  0  0  0  0999 V2000
   22.0203    9.5963   35.5357 C   0  0  0  0  0  0  0  0  0  0  0  0
   21.8701    9.4711   34.2173 C   0  0  0  0  0  0  0  0  0  0  0  0
   22.5809   10.4485   33.2845 C   0  0  0  0  0  0  0  0  0  0  0  0
   23.3307   11.3820   33.8053 C   0  0  0  0  0  0  0  0  0  0  0  0
   23.5072   11.5209   35.3096 C   0  0  0  0  0  0  0  0  0  0  0  0
   20.7725    7.7204   36.1081 O   0  0  0  0  0  0  0  0  0  0  0  0
   22.8973   10.6909   36.1174 C   0  0  0  0  0  0  0  0  0  0  0  0
   21.3335    8.6569   36.5215 C   0  0  0  0  0  0  0  0  0  0  0  0
   21.3343    9.8199   31.3635 C   0  0  0  0  0  0  0  0  0  0  0  0
   22.4995   10.4053   31.8848 O   0  0  0  0  0  0  0  0  0  0  0  0
   23.9945   12.2742   32.9674 O   0  0  0  0  0  0  0  0  0  0  0  0
   21.2391    8.6702   33.8047 H   0  0  0  0  0  0  0  0  0  0  0  0
   24.1464   12.3175   35.7180 H   0  0  0  0  0  0  0  0  0  0  0  0
   23.0188   10.7855   37.2066 H   0  0  0  0  0  0  0  0  0  0  0  0
   21.3662    8.8581   37.6025 H   0  0  0  0  0  0  0  0  0  0  0  0
   20.6860    9.4942   32.1904 H   0  0  0  0  0  0  0  0  0  0  0  0
   20.7988   10.5560   30.7459 H   0  0  0  0  0  0  0  0  0  0  0  0
   21.6053    8.9509   30.7459 H   0  0  0  0  0  0  0  0  0  0  0  0
   24.5650   12.9851   33.3537 H   0  0  0  0  0  0  0  0  0  0  0  0
  1  2  2  0
  1  7  1  0
  1  8  1  0
  2  3  1  0
  3  4  2  0
  3 10  1  0
  4  5  1  0
  4 11  1  0
  5  7  2  0
  6  8  2  0
  9 10  1  0
  2 12  1  0
  5 13  1  0
  7 14  1  0
  8 15  1  0
  9 16  1  0
  9 17  1  0
  9 18  1  0
 11 19  1  0
M  END
>  <filename_input>  (2) 
6XM9_V55_docked.sdf

>  <pdb_id>  (2) 
6XM9_V55

>  <pose_rank>  (2) 
1

>  <num_atoms_heavy>  (2) 
11

>  <num_torsions>  (2) 
2

>  <pose>  (2) 
[22.020327120618738, 9.59632095434353, 35.53573763187171, 1.7258458493557096, -1.417691134316535, -0.21981787575420708, 0.0038053249365348207, 0.3709626273798443]

>  <energy>  (2) 
-446.5480259091719

>  <inter_energy>  (2) 
-444.83451035162545

>  <intra_energy>  (2) 
0.0

>  <rmsd>  (2) 
4.20539

>  <sdf_rank>  (2) 
0

$$$$

     RDKit          3D

 19 19  0  0  0  0  0  0  0  0999 V2000
   23.2104   11.1889   34.7360 C   0  0  0  0  0  0  0  0  0  0  0  0
   22.3904   10.3138   35.3177 C   0  0  0  0  0  0  0  0  0  0  0  0
   21.4553    9.4719   34.4532 C   0  0  0  0  0  0  0  0  0  0  0  0
   21.4901    9.6246   33.1570 C   0  0  0  0  0  0  0  0  0  0  0  0
   22.4303   10.6186   32.4928 C   0  0  0  0  0  0  0  0  0  0  0  0
   24.7835   12.8821   34.9857 O   0  0  0  0  0  0  0  0  0  0  0  0
   23.2318   11.3487   33.2262 C   0  0  0  0  0  0  0  0  0  0  0  0
   24.1646   12.0637   35.5424 C   0  0  0  0  0  0  0  0  0  0  0  0
   20.8286    8.0606   36.2575 C   0  0  0  0  0  0  0  0  0  0  0  0
   20.5587    8.5182   34.9575 O   0  0  0  0  0  0  0  0  0  0  0  0
   20.6511    8.8561   32.3542 O   0  0  0  0  0  0  0  0  0  0  0  0
   22.3875   10.1992   36.4117 H   0  0  0  0  0  0  0  0  0  0  0  0
   22.4367   10.7237   31.3979 H   0  0  0  0  0  0  0  0  0  0  0  0
   23.9139   12.0707   32.7535 H   0  0  0  0  0  0  0  0  0  0  0  0
   24.2678   11.9260   36.6289 H   0  0  0  0  0  0  0  0  0  0  0  0
   20.4113    8.7681   36.9892 H   0  0  0  0  0  0  0  0  0  0  0  0
   20.3692    7.0715   36.4008 H   0  0  0  0  0  0  0  0  0  0  0  0
   21.9165    7.9839   36.4008 H   0  0  0  0  0  0  0  0  0  0  0  0
   20.6709    8.9653   31.3704 H   0  0  0  0  0  0  0  0  0  0  0  0
  1  2  2  0
  1  7  1  0
  1  8  1  0
  2  3  1  0
  3  4  2  0
  3 10  1  0
  4  5  1  0
  4 11  1  0
  5  7  2  0
  6  8  2  0
  9 10  1  0
  2 12  1  0
  5 13  1  0
  7 14  1  0
  8 15  1  0
  9 16  1  0
  9 17  1  0
  9 18  1  0
 11 19  1  0
M  END
>  <filename_input>  (3) 
6XM9_V55_docked.sdf

>  <pdb_id>  (3) 
6XM9_V55

>  <pose_rank>  (3) 
2

>  <num_atoms_heavy>  (3) 
11

>  <num_torsions>  (3) 
2

>  <pose>  (3) 
[23.210447792682206, 11.188850492718128, 34.73600325507264, -3.0018133838858545, 4.403053393454538, 2.4693625273426374, -3.1761927342822283, -0.41680178800941314]

>  <energy>  (3) 
-457.877338040001

>  <inter_energy>  (3) 
-448.21007564801755

>  <intra_energy>  (3) 
0.0

>  <rmsd>  (3) 
0.93953

>  <sdf_rank>  (3) 
0

$$$$

     RDKit          3D

 19 19  0  0  0  0  0  0  0  0999 V2000
   21.7153    9.2385   35.4337 C   0  0  0  0  0  0  0  0  0  0  0  0
   22.3821   10.3258   35.0468 C   0  0  0  0  0  0  0  0  0  0  0  0
   22.4779   10.6583   33.5600 C   0  0  0  0  0  0  0  0  0  0  0  0
   21.8919    9.8693   32.7004 C   0  0  0  0  0  0  0  0  0  0  0  0
   21.1256    8.6320   33.1423 C   0  0  0  0  0  0  0  0  0  0  0  0
   20.7199    8.1337   37.2205 O   0  0  0  0  0  0  0  0  0  0  0  0
   21.0427    8.3359   34.4146 C   0  0  0  0  0  0  0  0  0  0  0  0
   21.5872    8.8472   36.9022 C   0  0  0  0  0  0  0  0  0  0  0  0
   24.0238   12.4228   33.9294 C   0  0  0  0  0  0  0  0  0  0  0  0
   23.1463   11.7778   33.0427 O   0  0  0  0  0  0  0  0  0  0  0  0
   21.9609   10.1652   31.3415 O   0  0  0  0  0  0  0  0  0  0  0  0
   22.8595   10.9781   35.7928 H   0  0  0  0  0  0  0  0  0  0  0  0
   20.6419    7.9872   32.3939 H   0  0  0  0  0  0  0  0  0  0  0  0
   20.4914    7.4421   34.7422 H   0  0  0  0  0  0  0  0  0  0  0  0
   22.2992    9.2305   37.6480 H   0  0  0  0  0  0  0  0  0  0  0  0
   23.7253   12.2034   34.9651 H   0  0  0  0  0  0  0  0  0  0  0  0
   25.0486   12.0615   33.7588 H   0  0  0  0  0  0  0  0  0  0  0  0
   23.9847   13.5088   33.7588 H   0  0  0  0  0  0  0  0  0  0  0  0
   21.5195    9.5724   30.6828 H   0  0  0  0  0  0  0  0  0  0  0  0
  1  2  2  0
  1  7  1  0
  1  8  1  0
  2  3  1  0
  3  4  2  0
  3 10  1  0
  4  5  1  0
  4 11  1  0
  5  7  2  0
  6  8  2  0
  9 10  1  0
  2 12  1  0
  5 13  1  0
  7 14  1  0
  8 15  1  0
  9 16  1  0
  9 17  1  0
  9 18  1  0
 11 19  1  0
M  END
>  <filename_input>  (4) 
6XM9_V55_docked.sdf

>  <pdb_id>  (4) 
6XM9_V55

>  <pose_rank>  (4) 
3

>  <num_atoms_heavy>  (4) 
11

>  <num_torsions>  (4) 
2

>  <pose>  (4) 
[21.715274076290264, 9.23846023682394, 35.433677720879494, -1.1965373193128175, -1.1666317167423412, -2.6350227750601114, 2.640744325308176, 0.18468526568940694]

>  <energy>  (4) 
-480.37074493040933

>  <inter_energy>  (4) 
-470.91601700999246

>  <intra_energy>  (4) 
0.0

>  <rmsd>  (4) 
3.70728

>  <sdf_rank>  (4) 
0

$$$$

     RDKit          3D

 19 19  0  0  0  0  0  0  0  0999 V2000
   21.8201    9.8820   34.1160 C   0  0  0  0  0  0  0  0  0  0  0  0
   22.8284   10.6038   33.6273 C   0  0  0  0  0  0  0  0  0  0  0  0
   23.7668   11.3297   34.5881 C   0  0  0  0  0  0  0  0  0  0  0  0
   23.5621   11.2159   35.8726 C   0  0  0  0  0  0  0  0  0  0  0  0
   22.4153   10.3871   36.4304 C   0  0  0  0  0  0  0  0  0  0  0  0
   20.6483    8.0037   33.4067 O   0  0  0  0  0  0  0  0  0  0  0  0
   21.6023    9.7656   35.6142 C   0  0  0  0  0  0  0  0  0  0  0  0
   20.8441    9.1377   33.2106 C   0  0  0  0  0  0  0  0  0  0  0  0
   24.8471   12.5259   32.8441 C   0  0  0  0  0  0  0  0  0  0  0  0
   24.8613   12.1089   34.1850 O   0  0  0  0  0  0  0  0  0  0  0  0
   24.4160   11.8630   36.7621 O   0  0  0  0  0  0  0  0  0  0  0  0
   22.9831   10.6759   32.5407 H   0  0  0  0  0  0  0  0  0  0  0  0
   22.2694   10.3100   37.5179 H   0  0  0  0  0  0  0  0  0  0  0  0
   20.7698    9.1652   36.0097 H   0  0  0  0  0  0  0  0  0  0  0  0
   20.3339    9.6600   32.3879 H   0  0  0  0  0  0  0  0  0  0  0  0
   24.8097   13.6245   32.8021 H   0  0  0  0  0  0  0  0  0  0  0  0
   25.7579   12.1705   32.3399 H   0  0  0  0  0  0  0  0  0  0  0  0
   23.9626   12.1094   32.3399 H   0  0  0  0  0  0  0  0  0  0  0  0
   24.2682   11.7823   37.7376 H   0  0  0  0  0  0  0  0  0  0  0  0
  1  2  2  0
  1  7  1  0
  1  8  1  0
  2  3  1  0
  3  4  2  0
  3 10  1  0
  4  5  1  0
  4 11  1  0
  5  7  2  0
  6  8  2  0
  9 10  1  0
  2 12  1  0
  5 13  1  0
  7 14  1  0
  8 15  1  0
  9 16  1  0
  9 17  1  0
  9 18  1  0
 11 19  1  0
M  END
>  <filename_input>  (5) 
6XM9_V55_docked.sdf

>  <pdb_id>  (5) 
6XM9_V55

>  <pose_rank>  (5) 
4

>  <num_atoms_heavy>  (5) 
11

>  <num_torsions>  (5) 
2

>  <pose>  (5) 
[21.820085965159453, 9.88195682218997, 34.11599358155874, 2.564813281204595, -2.5137672373799993, -0.12737731893613638, 2.10082460204143, 0.22997677418952828]

>  <energy>  (5) 
-404.423859224011

>  <inter_energy>  (5) 
-401.71387109216136

>  <intra_energy>  (5) 
0.0

>  <rmsd>  (5) 
4.67684

>  <sdf_rank>  (5) 
0

$$$$

     RDKit          3D

 19 19  0  0  0  0  0  0  0  0999 V2000
   22.0865   10.3845   32.9744 C   0  0  0  0  0  0  0  0  0  0  0  0
   21.5913    9.9123   34.1182 C   0  0  0  0  0  0  0  0  0  0  0  0
   22.1670   10.4021   35.4445 C   0  0  0  0  0  0  0  0  0  0  0  0
   23.1293   11.2843   35.4245 C   0  0  0  0  0  0  0  0  0  0  0  0
   23.6900   11.8279   34.1194 C   0  0  0  0  0  0  0  0  0  0  0  0
   22.2575    9.3017   30.9245 O   0  0  0  0  0  0  0  0  0  0  0  0
   23.2065   11.4098   32.9772 C   0  0  0  0  0  0  0  0  0  0  0  0
   21.5600    9.9321   31.6164 C   0  0  0  0  0  0  0  0  0  0  0  0
   21.1067    8.7152   36.7368 C   0  0  0  0  0  0  0  0  0  0  0  0
   21.7182    9.9791   36.7044 O   0  0  0  0  0  0  0  0  0  0  0  0
   23.6574   11.7492   36.6261 O   0  0  0  0  0  0  0  0  0  0  0  0
   20.7745    9.1756   34.1065 H   0  0  0  0  0  0  0  0  0  0  0  0
   24.5007   12.5713   34.1353 H   0  0  0  0  0  0  0  0  0  0  0  0
   23.6075   11.7971   32.0289 H   0  0  0  0  0  0  0  0  0  0  0  0
   20.5415   10.1951   31.2947 H   0  0  0  0  0  0  0  0  0  0  0  0
   20.9574    8.4068   37.7821 H   0  0  0  0  0  0  0  0  0  0  0  0
   20.1333    8.7657   36.2269 H   0  0  0  0  0  0  0  0  0  0  0  0
   21.7503    7.9833   36.2269 H   0  0  0  0  0  0  0  0  0  0  0  0
   24.3872   12.4181   36.6202 H   0  0  0  0  0  0  0  0  0  0  0  0
  1  2  2  0
  1  7  1  0
  1  8  1  0
  2  3  1  0
  3  4  2  0
  3 10  1  0
  4  5  1  0
  4 11  1  0
  5  7  2  0
  6  8  2  0
  9 10  1  0
  2 12  1  0
  5 13  1  0
  7 14  1  0
  8 15  1  0
  9 16  1  0
  9 17  1  0
  9 18  1  0
 11 19  1  0
M  END
>  <filename_input>  (6) 
6XM9_V55_docked.sdf

>  <pdb_id>  (6) 
6XM9_V55

>  <pose_rank>  (6) 
5

>  <num_atoms_heavy>  (6) 
11

>  <num_torsions>  (6) 
2

>  <pose>  (6) 
[22.086509560317623, 10.384528181037183, 32.974373245497354, 1.1360300409028554, 1.5673173534375817, -2.541800876216629, -2.0985220892434677, 0.35077559887463106]

>  <energy>  (6) 
-431.8372460058921

>  <inter_energy>  (6) 
-435.5512245799174

>  <intra_energy>  (6) 
0.0

>  <rmsd>  (6) 
3.41413

>  <sdf_rank>  (6) 
0

$$$$

     RDKit          3D

 19 19  0  0  0  0  0  0  0  0999 V2000
   23.7760   11.9150   34.6954 C   0  0  0  0  0  0  0  0  0  0  0  0
   23.2265   11.1343   33.7653 C   0  0  0  0  0  0  0  0  0  0  0  0
   22.1368   10.1428   34.1655 C   0  0  0  0  0  0  0  0  0  0  0  0
   21.7617   10.0916   35.4151 C   0  0  0  0  0  0  0  0  0  0  0  0
   22.3844   10.9869   36.4753 C   0  0  0  0  0  0  0  0  0  0  0  0
   25.1796   13.0700   33.2464 O   0  0  0  0  0  0  0  0  0  0  0  0
   23.3232   11.8362   36.1426 C   0  0  0  0  0  0  0  0  0  0  0  0
   24.8724   12.9217   34.3627 C   0  0  0  0  0  0  0  0  0  0  0  0
   20.0853    9.3727   33.2502 C   0  0  0  0  0  0  0  0  0  0  0  0
   21.4865    9.2805   33.2704 O   0  0  0  0  0  0  0  0  0  0  0  0
   20.7613    9.2003   35.7938 O   0  0  0  0  0  0  0  0  0  0  0  0
   23.5554   11.2039   32.7180 H   0  0  0  0  0  0  0  0  0  0  0  0
   22.0464   10.9207   37.5200 H   0  0  0  0  0  0  0  0  0  0  0  0
   23.7794   12.4863   36.9037 H   0  0  0  0  0  0  0  0  0  0  0  0
   25.3646   13.4976   35.1602 H   0  0  0  0  0  0  0  0  0  0  0  0
   19.7045    9.3977   34.2819 H   0  0  0  0  0  0  0  0  0  0  0  0
   19.7858   10.2924   32.7264 H   0  0  0  0  0  0  0  0  0  0  0  0
   19.6680    8.5000   32.7264 H   0  0  0  0  0  0  0  0  0  0  0  0
   20.4707    9.1548   36.7391 H   0  0  0  0  0  0  0  0  0  0  0  0
  1  2  2  0
  1  7  1  0
  1  8  1  0
  2  3  1  0
  3  4  2  0
  3 10  1  0
  4  5  1  0
  4 11  1  0
  5  7  2  0
  6  8  2  0
  9 10  1  0
  2 12  1  0
  5 13  1  0
  7 14  1  0
  8 15  1  0
  9 16  1  0
  9 17  1  0
  9 18  1  0
 11 19  1  0
M  END
>  <filename_input>  (7) 
6XM9_V55_docked.sdf

>  <pdb_id>  (7) 
6XM9_V55

>  <pose_rank>  (7) 
6

>  <num_atoms_heavy>  (7) 
11

>  <num_torsions>  (7) 
2

>  <pose>  (7) 
[23.77602980732242, 11.914988359942432, 34.69544636275867, 1.8516551006998252, 2.1065742749026577, -0.07029988510576315, -6.334670020589089, -2.2593642575868382]

>  <energy>  (7) 
-324.6298558366774

>  <inter_energy>  (7) 
-346.8175885529861

>  <intra_energy>  (7) 
27.788357855126527

>  <rmsd>  (7) 
2.78609

>  <sdf_rank>  (7) 
0

$$$$

     RDKit          3D

 19 19  0  0  0  0  0  0  0  0999 V2000
   22.9055   10.9249   34.7861 C   0  0  0  0  0  0  0  0  0  0  0  0
   22.4360    9.9832   35.6042 C   0  0  0  0  0  0  0  0  0  0  0  0
   21.4828    8.9225   35.0594 C   0  0  0  0  0  0  0  0  0  0  0  0
   21.1575    8.9595   33.7954 C   0  0  0  0  0  0  0  0  0  0  0  0
   21.6982   10.0303   32.8605 C   0  0  0  0  0  0  0  0  0  0  0  0
   24.1074   12.9006   34.5499 O   0  0  0  0  0  0  0  0  0  0  0  0
   22.5118   10.9471   33.3198 C   0  0  0  0  0  0  0  0  0  0  0  0
   23.8559   12.0158   35.2685 C   0  0  0  0  0  0  0  0  0  0  0  0
   21.8221    7.2553   36.7162 C   0  0  0  0  0  0  0  0  0  0  0  0
   20.9353    7.8838   35.8268 O   0  0  0  0  0  0  0  0  0  0  0  0
   20.2978    7.9924   33.2809 O   0  0  0  0  0  0  0  0  0  0  0  0
   22.7330    9.9704   36.6633 H   0  0  0  0  0  0  0  0  0  0  0  0
   21.4061   10.0344   31.8000 H   0  0  0  0  0  0  0  0  0  0  0  0
   22.9062   11.7258   32.6504 H   0  0  0  0  0  0  0  0  0  0  0  0
   24.2965   11.9696   36.2754 H   0  0  0  0  0  0  0  0  0  0  0  0
   21.5178    7.4710   37.7510 H   0  0  0  0  0  0  0  0  0  0  0  0
   21.8022    6.1685   36.5471 H   0  0  0  0  0  0  0  0  0  0  0  0
   22.8409    7.6340   36.5471 H   0  0  0  0  0  0  0  0  0  0  0  0
   20.0459    8.0129   32.3237 H   0  0  0  0  0  0  0  0  0  0  0  0
  1  2  2  0
  1  7  1  0
  1  8  1  0
  2  3  1  0
  3  4  2  0
  3 10  1  0
  4  5  1  0
  4 11  1  0
  5  7  2  0
  6  8  2  0
  9 10  1  0
  2 12  1  0
  5 13  1  0
  7 14  1  0
  8 15  1  0
  9 16  1  0
  9 17  1  0
  9 18  1  0
 11 19  1  0
M  END
>  <filename_input>  (8) 
6XM9_V55_docked.sdf

>  <pdb_id>  (8) 
6XM9_V55

>  <pose_rank>  (8) 
7

>  <num_atoms_heavy>  (8) 
11

>  <num_torsions>  (8) 
2

>  <pose>  (8) 
[22.905470620630215, 10.924922034779968, 34.78614640180702, 6.269462337050613, -1.3126151931257963, -0.5494529935452892, 3.162062102436784, -0.8223507177151976]

>  <energy>  (8) 
-404.73888527946417

>  <inter_energy>  (8) 
-399.2313565894909

>  <intra_energy>  (8) 
0.0

>  <rmsd>  (8) 
0.679547

>  <sdf_rank>  (8) 
0

$$$$

     RDKit          3D

 19 19  0  0  0  0  0  0  0  0999 V2000
   23.0919   11.3756   34.6728 C   0  0  0  0  0  0  0  0  0  0  0  0
   22.5624   10.4435   35.4648 C   0  0  0  0  0  0  0  0  0  0  0  0
   21.7129    9.3325   34.8529 C   0  0  0  0  0  0  0  0  0  0  0  0
   21.5338    9.3181   33.5596 C   0  0  0  0  0  0  0  0  0  0  0  0
   22.1432   10.3781   32.6551 C   0  0  0  0  0  0  0  0  0  0  0  0
   24.5604   13.1666   34.4738 O   0  0  0  0  0  0  0  0  0  0  0  0
   22.8686   11.3377   33.1714 C   0  0  0  0  0  0  0  0  0  0  0  0
   23.9449   12.5147   35.2213 C   0  0  0  0  0  0  0  0  0  0  0  0
   21.6970    8.0302   36.8387 C   0  0  0  0  0  0  0  0  0  0  0  0
   21.1149    8.2991   35.5892 O   0  0  0  0  0  0  0  0  0  0  0  0
   20.7706    8.3050   32.9852 O   0  0  0  0  0  0  0  0  0  0  0  0
   22.7362   10.4745   36.5506 H   0  0  0  0  0  0  0  0  0  0  0  0
   21.9748   10.3385   31.5688 H   0  0  0  0  0  0  0  0  0  0  0  0
   23.3118   12.1088   32.5241 H   0  0  0  0  0  0  0  0  0  0  0  0
   23.9794   12.7183   36.3018 H   0  0  0  0  0  0  0  0  0  0  0  0
   21.0114    8.3470   37.6384 H   0  0  0  0  0  0  0  0  0  0  0  0
   21.8910    6.9511   36.9282 H   0  0  0  0  0  0  0  0  0  0  0  0
   22.6445    8.5817   36.9282 H   0  0  0  0  0  0  0  0  0  0  0  0
   20.6296    8.2864   32.0054 H   0  0  0  0  0  0  0  0  0  0  0  0
  1  2  2  0
  1  7  1  0
  1  8  1  0
  2  3  1  0
  3  4  2  0
  3 10  1  0
  4  5  1  0
  4 11  1  0
  5  7  2  0
  6  8  2  0
  9 10  1  0
  2 12  1  0
  5 13  1  0
  7 14  1  0
  8 15  1  0
  9 16  1  0
  9 17  1  0
  9 18  1  0
 11 19  1  0
M  END
>  <filename_input>  (9) 
6XM9_V55_docked.sdf

>  <pdb_id>  (9) 
6XM9_V55

>  <pose_rank>  (9) 
8

>  <num_atoms_heavy>  (9) 
11

>  <num_torsions>  (9) 
2

>  <pose>  (9) 
[23.09190674355292, 11.375586581207394, 34.67276848508128, -3.6856507935496903, 4.753342928909786, -1.0232821595461192, 2.786169869433378, -0.4714631303590907]

>  <energy>  (9) 
-449.5110620647736

>  <inter_energy>  (9) 
-447.32383509792913

>  <intra_energy>  (9) 
0.0

>  <rmsd>  (9) 
0.71779

>  <sdf_rank>  (9) 
0

$$$$

     RDKit          3D

 19 19  0  0  0  0  0  0  0  0999 V2000
   22.0620    9.6379   33.2279 C   0  0  0  0  0  0  0  0  0  0  0  0
   22.5610   10.6048   33.9977 C   0  0  0  0  0  0  0  0  0  0  0  0
   22.2817   10.5889   35.4985 C   0  0  0  0  0  0  0  0  0  0  0  0
   21.5647    9.6167   35.9942 C   0  0  0  0  0  0  0  0  0  0  0  0
   21.0007    8.5100   35.1166 C   0  0  0  0  0  0  0  0  0  0  0  0
   22.9219    8.7192   31.2733 O   0  0  0  0  0  0  0  0  0  0  0  0
   21.2303    8.5182   33.8280 C   0  0  0  0  0  0  0  0  0  0  0  0
   22.2991    9.5988   31.7218 C   0  0  0  0  0  0  0  0  0  0  0  0
   23.9414   12.2066   36.0163 C   0  0  0  0  0  0  0  0  0  0  0  0
   22.7615   11.5495   36.4012 O   0  0  0  0  0  0  0  0  0  0  0  0
   21.3105    9.5823   37.3628 O   0  0  0  0  0  0  0  0  0  0  0  0
   23.1690   11.4076   33.5553 H   0  0  0  0  0  0  0  0  0  0  0  0
   20.4008    7.7039   35.5642 H   0  0  0  0  0  0  0  0  0  0  0  0
   20.8249    7.7220   33.1864 H   0  0  0  0  0  0  0  0  0  0  0  0
   21.8907   10.3851   31.0700 H   0  0  0  0  0  0  0  0  0  0  0  0
   24.4978   12.5165   36.9131 H   0  0  0  0  0  0  0  0  0  0  0  0
   24.5623   11.5244   35.4171 H   0  0  0  0  0  0  0  0  0  0  0  0
   23.6883   13.0937   35.4171 H   0  0  0  0  0  0  0  0  0  0  0  0
   20.7679    8.8489   37.7471 H   0  0  0  0  0  0  0  0  0  0  0  0
  1  2  2  0
  1  7  1  0
  1  8  1  0
  2  3  1  0
  3  4  2  0
  3 10  1  0
  4  5  1  0
  4 11  1  0
  5  7  2  0
  6  8  2  0
  9 10  1  0
  2 12  1  0
  5 13  1  0
  7 14  1  0
  8 15  1  0
  9 16  1  0
  9 17  1  0
  9 18  1  0
 11 19  1  0
M  END
>  <filename_input>  (10) 
6XM9_V55_docked.sdf

>  <pdb_id>  (10) 
6XM9_V55

>  <pose_rank>  (10) 
9

>  <num_atoms_heavy>  (10) 
11

>  <num_torsions>  (10) 
2

>  <pose>  (10) 
[22.06200141868797, 9.637855165710242, 33.227900486274365, 4.031001300593042, -2.1180952765891856, -0.18326535795371376, 1.8701252949150644, -0.5371203976187983]

>  <energy>  (10) 
-374.55858845239544

>  <inter_energy>  (10) 
-363.63214232230354

>  <intra_energy>  (10) 
0.0

>  <rmsd>  (10) 
3.58082

>  <sdf_rank>  (10) 
0

$$$$

     RDKit          3D

 19 19  0  0  0  0  0  0  0  0999 V2000
   23.2677   11.4145   35.1314 C   0  0  0  0  0  0  0  0  0  0  0  0
   22.7275   10.3850   35.7832 C   0  0  0  0  0  0  0  0  0  0  0  0
   21.7434    9.4703   35.0583 C   0  0  0  0  0  0  0  0  0  0  0  0
   21.4619    9.7159   33.8071 C   0  0  0  0  0  0  0  0  0  0  0  0
   22.0831   10.8869   33.0616 C   0  0  0  0  0  0  0  0  0  0  0  0
   24.7243   13.2259   35.1628 O   0  0  0  0  0  0  0  0  0  0  0  0
   22.9237   11.6797   33.6764 C   0  0  0  0  0  0  0  0  0  0  0  0
   24.2525   12.3685   35.7992 C   0  0  0  0  0  0  0  0  0  0  0  0
   20.9952    7.2296   34.8153 C   0  0  0  0  0  0  0  0  0  0  0  0
   21.1224    8.3568   35.6432 O   0  0  0  0  0  0  0  0  0  0  0  0
   20.5746    8.8842   33.1289 O   0  0  0  0  0  0  0  0  0  0  0  0
   22.9887   10.1959   36.8349 H   0  0  0  0  0  0  0  0  0  0  0  0
   21.8264   11.0673   32.0072 H   0  0  0  0  0  0  0  0  0  0  0  0
   23.3764   12.5295   33.1446 H   0  0  0  0  0  0  0  0  0  0  0  0
   24.5135   12.2509   36.8613 H   0  0  0  0  0  0  0  0  0  0  0  0
   20.8935    6.3278   35.4369 H   0  0  0  0  0  0  0  0  0  0  0  0
   20.1038    7.3397   34.1803 H   0  0  0  0  0  0  0  0  0  0  0  0
   21.8888    7.1383   34.1803 H   0  0  0  0  0  0  0  0  0  0  0  0
   20.3554    9.0629   32.1802 H   0  0  0  0  0  0  0  0  0  0  0  0
  1  2  2  0
  1  7  1  0
  1  8  1  0
  2  3  1  0
  3  4  2  0
  3 10  1  0
  4  5  1  0
  4 11  1  0
  5  7  2  0
  6  8  2  0
  9 10  1  0
  2 12  1  0
  5 13  1  0
  7 14  1  0
  8 15  1  0
  9 16  1  0
  9 17  1  0
  9 18  1  0
 11 19  1  0
M  END
>  <filename_input>  (11) 
6XM9_V55_docked.sdf

>  <pdb_id>  (11) 
6XM9_V55

>  <pose_rank>  (11) 
10

>  <num_atoms_heavy>  (11) 
11

>  <num_torsions>  (11) 
2

>  <pose>  (11) 
[23.267677958949413, 11.414474356909984, 35.131406885573256, -5.7277644383083475, 1.192743235993528, 1.2149914943828697, 2.9628634666232503, -2.539849708065247]

>  <energy>  (11) 
-360.6267922327882

>  <inter_energy>  (11) 
-403.53472002940106

>  <intra_energy>  (11) 
43.22074510017715

>  <rmsd>  (11) 
1.24359

>  <sdf_rank>  (11) 
0

$$$$

     RDKit          3D

 19 19  0  0  0  0  0  0  0  0999 V2000
   27.0008   12.5462   36.2038 C   0  0  0  0  0  0  0  0  0  0  0  0
   26.2497   12.0958   35.1991 C   0  0  0  0  0  0  0  0  0  0  0  0
   24.7285   12.1528   35.3147 C   0  0  0  0  0  0  0  0  0  0  0  0
   24.1988   12.6538   36.3979 C   0  0  0  0  0  0  0  0  0  0  0  0
   25.0560   13.1735   37.5417 C   0  0  0  0  0  0  0  0  0  0  0  0
   29.0923   13.4207   35.6895 O   0  0  0  0  0  0  0  0  0  0  0  0
   26.3610   13.1237   37.4539 C   0  0  0  0  0  0  0  0  0  0  0  0
   28.5247   12.5123   36.1536 C   0  0  0  0  0  0  0  0  0  0  0  0
   23.8485   12.4652   33.1312 C   0  0  0  0  0  0  0  0  0  0  0  0
   23.8439   11.7147   34.3182 O   0  0  0  0  0  0  0  0  0  0  0  0
   22.8130   12.7229   36.5137 O   0  0  0  0  0  0  0  0  0  0  0  0
   26.7220   11.6863   34.2939 H   0  0  0  0  0  0  0  0  0  0  0  0
   24.5799   13.5906   38.4414 H   0  0  0  0  0  0  0  0  0  0  0  0
   26.9879   13.4964   38.2774 H   0  0  0  0  0  0  0  0  0  0  0  0
   29.0789   11.6477   36.5476 H   0  0  0  0  0  0  0  0  0  0  0  0
   23.8550   13.5377   33.3755 H   0  0  0  0  0  0  0  0  0  0  0  0
   24.7451   12.2174   32.5441 H   0  0  0  0  0  0  0  0  0  0  0  0
   22.9489   12.2284   32.5441 H   0  0  0  0  0  0  0  0  0  0  0  0
   22.4028   13.1012   37.3315 H   0  0  0  0  0  0  0  0  0  0  0  0
  1  2  2  0
  1  7  1  0
  1  8  1  0
  2  3  1  0
  3  4  2  0
  3 10  1  0
  4  5  1  0
  4 11  1  0
  5  7  2  0
  6  8  2  0
  9 10  1  0
  2 12  1  0
  5 13  1  0
  7 14  1  0
  8 15  1  0
  9 16  1  0
  9 17  1  0
  9 18  1  0
 11 19  1  0
M  END
>  <filename_input>  (12) 
6XM9_V55_docked.sdf

>  <pdb_id>  (12) 
6XM9_V55

>  <pose_rank>  (12) 
11

>  <num_atoms_heavy>  (12) 
11

>  <num_torsions>  (12) 
2

>  <pose>  (12) 
[27.00076604896959, 12.546172825853672, 36.20383666980777, 2.2695040466235, 1.1410742275907746, -0.1535552465944316, 1.4100624429098785, -1.2565949282308295]

>  <energy>  (12) 
-289.8081699689748

>  <inter_energy>  (12) 
-280.77219801844757

>  <intra_energy>  (12) 
0.08467660882737889

>  <rmsd>  (12) 
5.51589

>  <sdf_rank>  (12) 
0

$$$$

     RDKit          3D

 19 19  0  0  0  0  0  0  0  0999 V2000
   24.9373   12.5036   36.2118 C   0  0  0  0  0  0  0  0  0  0  0  0
   24.9487   12.6263   34.8846 C   0  0  0  0  0  0  0  0  0  0  0  0
   23.9065   11.8828   34.0530 C   0  0  0  0  0  0  0  0  0  0  0  0
   23.0187   11.1489   34.6679 C   0  0  0  0  0  0  0  0  0  0  0  0
   23.0018   11.0140   36.1827 C   0  0  0  0  0  0  0  0  0  0  0  0
   26.6427   12.5740   37.7900 O   0  0  0  0  0  0  0  0  0  0  0  0
   23.8948   11.6433   36.9037 C   0  0  0  0  0  0  0  0  0  0  0  0
   25.9536   13.2148   37.0992 C   0  0  0  0  0  0  0  0  0  0  0  0
   24.3552   13.1035   32.0660 C   0  0  0  0  0  0  0  0  0  0  0  0
   23.8213   11.9454   32.6543 O   0  0  0  0  0  0  0  0  0  0  0  0
   22.0548   10.4734   33.9240 O   0  0  0  0  0  0  0  0  0  0  0  0
   25.7029   13.2580   34.3926 H   0  0  0  0  0  0  0  0  0  0  0  0
   22.2404   10.3885   36.6716 H   0  0  0  0  0  0  0  0  0  0  0  0
   23.8901   11.5499   37.9997 H   0  0  0  0  0  0  0  0  0  0  0  0
   26.0358   14.3116   37.0885 H   0  0  0  0  0  0  0  0  0  0  0  0
   24.6764   13.8004   32.8541 H   0  0  0  0  0  0  0  0  0  0  0  0
   25.2193   12.8326   31.4415 H   0  0  0  0  0  0  0  0  0  0  0  0
   23.5879   13.5846   31.4415 H   0  0  0  0  0  0  0  0  0  0  0  0
   21.3778    9.9147   34.3819 H   0  0  0  0  0  0  0  0  0  0  0  0
  1  2  2  0
  1  7  1  0
  1  8  1  0
  2  3  1  0
  3  4  2  0
  3 10  1  0
  4  5  1  0
  4 11  1  0
  5  7  2  0
  6  8  2  0
  9 10  1  0
  2 12  1  0
  5 13  1  0
  7 14  1  0
  8 15  1  0
  9 16  1  0
  9 17  1  0
  9 18  1  0
 11 19  1  0
M  END
>  <filename_input>  (13) 
6XM9_V55_docked.sdf

>  <pdb_id>  (13) 
6XM9_V55

>  <pose_rank>  (13) 
12

>  <num_atoms_heavy>  (13) 
11

>  <num_torsions>  (13) 
2

>  <pose>  (13) 
[24.937305308598386, 12.5035879210313, 36.211802901146655, 2.013196100163223, 1.8316671930580803, 1.1475329712435485, 4.040844099007565, -0.5218036401420565]

>  <energy>  (13) 
-295.89518118611386

>  <inter_energy>  (13) 
-298.17142563903315

>  <intra_energy>  (13) 
0.0

>  <rmsd>  (13) 
4.31661

>  <sdf_rank>  (13) 
0

$$$$

     RDKit          3D

 19 19  0  0  0  0  0  0  0  0999 V2000
   27.7787   13.1507   36.9518 C   0  0  0  0  0  0  0  0  0  0  0  0
   26.6854   12.5208   36.5227 C   0  0  0  0  0  0  0  0  0  0  0  0
   25.3490   12.7812   37.2132 C   0  0  0  0  0  0  0  0  0  0  0  0
   25.3094   13.6275   38.2067 C   0  0  0  0  0  0  0  0  0  0  0  0
   26.5558   14.3512   38.6923 C   0  0  0  0  0  0  0  0  0  0  0  0
   29.6990   13.8445   35.8404 O   0  0  0  0  0  0  0  0  0  0  0  0
   27.7071   14.1301   38.1099 C   0  0  0  0  0  0  0  0  0  0  0  0
   29.1444   12.9307   36.3095 C   0  0  0  0  0  0  0  0  0  0  0  0
   24.0829   11.6909   35.5257 C   0  0  0  0  0  0  0  0  0  0  0  0
   24.1374   12.1804   36.8409 O   0  0  0  0  0  0  0  0  0  0  0  0
   24.0959   13.8841   38.8397 O   0  0  0  0  0  0  0  0  0  0  0  0
   26.7454   11.8189   35.6778 H   0  0  0  0  0  0  0  0  0  0  0  0
   26.4900   15.0592   39.5316 H   0  0  0  0  0  0  0  0  0  0  0  0
   28.6134   14.6486   38.4560 H   0  0  0  0  0  0  0  0  0  0  0  0
   29.5986   11.9291   36.2886 H   0  0  0  0  0  0  0  0  0  0  0  0
   23.9612   10.5978   35.5461 H   0  0  0  0  0  0  0  0  0  0  0  0
   23.2298   12.1451   35.0004 H   0  0  0  0  0  0  0  0  0  0  0  0
   25.0150   11.9462   35.0004 H   0  0  0  0  0  0  0  0  0  0  0  0
   24.0567   14.5243   39.5938 H   0  0  0  0  0  0  0  0  0  0  0  0
  1  2  2  0
  1  7  1  0
  1  8  1  0
  2  3  1  0
  3  4  2  0
  3 10  1  0
  4  5  1  0
  4 11  1  0
  5  7  2  0
  6  8  2  0
  9 10  1  0
  2 12  1  0
  5 13  1  0
  7 14  1  0
  8 15  1  0
  9 16  1  0
  9 17  1  0
  9 18  1  0
 11 19  1  0
M  END
>  <filename_input>  (14) 
6XM9_V55_docked.sdf

>  <pdb_id>  (14) 
6XM9_V55

>  <pose_rank>  (14) 
13

>  <num_atoms_heavy>  (14) 
11

>  <num_torsions>  (14) 
2

>  <pose>  (14) 
[27.77874160340908, 13.150746656145753, 36.9518252838408, 2.0373323446034455, 1.1685790556004434, -0.8110216082241369, 1.9636077189697771, -0.4671586221313949]

>  <energy>  (14) 
-194.922090946354

>  <inter_energy>  (14) 
-188.71798861058892

>  <intra_energy>  (14) 
0.0

>  <rmsd>  (14) 
6.74903

>  <sdf_rank>  (14) 
0

$$$$

     RDKit          3D

 19 19  0  0  0  0  0  0  0  0999 V2000
   14.0955   15.6240   28.7025 C   0  0  0  0  0  0  0  0  0  0  0  0
   14.7762   16.6126   29.2822 C   0  0  0  0  0  0  0  0  0  0  0  0
   14.9862   16.5937   30.7941 C   0  0  0  0  0  0  0  0  0  0  0  0
   14.4991   15.5979   31.4840 C   0  0  0  0  0  0  0  0  0  0  0  0
   13.7279   14.4666   30.8217 C   0  0  0  0  0  0  0  0  0  0  0  0
   14.1775   16.4990   26.5504 O   0  0  0  0  0  0  0  0  0  0  0  0
   13.5381   14.4770   29.5267 C   0  0  0  0  0  0  0  0  0  0  0  0
   13.8458   15.5865   27.1984 C   0  0  0  0  0  0  0  0  0  0  0  0
   15.8855   18.7914   30.8299 C   0  0  0  0  0  0  0  0  0  0  0  0
   15.6909   17.5759   31.5058 O   0  0  0  0  0  0  0  0  0  0  0  0
   14.6918   15.5607   32.8625 O   0  0  0  0  0  0  0  0  0  0  0  0
   15.1832   17.4354   28.6760 H   0  0  0  0  0  0  0  0  0  0  0  0
   13.3303   13.6409   31.4301 H   0  0  0  0  0  0  0  0  0  0  0  0
   12.9803   13.6632   29.0403 H   0  0  0  0  0  0  0  0  0  0  0  0
   13.3620   14.7153   26.7327 H   0  0  0  0  0  0  0  0  0  0  0  0
   16.0152   19.6016   31.5625 H   0  0  0  0  0  0  0  0  0  0  0  0
   16.7837   18.7204   30.1989 H   0  0  0  0  0  0  0  0  0  0  0  0
   15.0100   19.0043   30.1989 H   0  0  0  0  0  0  0  0  0  0  0  0
   14.3260   14.8094   33.3934 H   0  0  0  0  0  0  0  0  0  0  0  0
  1  2  2  0
  1  7  1  0
  1  8  1  0
  2  3  1  0
  3  4  2  0
  3 10  1  0
  4  5  1  0
  4 11  1  0
  5  7  2  0
  6  8  2  0
  9 10  1  0
  2 12  1  0
  5 13  1  0
  7 14  1  0
  8 15  1  0
  9 16  1  0
  9 17  1  0
  9 18  1  0
 11 19  1  0
M  END
>  <filename_input>  (15) 
6XM9_V55_docked.sdf

>  <pdb_id>  (15) 
6XM9_V55

>  <pose_rank>  (15) 
14

>  <num_atoms_heavy>  (15) 
11

>  <num_torsions>  (15) 
2

>  <pose>  (15) 
[14.095535909879029, 15.624031224373466, 28.70254803269456, -1.5502860292837457, 1.0262299093519702, 0.3502686393761983, -0.23412308737868606, 0.21951716496555446]

>  <energy>  (15) 
-172.0125080976598

>  <inter_energy>  (15) 
-151.63702245819516

>  <intra_energy>  (15) 
0.0

>  <rmsd>  (15) 
11.4176

>  <sdf_rank>  (15) 
0

$$$$

     RDKit          3D

 19 19  0  0  0  0  0  0  0  0999 V2000
   14.3751   16.7714   34.3621 C   0  0  0  0  0  0  0  0  0  0  0  0
   14.7902   17.5638   33.3739 C   0  0  0  0  0  0  0  0  0  0  0  0
   14.6752   17.0849   31.9289 C   0  0  0  0  0  0  0  0  0  0  0  0
   14.1606   15.9077   31.6960 C   0  0  0  0  0  0  0  0  0  0  0  0
   13.6811   15.0062   32.8232 C   0  0  0  0  0  0  0  0  0  0  0  0
   14.9426   18.2212   36.0884 O   0  0  0  0  0  0  0  0  0  0  0  0
   13.7807   15.4060   34.0656 C   0  0  0  0  0  0  0  0  0  0  0  0
   14.4675   17.1876   35.8264 C   0  0  0  0  0  0  0  0  0  0  0  0
   16.4596   17.9804   30.6429 C   0  0  0  0  0  0  0  0  0  0  0  0
   15.0730   17.8371   30.8138 O   0  0  0  0  0  0  0  0  0  0  0  0
   14.0388   15.4613   30.3827 O   0  0  0  0  0  0  0  0  0  0  0  0
   15.2123   18.5546   33.5978 H   0  0  0  0  0  0  0  0  0  0  0  0
   13.2512   14.0198   32.5947 H   0  0  0  0  0  0  0  0  0  0  0  0
   13.4373   14.7594   34.8865 H   0  0  0  0  0  0  0  0  0  0  0  0
   14.0931   16.5258   36.6213 H   0  0  0  0  0  0  0  0  0  0  0  0
   16.9471   18.0308   31.6277 H   0  0  0  0  0  0  0  0  0  0  0  0
   16.8512   17.1180   30.0837 H   0  0  0  0  0  0  0  0  0  0  0  0
   16.6665   18.9047   30.0837 H   0  0  0  0  0  0  0  0  0  0  0  0
   13.6497   14.5701   30.1969 H   0  0  0  0  0  0  0  0  0  0  0  0
  1  2  2  0
  1  7  1  0
  1  8  1  0
  2  3  1  0
  3  4  2  0
  3 10  1  0
  4  5  1  0
  4 11  1  0
  5  7  2  0
  6  8  2  0
  9 10  1  0
  2 12  1  0
  5 13  1  0
  7 14  1  0
  8 15  1  0
  9 16  1  0
  9 17  1  0
  9 18  1  0
 11 19  1  0
M  END
>  <filename_input>  (16) 
6XM9_V55_docked.sdf

>  <pdb_id>  (16) 
6XM9_V55

>  <pose_rank>  (16) 
15

>  <num_atoms_heavy>  (16) 
11

>  <num_torsions>  (16) 
2

>  <pose>  (16) 
[14.375107366113324, 16.771420721977837, 34.36206055357647, -1.2687033913683157, -1.9173756951357188, -2.1428739422669065, -0.16434184728591797, 1.1658301415559467]

>  <energy>  (16) 
-169.02494773655104

>  <inter_energy>  (16) 
-151.42373405113028

>  <intra_energy>  (16) 
0.27979074131793225

>  <rmsd>  (16) 
10.8176

>  <sdf_rank>  (16) 
0

$$$$

     RDKit          3D

 19 19  0  0  0  0  0  0  0  0999 V2000
   27.8132   12.4713   36.8343 C   0  0  0  0  0  0  0  0  0  0  0  0
   26.5746   12.0502   37.0895 C   0  0  0  0  0  0  0  0  0  0  0  0
   25.4216   12.5353   36.2144 C   0  0  0  0  0  0  0  0  0  0  0  0
   25.6814   13.3478   35.2259 C   0  0  0  0  0  0  0  0  0  0  0  0
   27.0956   13.8233   34.9309 C   0  0  0  0  0  0  0  0  0  0  0  0
   28.9465   12.1293   38.8350 O   0  0  0  0  0  0  0  0  0  0  0  0
   28.0899   13.4171   35.6791 C   0  0  0  0  0  0  0  0  0  0  0  0
   29.0075   12.0291   37.6736 C   0  0  0  0  0  0  0  0  0  0  0  0
   23.6473   11.0915   35.5765 C   0  0  0  0  0  0  0  0  0  0  0  0
   24.0834   12.1518   36.3875 O   0  0  0  0  0  0  0  0  0  0  0  0
   24.6419   13.7904   34.4120 O   0  0  0  0  0  0  0  0  0  0  0  0
   26.3848   11.3588   37.9237 H   0  0  0  0  0  0  0  0  0  0  0  0
   27.2826   14.5075   34.0902 H   0  0  0  0  0  0  0  0  0  0  0  0
   29.1154   13.7574   35.4730 H   0  0  0  0  0  0  0  0  0  0  0  0
   29.9099   11.6231   37.1931 H   0  0  0  0  0  0  0  0  0  0  0  0
   23.3055   10.2608   36.2114 H   0  0  0  0  0  0  0  0  0  0  0  0
   22.8167   11.4333   34.9414 H   0  0  0  0  0  0  0  0  0  0  0  0
   24.4779   10.7499   34.9414 H   0  0  0  0  0  0  0  0  0  0  0  0
   24.8299   14.4066   33.6602 H   0  0  0  0  0  0  0  0  0  0  0  0
  1  2  2  0
  1  7  1  0
  1  8  1  0
  2  3  1  0
  3  4  2  0
  3 10  1  0
  4  5  1  0
  4 11  1  0
  5  7  2  0
  6  8  2  0
  9 10  1  0
  2 12  1  0
  5 13  1  0
  7 14  1  0
  8 15  1  0
  9 16  1  0
  9 17  1  0
  9 18  1  0
 11 19  1  0
M  END
>  <filename_input>  (17) 
6XM9_V55_docked.sdf

>  <pdb_id>  (17) 
6XM9_V55

>  <pose_rank>  (17) 
16

>  <num_atoms_heavy>  (17) 
11

>  <num_torsions>  (17) 
2

>  <pose>  (17) 
[27.813212308999898, 12.47131124765782, 36.83434230677588, -3.029549630084589, 0.8933918036600517, 3.990542345038322, -1.025917076942579, -1.7676364674219835]

>  <energy>  (17) 
-216.44181127388575

>  <inter_energy>  (17) 
-219.83427269257672

>  <intra_energy>  (17) 
7.405417987588163

>  <rmsd>  (17) 
5.97875

>  <sdf_rank>  (17) 
0

$$$$

     RDKit          3D

 19 19  0  0  0  0  0  0  0  0999 V2000
   26.5556    3.2211   42.6912 C   0  0  0  0  0  0  0  0  0  0  0  0
   25.6087    2.5788   42.0076 C   0  0  0  0  0  0  0  0  0  0  0  0
   24.9252    1.3646   42.6313 C   0  0  0  0  0  0  0  0  0  0  0  0
   25.2812    0.9899   43.8304 C   0  0  0  0  0  0  0  0  0  0  0  0
   26.3573    1.7266   44.6130 C   0  0  0  0  0  0  0  0  0  0  0  0
   27.6517    4.4039   41.0169 O   0  0  0  0  0  0  0  0  0  0  0  0
   26.9527    2.7655   44.0842 C   0  0  0  0  0  0  0  0  0  0  0  0
   27.2806    4.4367   42.1231 C   0  0  0  0  0  0  0  0  0  0  0  0
   24.0784    0.4124   40.6273 C   0  0  0  0  0  0  0  0  0  0  0  0
   23.9138    0.6201   42.0064 O   0  0  0  0  0  0  0  0  0  0  0  0
   24.6594   -0.1091   44.4173 O   0  0  0  0  0  0  0  0  0  0  0  0
   25.3220    2.9209   41.0022 H   0  0  0  0  0  0  0  0  0  0  0  0
   26.6347    1.3870   45.6218 H   0  0  0  0  0  0  0  0  0  0  0  0
   27.7328    3.3029   44.6432 H   0  0  0  0  0  0  0  0  0  0  0  0
   27.4507    5.3282   42.7446 H   0  0  0  0  0  0  0  0  0  0  0  0
   24.7540   -0.4401   40.4630 H   0  0  0  0  0  0  0  0  0  0  0  0
   23.1013    0.1994   40.1694 H   0  0  0  0  0  0  0  0  0  0  0  0
   24.5091    1.3150   40.1694 H   0  0  0  0  0  0  0  0  0  0  0  0
   24.9230   -0.4001   45.3261 H   0  0  0  0  0  0  0  0  0  0  0  0
  1  2  2  0
  1  7  1  0
  1  8  1  0
  2  3  1  0
  3  4  2  0
  3 10  1  0
  4  5  1  0
  4 11  1  0
  5  7  2  0
  6  8  2  0
  9 10  1  0
  2 12  1  0
  5 13  1  0
  7 14  1  0
  8 15  1  0
  9 16  1  0
  9 17  1  0
  9 18  1  0
 11 19  1  0
M  END
>  <filename_input>  (18) 
6XM9_V55_docked.sdf

>  <pdb_id>  (18) 
6XM9_V55

>  <pose_rank>  (18) 
17

>  <num_atoms_heavy>  (18) 
11

>  <num_torsions>  (18) 
2

>  <pose>  (18) 
[26.555616984892392, 3.2210833963832184, 42.69122976449956, 2.0473121096327476, 2.6834031172032997, -0.3502101974105532, -0.9131953648314439, 0.5963235052259126]

>  <energy>  (18) 
-83.14107969155246

>  <inter_energy>  (18) 
-94.40357835776182

>  <intra_energy>  (18) 
0.0

>  <rmsd>  (18) 
12.2713

>  <sdf_rank>  (18) 
0

$$$$

     RDKit          3D

 19 19  0  0  0  0  0  0  0  0999 V2000
   16.2352    3.2949   32.0829 C   0  0  0  0  0  0  0  0  0  0  0  0
   16.0284    2.4021   33.0507 C   0  0  0  0  0  0  0  0  0  0  0  0
   14.9090    1.3753   32.8982 C   0  0  0  0  0  0  0  0  0  0  0  0
   14.1846    1.3919   31.8120 C   0  0  0  0  0  0  0  0  0  0  0  0
   14.4247    2.4066   30.7049 C   0  0  0  0  0  0  0  0  0  0  0  0
   17.6917    4.8757   31.1976 O   0  0  0  0  0  0  0  0  0  0  0  0
   15.3786    3.2943   30.8292 C   0  0  0  0  0  0  0  0  0  0  0  0
   17.3324    4.3502   32.1761 C   0  0  0  0  0  0  0  0  0  0  0  0
   15.7043   -0.1125   34.5696 C   0  0  0  0  0  0  0  0  0  0  0  0
   14.6083    0.3881   33.8482 O   0  0  0  0  0  0  0  0  0  0  0  0
   13.1670    0.4547   31.6532 O   0  0  0  0  0  0  0  0  0  0  0  0
   16.6591    2.4051   33.9519 H   0  0  0  0  0  0  0  0  0  0  0  0
   13.7978    2.3946   29.8011 H   0  0  0  0  0  0  0  0  0  0  0  0
   15.5578    4.0324   30.0335 H   0  0  0  0  0  0  0  0  0  0  0  0
   17.7770    4.6115   33.1477 H   0  0  0  0  0  0  0  0  0  0  0  0
   15.5059   -0.0219   35.6478 H   0  0  0  0  0  0  0  0  0  0  0  0
   15.8596   -1.1709   34.3131 H   0  0  0  0  0  0  0  0  0  0  0  0
   16.6059    0.4631   34.3131 H   0  0  0  0  0  0  0  0  0  0  0  0
   12.6129    0.4600   30.8329 H   0  0  0  0  0  0  0  0  0  0  0  0
  1  2  2  0
  1  7  1  0
  1  8  1  0
  2  3  1  0
  3  4  2  0
  3 10  1  0
  4  5  1  0
  4 11  1  0
  5  7  2  0
  6  8  2  0
  9 10  1  0
  2 12  1  0
  5 13  1  0
  7 14  1  0
  8 15  1  0
  9 16  1  0
  9 17  1  0
  9 18  1  0
 11 19  1  0
M  END
>  <filename_input>  (19) 
6XM9_V55_docked.sdf

>  <pdb_id>  (19) 
6XM9_V55

>  <pose_rank>  (19) 
18

>  <num_atoms_heavy>  (19) 
11

>  <num_torsions>  (19) 
2

>  <pose>  (19) 
[16.235192268432034, 3.294939360563582, 32.08288378220227, -1.8171974234367096, -5.47999359194813, 1.452819546970454, -3.6091308379286895, -0.6582281598221309]

>  <energy>  (19) 
-146.27706577675687

>  <inter_energy>  (19) 
-132.5759811348266

>  <intra_energy>  (19) 
0.0

>  <rmsd>  (19) 
10.4442

>  <sdf_rank>  (19) 
0

$$$$

     RDKit          3D

 19 19  0  0  0  0  0  0  0  0999 V2000
   13.2298   17.1893   32.8526 C   0  0  0  0  0  0  0  0  0  0  0  0
   14.2576   16.3411   32.8784 C   0  0  0  0  0  0  0  0  0  0  0  0
   15.2446   16.3928   34.0419 C   0  0  0  0  0  0  0  0  0  0  0  0
   15.0497   17.2657   34.9932 C   0  0  0  0  0  0  0  0  0  0  0  0
   13.8733   18.2293   34.9669 C   0  0  0  0  0  0  0  0  0  0  0  0
   12.5416   16.8088   30.6650 O   0  0  0  0  0  0  0  0  0  0  0  0
   13.0249   18.1961   33.9706 C   0  0  0  0  0  0  0  0  0  0  0  0
   12.2120   17.1934   31.7167 C   0  0  0  0  0  0  0  0  0  0  0  0
   16.6475   14.7513   33.0534 C   0  0  0  0  0  0  0  0  0  0  0  0
   16.3545   15.5452   34.1742 O   0  0  0  0  0  0  0  0  0  0  0  0
   15.9349   17.3178   36.0667 O   0  0  0  0  0  0  0  0  0  0  0  0
   14.3936   15.6099   32.0680 H   0  0  0  0  0  0  0  0  0  0  0  0
   13.7356   18.9529   35.7838 H   0  0  0  0  0  0  0  0  0  0  0  0
   12.1722   18.8905   33.9437 H   0  0  0  0  0  0  0  0  0  0  0  0
   11.1860   17.5523   31.8855 H   0  0  0  0  0  0  0  0  0  0  0  0
   17.0106   13.7676   33.3858 H   0  0  0  0  0  0  0  0  0  0  0  0
   15.7381   14.6212   32.4483 H   0  0  0  0  0  0  0  0  0  0  0  0
   17.4233   15.2432   32.4483 H   0  0  0  0  0  0  0  0  0  0  0  0
   15.7948   17.9764   36.7924 H   0  0  0  0  0  0  0  0  0  0  0  0
  1  2  2  0
  1  7  1  0
  1  8  1  0
  2  3  1  0
  3  4  2  0
  3 10  1  0
  4  5  1  0
  4 11  1  0
  5  7  2  0
  6  8  2  0
  9 10  1  0
  2 12  1  0
  5 13  1  0
  7 14  1  0
  8 15  1  0
  9 16  1  0
  9 17  1  0
  9 18  1  0
 11 19  1  0
M  END
>  <filename_input>  (20) 
6XM9_V55_docked.sdf

>  <pdb_id>  (20) 
6XM9_V55

>  <pose_rank>  (20) 
19

>  <num_atoms_heavy>  (20) 
11

>  <num_torsions>  (20) 
2

>  <pose>  (20) 
[13.229825712520364, 17.189336948823218, 32.852587960896614, -0.66908251086113, 2.5311385909050292, -1.1228304945805265, -0.5957127846009439, 0.0807964001497601]

>  <energy>  (20) 
-111.56723207874994

>  <inter_energy>  (20) 
-109.69828405400906

>  <intra_energy>  (20) 
0.0

>  <rmsd>  (20) 
11.104

>  <sdf_rank>  (20) 
0

$$$$

     RDKit          3D

 19 19  0  0  0  0  0  0  0  0999 V2000
   13.1178   12.2816   41.6826 C   0  0  0  0  0  0  0  0  0  0  0  0
   13.3064   12.5539   40.3916 C   0  0  0  0  0  0  0  0  0  0  0  0
   13.1087   13.9817   39.8888 C   0  0  0  0  0  0  0  0  0  0  0  0
   12.7675   14.9077   40.7438 C   0  0  0  0  0  0  0  0  0  0  0  0
   12.5586   14.5982   42.2182 C   0  0  0  0  0  0  0  0  0  0  0  0
   13.0637   10.6909   43.3770 O   0  0  0  0  0  0  0  0  0  0  0  0
   12.7204   13.3758   42.6575 C   0  0  0  0  0  0  0  0  0  0  0  0
   13.2933   10.8758   42.2475 C   0  0  0  0  0  0  0  0  0  0  0  0
   12.2576   14.0182   37.6720 C   0  0  0  0  0  0  0  0  0  0  0  0
   13.2867   14.3813   38.5560 O   0  0  0  0  0  0  0  0  0  0  0  0
   12.5943   16.2169   40.3026 O   0  0  0  0  0  0  0  0  0  0  0  0
   13.6019   11.7563   39.6941 H   0  0  0  0  0  0  0  0  0  0  0  0
   12.2720   15.4003   42.9142 H   0  0  0  0  0  0  0  0  0  0  0  0
   12.5700   13.1436   43.7222 H   0  0  0  0  0  0  0  0  0  0  0  0
   13.6300   10.0511   41.6022 H   0  0  0  0  0  0  0  0  0  0  0  0
   11.3733   13.7063   38.2472 H   0  0  0  0  0  0  0  0  0  0  0  0
   11.9978   14.8790   37.0383 H   0  0  0  0  0  0  0  0  0  0  0  0
   12.5954   13.1850   37.0383 H   0  0  0  0  0  0  0  0  0  0  0  0
   12.3356   16.9253   40.9441 H   0  0  0  0  0  0  0  0  0  0  0  0
  1  2  2  0
  1  7  1  0
  1  8  1  0
  2  3  1  0
  3  4  2  0
  3 10  1  0
  4  5  1  0
  4 11  1  0
  5  7  2  0
  6  8  2  0
  9 10  1  0
  2 12  1  0
  5 13  1  0
  7 14  1  0
  8 15  1  0
  9 16  1  0
  9 17  1  0
  9 18  1  0
 11 19  1  0
M  END
>  <filename_input>  (21) 
6XM9_V55_docked.sdf

>  <pdb_id>  (21) 
6XM9_V55

>  <pose_rank>  (21) 
20

>  <num_atoms_heavy>  (21) 
11

>  <num_torsions>  (21) 
2

>  <pose>  (21) 
[13.11784451960125, 12.281638221095173, 41.68264327334206, -3.4829612034944946, 0.9993292206807672, -0.4753798687922734, -3.226633980641729, 1.2379878733422547]

>  <energy>  (21) 
-132.4670505756415

>  <inter_energy>  (21) 
-114.00347106871236

>  <intra_energy>  (21) 
0.7212621847496788

>  <rmsd>  (21) 
12.4895

>  <sdf_rank>  (21) 
0

$$$$

     RDKit          3D

 19 19  0  0  0  0  0  0  0  0999 V2000
   13.7964   15.9921   32.1451 C   0  0  0  0  0  0  0  0  0  0  0  0
   14.7601   16.9056   32.0297 C   0  0  0  0  0  0  0  0  0  0  0  0
   15.2678   17.6230   33.2780 C   0  0  0  0  0  0  0  0  0  0  0  0
   14.7485   17.3142   34.4355 C   0  0  0  0  0  0  0  0  0  0  0  0
   13.6532   16.2672   34.5679 C   0  0  0  0  0  0  0  0  0  0  0  0
   12.3229   15.6914   30.3725 O   0  0  0  0  0  0  0  0  0  0  0  0
   13.2077   15.6508   33.5025 C   0  0  0  0  0  0  0  0  0  0  0  0
   13.2413   15.2441   30.9374 C   0  0  0  0  0  0  0  0  0  0  0  0
   16.4557   19.2814   32.0620 C   0  0  0  0  0  0  0  0  0  0  0  0
   16.2804   18.5937   33.2739 O   0  0  0  0  0  0  0  0  0  0  0  0
   15.2087   17.9518   35.5846 O   0  0  0  0  0  0  0  0  0  0  0  0
   15.1860   17.1407   31.0432 H   0  0  0  0  0  0  0  0  0  0  0  0
   13.2362   16.0284   35.5573 H   0  0  0  0  0  0  0  0  0  0  0  0
   12.4149   14.8933   33.5898 H   0  0  0  0  0  0  0  0  0  0  0  0
   13.6980   14.3004   30.6048 H   0  0  0  0  0  0  0  0  0  0  0  0
   16.7226   20.3281   32.2697 H   0  0  0  0  0  0  0  0  0  0  0  0
   17.2613   18.8054   31.4836 H   0  0  0  0  0  0  0  0  0  0  0  0
   15.5207   19.2492   31.4836 H   0  0  0  0  0  0  0  0  0  0  0  0
   14.8206   17.7238   36.4663 H   0  0  0  0  0  0  0  0  0  0  0  0
  1  2  2  0
  1  7  1  0
  1  8  1  0
  2  3  1  0
  3  4  2  0
  3 10  1  0
  4  5  1  0
  4 11  1  0
  5  7  2  0
  6  8  2  0
  9 10  1  0
  2 12  1  0
  5 13  1  0
  7 14  1  0
  8 15  1  0
  9 16  1  0
  9 17  1  0
  9 18  1  0
 11 19  1  0
M  END
>  <filename_input>  (22) 
6XM9_V55_docked.sdf

>  <pdb_id>  (22) 
6XM9_V55

>  <pose_rank>  (22) 
21

>  <num_atoms_heavy>  (22) 
11

>  <num_torsions>  (22) 
2

>  <pose>  (22) 
[13.796353443367732, 15.99213140023, 32.145125351297885, 3.019042731611499, -2.4080268903165223, 0.03446038422022258, -1.7184733384267752, 0.34738981141475606]

>  <energy>  (22) 
-109.57285241030654

>  <inter_energy>  (22) 
-113.9534726674708

>  <intra_energy>  (22) 
0.0

>  <rmsd>  (22) 
11.402

>  <sdf_rank>  (22) 
0

$$$$

     RDKit          3D

 19 19  0  0  0  0  0  0  0  0999 V2000
   28.1137    1.5316   31.2090 C   0  0  0  0  0  0  0  0  0  0  0  0
   26.8824    1.3371   30.7374 C   0  0  0  0  0  0  0  0  0  0  0  0
   26.6910    0.9623   29.2699 C   0  0  0  0  0  0  0  0  0  0  0  0
   27.7460    0.8315   28.5118 C   0  0  0  0  0  0  0  0  0  0  0  0
   29.1515    1.0472   29.0516 C   0  0  0  0  0  0  0  0  0  0  0  0
   28.4214    1.0674   33.4659 O   0  0  0  0  0  0  0  0  0  0  0  0
   29.3251    1.3741   30.3071 C   0  0  0  0  0  0  0  0  0  0  0  0
   28.3729    1.9131   32.6628 C   0  0  0  0  0  0  0  0  0  0  0  0
   24.6016    1.8464   28.5681 C   0  0  0  0  0  0  0  0  0  0  0  0
   25.4444    0.7278   28.6709 O   0  0  0  0  0  0  0  0  0  0  0  0
   27.5885    0.4793   27.1739 O   0  0  0  0  0  0  0  0  0  0  0  0
   26.0112    1.4456   31.4001 H   0  0  0  0  0  0  0  0  0  0  0  0
   30.0206    0.9288   28.3879 H   0  0  0  0  0  0  0  0  0  0  0  0
   30.3383    1.5331   30.7048 H   0  0  0  0  0  0  0  0  0  0  0  0
   28.5115    2.9661   32.9492 H   0  0  0  0  0  0  0  0  0  0  0  0
   24.3358    2.1991   29.5756 H   0  0  0  0  0  0  0  0  0  0  0  0
   25.1216    2.6486   28.0241 H   0  0  0  0  0  0  0  0  0  0  0  0
   23.6870    1.5676   28.0241 H   0  0  0  0  0  0  0  0  0  0  0  0
   28.3829    0.3779   26.5919 H   0  0  0  0  0  0  0  0  0  0  0  0
  1  2  2  0
  1  7  1  0
  1  8  1  0
  2  3  1  0
  3  4  2  0
  3 10  1  0
  4  5  1  0
  4 11  1  0
  5  7  2  0
  6  8  2  0
  9 10  1  0
  2 12  1  0
  5 13  1  0
  7 14  1  0
  8 15  1  0
  9 16  1  0
  9 17  1  0
  9 18  1  0
 11 19  1  0
M  END
>  <filename_input>  (23) 
6XM9_V55_docked.sdf

>  <pdb_id>  (23) 
6XM9_V55

>  <pose_rank>  (23) 
22

>  <num_atoms_heavy>  (23) 
11

>  <num_torsions>  (23) 
2

>  <pose>  (23) 
[28.11374342708709, 1.5315824922536356, 31.20899876213976, -0.834937086281793, 4.169222482262992, 2.2954714269537155, 7.610788429287397, 1.0817715172632203]

>  <energy>  (23) 
-123.94096300583871

>  <inter_energy>  (23) 
-106.63125086029699

>  <intra_energy>  (23) 
0.029648344882718378

>  <rmsd>  (23) 
11.5024

>  <sdf_rank>  (23) 
0

$$$$

     RDKit          3D

 19 19  0  0  0  0  0  0  0  0999 V2000
   16.5237    1.0363   43.1959 C   0  0  0  0  0  0  0  0  0  0  0  0
   15.6490    1.7302   43.9238 C   0  0  0  0  0  0  0  0  0  0  0  0
   14.3151    2.1402   43.3048 C   0  0  0  0  0  0  0  0  0  0  0  0
   14.0595    1.7898   42.0732 C   0  0  0  0  0  0  0  0  0  0  0  0
   15.0550    0.9925   41.2447 C   0  0  0  0  0  0  0  0  0  0  0  0
   18.5869    1.4117   44.1989 O   0  0  0  0  0  0  0  0  0  0  0  0
   16.2035    0.6412   41.7651 C   0  0  0  0  0  0  0  0  0  0  0  0
   17.8752    0.6011   43.7526 C   0  0  0  0  0  0  0  0  0  0  0  0
   13.7504    4.0432   44.6084 C   0  0  0  0  0  0  0  0  0  0  0  0
   13.3205    2.8634   43.9797 O   0  0  0  0  0  0  0  0  0  0  0  0
   12.8427    2.1467   41.4982 O   0  0  0  0  0  0  0  0  0  0  0  0
   15.8863    2.0052   44.9621 H   0  0  0  0  0  0  0  0  0  0  0  0
   14.8102    0.7115   40.2098 H   0  0  0  0  0  0  0  0  0  0  0  0
   16.9294    0.0655   41.1721 H   0  0  0  0  0  0  0  0  0  0  0  0
   18.1740   -0.4573   43.7339 H   0  0  0  0  0  0  0  0  0  0  0  0
   13.7037    3.9150   45.6999 H   0  0  0  0  0  0  0  0  0  0  0  0
   14.7860    4.2619   44.3089 H   0  0  0  0  0  0  0  0  0  0  0  0
   13.0982    4.8769   44.3089 H   0  0  0  0  0  0  0  0  0  0  0  0
   12.6405    1.8851   40.5650 H   0  0  0  0  0  0  0  0  0  0  0  0
  1  2  2  0
  1  7  1  0
  1  8  1  0
  2  3  1  0
  3  4  2  0
  3 10  1  0
  4  5  1  0
  4 11  1  0
  5  7  2  0
  6  8  2  0
  9 10  1  0
  2 12  1  0
  5 13  1  0
  7 14  1  0
  8 15  1  0
  9 16  1  0
  9 17  1  0
  9 18  1  0
 11 19  1  0
M  END
>  <filename_input>  (24) 
6XM9_V55_docked.sdf

>  <pdb_id>  (24) 
6XM9_V55

>  <pose_rank>  (24) 
23

>  <num_atoms_heavy>  (24) 
11

>  <num_torsions>  (24) 
2

>  <pose>  (24) 
[16.523669539484636, 1.036301630965805, 43.19585553344863, -0.4629337147472744, -0.33365520376623337, -1.3120333818998697, -1.0960160686730698, 0.8097144589464653]

>  <energy>  (24) 
-77.68854286064136

>  <inter_energy>  (24) 
-72.20333816197814

>  <intra_energy>  (24) 
0.0

>  <rmsd>  (24) 
13.8576

>  <sdf_rank>  (24) 
0

$$$$

     RDKit          3D

 19 19  0  0  0  0  0  0  0  0999 V2000
   23.6728    1.8826   26.2082 C   0  0  0  0  0  0  0  0  0  0  0  0
   24.7615    1.3690   26.7807 C   0  0  0  0  0  0  0  0  0  0  0  0
   26.1368    1.9111   26.3996 C   0  0  0  0  0  0  0  0  0  0  0  0
   26.2112    2.8770   25.5241 C   0  0  0  0  0  0  0  0  0  0  0  0
   24.9685    3.4673   24.8756 C   0  0  0  0  0  0  0  0  0  0  0  0
   21.3843    1.6923   25.8475 O   0  0  0  0  0  0  0  0  0  0  0  0
   23.7854    3.0052   25.1921 C   0  0  0  0  0  0  0  0  0  0  0  0
   22.2710    1.3822   26.5405 C   0  0  0  0  0  0  0  0  0  0  0  0
   27.2534    0.8681   28.2176 C   0  0  0  0  0  0  0  0  0  0  0  0
   27.3453    1.4510   26.9432 O   0  0  0  0  0  0  0  0  0  0  0  0
   27.4577    3.3896   25.1743 O   0  0  0  0  0  0  0  0  0  0  0  0
   24.6697    0.5613   27.5217 H   0  0  0  0  0  0  0  0  0  0  0  0
   25.0639    4.2812   24.1418 H   0  0  0  0  0  0  0  0  0  0  0  0
   22.8819    3.4259   24.7266 H   0  0  0  0  0  0  0  0  0  0  0  0
   22.0986    0.7407   27.4174 H   0  0  0  0  0  0  0  0  0  0  0  0
   27.3759    1.6456   28.9860 H   0  0  0  0  0  0  0  0  0  0  0  0
   26.2690    0.3910   28.3324 H   0  0  0  0  0  0  0  0  0  0  0  0
   28.0434    0.1113   28.3324 H   0  0  0  0  0  0  0  0  0  0  0  0
   27.5234    4.1220   24.5114 H   0  0  0  0  0  0  0  0  0  0  0  0
  1  2  2  0
  1  7  1  0
  1  8  1  0
  2  3  1  0
  3  4  2  0
  3 10  1  0
  4  5  1  0
  4 11  1  0
  5  7  2  0
  6  8  2  0
  9 10  1  0
  2 12  1  0
  5 13  1  0
  7 14  1  0
  8 15  1  0
  9 16  1  0
  9 17  1  0
  9 18  1  0
 11 19  1  0
M  END
>  <filename_input>  (25) 
6XM9_V55_docked.sdf

>  <pdb_id>  (25) 
6XM9_V55

>  <pose_rank>  (25) 
24

>  <num_atoms_heavy>  (25) 
11

>  <num_torsions>  (25) 
2

>  <pose>  (25) 
[23.67284547416441, 1.8825624559259357, 26.20821167867149, 0.74142647850246, -1.0013149156746017, 2.1313197740475727, -3.0411874103065832, -0.522059414083243]

>  <energy>  (25) 
-111.47999280146934

>  <inter_energy>  (25) 
-97.47538455937269

>  <intra_energy>  (25) 
0.0

>  <rmsd>  (25) 
12.2905

>  <sdf_rank>  (25) 
0

$$$$

     RDKit          3D

 19 19  0  0  0  0  0  0  0  0999 V2000
   22.9080   11.0110   34.1940 C   0  0  0  0  0  0  0  0  0  0  0  0
   22.4760   10.1900   35.1510 C   0  0  0  0  0  0  0  0  0  0  0  0
   21.5230    9.0530   34.7910 C   0  0  0  0  0  0  0  0  0  0  0  0
   21.1610    8.9070   33.5450 C   0  0  0  0  0  0  0  0  0  0  0  0
   21.6590    9.8400   32.4520 C   0  0  0  0  0  0  0  0  0  0  0  0
   24.3210   12.2580   35.5550 O   0  0  0  0  0  0  0  0  0  0  0  0
   22.4720   10.8210   32.7520 C   0  0  0  0  0  0  0  0  0  0  0  0
   23.8560   12.1690   34.4880 C   0  0  0  0  0  0  0  0  0  0  0  0
   21.3490    8.3640   37.0570 C   0  0  0  0  0  0  0  0  0  0  0  0
   21.0130    8.1280   35.7140 O   0  0  0  0  0  0  0  0  0  0  0  0
   20.3010    7.8680   33.1990 O   0  0  0  0  0  0  0  0  0  0  0  0
   22.8035   10.3305   36.1917 H   0  0  0  0  0  0  0  0  0  0  0  0
   21.3365    9.6906   31.4110 H   0  0  0  0  0  0  0  0  0  0  0  0
   22.8357   11.5009   31.9674 H   0  0  0  0  0  0  0  0  0  0  0  0
   24.0972   12.9069   33.7087 H   0  0  0  0  0  0  0  0  0  0  0  0
   20.6251    7.8556   37.7109 H   0  0  0  0  0  0  0  0  0  0  0  0
   22.3587    7.9757   37.2560 H   0  0  0  0  0  0  0  0  0  0  0  0
   21.3263    9.4456   37.2560 H   0  0  0  0  0  0  0  0  0  0  0  0
   20.0214    7.7499   32.2567 H   0  0  0  0  0  0  0  0  0  0  0  0
  1  2  2  0
  1  7  1  0
  1  8  1  0
  2  3  1  0
  3  4  2  0
  3 10  1  0
  4  5  1  0
  4 11  1  0
  5  7  2  0
  6  8  2  0
  9 10  1  0
  2 12  1  0
  5 13  1  0
  7 14  1  0
  8 15  1  0
  9 16  1  0
  9 17  1  0
  9 18  1  0
 11 19  1  0
M  END
>  <filename_input>  (26) 
6XM9_V55_docked.sdf

>  <pdb_id>  (26) 
6XM9_V55

>  <pose_rank>  (26) 
25

>  <num_atoms_heavy>  (26) 
11

>  <num_torsions>  (26) 
2

>  <pose>  (26) 
[22.908, 11.011, 34.194, 1e-06, 1e-06, 1e-06, 0.0, 0.0]

>  <energy>  (26) 
-425.1821569224981

>  <inter_energy>  (26) 
-429.1283053992477

>  <intra_energy>  (26) 
0.0

>  <rmsd>  (26) 
0.0

>  <sdf_rank>  (26) 
0

$$$$
