
     RDKit          3D

 66 72  0  0  0  0  0  0  0  0999 V2000
    3.3375    0.2052   16.4377 P   0  0  2  0  0  0  0  0  0  0  0  0
    3.5504   -1.2558   16.7810 O   0  0  0  0  0  0  0  0  0  0  0  0
    4.0015    1.3211   17.1896 O   0  0  0  0  0  0  0  0  0  0  0  0
    1.7662    0.5321   16.2759 O   0  0  0  0  0  0  0  0  0  0  0  0
    0.8423   -0.4698   15.9016 C   0  0  0  0  0  0  0  0  0  0  0  0
   -0.5013    0.2379   15.7110 C   0  0  1  0  0  0  0  0  0  0  0  0
   -0.9500    0.6988   16.9799 O   0  0  0  0  0  0  0  0  0  0  0  0
   -0.4815    1.5036   14.8628 C   0  0  1  0  0  0  0  0  0  0  0  0
   -0.5906    1.1314   13.5050 O   0  0  0  0  0  0  0  0  0  0  0  0
   -1.7216    2.2405   15.3565 C   0  0  1  0  0  0  0  0  0  0  0  0
   -2.8655    1.5490   14.8083 O   0  0  0  0  0  0  0  0  0  0  0  0
   -1.7105    1.9033   16.8305 C   0  0  2  0  0  0  0  0  0  0  0  0
   -0.9704    2.8835   17.6429 N   0  0  0  0  0  0  0  0  0  0  0  0
   -0.5788    4.1283   17.2892 C   0  0  0  0  0  0  0  0  0  0  0  0
    0.1144    4.7232   18.2984 N   0  0  0  0  0  0  0  0  0  0  0  0
    0.1867    3.8179   19.3005 C   0  0  0  0  0  0  0  0  0  0  0  0
    0.7724    3.7766   20.6388 C   0  0  0  0  0  0  0  0  0  0  0  0
    1.4738    4.8512   21.1147 N   0  0  0  0  0  0  0  0  0  0  0  0
    0.6078    2.6225   21.3352 N   0  0  0  0  0  0  0  0  0  0  0  0
   -0.0708    1.5637   20.8787 C   0  0  0  0  0  0  0  0  0  0  0  0
   -0.6296    1.5332   19.6585 N   0  0  0  0  0  0  0  0  0  0  0  0
   -0.5231    2.6131   18.8608 C   0  0  0  0  0  0  0  0  0  0  0  0
   -0.0760    2.0964   12.3383 P   0  0  2  0  0  0  0  0  0  0  0  0
   -0.6801    3.4532   12.5993 O   0  0  0  0  0  0  0  0  0  0  0  0
   -0.2611    1.3778   11.0218 O   0  0  0  0  0  0  0  0  0  0  0  0
    1.5054    2.2169   12.6094 O   0  0  0  0  0  0  0  0  0  0  0  0
    2.3228    1.1000   12.2668 C   0  0  0  0  0  0  0  0  0  0  0  0
    3.7558    1.3495   12.7300 C   0  0  1  0  0  0  0  0  0  0  0  0
    4.2907    2.5385   12.1435 O   0  0  0  0  0  0  0  0  0  0  0  0
    3.8745    1.5742   14.2285 C   0  0  1  0  0  0  0  0  0  0  0  0
    3.8292    0.3246   14.9191 O   0  0  0  0  0  0  0  0  0  0  0  0
    5.1989    2.3099   14.3245 C   0  0  1  0  0  0  0  0  0  0  0  0
    6.2985    1.3846   14.2874 O   0  0  0  0  0  0  0  0  0  0  0  0
    5.2165    3.1392   13.0397 C   0  0  2  0  0  0  0  0  0  0  0  0
    4.6864    4.4756   13.3798 N   0  0  0  0  0  0  0  0  0  0  0  0
    3.4040    4.8060   13.6298 C   0  0  0  0  0  0  0  0  0  0  0  0
    3.2883    6.1335   13.9264 N   0  0  0  0  0  0  0  0  0  0  0  0
    4.5298    6.6517   13.8879 C   0  0  0  0  0  0  0  0  0  0  0  0
    5.1478    7.9838   14.1080 C   0  0  0  0  0  0  0  0  0  0  0  0
    4.3903    9.0630   14.4383 N   0  0  0  0  0  0  0  0  0  0  0  0
    6.4904    8.0807   13.9604 N   0  0  0  0  0  0  0  0  0  0  0  0
    7.2622    7.0269   13.6349 C   0  0  0  0  0  0  0  0  0  0  0  0
    6.7674    5.7897   13.4296 N   0  0  0  0  0  0  0  0  0  0  0  0
    5.4419    5.5545   13.5305 C   0  0  0  0  0  0  0  0  0  0  0  0
    1.1580   -0.9480   14.9625 H   0  0  0  0  0  0  0  0  0  0  0  0
    0.7751   -1.2586   16.6653 H   0  0  0  0  0  0  0  0  0  0  0  0
   -1.1275   -0.5155   15.2107 H   0  0  0  0  0  0  0  0  0  0  0  0
    0.4273    2.1180   14.9443 H   0  0  0  0  0  0  0  0  0  0  0  0
   -1.7478    3.3125   15.1110 H   0  0  0  0  0  0  0  0  0  0  0  0
   -3.4298    1.2077   15.5467 H   0  0  0  0  0  0  0  0  0  0  0  0
   -2.7599    1.8546   17.1566 H   0  0  0  0  0  0  0  0  0  0  0  0
   -0.7917    4.5971   16.3171 H   0  0  0  0  0  0  0  0  0  0  0  0
    1.8859    4.8203   22.0582 H   0  0  0  0  0  0  0  0  0  0  0  0
    1.5895    5.6908   20.5294 H   0  0  0  0  0  0  0  0  0  0  0  0
   -0.1751    0.6829   21.5293 H   0  0  0  0  0  0  0  0  0  0  0  0
    1.9319    0.1966   12.7578 H   0  0  0  0  0  0  0  0  0  0  0  0
    2.3116    0.9617   11.1756 H   0  0  0  0  0  0  0  0  0  0  0  0
    4.2973    0.4412   12.4270 H   0  0  0  0  0  0  0  0  0  0  0  0
    3.0613    2.1480   14.6969 H   0  0  0  0  0  0  0  0  0  0  0  0
    5.2947    2.8944   15.2514 H   0  0  0  0  0  0  0  0  0  0  0  0
    6.5694    1.1567   15.2120 H   0  0  0  0  0  0  0  0  0  0  0  0
    6.2253    3.1987   12.6053 H   0  0  0  0  0  0  0  0  0  0  0  0
    2.5616    4.0993   13.5989 H   0  0  0  0  0  0  0  0  0  0  0  0
    4.8366    9.9793   14.5871 H   0  0  0  0  0  0  0  0  0  0  0  0
    3.3701    8.9645   14.5397 H   0  0  0  0  0  0  0  0  0  0  0  0
    8.3462    7.1823   13.5316 H   0  0  0  0  0  0  0  0  0  0  0  0
  1  2  2  0
  1  3  1  1
  1  4  1  0
  1 31  1  0
  4  5  1  0
  6  5  1  0
  6  7  1  0
  6  8  1  0
  7 12  1  0
  8  9  1  0
  8 10  1  0
  9 23  1  0
 10 11  1  0
 10 12  1  0
 12 13  1  0
 13 14  1  0
 13 22  1  0
 14 15  2  0
 15 16  1  0
 16 17  2  0
 16 22  1  0
 17 18  1  0
 17 19  1  0
 19 20  2  0
 20 21  1  0
 21 22  2  0
 23 24  2  0
 23 25  1  6
 23 26  1  0
 26 27  1  0
 28 27  1  0
 28 29  1  0
 28 30  1  0
 29 34  1  0
 30 31  1  0
 30 32  1  0
 32 33  1  0
 32 34  1  0
 34 35  1  0
 35 36  1  0
 35 44  1  0
 36 37  2  0
 37 38  1  0
 38 39  2  0
 38 44  1  0
 39 40  1  0
 39 41  1  0
 41 42  2  0
 42 43  1  0
 43 44  2  0
  5 45  1  0
  5 46  1  0
  6 47  1  6
  8 48  1  6
 10 49  1  1
 11 50  1  0
 12 51  1  1
 14 52  1  0
 18 53  1  0
 18 54  1  0
 20 55  1  0
 27 56  1  0
 27 57  1  0
 28 58  1  6
 30 59  1  1
 32 60  1  1
 33 61  1  0
 34 62  1  6
 36 63  1  0
 40 64  1  0
 40 65  1  0
 42 66  1  0
M  CHG  2   3  -1  25  -1
M  END
>  <filename_input>  (1) 
6YJA_2BA_docked.sdf

>  <pdb_id>  (1) 
6YJA_2BA

>  <pose_rank>  (1) 
0

>  <num_atoms_heavy>  (1) 
44

>  <num_torsions>  (1) 
2

>  <pose>  (1) 
[3.3374746806604745, 0.20517502699340315, 16.437652941726803, 0.15871437157815146, 2.961502311819614, 1.251797984040439, 14.352217230644069, 6.717727958477109]

>  <energy>  (1) 
-980.8727997829242

>  <inter_energy>  (1) 
-997.908253571043

>  <intra_energy>  (1) 
25.065046757407554

>  <rmsd>  (1) 
1.81018

>  <sdf_rank>  (1) 
0

$$$$

     RDKit          3D

 66 72  0  0  0  0  0  0  0  0999 V2000
    0.1950    2.1925   12.1328 P   0  0  2  0  0  0  0  0  0  0  0  0
   -0.0814    1.4547   10.8378 O   0  0  0  0  0  0  0  0  0  0  0  0
   -0.3361    3.5677   12.4131 O   0  0  0  0  0  0  0  0  0  0  0  0
    1.7660    2.1433   12.4956 O   0  0  0  0  0  0  0  0  0  0  0  0
    2.5926    1.0917   12.0390 C   0  0  0  0  0  0  0  0  0  0  0  0
    3.9587    1.3069   12.6947 C   0  0  1  0  0  0  0  0  0  0  0  0
    4.5344    2.4905   12.1549 O   0  0  0  0  0  0  0  0  0  0  0  0
    3.9514    1.5711   14.1954 C   0  0  1  0  0  0  0  0  0  0  0  0
    3.9291    0.3286   14.8661 O   0  0  0  0  0  0  0  0  0  0  0  0
    5.2705    2.3083   14.3982 C   0  0  1  0  0  0  0  0  0  0  0  0
    6.3217    1.3234   14.2882 O   0  0  0  0  0  0  0  0  0  0  0  0
    5.3549    3.1360   13.1356 C   0  0  2  0  0  0  0  0  0  0  0  0
    4.7445    4.4687   13.2753 N   0  0  0  0  0  0  0  0  0  0  0  0
    3.4439    4.8063   13.1244 C   0  0  0  0  0  0  0  0  0  0  0  0
    3.2671    6.1444   13.3003 N   0  0  0  0  0  0  0  0  0  0  0  0
    4.4923    6.6659   13.5377 C   0  0  0  0  0  0  0  0  0  0  0  0
    5.0347    7.9975   13.7991 C   0  0  0  0  0  0  0  0  0  0  0  0
    4.2055    9.0863   13.8114 N   0  0  0  0  0  0  0  0  0  0  0  0
    6.3775    8.0773   13.9850 N   0  0  0  0  0  0  0  0  0  0  0  0
    7.1987    7.0213   13.9699 C   0  0  0  0  0  0  0  0  0  0  0  0
    6.7679    5.7724   13.7318 N   0  0  0  0  0  0  0  0  0  0  0  0
    5.4555    5.5612   13.5151 C   0  0  0  0  0  0  0  0  0  0  0  0
    3.3854    0.2068   16.3650 P   0  0  2  0  0  0  0  0  0  0  0  0
    4.0923    1.2675   17.1706 O   0  0  0  0  0  0  0  0  0  0  0  0
    3.4202   -1.2522   16.7576 O   0  0  0  0  0  0  0  0  0  0  0  0
    1.8411    0.6435   16.2499 O   0  0  0  0  0  0  0  0  0  0  0  0
    0.9307   -0.2893   15.6720 C   0  0  0  0  0  0  0  0  0  0  0  0
   -0.4428    0.3593   15.5187 C   0  0  1  0  0  0  0  0  0  0  0  0
   -0.9466    0.8104   16.7782 O   0  0  0  0  0  0  0  0  0  0  0  0
   -0.4281    1.6023   14.6441 C   0  0  1  0  0  0  0  0  0  0  0  0
   -0.4069    1.2334   13.2642 O   0  0  0  0  0  0  0  0  0  0  0  0
   -1.6919    2.3110   15.0969 C   0  0  1  0  0  0  0  0  0  0  0  0
   -2.8470    1.7580   14.4437 O   0  0  0  0  0  0  0  0  0  0  0  0
   -1.7590    1.9609   16.5840 C   0  0  2  0  0  0  0  0  0  0  0  0
   -1.1207    3.0718   17.3196 N   0  0  0  0  0  0  0  0  0  0  0  0
   -1.0708    4.3689   16.9573 C   0  0  0  0  0  0  0  0  0  0  0  0
   -0.4118    5.1143   17.8920 N   0  0  0  0  0  0  0  0  0  0  0  0
   -0.0574    4.2744   18.8821 C   0  0  0  0  0  0  0  0  0  0  0  0
    0.6514    4.3811   20.1824 C   0  0  0  0  0  0  0  0  0  0  0  0
    1.1298    5.5738   20.6252 N   0  0  0  0  0  0  0  0  0  0  0  0
    0.8071    3.2453   20.9032 N   0  0  0  0  0  0  0  0  0  0  0  0
    0.3417    2.0527   20.4868 C   0  0  0  0  0  0  0  0  0  0  0  0
   -0.3171    1.8872   19.3223 N   0  0  0  0  0  0  0  0  0  0  0  0
   -0.5296    2.9353   18.4983 C   0  0  0  0  0  0  0  0  0  0  0  0
    2.1742    0.1199   12.3397 H   0  0  0  0  0  0  0  0  0  0  0  0
    2.6703    1.0905   10.9418 H   0  0  0  0  0  0  0  0  0  0  0  0
    4.4948    0.3659   12.5020 H   0  0  0  0  0  0  0  0  0  0  0  0
    3.0923    2.1440   14.5745 H   0  0  0  0  0  0  0  0  0  0  0  0
    5.3445    2.8673   15.3427 H   0  0  0  0  0  0  0  0  0  0  0  0
    6.6137    1.0498   15.1937 H   0  0  0  0  0  0  0  0  0  0  0  0
    6.4217    3.2310   12.8848 H   0  0  0  0  0  0  0  0  0  0  0  0
    2.6376    4.0954   12.8909 H   0  0  0  0  0  0  0  0  0  0  0  0
    4.5896   10.0240   13.9959 H   0  0  0  0  0  0  0  0  0  0  0  0
    3.1975    8.9679   13.6361 H   0  0  0  0  0  0  0  0  0  0  0  0
    8.2700    7.1829   14.1604 H   0  0  0  0  0  0  0  0  0  0  0  0
    1.3017   -0.5979   14.6836 H   0  0  0  0  0  0  0  0  0  0  0  0
    0.8467   -1.1694   16.3265 H   0  0  0  0  0  0  0  0  0  0  0  0
   -1.0625   -0.4292   15.0668 H   0  0  0  0  0  0  0  0  0  0  0  0
    0.4541    2.2520   14.7425 H   0  0  0  0  0  0  0  0  0  0  0  0
   -1.6772    3.3888   14.8776 H   0  0  0  0  0  0  0  0  0  0  0  0
   -3.4946    1.4479   15.1252 H   0  0  0  0  0  0  0  0  0  0  0  0
   -2.7933    1.7913   16.9178 H   0  0  0  0  0  0  0  0  0  0  0  0
   -1.5039    4.7736   16.0307 H   0  0  0  0  0  0  0  0  0  0  0  0
    1.6191    5.6286   21.5299 H   0  0  0  0  0  0  0  0  0  0  0  0
    1.0032    6.4228   20.0560 H   0  0  0  0  0  0  0  0  0  0  0  0
    0.5066    1.1728   21.1260 H   0  0  0  0  0  0  0  0  0  0  0  0
  1  2  2  0
  1  3  1  6
  1  4  1  0
  1 31  1  0
  4  5  1  0
  6  5  1  0
  6  7  1  0
  6  8  1  0
  7 12  1  0
  8  9  1  0
  8 10  1  0
  9 23  1  0
 10 11  1  0
 10 12  1  0
 12 13  1  0
 13 14  1  0
 13 22  1  0
 14 15  2  0
 15 16  1  0
 16 17  2  0
 16 22  1  0
 17 18  1  0
 17 19  1  0
 19 20  2  0
 20 21  1  0
 21 22  2  0
 23 24  2  0
 23 25  1  1
 23 26  1  0
 26 27  1  0
 28 27  1  0
 28 29  1  0
 28 30  1  0
 29 34  1  0
 30 31  1  0
 30 32  1  0
 32 33  1  0
 32 34  1  0
 34 35  1  0
 35 36  1  0
 35 44  1  0
 36 37  2  0
 37 38  1  0
 38 39  2  0
 38 44  1  0
 39 40  1  0
 39 41  1  0
 41 42  2  0
 42 43  1  0
 43 44  2  0
  5 45  1  0
  5 46  1  0
  6 47  1  1
  8 48  1  6
 10 49  1  1
 11 50  1  0
 12 51  1  6
 14 52  1  0
 18 53  1  0
 18 54  1  0
 20 55  1  0
 27 56  1  0
 27 57  1  0
 28 58  1  6
 30 59  1  1
 32 60  1  1
 33 61  1  0
 34 62  1  1
 36 63  1  0
 40 64  1  0
 40 65  1  0
 42 66  1  0
M  CHG  2   3  -1  25  -1
M  END
>  <filename_input>  (2) 
6YJA_2BA_docked.sdf

>  <pdb_id>  (2) 
6YJA_2BA

>  <pose_rank>  (2) 
1

>  <num_atoms_heavy>  (2) 
44

>  <num_torsions>  (2) 
2

>  <pose>  (2) 
[0.19500606765391343, 2.192511444791063, 12.132828363515207, -1.6332748849967584, -4.498301485785916, -4.022262501654013, 0.03553551609680874, 2.2412812457892377]

>  <energy>  (2) 
-978.697997622057

>  <inter_energy>  (2) 
-991.8475450159241

>  <intra_energy>  (2) 
23.920528339705978

>  <rmsd>  (2) 
1.63987

>  <sdf_rank>  (2) 
0

$$$$

     RDKit          3D

 66 72  0  0  0  0  0  0  0  0999 V2000
    0.3220    1.3896   12.0776 P   0  0  2  0  0  0  0  0  0  0  0  0
   -0.9348    0.8155   11.4542 O   0  0  0  0  0  0  0  0  0  0  0  0
    1.6062    1.5472   11.3175 O   0  0  0  0  0  0  0  0  0  0  0  0
    0.6261    0.6913   13.4995 O   0  0  0  0  0  0  0  0  0  0  0  0
   -0.4110    0.1317   14.2796 C   0  0  0  0  0  0  0  0  0  0  0  0
    0.2320   -0.2972   15.6006 C   0  0  1  0  0  0  0  0  0  0  0  0
    1.1205   -1.3767   15.3380 O   0  0  0  0  0  0  0  0  0  0  0  0
    1.1224    0.7345   16.2825 C   0  0  1  0  0  0  0  0  0  0  0  0
    0.3053    1.5817   17.0627 O   0  0  0  0  0  0  0  0  0  0  0  0
    2.0272   -0.1406   17.1429 C   0  0  1  0  0  0  0  0  0  0  0  0
    1.2279   -0.6044   18.2534 O   0  0  0  0  0  0  0  0  0  0  0  0
    2.2234   -1.3461   16.2514 C   0  0  2  0  0  0  0  0  0  0  0  0
    3.3988   -1.2305   15.3720 N   0  0  0  0  0  0  0  0  0  0  0  0
    4.0221   -0.1024   14.9633 C   0  0  0  0  0  0  0  0  0  0  0  0
    5.0548   -0.3957   14.1262 N   0  0  0  0  0  0  0  0  0  0  0  0
    5.0615   -1.7403   13.9810 C   0  0  0  0  0  0  0  0  0  0  0  0
    5.8647   -2.7133   13.2433 C   0  0  0  0  0  0  0  0  0  0  0  0
    6.8867   -2.2900   12.4374 N   0  0  0  0  0  0  0  0  0  0  0  0
    5.5117   -4.0173   13.3817 N   0  0  0  0  0  0  0  0  0  0  0  0
    4.5117   -4.4427   14.1619 C   0  0  0  0  0  0  0  0  0  0  0  0
    3.7326   -3.6035   14.8624 N   0  0  0  0  0  0  0  0  0  0  0  0
    3.9700   -2.2793   14.7974 C   0  0  0  0  0  0  0  0  0  0  0  0
    0.7862    3.0520   17.4678 P   0  0  2  0  0  0  0  0  0  0  0  0
    2.1689    2.9107   18.0524 O   0  0  0  0  0  0  0  0  0  0  0  0
   -0.3386    3.7194   18.2251 O   0  0  0  0  0  0  0  0  0  0  0  0
    0.9389    3.8085   16.0559 O   0  0  0  0  0  0  0  0  0  0  0  0
   -0.2548    4.2082   15.3865 C   0  0  0  0  0  0  0  0  0  0  0  0
    0.0906    4.7721   14.0106 C   0  0  1  0  0  0  0  0  0  0  0  0
    0.9824    5.8846   14.1152 O   0  0  0  0  0  0  0  0  0  0  0  0
    0.8182    3.7801   13.1179 C   0  0  1  0  0  0  0  0  0  0  0  0
   -0.1111    2.8571   12.5477 O   0  0  0  0  0  0  0  0  0  0  0  0
    1.4953    4.7034   12.1212 C   0  0  1  0  0  0  0  0  0  0  0  0
    0.5776    5.0956   11.0865 O   0  0  0  0  0  0  0  0  0  0  0  0
    1.8250    5.9313   12.9711 C   0  0  2  0  0  0  0  0  0  0  0  0
    3.2137    5.7675   13.4481 N   0  0  0  0  0  0  0  0  0  0  0  0
    3.8230    4.6212   13.8098 C   0  0  0  0  0  0  0  0  0  0  0  0
    5.1166    4.8494   14.1814 N   0  0  0  0  0  0  0  0  0  0  0  0
    5.3401    6.1677   14.0280 C   0  0  0  0  0  0  0  0  0  0  0  0
    6.4829    7.0957   14.2219 C   0  0  0  0  0  0  0  0  0  0  0  0
    7.6845    6.6454   14.6699 N   0  0  0  0  0  0  0  0  0  0  0  0
    6.2781    8.4047   13.9417 N   0  0  0  0  0  0  0  0  0  0  0  0
    5.0981    8.8749   13.4960 C   0  0  0  0  0  0  0  0  0  0  0  0
    4.0238    8.0868   13.2903 N   0  0  0  0  0  0  0  0  0  0  0  0
    4.0850    6.7621   13.5434 C   0  0  0  0  0  0  0  0  0  0  0  0
   -1.1964    0.8797   14.4630 H   0  0  0  0  0  0  0  0  0  0  0  0
   -0.8822   -0.7205   13.7680 H   0  0  0  0  0  0  0  0  0  0  0  0
   -0.6262   -0.5131   16.2539 H   0  0  0  0  0  0  0  0  0  0  0  0
    1.6951    1.3893   15.6093 H   0  0  0  0  0  0  0  0  0  0  0  0
    2.9471    0.3518   17.4912 H   0  0  0  0  0  0  0  0  0  0  0  0
    1.6659   -0.3502   19.1041 H   0  0  0  0  0  0  0  0  0  0  0  0
    2.3271   -2.2199   16.9115 H   0  0  0  0  0  0  0  0  0  0  0  0
    3.7338    0.9149   15.2662 H   0  0  0  0  0  0  0  0  0  0  0  0
    7.4517   -2.9772   11.9183 H   0  0  0  0  0  0  0  0  0  0  0  0
    7.0908   -1.2842   12.3500 H   0  0  0  0  0  0  0  0  0  0  0  0
    4.3202   -5.5236   14.2322 H   0  0  0  0  0  0  0  0  0  0  0  0
   -0.9171    3.3378   15.2692 H   0  0  0  0  0  0  0  0  0  0  0  0
   -0.7634    4.9822   15.9800 H   0  0  0  0  0  0  0  0  0  0  0  0
   -0.8844    5.0434   13.5797 H   0  0  0  0  0  0  0  0  0  0  0  0
    1.5466    3.1245   13.6175 H   0  0  0  0  0  0  0  0  0  0  0  0
    2.3620    4.2370   11.6299 H   0  0  0  0  0  0  0  0  0  0  0  0
   -0.2508    5.4497   11.4969 H   0  0  0  0  0  0  0  0  0  0  0  0
    1.6950    6.8662   12.4063 H   0  0  0  0  0  0  0  0  0  0  0  0
    3.3416    3.6322   13.8060 H   0  0  0  0  0  0  0  0  0  0  0  0
    8.4660    7.3039   14.7984 H   0  0  0  0  0  0  0  0  0  0  0  0
    7.8136    5.6455   14.8810 H   0  0  0  0  0  0  0  0  0  0  0  0
    5.0062    9.9515   13.2902 H   0  0  0  0  0  0  0  0  0  0  0  0
  1  2  2  0
  1  3  1  6
  1  4  1  0
  1 31  1  0
  4  5  1  0
  6  5  1  0
  6  7  1  0
  6  8  1  0
  7 12  1  0
  8  9  1  0
  8 10  1  0
  9 23  1  0
 10 11  1  0
 10 12  1  0
 12 13  1  0
 13 14  1  0
 13 22  1  0
 14 15  2  0
 15 16  1  0
 16 17  2  0
 16 22  1  0
 17 18  1  0
 17 19  1  0
 19 20  2  0
 20 21  1  0
 21 22  2  0
 23 24  2  0
 23 25  1  1
 23 26  1  0
 26 27  1  0
 28 27  1  0
 28 29  1  0
 28 30  1  0
 29 34  1  0
 30 31  1  0
 30 32  1  0
 32 33  1  0
 32 34  1  0
 34 35  1  0
 35 36  1  0
 35 44  1  0
 36 37  2  0
 37 38  1  0
 38 39  2  0
 38 44  1  0
 39 40  1  0
 39 41  1  0
 41 42  2  0
 42 43  1  0
 43 44  2  0
  5 45  1  0
  5 46  1  0
  6 47  1  1
  8 48  1  6
 10 49  1  1
 11 50  1  0
 12 51  1  1
 14 52  1  0
 18 53  1  0
 18 54  1  0
 20 55  1  0
 27 56  1  0
 27 57  1  0
 28 58  1  6
 30 59  1  1
 32 60  1  6
 33 61  1  0
 34 62  1  6
 36 63  1  0
 40 64  1  0
 40 65  1  0
 42 66  1  0
M  CHG  2   3  -1  25  -1
M  END
>  <filename_input>  (3) 
6YJA_2BA_docked.sdf

>  <pdb_id>  (3) 
6YJA_2BA

>  <pose_rank>  (3) 
2

>  <num_atoms_heavy>  (3) 
44

>  <num_torsions>  (3) 
2

>  <pose>  (3) 
[0.3220041659334473, 1.3895610850845403, 12.077585892498885, -1.0665963943841212, -0.3138908501982446, -1.5008406753249581, 1.116555217427345, 1.092182680779309]

>  <energy>  (3) 
-886.5198501872042

>  <inter_energy>  (3) 
-880.9109124736349

>  <intra_energy>  (3) 
18.76700196426149

>  <rmsd>  (3) 
6.56446

>  <sdf_rank>  (3) 
0

$$$$

     RDKit          3D

 66 72  0  0  0  0  0  0  0  0999 V2000
    1.2780    2.9729   17.3365 P   0  0  2  0  0  0  0  0  0  0  0  0
    0.3084    3.5343   18.3575 O   0  0  0  0  0  0  0  0  0  0  0  0
    2.7345    2.7627   17.6298 O   0  0  0  0  0  0  0  0  0  0  0  0
    1.1231    3.7324   15.9219 O   0  0  0  0  0  0  0  0  0  0  0  0
   -0.0952    4.3418   15.5451 C   0  0  0  0  0  0  0  0  0  0  0  0
    0.0956    4.8229   14.1047 C   0  0  1  0  0  0  0  0  0  0  0  0
    1.0511    5.8769   14.1061 O   0  0  0  0  0  0  0  0  0  0  0  0
    0.6869    3.8121   13.1297 C   0  0  1  0  0  0  0  0  0  0  0  0
   -0.3626    3.0133   12.6254 O   0  0  0  0  0  0  0  0  0  0  0  0
    1.2873    4.7140   12.0569 C   0  0  1  0  0  0  0  0  0  0  0  0
    0.1839    5.2398   11.2866 O   0  0  0  0  0  0  0  0  0  0  0  0
    1.7960    5.8739   12.8828 C   0  0  2  0  0  0  0  0  0  0  0  0
    3.1896    5.7016   13.3260 N   0  0  0  0  0  0  0  0  0  0  0  0
    3.8285    4.5487   13.6273 C   0  0  0  0  0  0  0  0  0  0  0  0
    5.1047    4.7936   14.0324 N   0  0  0  0  0  0  0  0  0  0  0  0
    5.2624    6.1368   14.0146 C   0  0  0  0  0  0  0  0  0  0  0  0
    6.3409    7.0723   14.3268 C   0  0  0  0  0  0  0  0  0  0  0  0
    7.5424    6.6059   14.7872 N   0  0  0  0  0  0  0  0  0  0  0  0
    6.0612    8.3916   14.1684 N   0  0  0  0  0  0  0  0  0  0  0  0
    4.8892    8.8598   13.7245 C   0  0  0  0  0  0  0  0  0  0  0  0
    3.8561    8.0571   13.4239 N   0  0  0  0  0  0  0  0  0  0  0  0
    4.0008    6.7245   13.5546 C   0  0  0  0  0  0  0  0  0  0  0  0
   -0.0808    1.5571   12.0278 P   0  0  2  0  0  0  0  0  0  0  0  0
    1.0404    1.7067   11.0306 O   0  0  0  0  0  0  0  0  0  0  0  0
   -1.4087    0.9410   11.6524 O   0  0  0  0  0  0  0  0  0  0  0  0
    0.5011    0.7337   13.2817 O   0  0  0  0  0  0  0  0  0  0  0  0
   -0.4211    0.3195   14.2871 C   0  0  0  0  0  0  0  0  0  0  0  0
    0.3367   -0.3125   15.4520 C   0  0  1  0  0  0  0  0  0  0  0  0
    1.1147   -1.4309   15.0186 O   0  0  0  0  0  0  0  0  0  0  0  0
    1.3423    0.6270   16.0975 C   0  0  1  0  0  0  0  0  0  0  0  0
    0.6749    1.5349   16.9755 O   0  0  0  0  0  0  0  0  0  0  0  0
    2.2804   -0.3509   16.7818 C   0  0  1  0  0  0  0  0  0  0  0  0
    1.7380   -0.7784   18.0426 O   0  0  0  0  0  0  0  0  0  0  0  0
    2.2816   -1.5422   15.8229 C   0  0  2  0  0  0  0  0  0  0  0  0
    3.4440   -1.3753   14.9265 N   0  0  0  0  0  0  0  0  0  0  0  0
    4.0380   -0.2205   14.5660 C   0  0  0  0  0  0  0  0  0  0  0  0
    5.0972   -0.4519   13.7364 N   0  0  0  0  0  0  0  0  0  0  0  0
    5.1923   -1.7861   13.5875 C   0  0  0  0  0  0  0  0  0  0  0  0
    6.0817   -2.7277   12.8614 C   0  0  0  0  0  0  0  0  0  0  0  0
    7.1144   -2.2742   12.1030 N   0  0  0  0  0  0  0  0  0  0  0  0
    5.8190   -4.0509   12.9798 N   0  0  0  0  0  0  0  0  0  0  0  0
    4.8032   -4.5247   13.7254 C   0  0  0  0  0  0  0  0  0  0  0  0
    3.9643   -3.7266   14.4159 N   0  0  0  0  0  0  0  0  0  0  0  0
    4.1036   -2.3844   14.3750 C   0  0  0  0  0  0  0  0  0  0  0  0
   -0.9181    3.6138   15.5981 H   0  0  0  0  0  0  0  0  0  0  0  0
   -0.3506    5.1755   16.2156 H   0  0  0  0  0  0  0  0  0  0  0  0
   -0.9220    5.0807   13.7758 H   0  0  0  0  0  0  0  0  0  0  0  0
    1.4288    3.1190   13.5531 H   0  0  0  0  0  0  0  0  0  0  0  0
    2.0299    4.2259   11.4086 H   0  0  0  0  0  0  0  0  0  0  0  0
   -0.5174    5.5740   11.9003 H   0  0  0  0  0  0  0  0  0  0  0  0
    1.7041    6.7760   12.2601 H   0  0  0  0  0  0  0  0  0  0  0  0
    3.3778    3.5479   13.5547 H   0  0  0  0  0  0  0  0  0  0  0  0
    8.3014    7.2667   15.0067 H   0  0  0  0  0  0  0  0  0  0  0  0
    7.6877    5.5941   14.9140 H   0  0  0  0  0  0  0  0  0  0  0  0
    4.7673    9.9460   13.6009 H   0  0  0  0  0  0  0  0  0  0  0  0
   -0.9847    1.1923   14.6482 H   0  0  0  0  0  0  0  0  0  0  0  0
   -1.1163   -0.4191   13.8616 H   0  0  0  0  0  0  0  0  0  0  0  0
   -0.4526   -0.5904   16.1659 H   0  0  0  0  0  0  0  0  0  0  0  0
    1.8870    1.2952   15.4142 H   0  0  0  0  0  0  0  0  0  0  0  0
    3.2723    0.0804   16.9820 H   0  0  0  0  0  0  0  0  0  0  0  0
    2.2565   -0.3697   18.7804 H   0  0  0  0  0  0  0  0  0  0  0  0
    2.3161   -2.5006   16.3618 H   0  0  0  0  0  0  0  0  0  0  0  0
    3.7123    0.7768   14.8965 H   0  0  0  0  0  0  0  0  0  0  0  0
    7.7209   -2.9424   11.6064 H   0  0  0  0  0  0  0  0  0  0  0  0
    7.2904   -1.2624   12.0248 H   0  0  0  0  0  0  0  0  0  0  0  0
    4.6506   -5.6130   13.7733 H   0  0  0  0  0  0  0  0  0  0  0  0
  1  2  2  0
  1  3  1  1
  1  4  1  0
  1 31  1  0
  4  5  1  0
  6  5  1  0
  6  7  1  0
  6  8  1  0
  7 12  1  0
  8  9  1  0
  8 10  1  0
  9 23  1  0
 10 11  1  0
 10 12  1  0
 12 13  1  0
 13 14  1  0
 13 22  1  0
 14 15  2  0
 15 16  1  0
 16 17  2  0
 16 22  1  0
 17 18  1  0
 17 19  1  0
 19 20  2  0
 20 21  1  0
 21 22  2  0
 23 24  2  0
 23 25  1  6
 23 26  1  0
 26 27  1  0
 28 27  1  0
 28 29  1  0
 28 30  1  0
 29 34  1  0
 30 31  1  0
 30 32  1  0
 32 33  1  0
 32 34  1  0
 34 35  1  0
 35 36  1  0
 35 44  1  0
 36 37  2  0
 37 38  1  0
 38 39  2  0
 38 44  1  0
 39 40  1  0
 39 41  1  0
 41 42  2  0
 42 43  1  0
 43 44  2  0
  5 45  1  0
  5 46  1  0
  6 47  1  6
  8 48  1  1
 10 49  1  6
 11 50  1  0
 12 51  1  6
 14 52  1  0
 18 53  1  0
 18 54  1  0
 20 55  1  0
 27 56  1  0
 27 57  1  0
 28 58  1  1
 30 59  1  6
 32 60  1  1
 33 61  1  0
 34 62  1  1
 36 63  1  0
 40 64  1  0
 40 65  1  0
 42 66  1  0
M  CHG  2   3  -1  25  -1
M  END
>  <filename_input>  (4) 
6YJA_2BA_docked.sdf

>  <pdb_id>  (4) 
6YJA_2BA

>  <pose_rank>  (4) 
3

>  <num_atoms_heavy>  (4) 
44

>  <num_torsions>  (4) 
2

>  <pose>  (4) 
[1.2780236828238938, 2.9729369542790622, 17.33652031522743, -2.3508616211818842, -2.870752914634582, 0.8985731881719006, 0.9561806095106027, 1.250458566878805]

>  <energy>  (4) 
-868.5744831199759

>  <inter_energy>  (4) 
-878.8659541028445

>  <intra_energy>  (4) 
18.908514911079365

>  <rmsd>  (4) 
6.71384

>  <sdf_rank>  (4) 
0

$$$$

     RDKit          3D

 66 72  0  0  0  0  0  0  0  0999 V2000
    0.5253    2.3680   11.5543 P   0  0  2  0  0  0  0  0  0  0  0  0
    0.5400    1.5927   10.2518 O   0  0  0  0  0  0  0  0  0  0  0  0
    0.0206    3.7775   11.6546 O   0  0  0  0  0  0  0  0  0  0  0  0
    1.9501    2.2572   12.3024 O   0  0  0  0  0  0  0  0  0  0  0  0
    2.8031    1.1491   12.0975 C   0  0  0  0  0  0  0  0  0  0  0  0
    3.9717    1.3240   13.0702 C   0  0  1  0  0  0  0  0  0  0  0  0
    4.7309    2.4554   12.6612 O   0  0  0  0  0  0  0  0  0  0  0  0
    3.6043    1.6487   14.5130 C   0  0  1  0  0  0  0  0  0  0  0  0
    3.3438    0.4369   15.1896 O   0  0  0  0  0  0  0  0  0  0  0  0
    4.8706    2.3285   15.0217 C   0  0  1  0  0  0  0  0  0  0  0  0
    5.8578    1.2900   15.2067 O   0  0  0  0  0  0  0  0  0  0  0  0
    5.3155    3.0994   13.7992 C   0  0  2  0  0  0  0  0  0  0  0  0
    4.7668    4.4647   13.7447 N   0  0  0  0  0  0  0  0  0  0  0  0
    3.4877    4.8369   13.5133 C   0  0  0  0  0  0  0  0  0  0  0  0
    3.3715    6.1932   13.5063 N   0  0  0  0  0  0  0  0  0  0  0  0
    4.6146    6.6863   13.7081 C   0  0  0  0  0  0  0  0  0  0  0  0
    5.2143    8.0153   13.8074 C   0  0  0  0  0  0  0  0  0  0  0  0
    4.4383    9.1320   13.6524 N   0  0  0  0  0  0  0  0  0  0  0  0
    6.5548    8.0591   14.0197 N   0  0  0  0  0  0  0  0  0  0  0  0
    7.3245    6.9749   14.1674 C   0  0  0  0  0  0  0  0  0  0  0  0
    6.8397    5.7259   14.0835 N   0  0  0  0  0  0  0  0  0  0  0  0
    5.5239    5.5465   13.8589 C   0  0  0  0  0  0  0  0  0  0  0  0
    2.4364    0.4024   16.5059 P   0  0  2  0  0  0  0  0  0  0  0  0
    2.9787    1.4593   17.4347 O   0  0  0  0  0  0  0  0  0  0  0  0
    2.2883   -1.0395   16.9337 O   0  0  0  0  0  0  0  0  0  0  0  0
    0.9976    0.9086   15.9935 O   0  0  0  0  0  0  0  0  0  0  0  0
    0.2089   -0.0014   15.2302 C   0  0  0  0  0  0  0  0  0  0  0  0
   -1.0431    0.7064   14.7183 C   0  0  1  0  0  0  0  0  0  0  0  0
   -1.8194    1.2321   15.7975 O   0  0  0  0  0  0  0  0  0  0  0  0
   -0.7390    1.9108   13.8424 C   0  0  1  0  0  0  0  0  0  0  0  0
   -0.3943    1.4858   12.5229 O   0  0  0  0  0  0  0  0  0  0  0  0
   -2.0332    2.6978   13.9428 C   0  0  1  0  0  0  0  0  0  0  0  0
   -3.0178    2.1756   13.0348 O   0  0  0  0  0  0  0  0  0  0  0  0
   -2.4901    2.4118   15.3740 C   0  0  2  0  0  0  0  0  0  0  0  0
   -1.9938    3.5193   16.2164 N   0  0  0  0  0  0  0  0  0  0  0  0
   -1.0109    3.4678   17.1370 C   0  0  0  0  0  0  0  0  0  0  0  0
   -0.8110    4.6906   17.7101 N   0  0  0  0  0  0  0  0  0  0  0  0
   -1.6702    5.5429   17.1212 C   0  0  0  0  0  0  0  0  0  0  0  0
   -1.9962    6.9876   17.2272 C   0  0  0  0  0  0  0  0  0  0  0  0
   -1.3430    7.7918   18.1070 N   0  0  0  0  0  0  0  0  0  0  0  0
   -2.9715    7.4679   16.4197 N   0  0  0  0  0  0  0  0  0  0  0  0
   -3.6321    6.6922   15.5400 C   0  0  0  0  0  0  0  0  0  0  0  0
   -3.3803    5.3766   15.3869 N   0  0  0  0  0  0  0  0  0  0  0  0
   -2.4413    4.7649   16.1396 C   0  0  0  0  0  0  0  0  0  0  0  0
    2.2679    0.2116   12.3091 H   0  0  0  0  0  0  0  0  0  0  0  0
    3.1527    1.0997   11.0557 H   0  0  0  0  0  0  0  0  0  0  0  0
    4.4842    0.3510   13.0443 H   0  0  0  0  0  0  0  0  0  0  0  0
    2.7119    2.2776   14.6477 H   0  0  0  0  0  0  0  0  0  0  0  0
    4.7378    2.9210   15.9390 H   0  0  0  0  0  0  0  0  0  0  0  0
    6.0009    1.1394   16.1747 H   0  0  0  0  0  0  0  0  0  0  0  0
    6.4147    3.1322   13.8229 H   0  0  0  0  0  0  0  0  0  0  0  0
    2.6536    4.1381   13.3524 H   0  0  0  0  0  0  0  0  0  0  0  0
    4.8627   10.0679   13.7227 H   0  0  0  0  0  0  0  0  0  0  0  0
    3.4299    9.0365   13.4653 H   0  0  0  0  0  0  0  0  0  0  0  0
    8.3977    7.1124   14.3657 H   0  0  0  0  0  0  0  0  0  0  0  0
    0.7971   -0.3674   14.3758 H   0  0  0  0  0  0  0  0  0  0  0  0
   -0.0864   -0.8492   15.8659 H   0  0  0  0  0  0  0  0  0  0  0  0
   -1.5741   -0.0687   14.1462 H   0  0  0  0  0  0  0  0  0  0  0  0
    0.1262    2.5203   14.1425 H   0  0  0  0  0  0  0  0  0  0  0  0
   -1.9024    3.7639   13.7054 H   0  0  0  0  0  0  0  0  0  0  0  0
   -3.7646    1.7795   13.5499 H   0  0  0  0  0  0  0  0  0  0  0  0
   -3.5830    2.3064   15.4408 H   0  0  0  0  0  0  0  0  0  0  0  0
   -0.4445    2.5603   17.3929 H   0  0  0  0  0  0  0  0  0  0  0  0
   -1.5827    8.7918   18.1665 H   0  0  0  0  0  0  0  0  0  0  0  0
   -0.6083    7.4013   18.7141 H   0  0  0  0  0  0  0  0  0  0  0  0
   -4.4132    7.1529   14.9173 H   0  0  0  0  0  0  0  0  0  0  0  0
  1  2  2  0
  1  3  1  6
  1  4  1  0
  1 31  1  0
  4  5  1  0
  6  5  1  0
  6  7  1  0
  6  8  1  0
  7 12  1  0
  8  9  1  0
  8 10  1  0
  9 23  1  0
 10 11  1  0
 10 12  1  0
 12 13  1  0
 13 14  1  0
 13 22  1  0
 14 15  2  0
 15 16  1  0
 16 17  2  0
 16 22  1  0
 17 18  1  0
 17 19  1  0
 19 20  2  0
 20 21  1  0
 21 22  2  0
 23 24  2  0
 23 25  1  1
 23 26  1  0
 26 27  1  0
 28 27  1  0
 28 29  1  0
 28 30  1  0
 29 34  1  0
 30 31  1  0
 30 32  1  0
 32 33  1  0
 32 34  1  0
 34 35  1  0
 35 36  1  0
 35 44  1  0
 36 37  2  0
 37 38  1  0
 38 39  2  0
 38 44  1  0
 39 40  1  0
 39 41  1  0
 41 42  2  0
 42 43  1  0
 43 44  2  0
  5 45  1  0
  5 46  1  0
  6 47  1  1
  8 48  1  6
 10 49  1  1
 11 50  1  0
 12 51  1  6
 14 52  1  0
 18 53  1  0
 18 54  1  0
 20 55  1  0
 27 56  1  0
 27 57  1  0
 28 58  1  6
 30 59  1  1
 32 60  1  1
 33 61  1  0
 34 62  1  6
 36 63  1  0
 40 64  1  0
 40 65  1  0
 42 66  1  0
M  CHG  2   3  -1  25  -1
M  END
>  <filename_input>  (5) 
6YJA_2BA_docked.sdf

>  <pdb_id>  (5) 
6YJA_2BA

>  <pose_rank>  (5) 
4

>  <num_atoms_heavy>  (5) 
44

>  <num_torsions>  (5) 
2

>  <pose>  (5) 
[0.5253421263996356, 2.367954948511492, 11.554309105460874, -0.027816453508571204, -0.2310272718887092, -0.0325355824791753, 0.2840713147705103, -6.466508779092376]

>  <energy>  (5) 
-897.6060858788207

>  <inter_energy>  (5) 
-917.959842159673

>  <intra_energy>  (5) 
17.69806486625606

>  <rmsd>  (5) 
1.04719

>  <sdf_rank>  (5) 
0

$$$$

     RDKit          3D

 66 72  0  0  0  0  0  0  0  0999 V2000
    3.0952    0.7310   16.9543 P   0  0  2  0  0  0  0  0  0  0  0  0
    2.7281   -0.7031   17.2804 O   0  0  0  0  0  0  0  0  0  0  0  0
    4.2282    1.4515   17.6243 O   0  0  0  0  0  0  0  0  0  0  0  0
    1.7858    1.6729   16.9611 O   0  0  0  0  0  0  0  0  0  0  0  0
    0.5014    1.1470   16.6939 C   0  0  0  0  0  0  0  0  0  0  0  0
   -0.4492    2.3455   16.6456 C   0  0  1  0  0  0  0  0  0  0  0  0
   -0.5411    2.8988   17.9529 O   0  0  0  0  0  0  0  0  0  0  0  0
   -0.0011    3.5267   15.7935 C   0  0  1  0  0  0  0  0  0  0  0  0
   -0.3883    3.2841   14.4573 O   0  0  0  0  0  0  0  0  0  0  0  0
   -0.7770    4.6832   16.4142 C   0  0  1  0  0  0  0  0  0  0  0  0
   -2.1521    4.5367   15.9961 O   0  0  0  0  0  0  0  0  0  0  0  0
   -0.7559    4.3130   17.8801 C   0  0  2  0  0  0  0  0  0  0  0  0
    0.3968    4.8764   18.6027 N   0  0  0  0  0  0  0  0  0  0  0  0
    1.3884    4.2082   19.2337 C   0  0  0  0  0  0  0  0  0  0  0  0
    2.2610    5.0744   19.8178 N   0  0  0  0  0  0  0  0  0  0  0  0
    1.7891    6.3181   19.5736 C   0  0  0  0  0  0  0  0  0  0  0  0
    2.2029    7.6815   19.8990 C   0  0  0  0  0  0  0  0  0  0  0  0
    3.3212    7.8969   20.6581 N   0  0  0  0  0  0  0  0  0  0  0  0
    1.4051    8.6806   19.4414 N   0  0  0  0  0  0  0  0  0  0  0  0
    0.3070    8.4824   18.7034 C   0  0  0  0  0  0  0  0  0  0  0  0
   -0.1315    7.2576   18.3724 N   0  0  0  0  0  0  0  0  0  0  0  0
    0.5644    6.1791   18.7804 C   0  0  0  0  0  0  0  0  0  0  0  0
    0.3545    4.0025   13.2369 P   0  0  2  0  0  0  0  0  0  0  0  0
    0.3849    5.4763   13.5543 O   0  0  0  0  0  0  0  0  0  0  0  0
   -0.2386    3.4727   11.9518 O   0  0  0  0  0  0  0  0  0  0  0  0
    1.8664    3.4608   13.3353 O   0  0  0  0  0  0  0  0  0  0  0  0
    2.1190    2.1228   12.9124 C   0  0  0  0  0  0  0  0  0  0  0  0
    3.5680    1.7514   13.2171 C   0  0  1  0  0  0  0  0  0  0  0  0
    4.4788    2.6435   12.5701 O   0  0  0  0  0  0  0  0  0  0  0  0
    3.9181    1.8500   14.6929 C   0  0  1  0  0  0  0  0  0  0  0  0
    3.4375    0.7000   15.3909 O   0  0  0  0  0  0  0  0  0  0  0  0
    5.4296    1.9812   14.6417 C   0  0  1  0  0  0  0  0  0  0  0  0
    6.0472    0.6918   14.4911 O   0  0  0  0  0  0  0  0  0  0  0  0
    5.6540    2.7817   13.3582 C   0  0  2  0  0  0  0  0  0  0  0  0
    5.7513    4.2039   13.7463 N   0  0  0  0  0  0  0  0  0  0  0  0
    6.4618    4.7253   14.7658 C   0  0  0  0  0  0  0  0  0  0  0  0
    6.3281    6.0831   14.8130 N   0  0  0  0  0  0  0  0  0  0  0  0
    5.5342    6.4331   13.7841 C   0  0  0  0  0  0  0  0  0  0  0  0
    4.9855    7.6962   13.2290 C   0  0  0  0  0  0  0  0  0  0  0  0
    5.2671    8.8958   13.8026 N   0  0  0  0  0  0  0  0  0  0  0  0
    4.1909    7.6041   12.1363 N   0  0  0  0  0  0  0  0  0  0  0  0
    3.8981    6.4285   11.5496 C   0  0  0  0  0  0  0  0  0  0  0  0
    4.3691    5.2470   11.9965 N   0  0  0  0  0  0  0  0  0  0  0  0
    5.1623    5.1922   13.0876 C   0  0  0  0  0  0  0  0  0  0  0  0
    0.4988    0.6191   15.7288 H   0  0  0  0  0  0  0  0  0  0  0  0
    0.1960    0.4240   17.4646 H   0  0  0  0  0  0  0  0  0  0  0  0
   -1.3748    1.9310   16.2197 H   0  0  0  0  0  0  0  0  0  0  0  0
    1.0823    3.7162   15.7733 H   0  0  0  0  0  0  0  0  0  0  0  0
   -0.3889    5.6824   16.1672 H   0  0  0  0  0  0  0  0  0  0  0  0
   -2.7348    4.4747   16.7941 H   0  0  0  0  0  0  0  0  0  0  0  0
   -1.6956    4.6812   18.3176 H   0  0  0  0  0  0  0  0  0  0  0  0
    1.4780    3.1124   19.2702 H   0  0  0  0  0  0  0  0  0  0  0  0
    3.6113    8.8584   20.8864 H   0  0  0  0  0  0  0  0  0  0  0  0
    3.8726    7.0974   21.0011 H   0  0  0  0  0  0  0  0  0  0  0  0
   -0.2592    9.3583   18.3537 H   0  0  0  0  0  0  0  0  0  0  0  0
    1.4456    1.4370   13.4475 H   0  0  0  0  0  0  0  0  0  0  0  0
    1.9428    2.0437   11.8295 H   0  0  0  0  0  0  0  0  0  0  0  0
    3.6592    0.7142   12.8623 H   0  0  0  0  0  0  0  0  0  0  0  0
    3.4606    2.6854   15.2432 H   0  0  0  0  0  0  0  0  0  0  0  0
    5.8478    2.4399   15.5498 H   0  0  0  0  0  0  0  0  0  0  0  0
    6.2312    0.3077   15.3848 H   0  0  0  0  0  0  0  0  0  0  0  0
    6.5503    2.4440   12.8172 H   0  0  0  0  0  0  0  0  0  0  0  0
    7.0693    4.1348   15.4674 H   0  0  0  0  0  0  0  0  0  0  0  0
    4.8775    9.7617   13.4035 H   0  0  0  0  0  0  0  0  0  0  0  0
    5.8702    8.9390   14.6365 H   0  0  0  0  0  0  0  0  0  0  0  0
    3.2444    6.4319   10.6648 H   0  0  0  0  0  0  0  0  0  0  0  0
  1  2  2  0
  1  3  1  1
  1  4  1  0
  1 31  1  0
  4  5  1  0
  6  5  1  0
  6  7  1  0
  6  8  1  0
  7 12  1  0
  8  9  1  0
  8 10  1  0
  9 23  1  0
 10 11  1  0
 10 12  1  0
 12 13  1  0
 13 14  1  0
 13 22  1  0
 14 15  2  0
 15 16  1  0
 16 17  2  0
 16 22  1  0
 17 18  1  0
 17 19  1  0
 19 20  2  0
 20 21  1  0
 21 22  2  0
 23 24  2  0
 23 25  1  6
 23 26  1  0
 26 27  1  0
 28 27  1  0
 28 29  1  0
 28 30  1  0
 29 34  1  0
 30 31  1  0
 30 32  1  0
 32 33  1  0
 32 34  1  0
 34 35  1  0
 35 36  1  0
 35 44  1  0
 36 37  2  0
 37 38  1  0
 38 39  2  0
 38 44  1  0
 39 40  1  0
 39 41  1  0
 41 42  2  0
 42 43  1  0
 43 44  2  0
  5 45  1  0
  5 46  1  0
  6 47  1  6
  8 48  1  6
 10 49  1  1
 11 50  1  0
 12 51  1  1
 14 52  1  0
 18 53  1  0
 18 54  1  0
 20 55  1  0
 27 56  1  0
 27 57  1  0
 28 58  1  6
 30 59  1  1
 32 60  1  1
 33 61  1  0
 34 62  1  6
 36 63  1  0
 40 64  1  0
 40 65  1  0
 42 66  1  0
M  CHG  2   3  -1  25  -1
M  END
>  <filename_input>  (6) 
6YJA_2BA_docked.sdf

>  <pdb_id>  (6) 
6YJA_2BA

>  <pose_rank>  (6) 
5

>  <num_atoms_heavy>  (6) 
44

>  <num_torsions>  (6) 
2

>  <pose>  (6) 
[3.0952449100817163, 0.7309518992957887, 16.954271947253552, 0.8194185076523607, 2.782735525485486, 1.239405847556669, -0.5455423065006719, 2.5187507428292593]

>  <energy>  (6) 
-606.2262895780199

>  <inter_energy>  (6) 
-628.7909636232545

>  <intra_energy>  (6) 
27.579837484468698

>  <rmsd>  (6) 
2.44426

>  <sdf_rank>  (6) 
0

$$$$

     RDKit          3D

 66 72  0  0  0  0  0  0  0  0999 V2000
    2.8785    0.9546   16.6142 P   0  0  2  0  0  0  0  0  0  0  0  0
    3.1687   -0.4997   16.9278 O   0  0  0  0  0  0  0  0  0  0  0  0
    3.6122    2.0884   17.2684 O   0  0  0  0  0  0  0  0  0  0  0  0
    1.2927    1.2458   16.6647 O   0  0  0  0  0  0  0  0  0  0  0  0
    0.3499    0.2219   16.4194 C   0  0  0  0  0  0  0  0  0  0  0  0
   -1.0229    0.8987   16.4104 C   0  0  1  0  0  0  0  0  0  0  0  0
   -1.3072    1.3551   17.7274 O   0  0  0  0  0  0  0  0  0  0  0  0
   -1.1459    2.1608   15.5654 C   0  0  1  0  0  0  0  0  0  0  0  0
   -1.4281    1.7803   14.2351 O   0  0  0  0  0  0  0  0  0  0  0  0
   -2.3248    2.8721   16.2205 C   0  0  1  0  0  0  0  0  0  0  0  0
   -3.5160    2.1529   15.8320 O   0  0  0  0  0  0  0  0  0  0  0  0
   -2.1080    2.5418   17.6800 C   0  0  2  0  0  0  0  0  0  0  0  0
   -1.2878    3.5417   18.3841 N   0  0  0  0  0  0  0  0  0  0  0  0
   -0.6807    4.6324   17.8645 C   0  0  0  0  0  0  0  0  0  0  0  0
    0.0181    5.3005   18.8227 N   0  0  0  0  0  0  0  0  0  0  0  0
   -0.1285    4.5950   19.9672 C   0  0  0  0  0  0  0  0  0  0  0  0
    0.3400    4.7202   21.3459 C   0  0  0  0  0  0  0  0  0  0  0  0
    1.1625    5.7552   21.7001 N   0  0  0  0  0  0  0  0  0  0  0  0
   -0.0554    3.7494   22.2090 N   0  0  0  0  0  0  0  0  0  0  0  0
   -0.8544    2.7302   21.8734 C   0  0  0  0  0  0  0  0  0  0  0  0
   -1.3166    2.5532   20.6256 N   0  0  0  0  0  0  0  0  0  0  0  0
   -0.9823    3.4412   19.6698 C   0  0  0  0  0  0  0  0  0  0  0  0
   -1.0970    2.7514   13.0085 P   0  0  2  0  0  0  0  0  0  0  0  0
   -1.6911    4.0956   13.3465 O   0  0  0  0  0  0  0  0  0  0  0  0
   -1.4411    2.0231   11.7298 O   0  0  0  0  0  0  0  0  0  0  0  0
    0.5034    2.9082   13.0643 O   0  0  0  0  0  0  0  0  0  0  0  0
    1.2923    1.8083   12.6164 C   0  0  0  0  0  0  0  0  0  0  0  0
    2.7687    2.0916   12.8823 C   0  0  1  0  0  0  0  0  0  0  0  0
    3.1928    3.2897   12.2276 O   0  0  0  0  0  0  0  0  0  0  0  0
    3.0826    2.3256   14.3510 C   0  0  1  0  0  0  0  0  0  0  0  0
    3.1588    1.0783   15.0431 O   0  0  0  0  0  0  0  0  0  0  0  0
    4.3909    3.0909   14.2670 C   0  0  1  0  0  0  0  0  0  0  0  0
    5.4962    2.1902   14.0836 O   0  0  0  0  0  0  0  0  0  0  0  0
    4.2168    3.9147   12.9904 C   0  0  2  0  0  0  0  0  0  0  0  0
    3.7071    5.2405   13.3968 N   0  0  0  0  0  0  0  0  0  0  0  0
    4.3929    6.2271   14.0071 C   0  0  0  0  0  0  0  0  0  0  0  0
    3.6008    7.3194   14.2147 N   0  0  0  0  0  0  0  0  0  0  0  0
    2.3913    7.0277   13.7016 C   0  0  0  0  0  0  0  0  0  0  0  0
    1.0852    7.7203   13.5628 C   0  0  0  0  0  0  0  0  0  0  0  0
    0.9077    8.9841   14.0305 N   0  0  0  0  0  0  0  0  0  0  0  0
    0.0803    7.0417   12.9598 N   0  0  0  0  0  0  0  0  0  0  0  0
    0.2314    5.7901   12.4877 C   0  0  0  0  0  0  0  0  0  0  0  0
    1.3910    5.1078   12.5733 N   0  0  0  0  0  0  0  0  0  0  0  0
    2.4714    5.6609   13.1643 C   0  0  0  0  0  0  0  0  0  0  0  0
    0.5472   -0.2532   15.4471 H   0  0  0  0  0  0  0  0  0  0  0  0
    0.4038   -0.5648   17.1863 H   0  0  0  0  0  0  0  0  0  0  0  0
   -1.6935    0.1294   15.9999 H   0  0  0  0  0  0  0  0  0  0  0  0
   -0.2486    2.7956   15.5232 H   0  0  0  0  0  0  0  0  0  0  0  0
   -2.4080    3.9421   15.9792 H   0  0  0  0  0  0  0  0  0  0  0  0
   -4.0029    1.8589   16.6423 H   0  0  0  0  0  0  0  0  0  0  0  0
   -3.1027    2.4711   18.1443 H   0  0  0  0  0  0  0  0  0  0  0  0
   -0.7431    4.9384   16.8097 H   0  0  0  0  0  0  0  0  0  0  0  0
    1.4917    5.8419   22.6723 H   0  0  0  0  0  0  0  0  0  0  0  0
    1.4522    6.4475   20.9947 H   0  0  0  0  0  0  0  0  0  0  0  0
   -1.1443    2.0083   22.6511 H   0  0  0  0  0  0  0  0  0  0  0  0
    0.9915    0.8986   13.1568 H   0  0  0  0  0  0  0  0  0  0  0  0
    1.1377    1.6650   11.5368 H   0  0  0  0  0  0  0  0  0  0  0  0
    3.2849    1.1943   12.5105 H   0  0  0  0  0  0  0  0  0  0  0  0
    2.3269    2.8832   14.9237 H   0  0  0  0  0  0  0  0  0  0  0  0
    4.5971    3.6815   15.1718 H   0  0  0  0  0  0  0  0  0  0  0  0
    5.8422    1.9082   14.9673 H   0  0  0  0  0  0  0  0  0  0  0  0
    5.1565    3.9947   12.4242 H   0  0  0  0  0  0  0  0  0  0  0  0
    5.4513    6.1610   14.2994 H   0  0  0  0  0  0  0  0  0  0  0  0
   -0.0055    9.4486   13.9252 H   0  0  0  0  0  0  0  0  0  0  0  0
    1.6864    9.4772   14.4901 H   0  0  0  0  0  0  0  0  0  0  0  0
   -0.6309    5.3017   12.0102 H   0  0  0  0  0  0  0  0  0  0  0  0
  1  2  2  0
  1  3  1  1
  1  4  1  0
  1 31  1  0
  4  5  1  0
  6  5  1  0
  6  7  1  0
  6  8  1  0
  7 12  1  0
  8  9  1  0
  8 10  1  0
  9 23  1  0
 10 11  1  0
 10 12  1  0
 12 13  1  0
 13 14  1  0
 13 22  1  0
 14 15  2  0
 15 16  1  0
 16 17  2  0
 16 22  1  0
 17 18  1  0
 17 19  1  0
 19 20  2  0
 20 21  1  0
 21 22  2  0
 23 24  2  0
 23 25  1  6
 23 26  1  0
 26 27  1  0
 28 27  1  0
 28 29  1  0
 28 30  1  0
 29 34  1  0
 30 31  1  0
 30 32  1  0
 32 33  1  0
 32 34  1  0
 34 35  1  0
 35 36  1  0
 35 44  1  0
 36 37  2  0
 37 38  1  0
 38 39  2  0
 38 44  1  0
 39 40  1  0
 39 41  1  0
 41 42  2  0
 42 43  1  0
 43 44  2  0
  5 45  1  0
  5 46  1  0
  6 47  1  6
  8 48  1  6
 10 49  1  1
 11 50  1  0
 12 51  1  1
 14 52  1  0
 18 53  1  0
 18 54  1  0
 20 55  1  0
 27 56  1  0
 27 57  1  0
 28 58  1  6
 30 59  1  1
 32 60  1  1
 33 61  1  0
 34 62  1  6
 36 63  1  0
 40 64  1  0
 40 65  1  0
 42 66  1  0
M  CHG  2   3  -1  25  -1
M  END
>  <filename_input>  (7) 
6YJA_2BA_docked.sdf

>  <pdb_id>  (7) 
6YJA_2BA

>  <pose_rank>  (7) 
6

>  <num_atoms_heavy>  (7) 
44

>  <num_torsions>  (7) 
2

>  <pose>  (7) 
[2.878490288127261, 0.9546282571820701, 16.614162940975696, -0.1917466830701434, -2.69899614990356, -1.1277171987545809, 1.451562820674351, 3.00220097117126]

>  <energy>  (7) 
-537.9094093518577

>  <inter_energy>  (7) 
-679.5422900119105

>  <intra_energy>  (7) 
137.50790307448625

>  <rmsd>  (7) 
2.77228

>  <sdf_rank>  (7) 
0

$$$$

     RDKit          3D

 66 72  0  0  0  0  0  0  0  0999 V2000
    0.0646    2.4283   12.4879 P   0  0  2  0  0  0  0  0  0  0  0  0
   -0.2973    1.6654   11.2290 O   0  0  0  0  0  0  0  0  0  0  0  0
   -0.2276    3.8895   12.6641 O   0  0  0  0  0  0  0  0  0  0  0  0
    1.5917    2.1343   12.9163 O   0  0  0  0  0  0  0  0  0  0  0  0
    2.2363    0.9289   12.5570 C   0  0  0  0  0  0  0  0  0  0  0  0
    3.5990    0.9492   13.2535 C   0  0  1  0  0  0  0  0  0  0  0  0
    4.3873    1.9785   12.6679 O   0  0  0  0  0  0  0  0  0  0  0  0
    3.5932    1.3086   14.7343 C   0  0  1  0  0  0  0  0  0  0  0  0
    3.3356    0.1351   15.4763 O   0  0  0  0  0  0  0  0  0  0  0  0
    5.0137    1.8205   14.9461 C   0  0  1  0  0  0  0  0  0  0  0  0
    5.8806    0.6648   14.9376 O   0  0  0  0  0  0  0  0  0  0  0  0
    5.2779    2.5367   13.6409 C   0  0  2  0  0  0  0  0  0  0  0  0
    4.9044    3.9606   13.6762 N   0  0  0  0  0  0  0  0  0  0  0  0
    3.6628    4.4945   13.6373 C   0  0  0  0  0  0  0  0  0  0  0  0
    3.7194    5.8545   13.6562 N   0  0  0  0  0  0  0  0  0  0  0  0
    5.0310    6.1841   13.6767 C   0  0  0  0  0  0  0  0  0  0  0  0
    5.8021    7.4254   13.6956 C   0  0  0  0  0  0  0  0  0  0  0  0
    5.1595    8.6334   13.6632 N   0  0  0  0  0  0  0  0  0  0  0  0
    7.1539    7.2970   13.7092 N   0  0  0  0  0  0  0  0  0  0  0  0
    7.7933    6.1222   13.7354 C   0  0  0  0  0  0  0  0  0  0  0  0
    7.1473    4.9456   13.7155 N   0  0  0  0  0  0  0  0  0  0  0  0
    5.8009    4.9368   13.6851 C   0  0  0  0  0  0  0  0  0  0  0  0
    2.7348    0.2070   16.9566 P   0  0  2  0  0  0  0  0  0  0  0  0
    3.5911    1.1814   17.7256 O   0  0  0  0  0  0  0  0  0  0  0  0
    2.5041   -1.2074   17.4364 O   0  0  0  0  0  0  0  0  0  0  0  0
    1.2940    0.8935   16.7532 O   0  0  0  0  0  0  0  0  0  0  0  0
    0.2529    0.0948   16.1955 C   0  0  0  0  0  0  0  0  0  0  0  0
   -0.9819    0.9578   15.9482 C   0  0  1  0  0  0  0  0  0  0  0  0
   -1.4368    1.5703   17.1572 O   0  0  0  0  0  0  0  0  0  0  0  0
   -0.7256    2.1198   15.0025 C   0  0  1  0  0  0  0  0  0  0  0  0
   -0.7280    1.6629   13.6491 O   0  0  0  0  0  0  0  0  0  0  0  0
   -1.8600    3.0628   15.3607 C   0  0  1  0  0  0  0  0  0  0  0  0
   -3.0737    2.6744   14.6953 O   0  0  0  0  0  0  0  0  0  0  0  0
   -2.0309    2.8278   16.8621 C   0  0  2  0  0  0  0  0  0  0  0  0
   -1.2314    3.8587   17.5555 N   0  0  0  0  0  0  0  0  0  0  0  0
   -0.1153    3.6713   18.2871 C   0  0  0  0  0  0  0  0  0  0  0  0
    0.3637    4.8575   18.7638 N   0  0  0  0  0  0  0  0  0  0  0  0
   -0.4539    5.8221   18.3029 C   0  0  0  0  0  0  0  0  0  0  0  0
   -0.5390    7.3010   18.4052 C   0  0  0  0  0  0  0  0  0  0  0  0
    0.3751    8.0088   19.1198 N   0  0  0  0  0  0  0  0  0  0  0  0
   -1.5640    7.9126   17.7656 N   0  0  0  0  0  0  0  0  0  0  0  0
   -2.4811    7.2340   17.0510 C   0  0  0  0  0  0  0  0  0  0  0  0
   -2.4578    5.8934   16.9104 N   0  0  0  0  0  0  0  0  0  0  0  0
   -1.4973    5.1566   17.5081 C   0  0  0  0  0  0  0  0  0  0  0  0
    1.6467    0.0650   12.8978 H   0  0  0  0  0  0  0  0  0  0  0  0
    2.3451    0.8424   11.4658 H   0  0  0  0  0  0  0  0  0  0  0  0
    3.9690   -0.0803   13.1391 H   0  0  0  0  0  0  0  0  0  0  0  0
    2.8358    2.0440   15.0435 H   0  0  0  0  0  0  0  0  0  0  0  0
    5.1556    2.4192   15.8579 H   0  0  0  0  0  0  0  0  0  0  0  0
    6.0820    0.3964   15.8690 H   0  0  0  0  0  0  0  0  0  0  0  0
    6.3520    2.4308   13.4283 H   0  0  0  0  0  0  0  0  0  0  0  0
    2.7325    3.9090   13.5960 H   0  0  0  0  0  0  0  0  0  0  0  0
    5.7046    9.5072   13.6766 H   0  0  0  0  0  0  0  0  0  0  0  0
    4.1308    8.6686   13.6254 H   0  0  0  0  0  0  0  0  0  0  0  0
    8.8926    6.1202   13.7750 H   0  0  0  0  0  0  0  0  0  0  0  0
    0.5938   -0.3371   15.2429 H   0  0  0  0  0  0  0  0  0  0  0  0
   -0.0020   -0.7130   16.8973 H   0  0  0  0  0  0  0  0  0  0  0  0
   -1.7154    0.2593   15.5193 H   0  0  0  0  0  0  0  0  0  0  0  0
    0.2527    2.6136   15.0977 H   0  0  0  0  0  0  0  0  0  0  0  0
   -1.6518    4.1054   15.0784 H   0  0  0  0  0  0  0  0  0  0  0  0
   -3.7638    2.4535   15.3700 H   0  0  0  0  0  0  0  0  0  0  0  0
   -3.0884    2.8603   17.1633 H   0  0  0  0  0  0  0  0  0  0  0  0
    0.3487    2.6919   18.4753 H   0  0  0  0  0  0  0  0  0  0  0  0
    0.3000    9.0344   19.1796 H   0  0  0  0  0  0  0  0  0  0  0  0
    1.1429    7.5198   19.6017 H   0  0  0  0  0  0  0  0  0  0  0  0
   -3.2865    7.7992   16.5593 H   0  0  0  0  0  0  0  0  0  0  0  0
  1  2  2  0
  1  3  1  6
  1  4  1  0
  1 31  1  0
  4  5  1  0
  6  5  1  0
  6  7  1  0
  6  8  1  0
  7 12  1  0
  8  9  1  0
  8 10  1  0
  9 23  1  0
 10 11  1  0
 10 12  1  0
 12 13  1  0
 13 14  1  0
 13 22  1  0
 14 15  2  0
 15 16  1  0
 16 17  2  0
 16 22  1  0
 17 18  1  0
 17 19  1  0
 19 20  2  0
 20 21  1  0
 21 22  2  0
 23 24  2  0
 23 25  1  1
 23 26  1  0
 26 27  1  0
 28 27  1  0
 28 29  1  0
 28 30  1  0
 29 34  1  0
 30 31  1  0
 30 32  1  0
 32 33  1  0
 32 34  1  0
 34 35  1  0
 35 36  1  0
 35 44  1  0
 36 37  2  0
 37 38  1  0
 38 39  2  0
 38 44  1  0
 39 40  1  0
 39 41  1  0
 41 42  2  0
 42 43  1  0
 43 44  2  0
  5 45  1  0
  5 46  1  0
  6 47  1  1
  8 48  1  6
 10 49  1  1
 11 50  1  0
 12 51  1  6
 14 52  1  0
 18 53  1  0
 18 54  1  0
 20 55  1  0
 27 56  1  0
 27 57  1  0
 28 58  1  6
 30 59  1  1
 32 60  1  1
 33 61  1  0
 34 62  1  1
 36 63  1  0
 40 64  1  0
 40 65  1  0
 42 66  1  0
M  CHG  2   3  -1  25  -1
M  END
>  <filename_input>  (8) 
6YJA_2BA_docked.sdf

>  <pdb_id>  (8) 
6YJA_2BA

>  <pose_rank>  (8) 
7

>  <num_atoms_heavy>  (8) 
44

>  <num_torsions>  (8) 
2

>  <pose>  (8) 
[0.0646252255554258, 2.428250218734713, 12.487889467328367, -0.053046375041937086, -0.012593704144051211, -0.15375131091844788, 0.21043853074976354, -6.513251339589025]

>  <energy>  (8) 
-863.605668726815

>  <inter_energy>  (8) 
-886.7050158347183

>  <intra_energy>  (8) 
18.001763515013174

>  <rmsd>  (8) 
0.798888

>  <sdf_rank>  (8) 
0

$$$$

     RDKit          3D

 66 72  0  0  0  0  0  0  0  0999 V2000
   -0.2168    2.5460   12.7332 P   0  0  2  0  0  0  0  0  0  0  0  0
   -0.8192    1.9342   11.4840 O   0  0  0  0  0  0  0  0  0  0  0  0
   -0.7128    3.8311   13.3282 O   0  0  0  0  0  0  0  0  0  0  0  0
    1.3923    2.5925   12.6291 O   0  0  0  0  0  0  0  0  0  0  0  0
    2.1031    1.6725   11.8255 C   0  0  0  0  0  0  0  0  0  0  0  0
    3.5880    1.9310   12.0919 C   0  0  1  0  0  0  0  0  0  0  0  0
    3.9215    3.2119   11.5706 O   0  0  0  0  0  0  0  0  0  0  0  0
    4.0029    2.0268   13.5550 C   0  0  1  0  0  0  0  0  0  0  0  0
    4.2393    0.7208   14.0373 O   0  0  0  0  0  0  0  0  0  0  0  0
    5.2849    2.8479   13.4722 C   0  0  1  0  0  0  0  0  0  0  0  0
    6.3076    1.9752   12.9434 O   0  0  0  0  0  0  0  0  0  0  0  0
    4.9573    3.8137   12.3558 C   0  0  2  0  0  0  0  0  0  0  0  0
    4.3468    5.0655   12.8340 N   0  0  0  0  0  0  0  0  0  0  0  0
    4.7649    5.8599   13.8450 C   0  0  0  0  0  0  0  0  0  0  0  0
    3.9214    6.9150   14.0127 N   0  0  0  0  0  0  0  0  0  0  0  0
    2.9312    6.7635   13.1040 C   0  0  0  0  0  0  0  0  0  0  0  0
    1.7221    7.4970   12.7356 C   0  0  0  0  0  0  0  0  0  0  0  0
    1.3714    8.6299   13.4187 N   0  0  0  0  0  0  0  0  0  0  0  0
    0.9795    6.9707   11.7278 N   0  0  0  0  0  0  0  0  0  0  0  0
    1.3090    5.8614   11.0564 C   0  0  0  0  0  0  0  0  0  0  0  0
    2.4021    5.1379   11.3456 N   0  0  0  0  0  0  0  0  0  0  0  0
    3.2154    5.5462   12.3385 C   0  0  0  0  0  0  0  0  0  0  0  0
    4.1607    0.3884   15.5995 P   0  0  2  0  0  0  0  0  0  0  0  0
    5.0161    1.4109   16.3042 O   0  0  0  0  0  0  0  0  0  0  0  0
    4.3820   -1.0965   15.7730 O   0  0  0  0  0  0  0  0  0  0  0  0
    2.6293    0.7007   15.9818 O   0  0  0  0  0  0  0  0  0  0  0  0
    1.6390   -0.2377   15.5676 C   0  0  0  0  0  0  0  0  0  0  0  0
    0.2491    0.3033   15.8930 C   0  0  1  0  0  0  0  0  0  0  0  0
    0.1101    0.5680   17.2910 O   0  0  0  0  0  0  0  0  0  0  0  0
   -0.0537    1.6316   15.2192 C   0  0  1  0  0  0  0  0  0  0  0  0
   -0.4150    1.4200   13.8535 O   0  0  0  0  0  0  0  0  0  0  0  0
   -1.1662    2.1748   16.0978 C   0  0  1  0  0  0  0  0  0  0  0  0
   -2.4314    1.5997   15.7302 O   0  0  0  0  0  0  0  0  0  0  0  0
   -0.7810    1.6587   17.4849 C   0  0  2  0  0  0  0  0  0  0  0  0
   -0.0141    2.7327   18.1489 N   0  0  0  0  0  0  0  0  0  0  0  0
    1.3105    2.7576   18.3956 C   0  0  0  0  0  0  0  0  0  0  0  0
    1.6730    3.9205   19.0120 N   0  0  0  0  0  0  0  0  0  0  0  0
    0.5560    4.6609   19.1366 C   0  0  0  0  0  0  0  0  0  0  0  0
    0.2052    5.9971   19.6809 C   0  0  0  0  0  0  0  0  0  0  0  0
    1.1518    6.8001   20.2345 N   0  0  0  0  0  0  0  0  0  0  0  0
   -1.0922    6.3786   19.6097 N   0  0  0  0  0  0  0  0  0  0  0  0
   -2.0478    5.6020   19.0656 C   0  0  0  0  0  0  0  0  0  0  0  0
   -1.7965    4.3835   18.5463 N   0  0  0  0  0  0  0  0  0  0  0  0
   -0.5467    3.8734   18.5645 C   0  0  0  0  0  0  0  0  0  0  0  0
    1.8399    0.6411   12.1027 H   0  0  0  0  0  0  0  0  0  0  0  0
    1.8592    1.7988   10.7603 H   0  0  0  0  0  0  0  0  0  0  0  0
    4.0922    1.0666   11.6354 H   0  0  0  0  0  0  0  0  0  0  0  0
    3.2628    2.4785   14.2319 H   0  0  0  0  0  0  0  0  0  0  0  0
    5.6012    3.3038   14.4220 H   0  0  0  0  0  0  0  0  0  0  0  0
    6.8011    1.5540   13.6912 H   0  0  0  0  0  0  0  0  0  0  0  0
    5.8992    4.0272   11.8293 H   0  0  0  0  0  0  0  0  0  0  0  0
    5.6652    5.6781   14.4504 H   0  0  0  0  0  0  0  0  0  0  0  0
    0.5189    9.1456   13.1576 H   0  0  0  0  0  0  0  0  0  0  0  0
    1.9601    8.9669   14.1938 H   0  0  0  0  0  0  0  0  0  0  0  0
    0.6580    5.5289   10.2344 H   0  0  0  0  0  0  0  0  0  0  0  0
    1.7225   -0.4026   14.4832 H   0  0  0  0  0  0  0  0  0  0  0  0
    1.7934   -1.1884   16.0989 H   0  0  0  0  0  0  0  0  0  0  0  0
   -0.4342   -0.4811   15.5353 H   0  0  0  0  0  0  0  0  0  0  0  0
    0.7849    2.3400   15.1488 H   0  0  0  0  0  0  0  0  0  0  0  0
   -1.2704    3.2674   16.0255 H   0  0  0  0  0  0  0  0  0  0  0  0
   -2.9391    1.3689   16.5482 H   0  0  0  0  0  0  0  0  0  0  0  0
   -1.6640    1.3651   18.0715 H   0  0  0  0  0  0  0  0  0  0  0  0
    2.0077    1.9478   18.1347 H   0  0  0  0  0  0  0  0  0  0  0  0
    0.8897    7.7239   20.6070 H   0  0  0  0  0  0  0  0  0  0  0  0
    2.1312    6.4848   20.2814 H   0  0  0  0  0  0  0  0  0  0  0  0
   -3.0809    5.9789   19.0438 H   0  0  0  0  0  0  0  0  0  0  0  0
  1  2  2  0
  1  3  1  1
  1  4  1  0
  1 31  1  0
  4  5  1  0
  6  5  1  0
  6  7  1  0
  6  8  1  0
  7 12  1  0
  8  9  1  0
  8 10  1  0
  9 23  1  0
 10 11  1  0
 10 12  1  0
 12 13  1  0
 13 14  1  0
 13 22  1  0
 14 15  2  0
 15 16  1  0
 16 17  2  0
 16 22  1  0
 17 18  1  0
 17 19  1  0
 19 20  2  0
 20 21  1  0
 21 22  2  0
 23 24  2  0
 23 25  1  6
 23 26  1  0
 26 27  1  0
 28 27  1  0
 28 29  1  0
 28 30  1  0
 29 34  1  0
 30 31  1  0
 30 32  1  0
 32 33  1  0
 32 34  1  0
 34 35  1  0
 35 36  1  0
 35 44  1  0
 36 37  2  0
 37 38  1  0
 38 39  2  0
 38 44  1  0
 39 40  1  0
 39 41  1  0
 41 42  2  0
 42 43  1  0
 43 44  2  0
  5 45  1  0
  5 46  1  0
  6 47  1  6
  8 48  1  1
 10 49  1  1
 11 50  1  0
 12 51  1  6
 14 52  1  0
 18 53  1  0
 18 54  1  0
 20 55  1  0
 27 56  1  0
 27 57  1  0
 28 58  1  6
 30 59  1  6
 32 60  1  1
 33 61  1  0
 34 62  1  1
 36 63  1  0
 40 64  1  0
 40 65  1  0
 42 66  1  0
M  CHG  2   3  -1  25  -1
M  END
>  <filename_input>  (9) 
6YJA_2BA_docked.sdf

>  <pdb_id>  (9) 
6YJA_2BA

>  <pose_rank>  (9) 
8

>  <num_atoms_heavy>  (9) 
44

>  <num_torsions>  (9) 
2

>  <pose>  (9) 
[-0.21675446464388362, 2.5459785110862043, 12.733164008506654, 0.13267537180033045, 0.3127940226418139, 0.09008196074439193, 8.638113821803296, 6.12925974486707]

>  <energy>  (9) 
-701.3324116277422

>  <inter_energy>  (9) 
-755.1426218693827

>  <intra_energy>  (9) 
48.16944569210047

>  <rmsd>  (9) 
2.18363

>  <sdf_rank>  (9) 
0

$$$$

     RDKit          3D

 66 72  0  0  0  0  0  0  0  0999 V2000
   -0.8093    2.9353   13.7206 P   0  0  2  0  0  0  0  0  0  0  0  0
   -1.6414    2.1985   12.6899 O   0  0  0  0  0  0  0  0  0  0  0  0
   -1.0078    4.3889   14.0359 O   0  0  0  0  0  0  0  0  0  0  0  0
    0.7624    2.6475   13.4993 O   0  0  0  0  0  0  0  0  0  0  0  0
    1.2115    1.4577   12.8827 C   0  0  0  0  0  0  0  0  0  0  0  0
    2.7387    1.4760   12.9807 C   0  0  1  0  0  0  0  0  0  0  0  0
    3.2291    2.5270   12.1569 O   0  0  0  0  0  0  0  0  0  0  0  0
    3.3218    1.8004   14.3507 C   0  0  1  0  0  0  0  0  0  0  0  0
    3.3807    0.6072   15.1035 O   0  0  0  0  0  0  0  0  0  0  0  0
    4.7094    2.3221   13.9938 C   0  0  1  0  0  0  0  0  0  0  0  0
    5.5019    1.1761   13.6118 O   0  0  0  0  0  0  0  0  0  0  0  0
    4.4329    3.0715   12.7099 C   0  0  2  0  0  0  0  0  0  0  0  0
    4.1037    4.4902   12.9274 N   0  0  0  0  0  0  0  0  0  0  0  0
    2.8857    5.0757   12.8859 C   0  0  0  0  0  0  0  0  0  0  0  0
    2.9845    6.4154   13.1058 N   0  0  0  0  0  0  0  0  0  0  0  0
    4.3012    6.6836   13.2589 C   0  0  0  0  0  0  0  0  0  0  0  0
    5.1085    7.8761   13.5079 C   0  0  0  0  0  0  0  0  0  0  0  0
    4.5089    9.1021   13.6097 N   0  0  0  0  0  0  0  0  0  0  0  0
    6.4512    7.6905   13.5904 N   0  0  0  0  0  0  0  0  0  0  0  0
    7.0492    6.4982   13.4872 C   0  0  0  0  0  0  0  0  0  0  0  0
    6.3688    5.3647   13.2547 N   0  0  0  0  0  0  0  0  0  0  0  0
    5.0282    5.4166   13.1361 C   0  0  0  0  0  0  0  0  0  0  0  0
    3.4177    0.6379   16.7019 P   0  0  2  0  0  0  0  0  0  0  0  0
    4.5087    1.6030   17.0922 O   0  0  0  0  0  0  0  0  0  0  0  0
    3.3971   -0.7897   17.1973 O   0  0  0  0  0  0  0  0  0  0  0  0
    2.0144    1.3139   17.1054 O   0  0  0  0  0  0  0  0  0  0  0  0
    0.8377    0.5176   16.9869 C   0  0  0  0  0  0  0  0  0  0  0  0
   -0.3939    1.3731   17.2728 C   0  0  1  0  0  0  0  0  0  0  0  0
   -0.3310    1.9523   18.5783 O   0  0  0  0  0  0  0  0  0  0  0  0
   -0.5350    2.5596   16.3334 C   0  0  1  0  0  0  0  0  0  0  0  0
   -1.0748    2.1347   15.0809 O   0  0  0  0  0  0  0  0  0  0  0  0
   -1.4339    3.4820   17.1369 C   0  0  1  0  0  0  0  0  0  0  0  0
   -2.8119    3.0965   16.9987 O   0  0  0  0  0  0  0  0  0  0  0  0
   -0.9939    3.2100   18.5760 C   0  0  2  0  0  0  0  0  0  0  0  0
    0.0149    4.2327   18.9210 N   0  0  0  0  0  0  0  0  0  0  0  0
    1.3555    4.0952   18.9054 C   0  0  0  0  0  0  0  0  0  0  0  0
    1.9721    5.2579   19.2681 N   0  0  0  0  0  0  0  0  0  0  0  0
    1.0002    6.1609   19.4949 C   0  0  0  0  0  0  0  0  0  0  0  0
    0.9295    7.5881   19.8982 C   0  0  0  0  0  0  0  0  0  0  0  0
    2.0581    8.3057   20.1407 N   0  0  0  0  0  0  0  0  0  0  0  0
   -0.3003    8.1416   20.0207 N   0  0  0  0  0  0  0  0  0  0  0  0
   -1.4325    7.4524   19.7853 C   0  0  0  0  0  0  0  0  0  0  0  0
   -1.4395    6.1581   19.4083 N   0  0  0  0  0  0  0  0  0  0  0  0
   -0.2820    5.4789   19.2619 C   0  0  0  0  0  0  0  0  0  0  0  0
    0.8062    0.5799   13.4073 H   0  0  0  0  0  0  0  0  0  0  0  0
    0.8777    1.3979   11.8362 H   0  0  0  0  0  0  0  0  0  0  0  0
    3.0331    0.4533   12.7023 H   0  0  0  0  0  0  0  0  0  0  0  0
    2.7495    2.5204   14.9541 H   0  0  0  0  0  0  0  0  0  0  0  0
    5.2018    2.9007   14.7892 H   0  0  0  0  0  0  0  0  0  0  0  0
    5.8232    0.7113   14.4248 H   0  0  0  0  0  0  0  0  0  0  0  0
    5.3340    2.9819   12.0855 H   0  0  0  0  0  0  0  0  0  0  0  0
    1.9423    4.5416   12.6997 H   0  0  0  0  0  0  0  0  0  0  0  0
    5.0795    9.9415   13.7852 H   0  0  0  0  0  0  0  0  0  0  0  0
    3.4871    9.1855   13.5108 H   0  0  0  0  0  0  0  0  0  0  0  0
    8.1424    6.4446   13.5973 H   0  0  0  0  0  0  0  0  0  0  0  0
    0.7721    0.1118   15.9665 H   0  0  0  0  0  0  0  0  0  0  0  0
    0.8830   -0.3091   17.7111 H   0  0  0  0  0  0  0  0  0  0  0  0
   -1.2373    0.6772   17.1528 H   0  0  0  0  0  0  0  0  0  0  0  0
    0.4005    3.0613   16.0448 H   0  0  0  0  0  0  0  0  0  0  0  0
   -1.3553    4.5330   16.8220 H   0  0  0  0  0  0  0  0  0  0  0  0
   -3.2146    2.9839   17.8960 H   0  0  0  0  0  0  0  0  0  0  0  0
   -1.8446    3.2243   19.2732 H   0  0  0  0  0  0  0  0  0  0  0  0
    1.8832    3.1685   18.6359 H   0  0  0  0  0  0  0  0  0  0  0  0
    1.9895    9.2949   20.4196 H   0  0  0  0  0  0  0  0  0  0  0  0
    2.9819    7.8603   20.0456 H   0  0  0  0  0  0  0  0  0  0  0  0
   -2.3961    7.9690   19.9062 H   0  0  0  0  0  0  0  0  0  0  0  0
  1  2  2  0
  1  3  1  1
  1  4  1  0
  1 31  1  0
  4  5  1  0
  6  5  1  0
  6  7  1  0
  6  8  1  0
  7 12  1  0
  8  9  1  0
  8 10  1  0
  9 23  1  0
 10 11  1  0
 10 12  1  0
 12 13  1  0
 13 14  1  0
 13 22  1  0
 14 15  2  0
 15 16  1  0
 16 17  2  0
 16 22  1  0
 17 18  1  0
 17 19  1  0
 19 20  2  0
 20 21  1  0
 21 22  2  0
 23 24  2  0
 23 25  1  1
 23 26  1  0
 26 27  1  0
 28 27  1  0
 28 29  1  0
 28 30  1  0
 29 34  1  0
 30 31  1  0
 30 32  1  0
 32 33  1  0
 32 34  1  0
 34 35  1  0
 35 36  1  0
 35 44  1  0
 36 37  2  0
 37 38  1  0
 38 39  2  0
 38 44  1  0
 39 40  1  0
 39 41  1  0
 41 42  2  0
 42 43  1  0
 43 44  2  0
  5 45  1  0
  5 46  1  0
  6 47  1  6
  8 48  1  1
 10 49  1  1
 11 50  1  0
 12 51  1  6
 14 52  1  0
 18 53  1  0
 18 54  1  0
 20 55  1  0
 27 56  1  0
 27 57  1  0
 28 58  1  1
 30 59  1  6
 32 60  1  6
 33 61  1  0
 34 62  1  1
 36 63  1  0
 40 64  1  0
 40 65  1  0
 42 66  1  0
M  CHG  2   3  -1  25  -1
M  END
>  <filename_input>  (10) 
6YJA_2BA_docked.sdf

>  <pdb_id>  (10) 
6YJA_2BA

>  <pose_rank>  (10) 
9

>  <num_atoms_heavy>  (10) 
44

>  <num_torsions>  (10) 
2

>  <pose>  (10) 
[-0.8092523368044738, 2.935323828444686, 13.720579006115871, -0.05839903832506481, 0.39690146050207914, -0.1352741539138213, -0.2823479387949104, -6.283180847946782]

>  <energy>  (10) 
-786.386177619791

>  <inter_energy>  (10) 
-794.8080540807268

>  <intra_energy>  (10) 
11.409938227791427

>  <rmsd>  (10) 
1.76947

>  <sdf_rank>  (10) 
0

$$$$

     RDKit          3D

 66 72  0  0  0  0  0  0  0  0999 V2000
   -0.1360    7.3617   13.7772 P   0  0  2  0  0  0  0  0  0  0  0  0
   -0.8582    8.1543   12.7058 O   0  0  0  0  0  0  0  0  0  0  0  0
    0.6577    8.0121   14.8720 O   0  0  0  0  0  0  0  0  0  0  0  0
    0.7352    6.1733   13.1207 O   0  0  0  0  0  0  0  0  0  0  0  0
    0.3818    5.6051   11.8758 C   0  0  0  0  0  0  0  0  0  0  0  0
    1.3384    4.4309   11.6554 C   0  0  1  0  0  0  0  0  0  0  0  0
    2.6496    4.9493   11.4661 O   0  0  0  0  0  0  0  0  0  0  0  0
    1.5050    3.4690   12.8255 C   0  0  1  0  0  0  0  0  0  0  0  0
    0.4670    2.5134   12.7676 O   0  0  0  0  0  0  0  0  0  0  0  0
    2.8696    2.8510   12.5415 C   0  0  1  0  0  0  0  0  0  0  0  0
    2.6919    1.9318   11.4412 O   0  0  0  0  0  0  0  0  0  0  0  0
    3.6252    4.0292   11.9693 C   0  0  2  0  0  0  0  0  0  0  0  0
    4.3420    4.8091   12.9922 N   0  0  0  0  0  0  0  0  0  0  0  0
    4.5878    4.4660   14.2767 C   0  0  0  0  0  0  0  0  0  0  0  0
    5.2508    5.4621   14.9258 N   0  0  0  0  0  0  0  0  0  0  0  0
    5.3984    6.4692   14.0352 C   0  0  0  0  0  0  0  0  0  0  0  0
    5.9900    7.8055   14.0489 C   0  0  0  0  0  0  0  0  0  0  0  0
    6.5501    8.2966   15.1970 N   0  0  0  0  0  0  0  0  0  0  0  0
    5.9126    8.5125   12.8921 N   0  0  0  0  0  0  0  0  0  0  0  0
    5.3630    8.0454   11.7653 C   0  0  0  0  0  0  0  0  0  0  0  0
    4.7987    6.8300   11.6848 N   0  0  0  0  0  0  0  0  0  0  0  0
    4.7959    6.0345   12.7716 C   0  0  0  0  0  0  0  0  0  0  0  0
    0.0066    1.7114   14.0722 P   0  0  2  0  0  0  0  0  0  0  0  0
    1.2567    1.1458   14.6976 O   0  0  0  0  0  0  0  0  0  0  0  0
   -1.1652    0.8355   13.6931 O   0  0  0  0  0  0  0  0  0  0  0  0
   -0.5423    2.8606   15.0555 O   0  0  0  0  0  0  0  0  0  0  0  0
   -1.8148    3.4321   14.7605 C   0  0  0  0  0  0  0  0  0  0  0  0
   -2.0908    4.5932   15.7124 C   0  0  1  0  0  0  0  0  0  0  0  0
   -2.0572    4.1649   17.0760 O   0  0  0  0  0  0  0  0  0  0  0  0
   -1.0510    5.6989   15.6321 C   0  0  1  0  0  0  0  0  0  0  0  0
   -1.2977    6.5251   14.4932 O   0  0  0  0  0  0  0  0  0  0  0  0
   -1.2316    6.3879   16.9727 C   0  0  1  0  0  0  0  0  0  0  0  0
   -2.3379    7.3047   16.9285 O   0  0  0  0  0  0  0  0  0  0  0  0
   -1.5969    5.2280   17.9000 C   0  0  2  0  0  0  0  0  0  0  0  0
   -0.3443    4.7720   18.5371 N   0  0  0  0  0  0  0  0  0  0  0  0
    0.8356    5.4220   18.5763 C   0  0  0  0  0  0  0  0  0  0  0  0
    1.7684    4.7041   19.2677 N   0  0  0  0  0  0  0  0  0  0  0  0
    1.1587    3.5842   19.6983 C   0  0  0  0  0  0  0  0  0  0  0  0
    1.5387    2.3892   20.4934 C   0  0  0  0  0  0  0  0  0  0  0  0
    2.7987    2.2425   20.9814 N   0  0  0  0  0  0  0  0  0  0  0  0
    0.5845    1.4520   20.7059 N   0  0  0  0  0  0  0  0  0  0  0  0
   -0.6703    1.5747   20.2341 C   0  0  0  0  0  0  0  0  0  0  0  0
   -1.0835    2.6365   19.5134 N   0  0  0  0  0  0  0  0  0  0  0  0
   -0.2297    3.6389   19.2156 C   0  0  0  0  0  0  0  0  0  0  0  0
   -0.6589    5.2496   11.9006 H   0  0  0  0  0  0  0  0  0  0  0  0
    0.4578    6.3421   11.0628 H   0  0  0  0  0  0  0  0  0  0  0  0
    0.8967    3.8863   10.8079 H   0  0  0  0  0  0  0  0  0  0  0  0
    1.4541    3.9225   13.8264 H   0  0  0  0  0  0  0  0  0  0  0  0
    3.3383    2.3551   13.4043 H   0  0  0  0  0  0  0  0  0  0  0  0
    2.5165    1.0239   11.7948 H   0  0  0  0  0  0  0  0  0  0  0  0
    4.3349    3.6274   11.2312 H   0  0  0  0  0  0  0  0  0  0  0  0
    4.2921    3.5109   14.7353 H   0  0  0  0  0  0  0  0  0  0  0  0
    6.9665    9.2386   15.2048 H   0  0  0  0  0  0  0  0  0  0  0  0
    6.5551    7.7242   16.0533 H   0  0  0  0  0  0  0  0  0  0  0  0
    5.3740    8.6828   10.8689 H   0  0  0  0  0  0  0  0  0  0  0  0
   -1.8187    3.8004   13.7240 H   0  0  0  0  0  0  0  0  0  0  0  0
   -2.5951    2.6667   14.8837 H   0  0  0  0  0  0  0  0  0  0  0  0
   -3.0796    4.9634   15.4038 H   0  0  0  0  0  0  0  0  0  0  0  0
   -0.0106    5.3739   15.4842 H   0  0  0  0  0  0  0  0  0  0  0  0
   -0.3442    6.9610   17.2794 H   0  0  0  0  0  0  0  0  0  0  0  0
   -2.6140    7.5335   17.8512 H   0  0  0  0  0  0  0  0  0  0  0  0
   -2.3503    5.5223   18.6455 H   0  0  0  0  0  0  0  0  0  0  0  0
    1.0224    6.4017   18.1123 H   0  0  0  0  0  0  0  0  0  0  0  0
    3.0441    1.4066   21.5310 H   0  0  0  0  0  0  0  0  0  0  0  0
    3.5082    2.9672   20.8017 H   0  0  0  0  0  0  0  0  0  0  0  0
   -1.3915    0.7717   20.4462 H   0  0  0  0  0  0  0  0  0  0  0  0
  1  2  2  0
  1  3  1  1
  1  4  1  0
  1 31  1  0
  4  5  1  0
  6  5  1  0
  6  7  1  0
  6  8  1  0
  7 12  1  0
  8  9  1  0
  8 10  1  0
  9 23  1  0
 10 11  1  0
 10 12  1  0
 12 13  1  0
 13 14  1  0
 13 22  1  0
 14 15  2  0
 15 16  1  0
 16 17  2  0
 16 22  1  0
 17 18  1  0
 17 19  1  0
 19 20  2  0
 20 21  1  0
 21 22  2  0
 23 24  2  0
 23 25  1  6
 23 26  1  0
 26 27  1  0
 28 27  1  0
 28 29  1  0
 28 30  1  0
 29 34  1  0
 30 31  1  0
 30 32  1  0
 32 33  1  0
 32 34  1  0
 34 35  1  0
 35 36  1  0
 35 44  1  0
 36 37  2  0
 37 38  1  0
 38 39  2  0
 38 44  1  0
 39 40  1  0
 39 41  1  0
 41 42  2  0
 42 43  1  0
 43 44  2  0
  5 45  1  0
  5 46  1  0
  6 47  1  6
  8 48  1  1
 10 49  1  1
 11 50  1  0
 12 51  1  6
 14 52  1  0
 18 53  1  0
 18 54  1  0
 20 55  1  0
 27 56  1  0
 27 57  1  0
 28 58  1  6
 30 59  1  6
 32 60  1  1
 33 61  1  0
 34 62  1  1
 36 63  1  0
 40 64  1  0
 40 65  1  0
 42 66  1  0
M  CHG  2   3  -1  25  -1
M  END
>  <filename_input>  (11) 
6YJA_2BA_docked.sdf

>  <pdb_id>  (11) 
6YJA_2BA

>  <pose_rank>  (11) 
10

>  <num_atoms_heavy>  (11) 
44

>  <num_torsions>  (11) 
2

>  <pose>  (11) 
[-0.1359615250008921, 7.361674310346742, 13.777151580558773, 0.7675027418406813, 0.3579173755602294, -0.8781569343239388, 1.7398237692836038, 1.9843900839760116]

>  <energy>  (11) 
-534.8381967838937

>  <inter_energy>  (11) 
-570.8356822588877

>  <intra_energy>  (11) 
22.9826925790714

>  <rmsd>  (11) 
4.05718

>  <sdf_rank>  (11) 
0

$$$$

     RDKit          3D

 66 72  0  0  0  0  0  0  0  0999 V2000
    4.3548    4.3228   13.6200 P   0  0  2  0  0  0  0  0  0  0  0  0
    5.5934    3.9462   12.8316 O   0  0  0  0  0  0  0  0  0  0  0  0
    4.3796    5.3134   14.7468 O   0  0  0  0  0  0  0  0  0  0  0  0
    3.5503    3.0047   14.0863 O   0  0  0  0  0  0  0  0  0  0  0  0
    3.6403    1.7947   13.3616 C   0  0  0  0  0  0  0  0  0  0  0  0
    2.6427    0.8327   14.0112 C   0  0  1  0  0  0  0  0  0  0  0  0
    3.1090    0.5167   15.3175 O   0  0  0  0  0  0  0  0  0  0  0  0
    1.2426    1.3806   14.2595 C   0  0  1  0  0  0  0  0  0  0  0  0
    0.4858    1.2203   13.0782 O   0  0  0  0  0  0  0  0  0  0  0  0
    0.7422    0.4843   15.3869 C   0  0  1  0  0  0  0  0  0  0  0  0
    0.4441   -0.8011   14.7987 O   0  0  0  0  0  0  0  0  0  0  0  0
    2.0030    0.2788   16.1960 C   0  0  2  0  0  0  0  0  0  0  0  0
    2.1803    1.2847   17.2567 N   0  0  0  0  0  0  0  0  0  0  0  0
    3.3064    1.5736   17.9472 C   0  0  0  0  0  0  0  0  0  0  0  0
    3.0714    2.5428   18.8736 N   0  0  0  0  0  0  0  0  0  0  0  0
    1.7571    2.8493   18.7840 C   0  0  0  0  0  0  0  0  0  0  0  0
    0.8443    3.7687   19.4602 C   0  0  0  0  0  0  0  0  0  0  0  0
    1.2988    4.5625   20.4783 N   0  0  0  0  0  0  0  0  0  0  0  0
   -0.4485    3.7511   19.0450 N   0  0  0  0  0  0  0  0  0  0  0  0
   -0.9057    2.9761   18.0550 C   0  0  0  0  0  0  0  0  0  0  0  0
   -0.1233    2.1072   17.3956 N   0  0  0  0  0  0  0  0  0  0  0  0
    1.1796    2.0169   17.7247 C   0  0  0  0  0  0  0  0  0  0  0  0
   -0.7962    2.1306   12.7866 P   0  0  2  0  0  0  0  0  0  0  0  0
   -1.6610    2.0702   14.0204 O   0  0  0  0  0  0  0  0  0  0  0  0
   -1.3266    1.7665   11.4191 O   0  0  0  0  0  0  0  0  0  0  0  0
   -0.1962    3.6207   12.6955 O   0  0  0  0  0  0  0  0  0  0  0  0
    0.5234    3.9737   11.5163 C   0  0  0  0  0  0  0  0  0  0  0  0
    1.1317    5.3641   11.6812 C   0  0  1  0  0  0  0  0  0  0  0  0
    0.1236    6.3431   11.9441 O   0  0  0  0  0  0  0  0  0  0  0  0
    2.0849    5.4691   12.8605 C   0  0  1  0  0  0  0  0  0  0  0  0
    3.3554    4.9131   12.5177 O   0  0  0  0  0  0  0  0  0  0  0  0
    2.0905    6.9650   13.1183 C   0  0  1  0  0  0  0  0  0  0  0  0
    2.9907    7.6330   12.2182 O   0  0  0  0  0  0  0  0  0  0  0  0
    0.6589    7.3719   12.7664 C   0  0  2  0  0  0  0  0  0  0  0  0
   -0.1143    7.3675   14.0253 N   0  0  0  0  0  0  0  0  0  0  0  0
    0.3673    7.2554   15.2790 C   0  0  0  0  0  0  0  0  0  0  0  0
   -0.6407    7.3080   16.1982 N   0  0  0  0  0  0  0  0  0  0  0  0
   -1.7856    7.4825   15.5125 C   0  0  0  0  0  0  0  0  0  0  0  0
   -3.2255    7.6332   15.8420 C   0  0  0  0  0  0  0  0  0  0  0  0
   -3.6573    7.6057   17.1305 N   0  0  0  0  0  0  0  0  0  0  0  0
   -4.0883    7.7917   14.8103 N   0  0  0  0  0  0  0  0  0  0  0  0
   -3.6853    7.8232   13.5263 C   0  0  0  0  0  0  0  0  0  0  0  0
   -2.3941    7.7010   13.1584 N   0  0  0  0  0  0  0  0  0  0  0  0
   -1.4294    7.5230   14.0860 C   0  0  0  0  0  0  0  0  0  0  0  0
    3.3774    1.9616   12.3066 H   0  0  0  0  0  0  0  0  0  0  0  0
    4.6622    1.3885   13.3851 H   0  0  0  0  0  0  0  0  0  0  0  0
    2.5765   -0.0009   13.2965 H   0  0  0  0  0  0  0  0  0  0  0  0
    1.1877    2.4476   14.5210 H   0  0  0  0  0  0  0  0  0  0  0  0
   -0.1222    0.8804   15.9400 H   0  0  0  0  0  0  0  0  0  0  0  0
    0.2902   -1.4649   15.5169 H   0  0  0  0  0  0  0  0  0  0  0  0
    1.9429   -0.7285   16.6337 H   0  0  0  0  0  0  0  0  0  0  0  0
    4.2808    1.0905   17.7825 H   0  0  0  0  0  0  0  0  0  0  0  0
    0.6540    5.2098   20.9538 H   0  0  0  0  0  0  0  0  0  0  0  0
    2.2856    4.5125   20.7690 H   0  0  0  0  0  0  0  0  0  0  0  0
   -1.9652    3.0539   17.7699 H   0  0  0  0  0  0  0  0  0  0  0  0
    1.3262    3.2414   11.3450 H   0  0  0  0  0  0  0  0  0  0  0  0
   -0.1638    3.9763   10.6574 H   0  0  0  0  0  0  0  0  0  0  0  0
    1.6619    5.5387   10.7334 H   0  0  0  0  0  0  0  0  0  0  0  0
    1.8014    4.9069   13.7624 H   0  0  0  0  0  0  0  0  0  0  0  0
    2.4032    7.2192   14.1418 H   0  0  0  0  0  0  0  0  0  0  0  0
    3.6667    8.1345   12.7395 H   0  0  0  0  0  0  0  0  0  0  0  0
    0.6231    8.3523   12.2689 H   0  0  0  0  0  0  0  0  0  0  0  0
    1.4320    7.1371   15.5287 H   0  0  0  0  0  0  0  0  0  0  0  0
   -4.6602    7.7119   17.3399 H   0  0  0  0  0  0  0  0  0  0  0  0
   -2.9816    7.4787   17.8975 H   0  0  0  0  0  0  0  0  0  0  0  0
   -4.4444    7.9545   12.7411 H   0  0  0  0  0  0  0  0  0  0  0  0
  1  2  2  0
  1  3  1  1
  1  4  1  0
  1 31  1  0
  4  5  1  0
  6  5  1  0
  6  7  1  0
  6  8  1  0
  7 12  1  0
  8  9  1  0
  8 10  1  0
  9 23  1  0
 10 11  1  0
 10 12  1  0
 12 13  1  0
 13 14  1  0
 13 22  1  0
 14 15  2  0
 15 16  1  0
 16 17  2  0
 16 22  1  0
 17 18  1  0
 17 19  1  0
 19 20  2  0
 20 21  1  0
 21 22  2  0
 23 24  2  0
 23 25  1  6
 23 26  1  0
 26 27  1  0
 28 27  1  0
 28 29  1  0
 28 30  1  0
 29 34  1  0
 30 31  1  0
 30 32  1  0
 32 33  1  0
 32 34  1  0
 34 35  1  0
 35 36  1  0
 35 44  1  0
 36 37  2  0
 37 38  1  0
 38 39  2  0
 38 44  1  0
 39 40  1  0
 39 41  1  0
 41 42  2  0
 42 43  1  0
 43 44  2  0
  5 45  1  0
  5 46  1  0
  6 47  1  6
  8 48  1  1
 10 49  1  1
 11 50  1  0
 12 51  1  1
 14 52  1  0
 18 53  1  0
 18 54  1  0
 20 55  1  0
 27 56  1  0
 27 57  1  0
 28 58  1  6
 30 59  1  1
 32 60  1  1
 33 61  1  0
 34 62  1  6
 36 63  1  0
 40 64  1  0
 40 65  1  0
 42 66  1  0
M  CHG  2   3  -1  25  -1
M  END
>  <filename_input>  (12) 
6YJA_2BA_docked.sdf

>  <pdb_id>  (12) 
6YJA_2BA

>  <pose_rank>  (12) 
11

>  <num_atoms_heavy>  (12) 
44

>  <num_torsions>  (12) 
2

>  <pose>  (12) 
[4.354753873930616, 4.32281431811049, 13.619998908737001, 0.7621729814814606, -1.5168311281977858, -1.1607300468291457, -1.3441406242954468, 1.9041694912511848]

>  <energy>  (12) 
-565.0498206707729

>  <inter_energy>  (12) 
-605.9639349115572

>  <intra_energy>  (12) 
40.16345354127521

>  <rmsd>  (12) 
5.36121

>  <sdf_rank>  (12) 
0

$$$$

     RDKit          3D

 66 72  0  0  0  0  0  0  0  0999 V2000
    0.3344    4.1240   17.3476 P   0  0  2  0  0  0  0  0  0  0  0  0
   -0.6761    4.8139   18.2423 O   0  0  0  0  0  0  0  0  0  0  0  0
    1.7712    3.9377   17.7385 O   0  0  0  0  0  0  0  0  0  0  0  0
    0.2617    4.7075   15.8455 O   0  0  0  0  0  0  0  0  0  0  0  0
   -0.9268    5.2776   15.3359 C   0  0  0  0  0  0  0  0  0  0  0  0
   -0.6573    5.5786   13.8596 C   0  0  1  0  0  0  0  0  0  0  0  0
    0.3129    6.6162   13.7827 O   0  0  0  0  0  0  0  0  0  0  0  0
   -0.0336    4.4515   13.0455 C   0  0  1  0  0  0  0  0  0  0  0  0
   -1.0687    3.6069   12.5882 O   0  0  0  0  0  0  0  0  0  0  0  0
    0.6331    5.2110   11.9038 C   0  0  1  0  0  0  0  0  0  0  0  0
   -0.4224    5.6494   11.0201 O   0  0  0  0  0  0  0  0  0  0  0  0
    1.1177    6.4579   12.6085 C   0  0  2  0  0  0  0  0  0  0  0  0
    2.4847    6.3280   13.1402 N   0  0  0  0  0  0  0  0  0  0  0  0
    3.2106    7.2581   13.8006 C   0  0  0  0  0  0  0  0  0  0  0  0
    4.4480    6.7799   14.1059 N   0  0  0  0  0  0  0  0  0  0  0  0
    4.5122    5.5282   13.5976 C   0  0  0  0  0  0  0  0  0  0  0  0
    5.5135    4.4648   13.5473 C   0  0  0  0  0  0  0  0  0  0  0  0
    6.7524    4.6619   14.0944 N   0  0  0  0  0  0  0  0  0  0  0  0
    5.1506    3.3227   12.9085 N   0  0  0  0  0  0  0  0  0  0  0  0
    3.9449    3.1204   12.3653 C   0  0  0  0  0  0  0  0  0  0  0  0
    2.9815    4.0552   12.3722 N   0  0  0  0  0  0  0  0  0  0  0  0
    3.2227    5.2416   12.9624 C   0  0  0  0  0  0  0  0  0  0  0  0
   -0.7797    2.0864   12.1862 P   0  0  2  0  0  0  0  0  0  0  0  0
    0.3920    2.1037   11.2370 O   0  0  0  0  0  0  0  0  0  0  0  0
   -2.0965    1.4414   11.8203 O   0  0  0  0  0  0  0  0  0  0  0  0
   -0.2735    1.4161   13.5585 O   0  0  0  0  0  0  0  0  0  0  0  0
   -1.2509    1.1354   14.5580 C   0  0  0  0  0  0  0  0  0  0  0  0
   -0.5617    0.6427   15.8280 C   0  0  1  0  0  0  0  0  0  0  0  0
    0.2197   -0.5270   15.5733 O   0  0  0  0  0  0  0  0  0  0  0  0
    0.4246    1.6444   16.4059 C   0  0  1  0  0  0  0  0  0  0  0  0
   -0.2718    2.6582   17.1324 O   0  0  0  0  0  0  0  0  0  0  0  0
    1.3125    0.7484   17.2506 C   0  0  1  0  0  0  0  0  0  0  0  0
    0.7016    0.4821   18.5244 O   0  0  0  0  0  0  0  0  0  0  0  0
    1.3433   -0.5505   16.4440 C   0  0  2  0  0  0  0  0  0  0  0  0
    2.5513   -0.5041   15.5947 N   0  0  0  0  0  0  0  0  0  0  0  0
    3.0499    0.5641   14.9416 C   0  0  0  0  0  0  0  0  0  0  0  0
    4.1915    0.2381   14.2677 N   0  0  0  0  0  0  0  0  0  0  0  0
    4.4360   -1.0612   14.5196 C   0  0  0  0  0  0  0  0  0  0  0  0
    5.4744   -2.0538   14.1438 C   0  0  0  0  0  0  0  0  0  0  0  0
    6.5129   -1.7117   13.3364 N   0  0  0  0  0  0  0  0  0  0  0  0
    5.3414   -3.3105   14.6307 N   0  0  0  0  0  0  0  0  0  0  0  0
    4.3227   -3.6735   15.4325 C   0  0  0  0  0  0  0  0  0  0  0  0
    3.3523   -2.8211   15.8188 N   0  0  0  0  0  0  0  0  0  0  0  0
    3.3546   -1.5396   15.3943 C   0  0  0  0  0  0  0  0  0  0  0  0
   -1.7623    4.5689   15.4342 H   0  0  0  0  0  0  0  0  0  0  0  0
   -1.2026    6.1889   15.8868 H   0  0  0  0  0  0  0  0  0  0  0  0
   -1.6531    5.8037   13.4503 H   0  0  0  0  0  0  0  0  0  0  0  0
    0.6757    3.8083   13.5870 H   0  0  0  0  0  0  0  0  0  0  0  0
    1.3996    4.6411   11.3582 H   0  0  0  0  0  0  0  0  0  0  0  0
   -1.1908    5.9685   11.5567 H   0  0  0  0  0  0  0  0  0  0  0  0
    1.0707    7.2786   11.8775 H   0  0  0  0  0  0  0  0  0  0  0  0
    2.8500    8.2652   14.0567 H   0  0  0  0  0  0  0  0  0  0  0  0
    7.4568    3.9113   14.0581 H   0  0  0  0  0  0  0  0  0  0  0  0
    6.9804    5.5609   14.5426 H   0  0  0  0  0  0  0  0  0  0  0  0
    3.7345    2.1490   11.8940 H   0  0  0  0  0  0  0  0  0  0  0  0
   -1.8184    2.0508   14.7816 H   0  0  0  0  0  0  0  0  0  0  0  0
   -1.9352    0.3570   14.1896 H   0  0  0  0  0  0  0  0  0  0  0  0
   -1.3898    0.4607   16.5288 H   0  0  0  0  0  0  0  0  0  0  0  0
    1.0127    2.2198   15.6758 H   0  0  0  0  0  0  0  0  0  0  0  0
    2.2997    1.1918   17.4478 H   0  0  0  0  0  0  0  0  0  0  0  0
    1.3195    0.7515   19.2494 H   0  0  0  0  0  0  0  0  0  0  0  0
    1.3363   -1.4366   17.0957 H   0  0  0  0  0  0  0  0  0  0  0  0
    2.5968    1.5664   14.9505 H   0  0  0  0  0  0  0  0  0  0  0  0
    7.2238   -2.4139   13.0864 H   0  0  0  0  0  0  0  0  0  0  0  0
    6.5890   -0.7504   12.9747 H   0  0  0  0  0  0  0  0  0  0  0  0
    4.2803   -4.7133   15.7888 H   0  0  0  0  0  0  0  0  0  0  0  0
  1  2  2  0
  1  3  1  1
  1  4  1  0
  1 31  1  0
  4  5  1  0
  6  5  1  0
  6  7  1  0
  6  8  1  0
  7 12  1  0
  8  9  1  0
  8 10  1  0
  9 23  1  0
 10 11  1  0
 10 12  1  0
 12 13  1  0
 13 14  1  0
 13 22  1  0
 14 15  2  0
 15 16  1  0
 16 17  2  0
 16 22  1  0
 17 18  1  0
 17 19  1  0
 19 20  2  0
 20 21  1  0
 21 22  2  0
 23 24  2  0
 23 25  1  6
 23 26  1  0
 26 27  1  0
 28 27  1  0
 28 29  1  0
 28 30  1  0
 29 34  1  0
 30 31  1  0
 30 32  1  0
 32 33  1  0
 32 34  1  0
 34 35  1  0
 35 36  1  0
 35 44  1  0
 36 37  2  0
 37 38  1  0
 38 39  2  0
 38 44  1  0
 39 40  1  0
 39 41  1  0
 41 42  2  0
 42 43  1  0
 43 44  2  0
  5 45  1  0
  5 46  1  0
  6 47  1  6
  8 48  1  1
 10 49  1  6
 11 50  1  0
 12 51  1  6
 14 52  1  0
 18 53  1  0
 18 54  1  0
 20 55  1  0
 27 56  1  0
 27 57  1  0
 28 58  1  1
 30 59  1  6
 32 60  1  1
 33 61  1  0
 34 62  1  1
 36 63  1  0
 40 64  1  0
 40 65  1  0
 42 66  1  0
M  CHG  2   3  -1  25  -1
M  END
>  <filename_input>  (13) 
6YJA_2BA_docked.sdf

>  <pdb_id>  (13) 
6YJA_2BA

>  <pose_rank>  (13) 
12

>  <num_atoms_heavy>  (13) 
44

>  <num_torsions>  (13) 
2

>  <pose>  (13) 
[0.3344429368294196, 4.123969441337225, 17.347610534896617, -2.4208443695639246, -2.9010696758970367, 1.0709138451637137, -1.6419911929856272, -5.247090272129989]

>  <energy>  (13) 
-680.155509502133

>  <inter_energy>  (13) 
-757.7145821276704

>  <intra_energy>  (13) 
62.22434257387736

>  <rmsd>  (13) 
6.50825

>  <sdf_rank>  (13) 
0

$$$$

     RDKit          3D

 66 72  0  0  0  0  0  0  0  0999 V2000
    4.4998    5.3329   13.6032 P   0  0  2  0  0  0  0  0  0  0  0  0
    5.7358    5.6101   12.7706 O   0  0  0  0  0  0  0  0  0  0  0  0
    4.3648    5.7789   15.0295 O   0  0  0  0  0  0  0  0  0  0  0  0
    4.0659    3.7837   13.4855 O   0  0  0  0  0  0  0  0  0  0  0  0
    4.3917    3.0144   12.3456 C   0  0  0  0  0  0  0  0  0  0  0  0
    3.6985    1.6624   12.5304 C   0  0  1  0  0  0  0  0  0  0  0  0
    4.3146    0.9872   13.6205 O   0  0  0  0  0  0  0  0  0  0  0  0
    2.2286    1.7082   12.9293 C   0  0  1  0  0  0  0  0  0  0  0  0
    1.4529    1.8406   11.7568 O   0  0  0  0  0  0  0  0  0  0  0  0
    2.0339    0.3503   13.5950 C   0  0  1  0  0  0  0  0  0  0  0  0
    2.0110   -0.6344   12.5381 O   0  0  0  0  0  0  0  0  0  0  0  0
    3.3595    0.1621   14.2976 C   0  0  2  0  0  0  0  0  0  0  0  0
    3.3642    0.6848   15.6743 N   0  0  0  0  0  0  0  0  0  0  0  0
    4.3242    1.4191   16.2803 C   0  0  0  0  0  0  0  0  0  0  0  0
    3.9859    1.6880   17.5711 N   0  0  0  0  0  0  0  0  0  0  0  0
    2.7973    1.0813   17.7911 C   0  0  0  0  0  0  0  0  0  0  0  0
    1.8786    0.9485   18.9200 C   0  0  0  0  0  0  0  0  0  0  0  0
    2.1889    1.5125   20.1277 N   0  0  0  0  0  0  0  0  0  0  0  0
    0.7540    0.2195   18.7012 N   0  0  0  0  0  0  0  0  0  0  0  0
    0.4425   -0.3410   17.5271 C   0  0  0  0  0  0  0  0  0  0  0  0
    1.2424   -0.2615   16.4520 N   0  0  0  0  0  0  0  0  0  0  0  0
    2.3991    0.4223   16.5439 C   0  0  0  0  0  0  0  0  0  0  0  0
   -0.0258    2.4475   11.8066 P   0  0  2  0  0  0  0  0  0  0  0  0
   -0.7651    1.7006   12.8880 O   0  0  0  0  0  0  0  0  0  0  0  0
   -0.5461    2.5273   10.3900 O   0  0  0  0  0  0  0  0  0  0  0  0
    0.1946    3.9529   12.3302 O   0  0  0  0  0  0  0  0  0  0  0  0
    0.7275    4.9025   11.4098 C   0  0  0  0  0  0  0  0  0  0  0  0
    0.9970    6.2216   12.1293 C   0  0  1  0  0  0  0  0  0  0  0  0
   -0.1948    6.7406   12.7243 O   0  0  0  0  0  0  0  0  0  0  0  0
    1.9760    6.0891   13.2844 C   0  0  1  0  0  0  0  0  0  0  0  0
    3.3158    6.0412   12.7915 O   0  0  0  0  0  0  0  0  0  0  0  0
    1.6428    7.3177   14.1115 C   0  0  1  0  0  0  0  0  0  0  0  0
    2.2947    8.4824   13.5775 O   0  0  0  0  0  0  0  0  0  0  0  0
    0.1350    7.4645   13.9026 C   0  0  2  0  0  0  0  0  0  0  0  0
   -0.5273    6.7800   15.0320 N   0  0  0  0  0  0  0  0  0  0  0  0
   -0.7504    5.4579   15.1681 C   0  0  0  0  0  0  0  0  0  0  0  0
   -1.3732    5.1848   16.3517 N   0  0  0  0  0  0  0  0  0  0  0  0
   -1.5262    6.3585   16.9923 C   0  0  0  0  0  0  0  0  0  0  0  0
   -2.0918    6.8122   18.2881 C   0  0  0  0  0  0  0  0  0  0  0  0
   -2.6373    5.9275   19.1639 N   0  0  0  0  0  0  0  0  0  0  0  0
   -2.0482    8.1386   18.5576 N   0  0  0  0  0  0  0  0  0  0  0  0
   -1.5126    9.0342   17.7072 C   0  0  0  0  0  0  0  0  0  0  0  0
   -0.9751    8.6894   16.5198 N   0  0  0  0  0  0  0  0  0  0  0  0
   -0.9651    7.4004   16.1187 C   0  0  0  0  0  0  0  0  0  0  0  0
    4.0254    3.5093   11.4340 H   0  0  0  0  0  0  0  0  0  0  0  0
    5.4802    2.8956   12.2399 H   0  0  0  0  0  0  0  0  0  0  0  0
    3.7841    1.1850   11.5431 H   0  0  0  0  0  0  0  0  0  0  0  0
    1.9392    2.5398   13.5886 H   0  0  0  0  0  0  0  0  0  0  0  0
    1.1399    0.2740   14.2312 H   0  0  0  0  0  0  0  0  0  0  0  0
    1.9899   -1.5420   12.9331 H   0  0  0  0  0  0  0  0  0  0  0  0
    3.5709   -0.9174   14.3003 H   0  0  0  0  0  0  0  0  0  0  0  0
    5.2531    1.7541   15.7956 H   0  0  0  0  0  0  0  0  0  0  0  0
    1.5402    1.4178   20.9222 H   0  0  0  0  0  0  0  0  0  0  0  0
    3.0711    2.0316   20.2423 H   0  0  0  0  0  0  0  0  0  0  0  0
   -0.5073   -0.8889   17.4391 H   0  0  0  0  0  0  0  0  0  0  0  0
    1.6679    4.5165   10.9895 H   0  0  0  0  0  0  0  0  0  0  0  0
    0.0025    5.0711   10.5998 H   0  0  0  0  0  0  0  0  0  0  0  0
    1.4045    6.8763   11.3449 H   0  0  0  0  0  0  0  0  0  0  0  0
    1.8966    5.1689   13.8819 H   0  0  0  0  0  0  0  0  0  0  0  0
    1.9551    7.2210   15.1618 H   0  0  0  0  0  0  0  0  0  0  0  0
    2.6136    9.0523   14.3215 H   0  0  0  0  0  0  0  0  0  0  0  0
   -0.1670    8.5199   13.8313 H   0  0  0  0  0  0  0  0  0  0  0  0
   -0.4679    4.6990   14.4236 H   0  0  0  0  0  0  0  0  0  0  0  0
   -3.0249    6.2606   20.0582 H   0  0  0  0  0  0  0  0  0  0  0  0
   -2.6631    4.9239   18.9334 H   0  0  0  0  0  0  0  0  0  0  0  0
   -1.5135   10.0960   17.9942 H   0  0  0  0  0  0  0  0  0  0  0  0
  1  2  2  0
  1  3  1  1
  1  4  1  0
  1 31  1  0
  4  5  1  0
  6  5  1  0
  6  7  1  0
  6  8  1  0
  7 12  1  0
  8  9  1  0
  8 10  1  0
  9 23  1  0
 10 11  1  0
 10 12  1  0
 12 13  1  0
 13 14  1  0
 13 22  1  0
 14 15  2  0
 15 16  1  0
 16 17  2  0
 16 22  1  0
 17 18  1  0
 17 19  1  0
 19 20  2  0
 20 21  1  0
 21 22  2  0
 23 24  2  0
 23 25  1  6
 23 26  1  0
 26 27  1  0
 28 27  1  0
 28 29  1  0
 28 30  1  0
 29 34  1  0
 30 31  1  0
 30 32  1  0
 32 33  1  0
 32 34  1  0
 34 35  1  0
 35 36  1  0
 35 44  1  0
 36 37  2  0
 37 38  1  0
 38 39  2  0
 38 44  1  0
 39 40  1  0
 39 41  1  0
 41 42  2  0
 42 43  1  0
 43 44  2  0
  5 45  1  0
  5 46  1  0
  6 47  1  6
  8 48  1  1
 10 49  1  1
 11 50  1  0
 12 51  1  1
 14 52  1  0
 18 53  1  0
 18 54  1  0
 20 55  1  0
 27 56  1  0
 27 57  1  0
 28 58  1  6
 30 59  1  1
 32 60  1  1
 33 61  1  0
 34 62  1  6
 36 63  1  0
 40 64  1  0
 40 65  1  0
 42 66  1  0
M  CHG  2   3  -1  25  -1
M  END
>  <filename_input>  (14) 
6YJA_2BA_docked.sdf

>  <pdb_id>  (14) 
6YJA_2BA

>  <pose_rank>  (14) 
13

>  <num_atoms_heavy>  (14) 
44

>  <num_torsions>  (14) 
2

>  <pose>  (14) 
[4.499770124360491, 5.33287987071568, 13.603169695971342, -2.364175444145649, 2.291775524372576, 2.602384591984646, 5.426595189818195, 6.5976366197325085]

>  <energy>  (14) 
-565.6627480086784

>  <inter_energy>  (14) 
-592.6051039707917

>  <intra_energy>  (14) 
22.295979340861987

>  <rmsd>  (14) 
5.83493

>  <sdf_rank>  (14) 
0

$$$$

     RDKit          3D

 66 72  0  0  0  0  0  0  0  0999 V2000
    0.3042    2.5073   11.8196 P   0  0  2  0  0  0  0  0  0  0  0  0
    0.0395    1.8824   10.4642 O   0  0  0  0  0  0  0  0  0  0  0  0
   -0.1822    3.8774   12.1909 O   0  0  0  0  0  0  0  0  0  0  0  0
    1.8603    2.3669   12.2207 O   0  0  0  0  0  0  0  0  0  0  0  0
    2.6596    1.3206   11.7070 C   0  0  0  0  0  0  0  0  0  0  0  0
    4.0122    1.4295   12.4148 C   0  0  1  0  0  0  0  0  0  0  0  0
    4.6491    2.6265   11.9844 O   0  0  0  0  0  0  0  0  0  0  0  0
    3.9691    1.5784   13.9307 C   0  0  1  0  0  0  0  0  0  0  0  0
    3.8787    0.2902   14.5022 O   0  0  0  0  0  0  0  0  0  0  0  0
    5.3086    2.2439   14.2263 C   0  0  1  0  0  0  0  0  0  0  0  0
    6.3242    1.2284   14.0693 O   0  0  0  0  0  0  0  0  0  0  0  0
    5.4633    3.1614   13.0344 C   0  0  2  0  0  0  0  0  0  0  0  0
    4.9003    4.5033   13.2602 N   0  0  0  0  0  0  0  0  0  0  0  0
    3.6488    4.9354   12.9864 C   0  0  0  0  0  0  0  0  0  0  0  0
    3.5104    6.2518   13.3042 N   0  0  0  0  0  0  0  0  0  0  0  0
    4.7144    6.6653   13.7610 C   0  0  0  0  0  0  0  0  0  0  0  0
    5.2760    7.9209   14.2549 C   0  0  0  0  0  0  0  0  0  0  0  0
    4.5028    9.0495   14.2965 N   0  0  0  0  0  0  0  0  0  0  0  0
    6.5835    7.8956   14.6208 N   0  0  0  0  0  0  0  0  0  0  0  0
    7.3506    6.8004   14.5796 C   0  0  0  0  0  0  0  0  0  0  0  0
    6.9001    5.6172   14.1333 N   0  0  0  0  0  0  0  0  0  0  0  0
    5.6210    5.5140   13.7246 C   0  0  0  0  0  0  0  0  0  0  0  0
    3.2851    0.0764   15.9716 P   0  0  2  0  0  0  0  0  0  0  0  0
    4.0071    1.0430   16.8762 O   0  0  0  0  0  0  0  0  0  0  0  0
    3.2520   -1.4085   16.2507 O   0  0  0  0  0  0  0  0  0  0  0  0
    1.7629    0.5829   15.8481 O   0  0  0  0  0  0  0  0  0  0  0  0
    0.8355   -0.2653   15.1748 C   0  0  0  0  0  0  0  0  0  0  0  0
   -0.5067    0.4482   15.0343 C   0  0  1  0  0  0  0  0  0  0  0  0
   -1.0313    0.8219   16.3106 O   0  0  0  0  0  0  0  0  0  0  0  0
   -0.4177    1.7528   14.2594 C   0  0  1  0  0  0  0  0  0  0  0  0
   -0.3684    1.4898   12.8562 O   0  0  0  0  0  0  0  0  0  0  0  0
   -1.6667    2.4754   14.7307 C   0  0  1  0  0  0  0  0  0  0  0  0
   -2.8216    2.0212   14.0050 O   0  0  0  0  0  0  0  0  0  0  0  0
   -1.7927    2.0158   16.1839 C   0  0  2  0  0  0  0  0  0  0  0  0
   -1.1352    3.0406   17.0206 N   0  0  0  0  0  0  0  0  0  0  0  0
    0.0335    2.9278   17.6822 C   0  0  0  0  0  0  0  0  0  0  0  0
    0.3387    4.0847   18.3395 N   0  0  0  0  0  0  0  0  0  0  0  0
   -0.6472    4.9596   18.0681 C   0  0  0  0  0  0  0  0  0  0  0  0
   -0.9649    6.3668   18.4199 C   0  0  0  0  0  0  0  0  0  0  0  0
   -0.1411    7.0933   19.2204 N   0  0  0  0  0  0  0  0  0  0  0  0
   -2.1076    6.8925   17.9182 N   0  0  0  0  0  0  0  0  0  0  0  0
   -2.9392    6.1940   17.1227 C   0  0  0  0  0  0  0  0  0  0  0  0
   -2.7067    4.9171   16.7580 N   0  0  0  0  0  0  0  0  0  0  0  0
   -1.6096    4.2656   17.1989 C   0  0  0  0  0  0  0  0  0  0  0  0
    2.1952    0.3463   11.9198 H   0  0  0  0  0  0  0  0  0  0  0  0
    2.7708    1.4000   10.6155 H   0  0  0  0  0  0  0  0  0  0  0  0
    4.5176    0.4850   12.1646 H   0  0  0  0  0  0  0  0  0  0  0  0
    3.1213    2.1550   14.3292 H   0  0  0  0  0  0  0  0  0  0  0  0
    5.3750    2.7256   15.2130 H   0  0  0  0  0  0  0  0  0  0  0  0
    6.6279    0.9247   14.9613 H   0  0  0  0  0  0  0  0  0  0  0  0
    6.5401    3.2320   12.8213 H   0  0  0  0  0  0  0  0  0  0  0  0
    2.8502    4.3080   12.5637 H   0  0  0  0  0  0  0  0  0  0  0  0
    4.9002    9.9335   14.6449 H   0  0  0  0  0  0  0  0  0  0  0  0
    3.5234    9.0147   13.9793 H   0  0  0  0  0  0  0  0  0  0  0  0
    8.3925    6.8723   14.9252 H   0  0  0  0  0  0  0  0  0  0  0  0
    1.2245   -0.5123   14.1759 H   0  0  0  0  0  0  0  0  0  0  0  0
    0.6979   -1.1887   15.7565 H   0  0  0  0  0  0  0  0  0  0  0  0
   -1.1421   -0.2777   14.5057 H   0  0  0  0  0  0  0  0  0  0  0  0
    0.4853    2.3567   14.4322 H   0  0  0  0  0  0  0  0  0  0  0  0
   -1.6040    3.5654   14.5961 H   0  0  0  0  0  0  0  0  0  0  0  0
   -3.5252    1.7444   14.6442 H   0  0  0  0  0  0  0  0  0  0  0  0
   -2.8425    1.8633   16.4748 H   0  0  0  0  0  0  0  0  0  0  0  0
    0.6590    2.0230   17.6912 H   0  0  0  0  0  0  0  0  0  0  0  0
   -0.3778    8.0682   19.4537 H   0  0  0  0  0  0  0  0  0  0  0  0
    0.7200    6.6689   19.5938 H   0  0  0  0  0  0  0  0  0  0  0  0
   -3.8501    6.6877   16.7534 H   0  0  0  0  0  0  0  0  0  0  0  0
  1  2  2  0
  1  3  1  6
  1  4  1  0
  1 31  1  0
  4  5  1  0
  6  5  1  0
  6  7  1  0
  6  8  1  0
  7 12  1  0
  8  9  1  0
  8 10  1  0
  9 23  1  0
 10 11  1  0
 10 12  1  0
 12 13  1  0
 13 14  1  0
 13 22  1  0
 14 15  2  0
 15 16  1  0
 16 17  2  0
 16 22  1  0
 17 18  1  0
 17 19  1  0
 19 20  2  0
 20 21  1  0
 21 22  2  0
 23 24  2  0
 23 25  1  1
 23 26  1  0
 26 27  1  0
 28 27  1  0
 28 29  1  0
 28 30  1  0
 29 34  1  0
 30 31  1  0
 30 32  1  0
 32 33  1  0
 32 34  1  0
 34 35  1  0
 35 36  1  0
 35 44  1  0
 36 37  2  0
 37 38  1  0
 38 39  2  0
 38 44  1  0
 39 40  1  0
 39 41  1  0
 41 42  2  0
 42 43  1  0
 43 44  2  0
  5 45  1  0
  5 46  1  0
  6 47  1  1
  8 48  1  6
 10 49  1  1
 11 50  1  0
 12 51  1  6
 14 52  1  0
 18 53  1  0
 18 54  1  0
 20 55  1  0
 27 56  1  0
 27 57  1  0
 28 58  1  6
 30 59  1  1
 32 60  1  1
 33 61  1  0
 34 62  1  1
 36 63  1  0
 40 64  1  0
 40 65  1  0
 42 66  1  0
M  CHG  2   3  -1  25  -1
M  END
>  <filename_input>  (15) 
6YJA_2BA_docked.sdf

>  <pdb_id>  (15) 
6YJA_2BA

>  <pose_rank>  (15) 
14

>  <num_atoms_heavy>  (15) 
44

>  <num_torsions>  (15) 
2

>  <pose>  (15) 
[0.30417767197290013, 2.5072568856025907, 11.819624587485256, 0.08546336133326694, -0.007293582096098917, -0.018079049708847172, -0.07859901973283667, -6.454885749588186]

>  <energy>  (15) 
-915.5689761976593

>  <inter_energy>  (15) 
-910.925403620144

>  <intra_energy>  (15) 
14.388333135856184

>  <rmsd>  (15) 
0.459282

>  <sdf_rank>  (15) 
0

$$$$

     RDKit          3D

 66 72  0  0  0  0  0  0  0  0999 V2000
   -1.3687   -0.0050   15.9294 P   0  0  2  0  0  0  0  0  0  0  0  0
   -1.9107   -1.3008   15.3594 O   0  0  0  0  0  0  0  0  0  0  0  0
   -2.2471    1.0332   16.5636 O   0  0  0  0  0  0  0  0  0  0  0  0
   -0.3711    0.7083   14.8816 O   0  0  0  0  0  0  0  0  0  0  0  0
    0.3368   -0.0411   13.9148 C   0  0  0  0  0  0  0  0  0  0  0  0
    1.2750    0.9442   13.2137 C   0  0  1  0  0  0  0  0  0  0  0  0
    0.4855    1.8608   12.4653 O   0  0  0  0  0  0  0  0  0  0  0  0
    2.1013    1.8485   14.1200 C   0  0  1  0  0  0  0  0  0  0  0  0
    3.2690    1.1511   14.4999 O   0  0  0  0  0  0  0  0  0  0  0  0
    2.4102    3.0266   13.2027 C   0  0  1  0  0  0  0  0  0  0  0  0
    3.4107    2.5748   12.2636 O   0  0  0  0  0  0  0  0  0  0  0  0
    1.1284    3.1395   12.4086 C   0  0  2  0  0  0  0  0  0  0  0  0
    0.1459    4.0490   13.0217 N   0  0  0  0  0  0  0  0  0  0  0  0
   -0.9304    3.7242   13.7728 C   0  0  0  0  0  0  0  0  0  0  0  0
   -1.6228    4.8389   14.1347 N   0  0  0  0  0  0  0  0  0  0  0  0
   -0.9825    5.8886   13.5713 C   0  0  0  0  0  0  0  0  0  0  0  0
   -1.1706    7.3375   13.5350 C   0  0  0  0  0  0  0  0  0  0  0  0
   -2.2402    7.9071   14.1710 N   0  0  0  0  0  0  0  0  0  0  0  0
   -0.2609    8.0472   12.8189 N   0  0  0  0  0  0  0  0  0  0  0  0
    0.7854    7.5013   12.1886 C   0  0  0  0  0  0  0  0  0  0  0  0
    1.0147    6.1787   12.1780 N   0  0  0  0  0  0  0  0  0  0  0  0
    0.1732    5.3615   12.8398 C   0  0  0  0  0  0  0  0  0  0  0  0
    4.0739    1.5444   15.8245 P   0  0  2  0  0  0  0  0  0  0  0  0
    4.3025    3.0338   15.7672 O   0  0  0  0  0  0  0  0  0  0  0  0
    5.2137    0.5654   15.9867 O   0  0  0  0  0  0  0  0  0  0  0  0
    3.0214    1.2673   17.0096 O   0  0  0  0  0  0  0  0  0  0  0  0
    2.7720   -0.0895   17.3697 C   0  0  0  0  0  0  0  0  0  0  0  0
    1.6481   -0.1502   18.4011 C   0  0  1  0  0  0  0  0  0  0  0  0
    1.9743    0.6080   19.5683 O   0  0  0  0  0  0  0  0  0  0  0  0
    0.3426    0.4504   17.9061 C   0  0  1  0  0  0  0  0  0  0  0  0
   -0.3357   -0.4771   17.0574 O   0  0  0  0  0  0  0  0  0  0  0  0
   -0.3675    0.7594   19.2117 C   0  0  1  0  0  0  0  0  0  0  0  0
   -1.0055   -0.4179   19.7347 O   0  0  0  0  0  0  0  0  0  0  0  0
    0.7866    1.1411   20.1397 C   0  0  2  0  0  0  0  0  0  0  0  0
    0.9075    2.6129   20.0974 N   0  0  0  0  0  0  0  0  0  0  0  0
    1.3522    3.3666   19.0725 C   0  0  0  0  0  0  0  0  0  0  0  0
    1.3086    4.6947   19.3853 N   0  0  0  0  0  0  0  0  0  0  0  0
    0.8011    4.7866   20.6284 C   0  0  0  0  0  0  0  0  0  0  0  0
    0.4685    5.8790   21.5774 C   0  0  0  0  0  0  0  0  0  0  0  0
    0.6777    7.1814   21.2498 N   0  0  0  0  0  0  0  0  0  0  0  0
   -0.0435    5.5260   22.7804 N   0  0  0  0  0  0  0  0  0  0  0  0
   -0.2607    4.2437   23.1280 C   0  0  0  0  0  0  0  0  0  0  0  0
    0.0105    3.2054   22.3120 N   0  0  0  0  0  0  0  0  0  0  0  0
    0.5383    3.4140   21.0870 C   0  0  0  0  0  0  0  0  0  0  0  0
    0.9167   -0.8396   14.4009 H   0  0  0  0  0  0  0  0  0  0  0  0
   -0.3475   -0.5210   13.1998 H   0  0  0  0  0  0  0  0  0  0  0  0
    1.9558    0.2977   12.6405 H   0  0  0  0  0  0  0  0  0  0  0  0
    1.6113    2.1649   15.0526 H   0  0  0  0  0  0  0  0  0  0  0  0
    2.7338    3.9410   13.7217 H   0  0  0  0  0  0  0  0  0  0  0  0
    4.1922    2.2219   12.7583 H   0  0  0  0  0  0  0  0  0  0  0  0
    1.4029    3.4971   11.4052 H   0  0  0  0  0  0  0  0  0  0  0  0
   -1.2090    2.6977   14.0534 H   0  0  0  0  0  0  0  0  0  0  0  0
   -2.3712    8.9284   14.1444 H   0  0  0  0  0  0  0  0  0  0  0  0
   -2.9143    7.3145   14.6764 H   0  0  0  0  0  0  0  0  0  0  0  0
    1.4858    8.1629   11.6578 H   0  0  0  0  0  0  0  0  0  0  0  0
    2.4777   -0.6571   16.4745 H   0  0  0  0  0  0  0  0  0  0  0  0
    3.6853   -0.5259   17.8002 H   0  0  0  0  0  0  0  0  0  0  0  0
    1.5309   -1.2244   18.6067 H   0  0  0  0  0  0  0  0  0  0  0  0
    0.4318    1.3471   17.2752 H   0  0  0  0  0  0  0  0  0  0  0  0
   -1.1443    1.5305   19.1015 H   0  0  0  0  0  0  0  0  0  0  0  0
   -0.9902   -0.3896   20.7242 H   0  0  0  0  0  0  0  0  0  0  0  0
    0.6259    0.7740   21.1641 H   0  0  0  0  0  0  0  0  0  0  0  0
    1.7038    2.9647   18.1108 H   0  0  0  0  0  0  0  0  0  0  0  0
    0.4409    7.9258   21.9211 H   0  0  0  0  0  0  0  0  0  0  0  0
    1.0731    7.4240   20.3301 H   0  0  0  0  0  0  0  0  0  0  0  0
   -0.6787    4.0335   24.1235 H   0  0  0  0  0  0  0  0  0  0  0  0
  1  2  2  0
  1  3  1  1
  1  4  1  0
  1 31  1  0
  4  5  1  0
  6  5  1  0
  6  7  1  0
  6  8  1  0
  7 12  1  0
  8  9  1  0
  8 10  1  0
  9 23  1  0
 10 11  1  0
 10 12  1  0
 12 13  1  0
 13 14  1  0
 13 22  1  0
 14 15  2  0
 15 16  1  0
 16 17  2  0
 16 22  1  0
 17 18  1  0
 17 19  1  0
 19 20  2  0
 20 21  1  0
 21 22  2  0
 23 24  2  0
 23 25  1  1
 23 26  1  0
 26 27  1  0
 28 27  1  0
 28 29  1  0
 28 30  1  0
 29 34  1  0
 30 31  1  0
 30 32  1  0
 32 33  1  0
 32 34  1  0
 34 35  1  0
 35 36  1  0
 35 44  1  0
 36 37  2  0
 37 38  1  0
 38 39  2  0
 38 44  1  0
 39 40  1  0
 39 41  1  0
 41 42  2  0
 42 43  1  0
 43 44  2  0
  5 45  1  0
  5 46  1  0
  6 47  1  6
  8 48  1  1
 10 49  1  1
 11 50  1  0
 12 51  1  6
 14 52  1  0
 18 53  1  0
 18 54  1  0
 20 55  1  0
 27 56  1  0
 27 57  1  0
 28 58  1  1
 30 59  1  6
 32 60  1  6
 33 61  1  0
 34 62  1  1
 36 63  1  0
 40 64  1  0
 40 65  1  0
 42 66  1  0
M  CHG  2   3  -1  25  -1
M  END
>  <filename_input>  (16) 
6YJA_2BA_docked.sdf

>  <pdb_id>  (16) 
6YJA_2BA

>  <pose_rank>  (16) 
15

>  <num_atoms_heavy>  (16) 
44

>  <num_torsions>  (16) 
2

>  <pose>  (16) 
[-1.3687171240293556, -0.005033275218123398, 15.929429267085775, -0.2607691132180001, 0.938306767519543, 0.6147407924574848, -0.2257878212950544, -5.794725634777999]

>  <energy>  (16) 
-538.8011292312942

>  <inter_energy>  (16) 
-549.4615281939648

>  <intra_energy>  (16) 
16.700323390062884

>  <rmsd>  (16) 
4.38274

>  <sdf_rank>  (16) 
0

$$$$

     RDKit          3D

 66 72  0  0  0  0  0  0  0  0999 V2000
   -1.8127    0.1686   15.8271 P   0  0  2  0  0  0  0  0  0  0  0  0
   -2.6419   -1.1003   15.8438 O   0  0  0  0  0  0  0  0  0  0  0  0
   -1.1911    0.7158   14.5758 O   0  0  0  0  0  0  0  0  0  0  0  0
   -0.7108    0.1479   17.0049 O   0  0  0  0  0  0  0  0  0  0  0  0
   -0.9118   -0.6025   18.1856 C   0  0  0  0  0  0  0  0  0  0  0  0
    0.2584   -0.2631   19.1118 C   0  0  1  0  0  0  0  0  0  0  0  0
    1.4507   -0.7871   18.5394 O   0  0  0  0  0  0  0  0  0  0  0  0
    0.5721    1.2179   19.2858 C   0  0  1  0  0  0  0  0  0  0  0  0
   -0.2610    1.7331   20.3029 O   0  0  0  0  0  0  0  0  0  0  0  0
    2.0377    1.1888   19.7052 C   0  0  1  0  0  0  0  0  0  0  0  0
    2.0721    0.7283   21.0742 O   0  0  0  0  0  0  0  0  0  0  0  0
    2.5696    0.0412   18.8766 C   0  0  2  0  0  0  0  0  0  0  0  0
    3.0930    0.4664   17.5676 N   0  0  0  0  0  0  0  0  0  0  0  0
    3.4800    1.7059   17.1910 C   0  0  0  0  0  0  0  0  0  0  0  0
    3.8763    1.7150   15.8888 N   0  0  0  0  0  0  0  0  0  0  0  0
    3.7051    0.4557   15.4263 C   0  0  0  0  0  0  0  0  0  0  0  0
    3.9119   -0.2337   14.1544 C   0  0  0  0  0  0  0  0  0  0  0  0
    4.3686    0.4578   13.0651 N   0  0  0  0  0  0  0  0  0  0  0  0
    3.5939   -1.5535   14.1236 N   0  0  0  0  0  0  0  0  0  0  0  0
    3.1417   -2.2388   15.1798 C   0  0  0  0  0  0  0  0  0  0  0  0
    2.9253   -1.6671   16.3750 N   0  0  0  0  0  0  0  0  0  0  0  0
    3.1871   -0.3554   16.5320 C   0  0  0  0  0  0  0  0  0  0  0  0
   -0.5970    3.2943   20.3862 P   0  0  2  0  0  0  0  0  0  0  0  0
    0.7195    4.0259   20.3140 O   0  0  0  0  0  0  0  0  0  0  0  0
   -1.5673    3.5033   21.5259 O   0  0  0  0  0  0  0  0  0  0  0  0
   -1.3849    3.5910   19.0150 O   0  0  0  0  0  0  0  0  0  0  0  0
   -2.7342    3.1410   18.9161 C   0  0  0  0  0  0  0  0  0  0  0  0
   -3.2558    3.3845   17.5023 C   0  0  1  0  0  0  0  0  0  0  0  0
   -3.1806    4.7689   17.1533 O   0  0  0  0  0  0  0  0  0  0  0  0
   -2.4456    2.6743   16.4301 C   0  0  1  0  0  0  0  0  0  0  0  0
   -2.8128    1.2952   16.3681 O   0  0  0  0  0  0  0  0  0  0  0  0
   -2.7943    3.4847   15.1948 C   0  0  1  0  0  0  0  0  0  0  0  0
   -4.0543    3.0610   14.6474 O   0  0  0  0  0  0  0  0  0  0  0  0
   -2.9573    4.8982   15.7552 C   0  0  2  0  0  0  0  0  0  0  0  0
   -1.6598    5.5838   15.5848 N   0  0  0  0  0  0  0  0  0  0  0  0
   -0.9944    6.3125   16.5026 C   0  0  0  0  0  0  0  0  0  0  0  0
    0.1834    6.7817   15.9966 N   0  0  0  0  0  0  0  0  0  0  0  0
    0.2789    6.3189   14.7364 C   0  0  0  0  0  0  0  0  0  0  0  0
    1.2599    6.4141   13.6259 C   0  0  0  0  0  0  0  0  0  0  0  0
    2.4116    7.1222   13.7656 N   0  0  0  0  0  0  0  0  0  0  0  0
    0.9584    5.7750   12.4707 N   0  0  0  0  0  0  0  0  0  0  0  0
   -0.1749    5.0669   12.3080 C   0  0  0  0  0  0  0  0  0  0  0  0
   -1.1027    4.9328   13.2769 N   0  0  0  0  0  0  0  0  0  0  0  0
   -0.9354    5.5308   14.4757 C   0  0  0  0  0  0  0  0  0  0  0  0
   -1.8652   -0.3226   18.6576 H   0  0  0  0  0  0  0  0  0  0  0  0
   -0.9548   -1.6808   17.9728 H   0  0  0  0  0  0  0  0  0  0  0  0
   -0.0455   -0.6785   20.0839 H   0  0  0  0  0  0  0  0  0  0  0  0
    0.4057    1.8478   18.3994 H   0  0  0  0  0  0  0  0  0  0  0  0
    2.5674    2.1462   19.5926 H   0  0  0  0  0  0  0  0  0  0  0  0
    2.0140    1.5051   21.6852 H   0  0  0  0  0  0  0  0  0  0  0  0
    3.3646   -0.4389   19.4661 H   0  0  0  0  0  0  0  0  0  0  0  0
    3.4754    2.5880   17.8483 H   0  0  0  0  0  0  0  0  0  0  0  0
    4.5138   -0.0297   12.1695 H   0  0  0  0  0  0  0  0  0  0  0  0
    4.5671    1.4656   13.1410 H   0  0  0  0  0  0  0  0  0  0  0  0
    2.9391   -3.3138   15.0643 H   0  0  0  0  0  0  0  0  0  0  0  0
   -2.7783    2.0653   19.1418 H   0  0  0  0  0  0  0  0  0  0  0  0
   -3.3564    3.6950   19.6343 H   0  0  0  0  0  0  0  0  0  0  0  0
   -4.2878    3.0045   17.5282 H   0  0  0  0  0  0  0  0  0  0  0  0
   -1.3583    2.6362   16.5920 H   0  0  0  0  0  0  0  0  0  0  0  0
   -2.0428    3.3892   14.3972 H   0  0  0  0  0  0  0  0  0  0  0  0
   -4.6804    2.8504   15.3849 H   0  0  0  0  0  0  0  0  0  0  0  0
   -3.7747    5.4426   15.2599 H   0  0  0  0  0  0  0  0  0  0  0  0
   -1.3531    6.5039   17.5247 H   0  0  0  0  0  0  0  0  0  0  0  0
    3.0804    7.1771   12.9842 H   0  0  0  0  0  0  0  0  0  0  0  0
    2.6156    7.6039   14.6529 H   0  0  0  0  0  0  0  0  0  0  0  0
   -0.3520    4.5751   11.3402 H   0  0  0  0  0  0  0  0  0  0  0  0
  1  2  2  0
  1  3  1  6
  1  4  1  0
  1 31  1  0
  4  5  1  0
  6  5  1  0
  6  7  1  0
  6  8  1  0
  7 12  1  0
  8  9  1  0
  8 10  1  0
  9 23  1  0
 10 11  1  0
 10 12  1  0
 12 13  1  0
 13 14  1  0
 13 22  1  0
 14 15  2  0
 15 16  1  0
 16 17  2  0
 16 22  1  0
 17 18  1  0
 17 19  1  0
 19 20  2  0
 20 21  1  0
 21 22  2  0
 23 24  2  0
 23 25  1  1
 23 26  1  0
 26 27  1  0
 28 27  1  0
 28 29  1  0
 28 30  1  0
 29 34  1  0
 30 31  1  0
 30 32  1  0
 32 33  1  0
 32 34  1  0
 34 35  1  0
 35 36  1  0
 35 44  1  0
 36 37  2  0
 37 38  1  0
 38 39  2  0
 38 44  1  0
 39 40  1  0
 39 41  1  0
 41 42  2  0
 42 43  1  0
 43 44  2  0
  5 45  1  0
  5 46  1  0
  6 47  1  1
  8 48  1  6
 10 49  1  1
 11 50  1  0
 12 51  1  1
 14 52  1  0
 18 53  1  0
 18 54  1  0
 20 55  1  0
 27 56  1  0
 27 57  1  0
 28 58  1  1
 30 59  1  1
 32 60  1  6
 33 61  1  0
 34 62  1  6
 36 63  1  0
 40 64  1  0
 40 65  1  0
 42 66  1  0
M  CHG  2   3  -1  25  -1
M  END
>  <filename_input>  (17) 
6YJA_2BA_docked.sdf

>  <pdb_id>  (17) 
6YJA_2BA

>  <pose_rank>  (17) 
16

>  <num_atoms_heavy>  (17) 
44

>  <num_torsions>  (17) 
2

>  <pose>  (17) 
[-1.8126854506597592, 0.16855421184745845, 15.827078613307815, -1.2711340737591483, -0.42074306102303943, -0.7182803057970281, 1.8579868289495103, -0.5984827860481182]

>  <energy>  (17) 
-463.14932566047145

>  <inter_energy>  (17) 
-496.31953754795836

>  <intra_energy>  (17) 
34.701790760108295

>  <rmsd>  (17) 
6.01528

>  <sdf_rank>  (17) 
0

$$$$

     RDKit          3D

 66 72  0  0  0  0  0  0  0  0999 V2000
    0.1652    3.3071   16.6887 P   0  0  2  0  0  0  0  0  0  0  0  0
   -1.1761    3.7007   17.2750 O   0  0  0  0  0  0  0  0  0  0  0  0
    1.4315    3.2965   17.4936 O   0  0  0  0  0  0  0  0  0  0  0  0
    0.4267    4.0727   15.2931 O   0  0  0  0  0  0  0  0  0  0  0  0
   -0.6457    4.5140   14.4853 C   0  0  0  0  0  0  0  0  0  0  0  0
   -0.0171    5.0533   13.1983 C   0  0  1  0  0  0  0  0  0  0  0  0
    0.7155    6.2307   13.5154 O   0  0  0  0  0  0  0  0  0  0  0  0
    1.0219    4.1606   12.5307 C   0  0  1  0  0  0  0  0  0  0  0  0
    0.3484    3.2351   11.7037 O   0  0  0  0  0  0  0  0  0  0  0  0
    1.8363    5.1646   11.7225 C   0  0  1  0  0  0  0  0  0  0  0  0
    1.0236    5.5493   10.5917 O   0  0  0  0  0  0  0  0  0  0  0  0
    1.8445    6.3634   12.6440 C   0  0  2  0  0  0  0  0  0  0  0  0
    2.9934    6.3776   13.5650 N   0  0  0  0  0  0  0  0  0  0  0  0
    3.6866    5.3202   14.0441 C   0  0  0  0  0  0  0  0  0  0  0  0
    4.6633    5.7287   14.8996 N   0  0  0  0  0  0  0  0  0  0  0  0
    4.5618    7.0748   14.9840 C   0  0  0  0  0  0  0  0  0  0  0  0
    5.2614    8.1381   15.7022 C   0  0  0  0  0  0  0  0  0  0  0  0
    6.2836    7.8308   16.5587 N   0  0  0  0  0  0  0  0  0  0  0  0
    4.8146    9.4034   15.4937 N   0  0  0  0  0  0  0  0  0  0  0  0
    3.8132    9.7157   14.6634 C   0  0  0  0  0  0  0  0  0  0  0  0
    3.1261    8.7890   13.9770 N   0  0  0  0  0  0  0  0  0  0  0  0
    3.4618    7.4915   14.1095 C   0  0  0  0  0  0  0  0  0  0  0  0
    1.0281    1.8484   11.2886 P   0  0  2  0  0  0  0  0  0  0  0  0
    2.4009    2.1793   10.7596 O   0  0  0  0  0  0  0  0  0  0  0  0
    0.0258    1.0614   10.4763 O   0  0  0  0  0  0  0  0  0  0  0  0
    1.2272    1.0837   12.6902 O   0  0  0  0  0  0  0  0  0  0  0  0
    0.0720    0.5187   13.3059 C   0  0  0  0  0  0  0  0  0  0  0  0
    0.4385   -0.0295   14.6827 C   0  0  1  0  0  0  0  0  0  0  0  0
    1.4690   -1.0161   14.5903 O   0  0  0  0  0  0  0  0  0  0  0  0
    1.0008    1.0255   15.6215 C   0  0  1  0  0  0  0  0  0  0  0  0
   -0.0589    1.8081   16.1740 O   0  0  0  0  0  0  0  0  0  0  0  0
    1.7555    0.1723   16.6250 C   0  0  1  0  0  0  0  0  0  0  0  0
    0.8602   -0.3588   17.6163 O   0  0  0  0  0  0  0  0  0  0  0  0
    2.2700   -0.9825   15.7644 C   0  0  2  0  0  0  0  0  0  0  0  0
    3.6419   -0.6312   15.3438 N   0  0  0  0  0  0  0  0  0  0  0  0
    4.5148    0.1673   15.9893 C   0  0  0  0  0  0  0  0  0  0  0  0
    5.6973    0.2500   15.3123 N   0  0  0  0  0  0  0  0  0  0  0  0
    5.5802   -0.5344   14.2249 C   0  0  0  0  0  0  0  0  0  0  0  0
    6.4427   -0.9244   13.0809 C   0  0  0  0  0  0  0  0  0  0  0  0
    7.7078   -0.4427   12.9594 N   0  0  0  0  0  0  0  0  0  0  0  0
    5.9172   -1.7708   12.1636 N   0  0  0  0  0  0  0  0  0  0  0  0
    4.6677   -2.2621   12.2621 C   0  0  0  0  0  0  0  0  0  0  0  0
    3.8361   -1.9560   13.2780 N   0  0  0  0  0  0  0  0  0  0  0  0
    4.2275   -1.1110   14.2555 C   0  0  0  0  0  0  0  0  0  0  0  0
   -1.3214    3.6764   14.2578 H   0  0  0  0  0  0  0  0  0  0  0  0
   -1.2402    5.2863   14.9953 H   0  0  0  0  0  0  0  0  0  0  0  0
   -0.8726    5.1735   12.5173 H   0  0  0  0  0  0  0  0  0  0  0  0
    1.6500    3.5682   13.2123 H   0  0  0  0  0  0  0  0  0  0  0  0
    2.8235    4.8023   11.3997 H   0  0  0  0  0  0  0  0  0  0  0  0
    0.1776    5.9496   10.9144 H   0  0  0  0  0  0  0  0  0  0  0  0
    1.8582    7.2590   12.0055 H   0  0  0  0  0  0  0  0  0  0  0  0
    3.4880    4.2714   13.7784 H   0  0  0  0  0  0  0  0  0  0  0  0
    6.7755    8.5815   17.0640 H   0  0  0  0  0  0  0  0  0  0  0  0
    6.5611    6.8487   16.6980 H   0  0  0  0  0  0  0  0  0  0  0  0
    3.5419   10.7744   14.5381 H   0  0  0  0  0  0  0  0  0  0  0  0
   -0.7004    1.2943   13.4150 H   0  0  0  0  0  0  0  0  0  0  0  0
   -0.3118   -0.2993   12.6786 H   0  0  0  0  0  0  0  0  0  0  0  0
   -0.5080   -0.4335   15.0710 H   0  0  0  0  0  0  0  0  0  0  0  0
    1.6560    1.7806   15.1628 H   0  0  0  0  0  0  0  0  0  0  0  0
    2.5373    0.7336   17.1578 H   0  0  0  0  0  0  0  0  0  0  0  0
    1.2082   -0.1523   18.5198 H   0  0  0  0  0  0  0  0  0  0  0  0
    2.2415   -1.9397   16.3056 H   0  0  0  0  0  0  0  0  0  0  0  0
    4.3023    0.6843   16.9368 H   0  0  0  0  0  0  0  0  0  0  0  0
    8.2915   -0.7244   12.1589 H   0  0  0  0  0  0  0  0  0  0  0  0
    8.0829    0.2041   13.6679 H   0  0  0  0  0  0  0  0  0  0  0  0
    4.3089   -2.9446   11.4776 H   0  0  0  0  0  0  0  0  0  0  0  0
  1  2  2  0
  1  3  1  1
  1  4  1  0
  1 31  1  0
  4  5  1  0
  6  5  1  0
  6  7  1  0
  6  8  1  0
  7 12  1  0
  8  9  1  0
  8 10  1  0
  9 23  1  0
 10 11  1  0
 10 12  1  0
 12 13  1  0
 13 14  1  0
 13 22  1  0
 14 15  2  0
 15 16  1  0
 16 17  2  0
 16 22  1  0
 17 18  1  0
 17 19  1  0
 19 20  2  0
 20 21  1  0
 21 22  2  0
 23 24  2  0
 23 25  1  6
 23 26  1  0
 26 27  1  0
 28 27  1  0
 28 29  1  0
 28 30  1  0
 29 34  1  0
 30 31  1  0
 30 32  1  0
 32 33  1  0
 32 34  1  0
 34 35  1  0
 35 36  1  0
 35 44  1  0
 36 37  2  0
 37 38  1  0
 38 39  2  0
 38 44  1  0
 39 40  1  0
 39 41  1  0
 41 42  2  0
 42 43  1  0
 43 44  2  0
  5 45  1  0
  5 46  1  0
  6 47  1  6
  8 48  1  1
 10 49  1  6
 11 50  1  0
 12 51  1  6
 14 52  1  0
 18 53  1  0
 18 54  1  0
 20 55  1  0
 27 56  1  0
 27 57  1  0
 28 58  1  1
 30 59  1  6
 32 60  1  1
 33 61  1  0
 34 62  1  1
 36 63  1  0
 40 64  1  0
 40 65  1  0
 42 66  1  0
M  CHG  2   3  -1  25  -1
M  END
>  <filename_input>  (18) 
6YJA_2BA_docked.sdf

>  <pdb_id>  (18) 
6YJA_2BA

>  <pose_rank>  (18) 
17

>  <num_atoms_heavy>  (18) 
44

>  <num_torsions>  (18) 
2

>  <pose>  (18) 
[0.1651981748908336, 3.3071115553225137, 16.6886708863149, -2.617094975225733, -3.1618682613158056, 0.40875496003472783, 1.0331723425755355, -4.085308109234334]

>  <energy>  (18) 
-498.55822809203863

>  <inter_energy>  (18) 
-520.361562193334

>  <intra_energy>  (18) 
21.123037520858404

>  <rmsd>  (18) 
6.18073

>  <sdf_rank>  (18) 
0

$$$$

     RDKit          3D

 66 72  0  0  0  0  0  0  0  0999 V2000
   -2.5655   -2.8635   19.7078 P   0  0  2  0  0  0  0  0  0  0  0  0
   -2.2292   -4.3086   19.3979 O   0  0  0  0  0  0  0  0  0  0  0  0
   -3.8458   -2.2157   19.2689 O   0  0  0  0  0  0  0  0  0  0  0  0
   -1.3265   -1.8967   19.3439 O   0  0  0  0  0  0  0  0  0  0  0  0
    0.0033   -2.3752   19.3446 C   0  0  0  0  0  0  0  0  0  0  0  0
    0.8959   -1.1563   19.0997 C   0  0  1  0  0  0  0  0  0  0  0  0
    0.6703   -0.6937   17.7735 O   0  0  0  0  0  0  0  0  0  0  0  0
    0.6086    0.0716   19.9551 C   0  0  1  0  0  0  0  0  0  0  0  0
    1.2958   -0.0688   21.1807 O   0  0  0  0  0  0  0  0  0  0  0  0
    1.1818    1.1982   19.1025 C   0  0  1  0  0  0  0  0  0  0  0  0
    2.6202    1.1106   19.2052 O   0  0  0  0  0  0  0  0  0  0  0  0
    0.8443    0.7264   17.7061 C   0  0  2  0  0  0  0  0  0  0  0  0
   -0.4615    1.2133   17.2305 N   0  0  0  0  0  0  0  0  0  0  0  0
   -1.6752    1.0204   17.7944 C   0  0  0  0  0  0  0  0  0  0  0  0
   -2.6546    1.5966   17.0450 N   0  0  0  0  0  0  0  0  0  0  0  0
   -2.0444    2.1392   15.9668 C   0  0  0  0  0  0  0  0  0  0  0  0
   -2.4695    2.8823   14.7824 C   0  0  0  0  0  0  0  0  0  0  0  0
   -3.7969    3.1437   14.5756 N   0  0  0  0  0  0  0  0  0  0  0  0
   -1.4907    3.2482   13.9151 N   0  0  0  0  0  0  0  0  0  0  0  0
   -0.1909    2.9938   14.1035 C   0  0  0  0  0  0  0  0  0  0  0  0
    0.2670    2.3131   15.1661 N   0  0  0  0  0  0  0  0  0  0  0  0
   -0.6074    1.8795   16.0941 C   0  0  0  0  0  0  0  0  0  0  0  0
    0.8216    0.7169   22.4903 P   0  0  2  0  0  0  0  0  0  0  0  0
    0.6666    2.1641   22.0957 O   0  0  0  0  0  0  0  0  0  0  0  0
    1.7082    0.2908   23.6376 O   0  0  0  0  0  0  0  0  0  0  0  0
   -0.6527    0.1377   22.7727 O   0  0  0  0  0  0  0  0  0  0  0  0
   -0.7544   -1.1727   23.3256 C   0  0  0  0  0  0  0  0  0  0  0  0
   -2.2203   -1.5950   23.3825 C   0  0  1  0  0  0  0  0  0  0  0  0
   -2.9936   -0.6796   24.1621 O   0  0  0  0  0  0  0  0  0  0  0  0
   -2.8974   -1.6071   22.0218 C   0  0  1  0  0  0  0  0  0  0  0  0
   -2.5450   -2.7925   21.3068 O   0  0  0  0  0  0  0  0  0  0  0  0
   -4.3622   -1.5049   22.4071 C   0  0  1  0  0  0  0  0  0  0  0  0
   -4.8825   -2.7934   22.7753 O   0  0  0  0  0  0  0  0  0  0  0  0
   -4.3205   -0.6217   23.6549 C   0  0  2  0  0  0  0  0  0  0  0  0
   -4.5547    0.7675   23.2101 N   0  0  0  0  0  0  0  0  0  0  0  0
   -3.8413    1.4665   22.3052 C   0  0  0  0  0  0  0  0  0  0  0  0
   -4.3595    2.7175   22.1324 N   0  0  0  0  0  0  0  0  0  0  0  0
   -5.4416    2.8052   22.9279 C   0  0  0  0  0  0  0  0  0  0  0  0
   -6.4694    3.8308   23.2383 C   0  0  0  0  0  0  0  0  0  0  0  0
   -6.4425    5.0534   22.6450 N   0  0  0  0  0  0  0  0  0  0  0  0
   -7.4269    3.5022   24.1378 N   0  0  0  0  0  0  0  0  0  0  0  0
   -7.4755    2.2982   24.7380 C   0  0  0  0  0  0  0  0  0  0  0  0
   -6.5800    1.3200   24.4958 N   0  0  0  0  0  0  0  0  0  0  0  0
   -5.5633    1.5184   23.6300 C   0  0  0  0  0  0  0  0  0  0  0  0
    0.2428   -2.8343   20.3151 H   0  0  0  0  0  0  0  0  0  0  0  0
    0.1532   -3.1436   18.5719 H   0  0  0  0  0  0  0  0  0  0  0  0
    1.9082   -1.5204   19.3292 H   0  0  0  0  0  0  0  0  0  0  0  0
   -0.4484    0.2390   20.2091 H   0  0  0  0  0  0  0  0  0  0  0  0
    0.8232    2.2038   19.3677 H   0  0  0  0  0  0  0  0  0  0  0  0
    2.8826    1.0946   20.1596 H   0  0  0  0  0  0  0  0  0  0  0  0
    1.6470    1.0830   17.0440 H   0  0  0  0  0  0  0  0  0  0  0  0
   -1.8477    0.4719   18.7321 H   0  0  0  0  0  0  0  0  0  0  0  0
   -4.0946    3.6676   13.7402 H   0  0  0  0  0  0  0  0  0  0  0  0
   -4.4982    2.8166   15.2554 H   0  0  0  0  0  0  0  0  0  0  0  0
    0.5317    3.3570   13.3578 H   0  0  0  0  0  0  0  0  0  0  0  0
   -0.1944   -1.8796   22.6958 H   0  0  0  0  0  0  0  0  0  0  0  0
   -0.3357   -1.1723   24.3428 H   0  0  0  0  0  0  0  0  0  0  0  0
   -2.1911   -2.6067   23.8135 H   0  0  0  0  0  0  0  0  0  0  0  0
   -2.6067   -0.8026   21.3303 H   0  0  0  0  0  0  0  0  0  0  0  0
   -4.9910   -1.1196   21.5909 H   0  0  0  0  0  0  0  0  0  0  0  0
   -4.9124   -2.8676   23.7620 H   0  0  0  0  0  0  0  0  0  0  0  0
   -5.0588   -0.9398   24.4057 H   0  0  0  0  0  0  0  0  0  0  0  0
   -2.9580    1.0799   21.7757 H   0  0  0  0  0  0  0  0  0  0  0  0
   -7.1640    5.7523   22.8728 H   0  0  0  0  0  0  0  0  0  0  0  0
   -5.7007    5.2810   21.9677 H   0  0  0  0  0  0  0  0  0  0  0  0
   -8.2830    2.1036   25.4592 H   0  0  0  0  0  0  0  0  0  0  0  0
  1  2  2  0
  1  3  1  6
  1  4  1  0
  1 31  1  0
  4  5  1  0
  6  5  1  0
  6  7  1  0
  6  8  1  0
  7 12  1  0
  8  9  1  0
  8 10  1  0
  9 23  1  0
 10 11  1  0
 10 12  1  0
 12 13  1  0
 13 14  1  0
 13 22  1  0
 14 15  2  0
 15 16  1  0
 16 17  2  0
 16 22  1  0
 17 18  1  0
 17 19  1  0
 19 20  2  0
 20 21  1  0
 21 22  2  0
 23 24  2  0
 23 25  1  1
 23 26  1  0
 26 27  1  0
 28 27  1  0
 28 29  1  0
 28 30  1  0
 29 34  1  0
 30 31  1  0
 30 32  1  0
 32 33  1  0
 32 34  1  0
 34 35  1  0
 35 36  1  0
 35 44  1  0
 36 37  2  0
 37 38  1  0
 38 39  2  0
 38 44  1  0
 39 40  1  0
 39 41  1  0
 41 42  2  0
 42 43  1  0
 43 44  2  0
  5 45  1  0
  5 46  1  0
  6 47  1  6
  8 48  1  1
 10 49  1  1
 11 50  1  0
 12 51  1  6
 14 52  1  0
 18 53  1  0
 18 54  1  0
 20 55  1  0
 27 56  1  0
 27 57  1  0
 28 58  1  1
 30 59  1  6
 32 60  1  6
 33 61  1  0
 34 62  1  1
 36 63  1  0
 40 64  1  0
 40 65  1  0
 42 66  1  0
M  CHG  2   3  -1  25  -1
M  END
>  <filename_input>  (19) 
6YJA_2BA_docked.sdf

>  <pdb_id>  (19) 
6YJA_2BA

>  <pose_rank>  (19) 
18

>  <num_atoms_heavy>  (19) 
44

>  <num_torsions>  (19) 
2

>  <pose>  (19) 
[-2.5654606055021225, -2.8634524968241495, 19.707840952285228, -0.8192091127758917, 0.23108169467009654, 0.6622590303156929, 0.49921022144127575, 0.7245469575449056]

>  <energy>  (19) 
-337.7282324352263

>  <inter_energy>  (19) 
-357.490442126295

>  <intra_energy>  (19) 
22.472871730719636

>  <rmsd>  (19) 
7.91801

>  <sdf_rank>  (19) 
0

$$$$

     RDKit          3D

 66 72  0  0  0  0  0  0  0  0999 V2000
    0.8713    3.6254   17.5049 P   0  0  2  0  0  0  0  0  0  0  0  0
   -0.1347    4.2553   18.4477 O   0  0  0  0  0  0  0  0  0  0  0  0
    2.3118    3.4218   17.8725 O   0  0  0  0  0  0  0  0  0  0  0  0
    0.7843    4.2991   16.0418 O   0  0  0  0  0  0  0  0  0  0  0  0
   -0.4104    4.8941   15.5770 C   0  0  0  0  0  0  0  0  0  0  0  0
   -0.1538    5.2856   14.1199 C   0  0  1  0  0  0  0  0  0  0  0  0
    0.8117    6.3301   14.0988 O   0  0  0  0  0  0  0  0  0  0  0  0
    0.4676    4.2129   13.2337 C   0  0  1  0  0  0  0  0  0  0  0  0
   -0.5680    3.3934   12.7338 O   0  0  0  0  0  0  0  0  0  0  0  0
    1.1222    5.0433   12.1353 C   0  0  1  0  0  0  0  0  0  0  0  0
    0.0580    5.5303   11.2882 O   0  0  0  0  0  0  0  0  0  0  0  0
    1.6077    6.2471   12.9109 C   0  0  2  0  0  0  0  0  0  0  0  0
    2.9795    6.0909   13.4231 N   0  0  0  0  0  0  0  0  0  0  0  0
    3.8366    7.0620   13.8108 C   0  0  0  0  0  0  0  0  0  0  0  0
    5.0296    6.5303   14.1944 N   0  0  0  0  0  0  0  0  0  0  0  0
    4.9302    5.1936   14.0142 C   0  0  0  0  0  0  0  0  0  0  0  0
    5.8061    4.0396   14.2061 C   0  0  0  0  0  0  0  0  0  0  0  0
    7.0870    4.2170   14.6546 N   0  0  0  0  0  0  0  0  0  0  0  0
    5.2875    2.8269   13.8831 N   0  0  0  0  0  0  0  0  0  0  0  0
    4.0393    2.6415   13.4388 C   0  0  0  0  0  0  0  0  0  0  0  0
    3.1847    3.6567   13.2361 N   0  0  0  0  0  0  0  0  0  0  0  0
    3.5846    4.9145   13.5041 C   0  0  0  0  0  0  0  0  0  0  0  0
   -0.2764    1.9014   12.2376 P   0  0  2  0  0  0  0  0  0  0  0  0
    0.8875    1.9815   11.2822 O   0  0  0  0  0  0  0  0  0  0  0  0
   -1.5937    1.2742   11.8433 O   0  0  0  0  0  0  0  0  0  0  0  0
    0.2432    1.1509   13.5626 O   0  0  0  0  0  0  0  0  0  0  0  0
   -0.7250    0.8057   14.5506 C   0  0  0  0  0  0  0  0  0  0  0  0
   -0.0239    0.2395   15.7828 C   0  0  1  0  0  0  0  0  0  0  0  0
    0.7599   -0.9093   15.4513 O   0  0  0  0  0  0  0  0  0  0  0  0
    0.9633    1.2083   16.4131 C   0  0  1  0  0  0  0  0  0  0  0  0
    0.2689    2.1729   17.2055 O   0  0  0  0  0  0  0  0  0  0  0  0
    1.8612    0.2663   17.1946 C   0  0  1  0  0  0  0  0  0  0  0  0
    1.2615   -0.0798   18.4545 O   0  0  0  0  0  0  0  0  0  0  0  0
    1.8905   -0.9809   16.3102 C   0  0  2  0  0  0  0  0  0  0  0  0
    3.0915   -0.8778   15.4560 N   0  0  0  0  0  0  0  0  0  0  0  0
    3.7587    0.2430   15.1169 C   0  0  0  0  0  0  0  0  0  0  0  0
    4.8331   -0.0460   14.3259 N   0  0  0  0  0  0  0  0  0  0  0  0
    4.8623   -1.3837   14.1806 C   0  0  0  0  0  0  0  0  0  0  0  0
    5.7257   -2.3727   13.4869 C   0  0  0  0  0  0  0  0  0  0  0  0
    6.8076   -1.9762   12.7659 N   0  0  0  0  0  0  0  0  0  0  0  0
    5.3889   -3.6798   13.5959 N   0  0  0  0  0  0  0  0  0  0  0  0
    4.3233   -4.0974   14.3045 C   0  0  0  0  0  0  0  0  0  0  0  0
    3.5039   -3.2545   14.9645 N   0  0  0  0  0  0  0  0  0  0  0  0
    3.7158   -1.9217   14.9286 C   0  0  0  0  0  0  0  0  0  0  0  0
   -1.2424    4.1772   15.6384 H   0  0  0  0  0  0  0  0  0  0  0  0
   -0.6852    5.7689   16.1847 H   0  0  0  0  0  0  0  0  0  0  0  0
   -1.1538    5.5310   13.7327 H   0  0  0  0  0  0  0  0  0  0  0  0
    1.1835    3.5409   13.7295 H   0  0  0  0  0  0  0  0  0  0  0  0
    1.8865    4.5110   11.5500 H   0  0  0  0  0  0  0  0  0  0  0  0
   -0.6827    5.8692   11.8508 H   0  0  0  0  0  0  0  0  0  0  0  0
    1.5517    7.1106   12.2317 H   0  0  0  0  0  0  0  0  0  0  0  0
    3.6016    8.1366   13.8157 H   0  0  0  0  0  0  0  0  0  0  0  0
    7.7029    3.4025   14.7894 H   0  0  0  0  0  0  0  0  0  0  0  0
    7.4350    5.1649   14.8575 H   0  0  0  0  0  0  0  0  0  0  0  0
    3.6996    1.6160   13.2313 H   0  0  0  0  0  0  0  0  0  0  0  0
   -1.2942    1.7032   14.8341 H   0  0  0  0  0  0  0  0  0  0  0  0
   -1.4094    0.0482   14.1408 H   0  0  0  0  0  0  0  0  0  0  0  0
   -0.8456    0.0116   16.4777 H   0  0  0  0  0  0  0  0  0  0  0  0
    1.5434    1.8295   15.7149 H   0  0  0  0  0  0  0  0  0  0  0  0
    2.8483    0.7010   17.4109 H   0  0  0  0  0  0  0  0  0  0  0  0
    1.8324    0.2497   19.1933 H   0  0  0  0  0  0  0  0  0  0  0  0
    1.8921   -1.9052   16.9067 H   0  0  0  0  0  0  0  0  0  0  0  0
    3.4749    1.2569   15.4355 H   0  0  0  0  0  0  0  0  0  0  0  0
    7.3951   -2.6767   12.2915 H   0  0  0  0  0  0  0  0  0  0  0  0
    7.0400   -0.9754   12.6940 H   0  0  0  0  0  0  0  0  0  0  0  0
    4.1113   -5.1760   14.3471 H   0  0  0  0  0  0  0  0  0  0  0  0
  1  2  2  0
  1  3  1  1
  1  4  1  0
  1 31  1  0
  4  5  1  0
  6  5  1  0
  6  7  1  0
  6  8  1  0
  7 12  1  0
  8  9  1  0
  8 10  1  0
  9 23  1  0
 10 11  1  0
 10 12  1  0
 12 13  1  0
 13 14  1  0
 13 22  1  0
 14 15  2  0
 15 16  1  0
 16 17  2  0
 16 22  1  0
 17 18  1  0
 17 19  1  0
 19 20  2  0
 20 21  1  0
 21 22  2  0
 23 24  2  0
 23 25  1  6
 23 26  1  0
 26 27  1  0
 28 27  1  0
 28 29  1  0
 28 30  1  0
 29 34  1  0
 30 31  1  0
 30 32  1  0
 32 33  1  0
 32 34  1  0
 34 35  1  0
 35 36  1  0
 35 44  1  0
 36 37  2  0
 37 38  1  0
 38 39  2  0
 38 44  1  0
 39 40  1  0
 39 41  1  0
 41 42  2  0
 42 43  1  0
 43 44  2  0
  5 45  1  0
  5 46  1  0
  6 47  1  6
  8 48  1  1
 10 49  1  6
 11 50  1  0
 12 51  1  6
 14 52  1  0
 18 53  1  0
 18 54  1  0
 20 55  1  0
 27 56  1  0
 27 57  1  0
 28 58  1  1
 30 59  1  6
 32 60  1  1
 33 61  1  0
 34 62  1  1
 36 63  1  0
 40 64  1  0
 40 65  1  0
 42 66  1  0
M  CHG  2   3  -1  25  -1
M  END
>  <filename_input>  (20) 
6YJA_2BA_docked.sdf

>  <pdb_id>  (20) 
6YJA_2BA

>  <pose_rank>  (20) 
19

>  <num_atoms_heavy>  (20) 
44

>  <num_torsions>  (20) 
2

>  <pose>  (20) 
[0.8712558010701537, 3.6254200701170154, 17.50486464106017, -2.4119263594822264, -2.8869711044238464, 0.969215825334107, -1.9777225356616652, -4.958474567614993]

>  <energy>  (20) 
-535.417509434143

>  <inter_energy>  (20) 
-664.7611098965142

>  <intra_energy>  (20) 
133.78351924726618

>  <rmsd>  (20) 
6.64852

>  <sdf_rank>  (20) 
0

$$$$

     RDKit          3D

 66 72  0  0  0  0  0  0  0  0999 V2000
    1.2824    3.1011   19.3254 P   0  0  2  0  0  0  0  0  0  0  0  0
    0.9365    4.1408   20.3728 O   0  0  0  0  0  0  0  0  0  0  0  0
    2.6937    2.8046   18.9106 O   0  0  0  0  0  0  0  0  0  0  0  0
    0.3679    3.2877   18.0098 O   0  0  0  0  0  0  0  0  0  0  0  0
   -0.9118    3.8831   18.0833 C   0  0  0  0  0  0  0  0  0  0  0  0
   -1.5236    3.7545   16.6862 C   0  0  1  0  0  0  0  0  0  0  0  0
   -0.7832    4.5789   15.7942 O   0  0  0  0  0  0  0  0  0  0  0  0
   -1.4446    2.3764   16.0407 C   0  0  1  0  0  0  0  0  0  0  0  0
   -2.5424    1.6104   16.4903 O   0  0  0  0  0  0  0  0  0  0  0  0
   -1.5483    2.7105   14.5566 C   0  0  1  0  0  0  0  0  0  0  0  0
   -2.9257    3.0648   14.3026 O   0  0  0  0  0  0  0  0  0  0  0  0
   -0.7742    4.0073   14.4809 C   0  0  2  0  0  0  0  0  0  0  0  0
    0.6575    3.8109   14.1981 N   0  0  0  0  0  0  0  0  0  0  0  0
    1.6745    4.6725   14.4253 C   0  0  0  0  0  0  0  0  0  0  0  0
    2.8569    4.1493   13.9996 N   0  0  0  0  0  0  0  0  0  0  0  0
    2.5715    2.9409   13.4635 C   0  0  0  0  0  0  0  0  0  0  0  0
    3.3326    1.8669   12.8286 C   0  0  0  0  0  0  0  0  0  0  0  0
    4.6827    1.9977   12.6457 N   0  0  0  0  0  0  0  0  0  0  0  0
    2.6226    0.7858   12.4150 N   0  0  0  0  0  0  0  0  0  0  0  0
    1.3025    0.6490   12.5832 C   0  0  0  0  0  0  0  0  0  0  0  0
    0.5432    1.5975   13.1539 N   0  0  0  0  0  0  0  0  0  0  0  0
    1.1269    2.7289   13.5936 C   0  0  0  0  0  0  0  0  0  0  0  0
   -2.5016    0.0120   16.4666 P   0  0  2  0  0  0  0  0  0  0  0  0
   -2.0659   -0.3904   15.0801 O   0  0  0  0  0  0  0  0  0  0  0  0
   -3.7846   -0.4974   17.0817 O   0  0  0  0  0  0  0  0  0  0  0  0
   -1.2999   -0.3562   17.4712 O   0  0  0  0  0  0  0  0  0  0  0  0
   -1.5417   -0.2221   18.8699 C   0  0  0  0  0  0  0  0  0  0  0  0
   -0.2494   -0.4745   19.6423 C   0  0  1  0  0  0  0  0  0  0  0  0
    0.2751   -1.7751   19.3645 O   0  0  0  0  0  0  0  0  0  0  0  0
    0.8729    0.4796   19.2677 C   0  0  1  0  0  0  0  0  0  0  0  0
    0.6866    1.7383   19.9171 O   0  0  0  0  0  0  0  0  0  0  0  0
    2.0980   -0.2962   19.7169 C   0  0  1  0  0  0  0  0  0  0  0  0
    2.3130   -0.1342   21.1290 O   0  0  0  0  0  0  0  0  0  0  0  0
    1.6940   -1.7466   19.4489 C   0  0  2  0  0  0  0  0  0  0  0  0
    2.2152   -2.1014   18.1128 N   0  0  0  0  0  0  0  0  0  0  0  0
    3.0574   -1.3801   17.3469 C   0  0  0  0  0  0  0  0  0  0  0  0
    3.3363   -2.0295   16.1789 N   0  0  0  0  0  0  0  0  0  0  0  0
    2.6752   -3.2011   16.2162 C   0  0  0  0  0  0  0  0  0  0  0  0
    2.5249   -4.3813   15.3277 C   0  0  0  0  0  0  0  0  0  0  0  0
    3.1569   -4.4400   14.1258 N   0  0  0  0  0  0  0  0  0  0  0  0
    1.7303   -5.3896   15.7588 N   0  0  0  0  0  0  0  0  0  0  0  0
    1.0945   -5.3554   16.9449 C   0  0  0  0  0  0  0  0  0  0  0  0
    1.1943   -4.3198   17.8022 N   0  0  0  0  0  0  0  0  0  0  0  0
    1.9435   -3.2406   17.4916 C   0  0  0  0  0  0  0  0  0  0  0  0
   -1.5348    3.3578   18.8222 H   0  0  0  0  0  0  0  0  0  0  0  0
   -0.8469    4.9353   18.3971 H   0  0  0  0  0  0  0  0  0  0  0  0
   -2.5813    4.0165   16.8364 H   0  0  0  0  0  0  0  0  0  0  0  0
   -0.5421    1.7920   16.2732 H   0  0  0  0  0  0  0  0  0  0  0  0
   -1.2104    1.9113   13.8806 H   0  0  0  0  0  0  0  0  0  0  0  0
   -3.3992    3.1866   15.1634 H   0  0  0  0  0  0  0  0  0  0  0  0
   -1.2386    4.6125   13.6884 H   0  0  0  0  0  0  0  0  0  0  0  0
    1.5616    5.6625   14.8912 H   0  0  0  0  0  0  0  0  0  0  0  0
    5.2175    1.2397   12.1980 H   0  0  0  0  0  0  0  0  0  0  0  0
    5.1638    2.8540   12.9556 H   0  0  0  0  0  0  0  0  0  0  0  0
    0.8198   -0.2781   12.2402 H   0  0  0  0  0  0  0  0  0  0  0  0
   -1.9021    0.7952   19.0827 H   0  0  0  0  0  0  0  0  0  0  0  0
   -2.3006   -0.9555   19.1802 H   0  0  0  0  0  0  0  0  0  0  0  0
   -0.5373   -0.3446   20.6960 H   0  0  0  0  0  0  0  0  0  0  0  0
    0.9388    0.7544   18.2046 H   0  0  0  0  0  0  0  0  0  0  0  0
    3.0173    0.0277   19.2070 H   0  0  0  0  0  0  0  0  0  0  0  0
    1.6301   -0.6486   21.6280 H   0  0  0  0  0  0  0  0  0  0  0  0
    2.0703   -2.4263   20.2276 H   0  0  0  0  0  0  0  0  0  0  0  0
    3.4661   -0.3977   17.6260 H   0  0  0  0  0  0  0  0  0  0  0  0
    3.0409   -5.2669   13.5228 H   0  0  0  0  0  0  0  0  0  0  0  0
    3.7520   -3.6576   13.8181 H   0  0  0  0  0  0  0  0  0  0  0  0
    0.4647   -6.2119   17.2275 H   0  0  0  0  0  0  0  0  0  0  0  0
  1  2  2  0
  1  3  1  6
  1  4  1  0
  1 31  1  0
  4  5  1  0
  6  5  1  0
  6  7  1  0
  6  8  1  0
  7 12  1  0
  8  9  1  0
  8 10  1  0
  9 23  1  0
 10 11  1  0
 10 12  1  0
 12 13  1  0
 13 14  1  0
 13 22  1  0
 14 15  2  0
 15 16  1  0
 16 17  2  0
 16 22  1  0
 17 18  1  0
 17 19  1  0
 19 20  2  0
 20 21  1  0
 21 22  2  0
 23 24  2  0
 23 25  1  1
 23 26  1  0
 26 27  1  0
 28 27  1  0
 28 29  1  0
 28 30  1  0
 29 34  1  0
 30 31  1  0
 30 32  1  0
 32 33  1  0
 32 34  1  0
 34 35  1  0
 35 36  1  0
 35 44  1  0
 36 37  2  0
 37 38  1  0
 38 39  2  0
 38 44  1  0
 39 40  1  0
 39 41  1  0
 41 42  2  0
 42 43  1  0
 43 44  2  0
  5 45  1  0
  5 46  1  0
  6 47  1  1
  8 48  1  6
 10 49  1  6
 11 50  1  0
 12 51  1  6
 14 52  1  0
 18 53  1  0
 18 54  1  0
 20 55  1  0
 27 56  1  0
 27 57  1  0
 28 58  1  1
 30 59  1  6
 32 60  1  6
 33 61  1  0
 34 62  1  1
 36 63  1  0
 40 64  1  0
 40 65  1  0
 42 66  1  0
M  CHG  2   3  -1  25  -1
M  END
>  <filename_input>  (21) 
6YJA_2BA_docked.sdf

>  <pdb_id>  (21) 
6YJA_2BA

>  <pose_rank>  (21) 
20

>  <num_atoms_heavy>  (21) 
44

>  <num_torsions>  (21) 
2

>  <pose>  (21) 
[1.2823616190012266, 3.1010957838082525, 19.325398328833558, -1.612180025957502, -2.6057375980610895, 1.9253932421029973, -1.2750926919821628, -4.39776498988712]

>  <energy>  (21) 
-494.91971369289

>  <inter_energy>  (21) 
-536.5560518185074

>  <intra_energy>  (21) 
36.73073215055613

>  <rmsd>  (21) 
7.4354

>  <sdf_rank>  (21) 
0

$$$$

     RDKit          3D

 66 72  0  0  0  0  0  0  0  0999 V2000
    0.7987   -0.3754   21.8968 P   0  0  2  0  0  0  0  0  0  0  0  0
    1.7549   -0.6749   23.0343 O   0  0  0  0  0  0  0  0  0  0  0  0
   -0.5422    0.2635   22.1102 O   0  0  0  0  0  0  0  0  0  0  0  0
    0.6304   -1.6609   20.9371 O   0  0  0  0  0  0  0  0  0  0  0  0
    1.6510   -2.6320   20.8244 C   0  0  0  0  0  0  0  0  0  0  0  0
    1.1977   -3.6031   19.7317 C   0  0  1  0  0  0  0  0  0  0  0  0
    0.0612   -4.3149   20.2066 O   0  0  0  0  0  0  0  0  0  0  0  0
    0.7034   -2.9744   18.4346 C   0  0  1  0  0  0  0  0  0  0  0  0
    1.8210   -2.7155   17.6111 O   0  0  0  0  0  0  0  0  0  0  0  0
   -0.1868   -4.0729   17.8641 C   0  0  1  0  0  0  0  0  0  0  0  0
    0.6912   -5.1051   17.3630 O   0  0  0  0  0  0  0  0  0  0  0  0
   -0.8102   -4.6428   19.1183 C   0  0  2  0  0  0  0  0  0  0  0  0
   -2.0793   -3.9903   19.4816 N   0  0  0  0  0  0  0  0  0  0  0  0
   -2.3729   -2.6709   19.4516 C   0  0  0  0  0  0  0  0  0  0  0  0
   -3.6409   -2.4466   19.8929 N   0  0  0  0  0  0  0  0  0  0  0  0
   -4.1466   -3.6526   20.2378 C   0  0  0  0  0  0  0  0  0  0  0  0
   -5.4115   -4.1456   20.7791 C   0  0  0  0  0  0  0  0  0  0  0  0
   -6.4173   -3.2682   21.0815 N   0  0  0  0  0  0  0  0  0  0  0  0
   -5.4986   -5.4847   20.9873 N   0  0  0  0  0  0  0  0  0  0  0  0
   -4.5207   -6.3514   20.7008 C   0  0  0  0  0  0  0  0  0  0  0  0
   -3.3337   -5.9661   20.2062 N   0  0  0  0  0  0  0  0  0  0  0  0
   -3.1148   -4.6585   19.9692 C   0  0  0  0  0  0  0  0  0  0  0  0
    1.7606   -1.6096   16.4576 P   0  0  2  0  0  0  0  0  0  0  0  0
    0.5203   -1.8936   15.6485 O   0  0  0  0  0  0  0  0  0  0  0  0
    3.1287   -1.5229   15.8214 O   0  0  0  0  0  0  0  0  0  0  0  0
    1.5067   -0.2358   17.2559 O   0  0  0  0  0  0  0  0  0  0  0  0
    2.6063    0.3308   17.9649 C   0  0  0  0  0  0  0  0  0  0  0  0
    2.1330    1.5392   18.7687 C   0  0  1  0  0  0  0  0  0  0  0  0
    1.5433    2.5274   17.9204 O   0  0  0  0  0  0  0  0  0  0  0  0
    1.0476    1.2038   19.7786 C   0  0  1  0  0  0  0  0  0  0  0  0
    1.6245    0.6089   20.9421 O   0  0  0  0  0  0  0  0  0  0  0  0
    0.4089    2.5622   20.0051 C   0  0  1  0  0  0  0  0  0  0  0  0
    1.1722    3.3320   20.9493 O   0  0  0  0  0  0  0  0  0  0  0  0
    0.5262    3.2220   18.6305 C   0  0  2  0  0  0  0  0  0  0  0  0
   -0.7455    2.9733   17.9209 N   0  0  0  0  0  0  0  0  0  0  0  0
   -1.9781    2.8892   18.4593 C   0  0  0  0  0  0  0  0  0  0  0  0
   -2.9198    2.6669   17.4964 N   0  0  0  0  0  0  0  0  0  0  0  0
   -2.2722    2.6341   16.3171 C   0  0  0  0  0  0  0  0  0  0  0  0
   -2.6416    2.4515   14.8906 C   0  0  0  0  0  0  0  0  0  0  0  0
   -3.9341    2.2517   14.5203 N   0  0  0  0  0  0  0  0  0  0  0  0
   -1.6417    2.4853   13.9779 N   0  0  0  0  0  0  0  0  0  0  0  0
   -0.3546    2.6825   14.3193 C   0  0  0  0  0  0  0  0  0  0  0  0
    0.0480    2.8634   15.5932 N   0  0  0  0  0  0  0  0  0  0  0  0
   -0.8445    2.8389   16.6058 C   0  0  0  0  0  0  0  0  0  0  0  0
    2.6011   -2.1556   20.5410 H   0  0  0  0  0  0  0  0  0  0  0  0
    1.8165   -3.1522   21.7794 H   0  0  0  0  0  0  0  0  0  0  0  0
    2.0979   -4.1981   19.5178 H   0  0  0  0  0  0  0  0  0  0  0  0
    0.1684   -2.0192   18.5414 H   0  0  0  0  0  0  0  0  0  0  0  0
   -0.8916   -3.7375   17.0891 H   0  0  0  0  0  0  0  0  0  0  0  0
    1.1015   -5.5874   18.1240 H   0  0  0  0  0  0  0  0  0  0  0  0
   -0.9727   -5.7155   18.9370 H   0  0  0  0  0  0  0  0  0  0  0  0
   -1.6805   -1.8848   19.1160 H   0  0  0  0  0  0  0  0  0  0  0  0
   -7.3081   -3.6175   21.4629 H   0  0  0  0  0  0  0  0  0  0  0  0
   -6.2836   -2.2585   20.9277 H   0  0  0  0  0  0  0  0  0  0  0  0
   -4.6963   -7.4228   20.8777 H   0  0  0  0  0  0  0  0  0  0  0  0
    3.0269   -0.4212   18.6487 H   0  0  0  0  0  0  0  0  0  0  0  0
    3.3767    0.6498   17.2474 H   0  0  0  0  0  0  0  0  0  0  0  0
    3.0415    1.8965   19.2756 H   0  0  0  0  0  0  0  0  0  0  0  0
    0.3043    0.4585   19.4594 H   0  0  0  0  0  0  0  0  0  0  0  0
   -0.6169    2.4902   20.3955 H   0  0  0  0  0  0  0  0  0  0  0  0
    0.9158    3.0734   21.8699 H   0  0  0  0  0  0  0  0  0  0  0  0
    0.7456    4.2970   18.7104 H   0  0  0  0  0  0  0  0  0  0  0  0
   -2.1965    2.9868   19.5330 H   0  0  0  0  0  0  0  0  0  0  0  0
   -4.1715    2.1270   13.5258 H   0  0  0  0  0  0  0  0  0  0  0  0
   -4.6761    2.2251   15.2342 H   0  0  0  0  0  0  0  0  0  0  0  0
    0.4035    2.6966   13.5224 H   0  0  0  0  0  0  0  0  0  0  0  0
  1  2  2  0
  1  3  1  1
  1  4  1  0
  1 31  1  0
  4  5  1  0
  6  5  1  0
  6  7  1  0
  6  8  1  0
  7 12  1  0
  8  9  1  0
  8 10  1  0
  9 23  1  0
 10 11  1  0
 10 12  1  0
 12 13  1  0
 13 14  1  0
 13 22  1  0
 14 15  2  0
 15 16  1  0
 16 17  2  0
 16 22  1  0
 17 18  1  0
 17 19  1  0
 19 20  2  0
 20 21  1  0
 21 22  2  0
 23 24  2  0
 23 25  1  6
 23 26  1  0
 26 27  1  0
 28 27  1  0
 28 29  1  0
 28 30  1  0
 29 34  1  0
 30 31  1  0
 30 32  1  0
 32 33  1  0
 32 34  1  0
 34 35  1  0
 35 36  1  0
 35 44  1  0
 36 37  2  0
 37 38  1  0
 38 39  2  0
 38 44  1  0
 39 40  1  0
 39 41  1  0
 41 42  2  0
 42 43  1  0
 43 44  2  0
  5 45  1  0
  5 46  1  0
  6 47  1  6
  8 48  1  1
 10 49  1  6
 11 50  1  0
 12 51  1  6
 14 52  1  0
 18 53  1  0
 18 54  1  0
 20 55  1  0
 27 56  1  0
 27 57  1  0
 28 58  1  1
 30 59  1  6
 32 60  1  1
 33 61  1  0
 34 62  1  1
 36 63  1  0
 40 64  1  0
 40 65  1  0
 42 66  1  0
M  CHG  2   3  -1  25  -1
M  END
>  <filename_input>  (22) 
6YJA_2BA_docked.sdf

>  <pdb_id>  (22) 
6YJA_2BA

>  <pose_rank>  (22) 
21

>  <num_atoms_heavy>  (22) 
44

>  <num_torsions>  (22) 
2

>  <pose>  (22) 
[0.7987248696119114, -0.375416272079573, 21.896842450565774, -1.9762153459103968, 2.159840271537893, 0.5958287123808308, 0.7807363189502946, 2.3095495322980213]

>  <energy>  (22) 
-405.8023775638205

>  <inter_energy>  (22) 
-422.2048017272035

>  <intra_energy>  (22) 
25.069489997688414

>  <rmsd>  (22) 
8.03253

>  <sdf_rank>  (22) 
0

$$$$

     RDKit          3D

 66 72  0  0  0  0  0  0  0  0999 V2000
    0.4909    5.6828   20.9440 P   0  0  2  0  0  0  0  0  0  0  0  0
    0.5904    7.1643   21.2488 O   0  0  0  0  0  0  0  0  0  0  0  0
    1.6880    4.8386   20.6183 O   0  0  0  0  0  0  0  0  0  0  0  0
   -0.6726    5.3975   19.8638 O   0  0  0  0  0  0  0  0  0  0  0  0
   -1.7773    6.2684   19.7270 C   0  0  0  0  0  0  0  0  0  0  0  0
   -2.7244    5.6028   18.7256 C   0  0  1  0  0  0  0  0  0  0  0  0
   -2.0970    5.5984   17.4488 O   0  0  0  0  0  0  0  0  0  0  0  0
   -3.0373    4.1316   18.9699 C   0  0  1  0  0  0  0  0  0  0  0  0
   -4.1043    4.0504   19.8913 O   0  0  0  0  0  0  0  0  0  0  0  0
   -3.4428    3.6544   17.5798 C   0  0  1  0  0  0  0  0  0  0  0  0
   -4.7612    4.1864   17.3226 O   0  0  0  0  0  0  0  0  0  0  0  0
   -2.5048    4.4484   16.6987 C   0  0  2  0  0  0  0  0  0  0  0  0
   -1.2393    3.7484   16.4219 N   0  0  0  0  0  0  0  0  0  0  0  0
   -0.1590    3.6363   17.2273 C   0  0  0  0  0  0  0  0  0  0  0  0
    0.8353    2.9410   16.6102 N   0  0  0  0  0  0  0  0  0  0  0  0
    0.3798    2.6346   15.3742 C   0  0  0  0  0  0  0  0  0  0  0  0
    0.9041    1.9297   14.2062 C   0  0  0  0  0  0  0  0  0  0  0  0
    2.1745    1.4208   14.2245 N   0  0  0  0  0  0  0  0  0  0  0  0
    0.0823    1.8522   13.1280 N   0  0  0  0  0  0  0  0  0  0  0  0
   -1.1590    2.3502   13.0962 C   0  0  0  0  0  0  0  0  0  0  0  0
   -1.7002    3.0120   14.1312 N   0  0  0  0  0  0  0  0  0  0  0  0
   -0.9791    3.1714   15.2575 C   0  0  0  0  0  0  0  0  0  0  0  0
   -4.3387    2.7367   20.7725 P   0  0  2  0  0  0  0  0  0  0  0  0
   -4.3286    1.5677   19.8201 O   0  0  0  0  0  0  0  0  0  0  0  0
   -5.4992    3.0000   21.7041 O   0  0  0  0  0  0  0  0  0  0  0  0
   -3.0072    2.6340   21.6700 O   0  0  0  0  0  0  0  0  0  0  0  0
   -2.8742    3.5396   22.7632 C   0  0  0  0  0  0  0  0  0  0  0  0
   -1.4934    3.3841   23.3955 C   0  0  1  0  0  0  0  0  0  0  0  0
   -1.2781    2.0450   23.8475 O   0  0  0  0  0  0  0  0  0  0  0  0
   -0.3532    3.6496   22.4261 C   0  0  1  0  0  0  0  0  0  0  0  0
   -0.1618    5.0559   22.2643 O   0  0  0  0  0  0  0  0  0  0  0  0
    0.7967    2.9212   23.0981 C   0  0  1  0  0  0  0  0  0  0  0  0
    1.3741    3.7307   24.1364 O   0  0  0  0  0  0  0  0  0  0  0  0
    0.1026    1.7218   23.7448 C   0  0  2  0  0  0  0  0  0  0  0  0
    0.2148    0.5939   22.7971 N   0  0  0  0  0  0  0  0  0  0  0  0
    1.2971    0.2357   22.0786 C   0  0  0  0  0  0  0  0  0  0  0  0
    1.0387   -0.8697   21.3203 N   0  0  0  0  0  0  0  0  0  0  0  0
   -0.2295   -1.2356   21.5832 C   0  0  0  0  0  0  0  0  0  0  0  0
   -1.1510   -2.3151   21.1470 C   0  0  0  0  0  0  0  0  0  0  0  0
   -0.7557   -3.2546   20.2478 N   0  0  0  0  0  0  0  0  0  0  0  0
   -2.3983   -2.3215   21.6743 N   0  0  0  0  0  0  0  0  0  0  0  0
   -2.8131   -1.4030   22.5667 C   0  0  0  0  0  0  0  0  0  0  0  0
   -2.0259   -0.4028   23.0111 N   0  0  0  0  0  0  0  0  0  0  0  0
   -0.7618   -0.2697   22.5564 C   0  0  0  0  0  0  0  0  0  0  0  0
   -2.2799    6.4019   20.6963 H   0  0  0  0  0  0  0  0  0  0  0  0
   -1.4625    7.2637   19.3804 H   0  0  0  0  0  0  0  0  0  0  0  0
   -3.6541    6.1837   18.8158 H   0  0  0  0  0  0  0  0  0  0  0  0
   -2.2164    3.5333   19.3919 H   0  0  0  0  0  0  0  0  0  0  0  0
   -3.4190    2.5632   17.4431 H   0  0  0  0  0  0  0  0  0  0  0  0
   -5.2163    4.3701   18.1824 H   0  0  0  0  0  0  0  0  0  0  0  0
   -3.0406    4.6505   15.7595 H   0  0  0  0  0  0  0  0  0  0  0  0
   -0.0927    4.0510   18.2440 H   0  0  0  0  0  0  0  0  0  0  0  0
    2.5422    0.9243   13.4004 H   0  0  0  0  0  0  0  0  0  0  0  0
    2.7627    1.5344   15.0623 H   0  0  0  0  0  0  0  0  0  0  0  0
   -1.7602    2.2119   12.1855 H   0  0  0  0  0  0  0  0  0  0  0  0
   -2.9962    4.5709   22.4005 H   0  0  0  0  0  0  0  0  0  0  0  0
   -3.6460    3.3186   23.5151 H   0  0  0  0  0  0  0  0  0  0  0  0
   -1.4894    4.1186   24.2142 H   0  0  0  0  0  0  0  0  0  0  0  0
   -0.5039    3.2978   21.3949 H   0  0  0  0  0  0  0  0  0  0  0  0
    1.6045    2.6633   22.3974 H   0  0  0  0  0  0  0  0  0  0  0  0
    1.1152    3.3677   25.0203 H   0  0  0  0  0  0  0  0  0  0  0  0
    0.5384    1.4766   24.7245 H   0  0  0  0  0  0  0  0  0  0  0  0
    2.2616    0.7642   22.1002 H   0  0  0  0  0  0  0  0  0  0  0  0
   -1.4088   -3.9961   19.9570 H   0  0  0  0  0  0  0  0  0  0  0  0
    0.1969   -3.2251   19.8573 H   0  0  0  0  0  0  0  0  0  0  0  0
   -3.8415   -1.4717   22.9510 H   0  0  0  0  0  0  0  0  0  0  0  0
  1  2  2  0
  1  3  1  6
  1  4  1  0
  1 31  1  0
  4  5  1  0
  6  5  1  0
  6  7  1  0
  6  8  1  0
  7 12  1  0
  8  9  1  0
  8 10  1  0
  9 23  1  0
 10 11  1  0
 10 12  1  0
 12 13  1  0
 13 14  1  0
 13 22  1  0
 14 15  2  0
 15 16  1  0
 16 17  2  0
 16 22  1  0
 17 18  1  0
 17 19  1  0
 19 20  2  0
 20 21  1  0
 21 22  2  0
 23 24  2  0
 23 25  1  1
 23 26  1  0
 26 27  1  0
 28 27  1  0
 28 29  1  0
 28 30  1  0
 29 34  1  0
 30 31  1  0
 30 32  1  0
 32 33  1  0
 32 34  1  0
 34 35  1  0
 35 36  1  0
 35 44  1  0
 36 37  2  0
 37 38  1  0
 38 39  2  0
 38 44  1  0
 39 40  1  0
 39 41  1  0
 41 42  2  0
 42 43  1  0
 43 44  2  0
  5 45  1  0
  5 46  1  0
  6 47  1  6
  8 48  1  1
 10 49  1  1
 11 50  1  0
 12 51  1  6
 14 52  1  0
 18 53  1  0
 18 54  1  0
 20 55  1  0
 27 56  1  0
 27 57  1  0
 28 58  1  1
 30 59  1  6
 32 60  1  6
 33 61  1  0
 34 62  1  1
 36 63  1  0
 40 64  1  0
 40 65  1  0
 42 66  1  0
M  CHG  2   3  -1  25  -1
M  END
>  <filename_input>  (23) 
6YJA_2BA_docked.sdf

>  <pdb_id>  (23) 
6YJA_2BA

>  <pose_rank>  (23) 
22

>  <num_atoms_heavy>  (23) 
44

>  <num_torsions>  (23) 
2

>  <pose>  (23) 
[0.4908754818123263, 5.6827635421585745, 20.94396501284442, -1.3804593224758317, -1.7840358631392315, 2.7926334103315895, 0.1346363747848622, -3.8144845646651264]

>  <energy>  (23) 
-344.308789947933

>  <inter_energy>  (23) 
-373.753381310277

>  <intra_energy>  (23) 
30.5840464372464

>  <rmsd>  (23) 
8.55038

>  <sdf_rank>  (23) 
0

$$$$

     RDKit          3D

 66 72  0  0  0  0  0  0  0  0999 V2000
   -0.5168    4.5385   19.4417 P   0  0  2  0  0  0  0  0  0  0  0  0
   -0.3171    5.9426   19.9767 O   0  0  0  0  0  0  0  0  0  0  0  0
    0.2843    3.3645   19.9233 O   0  0  0  0  0  0  0  0  0  0  0  0
   -0.5453    4.5391   17.8289 O   0  0  0  0  0  0  0  0  0  0  0  0
   -0.9438    5.6836   17.1018 C   0  0  0  0  0  0  0  0  0  0  0  0
   -0.9827    5.2630   15.6308 C   0  0  1  0  0  0  0  0  0  0  0  0
    0.3484    4.9990   15.2039 O   0  0  0  0  0  0  0  0  0  0  0  0
   -1.7166    3.9640   15.3209 C   0  0  1  0  0  0  0  0  0  0  0  0
   -3.0916    4.2525   15.1783 O   0  0  0  0  0  0  0  0  0  0  0  0
   -1.0796    3.5421   14.0014 C   0  0  1  0  0  0  0  0  0  0  0  0
   -1.6094    4.4179   12.9819 O   0  0  0  0  0  0  0  0  0  0  0  0
    0.3553    3.9741   14.2033 C   0  0  2  0  0  0  0  0  0  0  0  0
    1.1995    2.9209   14.7918 N   0  0  0  0  0  0  0  0  0  0  0  0
    1.5716    2.7803   16.0840 C   0  0  0  0  0  0  0  0  0  0  0  0
    2.3843    1.6994   16.2394 N   0  0  0  0  0  0  0  0  0  0  0  0
    2.5520    1.1648   15.0084 C   0  0  0  0  0  0  0  0  0  0  0  0
    3.2832    0.0313   14.4460 C   0  0  0  0  0  0  0  0  0  0  0  0
    4.0530   -0.7591   15.2558 N   0  0  0  0  0  0  0  0  0  0  0  0
    3.1767   -0.1509   13.1045 N   0  0  0  0  0  0  0  0  0  0  0  0
    2.4320    0.6180   12.3020 C   0  0  0  0  0  0  0  0  0  0  0  0
    1.7395    1.6763   12.7517 N   0  0  0  0  0  0  0  0  0  0  0  0
    1.7755    1.9743   14.0647 C   0  0  0  0  0  0  0  0  0  0  0  0
   -4.2009    3.1197   15.3862 P   0  0  2  0  0  0  0  0  0  0  0  0
   -3.7832    1.9428   14.5410 O   0  0  0  0  0  0  0  0  0  0  0  0
   -5.5601    3.7649   15.2437 O   0  0  0  0  0  0  0  0  0  0  0  0
   -4.0254    2.6886   16.9264 O   0  0  0  0  0  0  0  0  0  0  0  0
   -4.5174    3.5808   17.9238 C   0  0  0  0  0  0  0  0  0  0  0  0
   -4.1299    3.0690   19.3088 C   0  0  1  0  0  0  0  0  0  0  0  0
   -4.6443    1.7551   19.5386 O   0  0  0  0  0  0  0  0  0  0  0  0
   -2.6285    2.9323   19.5026 C   0  0  1  0  0  0  0  0  0  0  0  0
   -2.0483    4.2097   19.7712 O   0  0  0  0  0  0  0  0  0  0  0  0
   -2.5563    1.9430   20.6517 C   0  0  1  0  0  0  0  0  0  0  0  0
   -2.7466    2.6108   21.9105 O   0  0  0  0  0  0  0  0  0  0  0  0
   -3.7621    1.0387   20.3928 C   0  0  2  0  0  0  0  0  0  0  0  0
   -3.2724   -0.1282   19.6305 N   0  0  0  0  0  0  0  0  0  0  0  0
   -3.3122   -0.3064   18.2953 C   0  0  0  0  0  0  0  0  0  0  0  0
   -2.7515   -1.5002   17.9428 N   0  0  0  0  0  0  0  0  0  0  0  0
   -2.3238   -2.0812   19.0790 C   0  0  0  0  0  0  0  0  0  0  0  0
   -1.6323   -3.3419   19.4493 C   0  0  0  0  0  0  0  0  0  0  0  0
   -1.2753   -4.2505   18.5036 N   0  0  0  0  0  0  0  0  0  0  0  0
   -1.3789   -3.5518   20.7629 N   0  0  0  0  0  0  0  0  0  0  0  0
   -1.7216   -2.6672   21.7180 C   0  0  0  0  0  0  0  0  0  0  0  0
   -2.3429   -1.5011   21.4502 N   0  0  0  0  0  0  0  0  0  0  0  0
   -2.6681   -1.1713   20.1821 C   0  0  0  0  0  0  0  0  0  0  0  0
   -1.9398    6.0160   17.4298 H   0  0  0  0  0  0  0  0  0  0  0  0
   -0.2491    6.5215   17.2609 H   0  0  0  0  0  0  0  0  0  0  0  0
   -1.5045    6.0935   15.1327 H   0  0  0  0  0  0  0  0  0  0  0  0
   -1.6419    3.1794   16.0883 H   0  0  0  0  0  0  0  0  0  0  0  0
   -1.2284    2.4849   13.7363 H   0  0  0  0  0  0  0  0  0  0  0  0
   -2.0713    5.1816   13.4104 H   0  0  0  0  0  0  0  0  0  0  0  0
    0.7444    4.2661   13.2167 H   0  0  0  0  0  0  0  0  0  0  0  0
    1.2596    3.4491   16.8997 H   0  0  0  0  0  0  0  0  0  0  0  0
    4.5677   -1.5575   14.8577 H   0  0  0  0  0  0  0  0  0  0  0  0
    4.1177   -0.5555   16.2634 H   0  0  0  0  0  0  0  0  0  0  0  0
    2.3853    0.3730   11.2306 H   0  0  0  0  0  0  0  0  0  0  0  0
   -4.0825    4.5791   17.7680 H   0  0  0  0  0  0  0  0  0  0  0  0
   -5.6134    3.6398   17.8509 H   0  0  0  0  0  0  0  0  0  0  0  0
   -4.5461    3.8188   19.9977 H   0  0  0  0  0  0  0  0  0  0  0  0
   -2.0591    2.5777   18.6307 H   0  0  0  0  0  0  0  0  0  0  0  0
   -1.5902    1.4194   20.7023 H   0  0  0  0  0  0  0  0  0  0  0  0
   -2.5663    1.9781   22.6503 H   0  0  0  0  0  0  0  0  0  0  0  0
   -4.2553    0.7371   21.3287 H   0  0  0  0  0  0  0  0  0  0  0  0
   -3.7399    0.4148   17.5834 H   0  0  0  0  0  0  0  0  0  0  0  0
   -0.7962   -5.1196   18.7793 H   0  0  0  0  0  0  0  0  0  0  0  0
   -1.4838   -4.0699   17.5112 H   0  0  0  0  0  0  0  0  0  0  0  0
   -1.4838   -2.9068   22.7649 H   0  0  0  0  0  0  0  0  0  0  0  0
  1  2  2  0
  1  3  1  6
  1  4  1  0
  1 31  1  0
  4  5  1  0
  6  5  1  0
  6  7  1  0
  6  8  1  0
  7 12  1  0
  8  9  1  0
  8 10  1  0
  9 23  1  0
 10 11  1  0
 10 12  1  0
 12 13  1  0
 13 14  1  0
 13 22  1  0
 14 15  2  0
 15 16  1  0
 16 17  2  0
 16 22  1  0
 17 18  1  0
 17 19  1  0
 19 20  2  0
 20 21  1  0
 21 22  2  0
 23 24  2  0
 23 25  1  1
 23 26  1  0
 26 27  1  0
 28 27  1  0
 28 29  1  0
 28 30  1  0
 29 34  1  0
 30 31  1  0
 30 32  1  0
 32 33  1  0
 32 34  1  0
 34 35  1  0
 35 36  1  0
 35 44  1  0
 36 37  2  0
 37 38  1  0
 38 39  2  0
 38 44  1  0
 39 40  1  0
 39 41  1  0
 41 42  2  0
 42 43  1  0
 43 44  2  0
  5 45  1  0
  5 46  1  0
  6 47  1  6
  8 48  1  1
 10 49  1  6
 11 50  1  0
 12 51  1  6
 14 52  1  0
 18 53  1  0
 18 54  1  0
 20 55  1  0
 27 56  1  0
 27 57  1  0
 28 58  1  1
 30 59  1  6
 32 60  1  1
 33 61  1  0
 34 62  1  1
 36 63  1  0
 40 64  1  0
 40 65  1  0
 42 66  1  0
M  CHG  2   3  -1  25  -1
M  END
>  <filename_input>  (24) 
6YJA_2BA_docked.sdf

>  <pdb_id>  (24) 
6YJA_2BA

>  <pose_rank>  (24) 
23

>  <num_atoms_heavy>  (24) 
44

>  <num_torsions>  (24) 
2

>  <pose>  (24) 
[-0.5167663323051385, 4.538452836978475, 19.441708320078916, -2.7546353340832828, -1.22196928353935, 2.1286271679994897, -0.2172191979325387, -6.25103432689502]

>  <energy>  (24) 
-420.97424448228367

>  <inter_energy>  (24) 
-431.51668075188127

>  <intra_energy>  (24) 
12.210656817204455

>  <rmsd>  (24) 
7.28872

>  <sdf_rank>  (24) 
0

$$$$

     RDKit          3D

 66 72  0  0  0  0  0  0  0  0999 V2000
   -1.7918   -3.6443   19.7150 P   0  0  2  0  0  0  0  0  0  0  0  0
   -1.5189   -5.0139   19.1255 O   0  0  0  0  0  0  0  0  0  0  0  0
   -3.1407   -2.9895   19.6571 O   0  0  0  0  0  0  0  0  0  0  0  0
   -0.6653   -2.5868   19.2517 O   0  0  0  0  0  0  0  0  0  0  0  0
    0.6377   -3.0079   18.9018 C   0  0  0  0  0  0  0  0  0  0  0  0
    1.4493   -1.7322   18.6641 C   0  0  1  0  0  0  0  0  0  0  0  0
    0.9439   -1.0887   17.5004 O   0  0  0  0  0  0  0  0  0  0  0  0
    1.3417   -0.6558   19.7372 C   0  0  1  0  0  0  0  0  0  0  0  0
    2.2745   -0.9482   20.7563 O   0  0  0  0  0  0  0  0  0  0  0  0
    1.7128    0.6056   18.9653 C   0  0  1  0  0  0  0  0  0  0  0  0
    3.1408    0.5601   18.7506 O   0  0  0  0  0  0  0  0  0  0  0  0
    1.0896    0.3316   17.6151 C   0  0  2  0  0  0  0  0  0  0  0  0
   -0.2908    0.8318   17.5025 N   0  0  0  0  0  0  0  0  0  0  0  0
   -1.2555    0.8268   18.4498 C   0  0  0  0  0  0  0  0  0  0  0  0
   -2.4159    1.3451   17.9621 N   0  0  0  0  0  0  0  0  0  0  0  0
   -2.1834    1.6556   16.6665 C   0  0  0  0  0  0  0  0  0  0  0  0
   -2.9599    2.2246   15.5668 C   0  0  0  0  0  0  0  0  0  0  0  0
   -4.2766    2.5488   15.7519 N   0  0  0  0  0  0  0  0  0  0  0  0
   -2.3133    2.3679   14.3813 N   0  0  0  0  0  0  0  0  0  0  0  0
   -1.0285    2.0497   14.1868 C   0  0  0  0  0  0  0  0  0  0  0  0
   -0.2599    1.5197   15.1513 N   0  0  0  0  0  0  0  0  0  0  0  0
   -0.7892    1.3118   16.3722 C   0  0  0  0  0  0  0  0  0  0  0  0
    2.0838   -0.3829   22.2400 P   0  0  2  0  0  0  0  0  0  0  0  0
    1.8384    1.0994   22.1114 O   0  0  0  0  0  0  0  0  0  0  0  0
    3.1969   -0.9382   23.0983 O   0  0  0  0  0  0  0  0  0  0  0  0
    0.7073   -1.0546   22.7327 O   0  0  0  0  0  0  0  0  0  0  0  0
    0.7345   -2.4350   23.0887 C   0  0  0  0  0  0  0  0  0  0  0  0
   -0.6828   -2.9181   23.3857 C   0  0  1  0  0  0  0  0  0  0  0  0
   -1.2793   -2.1583   24.4396 O   0  0  0  0  0  0  0  0  0  0  0  0
   -1.6335   -2.7562   22.2109 C   0  0  1  0  0  0  0  0  0  0  0  0
   -1.4326   -3.8087   21.2662 O   0  0  0  0  0  0  0  0  0  0  0  0
   -2.9836   -2.7691   22.9046 C   0  0  1  0  0  0  0  0  0  0  0  0
   -3.4048   -4.1172   23.1730 O   0  0  0  0  0  0  0  0  0  0  0  0
   -2.6840   -2.0783   24.2357 C   0  0  2  0  0  0  0  0  0  0  0  0
   -3.0170   -0.6489   24.0663 N   0  0  0  0  0  0  0  0  0  0  0  0
   -2.1832    0.3467   23.7064 C   0  0  0  0  0  0  0  0  0  0  0  0
   -2.8448    1.5386   23.6340 N   0  0  0  0  0  0  0  0  0  0  0  0
   -4.1335    1.2884   23.9306 C   0  0  0  0  0  0  0  0  0  0  0  0
   -5.3874    2.0771   24.0331 C   0  0  0  0  0  0  0  0  0  0  0  0
   -5.3959    3.4156   23.7973 N   0  0  0  0  0  0  0  0  0  0  0  0
   -6.5162    1.4123   24.3761 N   0  0  0  0  0  0  0  0  0  0  0  0
   -6.5337    0.0873   24.6136 C   0  0  0  0  0  0  0  0  0  0  0  0
   -5.4344   -0.6885   24.5300 N   0  0  0  0  0  0  0  0  0  0  0  0
   -4.2375   -0.1518   24.2107 C   0  0  0  0  0  0  0  0  0  0  0  0
    1.0810   -3.5952   19.7194 H   0  0  0  0  0  0  0  0  0  0  0  0
    0.6254   -3.6477   18.0070 H   0  0  0  0  0  0  0  0  0  0  0  0
    2.4898   -2.0863   18.6189 H   0  0  0  0  0  0  0  0  0  0  0  0
    0.3616   -0.5691   20.2290 H   0  0  0  0  0  0  0  0  0  0  0  0
    1.4117    1.5463   19.4493 H   0  0  0  0  0  0  0  0  0  0  0  0
    3.6055    0.5452   19.6246 H   0  0  0  0  0  0  0  0  0  0  0  0
    1.7308    0.8129   16.8620 H   0  0  0  0  0  0  0  0  0  0  0  0
   -1.1209    0.4541   19.4759 H   0  0  0  0  0  0  0  0  0  0  0  0
   -4.8223    2.9497   14.9757 H   0  0  0  0  0  0  0  0  0  0  0  0
   -4.7219    2.3918   16.6673 H   0  0  0  0  0  0  0  0  0  0  0  0
   -0.5841    2.2297   13.1968 H   0  0  0  0  0  0  0  0  0  0  0  0
    1.1529   -3.0191   22.2557 H   0  0  0  0  0  0  0  0  0  0  0  0
    1.3597   -2.5679   23.9839 H   0  0  0  0  0  0  0  0  0  0  0  0
   -0.5556   -3.9802   23.6420 H   0  0  0  0  0  0  0  0  0  0  0  0
   -1.5019   -1.8479   21.6045 H   0  0  0  0  0  0  0  0  0  0  0  0
   -3.7741   -2.2927   22.3061 H   0  0  0  0  0  0  0  0  0  0  0  0
   -3.4495   -4.2603   24.1515 H   0  0  0  0  0  0  0  0  0  0  0  0
   -3.2437   -2.5321   25.0669 H   0  0  0  0  0  0  0  0  0  0  0  0
   -1.1109    0.2163   23.4985 H   0  0  0  0  0  0  0  0  0  0  0  0
   -6.2754    3.9463   23.8732 H   0  0  0  0  0  0  0  0  0  0  0  0
   -4.5229    3.8993   23.5428 H   0  0  0  0  0  0  0  0  0  0  0  0
   -7.4889   -0.3839   24.8886 H   0  0  0  0  0  0  0  0  0  0  0  0
  1  2  2  0
  1  3  1  1
  1  4  1  0
  1 31  1  0
  4  5  1  0
  6  5  1  0
  6  7  1  0
  6  8  1  0
  7 12  1  0
  8  9  1  0
  8 10  1  0
  9 23  1  0
 10 11  1  0
 10 12  1  0
 12 13  1  0
 13 14  1  0
 13 22  1  0
 14 15  2  0
 15 16  1  0
 16 17  2  0
 16 22  1  0
 17 18  1  0
 17 19  1  0
 19 20  2  0
 20 21  1  0
 21 22  2  0
 23 24  2  0
 23 25  1  1
 23 26  1  0
 26 27  1  0
 28 27  1  0
 28 29  1  0
 28 30  1  0
 29 34  1  0
 30 31  1  0
 30 32  1  0
 32 33  1  0
 32 34  1  0
 34 35  1  0
 35 36  1  0
 35 44  1  0
 36 37  2  0
 37 38  1  0
 38 39  2  0
 38 44  1  0
 39 40  1  0
 39 41  1  0
 41 42  2  0
 42 43  1  0
 43 44  2  0
  5 45  1  0
  5 46  1  0
  6 47  1  6
  8 48  1  1
 10 49  1  1
 11 50  1  0
 12 51  1  6
 14 52  1  0
 18 53  1  0
 18 54  1  0
 20 55  1  0
 27 56  1  0
 27 57  1  0
 28 58  1  1
 30 59  1  6
 32 60  1  6
 33 61  1  0
 34 62  1  1
 36 63  1  0
 40 64  1  0
 40 65  1  0
 42 66  1  0
M  CHG  2   3  -1  25  -1
M  END
>  <filename_input>  (25) 
6YJA_2BA_docked.sdf

>  <pdb_id>  (25) 
6YJA_2BA

>  <pose_rank>  (25) 
24

>  <num_atoms_heavy>  (25) 
44

>  <num_torsions>  (25) 
2

>  <pose>  (25) 
[-1.7918294676458084, -3.644295440568162, 19.715012933923667, -0.6069918039331216, 0.36022002730494296, 0.7801279298354964, 0.8538369146372399, 6.376881798711082]

>  <energy>  (25) 
-320.43528640130955

>  <inter_energy>  (25) 
-337.68276360100975

>  <intra_energy>  (25) 
15.18026209271283

>  <rmsd>  (25) 
8.269

>  <sdf_rank>  (25) 
0

$$$$

     RDKit          3D

 66 72  0  0  0  0  0  0  0  0999 V2000
    0.1740    2.2100   12.2050 P   0  0  2  0  0  0  0  0  0  0  0  0
   -0.0880    1.4670   10.9100 O   0  0  0  0  0  0  0  0  0  0  0  0
   -0.3350    3.5980   12.4620 O   0  0  0  0  0  0  0  0  0  0  0  0
    1.7350    2.1320   12.6040 O   0  0  0  0  0  0  0  0  0  0  0  0
    2.5500    1.0600   12.1750 C   0  0  0  0  0  0  0  0  0  0  0  0
    3.9050    1.2530   12.8600 C   0  0  1  0  0  0  0  0  0  0  0  0
    4.5170    2.4200   12.3240 O   0  0  0  0  0  0  0  0  0  0  0  0
    3.8690    1.5300   14.3580 C   0  0  1  0  0  0  0  0  0  0  0  0
    3.8060    0.2940   15.0380 O   0  0  0  0  0  0  0  0  0  0  0  0
    5.1980    2.2420   14.5850 C   0  0  1  0  0  0  0  0  0  0  0  0
    6.2310    1.2350   14.5070 O   0  0  0  0  0  0  0  0  0  0  0  0
    5.3280    3.0570   13.3180 C   0  0  2  0  0  0  0  0  0  0  0  0
    4.7420    4.4030   13.4330 N   0  0  0  0  0  0  0  0  0  0  0  0
    3.4600    4.7720   13.2130 C   0  0  0  0  0  0  0  0  0  0  0  0
    3.3050    6.1130   13.3880 N   0  0  0  0  0  0  0  0  0  0  0  0
    4.5270    6.6040   13.6960 C   0  0  0  0  0  0  0  0  0  0  0  0
    5.0850    7.9210   13.9960 C   0  0  0  0  0  0  0  0  0  0  0  0
    4.2820    9.0290   13.9700 N   0  0  0  0  0  0  0  0  0  0  0  0
    6.4170    7.9680   14.2560 N   0  0  0  0  0  0  0  0  0  0  0  0
    7.2130    6.8930   14.2790 C   0  0  0  0  0  0  0  0  0  0  0  0
    6.7670    5.6560   14.0090 N   0  0  0  0  0  0  0  0  0  0  0  0
    5.4640    5.4770   13.7190 C   0  0  0  0  0  0  0  0  0  0  0  0
    3.2260    0.1960   16.5250 P   0  0  2  0  0  0  0  0  0  0  0  0
    3.9360    1.2490   17.3380 O   0  0  0  0  0  0  0  0  0  0  0  0
    3.2220   -1.2600   16.9300 O   0  0  0  0  0  0  0  0  0  0  0  0
    1.6940    0.6630   16.3710 O   0  0  0  0  0  0  0  0  0  0  0  0
    0.7780   -0.2560   15.7800 C   0  0  0  0  0  0  0  0  0  0  0  0
   -0.5780    0.4190   15.5900 C   0  0  1  0  0  0  0  0  0  0  0  0
   -1.1010    0.8910   16.8340 O   0  0  0  0  0  0  0  0  0  0  0  0
   -0.5180    1.6540   14.7060 C   0  0  1  0  0  0  0  0  0  0  0  0
   -0.4730    1.2730   13.3300 O   0  0  0  0  0  0  0  0  0  0  0  0
   -1.7770    2.3920   15.1240 C   0  0  1  0  0  0  0  0  0  0  0  0
   -2.9280    1.8570   14.4490 O   0  0  0  0  0  0  0  0  0  0  0  0
   -1.8850    2.0560   16.6120 C   0  0  2  0  0  0  0  0  0  0  0  0
   -1.2410    3.1600   17.3530 N   0  0  0  0  0  0  0  0  0  0  0  0
    0.0090    3.1860   17.8560 C   0  0  0  0  0  0  0  0  0  0  0  0
    0.2680    4.3800   18.4650 N   0  0  0  0  0  0  0  0  0  0  0  0
   -0.8350    5.1380   18.3230 C   0  0  0  0  0  0  0  0  0  0  0  0
   -1.2570    6.5080   18.7100 C   0  0  0  0  0  0  0  0  0  0  0  0
   -0.4210    7.3330   19.3940 N   0  0  0  0  0  0  0  0  0  0  0  0
   -2.5060    6.8980   18.3610 N   0  0  0  0  0  0  0  0  0  0  0  0
   -3.3520    6.1000   17.6830 C   0  0  0  0  0  0  0  0  0  0  0  0
   -3.0300    4.8500   17.2940 N   0  0  0  0  0  0  0  0  0  0  0  0
   -1.8200    4.3290   17.5890 C   0  0  0  0  0  0  0  0  0  0  0  0
    2.1051    0.0994   12.4738 H   0  0  0  0  0  0  0  0  0  0  0  0
    2.6526    1.0479   11.0799 H   0  0  0  0  0  0  0  0  0  0  0  0
    4.4260    0.2997   12.6873 H   0  0  0  0  0  0  0  0  0  0  0  0
    3.0134    2.1235   14.7127 H   0  0  0  0  0  0  0  0  0  0  0  0
    5.2619    2.8073   15.5264 H   0  0  0  0  0  0  0  0  0  0  0  0
    6.5030    0.9698   15.4212 H   0  0  0  0  0  0  0  0  0  0  0  0
    6.4020    3.1282   13.0909 H   0  0  0  0  0  0  0  0  0  0  0  0
    2.6514    4.0817   12.9307 H   0  0  0  0  0  0  0  0  0  0  0  0
    4.6770    9.9564   14.1817 H   0  0  0  0  0  0  0  0  0  0  0  0
    3.2827    8.9355   13.7387 H   0  0  0  0  0  0  0  0  0  0  0  0
    8.2756    7.0282   14.5292 H   0  0  0  0  0  0  0  0  0  0  0  0
    1.1650   -0.5805   14.8028 H   0  0  0  0  0  0  0  0  0  0  0  0
    0.6612   -1.1286   16.4395 H   0  0  0  0  0  0  0  0  0  0  0  0
   -1.2033   -0.3606   15.1304 H   0  0  0  0  0  0  0  0  0  0  0  0
    0.3749    2.2864   14.8194 H   0  0  0  0  0  0  0  0  0  0  0  0
   -1.7352    3.4674   14.8964 H   0  0  0  0  0  0  0  0  0  0  0  0
   -3.5896    1.5495   15.1182 H   0  0  0  0  0  0  0  0  0  0  0  0
   -2.9299    1.9103   16.9234 H   0  0  0  0  0  0  0  0  0  0  0  0
    0.7260    2.3548   17.7852 H   0  0  0  0  0  0  0  0  0  0  0  0
   -0.7311    8.2802   19.6540 H   0  0  0  0  0  0  0  0  0  0  0  0
    0.5226    7.0110   19.6524 H   0  0  0  0  0  0  0  0  0  0  0  0
   -4.3519    6.4855   17.4350 H   0  0  0  0  0  0  0  0  0  0  0  0
  1  2  2  0
  1  3  1  6
  1  4  1  0
  1 31  1  0
  4  5  1  0
  6  5  1  0
  6  7  1  0
  6  8  1  0
  7 12  1  0
  8  9  1  0
  8 10  1  0
  9 23  1  0
 10 11  1  0
 10 12  1  0
 12 13  1  0
 13 14  1  0
 13 22  1  0
 14 15  2  0
 15 16  1  0
 16 17  2  0
 16 22  1  0
 17 18  1  0
 17 19  1  0
 19 20  2  0
 20 21  1  0
 21 22  2  0
 23 24  2  0
 23 25  1  1
 23 26  1  0
 26 27  1  0
 28 27  1  0
 28 29  1  0
 28 30  1  0
 29 34  1  0
 30 31  1  0
 30 32  1  0
 32 33  1  0
 32 34  1  0
 34 35  1  0
 35 36  1  0
 35 44  1  0
 36 37  2  0
 37 38  1  0
 38 39  2  0
 38 44  1  0
 39 40  1  0
 39 41  1  0
 41 42  2  0
 42 43  1  0
 43 44  2  0
  5 45  1  0
  5 46  1  0
  6 47  1  1
  8 48  1  6
 10 49  1  1
 11 50  1  0
 12 51  1  6
 14 52  1  0
 18 53  1  0
 18 54  1  0
 20 55  1  0
 27 56  1  0
 27 57  1  0
 28 58  1  6
 30 59  1  1
 32 60  1  1
 33 61  1  0
 34 62  1  1
 36 63  1  0
 40 64  1  0
 40 65  1  0
 42 66  1  0
M  CHG  2   3  -1  25  -1
M  END
>  <filename_input>  (26) 
6YJA_2BA_docked.sdf

>  <pdb_id>  (26) 
6YJA_2BA

>  <pose_rank>  (26) 
25

>  <num_atoms_heavy>  (26) 
44

>  <num_torsions>  (26) 
2

>  <pose>  (26) 
[0.174, 2.21, 12.205, 1e-06, 1e-06, 1e-06, 0.0, 0.0]

>  <energy>  (26) 
-903.0715561433202

>  <inter_energy>  (26) 
-921.1387822816082

>  <intra_energy>  (26) 
15.081860340164173

>  <rmsd>  (26) 
0.0

>  <sdf_rank>  (26) 
0

$$$$
