
     RDKit          3D

 66 67  0  0  0  0  0  0  0  0999 V2000
   30.0323   39.5414   -9.5670 O   0  0  0  0  0  0  0  0  0  0  0  0
   37.8939   38.7704   -3.0902 O   0  0  0  0  0  0  0  0  0  0  0  0
   33.1402   36.0011  -11.0218 C   0  0  0  0  0  0  0  0  0  0  0  0
   32.0303   37.0391  -10.9783 C   0  0  1  0  0  0  0  0  0  0  0  0
   30.7498   36.4870  -11.5824 C   0  0  0  0  0  0  0  0  0  0  0  0
   35.9147   41.6386   -3.9244 C   0  0  1  0  0  0  0  0  0  0  0  0
   32.8104   39.0295   -7.8892 N   0  0  0  0  0  0  0  0  0  0  0  0
   34.4916   38.8846   -6.1389 C   0  0  0  0  0  0  0  0  0  0  0  0
   34.0981   38.8186   -7.6018 C   0  0  0  0  0  0  0  0  0  0  0  0
   32.3149   38.9271   -9.2534 C   0  0  1  0  0  0  0  0  0  0  0  0
   31.7981   37.5166   -9.5498 C   0  0  0  0  0  0  0  0  0  0  0  0
   34.9404   38.5790   -8.4610 O   0  0  0  0  0  0  0  0  0  0  0  0
   35.0245   42.2228   -2.8130 C   0  0  0  0  0  0  0  0  0  0  0  0
   35.8675   42.6592   -1.6407 C   0  0  0  0  0  0  0  0  0  0  0  0
   36.7552   42.2722    0.5661 C   0  0  0  0  0  0  0  0  0  0  0  0
   35.9497   41.8856   -0.4917 C   0  0  0  0  0  0  0  0  0  0  0  0
   37.4852   43.4372    0.4905 C   0  0  0  0  0  0  0  0  0  0  0  0
   39.2316   37.1116   -1.9896 C   0  0  0  0  0  0  0  0  0  0  0  0
   40.1609   36.1210   -2.2653 C   0  0  0  0  0  0  0  0  0  0  0  0
   39.2530   38.4069   -2.7425 C   0  0  0  0  0  0  0  0  0  0  0  0
   37.7041   40.0447   -3.4748 C   0  0  0  0  0  0  0  0  0  0  0  0
   36.6031   43.8334   -1.6989 C   0  0  0  0  0  0  0  0  0  0  0  0
   37.4066   44.2192   -0.6398 C   0  0  0  0  0  0  0  0  0  0  0  0
   31.2096   39.9582   -9.5267 C   0  0  0  0  0  0  0  0  0  0  0  0
   35.9570   41.4165   -6.5763 O   0  0  0  0  0  0  0  0  0  0  0  0
   40.1541   34.9313   -1.5598 C   0  0  0  0  0  0  0  0  0  0  0  0
   39.2230   34.7185   -0.5681 C   0  0  0  0  0  0  0  0  0  0  0  0
   38.2905   35.6908   -0.2886 C   0  0  0  0  0  0  0  0  0  0  0  0
   34.0011   42.7274   -5.5552 O   0  0  0  0  0  0  0  0  0  0  0  0
   38.5960   40.8336   -3.7050 O   0  0  0  0  0  0  0  0  0  0  0  0
   38.2921   36.8807   -0.9944 C   0  0  0  0  0  0  0  0  0  0  0  0
   34.0707   40.0896   -5.4295 N   0  0  0  0  0  0  0  0  0  0  0  0
   36.3938   40.3111   -3.5697 N   0  0  0  0  0  0  0  0  0  0  0  0
   31.5634   41.1520   -9.6864 O   0  0  0  0  0  0  0  0  0  0  0  0
   34.9099   41.5392   -5.5565 P   0  0  2  0  0  0  0  0  0  0  0  0
   33.4296   35.7304   -9.9956 H   0  0  0  0  0  0  0  0  0  0  0  0
   32.7836   35.1049  -11.5506 H   0  0  0  0  0  0  0  0  0  0  0  0
   34.0105   36.4168  -11.5506 H   0  0  0  0  0  0  0  0  0  0  0  0
   32.3430   37.9040  -11.5817 H   0  0  0  0  0  0  0  0  0  0  0  0
   30.0622   36.1906  -10.7765 H   0  0  0  0  0  0  0  0  0  0  0  0
   30.2745   37.2602  -12.2040 H   0  0  0  0  0  0  0  0  0  0  0  0
   30.9857   35.6106  -12.2040 H   0  0  0  0  0  0  0  0  0  0  0  0
   36.7858   42.2975   -4.0547 H   0  0  0  0  0  0  0  0  0  0  0  0
   32.1561   39.2691   -7.1306 H   0  0  0  0  0  0  0  0  0  0  0  0
   34.0464   38.0177   -5.6286 H   0  0  0  0  0  0  0  0  0  0  0  0
   35.5914   38.8920   -6.1215 H   0  0  0  0  0  0  0  0  0  0  0  0
   33.1618   39.1394   -9.9226 H   0  0  0  0  0  0  0  0  0  0  0  0
   30.7156   37.5007   -9.3552 H   0  0  0  0  0  0  0  0  0  0  0  0
   32.3658   36.8353   -8.8990 H   0  0  0  0  0  0  0  0  0  0  0  0
   34.4746   43.0902   -3.2071 H   0  0  0  0  0  0  0  0  0  0  0  0
   34.3183   41.4492   -2.4771 H   0  0  0  0  0  0  0  0  0  0  0  0
   36.8120   41.6470    1.4694 H   0  0  0  0  0  0  0  0  0  0  0  0
   35.3683   40.9545   -0.4204 H   0  0  0  0  0  0  0  0  0  0  0  0
   38.1283   43.7417    1.3294 H   0  0  0  0  0  0  0  0  0  0  0  0
   40.9114   36.2825   -3.0531 H   0  0  0  0  0  0  0  0  0  0  0  0
   39.8502   38.2915   -3.6590 H   0  0  0  0  0  0  0  0  0  0  0  0
   39.7009   39.1937   -2.1178 H   0  0  0  0  0  0  0  0  0  0  0  0
   36.5474   44.4657   -2.5973 H   0  0  0  0  0  0  0  0  0  0  0  0
   37.9840   45.1535   -0.7015 H   0  0  0  0  0  0  0  0  0  0  0  0
   40.8952   34.1523   -1.7920 H   0  0  0  0  0  0  0  0  0  0  0  0
   39.2246   33.7754   -0.0018 H   0  0  0  0  0  0  0  0  0  0  0  0
   37.5412   35.5216    0.4988 H   0  0  0  0  0  0  0  0  0  0  0  0
   33.8011   42.9889   -4.6215 H   0  0  0  0  0  0  0  0  0  0  0  0
   37.5415   37.6513   -0.7646 H   0  0  0  0  0  0  0  0  0  0  0  0
   33.1087   40.2857   -5.7409 H   0  0  0  0  0  0  0  0  0  0  0  0
   35.7120   39.5608   -3.3877 H   0  0  0  0  0  0  0  0  0  0  0  0
  1 24  2  0
  2 20  1  0
  2 21  1  0
  4  3  1  0
  4  5  1  0
  4 11  1  0
  6 13  1  0
  6 33  1  0
  6 35  1  0
  7  9  1  0
  7 10  1  0
  8  9  1  0
  8 32  1  0
  9 12  2  0
 10 11  1  0
 10 24  1  0
 13 14  1  0
 14 16  1  0
 14 22  2  0
 15 16  2  0
 15 17  1  0
 17 23  2  0
 18 19  2  0
 18 20  1  0
 18 31  1  0
 19 26  1  0
 21 30  2  0
 21 33  1  0
 22 23  1  0
 24 34  1  0
 25 35  2  0
 26 27  2  0
 27 28  1  0
 28 31  2  0
 35 29  1  6
 32 35  1  0
  3 36  1  0
  3 37  1  0
  3 38  1  0
  4 39  1  6
  5 40  1  0
  5 41  1  0
  5 42  1  0
  6 43  1  6
  7 44  1  0
  8 45  1  0
  8 46  1  0
 10 47  1  6
 11 48  1  0
 11 49  1  0
 13 50  1  0
 13 51  1  0
 15 52  1  0
 16 53  1  0
 17 54  1  0
 19 55  1  0
 20 56  1  0
 20 57  1  0
 22 58  1  0
 23 59  1  0
 26 60  1  0
 27 61  1  0
 28 62  1  0
 29 63  1  0
 31 64  1  0
 32 65  1  0
 33 66  1  0
M  CHG  1  34  -1
M  END
>  <filename_input>  (1) 
6YMS_OZH_docked.sdf

>  <pdb_id>  (1) 
6YMS_OZH

>  <pose_rank>  (1) 
0

>  <num_atoms_heavy>  (1) 
35

>  <num_torsions>  (1) 
14

>  <pose>  (1) 
[35.91465227976953, 41.638608787270954, -3.924443816421104, 5.505150410828855, 2.240927399456134, -1.7145232412256535, -0.030950892817711198, 0.27868772209997067, -6.064324882564474, -0.5633179097446506, 0.19807152428483704, -0.3641832128205779, 0.5142900759630666, -1.0389684106886015, -0.17837360093574914, 1.753912528989008, -1.412456655848213, -1.2052300598380832, 0.12792677247471906, -0.11470956343498337]

>  <energy>  (1) 
-984.1336580134221

>  <inter_energy>  (1) 
-987.5593937202418

>  <intra_energy>  (1) 
5.43400853610611

>  <rmsd>  (1) 
1.2347

>  <sdf_rank>  (1) 
0

$$$$

     RDKit          3D

 66 67  0  0  0  0  0  0  0  0999 V2000
   33.8849   36.1537  -10.4427 O   0  0  0  0  0  0  0  0  0  0  0  0
   37.7745   38.5901   -3.1802 O   0  0  0  0  0  0  0  0  0  0  0  0
   30.1763   38.1337  -11.7036 C   0  0  0  0  0  0  0  0  0  0  0  0
   31.2466   38.4597  -10.6743 C   0  0  1  0  0  0  0  0  0  0  0  0
   31.2856   39.9519  -10.3890 C   0  0  0  0  0  0  0  0  0  0  0  0
   35.9511   41.5527   -4.0396 C   0  0  1  0  0  0  0  0  0  0  0  0
   33.2957   37.8304   -8.4654 N   0  0  0  0  0  0  0  0  0  0  0  0
   34.5417   39.1728   -6.8666 C   0  0  0  0  0  0  0  0  0  0  0  0
   33.4647   38.1524   -7.1797 C   0  0  0  0  0  0  0  0  0  0  0  0
   32.2487   36.9096   -8.8816 C   0  0  1  0  0  0  0  0  0  0  0  0
   31.0194   37.6650   -9.3940 C   0  0  0  0  0  0  0  0  0  0  0  0
   32.7928   37.6624   -6.2777 O   0  0  0  0  0  0  0  0  0  0  0  0
   35.0922   42.0824   -2.8774 C   0  0  0  0  0  0  0  0  0  0  0  0
   35.9694   42.4880   -1.7193 C   0  0  0  0  0  0  0  0  0  0  0  0
   36.9068   42.0517    0.4577 C   0  0  0  0  0  0  0  0  0  0  0  0
   36.0706   41.6934   -0.5862 C   0  0  0  0  0  0  0  0  0  0  0  0
   37.6491   43.2091    0.3839 C   0  0  0  0  0  0  0  0  0  0  0  0
   38.5935   36.7517   -1.8757 C   0  0  0  0  0  0  0  0  0  0  0  0
   39.4650   36.2804   -2.8448 C   0  0  0  0  0  0  0  0  0  0  0  0
   38.1914   38.1949   -1.8498 C   0  0  0  0  0  0  0  0  0  0  0  0
   37.6311   39.9111   -3.3853 C   0  0  0  0  0  0  0  0  0  0  0  0
   36.7178   43.6542   -1.7755 C   0  0  0  0  0  0  0  0  0  0  0  0
   37.5521   44.0117   -0.7304 C   0  0  0  0  0  0  0  0  0  0  0  0
   32.7532   35.9379   -9.9589 C   0  0  0  0  0  0  0  0  0  0  0  0
   35.9648   41.7615   -6.6929 O   0  0  0  0  0  0  0  0  0  0  0  0
   39.8513   34.9524   -2.8605 C   0  0  0  0  0  0  0  0  0  0  0  0
   39.3760   34.0806   -1.9065 C   0  0  0  0  0  0  0  0  0  0  0  0
   38.5051   34.5337   -0.9426 C   0  0  0  0  0  0  0  0  0  0  0  0
   33.9093   42.6906   -5.4689 O   0  0  0  0  0  0  0  0  0  0  0  0
   38.5105   40.7311   -3.2267 O   0  0  0  0  0  0  0  0  0  0  0  0
   38.1138   35.8607   -0.9258 C   0  0  0  0  0  0  0  0  0  0  0  0
   34.2401   40.0868   -5.7684 N   0  0  0  0  0  0  0  0  0  0  0  0
   36.3835   40.1854   -3.7919 N   0  0  0  0  0  0  0  0  0  0  0  0
   31.9960   34.9888  -10.2775 O   0  0  0  0  0  0  0  0  0  0  0  0
   34.9303   41.6147   -5.6635 P   0  0  2  0  0  0  0  0  0  0  0  0
   29.2465   37.8505  -11.1886 H   0  0  0  0  0  0  0  0  0  0  0  0
   29.9923   39.0165  -12.3335 H   0  0  0  0  0  0  0  0  0  0  0  0
   30.5157   37.2982  -12.3335 H   0  0  0  0  0  0  0  0  0  0  0  0
   32.2234   38.1693  -11.0886 H   0  0  0  0  0  0  0  0  0  0  0  0
   31.2899   40.1172   -9.3015 H   0  0  0  0  0  0  0  0  0  0  0  0
   32.1954   40.3857  -10.8295 H   0  0  0  0  0  0  0  0  0  0  0  0
   30.3997   40.4327  -10.8295 H   0  0  0  0  0  0  0  0  0  0  0  0
   36.8450   42.1875   -4.1288 H   0  0  0  0  0  0  0  0  0  0  0  0
   33.9183   38.2418   -9.1753 H   0  0  0  0  0  0  0  0  0  0  0  0
   35.4618   38.6271   -6.6106 H   0  0  0  0  0  0  0  0  0  0  0  0
   34.6345   39.8002   -7.7654 H   0  0  0  0  0  0  0  0  0  0  0  0
   31.9590   36.3263   -7.9952 H   0  0  0  0  0  0  0  0  0  0  0  0
   30.6960   38.3649   -8.6094 H   0  0  0  0  0  0  0  0  0  0  0  0
   30.2638   36.9020   -9.6326 H   0  0  0  0  0  0  0  0  0  0  0  0
   34.5172   42.9553   -3.2200 H   0  0  0  0  0  0  0  0  0  0  0  0
   34.4088   41.2865   -2.5465 H   0  0  0  0  0  0  0  0  0  0  0  0
   36.9783   41.4101    1.3482 H   0  0  0  0  0  0  0  0  0  0  0  0
   35.4797   40.7682   -0.5165 H   0  0  0  0  0  0  0  0  0  0  0  0
   38.3166   43.4910    1.2115 H   0  0  0  0  0  0  0  0  0  0  0  0
   39.8535   36.9695   -3.6092 H   0  0  0  0  0  0  0  0  0  0  0  0
   39.0459   38.8106   -1.5324 H   0  0  0  0  0  0  0  0  0  0  0  0
   37.3620   38.3379   -1.1415 H   0  0  0  0  0  0  0  0  0  0  0  0
   36.6476   44.3028   -2.6612 H   0  0  0  0  0  0  0  0  0  0  0  0
   38.1393   44.9400   -0.7904 H   0  0  0  0  0  0  0  0  0  0  0  0
   40.5407   34.5913   -3.6379 H   0  0  0  0  0  0  0  0  0  0  0  0
   39.6913   33.0268   -1.9149 H   0  0  0  0  0  0  0  0  0  0  0  0
   38.1184   33.8386   -0.1828 H   0  0  0  0  0  0  0  0  0  0  0  0
   33.7677   42.8398   -4.5005 H   0  0  0  0  0  0  0  0  0  0  0  0
   37.4158   36.2129   -0.1521 H   0  0  0  0  0  0  0  0  0  0  0  0
   33.2206   40.2321   -5.7866 H   0  0  0  0  0  0  0  0  0  0  0  0
   35.7172   39.4125   -3.9319 H   0  0  0  0  0  0  0  0  0  0  0  0
  1 24  2  0
  2 20  1  0
  2 21  1  0
  4  3  1  0
  4  5  1  0
  4 11  1  0
  6 13  1  0
  6 33  1  0
  6 35  1  0
  7  9  1  0
  7 10  1  0
  8  9  1  0
  8 32  1  0
  9 12  2  0
 10 11  1  0
 10 24  1  0
 13 14  1  0
 14 16  1  0
 14 22  2  0
 15 16  2  0
 15 17  1  0
 17 23  2  0
 18 19  2  0
 18 20  1  0
 18 31  1  0
 19 26  1  0
 21 30  2  0
 21 33  1  0
 22 23  1  0
 24 34  1  0
 25 35  2  0
 26 27  2  0
 27 28  1  0
 28 31  2  0
 35 29  1  1
 32 35  1  0
  3 36  1  0
  3 37  1  0
  3 38  1  0
  4 39  1  6
  5 40  1  0
  5 41  1  0
  5 42  1  0
  6 43  1  6
  7 44  1  0
  8 45  1  0
  8 46  1  0
 10 47  1  1
 11 48  1  0
 11 49  1  0
 13 50  1  0
 13 51  1  0
 15 52  1  0
 16 53  1  0
 17 54  1  0
 19 55  1  0
 20 56  1  0
 20 57  1  0
 22 58  1  0
 23 59  1  0
 26 60  1  0
 27 61  1  0
 28 62  1  0
 29 63  1  0
 31 64  1  0
 32 65  1  0
 33 66  1  0
M  CHG  1  34  -1
M  END
>  <filename_input>  (2) 
6YMS_OZH_docked.sdf

>  <pdb_id>  (2) 
6YMS_OZH

>  <pose_rank>  (2) 
1

>  <num_atoms_heavy>  (2) 
35

>  <num_torsions>  (2) 
14

>  <pose>  (2) 
[35.95113597139176, 41.55267512768142, -4.039619229707697, 2.2776075117908077, 5.350605195719408, 2.300869351377144, 0.2790889821891146, 1.121530796399044, 0.708107843106192, -2.096523630433637, 0.03743835244306942, -0.6253767001595362, 5.501427367257124, 2.3857158788995463, -0.07346110986147104, -2.853627308956174, 2.2737629619202795, -0.8060578941319105, 0.1970454124500685, -0.1489227633359581]

>  <energy>  (2) 
-963.9543023299531

>  <inter_energy>  (2) 
-967.6493986971443

>  <intra_energy>  (2) 
6.310789086227395

>  <rmsd>  (2) 
2.07134

>  <sdf_rank>  (2) 
0

$$$$

     RDKit          3D

 66 67  0  0  0  0  0  0  0  0999 V2000
   38.4548   38.2917   -2.5024 O   0  0  0  0  0  0  0  0  0  0  0  0
   31.4807   38.1264   -9.8293 O   0  0  0  0  0  0  0  0  0  0  0  0
   37.5799   42.1103    0.5234 C   0  0  0  0  0  0  0  0  0  0  0  0
   37.4017   42.0285   -0.9841 C   0  0  1  0  0  0  0  0  0  0  0  0
   38.0898   43.1948   -1.6739 C   0  0  0  0  0  0  0  0  0  0  0  0
   34.0798   39.2629   -7.6400 C   0  0  1  0  0  0  0  0  0  0  0  0
   36.5120   40.9533   -3.5195 N   0  0  0  0  0  0  0  0  0  0  0  0
   34.9953   42.2490   -4.9093 C   0  0  0  0  0  0  0  0  0  0  0  0
   36.3995   41.8224   -4.5280 C   0  0  0  0  0  0  0  0  0  0  0  0
   37.8150   40.5268   -3.0322 C   0  0  1  0  0  0  0  0  0  0  0  0
   37.9209   40.6975   -1.5144 C   0  0  0  0  0  0  0  0  0  0  0  0
   37.3696   42.2703   -5.1310 O   0  0  0  0  0  0  0  0  0  0  0  0
   34.2612   38.4876   -6.3228 C   0  0  0  0  0  0  0  0  0  0  0  0
   34.3722   37.0082   -6.5959 C   0  0  0  0  0  0  0  0  0  0  0  0
   35.6454   35.0991   -7.3323 C   0  0  0  0  0  0  0  0  0  0  0  0
   35.5357   36.4630   -7.1195 C   0  0  0  0  0  0  0  0  0  0  0  0
   34.5936   34.2643   -7.0279 C   0  0  0  0  0  0  0  0  0  0  0  0
   30.7203   36.7326  -11.6269 C   0  0  0  0  0  0  0  0  0  0  0  0
   30.3722   35.8145  -10.6488 C   0  0  0  0  0  0  0  0  0  0  0  0
   31.1999   38.1014  -11.2508 C   0  0  0  0  0  0  0  0  0  0  0  0
   32.7567   38.3724   -9.4844 C   0  0  0  0  0  0  0  0  0  0  0  0
   33.3190   36.1554   -6.3012 C   0  0  0  0  0  0  0  0  0  0  0  0
   33.4297   34.7924   -6.5160 C   0  0  0  0  0  0  0  0  0  0  0  0
   38.1071   39.0688   -3.4171 C   0  0  0  0  0  0  0  0  0  0  0  0
   32.8489   41.6193   -7.7660 O   0  0  0  0  0  0  0  0  0  0  0  0
   29.9128   34.5562  -10.9937 C   0  0  0  0  0  0  0  0  0  0  0  0
   29.7911   34.2016  -12.3186 C   0  0  0  0  0  0  0  0  0  0  0  0
   30.1394   35.1010  -13.2997 C   0  0  0  0  0  0  0  0  0  0  0  0
   35.4106   41.6413   -7.9207 O   0  0  0  0  0  0  0  0  0  0  0  0
   33.7178   38.1200  -10.1795 O   0  0  0  0  0  0  0  0  0  0  0  0
   30.6025   36.3592  -12.9585 C   0  0  0  0  0  0  0  0  0  0  0  0
   34.2008   41.2415   -5.6065 N   0  0  0  0  0  0  0  0  0  0  0  0
   32.8089   38.9374   -8.2698 N   0  0  0  0  0  0  0  0  0  0  0  0
   37.9721   38.7546   -4.6249 O   0  0  0  0  0  0  0  0  0  0  0  0
   34.1509   41.1471   -7.2829 P   0  0  2  0  0  0  0  0  0  0  0  0
   36.6881   41.7013    1.0208 H   0  0  0  0  0  0  0  0  0  0  0  0
   38.4647   41.5280    0.8202 H   0  0  0  0  0  0  0  0  0  0  0  0
   37.7159   43.1607    0.8202 H   0  0  0  0  0  0  0  0  0  0  0  0
   36.3265   42.0902   -1.2082 H   0  0  0  0  0  0  0  0  0  0  0  0
   38.4950   43.8816   -0.9162 H   0  0  0  0  0  0  0  0  0  0  0  0
   38.9097   42.8171   -2.3024 H   0  0  0  0  0  0  0  0  0  0  0  0
   37.3627   43.7299   -2.3024 H   0  0  0  0  0  0  0  0  0  0  0  0
   34.8898   38.9759   -8.3268 H   0  0  0  0  0  0  0  0  0  0  0  0
   35.6601   40.5781   -3.0786 H   0  0  0  0  0  0  0  0  0  0  0  0
   34.4619   42.5229   -3.9871 H   0  0  0  0  0  0  0  0  0  0  0  0
   35.1141   43.0831   -5.6165 H   0  0  0  0  0  0  0  0  0  0  0  0
   38.5669   41.1705   -3.5120 H   0  0  0  0  0  0  0  0  0  0  0  0
   38.9804   40.6066   -1.2327 H   0  0  0  0  0  0  0  0  0  0  0  0
   37.2856   39.9174   -1.0695 H   0  0  0  0  0  0  0  0  0  0  0  0
   35.1772   38.8336   -5.8215 H   0  0  0  0  0  0  0  0  0  0  0  0
   33.3876   38.6676   -5.6790 H   0  0  0  0  0  0  0  0  0  0  0  0
   36.5753   34.6815   -7.7456 H   0  0  0  0  0  0  0  0  0  0  0  0
   36.3808   37.1218   -7.3685 H   0  0  0  0  0  0  0  0  0  0  0  0
   34.6827   33.1805   -7.1930 H   0  0  0  0  0  0  0  0  0  0  0  0
   30.4621   36.0892   -9.5875 H   0  0  0  0  0  0  0  0  0  0  0  0
   30.4222   38.8428  -11.4866 H   0  0  0  0  0  0  0  0  0  0  0  0
   32.1121   38.3448  -11.8151 H   0  0  0  0  0  0  0  0  0  0  0  0
   32.3846   36.5669   -5.8919 H   0  0  0  0  0  0  0  0  0  0  0  0
   32.5853   34.1292   -6.2769 H   0  0  0  0  0  0  0  0  0  0  0  0
   29.6438   33.8363  -10.2067 H   0  0  0  0  0  0  0  0  0  0  0  0
   29.4170   33.2037  -12.5913 H   0  0  0  0  0  0  0  0  0  0  0  0
   30.0495   34.8187  -14.3591 H   0  0  0  0  0  0  0  0  0  0  0  0
   36.0589   41.8956   -7.2171 H   0  0  0  0  0  0  0  0  0  0  0  0
   30.8800   37.0707  -13.7502 H   0  0  0  0  0  0  0  0  0  0  0  0
   34.5418   40.3272   -5.2767 H   0  0  0  0  0  0  0  0  0  0  0  0
   31.9315   39.1455   -7.7721 H   0  0  0  0  0  0  0  0  0  0  0  0
  1 24  2  0
  2 20  1  0
  2 21  1  0
  4  3  1  0
  4  5  1  0
  4 11  1  0
  6 13  1  0
  6 33  1  0
  6 35  1  0
  7  9  1  0
  7 10  1  0
  8  9  1  0
  8 32  1  0
  9 12  2  0
 10 11  1  0
 10 24  1  0
 13 14  1  0
 14 16  1  0
 14 22  2  0
 15 16  2  0
 15 17  1  0
 17 23  2  0
 18 19  2  0
 18 20  1  0
 18 31  1  0
 19 26  1  0
 21 30  2  0
 21 33  1  0
 22 23  1  0
 24 34  1  0
 25 35  2  0
 26 27  2  0
 27 28  1  0
 28 31  2  0
 35 29  1  6
 32 35  1  0
  3 36  1  0
  3 37  1  0
  3 38  1  0
  4 39  1  1
  5 40  1  0
  5 41  1  0
  5 42  1  0
  6 43  1  6
  7 44  1  0
  8 45  1  0
  8 46  1  0
 10 47  1  6
 11 48  1  0
 11 49  1  0
 13 50  1  0
 13 51  1  0
 15 52  1  0
 16 53  1  0
 17 54  1  0
 19 55  1  0
 20 56  1  0
 20 57  1  0
 22 58  1  0
 23 59  1  0
 26 60  1  0
 27 61  1  0
 28 62  1  0
 29 63  1  0
 31 64  1  0
 32 65  1  0
 33 66  1  0
M  CHG  1  34  -1
M  END
>  <filename_input>  (3) 
6YMS_OZH_docked.sdf

>  <pdb_id>  (3) 
6YMS_OZH

>  <pose_rank>  (3) 
2

>  <num_atoms_heavy>  (3) 
35

>  <num_torsions>  (3) 
14

>  <pose>  (3) 
[34.07983133911428, 39.26285050565955, -7.640040754071028, -2.6270059751392028, -1.7645695615522574, 3.1632855251940786, -6.282370844431721, -0.35634894976414233, -0.5991651053329394, -2.7448040390351007, 1.5467997626398704, 3.921490225295324, 0.29329621081840646, -7.689381783168177, 0.4475249629675379, 1.343896272956958, 0.3365315889263313, 0.10057228483534421, -0.022791445350754003, -3.298091637350315]

>  <energy>  (3) 
-686.0219688779035

>  <inter_energy>  (3) 
-694.1406000075447

>  <intra_energy>  (3) 
10.970551191824724

>  <rmsd>  (3) 
9.45649

>  <sdf_rank>  (3) 
0

$$$$

     RDKit          3D

 66 67  0  0  0  0  0  0  0  0999 V2000
   30.1782   37.3525   -8.8522 O   0  0  0  0  0  0  0  0  0  0  0  0
   37.6255   40.6865   -3.5755 O   0  0  0  0  0  0  0  0  0  0  0  0
   32.3016   37.1699  -14.4394 C   0  0  0  0  0  0  0  0  0  0  0  0
   31.5864   38.0347  -13.4138 C   0  0  1  0  0  0  0  0  0  0  0  0
   30.0788   37.9162  -13.5638 C   0  0  0  0  0  0  0  0  0  0  0  0
   34.8330   40.2079   -5.7693 C   0  0  1  0  0  0  0  0  0  0  0  0
   31.6046   39.4151  -10.3180 N   0  0  0  0  0  0  0  0  0  0  0  0
   33.2781   40.8504   -9.2935 C   0  0  0  0  0  0  0  0  0  0  0  0
   32.8801   39.5377   -9.9397 C   0  0  0  0  0  0  0  0  0  0  0  0
   31.1029   38.1750  -10.8904 C   0  0  1  0  0  0  0  0  0  0  0  0
   32.0250   37.6659  -12.0017 C   0  0  0  0  0  0  0  0  0  0  0  0
   33.7081   38.6457  -10.0943 O   0  0  0  0  0  0  0  0  0  0  0  0
   35.4765   39.1675   -6.7034 C   0  0  0  0  0  0  0  0  0  0  0  0
   34.6731   37.8908   -6.6992 C   0  0  0  0  0  0  0  0  0  0  0  0
   34.4376   35.5569   -7.2519 C   0  0  0  0  0  0  0  0  0  0  0  0
   35.1628   36.7359   -7.2923 C   0  0  0  0  0  0  0  0  0  0  0  0
   33.2138   35.5183   -6.6220 C   0  0  0  0  0  0  0  0  0  0  0  0
   37.3546   41.8266   -1.4829 C   0  0  0  0  0  0  0  0  0  0  0  0
   37.5300   41.9114   -0.1107 C   0  0  0  0  0  0  0  0  0  0  0  0
   37.3393   40.4941   -2.1679 C   0  0  0  0  0  0  0  0  0  0  0  0
   36.8610   39.9887   -4.4336 C   0  0  0  0  0  0  0  0  0  0  0  0
   33.4359   37.8377   -6.0750 C   0  0  0  0  0  0  0  0  0  0  0  0
   32.7115   36.6587   -6.0369 C   0  0  0  0  0  0  0  0  0  0  0  0
   30.9302   37.0915   -9.8154 C   0  0  0  0  0  0  0  0  0  0  0  0
   35.3273   42.1020   -7.5725 O   0  0  0  0  0  0  0  0  0  0  0  0
   37.5617   43.1411    0.5219 C   0  0  0  0  0  0  0  0  0  0  0  0
   37.4237   44.3002   -0.2083 C   0  0  0  0  0  0  0  0  0  0  0  0
   37.2423   44.2303   -1.5704 C   0  0  0  0  0  0  0  0  0  0  0  0
   33.4926   42.5961   -5.8473 O   0  0  0  0  0  0  0  0  0  0  0  0
   37.1030   38.8615   -4.8100 O   0  0  0  0  0  0  0  0  0  0  0  0
   37.2066   43.0020   -2.2060 C   0  0  0  0  0  0  0  0  0  0  0  0
   33.0476   40.9367   -7.8541 N   0  0  0  0  0  0  0  0  0  0  0  0
   35.7978   40.7157   -4.8055 N   0  0  0  0  0  0  0  0  0  0  0  0
   31.5529   36.0139   -9.9797 O   0  0  0  0  0  0  0  0  0  0  0  0
   34.1495   41.6642   -6.8157 P   0  0  2  0  0  0  0  0  0  0  0  0
   32.9200   36.4222  -13.9211 H   0  0  0  0  0  0  0  0  0  0  0  0
   31.5591   36.6585  -15.0695 H   0  0  0  0  0  0  0  0  0  0  0  0
   32.9433   37.8033  -15.0695 H   0  0  0  0  0  0  0  0  0  0  0  0
   31.8625   39.0840  -13.5947 H   0  0  0  0  0  0  0  0  0  0  0  0
   29.6130   37.8796  -12.5680 H   0  0  0  0  0  0  0  0  0  0  0  0
   29.6957   38.7871  -14.1160 H   0  0  0  0  0  0  0  0  0  0  0  0
   29.8364   36.9963  -14.1160 H   0  0  0  0  0  0  0  0  0  0  0  0
   34.0157   39.7210   -5.2171 H   0  0  0  0  0  0  0  0  0  0  0  0
   30.9642   40.2135  -10.2023 H   0  0  0  0  0  0  0  0  0  0  0  0
   34.3519   41.0059   -9.4749 H   0  0  0  0  0  0  0  0  0  0  0  0
   32.6362   41.6188   -9.7492 H   0  0  0  0  0  0  0  0  0  0  0  0
   30.1163   38.3944  -11.3247 H   0  0  0  0  0  0  0  0  0  0  0  0
   32.0708   36.5690  -11.9329 H   0  0  0  0  0  0  0  0  0  0  0  0
   32.9992   38.1513  -11.8428 H   0  0  0  0  0  0  0  0  0  0  0  0
   35.5112   39.5708   -7.7262 H   0  0  0  0  0  0  0  0  0  0  0  0
   36.4948   38.9502   -6.3487 H   0  0  0  0  0  0  0  0  0  0  0  0
   34.8403   34.6488   -7.7244 H   0  0  0  0  0  0  0  0  0  0  0  0
   36.1382   36.7571   -7.8003 H   0  0  0  0  0  0  0  0  0  0  0  0
   32.6402   34.5804   -6.5865 H   0  0  0  0  0  0  0  0  0  0  0  0
   37.6450   40.9915    0.4814 H   0  0  0  0  0  0  0  0  0  0  0  0
   36.3482   40.0310   -2.0526 H   0  0  0  0  0  0  0  0  0  0  0  0
   38.0984   39.8361   -1.7199 H   0  0  0  0  0  0  0  0  0  0  0  0
   33.0252   38.7433   -5.6045 H   0  0  0  0  0  0  0  0  0  0  0  0
   31.7317   36.6330   -5.5377 H   0  0  0  0  0  0  0  0  0  0  0  0
   37.6978   43.1931    1.6122 H   0  0  0  0  0  0  0  0  0  0  0  0
   37.4583   45.2777    0.2950 H   0  0  0  0  0  0  0  0  0  0  0  0
   37.1253   45.1541   -2.1559 H   0  0  0  0  0  0  0  0  0  0  0  0
   33.6958   42.3079   -4.9223 H   0  0  0  0  0  0  0  0  0  0  0  0
   37.0595   42.9565   -3.2952 H   0  0  0  0  0  0  0  0  0  0  0  0
   32.1602   41.4458   -7.7347 H   0  0  0  0  0  0  0  0  0  0  0  0
   35.6611   41.6529   -4.4007 H   0  0  0  0  0  0  0  0  0  0  0  0
  1 24  2  0
  2 20  1  0
  2 21  1  0
  4  3  1  0
  4  5  1  0
  4 11  1  0
  6 13  1  0
  6 33  1  0
  6 35  1  0
  7  9  1  0
  7 10  1  0
  8  9  1  0
  8 32  1  0
  9 12  2  0
 10 11  1  0
 10 24  1  0
 13 14  1  0
 14 16  1  0
 14 22  2  0
 15 16  2  0
 15 17  1  0
 17 23  2  0
 18 19  2  0
 18 20  1  0
 18 31  1  0
 19 26  1  0
 21 30  2  0
 21 33  1  0
 22 23  1  0
 24 34  1  0
 25 35  2  0
 26 27  2  0
 27 28  1  0
 28 31  2  0
 35 29  1  1
 32 35  1  0
  3 36  1  0
  3 37  1  0
  3 38  1  0
  4 39  1  6
  5 40  1  0
  5 41  1  0
  5 42  1  0
  6 43  1  1
  7 44  1  0
  8 45  1  0
  8 46  1  0
 10 47  1  6
 11 48  1  0
 11 49  1  0
 13 50  1  0
 13 51  1  0
 15 52  1  0
 16 53  1  0
 17 54  1  0
 19 55  1  0
 20 56  1  0
 20 57  1  0
 22 58  1  0
 23 59  1  0
 26 60  1  0
 27 61  1  0
 28 62  1  0
 29 63  1  0
 31 64  1  0
 32 65  1  0
 33 66  1  0
M  CHG  1  34  -1
M  END
>  <filename_input>  (4) 
6YMS_OZH_docked.sdf

>  <pdb_id>  (4) 
6YMS_OZH

>  <pose_rank>  (4) 
3

>  <num_atoms_heavy>  (4) 
35

>  <num_torsions>  (4) 
14

>  <pose>  (4) 
[34.83298442965007, 40.20789568605279, -5.76930379874774, -1.9601365938709685, 1.5137004859565395, -2.4689219567686553, 1.6195111775388107, -1.418057060065849, 1.249451251265538, 0.5427545052105591, 2.6907302444347208, -0.5317471874597054, -1.93848216832283, 1.3633819322677478, 3.6416023230956123, -1.6978802507498245, -0.5698370814074524, 0.3677237243953057, 1.0384418343722617, -1.287394859575332]

>  <energy>  (4) 
-733.9169989681873

>  <inter_energy>  (4) 
-797.0350162234472

>  <intra_energy>  (4) 
67.85520651352417

>  <rmsd>  (4) 
5.69398

>  <sdf_rank>  (4) 
0

$$$$

     RDKit          3D

 66 67  0  0  0  0  0  0  0  0999 V2000
   33.9996   37.1528  -10.8420 O   0  0  0  0  0  0  0  0  0  0  0  0
   37.9286   39.3460   -2.0732 O   0  0  0  0  0  0  0  0  0  0  0  0
   33.7090   41.7723   -8.8775 C   0  0  0  0  0  0  0  0  0  0  0  0
   34.3099   40.5105   -8.2793 C   0  0  1  0  0  0  0  0  0  0  0  0
   34.9857   40.8104   -6.9515 C   0  0  0  0  0  0  0  0  0  0  0  0
   38.9289   36.1700   -3.3969 C   0  0  1  0  0  0  0  0  0  0  0  0
   35.0237   37.7461   -8.3626 N   0  0  0  0  0  0  0  0  0  0  0  0
   36.8387   36.8698   -7.0031 C   0  0  0  0  0  0  0  0  0  0  0  0
   35.3582   37.0807   -7.2533 C   0  0  0  0  0  0  0  0  0  0  0  0
   33.6352   38.0577   -8.6662 C   0  0  1  0  0  0  0  0  0  0  0  0
   33.2444   39.4330   -8.1182 C   0  0  0  0  0  0  0  0  0  0  0  0
   34.5271   36.6528   -6.4587 O   0  0  0  0  0  0  0  0  0  0  0  0
   40.4294   35.9447   -3.1388 C   0  0  0  0  0  0  0  0  0  0  0  0
   40.6271   35.0516   -1.9393 C   0  0  0  0  0  0  0  0  0  0  0  0
   39.8738   34.1849    0.1795 C   0  0  0  0  0  0  0  0  0  0  0  0
   39.7068   35.0347   -0.9010 C   0  0  0  0  0  0  0  0  0  0  0  0
   40.9632   33.3448    0.2375 C   0  0  0  0  0  0  0  0  0  0  0  0
   36.8655   41.3436   -1.2784 C   0  0  0  0  0  0  0  0  0  0  0  0
   36.3139   42.0142   -2.3586 C   0  0  0  0  0  0  0  0  0  0  0  0
   36.8621   39.8461   -1.2290 C   0  0  0  0  0  0  0  0  0  0  0  0
   38.1583   38.0227   -2.0117 C   0  0  0  0  0  0  0  0  0  0  0  0
   41.7228   34.2049   -1.8630 C   0  0  0  0  0  0  0  0  0  0  0  0
   41.8891   33.3572   -0.7814 C   0  0  0  0  0  0  0  0  0  0  0  0
   33.3657   38.0000  -10.1773 C   0  0  0  0  0  0  0  0  0  0  0  0
   38.0453   34.2618   -5.0284 O   0  0  0  0  0  0  0  0  0  0  0  0
   36.3003   43.3968   -2.3985 C   0  0  0  0  0  0  0  0  0  0  0  0
   36.8326   44.1258   -1.3588 C   0  0  0  0  0  0  0  0  0  0  0  0
   37.3894   43.4728   -0.2833 C   0  0  0  0  0  0  0  0  0  0  0  0
   39.7300   35.9328   -6.0062 O   0  0  0  0  0  0  0  0  0  0  0  0
   38.0109   37.3446   -1.0171 O   0  0  0  0  0  0  0  0  0  0  0  0
   37.4078   42.0900   -0.2415 C   0  0  0  0  0  0  0  0  0  0  0  0
   37.2120   36.6279   -5.6122 N   0  0  0  0  0  0  0  0  0  0  0  0
   38.5670   37.5662   -3.2041 N   0  0  0  0  0  0  0  0  0  0  0  0
   32.5225   38.8054  -10.6424 O   0  0  0  0  0  0  0  0  0  0  0  0
   38.5076   35.6440   -5.1938 P   0  0  2  0  0  0  0  0  0  0  0  0
   33.3886   42.4451   -8.0683 H   0  0  0  0  0  0  0  0  0  0  0  0
   34.4626   42.2786   -9.4985 H   0  0  0  0  0  0  0  0  0  0  0  0
   32.8409   41.5062   -9.4985 H   0  0  0  0  0  0  0  0  0  0  0  0
   35.0771   40.1323   -8.9710 H   0  0  0  0  0  0  0  0  0  0  0  0
   34.3205   40.5152   -6.1266 H   0  0  0  0  0  0  0  0  0  0  0  0
   35.9272   40.2456   -6.8834 H   0  0  0  0  0  0  0  0  0  0  0  0
   35.1985   41.8874   -6.8834 H   0  0  0  0  0  0  0  0  0  0  0  0
   38.3576   35.5622   -2.6798 H   0  0  0  0  0  0  0  0  0  0  0  0
   35.7627   38.0442   -9.0152 H   0  0  0  0  0  0  0  0  0  0  0  0
   37.1628   36.0024   -7.5969 H   0  0  0  0  0  0  0  0  0  0  0  0
   37.3309   37.8110   -7.2890 H   0  0  0  0  0  0  0  0  0  0  0  0
   33.0163   37.2936   -8.1731 H   0  0  0  0  0  0  0  0  0  0  0  0
   33.0263   39.3247   -7.0455 H   0  0  0  0  0  0  0  0  0  0  0  0
   32.3759   39.7655   -8.7057 H   0  0  0  0  0  0  0  0  0  0  0  0
   40.8823   35.4710   -4.0222 H   0  0  0  0  0  0  0  0  0  0  0  0
   40.9082   36.9157   -2.9441 H   0  0  0  0  0  0  0  0  0  0  0  0
   39.1342   34.1810    0.9938 H   0  0  0  0  0  0  0  0  0  0  0  0
   38.8345   35.7039   -0.9366 H   0  0  0  0  0  0  0  0  0  0  0  0
   41.0931   32.6668    1.0939 H   0  0  0  0  0  0  0  0  0  0  0  0
   35.8826   41.4412   -3.1926 H   0  0  0  0  0  0  0  0  0  0  0  0
   35.8954   39.4669   -1.5919 H   0  0  0  0  0  0  0  0  0  0  0  0
   37.0161   39.5070   -0.1940 H   0  0  0  0  0  0  0  0  0  0  0  0
   42.4686   34.2070   -2.6715 H   0  0  0  0  0  0  0  0  0  0  0  0
   42.7636   32.6915   -0.7357 H   0  0  0  0  0  0  0  0  0  0  0  0
   35.8626   43.9157   -3.2640 H   0  0  0  0  0  0  0  0  0  0  0  0
   36.8129   45.2252   -1.3878 H   0  0  0  0  0  0  0  0  0  0  0  0
   37.8213   44.0520    0.5461 H   0  0  0  0  0  0  0  0  0  0  0  0
   40.4930   36.1131   -5.4017 H   0  0  0  0  0  0  0  0  0  0  0  0
   37.8567   41.5772    0.6219 H   0  0  0  0  0  0  0  0  0  0  0  0
   37.4081   37.5521   -5.2020 H   0  0  0  0  0  0  0  0  0  0  0  0
   38.6262   38.2172   -4.0001 H   0  0  0  0  0  0  0  0  0  0  0  0
  1 24  2  0
  2 20  1  0
  2 21  1  0
  4  3  1  0
  4  5  1  0
  4 11  1  0
  6 13  1  0
  6 33  1  0
  6 35  1  0
  7  9  1  0
  7 10  1  0
  8  9  1  0
  8 32  1  0
  9 12  2  0
 10 11  1  0
 10 24  1  0
 13 14  1  0
 14 16  1  0
 14 22  2  0
 15 16  2  0
 15 17  1  0
 17 23  2  0
 18 19  2  0
 18 20  1  0
 18 31  1  0
 19 26  1  0
 21 30  2  0
 21 33  1  0
 22 23  1  0
 24 34  1  0
 25 35  2  0
 26 27  2  0
 27 28  1  0
 28 31  2  0
 35 29  1  6
 32 35  1  0
  3 36  1  0
  3 37  1  0
  3 38  1  0
  4 39  1  6
  5 40  1  0
  5 41  1  0
  5 42  1  0
  6 43  1  1
  7 44  1  0
  8 45  1  0
  8 46  1  0
 10 47  1  1
 11 48  1  0
 11 49  1  0
 13 50  1  0
 13 51  1  0
 15 52  1  0
 16 53  1  0
 17 54  1  0
 19 55  1  0
 20 56  1  0
 20 57  1  0
 22 58  1  0
 23 59  1  0
 26 60  1  0
 27 61  1  0
 28 62  1  0
 29 63  1  0
 31 64  1  0
 32 65  1  0
 33 66  1  0
M  CHG  1  34  -1
M  END
>  <filename_input>  (5) 
6YMS_OZH_docked.sdf

>  <pdb_id>  (5) 
6YMS_OZH

>  <pose_rank>  (5) 
4

>  <num_atoms_heavy>  (5) 
35

>  <num_torsions>  (5) 
14

>  <pose>  (5) 
[38.928861722854954, 36.16996583246334, -3.3969050227722137, 1.2861713491489188, 0.4102380836586291, 2.9039106581886456, 0.48529781931162724, -0.45990995912776844, 0.358110508159102, -1.579613861800334, -7.251546964146618, -2.06215828951328, -1.7946010104763606, -3.6709420666705768, -0.18766004325058513, -2.1129818695051683, 1.831523850163339, 5.507212565011422, 0.8367018152819079, 1.156043742711985]

>  <energy>  (5) 
-651.7844690614793

>  <inter_energy>  (5) 
-666.1298235586504

>  <intra_energy>  (5) 
23.336768575611487

>  <rmsd>  (5) 
6.2789

>  <sdf_rank>  (5) 
0

$$$$

     RDKit          3D

 66 67  0  0  0  0  0  0  0  0999 V2000
   38.3069   33.6264   -5.2387 O   0  0  0  0  0  0  0  0  0  0  0  0
   34.5549   41.3911   -7.1781 O   0  0  0  0  0  0  0  0  0  0  0  0
   40.7281   34.4076   -0.7484 C   0  0  0  0  0  0  0  0  0  0  0  0
   39.3677   33.9260   -1.2265 C   0  0  1  0  0  0  0  0  0  0  0  0
   38.2679   34.8676   -0.7648 C   0  0  0  0  0  0  0  0  0  0  0  0
   36.3159   41.0462   -4.0765 C   0  0  1  0  0  0  0  0  0  0  0  0
   38.4714   36.0727   -2.6672 N   0  0  0  0  0  0  0  0  0  0  0  0
   38.2983   38.2344   -1.5683 C   0  0  0  0  0  0  0  0  0  0  0  0
   38.9979   37.2929   -2.5291 C   0  0  0  0  0  0  0  0  0  0  0  0
   39.0996   35.0709   -3.5151 C   0  0  1  0  0  0  0  0  0  0  0  0
   39.3549   33.7738   -2.7427 C   0  0  0  0  0  0  0  0  0  0  0  0
   39.9992   37.6576   -3.1370 O   0  0  0  0  0  0  0  0  0  0  0  0
   36.8852   42.4621   -3.8762 C   0  0  0  0  0  0  0  0  0  0  0  0
   36.9387   42.8031   -2.4078 C   0  0  0  0  0  0  0  0  0  0  0  0
   36.2783   42.3802   -0.1290 C   0  0  0  0  0  0  0  0  0  0  0  0
   36.1958   42.0873   -1.4799 C   0  0  0  0  0  0  0  0  0  0  0  0
   37.1008   43.3932    0.3106 C   0  0  0  0  0  0  0  0  0  0  0  0
   33.9362   39.2477   -8.0586 C   0  0  0  0  0  0  0  0  0  0  0  0
   33.0441   38.7655   -7.1139 C   0  0  0  0  0  0  0  0  0  0  0  0
   35.0796   40.1249   -7.6487 C   0  0  0  0  0  0  0  0  0  0  0  0
   34.8556   41.7192   -5.9094 C   0  0  0  0  0  0  0  0  0  0  0  0
   37.7569   43.8251   -1.9502 C   0  0  0  0  0  0  0  0  0  0  0  0
   37.8370   44.1176   -0.5996 C   0  0  0  0  0  0  0  0  0  0  0  0
   38.2506   34.7800   -4.7617 C   0  0  0  0  0  0  0  0  0  0  0  0
   38.9257   40.5629   -3.8787 O   0  0  0  0  0  0  0  0  0  0  0  0
   31.9777   37.9698   -7.4919 C   0  0  0  0  0  0  0  0  0  0  0  0
   31.7868   37.6501   -8.8175 C   0  0  0  0  0  0  0  0  0  0  0  0
   32.6686   38.1166   -9.7650 C   0  0  0  0  0  0  0  0  0  0  0  0
   37.4574   38.6507   -4.7585 O   0  0  0  0  0  0  0  0  0  0  0  0
   34.3551   42.6409   -5.3004 O   0  0  0  0  0  0  0  0  0  0  0  0
   33.7382   38.9100   -9.3902 C   0  0  0  0  0  0  0  0  0  0  0  0
   37.4750   39.2678   -2.1899 N   0  0  0  0  0  0  0  0  0  0  0  0
   35.7800   40.8811   -5.4193 N   0  0  0  0  0  0  0  0  0  0  0  0
   37.5530   35.7201   -5.2146 O   0  0  0  0  0  0  0  0  0  0  0  0
   37.7050   39.7555   -3.7809 P   0  0  2  0  0  0  0  0  0  0  0  0
   40.7487   34.4149    0.3514 H   0  0  0  0  0  0  0  0  0  0  0  0
   41.5097   33.7316   -1.1253 H   0  0  0  0  0  0  0  0  0  0  0  0
   40.9102   35.4249   -1.1253 H   0  0  0  0  0  0  0  0  0  0  0  0
   39.1756   32.9384   -0.7818 H   0  0  0  0  0  0  0  0  0  0  0  0
   38.2418   34.8899    0.3347 H   0  0  0  0  0  0  0  0  0  0  0  0
   38.4669   35.8795   -1.1474 H   0  0  0  0  0  0  0  0  0  0  0  0
   37.2987   34.5150   -1.1474 H   0  0  0  0  0  0  0  0  0  0  0  0
   35.4981   40.8951   -3.3565 H   0  0  0  0  0  0  0  0  0  0  0  0
   37.6043   35.8366   -2.1638 H   0  0  0  0  0  0  0  0  0  0  0  0
   37.6502   37.6320   -0.9148 H   0  0  0  0  0  0  0  0  0  0  0  0
   39.0970   38.7666   -1.0309 H   0  0  0  0  0  0  0  0  0  0  0  0
   40.0663   35.4824   -3.8410 H   0  0  0  0  0  0  0  0  0  0  0  0
   40.3317   33.3759   -3.0551 H   0  0  0  0  0  0  0  0  0  0  0  0
   38.5171   33.1017   -2.9799 H   0  0  0  0  0  0  0  0  0  0  0  0
   37.9008   42.5074   -4.2964 H   0  0  0  0  0  0  0  0  0  0  0  0
   36.2327   43.1852   -4.3875 H   0  0  0  0  0  0  0  0  0  0  0  0
   35.6851   41.8021    0.5948 H   0  0  0  0  0  0  0  0  0  0  0  0
   35.5337   41.2780   -1.8213 H   0  0  0  0  0  0  0  0  0  0  0  0
   37.1693   43.6225    1.3843 H   0  0  0  0  0  0  0  0  0  0  0  0
   33.1855   39.0182   -6.0527 H   0  0  0  0  0  0  0  0  0  0  0  0
   35.7407   40.2967   -8.5109 H   0  0  0  0  0  0  0  0  0  0  0  0
   35.6537   39.6382   -6.8464 H   0  0  0  0  0  0  0  0  0  0  0  0
   38.3493   44.4102   -2.6690 H   0  0  0  0  0  0  0  0  0  0  0  0
   38.4909   44.9312   -0.2525 H   0  0  0  0  0  0  0  0  0  0  0  0
   31.2798   37.5909   -6.7308 H   0  0  0  0  0  0  0  0  0  0  0  0
   30.9331   37.0246   -9.1176 H   0  0  0  0  0  0  0  0  0  0  0  0
   32.5227   37.8579  -10.8241 H   0  0  0  0  0  0  0  0  0  0  0  0
   37.2694   37.8117   -4.2677 H   0  0  0  0  0  0  0  0  0  0  0  0
   34.4387   39.2767  -10.1550 H   0  0  0  0  0  0  0  0  0  0  0  0
   36.5017   38.9362   -2.1284 H   0  0  0  0  0  0  0  0  0  0  0  0
   36.1178   40.1043   -6.0053 H   0  0  0  0  0  0  0  0  0  0  0  0
  1 24  2  0
  2 20  1  0
  2 21  1  0
  4  3  1  0
  4  5  1  0
  4 11  1  0
  6 13  1  0
  6 33  1  0
  6 35  1  0
  7  9  1  0
  7 10  1  0
  8  9  1  0
  8 32  1  0
  9 12  2  0
 10 11  1  0
 10 24  1  0
 13 14  1  0
 14 16  1  0
 14 22  2  0
 15 16  2  0
 15 17  1  0
 17 23  2  0
 18 19  2  0
 18 20  1  0
 18 31  1  0
 19 26  1  0
 21 30  2  0
 21 33  1  0
 22 23  1  0
 24 34  1  0
 25 35  2  0
 26 27  2  0
 27 28  1  0
 28 31  2  0
 35 29  1  6
 32 35  1  0
  3 36  1  0
  3 37  1  0
  3 38  1  0
  4 39  1  1
  5 40  1  0
  5 41  1  0
  5 42  1  0
  6 43  1  1
  7 44  1  0
  8 45  1  0
  8 46  1  0
 10 47  1  6
 11 48  1  0
 11 49  1  0
 13 50  1  0
 13 51  1  0
 15 52  1  0
 16 53  1  0
 17 54  1  0
 19 55  1  0
 20 56  1  0
 20 57  1  0
 22 58  1  0
 23 59  1  0
 26 60  1  0
 27 61  1  0
 28 62  1  0
 29 63  1  0
 31 64  1  0
 32 65  1  0
 33 66  1  0
M  CHG  1  34  -1
M  END
>  <filename_input>  (6) 
6YMS_OZH_docked.sdf

>  <pdb_id>  (6) 
6YMS_OZH

>  <pose_rank>  (6) 
5

>  <num_atoms_heavy>  (6) 
35

>  <num_torsions>  (6) 
14

>  <pose>  (6) 
[36.31589384432142, 41.046167004589016, -4.076494997168949, -0.19060725365116582, 2.582794110291041, 2.100976571263582, 1.1141736792362213, 3.435636872148888, -6.8334007266030055, 2.155526552105755, -2.923328018373026, -1.7644065345386077, 1.5331251511193118, -1.937289569250564, 0.40704411251829725, 0.9746520868606161, 0.7793618009657084, 1.7766077958552051, 1.589158910274247, 1.361321214820234]

>  <energy>  (6) 
-655.0767704043676

>  <inter_energy>  (6) 
-785.7503357160108

>  <intra_energy>  (6) 
145.8378395510911

>  <rmsd>  (6) 
7.30092

>  <sdf_rank>  (6) 
0

$$$$

     RDKit          3D

 66 67  0  0  0  0  0  0  0  0999 V2000
   33.6852   41.4073   -6.7801 O   0  0  0  0  0  0  0  0  0  0  0  0
   37.6584   36.2434   -0.8841 O   0  0  0  0  0  0  0  0  0  0  0  0
   32.3469   39.4396  -11.0801 C   0  0  0  0  0  0  0  0  0  0  0  0
   32.7267   38.2554  -10.2057 C   0  0  1  0  0  0  0  0  0  0  0  0
   33.9997   37.5967  -10.7108 C   0  0  0  0  0  0  0  0  0  0  0  0
   38.0519   39.5351   -2.2442 C   0  0  1  0  0  0  0  0  0  0  0  0
   35.0139   39.3000   -7.6915 N   0  0  0  0  0  0  0  0  0  0  0  0
   36.0312   38.4406   -5.6575 C   0  0  0  0  0  0  0  0  0  0  0  0
   34.8066   38.8598   -6.4471 C   0  0  0  0  0  0  0  0  0  0  0  0
   33.9158   39.7859   -8.5132 C   0  0  1  0  0  0  0  0  0  0  0  0
   32.8758   38.6877   -8.7520 C   0  0  0  0  0  0  0  0  0  0  0  0
   33.6898   38.7907   -5.9439 O   0  0  0  0  0  0  0  0  0  0  0  0
   36.8158   40.1620   -1.5749 C   0  0  0  0  0  0  0  0  0  0  0  0
   37.1728   41.4884   -0.9514 C   0  0  0  0  0  0  0  0  0  0  0  0
   37.3400   43.8893   -1.0759 C   0  0  0  0  0  0  0  0  0  0  0  0
   37.0472   42.6712   -1.6659 C   0  0  0  0  0  0  0  0  0  0  0  0
   37.7648   43.9402    0.2328 C   0  0  0  0  0  0  0  0  0  0  0  0
   39.0208   34.3883   -1.5582 C   0  0  0  0  0  0  0  0  0  0  0  0
   40.1593   34.4159   -0.7683 C   0  0  0  0  0  0  0  0  0  0  0  0
   38.3720   35.6632   -2.0040 C   0  0  0  0  0  0  0  0  0  0  0  0
   37.4113   37.5628   -0.9619 C   0  0  0  0  0  0  0  0  0  0  0  0
   37.6087   41.5554    0.3634 C   0  0  0  0  0  0  0  0  0  0  0  0
   37.9025   42.7738    0.9511 C   0  0  0  0  0  0  0  0  0  0  0  0
   33.2446   41.0146   -7.8815 C   0  0  0  0  0  0  0  0  0  0  0  0
   38.8647   38.7462   -4.6527 O   0  0  0  0  0  0  0  0  0  0  0  0
   40.7503   33.2405   -0.3412 C   0  0  0  0  0  0  0  0  0  0  0  0
   40.2091   32.0244   -0.6934 C   0  0  0  0  0  0  0  0  0  0  0  0
   39.0829   31.9824   -1.4826 C   0  0  0  0  0  0  0  0  0  0  0  0
   38.1540   41.2010   -4.4171 O   0  0  0  0  0  0  0  0  0  0  0  0
   36.6230   38.1574   -0.2577 O   0  0  0  0  0  0  0  0  0  0  0  0
   38.4910   33.1560   -1.9146 C   0  0  0  0  0  0  0  0  0  0  0  0
   36.3484   39.2745   -4.5014 N   0  0  0  0  0  0  0  0  0  0  0  0
   38.1621   38.1202   -1.9224 N   0  0  0  0  0  0  0  0  0  0  0  0
   32.3010   41.5450   -8.5172 O   0  0  0  0  0  0  0  0  0  0  0  0
   37.9205   39.7483   -4.1469 P   0  0  2  0  0  0  0  0  0  0  0  0
   32.0731   40.2932  -10.4425 H   0  0  0  0  0  0  0  0  0  0  0  0
   33.2016   39.7156  -11.7151 H   0  0  0  0  0  0  0  0  0  0  0  0
   31.4911   39.1669  -11.7151 H   0  0  0  0  0  0  0  0  0  0  0  0
   31.9173   37.5125  -10.2605 H   0  0  0  0  0  0  0  0  0  0  0  0
   34.6130   37.2793   -9.8546 H   0  0  0  0  0  0  0  0  0  0  0  0
   33.7410   36.7193  -11.3218 H   0  0  0  0  0  0  0  0  0  0  0  0
   34.5665   38.3146  -11.3218 H   0  0  0  0  0  0  0  0  0  0  0  0
   38.9492   40.0469   -1.8661 H   0  0  0  0  0  0  0  0  0  0  0  0
   35.9693   39.2954   -8.0764 H   0  0  0  0  0  0  0  0  0  0  0  0
   35.8688   37.4130   -5.3000 H   0  0  0  0  0  0  0  0  0  0  0  0
   36.8836   38.5406   -6.3455 H   0  0  0  0  0  0  0  0  0  0  0  0
   34.3430   40.0827   -9.4824 H   0  0  0  0  0  0  0  0  0  0  0  0
   31.9005   39.0581   -8.4032 H   0  0  0  0  0  0  0  0  0  0  0  0
   33.2264   37.8033   -8.1998 H   0  0  0  0  0  0  0  0  0  0  0  0
   36.0325   40.3161   -2.3317 H   0  0  0  0  0  0  0  0  0  0  0  0
   36.4527   39.4838   -0.7886 H   0  0  0  0  0  0  0  0  0  0  0  0
   37.2330   44.8187   -1.6544 H   0  0  0  0  0  0  0  0  0  0  0  0
   36.7111   42.6410   -2.7128 H   0  0  0  0  0  0  0  0  0  0  0  0
   37.9931   44.9084    0.7023 H   0  0  0  0  0  0  0  0  0  0  0  0
   40.5974   35.3822   -0.4782 H   0  0  0  0  0  0  0  0  0  0  0  0
   37.6671   35.4524   -2.8217 H   0  0  0  0  0  0  0  0  0  0  0  0
   39.1386   36.3662   -2.3619 H   0  0  0  0  0  0  0  0  0  0  0  0
   37.7223   40.6295    0.9462 H   0  0  0  0  0  0  0  0  0  0  0  0
   38.2471   42.8102    1.9951 H   0  0  0  0  0  0  0  0  0  0  0  0
   41.6559   33.2774    0.2821 H   0  0  0  0  0  0  0  0  0  0  0  0
   40.6749   31.0906   -0.3454 H   0  0  0  0  0  0  0  0  0  0  0  0
   38.6515   31.0125   -1.7712 H   0  0  0  0  0  0  0  0  0  0  0  0
   38.2323   41.6878   -3.5586 H   0  0  0  0  0  0  0  0  0  0  0  0
   37.5918   33.1119   -2.5466 H   0  0  0  0  0  0  0  0  0  0  0  0
   35.8048   40.1420   -4.6145 H   0  0  0  0  0  0  0  0  0  0  0  0
   38.8308   37.5350   -2.4433 H   0  0  0  0  0  0  0  0  0  0  0  0
  1 24  2  0
  2 20  1  0
  2 21  1  0
  4  3  1  0
  4  5  1  0
  4 11  1  0
  6 13  1  0
  6 33  1  0
  6 35  1  0
  7  9  1  0
  7 10  1  0
  8  9  1  0
  8 32  1  0
  9 12  2  0
 10 11  1  0
 10 24  1  0
 13 14  1  0
 14 16  1  0
 14 22  2  0
 15 16  2  0
 15 17  1  0
 17 23  2  0
 18 19  2  0
 18 20  1  0
 18 31  1  0
 19 26  1  0
 21 30  2  0
 21 33  1  0
 22 23  1  0
 24 34  1  0
 25 35  2  0
 26 27  2  0
 27 28  1  0
 28 31  2  0
 35 29  1  1
 32 35  1  0
  3 36  1  0
  3 37  1  0
  3 38  1  0
  4 39  1  1
  5 40  1  0
  5 41  1  0
  5 42  1  0
  6 43  1  1
  7 44  1  0
  8 45  1  0
  8 46  1  0
 10 47  1  6
 11 48  1  0
 11 49  1  0
 13 50  1  0
 13 51  1  0
 15 52  1  0
 16 53  1  0
 17 54  1  0
 19 55  1  0
 20 56  1  0
 20 57  1  0
 22 58  1  0
 23 59  1  0
 26 60  1  0
 27 61  1  0
 28 62  1  0
 29 63  1  0
 31 64  1  0
 32 65  1  0
 33 66  1  0
M  CHG  1  34  -1
M  END
>  <filename_input>  (7) 
6YMS_OZH_docked.sdf

>  <pdb_id>  (7) 
6YMS_OZH

>  <pose_rank>  (7) 
6

>  <num_atoms_heavy>  (7) 
35

>  <num_torsions>  (7) 
14

>  <pose>  (7) 
[38.05193337690997, 39.53513595369557, -2.244237998784919, 0.03277049129052644, -0.5080073578599631, -0.14148874294986868, 1.8634151218636361, 2.99734527675923, 0.11102065932070172, 2.017243718151339, 0.8444189732434537, -0.9801238341818429, -0.4822665635657733, -4.434859297801974, -2.8603334199235606, -2.7306592329435944, -0.8917347155502048, 2.2025495112184212, 1.18837691153415, -3.0186639130932678]

>  <energy>  (7) 
-631.2570432620917

>  <inter_energy>  (7) 
-738.042232728344

>  <intra_energy>  (7) 
106.11726836397837

>  <rmsd>  (7) 
2.97113

>  <sdf_rank>  (7) 
0

$$$$

     RDKit          3D

 66 67  0  0  0  0  0  0  0  0999 V2000
   37.3484   42.0166    0.1127 O   0  0  0  0  0  0  0  0  0  0  0  0
   33.1584   37.5805  -10.6966 O   0  0  0  0  0  0  0  0  0  0  0  0
   39.3202   38.6149   -3.8647 C   0  0  0  0  0  0  0  0  0  0  0  0
   38.1973   38.9395   -2.8927 C   0  0  1  0  0  0  0  0  0  0  0  0
   38.0705   37.8582   -1.8325 C   0  0  0  0  0  0  0  0  0  0  0  0
   34.4214   39.0882   -7.7013 C   0  0  1  0  0  0  0  0  0  0  0  0
   36.7017   41.6632   -3.3879 N   0  0  0  0  0  0  0  0  0  0  0  0
   35.0473   42.2219   -5.0795 C   0  0  0  0  0  0  0  0  0  0  0  0
   35.4016   41.7399   -3.6862 C   0  0  0  0  0  0  0  0  0  0  0  0
   37.1523   41.1538   -2.1016 C   0  0  1  0  0  0  0  0  0  0  0  0
   38.4180   40.3059   -2.2550 C   0  0  0  0  0  0  0  0  0  0  0  0
   34.5179   41.4388   -2.8901 O   0  0  0  0  0  0  0  0  0  0  0  0
   33.9497   38.3273   -6.4493 C   0  0  0  0  0  0  0  0  0  0  0  0
   33.8905   36.8458   -6.7270 C   0  0  0  0  0  0  0  0  0  0  0  0
   32.6261   34.8220   -7.0636 C   0  0  0  0  0  0  0  0  0  0  0  0
   32.6770   36.1744   -6.7704 C   0  0  0  0  0  0  0  0  0  0  0  0
   33.7862   34.1237   -7.3134 C   0  0  0  0  0  0  0  0  0  0  0  0
   30.9572   37.8189  -11.6185 C   0  0  0  0  0  0  0  0  0  0  0  0
   30.2878   36.6054  -11.6312 C   0  0  0  0  0  0  0  0  0  0  0  0
   31.8577   38.1803  -10.4767 C   0  0  0  0  0  0  0  0  0  0  0  0
   34.0728   37.7848   -9.7323 C   0  0  0  0  0  0  0  0  0  0  0  0
   35.0507   36.1273   -6.9738 C   0  0  0  0  0  0  0  0  0  0  0  0
   34.9982   34.7751   -7.2651 C   0  0  0  0  0  0  0  0  0  0  0  0
   37.4037   42.2947   -1.1043 C   0  0  0  0  0  0  0  0  0  0  0  0
   32.8827   41.1029   -6.8909 O   0  0  0  0  0  0  0  0  0  0  0  0
   29.4426   36.2767  -12.6756 C   0  0  0  0  0  0  0  0  0  0  0  0
   29.2520   37.1574  -13.7168 C   0  0  0  0  0  0  0  0  0  0  0  0
   29.9153   38.3628  -13.7201 C   0  0  0  0  0  0  0  0  0  0  0  0
   34.6403   41.6365   -8.6833 O   0  0  0  0  0  0  0  0  0  0  0  0
   35.1382   37.2098   -9.6619 O   0  0  0  0  0  0  0  0  0  0  0  0
   30.7642   38.6934  -12.6788 C   0  0  0  0  0  0  0  0  0  0  0  0
   35.3460   41.2880   -6.1616 N   0  0  0  0  0  0  0  0  0  0  0  0
   33.6380   38.7138   -8.8691 N   0  0  0  0  0  0  0  0  0  0  0  0
   37.6527   43.4295   -1.5795 O   0  0  0  0  0  0  0  0  0  0  0  0
   34.2531   40.9757   -7.3984 P   0  0  2  0  0  0  0  0  0  0  0  0
   40.2281   38.3524   -3.3017 H   0  0  0  0  0  0  0  0  0  0  0  0
   39.0231   37.7658   -4.4979 H   0  0  0  0  0  0  0  0  0  0  0  0
   39.5220   39.4915   -4.4979 H   0  0  0  0  0  0  0  0  0  0  0  0
   37.2528   38.9731   -3.4556 H   0  0  0  0  0  0  0  0  0  0  0  0
   38.1241   38.3160   -0.8337 H   0  0  0  0  0  0  0  0  0  0  0  0
   37.1057   37.3426   -1.9481 H   0  0  0  0  0  0  0  0  0  0  0  0
   38.8898   37.1334   -1.9481 H   0  0  0  0  0  0  0  0  0  0  0  0
   35.4728   38.8266   -7.8916 H   0  0  0  0  0  0  0  0  0  0  0  0
   37.3982   41.9704   -4.0817 H   0  0  0  0  0  0  0  0  0  0  0  0
   33.9678   42.4321   -5.1013 H   0  0  0  0  0  0  0  0  0  0  0  0
   35.6745   43.1070   -5.2620 H   0  0  0  0  0  0  0  0  0  0  0  0
   36.3478   40.5166   -1.7056 H   0  0  0  0  0  0  0  0  0  0  0  0
   38.8499   40.1514   -1.2552 H   0  0  0  0  0  0  0  0  0  0  0  0
   39.0827   40.8610   -2.9333 H   0  0  0  0  0  0  0  0  0  0  0  0
   34.6536   38.5139   -5.6248 H   0  0  0  0  0  0  0  0  0  0  0  0
   32.9446   38.6798   -6.1744 H   0  0  0  0  0  0  0  0  0  0  0  0
   31.6562   34.3041   -7.0969 H   0  0  0  0  0  0  0  0  0  0  0  0
   31.7447   36.7226   -6.5697 H   0  0  0  0  0  0  0  0  0  0  0  0
   33.7449   33.0504   -7.5506 H   0  0  0  0  0  0  0  0  0  0  0  0
   30.4302   35.8963  -10.8023 H   0  0  0  0  0  0  0  0  0  0  0  0
   31.4310   37.8021   -9.5360 H   0  0  0  0  0  0  0  0  0  0  0  0
   31.9576   39.2738  -10.4126 H   0  0  0  0  0  0  0  0  0  0  0  0
   36.0243   36.6380   -6.9375 H   0  0  0  0  0  0  0  0  0  0  0  0
   35.9275   34.2193   -7.4586 H   0  0  0  0  0  0  0  0  0  0  0  0
   28.9208   35.3084  -12.6744 H   0  0  0  0  0  0  0  0  0  0  0  0
   28.5725   36.8984  -14.5421 H   0  0  0  0  0  0  0  0  0  0  0  0
   29.7703   39.0659  -14.5534 H   0  0  0  0  0  0  0  0  0  0  0  0
   35.1310   42.4741   -8.4889 H   0  0  0  0  0  0  0  0  0  0  0  0
   31.2912   39.6588  -12.6914 H   0  0  0  0  0  0  0  0  0  0  0  0
   36.2021   41.6376   -6.6153 H   0  0  0  0  0  0  0  0  0  0  0  0
   32.7307   39.1721   -9.0359 H   0  0  0  0  0  0  0  0  0  0  0  0
  1 24  2  0
  2 20  1  0
  2 21  1  0
  4  3  1  0
  4  5  1  0
  4 11  1  0
  6 13  1  0
  6 33  1  0
  6 35  1  0
  7  9  1  0
  7 10  1  0
  8  9  1  0
  8 32  1  0
  9 12  2  0
 10 11  1  0
 10 24  1  0
 13 14  1  0
 14 16  1  0
 14 22  2  0
 15 16  2  0
 15 17  1  0
 17 23  2  0
 18 19  2  0
 18 20  1  0
 18 31  1  0
 19 26  1  0
 21 30  2  0
 21 33  1  0
 22 23  1  0
 24 34  1  0
 25 35  2  0
 26 27  2  0
 27 28  1  0
 28 31  2  0
 35 29  1  6
 32 35  1  0
  3 36  1  0
  3 37  1  0
  3 38  1  0
  4 39  1  6
  5 40  1  0
  5 41  1  0
  5 42  1  0
  6 43  1  6
  7 44  1  0
  8 45  1  0
  8 46  1  0
 10 47  1  1
 11 48  1  0
 11 49  1  0
 13 50  1  0
 13 51  1  0
 15 52  1  0
 16 53  1  0
 17 54  1  0
 19 55  1  0
 20 56  1  0
 20 57  1  0
 22 58  1  0
 23 59  1  0
 26 60  1  0
 27 61  1  0
 28 62  1  0
 29 63  1  0
 31 64  1  0
 32 65  1  0
 33 66  1  0
M  CHG  1  34  -1
M  END
>  <filename_input>  (8) 
6YMS_OZH_docked.sdf

>  <pdb_id>  (8) 
6YMS_OZH

>  <pose_rank>  (8) 
7

>  <num_atoms_heavy>  (8) 
35

>  <num_torsions>  (8) 
14

>  <pose>  (8) 
[34.42142942171193, 39.08815889679579, -7.701305413362815, -3.7236230527979024, -0.93463464721595, 2.646535023530376, 0.3812381354326084, -3.2185662182383137, 0.5217841567527703, -1.5001714492738407, 40.49646419598634, 24.101251413875918, 16.83184567864863, 1.1038769511210533, 6.966007771515274, 0.023629924023868272, -12.708062461767266, -6.913077229875091, 24.857031047036564, -0.28401203874767295]

>  <energy>  (8) 
-614.7985693263952

>  <inter_energy>  (8) 
-656.3152527000298

>  <intra_energy>  (8) 
43.03431941833967

>  <rmsd>  (8) 
9.65284

>  <sdf_rank>  (8) 
0

$$$$

     RDKit          3D

 66 67  0  0  0  0  0  0  0  0999 V2000
   35.1043   41.9947    0.1825 O   0  0  0  0  0  0  0  0  0  0  0  0
   31.8910   39.4298   -9.6723 O   0  0  0  0  0  0  0  0  0  0  0  0
   38.7878   43.1676    0.8670 C   0  0  0  0  0  0  0  0  0  0  0  0
   37.5557   43.8892    0.3448 C   0  0  1  0  0  0  0  0  0  0  0  0
   37.7581   45.3950    0.3741 C   0  0  0  0  0  0  0  0  0  0  0  0
   34.5244   39.6970   -7.2569 C   0  0  1  0  0  0  0  0  0  0  0  0
   36.5139   41.5445   -2.5092 N   0  0  0  0  0  0  0  0  0  0  0  0
   36.6661   40.9747   -4.8678 C   0  0  0  0  0  0  0  0  0  0  0  0
   37.3250   41.2619   -3.5327 C   0  0  0  0  0  0  0  0  0  0  0  0
   37.0441   41.8965   -1.2007 C   0  0  1  0  0  0  0  0  0  0  0  0
   37.2102   43.4122   -1.0607 C   0  0  0  0  0  0  0  0  0  0  0  0
   38.5467   41.2321   -3.4241 O   0  0  0  0  0  0  0  0  0  0  0  0
   34.0942   38.5478   -6.3278 C   0  0  0  0  0  0  0  0  0  0  0  0
   34.9768   37.3431   -6.5402 C   0  0  0  0  0  0  0  0  0  0  0  0
   35.2859   35.0728   -7.2872 C   0  0  0  0  0  0  0  0  0  0  0  0
   34.4632   36.1629   -7.0587 C   0  0  0  0  0  0  0  0  0  0  0  0
   36.6299   35.1471   -6.9977 C   0  0  0  0  0  0  0  0  0  0  0  0
   31.9222   38.5746  -11.9127 C   0  0  0  0  0  0  0  0  0  0  0  0
   30.5488   38.4471  -11.7773 C   0  0  0  0  0  0  0  0  0  0  0  0
   32.7406   39.1974  -10.8231 C   0  0  0  0  0  0  0  0  0  0  0  0
   32.4604   39.2351   -8.4699 C   0  0  0  0  0  0  0  0  0  0  0  0
   36.3311   37.4000   -6.2470 C   0  0  0  0  0  0  0  0  0  0  0  0
   37.1517   36.3088   -6.4746 C   0  0  0  0  0  0  0  0  0  0  0  0
   36.1508   41.3609   -0.0718 C   0  0  0  0  0  0  0  0  0  0  0  0
   32.9275   41.4408   -6.0350 O   0  0  0  0  0  0  0  0  0  0  0  0
   29.7889   37.8882  -12.7889 C   0  0  0  0  0  0  0  0  0  0  0  0
   30.3903   37.4547  -13.9492 C   0  0  0  0  0  0  0  0  0  0  0  0
   31.7537   37.5692  -14.0942 C   0  0  0  0  0  0  0  0  0  0  0  0
   35.0098   42.3928   -7.1946 O   0  0  0  0  0  0  0  0  0  0  0  0
   31.9212   38.6812   -7.5354 O   0  0  0  0  0  0  0  0  0  0  0  0
   32.5174   38.1245  -13.0830 C   0  0  0  0  0  0  0  0  0  0  0  0
   35.2126   41.1122   -4.8928 N   0  0  0  0  0  0  0  0  0  0  0  0
   33.7038   39.7359   -8.4581 N   0  0  0  0  0  0  0  0  0  0  0  0
   36.5301   40.3189    0.5165 O   0  0  0  0  0  0  0  0  0  0  0  0
   34.3643   41.3645   -6.3206 P   0  0  2  0  0  0  0  0  0  0  0  0
   38.7775   43.1736    1.9670 H   0  0  0  0  0  0  0  0  0  0  0  0
   38.7847   42.1286    0.5060 H   0  0  0  0  0  0  0  0  0  0  0  0
   39.6925   43.6786    0.5060 H   0  0  0  0  0  0  0  0  0  0  0  0
   36.7095   43.6491    1.0053 H   0  0  0  0  0  0  0  0  0  0  0  0
   37.8043   45.7386    1.4180 H   0  0  0  0  0  0  0  0  0  0  0  0
   38.6984   45.6487   -0.1373 H   0  0  0  0  0  0  0  0  0  0  0  0
   36.9181   45.8879   -0.1373 H   0  0  0  0  0  0  0  0  0  0  0  0
   35.5693   39.5291   -7.5569 H   0  0  0  0  0  0  0  0  0  0  0  0
   35.4939   41.5126   -2.6492 H   0  0  0  0  0  0  0  0  0  0  0  0
   37.0854   41.6704   -5.6095 H   0  0  0  0  0  0  0  0  0  0  0  0
   36.8736   39.9167   -5.0861 H   0  0  0  0  0  0  0  0  0  0  0  0
   38.0340   41.4247   -1.1146 H   0  0  0  0  0  0  0  0  0  0  0  0
   36.2659   43.8894   -1.3617 H   0  0  0  0  0  0  0  0  0  0  0  0
   38.0602   43.6914   -1.7007 H   0  0  0  0  0  0  0  0  0  0  0  0
   34.1761   38.8773   -5.2815 H   0  0  0  0  0  0  0  0  0  0  0  0
   33.0539   38.2735   -6.5567 H   0  0  0  0  0  0  0  0  0  0  0  0
   34.8645   34.1448   -7.7012 H   0  0  0  0  0  0  0  0  0  0  0  0
   33.3903   36.0925   -7.2908 H   0  0  0  0  0  0  0  0  0  0  0  0
   37.2838   34.2823   -7.1836 H   0  0  0  0  0  0  0  0  0  0  0  0
   30.0580   38.7938  -10.8559 H   0  0  0  0  0  0  0  0  0  0  0  0
   33.1564   40.1534  -11.1741 H   0  0  0  0  0  0  0  0  0  0  0  0
   33.5665   38.5254  -10.5469 H   0  0  0  0  0  0  0  0  0  0  0  0
   36.7582   38.3233   -5.8285 H   0  0  0  0  0  0  0  0  0  0  0  0
   38.2240   36.3699   -6.2368 H   0  0  0  0  0  0  0  0  0  0  0  0
   28.7002   37.7898  -12.6661 H   0  0  0  0  0  0  0  0  0  0  0  0
   29.7835   37.0187  -14.7565 H   0  0  0  0  0  0  0  0  0  0  0  0
   32.2382   37.2180  -15.0172 H   0  0  0  0  0  0  0  0  0  0  0  0
   35.4421   43.0814   -6.6298 H   0  0  0  0  0  0  0  0  0  0  0  0
   33.6069   38.2102  -13.2078 H   0  0  0  0  0  0  0  0  0  0  0  0
   34.8344   40.2465   -4.4825 H   0  0  0  0  0  0  0  0  0  0  0  0
   34.0863   40.1568   -9.3168 H   0  0  0  0  0  0  0  0  0  0  0  0
  1 24  2  0
  2 20  1  0
  2 21  1  0
  4  3  1  0
  4  5  1  0
  4 11  1  0
  6 13  1  0
  6 33  1  0
  6 35  1  0
  7  9  1  0
  7 10  1  0
  8  9  1  0
  8 32  1  0
  9 12  2  0
 10 11  1  0
 10 24  1  0
 13 14  1  0
 14 16  1  0
 14 22  2  0
 15 16  2  0
 15 17  1  0
 17 23  2  0
 18 19  2  0
 18 20  1  0
 18 31  1  0
 19 26  1  0
 21 30  2  0
 21 33  1  0
 22 23  1  0
 24 34  1  0
 25 35  2  0
 26 27  2  0
 27 28  1  0
 28 31  2  0
 35 29  1  6
 32 35  1  0
  3 36  1  0
  3 37  1  0
  3 38  1  0
  4 39  1  1
  5 40  1  0
  5 41  1  0
  5 42  1  0
  6 43  1  6
  7 44  1  0
  8 45  1  0
  8 46  1  0
 10 47  1  1
 11 48  1  0
 11 49  1  0
 13 50  1  0
 13 51  1  0
 15 52  1  0
 16 53  1  0
 17 54  1  0
 19 55  1  0
 20 56  1  0
 20 57  1  0
 22 58  1  0
 23 59  1  0
 26 60  1  0
 27 61  1  0
 28 62  1  0
 29 63  1  0
 31 64  1  0
 32 65  1  0
 33 66  1  0
M  CHG  1  34  -1
M  END
>  <filename_input>  (9) 
6YMS_OZH_docked.sdf

>  <pdb_id>  (9) 
6YMS_OZH

>  <pose_rank>  (9) 
8

>  <num_atoms_heavy>  (9) 
35

>  <num_torsions>  (9) 
14

>  <pose>  (9) 
[34.524409045936075, 39.6970019381873, -7.256894625228432, -3.6541067445932067, -1.2171476234436964, 2.0694184442769954, 2.5094279638723864, 3.9841260859634926, -0.1543220357527042, -2.831025786985941, 2.5706886451533615, 2.6393625951880253, -1.6103963804354113, -0.07808007082168869, 6.094883110102858, 2.2102800203148636, -2.171093275480343, -2.1182023233698692, 0.5256091005753282, -0.32619907256659714]

>  <energy>  (9) 
-754.9822947226977

>  <inter_energy>  (9) 
-792.9576430311918

>  <intra_energy>  (9) 
54.875358451026486

>  <rmsd>  (9) 
9.84537

>  <sdf_rank>  (9) 
0

$$$$

     RDKit          3D

 66 67  0  0  0  0  0  0  0  0999 V2000
   41.0612   34.6048   -0.5099 O   0  0  0  0  0  0  0  0  0  0  0  0
   34.5224   40.7484   -6.9481 O   0  0  0  0  0  0  0  0  0  0  0  0
   42.0130   33.9529   -4.6595 C   0  0  0  0  0  0  0  0  0  0  0  0
   42.3919   34.1672   -3.2028 C   0  0  1  0  0  0  0  0  0  0  0  0
   43.8593   33.8455   -2.9729 C   0  0  0  0  0  0  0  0  0  0  0  0
   35.5680   41.0752   -3.5363 C   0  0  1  0  0  0  0  0  0  0  0  0
   40.2754   37.2724   -2.6143 N   0  0  0  0  0  0  0  0  0  0  0  0
   39.3788   39.2354   -3.7338 C   0  0  0  0  0  0  0  0  0  0  0  0
   39.5925   37.7359   -3.6651 C   0  0  0  0  0  0  0  0  0  0  0  0
   40.5907   35.8580   -2.4832 C   0  0  1  0  0  0  0  0  0  0  0  0
   42.0713   35.5925   -2.7692 C   0  0  0  0  0  0  0  0  0  0  0  0
   39.1513   37.0049   -4.5461 O   0  0  0  0  0  0  0  0  0  0  0  0
   35.0002   42.1066   -2.5450 C   0  0  0  0  0  0  0  0  0  0  0  0
   35.9521   42.3051   -1.3918 C   0  0  0  0  0  0  0  0  0  0  0  0
   37.0850   41.4670    0.5632 C   0  0  0  0  0  0  0  0  0  0  0  0
   36.1813   41.2924   -0.4713 C   0  0  0  0  0  0  0  0  0  0  0  0
   37.7677   42.6557    0.6927 C   0  0  0  0  0  0  0  0  0  0  0  0
   33.3245   39.3541   -8.4885 C   0  0  0  0  0  0  0  0  0  0  0  0
   32.4709   40.1147   -9.2718 C   0  0  0  0  0  0  0  0  0  0  0  0
   34.6722   39.8801   -8.0986 C   0  0  0  0  0  0  0  0  0  0  0  0
   35.1197   40.3362   -5.8162 C   0  0  0  0  0  0  0  0  0  0  0  0
   36.6419   43.4990   -1.2438 C   0  0  0  0  0  0  0  0  0  0  0  0
   37.5438   43.6725   -0.2081 C   0  0  0  0  0  0  0  0  0  0  0  0
   40.2235   35.3292   -1.0887 C   0  0  0  0  0  0  0  0  0  0  0  0
   37.8132   41.5350   -2.1830 O   0  0  0  0  0  0  0  0  0  0  0  0
   31.2333   39.6245   -9.6476 C   0  0  0  0  0  0  0  0  0  0  0  0
   30.8355   38.3677   -9.2499 C   0  0  0  0  0  0  0  0  0  0  0  0
   31.6703   37.6045   -8.4666 C   0  0  0  0  0  0  0  0  0  0  0  0
   37.7992   42.1979   -4.6623 O   0  0  0  0  0  0  0  0  0  0  0  0
   35.6565   39.2579   -5.6754 O   0  0  0  0  0  0  0  0  0  0  0  0
   32.9075   38.0930   -8.0860 C   0  0  0  0  0  0  0  0  0  0  0  0
   37.9986   39.6637   -3.9431 N   0  0  0  0  0  0  0  0  0  0  0  0
   35.0387   41.2875   -4.8752 N   0  0  0  0  0  0  0  0  0  0  0  0
   39.1076   35.6646   -0.6218 O   0  0  0  0  0  0  0  0  0  0  0  0
   37.4813   41.2193   -3.5765 P   0  0  2  0  0  0  0  0  0  0  0  0
   41.0567   33.4121   -4.7138 H   0  0  0  0  0  0  0  0  0  0  0  0
   41.9119   34.9276   -5.1593 H   0  0  0  0  0  0  0  0  0  0  0  0
   42.7962   33.3640   -5.1593 H   0  0  0  0  0  0  0  0  0  0  0  0
   41.7947   33.4794   -2.5863 H   0  0  0  0  0  0  0  0  0  0  0  0
   44.0601   33.8015   -1.8923 H   0  0  0  0  0  0  0  0  0  0  0  0
   44.0976   32.8738   -3.4301 H   0  0  0  0  0  0  0  0  0  0  0  0
   44.4823   34.6284   -3.4301 H   0  0  0  0  0  0  0  0  0  0  0  0
   35.2701   40.0706   -3.2017 H   0  0  0  0  0  0  0  0  0  0  0  0
   40.5845   37.9288   -1.8832 H   0  0  0  0  0  0  0  0  0  0  0  0
   39.7294   39.6717   -2.7868 H   0  0  0  0  0  0  0  0  0  0  0  0
   39.9396   39.5808   -4.6149 H   0  0  0  0  0  0  0  0  0  0  0  0
   39.9865   35.3208   -3.2291 H   0  0  0  0  0  0  0  0  0  0  0  0
   42.6409   35.8081   -1.8532 H   0  0  0  0  0  0  0  0  0  0  0  0
   42.3455   36.2425   -3.6132 H   0  0  0  0  0  0  0  0  0  0  0  0
   34.8537   43.0656   -3.0635 H   0  0  0  0  0  0  0  0  0  0  0  0
   34.0398   41.7373   -2.1561 H   0  0  0  0  0  0  0  0  0  0  0  0
   37.2579   40.6539    1.2836 H   0  0  0  0  0  0  0  0  0  0  0  0
   35.6389   40.3399   -0.5645 H   0  0  0  0  0  0  0  0  0  0  0  0
   38.4887   42.7923    1.5122 H   0  0  0  0  0  0  0  0  0  0  0  0
   32.7807   41.1185   -9.5980 H   0  0  0  0  0  0  0  0  0  0  0  0
   35.1033   40.4481   -8.9362 H   0  0  0  0  0  0  0  0  0  0  0  0
   35.3410   39.0432   -7.8492 H   0  0  0  0  0  0  0  0  0  0  0  0
   36.4703   44.3179   -1.9579 H   0  0  0  0  0  0  0  0  0  0  0  0
   38.0832   44.6256   -0.1044 H   0  0  0  0  0  0  0  0  0  0  0  0
   30.5644   40.2408  -10.2663 H   0  0  0  0  0  0  0  0  0  0  0  0
   29.8547   37.9756   -9.5571 H   0  0  0  0  0  0  0  0  0  0  0  0
   31.3530   36.6026   -8.1418 H   0  0  0  0  0  0  0  0  0  0  0  0
   38.0788   43.0581   -4.2598 H   0  0  0  0  0  0  0  0  0  0  0  0
   33.5671   37.4758   -7.4583 H   0  0  0  0  0  0  0  0  0  0  0  0
   37.8024   39.5237   -4.9445 H   0  0  0  0  0  0  0  0  0  0  0  0
   34.5926   42.1871   -5.1044 H   0  0  0  0  0  0  0  0  0  0  0  0
  1 24  2  0
  2 20  1  0
  2 21  1  0
  4  3  1  0
  4  5  1  0
  4 11  1  0
  6 13  1  0
  6 33  1  0
  6 35  1  0
  7  9  1  0
  7 10  1  0
  8  9  1  0
  8 32  1  0
  9 12  2  0
 10 11  1  0
 10 24  1  0
 13 14  1  0
 14 16  1  0
 14 22  2  0
 15 16  2  0
 15 17  1  0
 17 23  2  0
 18 19  2  0
 18 20  1  0
 18 31  1  0
 19 26  1  0
 21 30  2  0
 21 33  1  0
 22 23  1  0
 24 34  1  0
 25 35  2  0
 26 27  2  0
 27 28  1  0
 28 31  2  0
 35 29  1  6
 32 35  1  0
  3 36  1  0
  3 37  1  0
  3 38  1  0
  4 39  1  1
  5 40  1  0
  5 41  1  0
  5 42  1  0
  6 43  1  1
  7 44  1  0
  8 45  1  0
  8 46  1  0
 10 47  1  6
 11 48  1  0
 11 49  1  0
 13 50  1  0
 13 51  1  0
 15 52  1  0
 16 53  1  0
 17 54  1  0
 19 55  1  0
 20 56  1  0
 20 57  1  0
 22 58  1  0
 23 59  1  0
 26 60  1  0
 27 61  1  0
 28 62  1  0
 29 63  1  0
 31 64  1  0
 32 65  1  0
 33 66  1  0
M  CHG  1  34  -1
M  END
>  <filename_input>  (10) 
6YMS_OZH_docked.sdf

>  <pdb_id>  (10) 
6YMS_OZH

>  <pose_rank>  (10) 
9

>  <num_atoms_heavy>  (10) 
35

>  <num_torsions>  (10) 
14

>  <pose>  (10) 
[35.56803569028531, 41.07517908989377, -3.5363333626481537, -1.5557334865607504, 1.8820328324301476, 2.881009849720527, -0.7786347586987595, -0.007717553378905173, -0.6311199957194997, -1.5169275836137666, 4.285519613001835, -1.4334102168555187, -1.573342541820222, -2.379069036761414, 0.05855261824341716, 1.2245719071541559, -1.608611936596792, -1.7118027330454992, -3.8646448788706698, 0.4873872686805362]

>  <energy>  (10) 
-647.0760286530833

>  <inter_energy>  (10) 
-873.7275216295109

>  <intra_energy>  (10) 
233.2152652690245

>  <rmsd>  (10) 
8.18231

>  <sdf_rank>  (10) 
0

$$$$

     RDKit          3D

 66 67  0  0  0  0  0  0  0  0999 V2000
   39.6138   34.4208   -0.1125 O   0  0  0  0  0  0  0  0  0  0  0  0
   36.1799   40.8407   -5.7718 O   0  0  0  0  0  0  0  0  0  0  0  0
   41.2892   37.2659   -4.7909 C   0  0  0  0  0  0  0  0  0  0  0  0
   40.5253   36.0571   -4.2747 C   0  0  1  0  0  0  0  0  0  0  0  0
   41.1482   34.7670   -4.7817 C   0  0  0  0  0  0  0  0  0  0  0  0
   35.8578   42.3392   -2.5328 C   0  0  1  0  0  0  0  0  0  0  0  0
   38.4954   36.5768   -1.3581 N   0  0  0  0  0  0  0  0  0  0  0  0
   37.5075   38.7610   -0.9534 C   0  0  0  0  0  0  0  0  0  0  0  0
   38.1195   37.7414   -1.8942 C   0  0  0  0  0  0  0  0  0  0  0  0
   39.1503   35.5535   -2.1589 C   0  0  1  0  0  0  0  0  0  0  0  0
   40.4633   36.0717   -2.7521 C   0  0  0  0  0  0  0  0  0  0  0  0
   38.2541   37.9989   -3.0862 O   0  0  0  0  0  0  0  0  0  0  0  0
   37.2100   43.0709   -2.4624 C   0  0  0  0  0  0  0  0  0  0  0  0
   37.3810   43.7288   -1.1158 C   0  0  0  0  0  0  0  0  0  0  0  0
   38.1636   43.6746    1.1629 C   0  0  0  0  0  0  0  0  0  0  0  0
   37.9748   43.0525   -0.0597 C   0  0  0  0  0  0  0  0  0  0  0  0
   37.7588   44.9779    1.3462 C   0  0  0  0  0  0  0  0  0  0  0  0
   34.5285   40.6728   -7.5028 C   0  0  0  0  0  0  0  0  0  0  0  0
   33.9767   41.4340   -8.5213 C   0  0  0  0  0  0  0  0  0  0  0  0
   34.8675   41.2969   -6.1835 C   0  0  0  0  0  0  0  0  0  0  0  0
   36.6450   41.3477   -4.6166 C   0  0  0  0  0  0  0  0  0  0  0  0
   36.9721   45.0385   -0.9134 C   0  0  0  0  0  0  0  0  0  0  0  0
   37.1602   45.6584    0.3099 C   0  0  0  0  0  0  0  0  0  0  0  0
   39.4121   34.2821   -1.3378 C   0  0  0  0  0  0  0  0  0  0  0  0
   34.6811   40.1186   -1.6563 O   0  0  0  0  0  0  0  0  0  0  0  0
   33.6788   40.8641   -9.7459 C   0  0  0  0  0  0  0  0  0  0  0  0
   33.9326   39.5294   -9.9698 C   0  0  0  0  0  0  0  0  0  0  0  0
   34.4740   38.7607   -8.9653 C   0  0  0  0  0  0  0  0  0  0  0  0
   35.8341   41.5898    0.1024 O   0  0  0  0  0  0  0  0  0  0  0  0
   37.8177   41.4018   -4.3121 O   0  0  0  0  0  0  0  0  0  0  0  0
   34.7701   39.3265   -7.7380 C   0  0  0  0  0  0  0  0  0  0  0  0
   37.2535   40.0769   -1.5332 N   0  0  0  0  0  0  0  0  0  0  0  0
   35.6293   41.7851   -3.8589 N   0  0  0  0  0  0  0  0  0  0  0  0
   39.4010   33.1878   -1.9528 O   0  0  0  0  0  0  0  0  0  0  0  0
   35.8333   40.9238   -1.2370 P   0  0  2  0  0  0  0  0  0  0  0  0
   41.6616   37.8551   -3.9399 H   0  0  0  0  0  0  0  0  0  0  0  0
   42.1386   36.9288   -5.4031 H   0  0  0  0  0  0  0  0  0  0  0  0
   40.6202   37.8884   -5.4031 H   0  0  0  0  0  0  0  0  0  0  0  0
   39.4961   36.1093   -4.6596 H   0  0  0  0  0  0  0  0  0  0  0  0
   41.4490   34.1442   -3.9263 H   0  0  0  0  0  0  0  0  0  0  0  0
   40.4145   34.2209   -5.3928 H   0  0  0  0  0  0  0  0  0  0  0  0
   42.0321   35.0020   -5.3928 H   0  0  0  0  0  0  0  0  0  0  0  0
   35.0586   43.0640   -2.3183 H   0  0  0  0  0  0  0  0  0  0  0  0
   38.3182   36.3999   -0.3590 H   0  0  0  0  0  0  0  0  0  0  0  0
   36.5493   38.3582   -0.5936 H   0  0  0  0  0  0  0  0  0  0  0  0
   38.2485   38.9198   -0.1560 H   0  0  0  0  0  0  0  0  0  0  0  0
   38.4673   35.3008   -2.9832 H   0  0  0  0  0  0  0  0  0  0  0  0
   41.2826   35.4449   -2.3701 H   0  0  0  0  0  0  0  0  0  0  0  0
   40.5461   37.1257   -2.4485 H   0  0  0  0  0  0  0  0  0  0  0  0
   38.0230   42.3464   -2.6179 H   0  0  0  0  0  0  0  0  0  0  0  0
   37.2390   43.8442   -3.2442 H   0  0  0  0  0  0  0  0  0  0  0  0
   38.6383   43.1262    1.9899 H   0  0  0  0  0  0  0  0  0  0  0  0
   38.2993   42.0103   -0.1953 H   0  0  0  0  0  0  0  0  0  0  0  0
   37.9130   45.4730    2.3163 H   0  0  0  0  0  0  0  0  0  0  0  0
   33.7736   42.5020   -8.3539 H   0  0  0  0  0  0  0  0  0  0  0  0
   34.1210   41.0002   -5.4320 H   0  0  0  0  0  0  0  0  0  0  0  0
   34.8667   42.3927   -6.2784 H   0  0  0  0  0  0  0  0  0  0  0  0
   36.4925   45.5912   -1.7347 H   0  0  0  0  0  0  0  0  0  0  0  0
   36.8304   46.6977    0.4545 H   0  0  0  0  0  0  0  0  0  0  0  0
   33.2376   41.4794  -10.5438 H   0  0  0  0  0  0  0  0  0  0  0  0
   33.7036   39.0798  -10.9472 H   0  0  0  0  0  0  0  0  0  0  0  0
   34.6721   37.6927   -9.1387 H   0  0  0  0  0  0  0  0  0  0  0  0
   35.8333   40.9010    0.8135 H   0  0  0  0  0  0  0  0  0  0  0  0
   35.2013   38.7032   -6.9407 H   0  0  0  0  0  0  0  0  0  0  0  0
   38.0224   40.6845   -1.2162 H   0  0  0  0  0  0  0  0  0  0  0  0
   34.6674   41.7277   -4.2228 H   0  0  0  0  0  0  0  0  0  0  0  0
  1 24  2  0
  2 20  1  0
  2 21  1  0
  4  3  1  0
  4  5  1  0
  4 11  1  0
  6 13  1  0
  6 33  1  0
  6 35  1  0
  7  9  1  0
  7 10  1  0
  8  9  1  0
  8 32  1  0
  9 12  2  0
 10 11  1  0
 10 24  1  0
 13 14  1  0
 14 16  1  0
 14 22  2  0
 15 16  2  0
 15 17  1  0
 17 23  2  0
 18 19  2  0
 18 20  1  0
 18 31  1  0
 19 26  1  0
 21 30  2  0
 21 33  1  0
 22 23  1  0
 24 34  1  0
 25 35  2  0
 26 27  2  0
 27 28  1  0
 28 31  2  0
 35 29  1  1
 32 35  1  0
  3 36  1  0
  3 37  1  0
  3 38  1  0
  4 39  1  6
  5 40  1  0
  5 41  1  0
  5 42  1  0
  6 43  1  1
  7 44  1  0
  8 45  1  0
  8 46  1  0
 10 47  1  6
 11 48  1  0
 11 49  1  0
 13 50  1  0
 13 51  1  0
 15 52  1  0
 16 53  1  0
 17 54  1  0
 19 55  1  0
 20 56  1  0
 20 57  1  0
 22 58  1  0
 23 59  1  0
 26 60  1  0
 27 61  1  0
 28 62  1  0
 29 63  1  0
 31 64  1  0
 32 65  1  0
 33 66  1  0
M  CHG  1  34  -1
M  END
>  <filename_input>  (11) 
6YMS_OZH_docked.sdf

>  <pdb_id>  (11) 
6YMS_OZH

>  <pose_rank>  (11) 
10

>  <num_atoms_heavy>  (11) 
35

>  <num_torsions>  (11) 
14

>  <pose>  (11) 
[35.85775142082661, 42.339189075586624, -2.532809289109642, -0.449056061706675, -3.3222223751439968, -1.5425283776541667, 2.634745398942348, 3.643302915057093, 0.4578716354023661, 0.9704865450314043, 0.7721504680849498, -1.4974926585412909, 4.303396436144376, 2.8871301983814956, -0.7418519832654984, 3.046055264809722, -0.9680404522664141, -0.5568737870276401, 1.8941909520305087, -3.039674176762747]

>  <energy>  (11) 
-630.5604784509312

>  <inter_energy>  (11) 
-756.511541439035

>  <intra_energy>  (11) 
123.90256315754095

>  <rmsd>  (11) 
7.69571

>  <sdf_rank>  (11) 
0

$$$$

     RDKit          3D

 66 67  0  0  0  0  0  0  0  0999 V2000
   35.5914   34.8944   -8.0608 O   0  0  0  0  0  0  0  0  0  0  0  0
   37.9249   42.9048   -3.3200 O   0  0  0  0  0  0  0  0  0  0  0  0
   34.1501   39.7736  -10.2088 C   0  0  0  0  0  0  0  0  0  0  0  0
   33.2716   38.5355  -10.1285 C   0  0  1  0  0  0  0  0  0  0  0  0
   32.2845   38.4971  -11.2833 C   0  0  0  0  0  0  0  0  0  0  0  0
   34.7164   41.6089   -4.2506 C   0  0  1  0  0  0  0  0  0  0  0  0
   34.2050   37.1164   -7.6401 N   0  0  0  0  0  0  0  0  0  0  0  0
   33.6764   38.5691   -5.7637 C   0  0  0  0  0  0  0  0  0  0  0  0
   33.2500   37.7903   -6.9928 C   0  0  0  0  0  0  0  0  0  0  0  0
   33.9161   36.3879   -8.8661 C   0  0  1  0  0  0  0  0  0  0  0  0
   34.1249   37.2732  -10.0978 C   0  0  0  0  0  0  0  0  0  0  0  0
   32.0782   37.7968   -7.3562 O   0  0  0  0  0  0  0  0  0  0  0  0
   34.5685   40.4081   -3.2992 C   0  0  0  0  0  0  0  0  0  0  0  0
   34.4663   40.8805   -1.8703 C   0  0  0  0  0  0  0  0  0  0  0  0
   33.5952   42.4065   -0.2209 C   0  0  0  0  0  0  0  0  0  0  0  0
   33.7164   42.0000   -1.5391 C   0  0  0  0  0  0  0  0  0  0  0  0
   34.2239   41.7021    0.7813 C   0  0  0  0  0  0  0  0  0  0  0  0
   38.1826   43.2322   -0.9581 C   0  0  0  0  0  0  0  0  0  0  0  0
   38.6450   44.0920    0.0257 C   0  0  0  0  0  0  0  0  0  0  0  0
   37.5693   43.7715   -2.2143 C   0  0  0  0  0  0  0  0  0  0  0  0
   37.0472   41.9285   -3.6101 C   0  0  0  0  0  0  0  0  0  0  0  0
   35.0995   40.1858   -0.8505 C   0  0  0  0  0  0  0  0  0  0  0  0
   34.9785   40.5944    0.4665 C   0  0  0  0  0  0  0  0  0  0  0  0
   34.7759   35.1202   -8.9802 C   0  0  0  0  0  0  0  0  0  0  0  0
   36.3566   41.3998   -6.3362 O   0  0  0  0  0  0  0  0  0  0  0  0
   39.1958   43.5965    1.1938 C   0  0  0  0  0  0  0  0  0  0  0  0
   39.2871   42.2375    1.3954 C   0  0  0  0  0  0  0  0  0  0  0  0
   38.8381   41.3727    0.4241 C   0  0  0  0  0  0  0  0  0  0  0  0
   33.8435   41.5067   -6.8456 O   0  0  0  0  0  0  0  0  0  0  0  0
   37.3167   40.7463   -3.6339 O   0  0  0  0  0  0  0  0  0  0  0  0
   38.2897   41.8646   -0.7469 C   0  0  0  0  0  0  0  0  0  0  0  0
   34.9348   39.2994   -5.8887 N   0  0  0  0  0  0  0  0  0  0  0  0
   35.8386   42.4504   -3.8631 N   0  0  0  0  0  0  0  0  0  0  0  0
   34.5977   34.3932   -9.9879 O   0  0  0  0  0  0  0  0  0  0  0  0
   34.9852   40.9716   -6.0407 P   0  0  2  0  0  0  0  0  0  0  0  0
   34.3937   40.1169   -9.1925 H   0  0  0  0  0  0  0  0  0  0  0  0
   35.0786   39.5301  -10.7460 H   0  0  0  0  0  0  0  0  0  0  0  0
   33.6137   40.5696  -10.7460 H   0  0  0  0  0  0  0  0  0  0  0  0
   32.6951   38.5816   -9.1927 H   0  0  0  0  0  0  0  0  0  0  0  0
   31.2588   38.4572  -10.8878 H   0  0  0  0  0  0  0  0  0  0  0  0
   32.4052   39.4006  -11.8990 H   0  0  0  0  0  0  0  0  0  0  0  0
   32.4750   37.6057  -11.8990 H   0  0  0  0  0  0  0  0  0  0  0  0
   33.7974   42.2110   -4.1961 H   0  0  0  0  0  0  0  0  0  0  0  0
   35.1639   37.1124   -7.2641 H   0  0  0  0  0  0  0  0  0  0  0  0
   32.8842   39.2959   -5.5310 H   0  0  0  0  0  0  0  0  0  0  0  0
   33.8378   37.8216   -4.9730 H   0  0  0  0  0  0  0  0  0  0  0  0
   32.8585   36.0883   -8.8234 H   0  0  0  0  0  0  0  0  0  0  0  0
   33.8876   36.6777  -10.9917 H   0  0  0  0  0  0  0  0  0  0  0  0
   35.1723   37.6077  -10.0652 H   0  0  0  0  0  0  0  0  0  0  0  0
   33.6594   39.8472   -3.5616 H   0  0  0  0  0  0  0  0  0  0  0  0
   35.4529   39.7617   -3.3995 H   0  0  0  0  0  0  0  0  0  0  0  0
   32.9950   43.2946    0.0262 H   0  0  0  0  0  0  0  0  0  0  0  0
   33.2125   42.5711   -2.3327 H   0  0  0  0  0  0  0  0  0  0  0  0
   34.1237   42.0228    1.8287 H   0  0  0  0  0  0  0  0  0  0  0  0
   38.5731   45.1794   -0.1239 H   0  0  0  0  0  0  0  0  0  0  0  0
   37.9484   44.7865   -2.4040 H   0  0  0  0  0  0  0  0  0  0  0  0
   36.4752   43.8100   -2.1080 H   0  0  0  0  0  0  0  0  0  0  0  0
   35.7049   39.2995   -1.0911 H   0  0  0  0  0  0  0  0  0  0  0  0
   35.4868   40.0325    1.2639 H   0  0  0  0  0  0  0  0  0  0  0  0
   39.5622   44.2907    1.9644 H   0  0  0  0  0  0  0  0  0  0  0  0
   39.7171   41.8451    2.3287 H   0  0  0  0  0  0  0  0  0  0  0  0
   38.9154   40.2864    0.5792 H   0  0  0  0  0  0  0  0  0  0  0  0
   33.1369   41.8379   -6.2365 H   0  0  0  0  0  0  0  0  0  0  0  0
   37.9350   41.1650   -1.5181 H   0  0  0  0  0  0  0  0  0  0  0  0
   35.4854   39.0699   -5.0490 H   0  0  0  0  0  0  0  0  0  0  0  0
   35.7015   43.4680   -3.7815 H   0  0  0  0  0  0  0  0  0  0  0  0
  1 24  2  0
  2 20  1  0
  2 21  1  0
  4  3  1  0
  4  5  1  0
  4 11  1  0
  6 13  1  0
  6 33  1  0
  6 35  1  0
  7  9  1  0
  7 10  1  0
  8  9  1  0
  8 32  1  0
  9 12  2  0
 10 11  1  0
 10 24  1  0
 13 14  1  0
 14 16  1  0
 14 22  2  0
 15 16  2  0
 15 17  1  0
 17 23  2  0
 18 19  2  0
 18 20  1  0
 18 31  1  0
 19 26  1  0
 21 30  2  0
 21 33  1  0
 22 23  1  0
 24 34  1  0
 25 35  2  0
 26 27  2  0
 27 28  1  0
 28 31  2  0
 35 29  1  6
 32 35  1  0
  3 36  1  0
  3 37  1  0
  3 38  1  0
  4 39  1  1
  5 40  1  0
  5 41  1  0
  5 42  1  0
  6 43  1  6
  7 44  1  0
  8 45  1  0
  8 46  1  0
 10 47  1  1
 11 48  1  0
 11 49  1  0
 13 50  1  0
 13 51  1  0
 15 52  1  0
 16 53  1  0
 17 54  1  0
 19 55  1  0
 20 56  1  0
 20 57  1  0
 22 58  1  0
 23 59  1  0
 26 60  1  0
 27 61  1  0
 28 62  1  0
 29 63  1  0
 31 64  1  0
 32 65  1  0
 33 66  1  0
M  CHG  1  34  -1
M  END
>  <filename_input>  (12) 
6YMS_OZH_docked.sdf

>  <pdb_id>  (12) 
6YMS_OZH

>  <pose_rank>  (12) 
11

>  <num_atoms_heavy>  (12) 
35

>  <num_torsions>  (12) 
14

>  <pose>  (12) 
[34.716384128922485, 41.60891871620281, -4.250607501897097, 0.17474928020923997, -0.19749086405383648, 1.925902719056781, 2.926016731561878, -2.037188567254847, -1.0274554764263621, -0.4261819665404081, 1.6771304831959266, 2.7939100288699517, -2.514558970863881, 0.6001702597631073, -0.21094935174885393, 3.5596129787303132, 0.09925614834011055, -0.9416241058860245, -0.21777558597179641, 2.3831043866289012]

>  <energy>  (12) 
-499.8770999302242

>  <inter_energy>  (12) 
-617.9532306597487

>  <intra_energy>  (12) 
113.53734422447666

>  <rmsd>  (12) 
4.2843

>  <sdf_rank>  (12) 
0

$$$$

     RDKit          3D

 66 67  0  0  0  0  0  0  0  0999 V2000
   42.7901   35.3862   -2.0242 O   0  0  0  0  0  0  0  0  0  0  0  0
   36.1795   41.3093   -4.2183 O   0  0  0  0  0  0  0  0  0  0  0  0
   38.3492   33.4641   -1.1178 C   0  0  0  0  0  0  0  0  0  0  0  0
   39.5443   33.8843   -1.9583 C   0  0  1  0  0  0  0  0  0  0  0  0
   39.2289   33.7723   -3.4406 C   0  0  0  0  0  0  0  0  0  0  0  0
   35.0033   38.8107   -6.5016 C   0  0  1  0  0  0  0  0  0  0  0  0
   39.8053   36.0274   -3.9460 N   0  0  0  0  0  0  0  0  0  0  0  0
   38.4770   36.9691   -5.7514 C   0  0  0  0  0  0  0  0  0  0  0  0
   39.3829   37.1429   -4.5480 C   0  0  0  0  0  0  0  0  0  0  0  0
   40.6266   36.0817   -2.7461 C   0  0  1  0  0  0  0  0  0  0  0  0
   39.9820   35.2991   -1.5988 C   0  0  0  0  0  0  0  0  0  0  0  0
   39.6965   38.2651   -4.1640 O   0  0  0  0  0  0  0  0  0  0  0  0
   33.5046   38.5516   -6.2653 C   0  0  0  0  0  0  0  0  0  0  0  0
   32.7568   38.5664   -7.5752 C   0  0  0  0  0  0  0  0  0  0  0  0
   30.9654   37.7734   -8.9788 C   0  0  0  0  0  0  0  0  0  0  0  0
   31.6717   37.7283   -7.7886 C   0  0  0  0  0  0  0  0  0  0  0  0
   31.3364   38.6532   -9.9709 C   0  0  0  0  0  0  0  0  0  0  0  0
   36.0236   42.0875   -1.9550 C   0  0  0  0  0  0  0  0  0  0  0  0
   36.8740   43.1758   -2.0704 C   0  0  0  0  0  0  0  0  0  0  0  0
   35.2526   41.5942   -3.1413 C   0  0  0  0  0  0  0  0  0  0  0  0
   35.6330   40.8752   -5.3675 C   0  0  0  0  0  0  0  0  0  0  0  0
   33.1226   39.4419   -8.5867 C   0  0  0  0  0  0  0  0  0  0  0  0
   32.4164   39.4845   -9.7765 C   0  0  0  0  0  0  0  0  0  0  0  0
   42.0429   35.5502   -3.0122 C   0  0  0  0  0  0  0  0  0  0  0  0
   36.5851   37.2981   -8.0162 O   0  0  0  0  0  0  0  0  0  0  0  0
   37.5736   43.6439   -0.9728 C   0  0  0  0  0  0  0  0  0  0  0  0
   37.4289   43.0343    0.2533 C   0  0  0  0  0  0  0  0  0  0  0  0
   36.5930   41.9489    0.3804 C   0  0  0  0  0  0  0  0  0  0  0  0
   34.8683   36.0747   -6.5525 O   0  0  0  0  0  0  0  0  0  0  0  0
   35.2383   41.5984   -6.2575 O   0  0  0  0  0  0  0  0  0  0  0  0
   35.8942   41.4758   -0.7159 C   0  0  0  0  0  0  0  0  0  0  0  0
   37.0486   37.1207   -5.4888 N   0  0  0  0  0  0  0  0  0  0  0  0
   35.5929   39.5354   -5.3859 N   0  0  0  0  0  0  0  0  0  0  0  0
   42.3530   35.3114   -4.2050 O   0  0  0  0  0  0  0  0  0  0  0  0
   35.9103   37.1342   -6.7242 P   0  0  2  0  0  0  0  0  0  0  0  0
   38.6018   33.5529   -0.0509 H   0  0  0  0  0  0  0  0  0  0  0  0
   37.4926   34.1149   -1.3472 H   0  0  0  0  0  0  0  0  0  0  0  0
   38.0884   32.4203   -1.3472 H   0  0  0  0  0  0  0  0  0  0  0  0
   40.3782   33.2017   -1.7378 H   0  0  0  0  0  0  0  0  0  0  0  0
   38.1995   33.4068   -3.5699 H   0  0  0  0  0  0  0  0  0  0  0  0
   39.3289   34.7609   -3.9125 H   0  0  0  0  0  0  0  0  0  0  0  0
   39.9300   33.0682   -3.9125 H   0  0  0  0  0  0  0  0  0  0  0  0
   35.1114   39.4239   -7.4084 H   0  0  0  0  0  0  0  0  0  0  0  0
   39.5447   35.1116   -4.3388 H   0  0  0  0  0  0  0  0  0  0  0  0
   38.7649   37.7183   -6.5036 H   0  0  0  0  0  0  0  0  0  0  0  0
   38.6145   35.9302   -6.0859 H   0  0  0  0  0  0  0  0  0  0  0  0
   40.7014   37.1391   -2.4523 H   0  0  0  0  0  0  0  0  0  0  0  0
   39.0960   35.8559   -1.2598 H   0  0  0  0  0  0  0  0  0  0  0  0
   40.7535   35.1969   -0.8213 H   0  0  0  0  0  0  0  0  0  0  0  0
   33.3775   37.5696   -5.7862 H   0  0  0  0  0  0  0  0  0  0  0  0
   33.1032   39.3433   -5.6157 H   0  0  0  0  0  0  0  0  0  0  0  0
   30.1057   37.1045   -9.1322 H   0  0  0  0  0  0  0  0  0  0  0  0
   31.3690   37.0201   -7.0033 H   0  0  0  0  0  0  0  0  0  0  0  0
   30.7724   38.6917  -10.9145 H   0  0  0  0  0  0  0  0  0  0  0  0
   36.9938   43.6723   -3.0446 H   0  0  0  0  0  0  0  0  0  0  0  0
   34.5377   42.3655   -3.4638 H   0  0  0  0  0  0  0  0  0  0  0  0
   34.7005   40.6812   -2.8735 H   0  0  0  0  0  0  0  0  0  0  0  0
   33.9841   40.1103   -8.4417 H   0  0  0  0  0  0  0  0  0  0  0  0
   32.7192   40.1847  -10.5690 H   0  0  0  0  0  0  0  0  0  0  0  0
   38.2481   44.5062   -1.0799 H   0  0  0  0  0  0  0  0  0  0  0  0
   37.9790   43.4134    1.1272 H   0  0  0  0  0  0  0  0  0  0  0  0
   36.4799   41.4556    1.3571 H   0  0  0  0  0  0  0  0  0  0  0  0
   34.7136   35.9173   -5.5874 H   0  0  0  0  0  0  0  0  0  0  0  0
   35.2296   40.6064   -0.6044 H   0  0  0  0  0  0  0  0  0  0  0  0
   36.7867   36.3444   -4.8646 H   0  0  0  0  0  0  0  0  0  0  0  0
   35.9876   39.0080   -4.5941 H   0  0  0  0  0  0  0  0  0  0  0  0
  1 24  2  0
  2 20  1  0
  2 21  1  0
  4  3  1  0
  4  5  1  0
  4 11  1  0
  6 13  1  0
  6 33  1  0
  6 35  1  0
  7  9  1  0
  7 10  1  0
  8  9  1  0
  8 32  1  0
  9 12  2  0
 10 11  1  0
 10 24  1  0
 13 14  1  0
 14 16  1  0
 14 22  2  0
 15 16  2  0
 15 17  1  0
 17 23  2  0
 18 19  2  0
 18 20  1  0
 18 31  1  0
 19 26  1  0
 21 30  2  0
 21 33  1  0
 22 23  1  0
 24 34  1  0
 25 35  2  0
 26 27  2  0
 27 28  1  0
 28 31  2  0
 35 29  1  6
 32 35  1  0
  3 36  1  0
  3 37  1  0
  3 38  1  0
  4 39  1  1
  5 40  1  0
  5 41  1  0
  5 42  1  0
  6 43  1  6
  7 44  1  0
  8 45  1  0
  8 46  1  0
 10 47  1  1
 11 48  1  0
 11 49  1  0
 13 50  1  0
 13 51  1  0
 15 52  1  0
 16 53  1  0
 17 54  1  0
 19 55  1  0
 20 56  1  0
 20 57  1  0
 22 58  1  0
 23 59  1  0
 26 60  1  0
 27 61  1  0
 28 62  1  0
 29 63  1  0
 31 64  1  0
 32 65  1  0
 33 66  1  0
M  CHG  1  34  -1
M  END
>  <filename_input>  (13) 
6YMS_OZH_docked.sdf

>  <pdb_id>  (13) 
6YMS_OZH

>  <pose_rank>  (13) 
12

>  <num_atoms_heavy>  (13) 
35

>  <num_torsions>  (13) 
14

>  <pose>  (13) 
[35.00332269533017, 38.81069370124132, -6.501642323163354, 3.0903978644657486, 1.0962937406706275, -3.035681046584371, 0.48866796920775313, 1.6423996760716513, 0.5093463210568601, -1.9902360856998467, -0.4402320401484962, -0.7204462282900124, -1.3550525462697527, 1.5886648601282936, 0.3694283228211067, 0.5908623419251375, 2.0020480033283676, 0.5950045446515057, 1.401097012554756, -2.0749923256341374]

>  <energy>  (13) 
-677.264969315986

>  <inter_energy>  (13) 
-724.2599492168056

>  <intra_energy>  (13) 
61.42760997931026

>  <rmsd>  (13) 
8.38679

>  <sdf_rank>  (13) 
0

$$$$

     RDKit          3D

 66 67  0  0  0  0  0  0  0  0999 V2000
   41.7577   31.5712   -4.8333 O   0  0  0  0  0  0  0  0  0  0  0  0
   35.5422   40.6460   -4.7453 O   0  0  0  0  0  0  0  0  0  0  0  0
   38.7859   32.2990   -1.4980 C   0  0  0  0  0  0  0  0  0  0  0  0
   39.3171   31.0624   -2.2050 C   0  0  1  0  0  0  0  0  0  0  0  0
   39.0026   29.8071   -1.4082 C   0  0  0  0  0  0  0  0  0  0  0  0
   35.3605   37.7559   -6.8558 C   0  0  1  0  0  0  0  0  0  0  0  0
   38.4530   32.3283   -5.6498 N   0  0  0  0  0  0  0  0  0  0  0  0
   36.6993   33.7307   -6.5817 C   0  0  0  0  0  0  0  0  0  0  0  0
   37.7073   33.4255   -5.4909 C   0  0  0  0  0  0  0  0  0  0  0  0
   39.4058   31.9094   -4.6331 C   0  0  1  0  0  0  0  0  0  0  0  0
   38.7527   30.9679   -3.6174 C   0  0  0  0  0  0  0  0  0  0  0  0
   37.8120   34.1653   -4.5178 O   0  0  0  0  0  0  0  0  0  0  0  0
   34.0170   37.0357   -6.6433 C   0  0  0  0  0  0  0  0  0  0  0  0
   33.1388   37.1940   -7.8595 C   0  0  0  0  0  0  0  0  0  0  0  0
   32.6711   38.2127   -9.9929 C   0  0  0  0  0  0  0  0  0  0  0  0
   33.4604   38.0990   -8.8609 C   0  0  0  0  0  0  0  0  0  0  0  0
   31.5497   37.4267  -10.1366 C   0  0  0  0  0  0  0  0  0  0  0  0
   36.9936   41.1030   -2.8915 C   0  0  0  0  0  0  0  0  0  0  0  0
   36.8711   40.4095   -1.6977 C   0  0  0  0  0  0  0  0  0  0  0  0
   36.8616   40.3908   -4.2031 C   0  0  0  0  0  0  0  0  0  0  0  0
   35.2294   39.9832   -5.8725 C   0  0  0  0  0  0  0  0  0  0  0  0
   32.0023   36.4146   -8.0154 C   0  0  0  0  0  0  0  0  0  0  0  0
   31.2134   36.5307   -9.1470 C   0  0  0  0  0  0  0  0  0  0  0  0
   40.6335   31.2325   -5.2609 C   0  0  0  0  0  0  0  0  0  0  0  0
   37.6719   36.9034   -5.8486 O   0  0  0  0  0  0  0  0  0  0  0  0
   37.0096   41.0614   -0.4857 C   0  0  0  0  0  0  0  0  0  0  0  0
   37.2767   42.4118   -0.4511 C   0  0  0  0  0  0  0  0  0  0  0  0
   37.3941   43.1137   -1.6286 C   0  0  0  0  0  0  0  0  0  0  0  0
   37.2507   36.4366   -8.3368 O   0  0  0  0  0  0  0  0  0  0  0  0
   34.6742   40.4788   -6.8301 O   0  0  0  0  0  0  0  0  0  0  0  0
   37.2529   42.4656   -2.8428 C   0  0  0  0  0  0  0  0  0  0  0  0
   36.0267   35.0221   -6.4713 N   0  0  0  0  0  0  0  0  0  0  0  0
   35.6227   38.7047   -5.7840 N   0  0  0  0  0  0  0  0  0  0  0  0
   40.4242   30.3804   -6.1586 O   0  0  0  0  0  0  0  0  0  0  0  0
   36.7734   36.4587   -6.9193 P   0  0  2  0  0  0  0  0  0  0  0  0
   38.8481   32.1541   -0.4094 H   0  0  0  0  0  0  0  0  0  0  0  0
   39.3878   33.1733   -1.7866 H   0  0  0  0  0  0  0  0  0  0  0  0
   37.7373   32.4643   -1.7866 H   0  0  0  0  0  0  0  0  0  0  0  0
   40.4111   31.1504   -2.2788 H   0  0  0  0  0  0  0  0  0  0  0  0
   39.0588   30.0317   -0.3329 H   0  0  0  0  0  0  0  0  0  0  0  0
   37.9894   29.4588   -1.6575 H   0  0  0  0  0  0  0  0  0  0  0  0
   39.7318   29.0222   -1.6575 H   0  0  0  0  0  0  0  0  0  0  0  0
   35.3116   38.3104   -7.8046 H   0  0  0  0  0  0  0  0  0  0  0  0
   38.3515   31.7684   -6.5084 H   0  0  0  0  0  0  0  0  0  0  0  0
   37.2259   33.7041   -7.5471 H   0  0  0  0  0  0  0  0  0  0  0  0
   35.9106   32.9698   -6.4864 H   0  0  0  0  0  0  0  0  0  0  0  0
   39.7393   32.8166   -4.1081 H   0  0  0  0  0  0  0  0  0  0  0  0
   38.8877   29.9353   -3.9717 H   0  0  0  0  0  0  0  0  0  0  0  0
   37.6968   31.2687   -3.5502 H   0  0  0  0  0  0  0  0  0  0  0  0
   34.2028   35.9660   -6.4669 H   0  0  0  0  0  0  0  0  0  0  0  0
   33.5077   37.4785   -5.7746 H   0  0  0  0  0  0  0  0  0  0  0  0
   32.9406   38.9329  -10.7794 H   0  0  0  0  0  0  0  0  0  0  0  0
   34.3527   38.7334   -8.7543 H   0  0  0  0  0  0  0  0  0  0  0  0
   30.9255   37.5143  -11.0380 H   0  0  0  0  0  0  0  0  0  0  0  0
   36.6616   39.3298   -1.7143 H   0  0  0  0  0  0  0  0  0  0  0  0
   36.9957   39.3096   -4.0513 H   0  0  0  0  0  0  0  0  0  0  0  0
   37.6287   40.7538   -4.9030 H   0  0  0  0  0  0  0  0  0  0  0  0
   31.7245   35.6957   -7.2306 H   0  0  0  0  0  0  0  0  0  0  0  0
   30.3152   35.9051   -9.2557 H   0  0  0  0  0  0  0  0  0  0  0  0
   36.9061   40.4991    0.4540 H   0  0  0  0  0  0  0  0  0  0  0  0
   37.3955   42.9270    0.5134 H   0  0  0  0  0  0  0  0  0  0  0  0
   37.6011   44.1937   -1.6046 H   0  0  0  0  0  0  0  0  0  0  0  0
   38.2395   36.3908   -8.3514 H   0  0  0  0  0  0  0  0  0  0  0  0
   37.3469   43.0359   -3.7787 H   0  0  0  0  0  0  0  0  0  0  0  0
   35.1724   34.9515   -7.0424 H   0  0  0  0  0  0  0  0  0  0  0  0
   36.1206   38.3874   -4.9401 H   0  0  0  0  0  0  0  0  0  0  0  0
  1 24  2  0
  2 20  1  0
  2 21  1  0
  4  3  1  0
  4  5  1  0
  4 11  1  0
  6 13  1  0
  6 33  1  0
  6 35  1  0
  7  9  1  0
  7 10  1  0
  8  9  1  0
  8 32  1  0
  9 12  2  0
 10 11  1  0
 10 24  1  0
 13 14  1  0
 14 16  1  0
 14 22  2  0
 15 16  2  0
 15 17  1  0
 17 23  2  0
 18 19  2  0
 18 20  1  0
 18 31  1  0
 19 26  1  0
 21 30  2  0
 21 33  1  0
 22 23  1  0
 24 34  1  0
 25 35  2  0
 26 27  2  0
 27 28  1  0
 28 31  2  0
 35 29  1  6
 32 35  1  0
  3 36  1  0
  3 37  1  0
  3 38  1  0
  4 39  1  6
  5 40  1  0
  5 41  1  0
  5 42  1  0
  6 43  1  6
  7 44  1  0
  8 45  1  0
  8 46  1  0
 10 47  1  1
 11 48  1  0
 11 49  1  0
 13 50  1  0
 13 51  1  0
 15 52  1  0
 16 53  1  0
 17 54  1  0
 19 55  1  0
 20 56  1  0
 20 57  1  0
 22 58  1  0
 23 59  1  0
 26 60  1  0
 27 61  1  0
 28 62  1  0
 29 63  1  0
 31 64  1  0
 32 65  1  0
 33 66  1  0
M  CHG  1  34  -1
M  END
>  <filename_input>  (14) 
6YMS_OZH_docked.sdf

>  <pdb_id>  (14) 
6YMS_OZH

>  <pose_rank>  (14) 
13

>  <num_atoms_heavy>  (14) 
35

>  <num_torsions>  (14) 
14

>  <pose>  (14) 
[35.36052938764399, 37.755882746930325, -6.85583552235639, -1.3054577569804025, -0.6642527872509542, 1.5154156769706764, 0.4835621412096594, -2.2690778596940726, 0.5828042744255267, -1.1791321970278401, 1.511851180244633, -1.8836232063282152, -3.014104614026327, 3.1443787982473594, -0.2204808818245309, -0.3530339406410239, -1.4629108148620433, -1.7178453680119046, 1.0153965319116556, 1.466537540733523]

>  <energy>  (14) 
-552.3525834539148

>  <inter_energy>  (14) 
-568.5438421175201

>  <intra_energy>  (14) 
9.815974903198002

>  <rmsd>  (14) 
8.71249

>  <sdf_rank>  (14) 
0

$$$$

     RDKit          3D

 66 67  0  0  0  0  0  0  0  0999 V2000
   41.9098   37.2572   -3.6183 O   0  0  0  0  0  0  0  0  0  0  0  0
   35.6859   40.1843   -4.6239 O   0  0  0  0  0  0  0  0  0  0  0  0
   38.2504   36.4768   -1.2391 C   0  0  0  0  0  0  0  0  0  0  0  0
   39.3928   35.4841   -1.3835 C   0  0  1  0  0  0  0  0  0  0  0  0
   39.0497   34.1639   -0.7136 C   0  0  0  0  0  0  0  0  0  0  0  0
   34.6901   38.2862   -7.4955 C   0  0  1  0  0  0  0  0  0  0  0  0
   38.5948   36.3992   -4.7229 N   0  0  0  0  0  0  0  0  0  0  0  0
   37.1646   35.1783   -6.2639 C   0  0  0  0  0  0  0  0  0  0  0  0
   38.2137   35.1989   -5.1694 C   0  0  0  0  0  0  0  0  0  0  0  0
   39.6397   36.5345   -3.7194 C   0  0  1  0  0  0  0  0  0  0  0  0
   39.7404   35.2764   -2.8527 C   0  0  0  0  0  0  0  0  0  0  0  0
   38.6764   34.1497   -4.7331 O   0  0  0  0  0  0  0  0  0  0  0  0
   33.1697   38.0471   -7.5095 C   0  0  0  0  0  0  0  0  0  0  0  0
   32.6508   38.0533   -8.9259 C   0  0  0  0  0  0  0  0  0  0  0  0
   32.5720   39.0281  -11.1285 C   0  0  0  0  0  0  0  0  0  0  0  0
   33.0211   39.0488   -9.8188 C   0  0  0  0  0  0  0  0  0  0  0  0
   31.7454   38.0154  -11.5609 C   0  0  0  0  0  0  0  0  0  0  0  0
   36.8520   41.4857   -2.9811 C   0  0  0  0  0  0  0  0  0  0  0  0
   36.7281   40.5911   -1.9298 C   0  0  0  0  0  0  0  0  0  0  0  0
   36.8629   40.9991   -4.3982 C   0  0  0  0  0  0  0  0  0  0  0  0
   35.3145   40.0271   -5.9065 C   0  0  0  0  0  0  0  0  0  0  0  0
   31.8119   37.0441   -9.3744 C   0  0  0  0  0  0  0  0  0  0  0  0
   31.3626   37.0258  -10.6836 C   0  0  0  0  0  0  0  0  0  0  0  0
   41.0004   36.8364   -4.3649 C   0  0  0  0  0  0  0  0  0  0  0  0
   36.2314   36.9993   -9.2425 O   0  0  0  0  0  0  0  0  0  0  0  0
   36.7351   41.0361   -0.6202 C   0  0  0  0  0  0  0  0  0  0  0  0
   36.8707   42.3783   -0.3447 C   0  0  0  0  0  0  0  0  0  0  0  0
   36.9879   43.2780   -1.3789 C   0  0  0  0  0  0  0  0  0  0  0  0
   34.5582   35.5811   -7.9099 O   0  0  0  0  0  0  0  0  0  0  0  0
   35.1645   40.9359   -6.6954 O   0  0  0  0  0  0  0  0  0  0  0  0
   36.9778   42.8370   -2.6902 C   0  0  0  0  0  0  0  0  0  0  0  0
   36.7656   36.4864   -6.7756 N   0  0  0  0  0  0  0  0  0  0  0  0
   35.1399   38.7271   -6.1836 N   0  0  0  0  0  0  0  0  0  0  0  0
   41.1088   36.6352   -5.5992 O   0  0  0  0  0  0  0  0  0  0  0  0
   35.5932   36.6597   -7.9661 P   0  0  2  0  0  0  0  0  0  0  0  0
   38.0493   36.6515   -0.1718 H   0  0  0  0  0  0  0  0  0  0  0  0
   38.5268   37.4265   -1.7204 H   0  0  0  0  0  0  0  0  0  0  0  0
   37.3486   36.0706   -1.7204 H   0  0  0  0  0  0  0  0  0  0  0  0
   40.2769   35.8997   -0.8781 H   0  0  0  0  0  0  0  0  0  0  0  0
   39.0819   34.2878    0.3789 H   0  0  0  0  0  0  0  0  0  0  0  0
   38.0402   33.8499   -1.0174 H   0  0  0  0  0  0  0  0  0  0  0  0
   39.7788   33.3982   -1.0174 H   0  0  0  0  0  0  0  0  0  0  0  0
   34.9247   39.0754   -8.2250 H   0  0  0  0  0  0  0  0  0  0  0  0
   38.1402   37.2447   -5.0962 H   0  0  0  0  0  0  0  0  0  0  0  0
   37.5636   34.5924   -7.1051 H   0  0  0  0  0  0  0  0  0  0  0  0
   36.2622   34.7430   -5.8098 H   0  0  0  0  0  0  0  0  0  0  0  0
   39.3636   37.3834   -3.0767 H   0  0  0  0  0  0  0  0  0  0  0  0
   40.7734   34.9026   -2.9105 H   0  0  0  0  0  0  0  0  0  0  0  0
   38.9997   34.5665   -3.2493 H   0  0  0  0  0  0  0  0  0  0  0  0
   32.9515   37.0729   -7.0476 H   0  0  0  0  0  0  0  0  0  0  0  0
   32.6762   38.8516   -6.9446 H   0  0  0  0  0  0  0  0  0  0  0  0
   32.8764   39.8230  -11.8253 H   0  0  0  0  0  0  0  0  0  0  0  0
   33.6790   39.8636   -9.4823 H   0  0  0  0  0  0  0  0  0  0  0  0
   31.3924   37.9971  -12.6026 H   0  0  0  0  0  0  0  0  0  0  0  0
   36.6232   39.5163   -2.1391 H   0  0  0  0  0  0  0  0  0  0  0  0
   37.7672   40.3985   -4.5754 H   0  0  0  0  0  0  0  0  0  0  0  0
   36.8599   41.8569   -5.0868 H   0  0  0  0  0  0  0  0  0  0  0  0
   31.4999   36.2487   -8.6816 H   0  0  0  0  0  0  0  0  0  0  0  0
   30.6978   36.2183  -11.0240 H   0  0  0  0  0  0  0  0  0  0  0  0
   36.6321   40.3151    0.2041 H   0  0  0  0  0  0  0  0  0  0  0  0
   36.8852   42.7297    0.6976 H   0  0  0  0  0  0  0  0  0  0  0  0
   37.0899   44.3517   -1.1625 H   0  0  0  0  0  0  0  0  0  0  0  0
   34.3541   35.3686   -6.9647 H   0  0  0  0  0  0  0  0  0  0  0  0
   37.0705   43.5643   -3.5102 H   0  0  0  0  0  0  0  0  0  0  0  0
   36.4320   37.0239   -5.9627 H   0  0  0  0  0  0  0  0  0  0  0  0
   35.3279   38.0260   -5.4529 H   0  0  0  0  0  0  0  0  0  0  0  0
  1 24  2  0
  2 20  1  0
  2 21  1  0
  4  3  1  0
  4  5  1  0
  4 11  1  0
  6 13  1  0
  6 33  1  0
  6 35  1  0
  7  9  1  0
  7 10  1  0
  8  9  1  0
  8 32  1  0
  9 12  2  0
 10 11  1  0
 10 24  1  0
 13 14  1  0
 14 16  1  0
 14 22  2  0
 15 16  2  0
 15 17  1  0
 17 23  2  0
 18 19  2  0
 18 20  1  0
 18 31  1  0
 19 26  1  0
 21 30  2  0
 21 33  1  0
 22 23  1  0
 24 34  1  0
 25 35  2  0
 26 27  2  0
 27 28  1  0
 28 31  2  0
 35 29  1  6
 32 35  1  0
  3 36  1  0
  3 37  1  0
  3 38  1  0
  4 39  1  1
  5 40  1  0
  5 41  1  0
  5 42  1  0
  6 43  1  6
  7 44  1  0
  8 45  1  0
  8 46  1  0
 10 47  1  1
 11 48  1  0
 11 49  1  0
 13 50  1  0
 13 51  1  0
 15 52  1  0
 16 53  1  0
 17 54  1  0
 19 55  1  0
 20 56  1  0
 20 57  1  0
 22 58  1  0
 23 59  1  0
 26 60  1  0
 27 61  1  0
 28 62  1  0
 29 63  1  0
 31 64  1  0
 32 65  1  0
 33 66  1  0
M  CHG  1  34  -1
M  END
>  <filename_input>  (15) 
6YMS_OZH_docked.sdf

>  <pdb_id>  (15) 
6YMS_OZH

>  <pose_rank>  (15) 
14

>  <num_atoms_heavy>  (15) 
35

>  <num_torsions>  (15) 
14

>  <pose>  (15) 
[34.69008961221854, 38.28622022935258, -7.495453604477502, 3.1445332571242783, 1.7383401429083905, -2.871044200373542, 0.3803951648659595, -0.7752524947497355, 0.1321244209212501, -2.016540561975903, -0.6212400584130132, 3.953680441148801, -1.2100083396050212, -0.05460654910144571, -2.242267565790964, 0.17252172168818533, -0.8863740001601421, -2.4189271443677143, 1.6366101961058293, 0.8533897673867583]

>  <energy>  (15) 
-632.1784137912725

>  <inter_energy>  (15) 
-682.7751122472077

>  <intra_energy>  (15) 
49.07298118663641

>  <rmsd>  (15) 
8.33642

>  <sdf_rank>  (15) 
0

$$$$

     RDKit          3D

 66 67  0  0  0  0  0  0  0  0999 V2000
   31.3679   36.4063   -7.9020 O   0  0  0  0  0  0  0  0  0  0  0  0
   38.2215   38.4287   -3.5610 O   0  0  0  0  0  0  0  0  0  0  0  0
   32.1940   38.2246  -12.4728 C   0  0  0  0  0  0  0  0  0  0  0  0
   32.4661   39.2001  -11.3389 C   0  0  1  0  0  0  0  0  0  0  0  0
   31.1690   39.7875  -10.8081 C   0  0  0  0  0  0  0  0  0  0  0  0
   36.2131   41.3458   -4.1062 C   0  0  1  0  0  0  0  0  0  0  0  0
   33.2047   38.6543   -7.7650 N   0  0  0  0  0  0  0  0  0  0  0  0
   35.0918   38.6103   -6.2328 C   0  0  0  0  0  0  0  0  0  0  0  0
   34.4305   38.1787   -7.5272 C   0  0  0  0  0  0  0  0  0  0  0  0
   32.4556   38.2536   -8.9463 C   0  0  1  0  0  0  0  0  0  0  0  0
   33.2541   38.5215  -10.2249 C   0  0  0  0  0  0  0  0  0  0  0  0
   35.0133   37.4261   -8.3012 O   0  0  0  0  0  0  0  0  0  0  0  0
   35.4942   41.3296   -2.7454 C   0  0  0  0  0  0  0  0  0  0  0  0
   36.1764   42.2672   -1.7806 C   0  0  0  0  0  0  0  0  0  0  0  0
   37.0288   42.7612    0.4189 C   0  0  0  0  0  0  0  0  0  0  0  0
   36.3679   41.9122   -0.4529 C   0  0  0  0  0  0  0  0  0  0  0  0
   37.5030   43.9756   -0.0239 C   0  0  0  0  0  0  0  0  0  0  0  0
   39.6361   36.5580   -3.0596 C   0  0  0  0  0  0  0  0  0  0  0  0
   40.7610   36.2759   -2.3007 C   0  0  0  0  0  0  0  0  0  0  0  0
   38.5703   37.4696   -2.5322 C   0  0  0  0  0  0  0  0  0  0  0  0
   37.3811   39.4109   -3.1912 C   0  0  0  0  0  0  0  0  0  0  0  0
   36.6534   43.4967   -2.2096 C   0  0  0  0  0  0  0  0  0  0  0  0
   37.3124   44.3449   -1.3364 C   0  0  0  0  0  0  0  0  0  0  0  0
   32.0549   36.7722   -8.8796 C   0  0  0  0  0  0  0  0  0  0  0  0
   35.7145   41.5028   -6.7159 O   0  0  0  0  0  0  0  0  0  0  0  0
   41.7379   35.4210   -2.7781 C   0  0  0  0  0  0  0  0  0  0  0  0
   41.6012   34.8343   -4.0162 C   0  0  0  0  0  0  0  0  0  0  0  0
   40.4927   35.1107   -4.7829 C   0  0  0  0  0  0  0  0  0  0  0  0
   33.8248   42.2130   -5.1312 O   0  0  0  0  0  0  0  0  0  0  0  0
   36.9206   39.5386   -2.0766 O   0  0  0  0  0  0  0  0  0  0  0  0
   39.5151   35.9679   -4.3100 C   0  0  0  0  0  0  0  0  0  0  0  0
   34.3965   39.6592   -5.4921 N   0  0  0  0  0  0  0  0  0  0  0  0
   37.1326   40.2243   -4.2274 N   0  0  0  0  0  0  0  0  0  0  0  0
   32.4408   36.0293   -9.8150 O   0  0  0  0  0  0  0  0  0  0  0  0
   34.9111   41.2581   -5.5134 P   0  0  2  0  0  0  0  0  0  0  0  0
   31.9206   37.2443  -12.0554 H   0  0  0  0  0  0  0  0  0  0  0  0
   31.3672   38.6032  -13.0917 H   0  0  0  0  0  0  0  0  0  0  0  0
   33.0974   38.1206  -13.0917 H   0  0  0  0  0  0  0  0  0  0  0  0
   33.0747   40.0270  -11.7338 H   0  0  0  0  0  0  0  0  0  0  0  0
   31.1860   39.7798   -9.7082 H   0  0  0  0  0  0  0  0  0  0  0  0
   31.0614   40.8221  -11.1659 H   0  0  0  0  0  0  0  0  0  0  0  0
   30.3205   39.1857  -11.1659 H   0  0  0  0  0  0  0  0  0  0  0  0
   36.7922   42.2779   -4.1826 H   0  0  0  0  0  0  0  0  0  0  0  0
   32.7821   39.3172   -7.0995 H   0  0  0  0  0  0  0  0  0  0  0  0
   35.1681   37.7280   -5.5803 H   0  0  0  0  0  0  0  0  0  0  0  0
   36.0653   39.0358   -6.5178 H   0  0  0  0  0  0  0  0  0  0  0  0
   31.5389   38.8611   -8.9701 H   0  0  0  0  0  0  0  0  0  0  0  0
   33.6246   37.5582  -10.6054 H   0  0  0  0  0  0  0  0  0  0  0  0
   34.0600   39.2169   -9.9472 H   0  0  0  0  0  0  0  0  0  0  0  0
   34.4502   41.6473   -2.8829 H   0  0  0  0  0  0  0  0  0  0  0  0
   35.5274   40.3092   -2.3358 H   0  0  0  0  0  0  0  0  0  0  0  0
   37.1752   42.4645    1.4679 H   0  0  0  0  0  0  0  0  0  0  0  0
   35.9905   40.9453   -0.0888 H   0  0  0  0  0  0  0  0  0  0  0  0
   38.0317   44.6478    0.6680 H   0  0  0  0  0  0  0  0  0  0  0  0
   40.8780   36.7365   -1.3087 H   0  0  0  0  0  0  0  0  0  0  0  0
   38.9446   38.0003   -1.6443 H   0  0  0  0  0  0  0  0  0  0  0  0
   37.6826   36.8829   -2.2532 H   0  0  0  0  0  0  0  0  0  0  0  0
   36.5064   43.8016   -3.2562 H   0  0  0  0  0  0  0  0  0  0  0  0
   37.6850   45.3168   -1.6923 H   0  0  0  0  0  0  0  0  0  0  0  0
   42.6274   35.2092   -2.1665 H   0  0  0  0  0  0  0  0  0  0  0  0
   42.3747   34.1476   -4.3907 H   0  0  0  0  0  0  0  0  0  0  0  0
   40.3833   34.6487   -5.7751 H   0  0  0  0  0  0  0  0  0  0  0  0
   33.7643   42.2662   -4.1445 H   0  0  0  0  0  0  0  0  0  0  0  0
   38.6333   36.1839   -4.9312 H   0  0  0  0  0  0  0  0  0  0  0  0
   33.4274   39.6640   -5.8411 H   0  0  0  0  0  0  0  0  0  0  0  0
   37.6021   40.0520   -5.1278 H   0  0  0  0  0  0  0  0  0  0  0  0
  1 24  2  0
  2 20  1  0
  2 21  1  0
  4  3  1  0
  4  5  1  0
  4 11  1  0
  6 13  1  0
  6 33  1  0
  6 35  1  0
  7  9  1  0
  7 10  1  0
  8  9  1  0
  8 32  1  0
  9 12  2  0
 10 11  1  0
 10 24  1  0
 13 14  1  0
 14 16  1  0
 14 22  2  0
 15 16  2  0
 15 17  1  0
 17 23  2  0
 18 19  2  0
 18 20  1  0
 18 31  1  0
 19 26  1  0
 21 30  2  0
 21 33  1  0
 22 23  1  0
 24 34  1  0
 25 35  2  0
 26 27  2  0
 27 28  1  0
 28 31  2  0
 35 29  1  1
 32 35  1  0
  3 36  1  0
  3 37  1  0
  3 38  1  0
  4 39  1  6
  5 40  1  0
  5 41  1  0
  5 42  1  0
  6 43  1  6
  7 44  1  0
  8 45  1  0
  8 46  1  0
 10 47  1  6
 11 48  1  0
 11 49  1  0
 13 50  1  0
 13 51  1  0
 15 52  1  0
 16 53  1  0
 17 54  1  0
 19 55  1  0
 20 56  1  0
 20 57  1  0
 22 58  1  0
 23 59  1  0
 26 60  1  0
 27 61  1  0
 28 62  1  0
 29 63  1  0
 31 64  1  0
 32 65  1  0
 33 66  1  0
M  CHG  1  34  -1
M  END
>  <filename_input>  (16) 
6YMS_OZH_docked.sdf

>  <pdb_id>  (16) 
6YMS_OZH

>  <pose_rank>  (16) 
15

>  <num_atoms_heavy>  (16) 
35

>  <num_torsions>  (16) 
14

>  <pose>  (16) 
[36.21309917507999, 41.345754170574914, -4.106249995583938, 0.1835211633564775, 0.15961588237122684, 0.36276047639181563, 27.08288809868734, 25.251627907105807, 32.02986066781057, -6.918504110629724, 6.646345820509175, -6.373971793848949, 0.12016794386952505, -0.2909303737653397, 3.5277782971835694, -1.6944878692587295, 5.075161814769473, 1.3262597110432377, -5.744262803532992, -0.7504755245699855]

>  <energy>  (16) 
-789.2966323716628

>  <inter_energy>  (16) 
-900.1344107700764

>  <intra_energy>  (16) 
112.34235485119731

>  <rmsd>  (16) 
2.27405

>  <sdf_rank>  (16) 
0

$$$$

     RDKit          3D

 66 67  0  0  0  0  0  0  0  0999 V2000
   33.7744   38.9396   -6.7858 O   0  0  0  0  0  0  0  0  0  0  0  0
   38.8182   39.6620   -3.4564 O   0  0  0  0  0  0  0  0  0  0  0  0
   30.2896   37.1209   -9.7415 C   0  0  0  0  0  0  0  0  0  0  0  0
   31.3413   37.0817   -8.6443 C   0  0  1  0  0  0  0  0  0  0  0  0
   30.9165   36.1501   -7.5213 C   0  0  0  0  0  0  0  0  0  0  0  0
   38.5196   36.2213   -4.4117 C   0  0  1  0  0  0  0  0  0  0  0  0
   34.4013   36.4474   -7.4497 N   0  0  0  0  0  0  0  0  0  0  0  0
   35.6312   34.5619   -6.5317 C   0  0  0  0  0  0  0  0  0  0  0  0
   35.2267   35.4290   -7.7079 C   0  0  0  0  0  0  0  0  0  0  0  0
   33.9016   37.3030   -8.5153 C   0  0  1  0  0  0  0  0  0  0  0  0
   32.6941   36.6702   -9.2124 C   0  0  0  0  0  0  0  0  0  0  0  0
   35.6493   35.1848   -8.8335 O   0  0  0  0  0  0  0  0  0  0  0  0
   40.0096   35.8575   -4.2822 C   0  0  0  0  0  0  0  0  0  0  0  0
   40.2177   34.8976   -3.1374 C   0  0  0  0  0  0  0  0  0  0  0  0
   39.8018   32.7741   -2.0763 C   0  0  0  0  0  0  0  0  0  0  0  0
   39.5773   33.6669   -3.1107 C   0  0  0  0  0  0  0  0  0  0  0  0
   40.6655   33.1010   -1.0551 C   0  0  0  0  0  0  0  0  0  0  0  0
   37.3391   40.9815   -2.1062 C   0  0  0  0  0  0  0  0  0  0  0  0
   37.2156   40.9744   -0.7257 C   0  0  0  0  0  0  0  0  0  0  0  0
   37.4964   39.6983   -2.8635 C   0  0  0  0  0  0  0  0  0  0  0  0
   39.2916   38.4427   -3.7681 C   0  0  0  0  0  0  0  0  0  0  0  0
   41.0791   35.2152   -2.0980 C   0  0  0  0  0  0  0  0  0  0  0  0
   41.3012   34.3222   -1.0639 C   0  0  0  0  0  0  0  0  0  0  0  0
   33.5304   38.6967   -7.9870 C   0  0  0  0  0  0  0  0  0  0  0  0
   39.2314   35.7411   -6.9309 O   0  0  0  0  0  0  0  0  0  0  0  0
   37.0877   42.1587   -0.0227 C   0  0  0  0  0  0  0  0  0  0  0  0
   37.0863   43.3638   -0.6888 C   0  0  0  0  0  0  0  0  0  0  0  0
   37.2014   43.3850   -2.0597 C   0  0  0  0  0  0  0  0  0  0  0  0
   37.1426   37.1889   -6.5737 O   0  0  0  0  0  0  0  0  0  0  0  0
   40.4685   38.1548   -3.8206 O   0  0  0  0  0  0  0  0  0  0  0  0
   37.3262   42.2022   -2.7664 C   0  0  0  0  0  0  0  0  0  0  0  0
   37.0536   34.5749   -6.2021 N   0  0  0  0  0  0  0  0  0  0  0  0
   38.2783   37.5979   -4.0063 N   0  0  0  0  0  0  0  0  0  0  0  0
   33.0110   39.5003   -8.7995 O   0  0  0  0  0  0  0  0  0  0  0  0
   37.9644   35.9861   -6.2336 P   0  0  2  0  0  0  0  0  0  0  0  0
   29.2880   37.1582   -9.2882 H   0  0  0  0  0  0  0  0  0  0  0  0
   30.4434   38.0139  -10.3650 H   0  0  0  0  0  0  0  0  0  0  0  0
   30.3765   36.2189  -10.3650 H   0  0  0  0  0  0  0  0  0  0  0  0
   31.4398   38.0937   -8.2246 H   0  0  0  0  0  0  0  0  0  0  0  0
   31.1319   36.6226   -6.5516 H   0  0  0  0  0  0  0  0  0  0  0  0
   29.8378   35.9493   -7.5997 H   0  0  0  0  0  0  0  0  0  0  0  0
   31.4722   35.2040   -7.5997 H   0  0  0  0  0  0  0  0  0  0  0  0
   37.9413   35.5594   -3.7503 H   0  0  0  0  0  0  0  0  0  0  0  0
   34.1132   36.6303   -6.4778 H   0  0  0  0  0  0  0  0  0  0  0  0
   35.0751   34.9083   -5.6480 H   0  0  0  0  0  0  0  0  0  0  0  0
   35.3979   33.5274   -6.8242 H   0  0  0  0  0  0  0  0  0  0  0  0
   34.7133   37.4140   -9.2492 H   0  0  0  0  0  0  0  0  0  0  0  0
   32.7834   35.5771   -9.1267 H   0  0  0  0  0  0  0  0  0  0  0  0
   32.7149   37.0265  -10.2529 H   0  0  0  0  0  0  0  0  0  0  0  0
   40.3506   35.3873   -5.2164 H   0  0  0  0  0  0  0  0  0  0  0  0
   40.5858   36.7744   -4.0890 H   0  0  0  0  0  0  0  0  0  0  0  0
   39.2887   31.8012   -2.0705 H   0  0  0  0  0  0  0  0  0  0  0  0
   38.8833   33.3975   -3.9205 H   0  0  0  0  0  0  0  0  0  0  0  0
   40.8469   32.3896   -0.2359 H   0  0  0  0  0  0  0  0  0  0  0  0
   37.2195   40.0172   -0.1837 H   0  0  0  0  0  0  0  0  0  0  0  0
   36.7349   39.6411   -3.6552 H   0  0  0  0  0  0  0  0  0  0  0  0
   37.3706   38.8449   -2.1809 H   0  0  0  0  0  0  0  0  0  0  0  0
   41.5919   36.1883   -2.0953 H   0  0  0  0  0  0  0  0  0  0  0  0
   41.9876   34.5890   -0.2468 H   0  0  0  0  0  0  0  0  0  0  0  0
   36.9867   42.1377    1.0724 H   0  0  0  0  0  0  0  0  0  0  0  0
   36.9935   44.3052   -0.1275 H   0  0  0  0  0  0  0  0  0  0  0  0
   37.1942   44.3456   -2.5955 H   0  0  0  0  0  0  0  0  0  0  0  0
   36.8416   37.6294   -5.7397 H   0  0  0  0  0  0  0  0  0  0  0  0
   37.4160   42.2296   -3.8624 H   0  0  0  0  0  0  0  0  0  0  0  0
   37.1306   34.2040   -5.2443 H   0  0  0  0  0  0  0  0  0  0  0  0
   37.3091   37.9300   -3.9001 H   0  0  0  0  0  0  0  0  0  0  0  0
  1 24  2  0
  2 20  1  0
  2 21  1  0
  4  3  1  0
  4  5  1  0
  4 11  1  0
  6 13  1  0
  6 33  1  0
  6 35  1  0
  7  9  1  0
  7 10  1  0
  8  9  1  0
  8 32  1  0
  9 12  2  0
 10 11  1  0
 10 24  1  0
 13 14  1  0
 14 16  1  0
 14 22  2  0
 15 16  2  0
 15 17  1  0
 17 23  2  0
 18 19  2  0
 18 20  1  0
 18 31  1  0
 19 26  1  0
 21 30  2  0
 21 33  1  0
 22 23  1  0
 24 34  1  0
 25 35  2  0
 26 27  2  0
 27 28  1  0
 28 31  2  0
 35 29  1  6
 32 35  1  0
  3 36  1  0
  3 37  1  0
  3 38  1  0
  4 39  1  1
  5 40  1  0
  5 41  1  0
  5 42  1  0
  6 43  1  1
  7 44  1  0
  8 45  1  0
  8 46  1  0
 10 47  1  6
 11 48  1  0
 11 49  1  0
 13 50  1  0
 13 51  1  0
 15 52  1  0
 16 53  1  0
 17 54  1  0
 19 55  1  0
 20 56  1  0
 20 57  1  0
 22 58  1  0
 23 59  1  0
 26 60  1  0
 27 61  1  0
 28 62  1  0
 29 63  1  0
 31 64  1  0
 32 65  1  0
 33 66  1  0
M  CHG  1  34  -1
M  END
>  <filename_input>  (17) 
6YMS_OZH_docked.sdf

>  <pdb_id>  (17) 
6YMS_OZH

>  <pose_rank>  (17) 
16

>  <num_atoms_heavy>  (17) 
35

>  <num_torsions>  (17) 
14

>  <pose>  (17) 
[38.51960207451767, 36.22126979652341, -4.411666660467292, -1.3237597402476582, -0.1491079072676058, -2.7820115756169175, 21.08615107669937, 16.28806127649748, -6.175181911710351, 1.3493898527618522, 41.20418077026203, 22.308227877221455, 52.8868938185965, 41.81866254512204, 24.781717208420663, 3.6546386576994268, 9.027240113135164, -6.773836939872644, 7.018842119051694, -3.5819646051099707]

>  <energy>  (17) 
-488.75747002681936

>  <inter_energy>  (17) 
-582.3600465858168

>  <intra_energy>  (17) 
91.46605643435105

>  <rmsd>  (17) 
5.91003

>  <sdf_rank>  (17) 
0

$$$$

     RDKit          3D

 66 67  0  0  0  0  0  0  0  0999 V2000
   32.3387   35.0529  -12.1724 O   0  0  0  0  0  0  0  0  0  0  0  0
   36.6963   41.7464   -4.1501 O   0  0  0  0  0  0  0  0  0  0  0  0
   34.3443   30.0886  -10.9830 C   0  0  0  0  0  0  0  0  0  0  0  0
   34.7740   31.5457  -10.9220 C   0  0  1  0  0  0  0  0  0  0  0  0
   35.5197   31.9428  -12.1853 C   0  0  0  0  0  0  0  0  0  0  0  0
   35.4467   39.3744   -6.5275 C   0  0  1  0  0  0  0  0  0  0  0  0
   34.5259   34.3803   -9.4941 N   0  0  0  0  0  0  0  0  0  0  0  0
   36.2054   35.5468   -8.1791 C   0  0  0  0  0  0  0  0  0  0  0  0
   35.5661   35.2187   -9.5143 C   0  0  0  0  0  0  0  0  0  0  0  0
   33.8792   33.9501  -10.7245 C   0  0  1  0  0  0  0  0  0  0  0  0
   33.5698   32.4509  -10.6918 C   0  0  0  0  0  0  0  0  0  0  0  0
   36.0033   35.7108  -10.5496 O   0  0  0  0  0  0  0  0  0  0  0  0
   33.9468   39.6793   -6.3657 C   0  0  0  0  0  0  0  0  0  0  0  0
   33.2795   39.7612   -7.7160 C   0  0  0  0  0  0  0  0  0  0  0  0
   32.5312   41.0449   -9.6134 C   0  0  0  0  0  0  0  0  0  0  0  0
   33.1100   40.9800   -8.3572 C   0  0  0  0  0  0  0  0  0  0  0  0
   32.1119   39.8941  -10.2426 C   0  0  0  0  0  0  0  0  0  0  0  0
   37.2137   41.3224   -1.8469 C   0  0  0  0  0  0  0  0  0  0  0  0
   37.7436   42.5749   -1.5795 C   0  0  0  0  0  0  0  0  0  0  0  0
   37.2438   40.7635   -3.2367 C   0  0  0  0  0  0  0  0  0  0  0  0
   35.8188   41.2840   -5.0577 C   0  0  0  0  0  0  0  0  0  0  0  0
   32.8456   38.6119   -8.3595 C   0  0  0  0  0  0  0  0  0  0  0  0
   32.2657   38.6786   -9.6147 C   0  0  0  0  0  0  0  0  0  0  0  0
   32.5916   34.7451  -10.9880 C   0  0  0  0  0  0  0  0  0  0  0  0
   34.3986   36.9891   -5.9841 O   0  0  0  0  0  0  0  0  0  0  0  0
   37.7015   43.1004   -0.3007 C   0  0  0  0  0  0  0  0  0  0  0  0
   37.1259   42.3841    0.7248 C   0  0  0  0  0  0  0  0  0  0  0  0
   36.6020   41.1367    0.4746 C   0  0  0  0  0  0  0  0  0  0  0  0
   36.8379   37.3691   -5.2825 O   0  0  0  0  0  0  0  0  0  0  0  0
   34.7960   41.8521   -5.3770 O   0  0  0  0  0  0  0  0  0  0  0  0
   36.6453   40.6065   -0.8025 C   0  0  0  0  0  0  0  0  0  0  0  0
   36.2092   36.9611   -7.8157 N   0  0  0  0  0  0  0  0  0  0  0  0
   36.2401   40.1133   -5.5568 N   0  0  0  0  0  0  0  0  0  0  0  0
   31.8770   35.0280   -9.9955 O   0  0  0  0  0  0  0  0  0  0  0  0
   35.7413   37.4927   -6.2925 P   0  0  2  0  0  0  0  0  0  0  0  0
   34.2289   29.6973   -9.9615 H   0  0  0  0  0  0  0  0  0  0  0  0
   33.3851   30.0112  -11.5159 H   0  0  0  0  0  0  0  0  0  0  0  0
   35.1081   29.5032  -11.5159 H   0  0  0  0  0  0  0  0  0  0  0  0
   35.4611   31.6674  -10.0717 H   0  0  0  0  0  0  0  0  0  0  0  0
   36.4605   32.4438  -11.9135 H   0  0  0  0  0  0  0  0  0  0  0  0
   35.7413   31.0432  -12.7783 H   0  0  0  0  0  0  0  0  0  0  0  0
   34.8970   32.6287  -12.7783 H   0  0  0  0  0  0  0  0  0  0  0  0
   35.7577   39.6841   -7.5362 H   0  0  0  0  0  0  0  0  0  0  0  0
   34.1752   34.0319   -8.5905 H   0  0  0  0  0  0  0  0  0  0  0  0
   35.6598   34.9974   -7.3977 H   0  0  0  0  0  0  0  0  0  0  0  0
   37.2621   35.2549   -8.2698 H   0  0  0  0  0  0  0  0  0  0  0  0
   34.5834   34.1462  -11.5464 H   0  0  0  0  0  0  0  0  0  0  0  0
   32.8265   32.2375  -11.4741 H   0  0  0  0  0  0  0  0  0  0  0  0
   33.2064   32.2313   -9.6770 H   0  0  0  0  0  0  0  0  0  0  0  0
   33.4756   38.8790   -5.7762 H   0  0  0  0  0  0  0  0  0  0  0  0
   33.8318   40.6447   -5.8511 H   0  0  0  0  0  0  0  0  0  0  0  0
   32.4060   42.0183  -10.1101 H   0  0  0  0  0  0  0  0  0  0  0  0
   33.4391   41.9054   -7.8618 H   0  0  0  0  0  0  0  0  0  0  0  0
   31.6562   39.9457  -11.2424 H   0  0  0  0  0  0  0  0  0  0  0  0
   38.2022   43.1569   -2.3924 H   0  0  0  0  0  0  0  0  0  0  0  0
   36.6406   39.8446   -3.2783 H   0  0  0  0  0  0  0  0  0  0  0  0
   38.2798   40.5271   -3.5209 H   0  0  0  0  0  0  0  0  0  0  0  0
   32.9636   37.6356   -7.8666 H   0  0  0  0  0  0  0  0  0  0  0  0
   31.9269   37.7578  -10.1119 H   0  0  0  0  0  0  0  0  0  0  0  0
   38.1294   44.0941   -0.1022 H   0  0  0  0  0  0  0  0  0  0  0  0
   37.0851   42.8072    1.7393 H   0  0  0  0  0  0  0  0  0  0  0  0
   36.1471   40.5591    1.2928 H   0  0  0  0  0  0  0  0  0  0  0  0
   36.4535   37.4124   -4.3712 H   0  0  0  0  0  0  0  0  0  0  0  0
   36.2252   39.6077   -0.9921 H   0  0  0  0  0  0  0  0  0  0  0  0
   37.1757   37.2905   -7.9512 H   0  0  0  0  0  0  0  0  0  0  0  0
   37.1440   39.7288   -5.2468 H   0  0  0  0  0  0  0  0  0  0  0  0
  1 24  2  0
  2 20  1  0
  2 21  1  0
  4  3  1  0
  4  5  1  0
  4 11  1  0
  6 13  1  0
  6 33  1  0
  6 35  1  0
  7  9  1  0
  7 10  1  0
  8  9  1  0
  8 32  1  0
  9 12  2  0
 10 11  1  0
 10 24  1  0
 13 14  1  0
 14 16  1  0
 14 22  2  0
 15 16  2  0
 15 17  1  0
 17 23  2  0
 18 19  2  0
 18 20  1  0
 18 31  1  0
 19 26  1  0
 21 30  2  0
 21 33  1  0
 22 23  1  0
 24 34  1  0
 25 35  2  0
 26 27  2  0
 27 28  1  0
 28 31  2  0
 35 29  1  1
 32 35  1  0
  3 36  1  0
  3 37  1  0
  3 38  1  0
  4 39  1  1
  5 40  1  0
  5 41  1  0
  5 42  1  0
  6 43  1  6
  7 44  1  0
  8 45  1  0
  8 46  1  0
 10 47  1  6
 11 48  1  0
 11 49  1  0
 13 50  1  0
 13 51  1  0
 15 52  1  0
 16 53  1  0
 17 54  1  0
 19 55  1  0
 20 56  1  0
 20 57  1  0
 22 58  1  0
 23 59  1  0
 26 60  1  0
 27 61  1  0
 28 62  1  0
 29 63  1  0
 31 64  1  0
 32 65  1  0
 33 66  1  0
M  CHG  1  34  -1
M  END
>  <filename_input>  (18) 
6YMS_OZH_docked.sdf

>  <pdb_id>  (18) 
6YMS_OZH

>  <pose_rank>  (18) 
17

>  <num_atoms_heavy>  (18) 
35

>  <num_torsions>  (18) 
14

>  <pose>  (18) 
[35.44674201099883, 39.374419458469845, -6.527514141725837, -1.4933390156413984, -0.11019481763279769, 0.9885080216605655, 1.5878392658534857, -3.7572132432037257, 1.2794498596554325, 2.4372644814667535, -2.657086017409838, -1.4399971835162482, -2.0539632006716086, -2.240799281727407, 0.6020674757227719, -0.22847229303301997, -0.20674840805728073, 0.15873514909761513, 1.3006192986400462, 6.303966889607562]

>  <energy>  (18) 
-585.9614874366143

>  <inter_energy>  (18) 
-627.5262197640235

>  <intra_energy>  (18) 
40.76910000920522

>  <rmsd>  (18) 
6.3727

>  <sdf_rank>  (18) 
0

$$$$

     RDKit          3D

 66 67  0  0  0  0  0  0  0  0999 V2000
   38.2443   43.3103   -1.1513 O   0  0  0  0  0  0  0  0  0  0  0  0
   31.6536   38.0601   -8.6315 O   0  0  0  0  0  0  0  0  0  0  0  0
   38.6448   38.6936   -2.8319 C   0  0  0  0  0  0  0  0  0  0  0  0
   37.7257   38.6131   -1.6235 C   0  0  1  0  0  0  0  0  0  0  0  0
   37.9250   37.3034   -0.8789 C   0  0  0  0  0  0  0  0  0  0  0  0
   34.9708   38.9412   -7.6020 C   0  0  1  0  0  0  0  0  0  0  0  0
   37.4149   41.2471   -2.6258 N   0  0  0  0  0  0  0  0  0  0  0  0
   36.5825   41.7452   -4.8550 C   0  0  0  0  0  0  0  0  0  0  0  0
   36.3938   41.7127   -3.3509 C   0  0  0  0  0  0  0  0  0  0  0  0
   37.3155   41.1143   -1.1802 C   0  0  1  0  0  0  0  0  0  0  0  0
   37.9478   39.8050   -0.7002 C   0  0  0  0  0  0  0  0  0  0  0  0
   35.3432   42.0990   -2.8485 O   0  0  0  0  0  0  0  0  0  0  0  0
   35.2254   37.8153   -6.5839 C   0  0  0  0  0  0  0  0  0  0  0  0
   35.7310   36.5789   -7.2847 C   0  0  0  0  0  0  0  0  0  0  0  0
   36.9090   35.5332   -9.1086 C   0  0  0  0  0  0  0  0  0  0  0  0
   36.4140   36.6684   -8.4892 C   0  0  0  0  0  0  0  0  0  0  0  0
   36.7250   34.2953   -8.5344 C   0  0  0  0  0  0  0  0  0  0  0  0
   31.1464   38.1144  -10.9750 C   0  0  0  0  0  0  0  0  0  0  0  0
   30.0195   38.8571  -10.6599 C   0  0  0  0  0  0  0  0  0  0  0  0
   31.9228   37.4152   -9.9010 C   0  0  0  0  0  0  0  0  0  0  0  0
   32.6827   38.1153   -7.7680 C   0  0  0  0  0  0  0  0  0  0  0  0
   35.5474   35.3244   -6.7225 C   0  0  0  0  0  0  0  0  0  0  0  0
   36.0416   34.1904   -7.3439 C   0  0  0  0  0  0  0  0  0  0  0  0
   37.9679   42.3052   -0.4622 C   0  0  0  0  0  0  0  0  0  0  0  0
   33.5772   40.5175   -5.9720 O   0  0  0  0  0  0  0  0  0  0  0  0
   29.3110   39.5176  -11.6473 C   0  0  0  0  0  0  0  0  0  0  0  0
   29.7218   39.4483  -12.9597 C   0  0  0  0  0  0  0  0  0  0  0  0
   30.8349   38.7091  -13.2874 C   0  0  0  0  0  0  0  0  0  0  0  0
   35.0598   41.6772   -7.7167 O   0  0  0  0  0  0  0  0  0  0  0  0
   32.6544   37.6816   -6.6358 O   0  0  0  0  0  0  0  0  0  0  0  0
   31.5441   38.0443  -12.3029 C   0  0  0  0  0  0  0  0  0  0  0  0
   36.1211   40.5592   -5.5712 N   0  0  0  0  0  0  0  0  0  0  0  0
   33.7378   38.7122   -8.3403 N   0  0  0  0  0  0  0  0  0  0  0  0
   38.1751   42.1904    0.7705 O   0  0  0  0  0  0  0  0  0  0  0  0
   34.8589   40.6195   -6.6780 P   0  0  2  0  0  0  0  0  0  0  0  0
   39.6876   38.7850   -2.4939 H   0  0  0  0  0  0  0  0  0  0  0  0
   38.5343   37.7824   -3.4380 H   0  0  0  0  0  0  0  0  0  0  0  0
   38.3775   39.5718   -3.4380 H   0  0  0  0  0  0  0  0  0  0  0  0
   36.6852   38.6447   -1.9789 H   0  0  0  0  0  0  0  0  0  0  0  0
   37.8967   37.4898    0.2048 H   0  0  0  0  0  0  0  0  0  0  0  0
   37.1234   36.6011   -1.1513 H   0  0  0  0  0  0  0  0  0  0  0  0
   38.8993   36.8714   -1.1513 H   0  0  0  0  0  0  0  0  0  0  0  0
   35.8053   38.9574   -8.3185 H   0  0  0  0  0  0  0  0  0  0  0  0
   38.2889   40.9771   -3.0990 H   0  0  0  0  0  0  0  0  0  0  0  0
   36.0325   42.6134   -5.2471 H   0  0  0  0  0  0  0  0  0  0  0  0
   37.6684   41.7964   -5.0226 H   0  0  0  0  0  0  0  0  0  0  0  0
   36.2447   41.1008   -0.9289 H   0  0  0  0  0  0  0  0  0  0  0  0
   37.5220   39.5598    0.2839 H   0  0  0  0  0  0  0  0  0  0  0  0
   39.0338   39.9772   -0.6720 H   0  0  0  0  0  0  0  0  0  0  0  0
   35.9759   38.1503   -5.8528 H   0  0  0  0  0  0  0  0  0  0  0  0
   34.2814   37.5755   -6.0727 H   0  0  0  0  0  0  0  0  0  0  0  0
   37.4507   35.6205  -10.0619 H   0  0  0  0  0  0  0  0  0  0  0  0
   36.5639   37.6524   -8.9574 H   0  0  0  0  0  0  0  0  0  0  0  0
   37.1223   33.3943   -9.0246 H   0  0  0  0  0  0  0  0  0  0  0  0
   29.6852   38.9220   -9.6139 H   0  0  0  0  0  0  0  0  0  0  0  0
   32.9982   37.4747  -10.1246 H   0  0  0  0  0  0  0  0  0  0  0  0
   31.6232   36.3579   -9.8528 H   0  0  0  0  0  0  0  0  0  0  0  0
   35.0026   35.2294   -5.7717 H   0  0  0  0  0  0  0  0  0  0  0  0
   35.8878   33.2026   -6.8851 H   0  0  0  0  0  0  0  0  0  0  0  0
   28.4163   40.1003  -11.3831 H   0  0  0  0  0  0  0  0  0  0  0  0
   29.1625   39.9816  -13.7425 H   0  0  0  0  0  0  0  0  0  0  0  0
   31.1621   38.6464  -14.3357 H   0  0  0  0  0  0  0  0  0  0  0  0
   35.2251   42.5471   -7.2740 H   0  0  0  0  0  0  0  0  0  0  0  0
   32.4318   37.4546  -12.5752 H   0  0  0  0  0  0  0  0  0  0  0  0
   36.9373   40.1975   -6.0849 H   0  0  0  0  0  0  0  0  0  0  0  0
   33.6746   39.0149   -9.3227 H   0  0  0  0  0  0  0  0  0  0  0  0
  1 24  2  0
  2 20  1  0
  2 21  1  0
  4  3  1  0
  4  5  1  0
  4 11  1  0
  6 13  1  0
  6 33  1  0
  6 35  1  0
  7  9  1  0
  7 10  1  0
  8  9  1  0
  8 32  1  0
  9 12  2  0
 10 11  1  0
 10 24  1  0
 13 14  1  0
 14 16  1  0
 14 22  2  0
 15 16  2  0
 15 17  1  0
 17 23  2  0
 18 19  2  0
 18 20  1  0
 18 31  1  0
 19 26  1  0
 21 30  2  0
 21 33  1  0
 22 23  1  0
 24 34  1  0
 25 35  2  0
 26 27  2  0
 27 28  1  0
 28 31  2  0
 35 29  1  6
 32 35  1  0
  3 36  1  0
  3 37  1  0
  3 38  1  0
  4 39  1  6
  5 40  1  0
  5 41  1  0
  5 42  1  0
  6 43  1  6
  7 44  1  0
  8 45  1  0
  8 46  1  0
 10 47  1  6
 11 48  1  0
 11 49  1  0
 13 50  1  0
 13 51  1  0
 15 52  1  0
 16 53  1  0
 17 54  1  0
 19 55  1  0
 20 56  1  0
 20 57  1  0
 22 58  1  0
 23 59  1  0
 26 60  1  0
 27 61  1  0
 28 62  1  0
 29 63  1  0
 31 64  1  0
 32 65  1  0
 33 66  1  0
M  CHG  1  34  -1
M  END
>  <filename_input>  (19) 
6YMS_OZH_docked.sdf

>  <pdb_id>  (19) 
6YMS_OZH

>  <pose_rank>  (19) 
18

>  <num_atoms_heavy>  (19) 
35

>  <num_torsions>  (19) 
14

>  <pose>  (19) 
[34.97080511362708, 38.94120602720952, -7.601981632935088, -2.8574410397073935, -2.1627143069751367, 2.4583702745747185, -3.6325875401902414, -2.0543101278691562, 1.1032426647399411, -3.3441742781596187, -3.8638090426899727, -1.9535870678302314, -2.3538646894992725, 1.4760897209106378, 0.6238696612210497, -2.469921315217219, 0.47231651175077466, -1.7204256318866271, 0.1620610729359626, 2.1350685795859388]

>  <energy>  (19) 
-616.6205827355692

>  <inter_energy>  (19) 
-696.7377914118131

>  <intra_energy>  (19) 
76.4022713755061

>  <rmsd>  (19) 
9.67259

>  <sdf_rank>  (19) 
0

$$$$

     RDKit          3D

 66 67  0  0  0  0  0  0  0  0999 V2000
   35.8187   31.5090   -6.6392 O   0  0  0  0  0  0  0  0  0  0  0  0
   36.6807   42.6156   -3.3992 O   0  0  0  0  0  0  0  0  0  0  0  0
   35.6730   34.4078  -10.7603 C   0  0  0  0  0  0  0  0  0  0  0  0
   35.9944   33.1701   -9.9379 C   0  0  1  0  0  0  0  0  0  0  0  0
   37.3860   33.2680   -9.3350 C   0  0  0  0  0  0  0  0  0  0  0  0
   35.0181   41.0369   -6.1530 C   0  0  1  0  0  0  0  0  0  0  0  0
   35.9012   34.9323   -7.7330 N   0  0  0  0  0  0  0  0  0  0  0  0
   35.9890   37.3540   -7.9295 C   0  0  0  0  0  0  0  0  0  0  0  0
   35.2261   36.0800   -7.6224 C   0  0  0  0  0  0  0  0  0  0  0  0
   35.2483   33.6492   -7.5224 C   0  0  1  0  0  0  0  0  0  0  0  0
   34.9439   32.9582   -8.8545 C   0  0  0  0  0  0  0  0  0  0  0  0
   34.0454   36.1277   -7.2925 O   0  0  0  0  0  0  0  0  0  0  0  0
   33.5750   41.3742   -6.5688 C   0  0  0  0  0  0  0  0  0  0  0  0
   33.2147   40.6542   -7.8444 C   0  0  0  0  0  0  0  0  0  0  0  0
   33.1921   40.5315  -10.2512 C   0  0  0  0  0  0  0  0  0  0  0  0
   33.4904   41.2140   -9.0838 C   0  0  0  0  0  0  0  0  0  0  0  0
   32.6121   39.2840  -10.1947 C   0  0  0  0  0  0  0  0  0  0  0  0
   36.8749   42.2215   -1.0415 C   0  0  0  0  0  0  0  0  0  0  0  0
   37.7770   43.2736   -1.0332 C   0  0  0  0  0  0  0  0  0  0  0  0
   36.1147   41.8796   -2.2866 C   0  0  0  0  0  0  0  0  0  0  0  0
   36.6249   42.0083   -4.5975 C   0  0  0  0  0  0  0  0  0  0  0  0
   32.6239   39.4002   -7.8041 C   0  0  0  0  0  0  0  0  0  0  0  0
   32.3249   38.7200   -8.9721 C   0  0  0  0  0  0  0  0  0  0  0  0
   36.0986   32.7268   -6.6361 C   0  0  0  0  0  0  0  0  0  0  0  0
   33.9149   38.7311   -5.4113 O   0  0  0  0  0  0  0  0  0  0  0  0
   38.4672   43.6021    0.1196 C   0  0  0  0  0  0  0  0  0  0  0  0
   38.2615   42.8875    1.2784 C   0  0  0  0  0  0  0  0  0  0  0  0
   37.3737   41.8364    1.2825 C   0  0  0  0  0  0  0  0  0  0  0  0
   36.4683   38.9068   -5.2222 O   0  0  0  0  0  0  0  0  0  0  0  0
   37.5855   41.7979   -5.3073 O   0  0  0  0  0  0  0  0  0  0  0  0
   36.6841   41.5028    0.1304 C   0  0  0  0  0  0  0  0  0  0  0  0
   35.3066   38.5952   -7.5743 N   0  0  0  0  0  0  0  0  0  0  0  0
   35.3609   41.6687   -4.8877 N   0  0  0  0  0  0  0  0  0  0  0  0
   37.0214   33.2583   -5.9715 O   0  0  0  0  0  0  0  0  0  0  0  0
   35.2027   39.1339   -5.9866 P   0  0  2  0  0  0  0  0  0  0  0  0
   35.4545   35.2492  -10.0863 H   0  0  0  0  0  0  0  0  0  0  0  0
   36.5353   34.6605  -11.3947 H   0  0  0  0  0  0  0  0  0  0  0  0
   34.7967   34.2091  -11.3947 H   0  0  0  0  0  0  0  0  0  0  0  0
   35.9768   32.2972  -10.6071 H   0  0  0  0  0  0  0  0  0  0  0  0
   37.3113   33.2627   -8.2376 H   0  0  0  0  0  0  0  0  0  0  0  0
   37.9899   32.4101   -9.6656 H   0  0  0  0  0  0  0  0  0  0  0  0
   37.8639   34.2019   -9.6656 H   0  0  0  0  0  0  0  0  0  0  0  0
   35.7010   41.4182   -6.9265 H   0  0  0  0  0  0  0  0  0  0  0  0
   36.9029   34.9564   -7.9719 H   0  0  0  0  0  0  0  0  0  0  0  0
   36.9405   37.3205   -7.3787 H   0  0  0  0  0  0  0  0  0  0  0  0
   36.1106   37.3777   -9.0225 H   0  0  0  0  0  0  0  0  0  0  0  0
   34.2985   33.8499   -7.0051 H   0  0  0  0  0  0  0  0  0  0  0  0
   33.9838   33.3434   -9.2284 H   0  0  0  0  0  0  0  0  0  0  0  0
   34.9263   31.8782   -8.6467 H   0  0  0  0  0  0  0  0  0  0  0  0
   32.8855   41.0638   -5.7700 H   0  0  0  0  0  0  0  0  0  0  0  0
   33.4955   42.4585   -6.7358 H   0  0  0  0  0  0  0  0  0  0  0  0
   33.4190   40.9873  -11.2263 H   0  0  0  0  0  0  0  0  0  0  0  0
   33.9512   42.2112   -9.1396 H   0  0  0  0  0  0  0  0  0  0  0  0
   32.3794   38.7404  -11.1223 H   0  0  0  0  0  0  0  0  0  0  0  0
   37.9458   43.8533   -1.9527 H   0  0  0  0  0  0  0  0  0  0  0  0
   35.0573   42.1555   -2.1611 H   0  0  0  0  0  0  0  0  0  0  0  0
   36.1841   40.7991   -2.4807 H   0  0  0  0  0  0  0  0  0  0  0  0
   32.3901   38.9406   -6.8325 H   0  0  0  0  0  0  0  0  0  0  0  0
   31.8565   37.7260   -8.9232 H   0  0  0  0  0  0  0  0  0  0  0  0
   39.1830   44.4373    0.1105 H   0  0  0  0  0  0  0  0  0  0  0  0
   38.8044   43.1557    2.1967 H   0  0  0  0  0  0  0  0  0  0  0  0
   37.2117   41.2593    2.2048 H   0  0  0  0  0  0  0  0  0  0  0  0
   36.2781   38.9410   -4.2513 H   0  0  0  0  0  0  0  0  0  0  0  0
   35.9777   40.6597    0.1434 H   0  0  0  0  0  0  0  0  0  0  0  0
   35.7777   39.3438   -8.1020 H   0  0  0  0  0  0  0  0  0  0  0  0
   34.6172   41.8588   -4.2010 H   0  0  0  0  0  0  0  0  0  0  0  0
  1 24  2  0
  2 20  1  0
  2 21  1  0
  4  3  1  0
  4  5  1  0
  4 11  1  0
  6 13  1  0
  6 33  1  0
  6 35  1  0
  7  9  1  0
  7 10  1  0
  8  9  1  0
  8 32  1  0
  9 12  2  0
 10 11  1  0
 10 24  1  0
 13 14  1  0
 14 16  1  0
 14 22  2  0
 15 16  2  0
 15 17  1  0
 17 23  2  0
 18 19  2  0
 18 20  1  0
 18 31  1  0
 19 26  1  0
 21 30  2  0
 21 33  1  0
 22 23  1  0
 24 34  1  0
 25 35  2  0
 26 27  2  0
 27 28  1  0
 28 31  2  0
 35 29  1  1
 32 35  1  0
  3 36  1  0
  3 37  1  0
  3 38  1  0
  4 39  1  6
  5 40  1  0
  5 41  1  0
  5 42  1  0
  6 43  1  6
  7 44  1  0
  8 45  1  0
  8 46  1  0
 10 47  1  1
 11 48  1  0
 11 49  1  0
 13 50  1  0
 13 51  1  0
 15 52  1  0
 16 53  1  0
 17 54  1  0
 19 55  1  0
 20 56  1  0
 20 57  1  0
 22 58  1  0
 23 59  1  0
 26 60  1  0
 27 61  1  0
 28 62  1  0
 29 63  1  0
 31 64  1  0
 32 65  1  0
 33 66  1  0
M  CHG  1  34  -1
M  END
>  <filename_input>  (20) 
6YMS_OZH_docked.sdf

>  <pdb_id>  (20) 
6YMS_OZH

>  <pose_rank>  (20) 
19

>  <num_atoms_heavy>  (20) 
35

>  <num_torsions>  (20) 
14

>  <pose>  (20) 
[35.0180588253643, 41.03685017199857, -6.153026020334121, -1.5940294017395698, -0.4272083469676273, 0.6493776015333658, -0.5733107031917186, -2.066756118123187, -0.0640505791813422, 3.519768576952515, -3.2767521895854412, -2.1743633359052663, -3.043067718848948, -3.0923074534167743, -0.003933152906727355, 0.7277663631797568, 1.7529111824608963, 1.651794297695928, 2.021500521453275, 0.14661015039285338]

>  <energy>  (20) 
-541.2076876606707

>  <inter_energy>  (20) 
-702.353434345924

>  <intra_energy>  (20) 
164.31039866843625

>  <rmsd>  (20) 
6.61934

>  <sdf_rank>  (20) 
0

$$$$

     RDKit          3D

 66 67  0  0  0  0  0  0  0  0999 V2000
   37.2288   31.5441   -6.5079 O   0  0  0  0  0  0  0  0  0  0  0  0
   35.8887   41.2470   -4.5243 O   0  0  0  0  0  0  0  0  0  0  0  0
   33.2994   30.5734   -8.9276 C   0  0  0  0  0  0  0  0  0  0  0  0
   34.5726   30.5701   -9.7584 C   0  0  1  0  0  0  0  0  0  0  0  0
   34.3848   31.3671  -11.0386 C   0  0  0  0  0  0  0  0  0  0  0  0
   34.4325   39.1739   -7.0584 C   0  0  1  0  0  0  0  0  0  0  0  0
   35.7501   33.4775   -8.2665 N   0  0  0  0  0  0  0  0  0  0  0  0
   35.3739   35.7014   -9.1739 C   0  0  0  0  0  0  0  0  0  0  0  0
   34.8499   34.3500   -8.7286 C   0  0  0  0  0  0  0  0  0  0  0  0
   35.3634   32.1314   -7.8722 C   0  0  1  0  0  0  0  0  0  0  0  0
   35.7443   31.1093   -8.9468 C   0  0  0  0  0  0  0  0  0  0  0  0
   33.6523   34.0938   -8.8015 O   0  0  0  0  0  0  0  0  0  0  0  0
   32.9521   39.5861   -7.1440 C   0  0  0  0  0  0  0  0  0  0  0  0
   32.4620   39.4895   -8.5673 C   0  0  0  0  0  0  0  0  0  0  0  0
   30.7711   38.8669  -10.1676 C   0  0  0  0  0  0  0  0  0  0  0  0
   31.2326   38.9183   -8.8631 C   0  0  0  0  0  0  0  0  0  0  0  0
   31.5331   39.3821  -11.1922 C   0  0  0  0  0  0  0  0  0  0  0  0
   35.8694   42.3580   -2.3989 C   0  0  0  0  0  0  0  0  0  0  0  0
   35.7233   41.4765   -1.3394 C   0  0  0  0  0  0  0  0  0  0  0  0
   35.1222   42.1405   -3.6793 C   0  0  0  0  0  0  0  0  0  0  0  0
   35.3722   40.9972   -5.7403 C   0  0  0  0  0  0  0  0  0  0  0  0
   33.2211   39.9976   -9.6109 C   0  0  0  0  0  0  0  0  0  0  0  0
   32.7589   39.9440  -10.9146 C   0  0  0  0  0  0  0  0  0  0  0  0
   35.9946   31.7383   -6.5281 C   0  0  0  0  0  0  0  0  0  0  0  0
   33.2683   36.8469   -6.4985 O   0  0  0  0  0  0  0  0  0  0  0  0
   36.4251   41.6654   -0.1625 C   0  0  0  0  0  0  0  0  0  0  0  0
   37.2843   42.7334   -0.0313 C   0  0  0  0  0  0  0  0  0  0  0  0
   37.4337   43.6199   -1.0729 C   0  0  0  0  0  0  0  0  0  0  0  0
   35.8285   36.9288   -6.3389 O   0  0  0  0  0  0  0  0  0  0  0  0
   35.2215   41.8310   -6.6079 O   0  0  0  0  0  0  0  0  0  0  0  0
   36.7309   43.4360   -2.2502 C   0  0  0  0  0  0  0  0  0  0  0  0
   34.6236   36.8564   -8.6888 N   0  0  0  0  0  0  0  0  0  0  0  0
   35.0549   39.6996   -5.8526 N   0  0  0  0  0  0  0  0  0  0  0  0
   35.2280   31.6434   -5.5386 O   0  0  0  0  0  0  0  0  0  0  0  0
   34.5596   37.2590   -7.0591 P   0  0  2  0  0  0  0  0  0  0  0  0
   33.5591   30.5727   -7.8587 H   0  0  0  0  0  0  0  0  0  0  0  0
   32.7113   31.4731   -9.1615 H   0  0  0  0  0  0  0  0  0  0  0  0
   32.7066   29.6768   -9.1615 H   0  0  0  0  0  0  0  0  0  0  0  0
   34.7994   29.5306  -10.0378 H   0  0  0  0  0  0  0  0  0  0  0  0
   34.1391   32.4098  -10.7887 H   0  0  0  0  0  0  0  0  0  0  0  0
   35.3139   31.3402  -11.6269 H   0  0  0  0  0  0  0  0  0  0  0  0
   33.5655   30.9282  -11.6269 H   0  0  0  0  0  0  0  0  0  0  0  0
   34.9601   39.5895   -7.9296 H   0  0  0  0  0  0  0  0  0  0  0  0
   36.7365   33.7633   -8.1878 H   0  0  0  0  0  0  0  0  0  0  0  0
   36.4106   35.7970   -8.8187 H   0  0  0  0  0  0  0  0  0  0  0  0
   35.2780   35.7170  -10.2696 H   0  0  0  0  0  0  0  0  0  0  0  0
   34.2695   32.1293   -7.7566 H   0  0  0  0  0  0  0  0  0  0  0  0
   36.2377   30.2599   -8.4518 H   0  0  0  0  0  0  0  0  0  0  0  0
   36.3977   31.6360   -9.6578 H   0  0  0  0  0  0  0  0  0  0  0  0
   32.3524   38.9186   -6.5078 H   0  0  0  0  0  0  0  0  0  0  0  0
   32.8504   40.6263   -6.8008 H   0  0  0  0  0  0  0  0  0  0  0  0
   29.7931   38.4132  -10.3860 H   0  0  0  0  0  0  0  0  0  0  0  0
   30.6175   38.5015   -8.0519 H   0  0  0  0  0  0  0  0  0  0  0  0
   31.1641   39.3450  -12.2278 H   0  0  0  0  0  0  0  0  0  0  0  0
   35.0424   40.6180   -1.4354 H   0  0  0  0  0  0  0  0  0  0  0  0
   34.9808   43.1032   -4.1924 H   0  0  0  0  0  0  0  0  0  0  0  0
   34.1378   41.6985   -3.4658 H   0  0  0  0  0  0  0  0  0  0  0  0
   34.2020   40.4486   -9.4001 H   0  0  0  0  0  0  0  0  0  0  0  0
   33.3729   40.3516  -11.7312 H   0  0  0  0  0  0  0  0  0  0  0  0
   36.2964   40.9600    0.6716 H   0  0  0  0  0  0  0  0  0  0  0  0
   37.8485   42.8772    0.9019 H   0  0  0  0  0  0  0  0  0  0  0  0
   38.1144   44.4777   -0.9691 H   0  0  0  0  0  0  0  0  0  0  0  0
   35.6735   36.9692   -5.3620 H   0  0  0  0  0  0  0  0  0  0  0  0
   36.8560   44.1512   -3.0766 H   0  0  0  0  0  0  0  0  0  0  0  0
   35.0140   37.6774   -9.1730 H   0  0  0  0  0  0  0  0  0  0  0  0
   35.2556   39.0616   -5.0693 H   0  0  0  0  0  0  0  0  0  0  0  0
  1 24  2  0
  2 20  1  0
  2 21  1  0
  4  3  1  0
  4  5  1  0
  4 11  1  0
  6 13  1  0
  6 33  1  0
  6 35  1  0
  7  9  1  0
  7 10  1  0
  8  9  1  0
  8 32  1  0
  9 12  2  0
 10 11  1  0
 10 24  1  0
 13 14  1  0
 14 16  1  0
 14 22  2  0
 15 16  2  0
 15 17  1  0
 17 23  2  0
 18 19  2  0
 18 20  1  0
 18 31  1  0
 19 26  1  0
 21 30  2  0
 21 33  1  0
 22 23  1  0
 24 34  1  0
 25 35  2  0
 26 27  2  0
 27 28  1  0
 28 31  2  0
 35 29  1  1
 32 35  1  0
  3 36  1  0
  3 37  1  0
  3 38  1  0
  4 39  1  6
  5 40  1  0
  5 41  1  0
  5 42  1  0
  6 43  1  6
  7 44  1  0
  8 45  1  0
  8 46  1  0
 10 47  1  1
 11 48  1  0
 11 49  1  0
 13 50  1  0
 13 51  1  0
 15 52  1  0
 16 53  1  0
 17 54  1  0
 19 55  1  0
 20 56  1  0
 20 57  1  0
 22 58  1  0
 23 59  1  0
 26 60  1  0
 27 61  1  0
 28 62  1  0
 29 63  1  0
 31 64  1  0
 32 65  1  0
 33 66  1  0
M  CHG  1  34  -1
M  END
>  <filename_input>  (21) 
6YMS_OZH_docked.sdf

>  <pdb_id>  (21) 
6YMS_OZH

>  <pose_rank>  (21) 
20

>  <num_atoms_heavy>  (21) 
35

>  <num_torsions>  (21) 
14

>  <pose>  (21) 
[34.43254690237476, 39.17386548797404, -7.058439733931969, 4.055578146172795, 0.734189885956592, -2.1089987449575838, 0.7708987417416545, 1.2322562096821168, -12.028914382241334, -4.456853051769172, -3.0848534802137135, -2.282485839344628, 3.058316362940793, -2.461752938580692, -0.001953893354293742, -3.9283061942237327, 5.556503119531774, 2.70745614296659, -10.955296222080332, -2.242712052919195]

>  <energy>  (21) 
-668.4785395254603

>  <inter_energy>  (21) 
-675.1676400433104

>  <intra_energy>  (21) 
8.029319076701643

>  <rmsd>  (21) 
7.53415

>  <sdf_rank>  (21) 
0

$$$$

     RDKit          3D

 66 67  0  0  0  0  0  0  0  0999 V2000
   32.5016   42.2083   -9.0544 O   0  0  0  0  0  0  0  0  0  0  0  0
   38.5581   36.1391   -0.4679 O   0  0  0  0  0  0  0  0  0  0  0  0
   32.5277   38.8624   -9.4964 C   0  0  0  0  0  0  0  0  0  0  0  0
   33.7348   38.9798   -8.5798 C   0  0  1  0  0  0  0  0  0  0  0  0
   35.0186   39.0817   -9.3867 C   0  0  0  0  0  0  0  0  0  0  0  0
   38.0994   38.4356   -3.1800 C   0  0  1  0  0  0  0  0  0  0  0  0
   35.2373   41.8094   -6.8340 N   0  0  0  0  0  0  0  0  0  0  0  0
   36.2052   41.5758   -4.6161 C   0  0  0  0  0  0  0  0  0  0  0  0
   35.4447   40.9974   -5.7935 C   0  0  0  0  0  0  0  0  0  0  0  0
   34.4650   41.3752   -7.9883 C   0  0  1  0  0  0  0  0  0  0  0  0
   33.5831   40.1722   -7.6429 C   0  0  0  0  0  0  0  0  0  0  0  0
   35.0476   39.8368   -5.7664 O   0  0  0  0  0  0  0  0  0  0  0  0
   39.1457   38.2431   -4.2923 C   0  0  0  0  0  0  0  0  0  0  0  0
   38.7890   37.0532   -5.1479 C   0  0  0  0  0  0  0  0  0  0  0  0
   39.1712   34.7776   -5.8435 C   0  0  0  0  0  0  0  0  0  0  0  0
   39.5264   35.8795   -5.0838 C   0  0  0  0  0  0  0  0  0  0  0  0
   38.0777   34.8358   -6.6782 C   0  0  0  0  0  0  0  0  0  0  0  0
   37.9401   33.8217   -0.4778 C   0  0  0  0  0  0  0  0  0  0  0  0
   36.8408   32.9893   -0.6174 C   0  0  0  0  0  0  0  0  0  0  0  0
   37.8224   35.1223    0.2567 C   0  0  0  0  0  0  0  0  0  0  0  0
   37.9951   36.5740   -1.6088 C   0  0  0  0  0  0  0  0  0  0  0  0
   37.6948   37.0986   -5.9988 C   0  0  0  0  0  0  0  0  0  0  0  0
   37.3419   35.9967   -6.7586 C   0  0  0  0  0  0  0  0  0  0  0  0
   33.6003   42.5161   -8.5450 C   0  0  0  0  0  0  0  0  0  0  0  0
   39.2239   40.7317   -2.4404 O   0  0  0  0  0  0  0  0  0  0  0  0
   36.9426   31.7963   -1.3099 C   0  0  0  0  0  0  0  0  0  0  0  0
   38.1413   31.4226   -1.8750 C   0  0  0  0  0  0  0  0  0  0  0  0
   39.2423   32.2364   -1.7384 C   0  0  0  0  0  0  0  0  0  0  0  0
   36.7420   40.4201   -1.8663 O   0  0  0  0  0  0  0  0  0  0  0  0
   37.1441   35.9722   -2.2288 O   0  0  0  0  0  0  0  0  0  0  0  0
   39.1450   33.4288   -1.0436 C   0  0  0  0  0  0  0  0  0  0  0  0
   37.4988   40.9575   -4.3396 N   0  0  0  0  0  0  0  0  0  0  0  0
   38.5063   37.7640   -1.9548 N   0  0  0  0  0  0  0  0  0  0  0  0
   34.0539   43.6824   -8.4463 O   0  0  0  0  0  0  0  0  0  0  0  0
   37.8758   40.3103   -2.8359 P   0  0  2  0  0  0  0  0  0  0  0  0
   31.6142   38.7735   -8.8901 H   0  0  0  0  0  0  0  0  0  0  0  0
   32.4608   39.7583  -10.1312 H   0  0  0  0  0  0  0  0  0  0  0  0
   32.6347   37.9704  -10.1312 H   0  0  0  0  0  0  0  0  0  0  0  0
   33.7925   38.0682   -7.9668 H   0  0  0  0  0  0  0  0  0  0  0  0
   35.8773   39.1498   -8.7026 H   0  0  0  0  0  0  0  0  0  0  0  0
   35.1249   38.1891  -10.0208 H   0  0  0  0  0  0  0  0  0  0  0  0
   34.9828   39.9798  -10.0208 H   0  0  0  0  0  0  0  0  0  0  0  0
   37.1491   37.9956   -3.5166 H   0  0  0  0  0  0  0  0  0  0  0  0
   35.6315   42.7609   -6.8188 H   0  0  0  0  0  0  0  0  0  0  0  0
   36.3754   42.6443   -4.8143 H   0  0  0  0  0  0  0  0  0  0  0  0
   35.5824   41.3835   -3.7299 H   0  0  0  0  0  0  0  0  0  0  0  0
   35.1840   41.0732   -8.7641 H   0  0  0  0  0  0  0  0  0  0  0  0
   32.5329   40.4982   -7.6711 H   0  0  0  0  0  0  0  0  0  0  0  0
   33.9037   39.8280   -6.6485 H   0  0  0  0  0  0  0  0  0  0  0  0
   39.1771   39.1454   -4.9208 H   0  0  0  0  0  0  0  0  0  0  0  0
   40.1294   38.0699   -3.8314 H   0  0  0  0  0  0  0  0  0  0  0  0
   39.7641   33.8533   -5.7798 H   0  0  0  0  0  0  0  0  0  0  0  0
   40.4033   35.8238   -4.4220 H   0  0  0  0  0  0  0  0  0  0  0  0
   37.7933   33.9588   -7.2782 H   0  0  0  0  0  0  0  0  0  0  0  0
   35.8776   33.2803   -0.1730 H   0  0  0  0  0  0  0  0  0  0  0  0
   38.2408   35.0143    1.2683 H   0  0  0  0  0  0  0  0  0  0  0  0
   36.7640   35.4121    0.3341 H   0  0  0  0  0  0  0  0  0  0  0  0
   37.1002   38.0213   -6.0707 H   0  0  0  0  0  0  0  0  0  0  0  0
   36.4711   36.0487   -7.4287 H   0  0  0  0  0  0  0  0  0  0  0  0
   36.0628   31.1436   -1.4094 H   0  0  0  0  0  0  0  0  0  0  0  0
   38.2184   30.4779   -2.4331 H   0  0  0  0  0  0  0  0  0  0  0  0
   40.2031   31.9379   -2.1832 H   0  0  0  0  0  0  0  0  0  0  0  0
   37.0941   40.3860   -0.9416 H   0  0  0  0  0  0  0  0  0  0  0  0
   40.0314   34.0718   -0.9385 H   0  0  0  0  0  0  0  0  0  0  0  0
   37.6013   40.1890   -5.0176 H   0  0  0  0  0  0  0  0  0  0  0  0
   39.2014   38.2122   -1.3409 H   0  0  0  0  0  0  0  0  0  0  0  0
  1 24  2  0
  2 20  1  0
  2 21  1  0
  4  3  1  0
  4  5  1  0
  4 11  1  0
  6 13  1  0
  6 33  1  0
  6 35  1  0
  7  9  1  0
  7 10  1  0
  8  9  1  0
  8 32  1  0
  9 12  2  0
 10 11  1  0
 10 24  1  0
 13 14  1  0
 14 16  1  0
 14 22  2  0
 15 16  2  0
 15 17  1  0
 17 23  2  0
 18 19  2  0
 18 20  1  0
 18 31  1  0
 19 26  1  0
 21 30  2  0
 21 33  1  0
 22 23  1  0
 24 34  1  0
 25 35  2  0
 26 27  2  0
 27 28  1  0
 28 31  2  0
 35 29  1  1
 32 35  1  0
  3 36  1  0
  3 37  1  0
  3 38  1  0
  4 39  1  1
  5 40  1  0
  5 41  1  0
  5 42  1  0
  6 43  1  6
  7 44  1  0
  8 45  1  0
  8 46  1  0
 10 47  1  6
 11 48  1  0
 11 49  1  0
 13 50  1  0
 13 51  1  0
 15 52  1  0
 16 53  1  0
 17 54  1  0
 19 55  1  0
 20 56  1  0
 20 57  1  0
 22 58  1  0
 23 59  1  0
 26 60  1  0
 27 61  1  0
 28 62  1  0
 29 63  1  0
 31 64  1  0
 32 65  1  0
 33 66  1  0
M  CHG  1  34  -1
M  END
>  <filename_input>  (22) 
6YMS_OZH_docked.sdf

>  <pdb_id>  (22) 
6YMS_OZH

>  <pose_rank>  (22) 
21

>  <num_atoms_heavy>  (22) 
35

>  <num_torsions>  (22) 
14

>  <pose>  (22) 
[38.09937440337948, 38.43560050071306, -3.1800254968259085, 1.2776443813638714, -2.548524600967843, 1.8202450534924477, 0.31237836683940884, -0.23065070926477357, -1.3715457320551057, 0.9139536789281039, 2.6223377337282616, -2.8438790488156718, -0.26246163614580337, -2.151191078344023, -1.4505916173710414, 1.0066606736796142, -1.1009168872463646, 1.369547768721159, 0.4620247852102968, -0.22016711650913556]

>  <energy>  (22) 
-473.6321421567825

>  <inter_energy>  (22) 
-530.1154190371772

>  <intra_energy>  (22) 
72.00441138870177

>  <rmsd>  (22) 
5.14888

>  <sdf_rank>  (22) 
0

$$$$

     RDKit          3D

 66 67  0  0  0  0  0  0  0  0999 V2000
   32.6604   42.5132   -7.2513 O   0  0  0  0  0  0  0  0  0  0  0  0
   38.8594   36.2105   -0.8462 O   0  0  0  0  0  0  0  0  0  0  0  0
   31.2962   37.3427   -8.5221 C   0  0  0  0  0  0  0  0  0  0  0  0
   32.5370   38.2022   -8.7033 C   0  0  1  0  0  0  0  0  0  0  0  0
   32.9420   38.2656  -10.1667 C   0  0  0  0  0  0  0  0  0  0  0  0
   38.1778   38.4363   -3.5705 C   0  0  1  0  0  0  0  0  0  0  0  0
   34.1454   40.1814   -6.6032 N   0  0  0  0  0  0  0  0  0  0  0  0
   35.6362   39.1217   -5.0016 C   0  0  0  0  0  0  0  0  0  0  0  0
   35.1748   39.3478   -6.4282 C   0  0  0  0  0  0  0  0  0  0  0  0
   33.5834   40.4200   -7.9240 C   0  0  1  0  0  0  0  0  0  0  0  0
   32.3088   39.5994   -8.1392 C   0  0  0  0  0  0  0  0  0  0  0  0
   35.7352   38.7787   -7.3595 O   0  0  0  0  0  0  0  0  0  0  0  0
   39.4178   38.4919   -4.4805 C   0  0  0  0  0  0  0  0  0  0  0  0
   39.6065   37.1748   -5.1911 C   0  0  0  0  0  0  0  0  0  0  0  0
   40.7776   35.0864   -5.4656 C   0  0  0  0  0  0  0  0  0  0  0  0
   40.6325   36.3110   -4.8356 C   0  0  0  0  0  0  0  0  0  0  0  0
   39.9020   34.7116   -6.4600 C   0  0  0  0  0  0  0  0  0  0  0  0
   39.6648   34.0229   -0.2827 C   0  0  0  0  0  0  0  0  0  0  0  0
   40.4373   33.3291    0.6353 C   0  0  0  0  0  0  0  0  0  0  0  0
   40.0553   35.4020   -0.7192 C   0  0  0  0  0  0  0  0  0  0  0  0
   38.4838   36.5150   -2.1008 C   0  0  0  0  0  0  0  0  0  0  0  0
   38.7372   36.7861   -6.1994 C   0  0  0  0  0  0  0  0  0  0  0  0
   38.8845   35.5623   -6.8292 C   0  0  0  0  0  0  0  0  0  0  0  0
   33.2904   41.9113   -8.1470 C   0  0  0  0  0  0  0  0  0  0  0  0
   38.5835   41.0532   -3.8369 O   0  0  0  0  0  0  0  0  0  0  0  0
   40.0696   32.0627    1.0529 C   0  0  0  0  0  0  0  0  0  0  0  0
   38.9243   31.4762    0.5626 C   0  0  0  0  0  0  0  0  0  0  0  0
   38.1517   32.1511   -0.3542 C   0  0  0  0  0  0  0  0  0  0  0  0
   37.1299   40.3022   -1.8596 O   0  0  0  0  0  0  0  0  0  0  0  0
   38.1730   35.6992   -2.9427 O   0  0  0  0  0  0  0  0  0  0  0  0
   38.5182   33.4165   -0.7767 C   0  0  0  0  0  0  0  0  0  0  0  0
   36.1689   40.2983   -4.3203 N   0  0  0  0  0  0  0  0  0  0  0  0
   38.4994   37.8433   -2.2810 N   0  0  0  0  0  0  0  0  0  0  0  0
   33.7081   42.4264   -9.2127 O   0  0  0  0  0  0  0  0  0  0  0  0
   37.5046   40.2137   -3.3051 P   0  0  2  0  0  0  0  0  0  0  0  0
   31.0985   37.2057   -7.4487 H   0  0  0  0  0  0  0  0  0  0  0  0
   30.4347   37.8385   -8.9933 H   0  0  0  0  0  0  0  0  0  0  0  0
   31.4576   36.3619   -8.9933 H   0  0  0  0  0  0  0  0  0  0  0  0
   33.3628   37.7381   -8.1441 H   0  0  0  0  0  0  0  0  0  0  0  0
   34.0263   38.4352  -10.2400 H   0  0  0  0  0  0  0  0  0  0  0  0
   32.6851   37.3163  -10.6596 H   0  0  0  0  0  0  0  0  0  0  0  0
   32.4075   39.0910  -10.6596 H   0  0  0  0  0  0  0  0  0  0  0  0
   37.4159   37.8109   -4.0587 H   0  0  0  0  0  0  0  0  0  0  0  0
   33.7421   40.6644   -5.7878 H   0  0  0  0  0  0  0  0  0  0  0  0
   34.7770   38.7540   -4.4215 H   0  0  0  0  0  0  0  0  0  0  0  0
   36.4685   38.4051   -5.0629 H   0  0  0  0  0  0  0  0  0  0  0  0
   34.3364   40.0998   -8.6592 H   0  0  0  0  0  0  0  0  0  0  0  0
   31.6615   40.1493   -8.8382 H   0  0  0  0  0  0  0  0  0  0  0  0
   31.8566   39.4627   -7.1458 H   0  0  0  0  0  0  0  0  0  0  0  0
   39.2854   39.2902   -5.2256 H   0  0  0  0  0  0  0  0  0  0  0  0
   40.3053   38.6952   -3.8633 H   0  0  0  0  0  0  0  0  0  0  0  0
   41.5945   34.4113   -5.1709 H   0  0  0  0  0  0  0  0  0  0  0  0
   41.3389   36.6023   -4.0443 H   0  0  0  0  0  0  0  0  0  0  0  0
   40.0150   33.7369   -6.9571 H   0  0  0  0  0  0  0  0  0  0  0  0
   41.3521   33.7902    1.0360 H   0  0  0  0  0  0  0  0  0  0  0  0
   40.5708   35.3501   -1.6895 H   0  0  0  0  0  0  0  0  0  0  0  0
   40.7312   35.8505    0.0238 H   0  0  0  0  0  0  0  0  0  0  0  0
   37.9208   37.4584   -6.5022 H   0  0  0  0  0  0  0  0  0  0  0  0
   38.1865   35.2687   -7.6271 H   0  0  0  0  0  0  0  0  0  0  0  0
   40.6944   31.5222    1.7791 H   0  0  0  0  0  0  0  0  0  0  0  0
   38.6284   30.4728    0.9025 H   0  0  0  0  0  0  0  0  0  0  0  0
   37.2396   31.6829   -0.7527 H   0  0  0  0  0  0  0  0  0  0  0  0
   37.9251   40.1145   -1.3005 H   0  0  0  0  0  0  0  0  0  0  0  0
   37.8947   33.9472   -1.5113 H   0  0  0  0  0  0  0  0  0  0  0  0
   36.4113   40.9737   -5.0593 H   0  0  0  0  0  0  0  0  0  0  0  0
   38.7439   38.4567   -1.4906 H   0  0  0  0  0  0  0  0  0  0  0  0
  1 24  2  0
  2 20  1  0
  2 21  1  0
  4  3  1  0
  4  5  1  0
  4 11  1  0
  6 13  1  0
  6 33  1  0
  6 35  1  0
  7  9  1  0
  7 10  1  0
  8  9  1  0
  8 32  1  0
  9 12  2  0
 10 11  1  0
 10 24  1  0
 13 14  1  0
 14 16  1  0
 14 22  2  0
 15 16  2  0
 15 17  1  0
 17 23  2  0
 18 19  2  0
 18 20  1  0
 18 31  1  0
 19 26  1  0
 21 30  2  0
 21 33  1  0
 22 23  1  0
 24 34  1  0
 25 35  2  0
 26 27  2  0
 27 28  1  0
 28 31  2  0
 35 29  1  1
 32 35  1  0
  3 36  1  0
  3 37  1  0
  3 38  1  0
  4 39  1  1
  5 40  1  0
  5 41  1  0
  5 42  1  0
  6 43  1  6
  7 44  1  0
  8 45  1  0
  8 46  1  0
 10 47  1  6
 11 48  1  0
 11 49  1  0
 13 50  1  0
 13 51  1  0
 15 52  1  0
 16 53  1  0
 17 54  1  0
 19 55  1  0
 20 56  1  0
 20 57  1  0
 22 58  1  0
 23 59  1  0
 26 60  1  0
 27 61  1  0
 28 62  1  0
 29 63  1  0
 31 64  1  0
 32 65  1  0
 33 66  1  0
M  CHG  1  34  -1
M  END
>  <filename_input>  (23) 
6YMS_OZH_docked.sdf

>  <pdb_id>  (23) 
6YMS_OZH

>  <pose_rank>  (23) 
22

>  <num_atoms_heavy>  (23) 
35

>  <num_torsions>  (23) 
14

>  <pose>  (23) 
[38.17779991454866, 38.4363183117994, -3.5704582107017955, -1.1069178303088345, 1.8869423289622962, -1.5009267586613038, 0.5773892572447272, 1.1860869143325021, -4.538814064534868, 0.8691558463570642, 3.4562885073075673, 7.865867242308652, -0.5422426966728948, -1.2486748416634166, -0.04719322910327257, 2.725838574291818, -0.41634922539914143, -0.1954282043381342, 0.29517162057996205, -0.20458909136046813]

>  <energy>  (23) 
-584.6294380161792

>  <inter_energy>  (23) 
-623.6756529893305

>  <intra_energy>  (23) 
37.661221507494126

>  <rmsd>  (23) 
4.9241

>  <sdf_rank>  (23) 
0

$$$$

     RDKit          3D

 66 67  0  0  0  0  0  0  0  0999 V2000
   36.2704   43.4102    0.0067 O   0  0  0  0  0  0  0  0  0  0  0  0
   38.1406   34.8159   -6.5293 O   0  0  0  0  0  0  0  0  0  0  0  0
   33.9717   42.7451   -4.2327 C   0  0  0  0  0  0  0  0  0  0  0  0
   35.0150   41.8195   -3.6278 C   0  0  1  0  0  0  0  0  0  0  0  0
   36.2523   41.7512   -4.5076 C   0  0  0  0  0  0  0  0  0  0  0  0
   40.2386   35.5426   -3.7168 C   0  0  1  0  0  0  0  0  0  0  0  0
   36.9440   40.4825   -1.5629 N   0  0  0  0  0  0  0  0  0  0  0  0
   38.0850   38.3402   -1.7023 C   0  0  0  0  0  0  0  0  0  0  0  0
   38.0663   39.8429   -1.9043 C   0  0  0  0  0  0  0  0  0  0  0  0
   36.7971   41.9146   -1.7742 C   0  0  1  0  0  0  0  0  0  0  0  0
   35.3736   42.2655   -2.2154 C   0  0  0  0  0  0  0  0  0  0  0  0
   39.0470   40.4199   -2.3630 O   0  0  0  0  0  0  0  0  0  0  0  0
   41.2939   34.4368   -3.5360 C   0  0  0  0  0  0  0  0  0  0  0  0
   42.6204   34.8802   -4.1008 C   0  0  0  0  0  0  0  0  0  0  0  0
   44.3414   34.7323   -5.7813 C   0  0  0  0  0  0  0  0  0  0  0  0
   43.1416   34.2950   -5.2458 C   0  0  0  0  0  0  0  0  0  0  0  0
   45.0362   35.7565   -5.1780 C   0  0  0  0  0  0  0  0  0  0  0  0
   36.1550   36.1149   -6.8785 C   0  0  0  0  0  0  0  0  0  0  0  0
   35.3770   35.6506   -7.9274 C   0  0  0  0  0  0  0  0  0  0  0  0
   36.8505   35.1544   -5.9627 C   0  0  0  0  0  0  0  0  0  0  0  0
   39.2118   35.3537   -5.9202 C   0  0  0  0  0  0  0  0  0  0  0  0
   43.3355   35.9058   -3.5006 C   0  0  0  0  0  0  0  0  0  0  0  0
   44.5355   36.3406   -4.0363 C   0  0  0  0  0  0  0  0  0  0  0  0
   37.1647   42.7077   -0.5112 C   0  0  0  0  0  0  0  0  0  0  0  0
   40.5847   35.6544   -1.0802 O   0  0  0  0  0  0  0  0  0  0  0  0
   34.7200   36.5349   -8.7637 C   0  0  0  0  0  0  0  0  0  0  0  0
   34.8279   37.8924   -8.5600 C   0  0  0  0  0  0  0  0  0  0  0  0
   35.6022   38.3671   -7.5265 C   0  0  0  0  0  0  0  0  0  0  0  0
   38.1858   35.2964   -1.9191 O   0  0  0  0  0  0  0  0  0  0  0  0
   40.0857   35.9745   -6.4874 O   0  0  0  0  0  0  0  0  0  0  0  0
   36.2636   37.4856   -6.6900 C   0  0  0  0  0  0  0  0  0  0  0  0
   39.3297   37.6726   -2.0730 N   0  0  0  0  0  0  0  0  0  0  0  0
   39.1694   35.1078   -4.6031 N   0  0  0  0  0  0  0  0  0  0  0  0
   38.3385   42.5929   -0.0812 O   0  0  0  0  0  0  0  0  0  0  0  0
   39.5014   36.0029   -2.0058 P   0  0  2  0  0  0  0  0  0  0  0  0
   33.4114   43.2422   -3.4272 H   0  0  0  0  0  0  0  0  0  0  0  0
   34.4704   43.5033   -4.8544 H   0  0  0  0  0  0  0  0  0  0  0  0
   33.2783   42.1596   -4.8544 H   0  0  0  0  0  0  0  0  0  0  0  0
   34.5863   40.8082   -3.5688 H   0  0  0  0  0  0  0  0  0  0  0  0
   37.1503   41.7017   -3.8742 H   0  0  0  0  0  0  0  0  0  0  0  0
   36.2016   40.8545   -5.1426 H   0  0  0  0  0  0  0  0  0  0  0  0
   36.3006   42.6481   -5.1426 H   0  0  0  0  0  0  0  0  0  0  0  0
   40.7270   36.4190   -4.1678 H   0  0  0  0  0  0  0  0  0  0  0  0
   36.1680   39.9517   -1.1422 H   0  0  0  0  0  0  0  0  0  0  0  0
   37.8963   38.1388   -0.6375 H   0  0  0  0  0  0  0  0  0  0  0  0
   37.3131   37.9352   -2.3732 H   0  0  0  0  0  0  0  0  0  0  0  0
   37.4940   42.1968   -2.5772 H   0  0  0  0  0  0  0  0  0  0  0  0
   35.2580   43.3581   -2.1617 H   0  0  0  0  0  0  0  0  0  0  0  0
   34.6967   41.7242   -1.5381 H   0  0  0  0  0  0  0  0  0  0  0  0
   41.4107   34.2188   -2.4641 H   0  0  0  0  0  0  0  0  0  0  0  0
   40.9614   33.5348   -4.0705 H   0  0  0  0  0  0  0  0  0  0  0  0
   44.7405   34.2601   -6.6911 H   0  0  0  0  0  0  0  0  0  0  0  0
   42.5955   33.4742   -5.7338 H   0  0  0  0  0  0  0  0  0  0  0  0
   45.9871   36.1065   -5.6062 H   0  0  0  0  0  0  0  0  0  0  0  0
   35.2812   34.5679   -8.0965 H   0  0  0  0  0  0  0  0  0  0  0  0
   36.2443   34.2430   -5.8541 H   0  0  0  0  0  0  0  0  0  0  0  0
   36.9875   35.6155   -4.9734 H   0  0  0  0  0  0  0  0  0  0  0  0
   42.9444   36.3793   -2.5879 H   0  0  0  0  0  0  0  0  0  0  0  0
   45.0906   37.1554   -3.5484 H   0  0  0  0  0  0  0  0  0  0  0  0
   34.1090   36.1523   -9.5946 H   0  0  0  0  0  0  0  0  0  0  0  0
   34.2975   38.5941   -9.2205 H   0  0  0  0  0  0  0  0  0  0  0  0
   35.6958   39.4511   -7.3648 H   0  0  0  0  0  0  0  0  0  0  0  0
   37.9432   35.1661   -0.9681 H   0  0  0  0  0  0  0  0  0  0  0  0
   36.8816   37.8750   -5.8676 H   0  0  0  0  0  0  0  0  0  0  0  0
   39.5218   37.9427   -3.0482 H   0  0  0  0  0  0  0  0  0  0  0  0
   38.3635   34.6007   -4.2103 H   0  0  0  0  0  0  0  0  0  0  0  0
  1 24  2  0
  2 20  1  0
  2 21  1  0
  4  3  1  0
  4  5  1  0
  4 11  1  0
  6 13  1  0
  6 33  1  0
  6 35  1  0
  7  9  1  0
  7 10  1  0
  8  9  1  0
  8 32  1  0
  9 12  2  0
 10 11  1  0
 10 24  1  0
 13 14  1  0
 14 16  1  0
 14 22  2  0
 15 16  2  0
 15 17  1  0
 17 23  2  0
 18 19  2  0
 18 20  1  0
 18 31  1  0
 19 26  1  0
 21 30  2  0
 21 33  1  0
 22 23  1  0
 24 34  1  0
 25 35  2  0
 26 27  2  0
 27 28  1  0
 28 31  2  0
 35 29  1  1
 32 35  1  0
  3 36  1  0
  3 37  1  0
  3 38  1  0
  4 39  1  1
  5 40  1  0
  5 41  1  0
  5 42  1  0
  6 43  1  6
  7 44  1  0
  8 45  1  0
  8 46  1  0
 10 47  1  6
 11 48  1  0
 11 49  1  0
 13 50  1  0
 13 51  1  0
 15 52  1  0
 16 53  1  0
 17 54  1  0
 19 55  1  0
 20 56  1  0
 20 57  1  0
 22 58  1  0
 23 59  1  0
 26 60  1  0
 27 61  1  0
 28 62  1  0
 29 63  1  0
 31 64  1  0
 32 65  1  0
 33 66  1  0
M  CHG  1  34  -1
M  END
>  <filename_input>  (24) 
6YMS_OZH_docked.sdf

>  <pdb_id>  (24) 
6YMS_OZH

>  <pose_rank>  (24) 
23

>  <num_atoms_heavy>  (24) 
35

>  <num_torsions>  (24) 
14

>  <pose>  (24) 
[40.23860014952905, 35.54261881363069, -3.7168012919224247, -2.4384727808096343, -3.246335369325387, 0.6244447472311078, 6.733800478342104, 4.159113423910614, -0.7837040390782006, -1.4314590639903852, 22.969493055561617, 3.7021378073803075, -13.733084130969957, -3.2650667122592893, 0.6895002809010666, -4.7780094138587526, -0.10583680367489917, 0.581067757664838, 19.69969071315001, -0.2597035495188352]

>  <energy>  (24) 
-498.4539508828783

>  <inter_energy>  (24) 
-502.1203718817708

>  <intra_energy>  (24) 
9.599792134722763

>  <rmsd>  (24) 
8.63366

>  <sdf_rank>  (24) 
0

$$$$

     RDKit          3D

 66 67  0  0  0  0  0  0  0  0999 V2000
   38.0158   41.6351    0.9339 O   0  0  0  0  0  0  0  0  0  0  0  0
   39.8235   33.0835   -6.9207 O   0  0  0  0  0  0  0  0  0  0  0  0
   35.4745   42.2785   -4.4383 C   0  0  0  0  0  0  0  0  0  0  0  0
   36.2390   42.5579   -3.1543 C   0  0  1  0  0  0  0  0  0  0  0  0
   35.7344   43.8283   -2.4901 C   0  0  0  0  0  0  0  0  0  0  0  0
   37.7977   35.9032   -6.0344 C   0  0  1  0  0  0  0  0  0  0  0  0
   37.7856   39.7677   -1.3056 N   0  0  0  0  0  0  0  0  0  0  0  0
   38.6683   37.7264   -2.2877 C   0  0  0  0  0  0  0  0  0  0  0  0
   38.3369   39.2029   -2.3837 C   0  0  0  0  0  0  0  0  0  0  0  0
   37.3712   41.1625   -1.3126 C   0  0  1  0  0  0  0  0  0  0  0  0
   36.1438   41.3704   -2.2040 C   0  0  0  0  0  0  0  0  0  0  0  0
   38.5717   39.8262   -3.4140 O   0  0  0  0  0  0  0  0  0  0  0  0
   37.3048   36.4027   -7.4043 C   0  0  0  0  0  0  0  0  0  0  0  0
   35.8448   36.7751   -7.3326 C   0  0  0  0  0  0  0  0  0  0  0  0
   33.5176   36.1496   -7.3059 C   0  0  0  0  0  0  0  0  0  0  0  0
   34.8549   35.8060   -7.4107 C   0  0  0  0  0  0  0  0  0  0  0  0
   33.1531   37.4650   -7.1254 C   0  0  0  0  0  0  0  0  0  0  0  0
   41.6531   33.6221   -5.4666 C   0  0  0  0  0  0  0  0  0  0  0  0
   42.5513   33.7766   -6.5108 C   0  0  0  0  0  0  0  0  0  0  0  0
   40.4242   32.7819   -5.6369 C   0  0  0  0  0  0  0  0  0  0  0  0
   38.6849   33.7978   -6.8860 C   0  0  0  0  0  0  0  0  0  0  0  0
   35.4615   38.0965   -7.1580 C   0  0  0  0  0  0  0  0  0  0  0  0
   34.1241   38.4384   -7.0550 C   0  0  0  0  0  0  0  0  0  0  0  0
   37.0784   41.6670    0.1083 C   0  0  0  0  0  0  0  0  0  0  0  0
   37.4744   38.4508   -5.3353 O   0  0  0  0  0  0  0  0  0  0  0  0
   43.6776   34.5656   -6.3617 C   0  0  0  0  0  0  0  0  0  0  0  0
   43.9179   35.2131   -5.1706 C   0  0  0  0  0  0  0  0  0  0  0  0
   43.0379   35.0632   -4.1236 C   0  0  0  0  0  0  0  0  0  0  0  0
   39.8792   37.5551   -5.3674 O   0  0  0  0  0  0  0  0  0  0  0  0
   37.6456   33.4610   -7.4124 O   0  0  0  0  0  0  0  0  0  0  0  0
   41.9121   34.2721   -4.2680 C   0  0  0  0  0  0  0  0  0  0  0  0
   38.2235   36.9089   -3.4130 N   0  0  0  0  0  0  0  0  0  0  0  0
   38.8657   34.9263   -6.1853 N   0  0  0  0  0  0  0  0  0  0  0  0
   35.9173   42.0822    0.3433 O   0  0  0  0  0  0  0  0  0  0  0  0
   38.4363   37.3931   -5.0073 P   0  0  2  0  0  0  0  0  0  0  0  0
   34.4674   41.9105   -4.1927 H   0  0  0  0  0  0  0  0  0  0  0  0
   35.3931   43.2051   -5.0256 H   0  0  0  0  0  0  0  0  0  0  0  0
   36.0097   41.5179   -5.0256 H   0  0  0  0  0  0  0  0  0  0  0  0
   37.2985   42.7080   -3.4094 H   0  0  0  0  0  0  0  0  0  0  0  0
   35.7800   43.7135   -1.3971 H   0  0  0  0  0  0  0  0  0  0  0  0
   36.3638   44.6769   -2.7963 H   0  0  0  0  0  0  0  0  0  0  0  0
   34.6943   44.0139   -2.7963 H   0  0  0  0  0  0  0  0  0  0  0  0
   36.9561   35.4188   -5.5176 H   0  0  0  0  0  0  0  0  0  0  0  0
   37.6513   39.2051   -0.4534 H   0  0  0  0  0  0  0  0  0  0  0  0
   39.7611   37.6286   -2.2086 H   0  0  0  0  0  0  0  0  0  0  0  0
   38.1252   37.3511   -1.4078 H   0  0  0  0  0  0  0  0  0  0  0  0
   38.2076   41.7469   -1.7237 H   0  0  0  0  0  0  0  0  0  0  0  0
   35.2699   41.5218   -1.5533 H   0  0  0  0  0  0  0  0  0  0  0  0
   36.0638   40.4734   -2.8356 H   0  0  0  0  0  0  0  0  0  0  0  0
   37.8902   37.2856   -7.7005 H   0  0  0  0  0  0  0  0  0  0  0  0
   37.4327   35.5994   -8.1448 H   0  0  0  0  0  0  0  0  0  0  0  0
   32.7444   35.3696   -7.3671 H   0  0  0  0  0  0  0  0  0  0  0  0
   35.1357   34.7526   -7.5574 H   0  0  0  0  0  0  0  0  0  0  0  0
   32.0908   37.7370   -7.0379 H   0  0  0  0  0  0  0  0  0  0  0  0
   42.3666   33.2666   -7.4678 H   0  0  0  0  0  0  0  0  0  0  0  0
   39.7087   33.0071   -4.8324 H   0  0  0  0  0  0  0  0  0  0  0  0
   40.6924   31.7161   -5.5921 H   0  0  0  0  0  0  0  0  0  0  0  0
   36.2293   38.8821   -7.1006 H   0  0  0  0  0  0  0  0  0  0  0  0
   33.8363   39.4911   -6.9165 H   0  0  0  0  0  0  0  0  0  0  0  0
   44.3839   34.6760   -7.1978 H   0  0  0  0  0  0  0  0  0  0  0  0
   44.8093   35.8475   -5.0566 H   0  0  0  0  0  0  0  0  0  0  0  0
   43.2302   35.5739   -3.1685 H   0  0  0  0  0  0  0  0  0  0  0  0
   40.4208   37.6159   -4.5409 H   0  0  0  0  0  0  0  0  0  0  0  0
   41.2154   34.1572   -3.4245 H   0  0  0  0  0  0  0  0  0  0  0  0
   38.7065   36.0040   -3.3200 H   0  0  0  0  0  0  0  0  0  0  0  0
   39.7792   35.1056   -5.7447 H   0  0  0  0  0  0  0  0  0  0  0  0
  1 24  2  0
  2 20  1  0
  2 21  1  0
  4  3  1  0
  4  5  1  0
  4 11  1  0
  6 13  1  0
  6 33  1  0
  6 35  1  0
  7  9  1  0
  7 10  1  0
  8  9  1  0
  8 32  1  0
  9 12  2  0
 10 11  1  0
 10 24  1  0
 13 14  1  0
 14 16  1  0
 14 22  2  0
 15 16  2  0
 15 17  1  0
 17 23  2  0
 18 19  2  0
 18 20  1  0
 18 31  1  0
 19 26  1  0
 21 30  2  0
 21 33  1  0
 22 23  1  0
 24 34  1  0
 25 35  2  0
 26 27  2  0
 27 28  1  0
 28 31  2  0
 35 29  1  1
 32 35  1  0
  3 36  1  0
  3 37  1  0
  3 38  1  0
  4 39  1  6
  5 40  1  0
  5 41  1  0
  5 42  1  0
  6 43  1  1
  7 44  1  0
  8 45  1  0
  8 46  1  0
 10 47  1  6
 11 48  1  0
 11 49  1  0
 13 50  1  0
 13 51  1  0
 15 52  1  0
 16 53  1  0
 17 54  1  0
 19 55  1  0
 20 56  1  0
 20 57  1  0
 22 58  1  0
 23 59  1  0
 26 60  1  0
 27 61  1  0
 28 62  1  0
 29 63  1  0
 31 64  1  0
 32 65  1  0
 33 66  1  0
M  CHG  1  34  -1
M  END
>  <filename_input>  (25) 
6YMS_OZH_docked.sdf

>  <pdb_id>  (25) 
6YMS_OZH

>  <pose_rank>  (25) 
24

>  <num_atoms_heavy>  (25) 
35

>  <num_torsions>  (25) 
14

>  <pose>  (25) 
[37.79767458967174, 35.90317142929032, -6.034448803081739, -2.0036962387682102, 2.9085566442851327, -0.27753256572887924, -5.22545507016577, -2.0857579255522944, 1.7612038751017554, 2.5623859250635515, -1.9446552730124878, -1.7900722932140274, 2.6931442276481956, 2.17017302098894, -0.5652079292442659, -1.6520350396774914, -1.2001204230107334, -0.47638677931908757, 1.4431910345404597, 0.26131239441774373]

>  <energy>  (25) 
-418.8419675067075

>  <inter_energy>  (25) 
-540.005350398594

>  <intra_energy>  (25) 
112.34370713014043

>  <rmsd>  (25) 
7.90503

>  <sdf_rank>  (25) 
0

$$$$

     RDKit          3D

 66 67  0  0  0  0  0  0  0  0999 V2000
   33.1130   39.8560  -11.7880 O   0  0  0  0  0  0  0  0  0  0  0  0
   38.0280   38.7170   -3.5050 O   0  0  0  0  0  0  0  0  0  0  0  0
   30.4080   36.4950   -8.4030 C   0  0  0  0  0  0  0  0  0  0  0  0
   31.8290   36.9890   -8.6220 C   0  0  1  0  0  0  0  0  0  0  0  0
   32.6670   35.9320   -9.3220 C   0  0  0  0  0  0  0  0  0  0  0  0
   36.1050   41.6920   -4.0450 C   0  0  1  0  0  0  0  0  0  0  0  0
   33.7690   39.3440   -8.3130 N   0  0  0  0  0  0  0  0  0  0  0  0
   35.1850   39.1070   -6.3510 C   0  0  0  0  0  0  0  0  0  0  0  0
   34.7200   38.6240   -7.7110 C   0  0  0  0  0  0  0  0  0  0  0  0
   33.2070   38.9340   -9.5910 C   0  0  1  0  0  0  0  0  0  0  0  0
   31.8280   38.2940   -9.4090 C   0  0  0  0  0  0  0  0  0  0  0  0
   35.2080   37.6160   -8.2120 O   0  0  0  0  0  0  0  0  0  0  0  0
   35.2700   42.2000   -2.8560 C   0  0  0  0  0  0  0  0  0  0  0  0
   36.1360   42.3410   -1.6290 C   0  0  0  0  0  0  0  0  0  0  0  0
   37.0290   41.4490    0.4240 C   0  0  0  0  0  0  0  0  0  0  0  0
   36.2030   41.3300   -0.6810 C   0  0  0  0  0  0  0  0  0  0  0  0
   37.7950   42.5800    0.5970 C   0  0  0  0  0  0  0  0  0  0  0  0
   39.5190   37.0510   -2.6370 C   0  0  0  0  0  0  0  0  0  0  0  0
   40.6540   36.2560   -2.6630 C   0  0  0  0  0  0  0  0  0  0  0  0
   39.3900   38.2250   -3.5590 C   0  0  0  0  0  0  0  0  0  0  0  0
   37.8630   40.0260   -3.7640 C   0  0  0  0  0  0  0  0  0  0  0  0
   36.9080   43.4770   -1.4370 C   0  0  0  0  0  0  0  0  0  0  0  0
   37.7320   43.5950   -0.3310 C   0  0  0  0  0  0  0  0  0  0  0  0
   33.1110   40.1170  -10.5660 C   0  0  0  0  0  0  0  0  0  0  0  0
   36.0450   41.9820   -6.6900 O   0  0  0  0  0  0  0  0  0  0  0  0
   40.7830   35.1820   -1.8010 C   0  0  0  0  0  0  0  0  0  0  0  0
   39.7830   34.8920   -0.9000 C   0  0  0  0  0  0  0  0  0  0  0  0
   38.6480   35.6690   -0.8680 C   0  0  0  0  0  0  0  0  0  0  0  0
   33.9830   42.7850   -5.3900 O   0  0  0  0  0  0  0  0  0  0  0  0
   38.7700   40.8150   -3.9240 O   0  0  0  0  0  0  0  0  0  0  0  0
   38.5140   36.7420   -1.7310 C   0  0  0  0  0  0  0  0  0  0  0  0
   34.4150   40.2080   -5.7790 N   0  0  0  0  0  0  0  0  0  0  0  0
   36.5580   40.3270   -3.8230 N   0  0  0  0  0  0  0  0  0  0  0  0
   33.0320   41.2670  -10.0690 O   0  0  0  0  0  0  0  0  0  0  0  0
   35.0430   41.7600   -5.6420 P   0  0  2  0  0  0  0  0  0  0  0  0
   30.2064   36.4249   -7.3239 H   0  0  0  0  0  0  0  0  0  0  0  0
   29.6998   37.1997   -8.8633 H   0  0  0  0  0  0  0  0  0  0  0  0
   30.2896   35.5030   -8.8633 H   0  0  0  0  0  0  0  0  0  0  0  0
   32.2822   37.1828   -7.6386 H   0  0  0  0  0  0  0  0  0  0  0  0
   33.1660   35.3026   -8.5704 H   0  0  0  0  0  0  0  0  0  0  0  0
   32.0170   35.3062   -9.9512 H   0  0  0  0  0  0  0  0  0  0  0  0
   33.4246   36.4221   -9.9512 H   0  0  0  0  0  0  0  0  0  0  0  0
   36.9896   42.3374   -4.1497 H   0  0  0  0  0  0  0  0  0  0  0  0
   33.4272   40.2056   -7.8639 H   0  0  0  0  0  0  0  0  0  0  0  0
   35.1324   38.2581   -5.6535 H   0  0  0  0  0  0  0  0  0  0  0  0
   36.2033   39.4954   -6.4999 H   0  0  0  0  0  0  0  0  0  0  0  0
   33.8889   38.1847  -10.0194 H   0  0  0  0  0  0  0  0  0  0  0  0
   31.4099   38.0921  -10.4062 H   0  0  0  0  0  0  0  0  0  0  0  0
   31.2294   39.0082   -8.8245 H   0  0  0  0  0  0  0  0  0  0  0  0
   34.8371   43.1791   -3.1088 H   0  0  0  0  0  0  0  0  0  0  0  0
   34.4688   41.4759   -2.6467 H   0  0  0  0  0  0  0  0  0  0  0  0
   37.0733   40.6378    1.1656 H   0  0  0  0  0  0  0  0  0  0  0  0
   35.5930   40.4236   -0.8087 H   0  0  0  0  0  0  0  0  0  0  0  0
   38.4543   42.6721    1.4727 H   0  0  0  0  0  0  0  0  0  0  0  0
   41.4604   36.4814   -3.3764 H   0  0  0  0  0  0  0  0  0  0  0  0
   39.6303   37.9154   -4.5868 H   0  0  0  0  0  0  0  0  0  0  0  0
   40.0856   39.0193   -3.2505 H   0  0  0  0  0  0  0  0  0  0  0  0
   36.8650   44.2940   -2.1723 H   0  0  0  0  0  0  0  0  0  0  0  0
   38.3383   44.5024   -0.1932 H   0  0  0  0  0  0  0  0  0  0  0  0
   41.6878   34.5573   -1.8354 H   0  0  0  0  0  0  0  0  0  0  0  0
   39.8911   34.0430   -0.2090 H   0  0  0  0  0  0  0  0  0  0  0  0
   37.8444   35.4363   -0.1538 H   0  0  0  0  0  0  0  0  0  0  0  0
   33.8622   42.9018   -4.4144 H   0  0  0  0  0  0  0  0  0  0  0  0
   37.6020   37.3562   -1.6988 H   0  0  0  0  0  0  0  0  0  0  0  0
   33.5632   40.2917   -6.3520 H   0  0  0  0  0  0  0  0  0  0  0  0
   35.8616   39.5767   -3.7089 H   0  0  0  0  0  0  0  0  0  0  0  0
  1 24  2  0
  2 20  1  0
  2 21  1  0
  4  3  1  0
  4  5  1  0
  4 11  1  0
  6 13  1  0
  6 33  1  0
  6 35  1  0
  7  9  1  0
  7 10  1  0
  8  9  1  0
  8 32  1  0
  9 12  2  0
 10 11  1  0
 10 24  1  0
 13 14  1  0
 14 16  1  0
 14 22  2  0
 15 16  2  0
 15 17  1  0
 17 23  2  0
 18 19  2  0
 18 20  1  0
 18 31  1  0
 19 26  1  0
 21 30  2  0
 21 33  1  0
 22 23  1  0
 24 34  1  0
 25 35  2  0
 26 27  2  0
 27 28  1  0
 28 31  2  0
 35 29  1  1
 32 35  1  0
  3 36  1  0
  3 37  1  0
  3 38  1  0
  4 39  1  1
  5 40  1  0
  5 41  1  0
  5 42  1  0
  6 43  1  6
  7 44  1  0
  8 45  1  0
  8 46  1  0
 10 47  1  6
 11 48  1  0
 11 49  1  0
 13 50  1  0
 13 51  1  0
 15 52  1  0
 16 53  1  0
 17 54  1  0
 19 55  1  0
 20 56  1  0
 20 57  1  0
 22 58  1  0
 23 59  1  0
 26 60  1  0
 27 61  1  0
 28 62  1  0
 29 63  1  0
 31 64  1  0
 32 65  1  0
 33 66  1  0
M  CHG  1  34  -1
M  END
>  <filename_input>  (26) 
6YMS_OZH_docked.sdf

>  <pdb_id>  (26) 
6YMS_OZH

>  <pose_rank>  (26) 
25

>  <num_atoms_heavy>  (26) 
35

>  <num_torsions>  (26) 
14

>  <pose>  (26) 
[36.105, 41.692, -4.045, 1e-06, 1e-06, 1e-06, 0.0, 0.0, 0.0, 0.0, 0.0, 0.0, 0.0, 0.0, 0.0, 0.0, 0.0, 0.0, 0.0, 0.0]

>  <energy>  (26) 
-937.3172811520362

>  <inter_energy>  (26) 
-963.3272294681842

>  <intra_energy>  (26) 
24.19228951008978

>  <rmsd>  (26) 
0.0

>  <sdf_rank>  (26) 
0

$$$$
