
     RDKit          3D

 14 14  0  0  0  0  0  0  0  0999 V2000
   11.1887  -10.3932   23.8049 C   0  0  0  0  0  0  0  0  0  0  0  0
   12.3764   -8.0421   24.5862 Cl  0  0  0  0  0  0  0  0  0  0  0  0
   12.1596   -9.4605   23.6569 C   0  0  0  0  0  0  0  0  0  0  0  0
   11.3301  -11.4393   22.8762 C   0  0  0  0  0  0  0  0  0  0  0  0
   13.2577   -9.8117   22.3872 S   0  0  0  0  0  0  0  0  0  0  0  0
   12.4020  -11.2695   22.0568 C   0  0  0  0  0  0  0  0  0  0  0  0
   12.9482  -12.4116   20.8359 S   0  0  2  0  0  0  0  0  0  0  0  0
   13.6641  -11.6350   19.8707 O   0  0  0  0  0  0  0  0  0  0  0  0
   11.8093  -13.1719   20.4499 O   0  0  0  0  0  0  0  0  0  0  0  0
   13.9775  -13.3893   21.5504 N   0  0  0  0  0  0  0  0  0  0  0  0
   10.3888  -10.3389   24.5581 H   0  0  0  0  0  0  0  0  0  0  0  0
   10.6484  -12.3007   22.8187 H   0  0  0  0  0  0  0  0  0  0  0  0
   13.8833  -13.2998   22.5722 H   0  0  0  0  0  0  0  0  0  0  0  0
   13.7789  -14.3606   21.2710 H   0  0  0  0  0  0  0  0  0  0  0  0
  1  3  2  0
  1  4  1  0
  2  3  1  0
  3  5  1  0
  4  6  2  0
  5  6  1  0
  6  7  1  0
  7  8  2  0
  7  9  2  0
  7 10  1  1
  1 11  1  0
  4 12  1  0
 10 13  1  0
 10 14  1  0
M  END
>  <filename_input>  (1) 
6YQV_8K2_docked.sdf

>  <pdb_id>  (1) 
6YQV_8K2

>  <pose_rank>  (1) 
0

>  <num_atoms_heavy>  (1) 
10

>  <num_torsions>  (1) 
1

>  <pose>  (1) 
[11.188651410501427, -10.393169997487362, 23.804923427307234, 0.2130683790241597, 6.151136925226982, -0.8804102348297593, -0.2153351747439331]

>  <energy>  (1) 
-608.5251703957478

>  <inter_energy>  (1) 
-584.8775235930656

>  <intra_energy>  (1) 
0.0

>  <rmsd>  (1) 
0.389204

>  <sdf_rank>  (1) 
0

$$$$

     RDKit          3D

 14 14  0  0  0  0  0  0  0  0999 V2000
   11.1884  -10.4285   23.8023 C   0  0  0  0  0  0  0  0  0  0  0  0
   12.3216   -8.0474   24.5738 Cl  0  0  0  0  0  0  0  0  0  0  0  0
   12.1392   -9.4756   23.6520 C   0  0  0  0  0  0  0  0  0  0  0  0
   11.3560  -11.4765   22.8801 C   0  0  0  0  0  0  0  0  0  0  0  0
   13.2491   -9.8098   22.3881 S   0  0  0  0  0  0  0  0  0  0  0  0
   12.4268  -11.2880   22.0633 C   0  0  0  0  0  0  0  0  0  0  0  0
   13.0021  -12.4248   20.8510 S   0  0  2  0  0  0  0  0  0  0  0  0
   14.2433  -12.9308   21.3516 O   0  0  0  0  0  0  0  0  0  0  0  0
   12.9498  -11.7487   19.6003 O   0  0  0  0  0  0  0  0  0  0  0  0
   11.9567  -13.6212   20.8114 N   0  0  0  0  0  0  0  0  0  0  0  0
   10.3849  -10.3874   24.5525 H   0  0  0  0  0  0  0  0  0  0  0  0
   10.6935  -12.3530   22.8254 H   0  0  0  0  0  0  0  0  0  0  0  0
   11.7150  -13.8978   21.7737 H   0  0  0  0  0  0  0  0  0  0  0  0
   11.1055  -13.3171   20.3175 H   0  0  0  0  0  0  0  0  0  0  0  0
  1  3  2  0
  1  4  1  0
  2  3  1  0
  3  5  1  0
  4  6  2  0
  5  6  1  0
  6  7  1  0
  7  8  2  0
  7  9  2  0
  7 10  1  6
  1 11  1  0
  4 12  1  0
 10 13  1  0
 10 14  1  0
M  END
>  <filename_input>  (2) 
6YQV_8K2_docked.sdf

>  <pdb_id>  (2) 
6YQV_8K2

>  <pose_rank>  (2) 
1

>  <num_atoms_heavy>  (2) 
10

>  <num_torsions>  (2) 
1

>  <pose>  (2) 
[11.18836955149467, -10.42845394872041, 23.802250069923858, 0.6026096164496679, 5.614277146630763, -2.5787841626749706, -4.842507807658722]

>  <energy>  (2) 
-604.0594275286875

>  <inter_energy>  (2) 
-573.0255815537306

>  <intra_energy>  (2) 
0.0

>  <rmsd>  (2) 
1.09023

>  <sdf_rank>  (2) 
0

$$$$

     RDKit          3D

 14 14  0  0  0  0  0  0  0  0999 V2000
   11.0646  -10.2432   23.8367 C   0  0  0  0  0  0  0  0  0  0  0  0
   12.3447   -7.8599   24.3158 Cl  0  0  0  0  0  0  0  0  0  0  0  0
   12.0363   -9.3492   23.5352 C   0  0  0  0  0  0  0  0  0  0  0  0
   11.1194  -11.3697   22.9971 C   0  0  0  0  0  0  0  0  0  0  0  0
   13.0304   -9.8349   22.2248 S   0  0  0  0  0  0  0  0  0  0  0  0
   12.1293  -11.2965   22.0894 C   0  0  0  0  0  0  0  0  0  0  0  0
   12.5642  -12.5534   20.9385 S   0  0  2  0  0  0  0  0  0  0  0  0
   11.3628  -12.8567   20.2229 O   0  0  0  0  0  0  0  0  0  0  0  0
   13.2407  -13.5650   21.6753 O   0  0  0  0  0  0  0  0  0  0  0  0
   13.5993  -11.9055   19.9213 N   0  0  0  0  0  0  0  0  0  0  0  0
   10.3246  -10.1052   24.6387 H   0  0  0  0  0  0  0  0  0  0  0  0
   10.4217  -12.2173   23.0669 H   0  0  0  0  0  0  0  0  0  0  0  0
   14.3497  -11.4358   20.4477 H   0  0  0  0  0  0  0  0  0  0  0  0
   14.0056  -12.6433   19.3285 H   0  0  0  0  0  0  0  0  0  0  0  0
  1  3  2  0
  1  4  1  0
  2  3  1  0
  3  5  1  0
  4  6  2  0
  5  6  1  0
  6  7  1  0
  7  8  2  0
  7  9  2  0
  7 10  1  6
  1 11  1  0
  4 12  1  0
 10 13  1  0
 10 14  1  0
M  END
>  <filename_input>  (3) 
6YQV_8K2_docked.sdf

>  <pdb_id>  (3) 
6YQV_8K2

>  <pose_rank>  (3) 
2

>  <num_atoms_heavy>  (3) 
10

>  <num_torsions>  (3) 
1

>  <pose>  (3) 
[11.064617831564519, -10.243217641003081, 23.836690039552334, 6.138032760403888, -0.6647422510191843, 0.4628725499644474, -1.9805572960327325]

>  <energy>  (3) 
-602.4291477149004

>  <inter_energy>  (3) 
-584.6206819860106

>  <intra_energy>  (3) 
0.0

>  <rmsd>  (3) 
1.11072

>  <sdf_rank>  (3) 
0

$$$$

     RDKit          3D

 14 14  0  0  0  0  0  0  0  0999 V2000
   11.2096  -10.4567   23.8072 C   0  0  0  0  0  0  0  0  0  0  0  0
   12.3820   -8.0461   24.4096 Cl  0  0  0  0  0  0  0  0  0  0  0  0
   12.1428   -9.5078   23.5560 C   0  0  0  0  0  0  0  0  0  0  0  0
   11.3177  -11.5378   22.9148 C   0  0  0  0  0  0  0  0  0  0  0  0
   13.1636   -9.8859   22.2308 S   0  0  0  0  0  0  0  0  0  0  0  0
   12.3280  -11.3771   22.0188 C   0  0  0  0  0  0  0  0  0  0  0  0
   12.8230  -12.5566   20.8118 S   0  0  2  0  0  0  0  0  0  0  0  0
   12.4746  -13.8347   21.3526 O   0  0  0  0  0  0  0  0  0  0  0  0
   14.1734  -12.2574   20.4787 O   0  0  0  0  0  0  0  0  0  0  0  0
   11.9268  -12.2996   19.5248 N   0  0  0  0  0  0  0  0  0  0  0  0
   10.4603  -10.3899   24.6097 H   0  0  0  0  0  0  0  0  0  0  0  0
   10.6574  -12.4173   22.9387 H   0  0  0  0  0  0  0  0  0  0  0  0
   10.9772  -12.0274   19.8165 H   0  0  0  0  0  0  0  0  0  0  0  0
   12.3429  -11.5441   18.9619 H   0  0  0  0  0  0  0  0  0  0  0  0
  1  3  2  0
  1  4  1  0
  2  3  1  0
  3  5  1  0
  4  6  2  0
  5  6  1  0
  6  7  1  0
  7  8  2  0
  7  9  2  0
  7 10  1  6
  1 11  1  0
  4 12  1  0
 10 13  1  0
 10 14  1  0
M  END
>  <filename_input>  (4) 
6YQV_8K2_docked.sdf

>  <pdb_id>  (4) 
6YQV_8K2

>  <pose_rank>  (4) 
3

>  <num_atoms_heavy>  (4) 
10

>  <num_torsions>  (4) 
1

>  <pose>  (4) 
[11.209610185503283, -10.456737607678994, 23.8072105636775, 4.738398102328953, -0.22356757444239406, -4.033464128361686, 2.8757287054108405]

>  <energy>  (4) 
-594.6449877066028

>  <inter_energy>  (4) 
-580.9303829721591

>  <intra_energy>  (4) 
0.0

>  <rmsd>  (4) 
1.13319

>  <sdf_rank>  (4) 
0

$$$$

     RDKit          3D

 14 14  0  0  0  0  0  0  0  0999 V2000
   13.3997   -9.3901   22.1293 C   0  0  0  0  0  0  0  0  0  0  0  0
   11.6219   -8.4149   23.9832 Cl  0  0  0  0  0  0  0  0  0  0  0  0
   12.3199   -9.5647   22.9280 C   0  0  0  0  0  0  0  0  0  0  0  0
   13.6813  -10.5461   21.3800 C   0  0  0  0  0  0  0  0  0  0  0  0
   11.6259  -11.1284   22.8083 S   0  0  0  0  0  0  0  0  0  0  0  0
   12.8076  -11.5575   21.6310 C   0  0  0  0  0  0  0  0  0  0  0  0
   12.7875  -13.1177   20.8195 S   0  0  2  0  0  0  0  0  0  0  0  0
   11.4060  -13.4537   20.6590 O   0  0  0  0  0  0  0  0  0  0  0  0
   13.6576  -13.9708   21.5539 O   0  0  0  0  0  0  0  0  0  0  0  0
   13.4158  -12.8926   19.3772 N   0  0  0  0  0  0  0  0  0  0  0  0
   13.9838   -8.4597   22.0737 H   0  0  0  0  0  0  0  0  0  0  0  0
   14.5168  -10.6238   20.6687 H   0  0  0  0  0  0  0  0  0  0  0  0
   14.3812  -12.5466   19.4735 H   0  0  0  0  0  0  0  0  0  0  0  0
   13.4204  -13.7843   18.8617 H   0  0  0  0  0  0  0  0  0  0  0  0
  1  3  2  0
  1  4  1  0
  2  3  1  0
  3  5  1  0
  4  6  2  0
  5  6  1  0
  6  7  1  0
  7  8  2  0
  7  9  2  0
  7 10  1  6
  1 11  1  0
  4 12  1  0
 10 13  1  0
 10 14  1  0
M  END
>  <filename_input>  (5) 
6YQV_8K2_docked.sdf

>  <pdb_id>  (5) 
6YQV_8K2

>  <pose_rank>  (5) 
4

>  <num_atoms_heavy>  (5) 
10

>  <num_torsions>  (5) 
1

>  <pose>  (5) 
[13.399720871399264, -9.39013689282972, 22.12930431139564, -0.3963167059010666, 2.483894099320587, 1.9023946516690826, 0.8805861882514298]

>  <energy>  (5) 
-451.3315684822399

>  <inter_energy>  (5) 
-444.9437002816712

>  <intra_energy>  (5) 
0.0

>  <rmsd>  (5) 
2.03225

>  <sdf_rank>  (5) 
0

$$$$

     RDKit          3D

 14 14  0  0  0  0  0  0  0  0999 V2000
   11.2218  -10.4584   23.8772 C   0  0  0  0  0  0  0  0  0  0  0  0
   12.4256   -8.0434   24.3942 Cl  0  0  0  0  0  0  0  0  0  0  0  0
   12.1389   -9.5114   23.5664 C   0  0  0  0  0  0  0  0  0  0  0  0
   11.2795  -11.5461   22.9881 C   0  0  0  0  0  0  0  0  0  0  0  0
   13.0831   -9.8995   22.1883 S   0  0  0  0  0  0  0  0  0  0  0  0
   12.2372  -11.3921   22.0351 C   0  0  0  0  0  0  0  0  0  0  0  0
   12.6635  -12.5806   20.8108 S   0  0  2  0  0  0  0  0  0  0  0  0
   12.6878  -11.8681   19.5702 O   0  0  0  0  0  0  0  0  0  0  0  0
   11.7857  -13.6856   20.9918 O   0  0  0  0  0  0  0  0  0  0  0  0
   14.1420  -13.0641   21.1361 N   0  0  0  0  0  0  0  0  0  0  0  0
   10.5191  -10.3855   24.7204 H   0  0  0  0  0  0  0  0  0  0  0  0
   10.6219  -12.4253   23.0560 H   0  0  0  0  0  0  0  0  0  0  0  0
   14.2724  -13.1068   22.1570 H   0  0  0  0  0  0  0  0  0  0  0  0
   14.2945  -13.9988   20.7312 H   0  0  0  0  0  0  0  0  0  0  0  0
  1  3  2  0
  1  4  1  0
  2  3  1  0
  3  5  1  0
  4  6  2  0
  5  6  1  0
  6  7  1  0
  7  8  2  0
  7  9  2  0
  7 10  1  1
  1 11  1  0
  4 12  1  0
 10 13  1  0
 10 14  1  0
M  END
>  <filename_input>  (6) 
6YQV_8K2_docked.sdf

>  <pdb_id>  (6) 
6YQV_8K2

>  <pose_rank>  (6) 
5

>  <num_atoms_heavy>  (6) 
10

>  <num_torsions>  (6) 
1

>  <pose>  (6) 
[11.221781735754647, -10.458389240125687, 23.87720367387969, 3.5713529924290444, -4.257291569395833, -2.7439758580904954, -0.630549401185674]

>  <energy>  (6) 
-575.9149538524604

>  <inter_energy>  (6) 
-570.9119784604775

>  <intra_energy>  (6) 
0.0

>  <rmsd>  (6) 
0.612561

>  <sdf_rank>  (6) 
0

$$$$

     RDKit          3D

 14 14  0  0  0  0  0  0  0  0999 V2000
   12.8375  -12.8488   20.9645 C   0  0  0  0  0  0  0  0  0  0  0  0
   14.5484  -12.2342   18.9044 Cl  0  0  0  0  0  0  0  0  0  0  0  0
   13.5938  -11.9476   20.2933 C   0  0  0  0  0  0  0  0  0  0  0  0
   12.1689  -12.2566   22.0504 C   0  0  0  0  0  0  0  0  0  0  0  0
   13.5308  -10.3691   20.9609 S   0  0  0  0  0  0  0  0  0  0  0  0
   12.4360  -10.9283   22.1673 C   0  0  0  0  0  0  0  0  0  0  0  0
   11.7142   -9.8389   23.3444 S   0  0  2  0  0  0  0  0  0  0  0  0
   10.4930   -9.3837   22.7540 O   0  0  0  0  0  0  0  0  0  0  0  0
   12.7266   -8.9109   23.7159 O   0  0  0  0  0  0  0  0  0  0  0  0
   11.3538  -10.7157   24.6200 N   0  0  0  0  0  0  0  0  0  0  0  0
   12.7565  -13.9118   20.6937 H   0  0  0  0  0  0  0  0  0  0  0  0
   11.5029  -12.8074   22.7308 H   0  0  0  0  0  0  0  0  0  0  0  0
   11.5723  -10.1842   25.4748 H   0  0  0  0  0  0  0  0  0  0  0  0
   10.3499  -10.9458   24.6059 H   0  0  0  0  0  0  0  0  0  0  0  0
  1  3  2  0
  1  4  1  0
  2  3  1  0
  3  5  1  0
  4  6  2  0
  5  6  1  0
  6  7  1  0
  7  8  2  0
  7  9  2  0
  7 10  1  1
  1 11  1  0
  4 12  1  0
 10 13  1  0
 10 14  1  0
M  END
>  <filename_input>  (7) 
6YQV_8K2_docked.sdf

>  <pdb_id>  (7) 
6YQV_8K2

>  <pose_rank>  (7) 
6

>  <num_atoms_heavy>  (7) 
10

>  <num_torsions>  (7) 
1

>  <pose>  (7) 
[12.83753394392922, -12.848764090427345, 20.964470949042912, -2.0911113958917693, -2.2676130143004545, 1.070140559978291, 8.134719923913332]

>  <energy>  (7) 
-408.1057800669717

>  <inter_energy>  (7) 
-399.89054435596455

>  <intra_energy>  (7) 
0.0

>  <rmsd>  (7) 
4.20637

>  <sdf_rank>  (7) 
0

$$$$

     RDKit          3D

 14 14  0  0  0  0  0  0  0  0999 V2000
   11.3582  -11.1460   23.2154 C   0  0  0  0  0  0  0  0  0  0  0  0
   12.4803   -8.6977   23.7590 Cl  0  0  0  0  0  0  0  0  0  0  0  0
   12.2261  -10.1546   22.9015 C   0  0  0  0  0  0  0  0  0  0  0  0
   11.4306  -12.2074   22.2961 C   0  0  0  0  0  0  0  0  0  0  0  0
   13.1399  -10.4684   21.4846 S   0  0  0  0  0  0  0  0  0  0  0  0
   12.3500  -11.9900   21.3180 C   0  0  0  0  0  0  0  0  0  0  0  0
   12.7837  -13.1285   20.0495 S   0  0  2  0  0  0  0  0  0  0  0  0
   14.0693  -13.6416   20.4116 O   0  0  0  0  0  0  0  0  0  0  0  0
   12.5990  -12.4507   18.8123 O   0  0  0  0  0  0  0  0  0  0  0  0
   11.7337  -14.3192   20.1235 N   0  0  0  0  0  0  0  0  0  0  0  0
   10.6808  -11.1235   24.0818 H   0  0  0  0  0  0  0  0  0  0  0  0
   10.8113  -13.1142   22.3609 H   0  0  0  0  0  0  0  0  0  0  0  0
   11.5368  -14.5425   21.1095 H   0  0  0  0  0  0  0  0  0  0  0  0
   10.8612  -14.0372   19.6544 H   0  0  0  0  0  0  0  0  0  0  0  0
  1  3  2  0
  1  4  1  0
  2  3  1  0
  3  5  1  0
  4  6  2  0
  5  6  1  0
  6  7  1  0
  7  8  2  0
  7  9  2  0
  7 10  1  6
  1 11  1  0
  4 12  1  0
 10 13  1  0
 10 14  1  0
M  END
>  <filename_input>  (8) 
6YQV_8K2_docked.sdf

>  <pdb_id>  (8) 
6YQV_8K2

>  <pose_rank>  (8) 
7

>  <num_atoms_heavy>  (8) 
10

>  <num_torsions>  (8) 
1

>  <pose>  (8) 
[11.35815192280442, -11.145956652933496, 23.215365549796367, 1.200651151850254, -4.499095009851424, -4.034141463409836, 1.5153939975898842]

>  <energy>  (8) 
-492.62451006092437

>  <inter_energy>  (8) 
-479.4388468880667

>  <intra_energy>  (8) 
0.0

>  <rmsd>  (8) 
1.5484

>  <sdf_rank>  (8) 
0

$$$$

     RDKit          3D

 14 14  0  0  0  0  0  0  0  0999 V2000
   11.1000  -10.3611   23.3138 C   0  0  0  0  0  0  0  0  0  0  0  0
   12.5242   -8.1432   24.0894 Cl  0  0  0  0  0  0  0  0  0  0  0  0
   12.2077   -9.5862   23.2291 C   0  0  0  0  0  0  0  0  0  0  0  0
   11.1901  -11.4860   22.4751 C   0  0  0  0  0  0  0  0  0  0  0  0
   13.3782  -10.1839   22.1274 S   0  0  0  0  0  0  0  0  0  0  0  0
   12.3607  -11.5306   21.7843 C   0  0  0  0  0  0  0  0  0  0  0  0
   12.8673  -12.8290   20.7117 S   0  0  2  0  0  0  0  0  0  0  0  0
   11.9476  -12.8081   19.6158 O   0  0  0  0  0  0  0  0  0  0  0  0
   13.0043  -13.9937   21.5172 O   0  0  0  0  0  0  0  0  0  0  0  0
   14.3055  -12.4350   20.1621 N   0  0  0  0  0  0  0  0  0  0  0  0
   10.2372  -10.1381   23.9586 H   0  0  0  0  0  0  0  0  0  0  0  0
   10.4003  -12.2466   22.3873 H   0  0  0  0  0  0  0  0  0  0  0  0
   14.9401  -12.2611   20.9545 H   0  0  0  0  0  0  0  0  0  0  0  0
   14.6765  -13.2053   19.5877 H   0  0  0  0  0  0  0  0  0  0  0  0
  1  3  2  0
  1  4  1  0
  2  3  1  0
  3  5  1  0
  4  6  2  0
  5  6  1  0
  6  7  1  0
  7  8  2  0
  7  9  2  0
  7 10  1  6
  1 11  1  0
  4 12  1  0
 10 13  1  0
 10 14  1  0
M  END
>  <filename_input>  (9) 
6YQV_8K2_docked.sdf

>  <pdb_id>  (9) 
6YQV_8K2

>  <pose_rank>  (9) 
8

>  <num_atoms_heavy>  (9) 
10

>  <num_torsions>  (9) 
1

>  <pose>  (9) 
[11.100017151034459, -10.36107216392893, 23.31376817069652, 1.966227318155135, 4.632529338207677, 3.3487250976075504, -1.7787491870614447]

>  <energy>  (9) 
-542.4672671019956

>  <inter_energy>  (9) 
-541.1293679067225

>  <intra_energy>  (9) 
0.0

>  <rmsd>  (9) 
1.26011

>  <sdf_rank>  (9) 
0

$$$$

     RDKit          3D

 14 14  0  0  0  0  0  0  0  0999 V2000
   10.8794  -10.7496   23.9910 C   0  0  0  0  0  0  0  0  0  0  0  0
   12.1348   -8.4195   24.7280 Cl  0  0  0  0  0  0  0  0  0  0  0  0
   11.8523   -9.8269   23.7997 C   0  0  0  0  0  0  0  0  0  0  0  0
   10.9592  -11.7889   23.0474 C   0  0  0  0  0  0  0  0  0  0  0  0
   12.8776  -10.1792   22.4708 S   0  0  0  0  0  0  0  0  0  0  0  0
   11.9883  -11.6241   22.1739 C   0  0  0  0  0  0  0  0  0  0  0  0
   12.4557  -12.7614   20.9164 S   0  0  2  0  0  0  0  0  0  0  0  0
   13.6820  -12.2600   20.3760 O   0  0  0  0  0  0  0  0  0  0  0  0
   11.3171  -12.9371   20.0815 O   0  0  0  0  0  0  0  0  0  0  0  0
   12.7586  -14.1444   21.6384 N   0  0  0  0  0  0  0  0  0  0  0  0
   10.1212  -10.6930   24.7859 H   0  0  0  0  0  0  0  0  0  0  0  0
   10.2651  -12.6419   23.0188 H   0  0  0  0  0  0  0  0  0  0  0  0
   12.7296  -14.0122   22.6594 H   0  0  0  0  0  0  0  0  0  0  0  0
   12.0497  -14.8385   21.3618 H   0  0  0  0  0  0  0  0  0  0  0  0
  1  3  2  0
  1  4  1  0
  2  3  1  0
  3  5  1  0
  4  6  2  0
  5  6  1  0
  6  7  1  0
  7  8  2  0
  7  9  2  0
  7 10  1  1
  1 11  1  0
  4 12  1  0
 10 13  1  0
 10 14  1  0
M  END
>  <filename_input>  (10) 
6YQV_8K2_docked.sdf

>  <pdb_id>  (10) 
6YQV_8K2

>  <pose_rank>  (10) 
9

>  <num_atoms_heavy>  (10) 
10

>  <num_torsions>  (10) 
1

>  <pose>  (10) 
[10.879429472122991, -10.749625427265922, 23.99101685264982, 2.833004041912854, -5.497731403683821, -1.184567986274989, 0.349300200552494]

>  <energy>  (10) 
-487.6293736102366

>  <inter_energy>  (10) 
-468.8502217278422

>  <intra_energy>  (10) 
0.0

>  <rmsd>  (10) 
0.513583

>  <sdf_rank>  (10) 
0

$$$$

     RDKit          3D

 14 14  0  0  0  0  0  0  0  0999 V2000
   11.6138  -10.8622   23.3145 C   0  0  0  0  0  0  0  0  0  0  0  0
   12.7427   -8.3919   23.7289 Cl  0  0  0  0  0  0  0  0  0  0  0  0
   12.4882   -9.8934   22.9522 C   0  0  0  0  0  0  0  0  0  0  0  0
   11.6881  -11.9735   22.4564 C   0  0  0  0  0  0  0  0  0  0  0  0
   13.4105  -10.2893   21.5616 S   0  0  0  0  0  0  0  0  0  0  0  0
   12.6153  -11.8146   21.4744 C   0  0  0  0  0  0  0  0  0  0  0  0
   13.0529  -13.0238   20.2745 S   0  0  2  0  0  0  0  0  0  0  0  0
   14.3009  -12.5908   19.7247 O   0  0  0  0  0  0  0  0  0  0  0  0
   11.9162  -13.1974   19.4368 O   0  0  0  0  0  0  0  0  0  0  0  0
   13.3003  -14.3822   21.0615 N   0  0  0  0  0  0  0  0  0  0  0  0
   10.9305  -10.7888   24.1734 H   0  0  0  0  0  0  0  0  0  0  0  0
   11.0645  -12.8729   22.5672 H   0  0  0  0  0  0  0  0  0  0  0  0
   13.2676  -14.2025   22.0752 H   0  0  0  0  0  0  0  0  0  0  0  0
   12.5695  -15.0629   20.8097 H   0  0  0  0  0  0  0  0  0  0  0  0
  1  3  2  0
  1  4  1  0
  2  3  1  0
  3  5  1  0
  4  6  2  0
  5  6  1  0
  6  7  1  0
  7  8  2  0
  7  9  2  0
  7 10  1  1
  1 11  1  0
  4 12  1  0
 10 13  1  0
 10 14  1  0
M  END
>  <filename_input>  (11) 
6YQV_8K2_docked.sdf

>  <pdb_id>  (11) 
6YQV_8K2

>  <pose_rank>  (11) 
10

>  <num_atoms_heavy>  (11) 
10

>  <num_torsions>  (11) 
1

>  <pose>  (11) 
[11.613810231299762, -10.862199978894829, 23.314524348379095, 3.566198256370927, -3.7787121669823596, -3.282696368827504, 0.5080362795272501]

>  <energy>  (11) 
-505.0504951429687

>  <inter_energy>  (11) 
-502.2314871683392

>  <intra_energy>  (11) 
0.0

>  <rmsd>  (11) 
1.11003

>  <sdf_rank>  (11) 
0

$$$$

     RDKit          3D

 14 14  0  0  0  0  0  0  0  0999 V2000
   11.6954  -10.4252   24.5529 C   0  0  0  0  0  0  0  0  0  0  0  0
   12.6309   -7.8496   24.3538 Cl  0  0  0  0  0  0  0  0  0  0  0  0
   12.3709   -9.4690   23.8718 C   0  0  0  0  0  0  0  0  0  0  0  0
   11.6983  -11.6509   23.8641 C   0  0  0  0  0  0  0  0  0  0  0  0
   13.0133  -10.0170   22.3791 S   0  0  0  0  0  0  0  0  0  0  0  0
   12.3759  -11.5873   22.6867 C   0  0  0  0  0  0  0  0  0  0  0  0
   12.6696  -12.9389   21.6004 S   0  0  2  0  0  0  0  0  0  0  0  0
   12.3503  -12.4603   20.2904 O   0  0  0  0  0  0  0  0  0  0  0  0
   11.9831  -14.0586   22.1474 O   0  0  0  0  0  0  0  0  0  0  0  0
   14.2292  -13.2397   21.6539 N   0  0  0  0  0  0  0  0  0  0  0  0
   11.2055  -10.2630   25.5243 H   0  0  0  0  0  0  0  0  0  0  0  0
   11.2064  -12.5615   24.2366 H   0  0  0  0  0  0  0  0  0  0  0  0
   14.5341  -13.2985   22.6360 H   0  0  0  0  0  0  0  0  0  0  0  0
   14.4230  -14.1336   21.1802 H   0  0  0  0  0  0  0  0  0  0  0  0
  1  3  2  0
  1  4  1  0
  2  3  1  0
  3  5  1  0
  4  6  2  0
  5  6  1  0
  6  7  1  0
  7  8  2  0
  7  9  2  0
  7 10  1  6
  1 11  1  0
  4 12  1  0
 10 13  1  0
 10 14  1  0
M  END
>  <filename_input>  (12) 
6YQV_8K2_docked.sdf

>  <pdb_id>  (12) 
6YQV_8K2

>  <pose_rank>  (12) 
11

>  <num_atoms_heavy>  (12) 
10

>  <num_torsions>  (12) 
1

>  <pose>  (12) 
[11.695439350412348, -10.42521004707379, 24.55292631108385, 3.204983163501477, -4.354459688954828, -2.2824741623690508, -0.5939512453496474]

>  <energy>  (12) 
-466.61477508572887

>  <inter_energy>  (12) 
-468.1538710261818

>  <intra_energy>  (12) 
0.0

>  <rmsd>  (12) 
1.07811

>  <sdf_rank>  (12) 
0

$$$$

     RDKit          3D

 14 14  0  0  0  0  0  0  0  0999 V2000
   11.4763  -10.8069   23.0534 C   0  0  0  0  0  0  0  0  0  0  0  0
   12.7697   -8.4927   23.7747 Cl  0  0  0  0  0  0  0  0  0  0  0  0
   12.4761   -9.9121   22.8683 C   0  0  0  0  0  0  0  0  0  0  0  0
   11.5541  -11.8673   22.1334 C   0  0  0  0  0  0  0  0  0  0  0  0
   13.5254  -10.3167   21.5735 S   0  0  0  0  0  0  0  0  0  0  0  0
   12.6086  -11.7456   21.2834 C   0  0  0  0  0  0  0  0  0  0  0  0
   13.0792  -12.9200   20.0615 S   0  0  2  0  0  0  0  0  0  0  0  0
   12.0041  -12.9500   19.1179 O   0  0  0  0  0  0  0  0  0  0  0  0
   13.4630  -14.1005   20.7567 O   0  0  0  0  0  0  0  0  0  0  0  0
   14.3644  -12.3340   19.3333 N   0  0  0  0  0  0  0  0  0  0  0  0
   10.7000  -10.7154   23.8273 H   0  0  0  0  0  0  0  0  0  0  0  0
   10.8402  -12.7037   22.1045 H   0  0  0  0  0  0  0  0  0  0  0  0
   15.0470  -12.0228   20.0391 H   0  0  0  0  0  0  0  0  0  0  0  0
   14.7885  -13.0649   18.7444 H   0  0  0  0  0  0  0  0  0  0  0  0
  1  3  2  0
  1  4  1  0
  2  3  1  0
  3  5  1  0
  4  6  2  0
  5  6  1  0
  6  7  1  0
  7  8  2  0
  7  9  2  0
  7 10  1  6
  1 11  1  0
  4 12  1  0
 10 13  1  0
 10 14  1  0
M  END
>  <filename_input>  (13) 
6YQV_8K2_docked.sdf

>  <pdb_id>  (13) 
6YQV_8K2

>  <pose_rank>  (13) 
12

>  <num_atoms_heavy>  (13) 
10

>  <num_torsions>  (13) 
1

>  <pose>  (13) 
[11.476321964296645, -10.806907588733033, 23.05339030910906, 1.8637372944111597, 4.848161564959518, 3.448847327264302, -1.7893190558367067]

>  <energy>  (13) 
-463.3002850555908

>  <inter_energy>  (13) 
-465.26076247724944

>  <intra_energy>  (13) 
0.0

>  <rmsd>  (13) 
1.60067

>  <sdf_rank>  (13) 
0

$$$$

     RDKit          3D

 14 14  0  0  0  0  0  0  0  0999 V2000
   11.4752  -10.5075   23.9425 C   0  0  0  0  0  0  0  0  0  0  0  0
   12.6735   -8.0351   23.9346 Cl  0  0  0  0  0  0  0  0  0  0  0  0
   12.2835   -9.5945   23.3528 C   0  0  0  0  0  0  0  0  0  0  0  0
   11.3984  -11.6929   23.1903 C   0  0  0  0  0  0  0  0  0  0  0  0
   12.9591  -10.1342   21.8717 S   0  0  0  0  0  0  0  0  0  0  0  0
   12.1504  -11.6435   22.0584 C   0  0  0  0  0  0  0  0  0  0  0  0
   12.3744  -12.9651   20.9198 S   0  0  2  0  0  0  0  0  0  0  0  0
   13.5775  -12.6631   20.2066 O   0  0  0  0  0  0  0  0  0  0  0  0
   11.1424  -13.1184   20.2251 O   0  0  0  0  0  0  0  0  0  0  0  0
   12.6231  -14.2764   21.7825 N   0  0  0  0  0  0  0  0  0  0  0  0
   10.9448  -10.3420   24.8918 H   0  0  0  0  0  0  0  0  0  0  0  0
   10.7960  -12.5648   23.4852 H   0  0  0  0  0  0  0  0  0  0  0  0
   12.5786  -14.0418   22.7845 H   0  0  0  0  0  0  0  0  0  0  0  0
   11.8997  -14.9754   21.5611 H   0  0  0  0  0  0  0  0  0  0  0  0
  1  3  2  0
  1  4  1  0
  2  3  1  0
  3  5  1  0
  4  6  2  0
  5  6  1  0
  6  7  1  0
  7  8  2  0
  7  9  2  0
  7 10  1  1
  1 11  1  0
  4 12  1  0
 10 13  1  0
 10 14  1  0
M  END
>  <filename_input>  (14) 
6YQV_8K2_docked.sdf

>  <pdb_id>  (14) 
6YQV_8K2

>  <pose_rank>  (14) 
13

>  <num_atoms_heavy>  (14) 
10

>  <num_torsions>  (14) 
1

>  <pose>  (14) 
[11.475215443288848, -10.50745709600693, 23.942454041955056, 3.1766288085117287, -4.9169801539924665, -1.1896293411768089, 0.5868022178153127]

>  <energy>  (14) 
-582.337209842886

>  <inter_energy>  (14) 
-579.1053892076947

>  <intra_energy>  (14) 
0.0

>  <rmsd>  (14) 
0.700444

>  <sdf_rank>  (14) 
0

$$$$

     RDKit          3D

 14 14  0  0  0  0  0  0  0  0999 V2000
   15.4000  -12.7959   18.8507 C   0  0  0  0  0  0  0  0  0  0  0  0
   14.2827  -11.5785   16.6557 Cl  0  0  0  0  0  0  0  0  0  0  0  0
   15.5361  -12.1323   17.6778 C   0  0  0  0  0  0  0  0  0  0  0  0
   16.6482  -13.0781   19.4333 C   0  0  0  0  0  0  0  0  0  0  0  0
   17.1691  -11.8447   17.2398 S   0  0  0  0  0  0  0  0  0  0  0  0
   17.6888  -12.6190   18.6879 C   0  0  0  0  0  0  0  0  0  0  0  0
   19.3868  -12.7053   19.1380 S   0  0  2  0  0  0  0  0  0  0  0  0
   19.6656  -14.0946   19.3361 O   0  0  0  0  0  0  0  0  0  0  0  0
   19.5764  -11.7728   20.1956 O   0  0  0  0  0  0  0  0  0  0  0  0
   20.2204  -12.2047   17.8809 N   0  0  0  0  0  0  0  0  0  0  0  0
   14.4332  -13.0789   19.2925 H   0  0  0  0  0  0  0  0  0  0  0  0
   16.7696  -13.6118   20.3875 H   0  0  0  0  0  0  0  0  0  0  0  0
   21.0590  -11.7011   18.2035 H   0  0  0  0  0  0  0  0  0  0  0  0
   20.5042  -13.0152   17.3123 H   0  0  0  0  0  0  0  0  0  0  0  0
  1  3  2  0
  1  4  1  0
  2  3  1  0
  3  5  1  0
  4  6  2  0
  5  6  1  0
  6  7  1  0
  7  8  2  0
  7  9  2  0
  7 10  1  6
  1 11  1  0
  4 12  1  0
 10 13  1  0
 10 14  1  0
M  END
>  <filename_input>  (15) 
6YQV_8K2_docked.sdf

>  <pdb_id>  (15) 
6YQV_8K2

>  <pose_rank>  (15) 
14

>  <num_atoms_heavy>  (15) 
10

>  <num_torsions>  (15) 
1

>  <pose>  (15) 
[15.400046156733225, -12.795922239342595, 18.850660421489902, 3.1414208778381987, 1.2084507143505592, -3.037996833483002, -1.9089908331799719]

>  <energy>  (15) 
-110.57056516959734

>  <inter_energy>  (15) 
-113.32512441079254

>  <intra_energy>  (15) 
0.0

>  <rmsd>  (15) 
7.45581

>  <sdf_rank>  (15) 
0

$$$$

     RDKit          3D

 14 14  0  0  0  0  0  0  0  0999 V2000
   13.3413  -11.2317   20.5902 C   0  0  0  0  0  0  0  0  0  0  0  0
   13.0744  -13.8696   19.8697 Cl  0  0  0  0  0  0  0  0  0  0  0  0
   12.8369  -12.4677   20.8189 C   0  0  0  0  0  0  0  0  0  0  0  0
   12.9555  -10.3221   21.5905 C   0  0  0  0  0  0  0  0  0  0  0  0
   11.8740  -12.5625   22.2349 S   0  0  0  0  0  0  0  0  0  0  0  0
   12.1750  -10.8953   22.5454 C   0  0  0  0  0  0  0  0  0  0  0  0
   11.5787  -10.0972   23.9948 S   0  0  2  0  0  0  0  0  0  0  0  0
   10.2327   -9.7120   23.6997 O   0  0  0  0  0  0  0  0  0  0  0  0
   12.5485   -9.1186   24.3500 O   0  0  0  0  0  0  0  0  0  0  0  0
   11.5417  -11.1969   25.1415 N   0  0  0  0  0  0  0  0  0  0  0  0
   13.9742  -10.9718   19.7288 H   0  0  0  0  0  0  0  0  0  0  0  0
   13.2525   -9.2630   21.5998 H   0  0  0  0  0  0  0  0  0  0  0  0
   11.5573  -10.7342   26.0616 H   0  0  0  0  0  0  0  0  0  0  0  0
   10.6815  -11.7564   25.0531 H   0  0  0  0  0  0  0  0  0  0  0  0
  1  3  2  0
  1  4  1  0
  2  3  1  0
  3  5  1  0
  4  6  2  0
  5  6  1  0
  6  7  1  0
  7  8  2  0
  7  9  2  0
  7 10  1  1
  1 11  1  0
  4 12  1  0
 10 13  1  0
 10 14  1  0
M  END
>  <filename_input>  (16) 
6YQV_8K2_docked.sdf

>  <pdb_id>  (16) 
6YQV_8K2

>  <pose_rank>  (16) 
15

>  <num_atoms_heavy>  (16) 
10

>  <num_torsions>  (16) 
1

>  <pose>  (16) 
[13.34132504526795, -11.23172108278999, 20.59017697929116, -2.134869526898282, 1.1236614379489573, -1.636178328573748, 5.088060406227197]

>  <energy>  (16) 
-400.1925186472081

>  <inter_energy>  (16) 
-392.75609033144275

>  <intra_energy>  (16) 
0.0

>  <rmsd>  (16) 
4.42831

>  <sdf_rank>  (16) 
0

$$$$

     RDKit          3D

 14 14  0  0  0  0  0  0  0  0999 V2000
   11.1188   -9.5174   24.3116 C   0  0  0  0  0  0  0  0  0  0  0  0
   12.2810   -7.0784   24.8112 Cl  0  0  0  0  0  0  0  0  0  0  0  0
   12.0106   -8.5512   23.9863 C   0  0  0  0  0  0  0  0  0  0  0  0
   11.1836  -10.6027   23.4201 C   0  0  0  0  0  0  0  0  0  0  0  0
   12.9384   -8.9180   22.5914 S   0  0  0  0  0  0  0  0  0  0  0  0
   12.1213  -10.4277   22.4508 C   0  0  0  0  0  0  0  0  0  0  0  0
   12.5507  -11.6058   21.2175 S   0  0  2  0  0  0  0  0  0  0  0  0
   13.8223  -12.1318   21.6095 O   0  0  0  0  0  0  0  0  0  0  0  0
   12.3940  -10.9568   19.9611 O   0  0  0  0  0  0  0  0  0  0  0  0
   11.4789  -12.7757   21.3078 N   0  0  0  0  0  0  0  0  0  0  0  0
   10.4296   -9.4601   25.1670 H   0  0  0  0  0  0  0  0  0  0  0  0
   10.5458  -11.4955   23.4981 H   0  0  0  0  0  0  0  0  0  0  0  0
   11.2846  -12.9877   22.2969 H   0  0  0  0  0  0  0  0  0  0  0  0
   10.6086  -12.4806   20.8426 H   0  0  0  0  0  0  0  0  0  0  0  0
  1  3  2  0
  1  4  1  0
  2  3  1  0
  3  5  1  0
  4  6  2  0
  5  6  1  0
  6  7  1  0
  7  8  2  0
  7  9  2  0
  7 10  1  6
  1 11  1  0
  4 12  1  0
 10 13  1  0
 10 14  1  0
M  END
>  <filename_input>  (17) 
6YQV_8K2_docked.sdf

>  <pdb_id>  (17) 
6YQV_8K2

>  <pose_rank>  (17) 
16

>  <num_atoms_heavy>  (17) 
10

>  <num_torsions>  (17) 
1

>  <pose>  (17) 
[11.118840431565827, -9.517396427518305, 24.311606263793944, 2.7768538016748563, -4.3456492084106735, -3.3973291702666977, 1.5127543568890958]

>  <energy>  (17) 
-447.32703655886866

>  <inter_energy>  (17) 
-422.90599346076726

>  <intra_energy>  (17) 
0.0

>  <rmsd>  (17) 
1.3154

>  <sdf_rank>  (17) 
0

$$$$

     RDKit          3D

 14 14  0  0  0  0  0  0  0  0999 V2000
   13.7392   -9.9069   21.4734 C   0  0  0  0  0  0  0  0  0  0  0  0
   14.6875  -11.9220   19.8644 Cl  0  0  0  0  0  0  0  0  0  0  0  0
   13.7133  -11.1993   21.0691 C   0  0  0  0  0  0  0  0  0  0  0  0
   12.8108   -9.6678   22.5019 C   0  0  0  0  0  0  0  0  0  0  0  0
   12.5612  -12.1551   21.9060 S   0  0  0  0  0  0  0  0  0  0  0  0
   12.1136  -10.7833   22.8465 C   0  0  0  0  0  0  0  0  0  0  0  0
   10.9360  -10.8929   24.1483 S   0  0  2  0  0  0  0  0  0  0  0  0
   10.2032   -9.6645   24.1130 O   0  0  0  0  0  0  0  0  0  0  0  0
   11.6536  -11.2724   25.3167 O   0  0  0  0  0  0  0  0  0  0  0  0
    9.9437  -12.0754   23.7706 N   0  0  0  0  0  0  0  0  0  0  0  0
   14.4039   -9.1397   21.0497 H   0  0  0  0  0  0  0  0  0  0  0  0
   12.6646   -8.6860   22.9759 H   0  0  0  0  0  0  0  0  0  0  0  0
    9.5809  -12.5077   24.6323 H   0  0  0  0  0  0  0  0  0  0  0  0
    9.1592  -11.7019   23.2174 H   0  0  0  0  0  0  0  0  0  0  0  0
  1  3  2  0
  1  4  1  0
  2  3  1  0
  3  5  1  0
  4  6  2  0
  5  6  1  0
  6  7  1  0
  7  8  2  0
  7  9  2  0
  7 10  1  6
  1 11  1  0
  4 12  1  0
 10 13  1  0
 10 14  1  0
M  END
>  <filename_input>  (18) 
6YQV_8K2_docked.sdf

>  <pdb_id>  (18) 
6YQV_8K2

>  <pose_rank>  (18) 
17

>  <num_atoms_heavy>  (18) 
10

>  <num_torsions>  (18) 
1

>  <pose>  (18) 
[13.739188371504715, -9.906913221671001, 21.473360609238597, 2.8239369328269706, -1.477788249888254, 2.4000725386496455, -2.2389505985214466]

>  <energy>  (18) 
-432.64433947498037

>  <inter_energy>  (18) 
-399.8915769168503

>  <intra_energy>  (18) 
0.0

>  <rmsd>  (18) 
4.1915

>  <sdf_rank>  (18) 
0

$$$$

     RDKit          3D

 14 14  0  0  0  0  0  0  0  0999 V2000
   11.3038  -10.2132   23.5548 C   0  0  0  0  0  0  0  0  0  0  0  0
   12.4507   -7.7667   24.0526 Cl  0  0  0  0  0  0  0  0  0  0  0  0
   12.1817   -9.2368   23.2225 C   0  0  0  0  0  0  0  0  0  0  0  0
   11.3654  -11.2923   22.6556 C   0  0  0  0  0  0  0  0  0  0  0  0
   13.0921   -9.5863   21.8118 S   0  0  0  0  0  0  0  0  0  0  0  0
   12.2869  -11.1027   21.6737 C   0  0  0  0  0  0  0  0  0  0  0  0
   12.7090  -12.2691   20.4268 S   0  0  2  0  0  0  0  0  0  0  0  0
   13.9841  -12.7967   20.8048 O   0  0  0  0  0  0  0  0  0  0  0  0
   12.5421  -11.6091   19.1775 O   0  0  0  0  0  0  0  0  0  0  0  0
   11.6394  -13.4412   20.5146 N   0  0  0  0  0  0  0  0  0  0  0  0
   10.6268  -10.1676   24.4206 H   0  0  0  0  0  0  0  0  0  0  0  0
   10.7370  -12.1915   22.7373 H   0  0  0  0  0  0  0  0  0  0  0  0
   11.4445  -13.6549   21.5031 H   0  0  0  0  0  0  0  0  0  0  0  0
   10.7690  -13.1474   20.0487 H   0  0  0  0  0  0  0  0  0  0  0  0
  1  3  2  0
  1  4  1  0
  2  3  1  0
  3  5  1  0
  4  6  2  0
  5  6  1  0
  6  7  1  0
  7  8  2  0
  7  9  2  0
  7 10  1  6
  1 11  1  0
  4 12  1  0
 10 13  1  0
 10 14  1  0
M  END
>  <filename_input>  (19) 
6YQV_8K2_docked.sdf

>  <pdb_id>  (19) 
6YQV_8K2

>  <pose_rank>  (19) 
18

>  <num_atoms_heavy>  (19) 
10

>  <num_torsions>  (19) 
1

>  <pose>  (19) 
[11.303790550981374, -10.213226202189373, 23.55480825541278, 2.141995493024258, -4.58524922566116, -3.5155524200028294, 1.5238977787412455]

>  <energy>  (19) 
-507.3461159947027

>  <inter_energy>  (19) 
-503.66525332153947

>  <intra_energy>  (19) 
0.0

>  <rmsd>  (19) 
1.15212

>  <sdf_rank>  (19) 
0

$$$$

     RDKit          3D

 14 14  0  0  0  0  0  0  0  0999 V2000
   14.8491  -11.0953   17.9668 C   0  0  0  0  0  0  0  0  0  0  0  0
   17.0925  -12.5944   17.4483 Cl  0  0  0  0  0  0  0  0  0  0  0  0
   15.6059  -12.1957   18.1925 C   0  0  0  0  0  0  0  0  0  0  0  0
   13.6974  -11.0851   18.7733 C   0  0  0  0  0  0  0  0  0  0  0  0
   14.9431  -13.2523   19.3695 S   0  0  0  0  0  0  0  0  0  0  0  0
   13.6179  -12.1733   19.5849 C   0  0  0  0  0  0  0  0  0  0  0  0
   12.3721  -12.4607   20.7926 S   0  0  2  0  0  0  0  0  0  0  0  0
   11.3542  -13.2154   20.1280 O   0  0  0  0  0  0  0  0  0  0  0  0
   12.0704  -11.1986   21.3759 O   0  0  0  0  0  0  0  0  0  0  0  0
   13.0229  -13.3812   21.9128 N   0  0  0  0  0  0  0  0  0  0  0  0
   15.1038  -10.3075   17.2425 H   0  0  0  0  0  0  0  0  0  0  0  0
   12.9434  -10.2846   18.7503 H   0  0  0  0  0  0  0  0  0  0  0  0
   12.7683  -13.0211   22.8436 H   0  0  0  0  0  0  0  0  0  0  0  0
   12.6744  -14.3450   21.8103 H   0  0  0  0  0  0  0  0  0  0  0  0
  1  3  2  0
  1  4  1  0
  2  3  1  0
  3  5  1  0
  4  6  2  0
  5  6  1  0
  6  7  1  0
  7  8  2  0
  7  9  2  0
  7 10  1  1
  1 11  1  0
  4 12  1  0
 10 13  1  0
 10 14  1  0
M  END
>  <filename_input>  (20) 
6YQV_8K2_docked.sdf

>  <pdb_id>  (20) 
6YQV_8K2

>  <pose_rank>  (20) 
19

>  <num_atoms_heavy>  (20) 
10

>  <num_torsions>  (20) 
1

>  <pose>  (20) 
[14.849109607784996, -11.095294759783144, 17.966780140361248, 3.3287204336929204, 0.13597682885778456, 2.250781079080006, 4.965763678310456]

>  <energy>  (20) 
-213.31913621489034

>  <inter_energy>  (20) 
-203.30024047730097

>  <intra_energy>  (20) 
0.0

>  <rmsd>  (20) 
5.1567

>  <sdf_rank>  (20) 
0

$$$$

     RDKit          3D

 14 14  0  0  0  0  0  0  0  0999 V2000
   14.7832  -13.0248   20.4813 C   0  0  0  0  0  0  0  0  0  0  0  0
   14.3002  -15.6891   20.0154 Cl  0  0  0  0  0  0  0  0  0  0  0  0
   13.9604  -14.0989   20.5430 C   0  0  0  0  0  0  0  0  0  0  0  0
   14.1794  -11.8784   21.0271 C   0  0  0  0  0  0  0  0  0  0  0  0
   12.4347  -13.7525   21.2456 S   0  0  0  0  0  0  0  0  0  0  0  0
   12.9222  -12.1182   21.4868 C   0  0  0  0  0  0  0  0  0  0  0  0
   11.8954  -10.9543   22.3139 S   0  0  2  0  0  0  0  0  0  0  0  0
   10.5708  -11.4917   22.2507 O   0  0  0  0  0  0  0  0  0  0  0  0
   12.1857   -9.6809   21.7499 O   0  0  0  0  0  0  0  0  0  0  0  0
   12.3538  -10.9382   23.8355 N   0  0  0  0  0  0  0  0  0  0  0  0
   15.7978  -13.0467   20.0569 H   0  0  0  0  0  0  0  0  0  0  0  0
   14.6702  -10.8952   21.0769 H   0  0  0  0  0  0  0  0  0  0  0  0
   11.5237  -10.9674   24.4445 H   0  0  0  0  0  0  0  0  0  0  0  0
   12.9469  -11.7589   24.0241 H   0  0  0  0  0  0  0  0  0  0  0  0
  1  3  2  0
  1  4  1  0
  2  3  1  0
  3  5  1  0
  4  6  2  0
  5  6  1  0
  6  7  1  0
  7  8  2  0
  7  9  2  0
  7 10  1  1
  1 11  1  0
  4 12  1  0
 10 13  1  0
 10 14  1  0
M  END
>  <filename_input>  (21) 
6YQV_8K2_docked.sdf

>  <pdb_id>  (21) 
6YQV_8K2

>  <pose_rank>  (21) 
20

>  <num_atoms_heavy>  (21) 
10

>  <num_torsions>  (21) 
1

>  <pose>  (21) 
[14.783225541755863, -13.024819020502168, 20.481284149995037, 1.7359742600071337, -1.207392357975247, 2.5726059875395997, -0.076589453086637]

>  <energy>  (21) 
-294.8254808792119

>  <inter_energy>  (21) 
-291.91618610310076

>  <intra_energy>  (21) 
0.0

>  <rmsd>  (21) 
4.69837

>  <sdf_rank>  (21) 
0

$$$$

     RDKit          3D

 14 14  0  0  0  0  0  0  0  0999 V2000
   13.1207  -11.2029   20.6683 C   0  0  0  0  0  0  0  0  0  0  0  0
   12.0991  -13.6793   20.0577 Cl  0  0  0  0  0  0  0  0  0  0  0  0
   12.3018  -12.2415   20.9601 C   0  0  0  0  0  0  0  0  0  0  0  0
   13.0459  -10.1946   21.6454 C   0  0  0  0  0  0  0  0  0  0  0  0
   11.4107  -12.0240   22.4092 S   0  0  0  0  0  0  0  0  0  0  0  0
   12.1772  -10.4999   22.6461 C   0  0  0  0  0  0  0  0  0  0  0  0
   11.8882   -9.5274   24.0828 S   0  0  2  0  0  0  0  0  0  0  0  0
   12.9327   -8.5497   24.1061 O   0  0  0  0  0  0  0  0  0  0  0  0
   11.7258  -10.4365   25.1650 O   0  0  0  0  0  0  0  0  0  0  0  0
   10.5070   -8.7746   23.8567 N   0  0  0  0  0  0  0  0  0  0  0  0
   13.7643  -11.1543   19.7776 H   0  0  0  0  0  0  0  0  0  0  0  0
   13.6265   -9.2612   21.6047 H   0  0  0  0  0  0  0  0  0  0  0  0
   10.0873   -8.5459   24.7691 H   0  0  0  0  0  0  0  0  0  0  0  0
   10.6716   -7.9066   23.3272 H   0  0  0  0  0  0  0  0  0  0  0  0
  1  3  2  0
  1  4  1  0
  2  3  1  0
  3  5  1  0
  4  6  2  0
  5  6  1  0
  6  7  1  0
  7  8  2  0
  7  9  2  0
  7 10  1  6
  1 11  1  0
  4 12  1  0
 10 13  1  0
 10 14  1  0
M  END
>  <filename_input>  (22) 
6YQV_8K2_docked.sdf

>  <pdb_id>  (22) 
6YQV_8K2

>  <pose_rank>  (22) 
21

>  <num_atoms_heavy>  (22) 
10

>  <num_torsions>  (22) 
1

>  <pose>  (22) 
[13.120701979952983, -11.202935215978073, 20.668289603118577, -2.1126595799486876, 1.4780907052280856, -1.7455990702992654, 3.148038708647376]

>  <energy>  (22) 
-374.4995175787066

>  <inter_energy>  (22) 
-371.5200146110994

>  <intra_energy>  (22) 
0.0

>  <rmsd>  (22) 
4.59755

>  <sdf_rank>  (22) 
0

$$$$

     RDKit          3D

 14 14  0  0  0  0  0  0  0  0999 V2000
   13.7435  -11.7592   20.8797 C   0  0  0  0  0  0  0  0  0  0  0  0
   12.8742  -14.0482   19.6334 Cl  0  0  0  0  0  0  0  0  0  0  0  0
   12.8066  -12.7227   20.7108 C   0  0  0  0  0  0  0  0  0  0  0  0
   13.3626  -10.8348   21.8684 C   0  0  0  0  0  0  0  0  0  0  0  0
   11.4380  -12.5319   21.7265 S   0  0  0  0  0  0  0  0  0  0  0  0
   12.1537  -11.1264   22.4187 C   0  0  0  0  0  0  0  0  0  0  0  0
   11.3944  -10.2527   23.7429 S   0  0  2  0  0  0  0  0  0  0  0  0
   12.0152  -10.7407   24.9361 O   0  0  0  0  0  0  0  0  0  0  0  0
    9.9889  -10.3738   23.5587 O   0  0  0  0  0  0  0  0  0  0  0  0
   11.7870   -8.7227   23.5676 N   0  0  0  0  0  0  0  0  0  0  0  0
   14.6852  -11.7064   20.3138 H   0  0  0  0  0  0  0  0  0  0  0  0
   13.9754   -9.9705   22.1642 H   0  0  0  0  0  0  0  0  0  0  0  0
   11.8984   -8.2884   24.4949 H   0  0  0  0  0  0  0  0  0  0  0  0
   12.6731   -8.6531   23.0471 H   0  0  0  0  0  0  0  0  0  0  0  0
  1  3  2  0
  1  4  1  0
  2  3  1  0
  3  5  1  0
  4  6  2  0
  5  6  1  0
  6  7  1  0
  7  8  2  0
  7  9  2  0
  7 10  1  6
  1 11  1  0
  4 12  1  0
 10 13  1  0
 10 14  1  0
M  END
>  <filename_input>  (23) 
6YQV_8K2_docked.sdf

>  <pdb_id>  (23) 
6YQV_8K2

>  <pose_rank>  (23) 
22

>  <num_atoms_heavy>  (23) 
10

>  <num_torsions>  (23) 
1

>  <pose>  (23) 
[13.743462909062494, -11.759188718744738, 20.879716525712805, -1.553377715868282, 1.526795045052398, -1.924963135021982, 1.95814333246322]

>  <energy>  (23) 
-412.3616795077095

>  <inter_energy>  (23) 
-386.23564863506374

>  <intra_energy>  (23) 
0.0

>  <rmsd>  (23) 
4.56793

>  <sdf_rank>  (23) 
0

$$$$

     RDKit          3D

 14 14  0  0  0  0  0  0  0  0999 V2000
   14.6903  -11.4111   17.3898 C   0  0  0  0  0  0  0  0  0  0  0  0
   14.9095  -14.0650   16.7133 Cl  0  0  0  0  0  0  0  0  0  0  0  0
   14.4953  -12.7191   17.6826 C   0  0  0  0  0  0  0  0  0  0  0  0
   14.2444  -10.5761   18.4295 C   0  0  0  0  0  0  0  0  0  0  0  0
   13.7573  -12.9759   19.2092 S   0  0  0  0  0  0  0  0  0  0  0  0
   13.7290  -11.2746   19.4763 C   0  0  0  0  0  0  0  0  0  0  0  0
   13.1585  -10.5803   20.9882 S   0  0  2  0  0  0  0  0  0  0  0  0
   13.9764   -9.4294   21.2197 O   0  0  0  0  0  0  0  0  0  0  0  0
   13.1201  -11.6412   21.9355 O   0  0  0  0  0  0  0  0  0  0  0  0
   11.6686  -10.0892   20.7340 N   0  0  0  0  0  0  0  0  0  0  0  0
   15.1414  -11.0473   16.4549 H   0  0  0  0  0  0  0  0  0  0  0  0
   14.3057   -9.4783   18.3994 H   0  0  0  0  0  0  0  0  0  0  0  0
   11.1992   -9.9344   21.6376 H   0  0  0  0  0  0  0  0  0  0  0  0
   11.6838   -9.2087   20.1997 H   0  0  0  0  0  0  0  0  0  0  0  0
  1  3  2  0
  1  4  1  0
  2  3  1  0
  3  5  1  0
  4  6  2  0
  5  6  1  0
  6  7  1  0
  7  8  2  0
  7  9  2  0
  7 10  1  6
  1 11  1  0
  4 12  1  0
 10 13  1  0
 10 14  1  0
M  END
>  <filename_input>  (24) 
6YQV_8K2_docked.sdf

>  <pdb_id>  (24) 
6YQV_8K2

>  <pose_rank>  (24) 
23

>  <num_atoms_heavy>  (24) 
10

>  <num_torsions>  (24) 
1

>  <pose>  (24) 
[14.690303406892903, -11.411123888723697, 17.389821642801895, 2.7677320402629793, -1.0542112169083844, 1.7255476823339728, -3.485188947481123]

>  <energy>  (24) 
-196.1029755614873

>  <inter_energy>  (24) 
-193.89137105704629

>  <intra_energy>  (24) 
0.0

>  <rmsd>  (24) 
5.62547

>  <sdf_rank>  (24) 
0

$$$$

     RDKit          3D

 14 14  0  0  0  0  0  0  0  0999 V2000
   15.4913  -12.2724   20.9243 C   0  0  0  0  0  0  0  0  0  0  0  0
   15.4918  -15.0175   20.8103 Cl  0  0  0  0  0  0  0  0  0  0  0  0
   14.8503  -13.4556   21.0780 C   0  0  0  0  0  0  0  0  0  0  0  0
   14.6604  -11.1872   21.2540 C   0  0  0  0  0  0  0  0  0  0  0  0
   13.2278  -13.2910   21.6085 S   0  0  0  0  0  0  0  0  0  0  0  0
   13.4196  -11.5798   21.6487 C   0  0  0  0  0  0  0  0  0  0  0  0
   12.1430  -10.5145   22.2220 S   0  0  2  0  0  0  0  0  0  0  0  0
   12.7797   -9.2659   22.5098 O   0  0  0  0  0  0  0  0  0  0  0  0
   11.4480  -11.2226   23.2417 O   0  0  0  0  0  0  0  0  0  0  0  0
   11.1465  -10.2958   21.0035 N   0  0  0  0  0  0  0  0  0  0  0  0
   16.5326  -12.1728   20.5839 H   0  0  0  0  0  0  0  0  0  0  0  0
   14.9790  -10.1358   21.1987 H   0  0  0  0  0  0  0  0  0  0  0  0
   10.2040  -10.0890   21.3637 H   0  0  0  0  0  0  0  0  0  0  0  0
   11.4751   -9.5069   20.4285 H   0  0  0  0  0  0  0  0  0  0  0  0
  1  3  2  0
  1  4  1  0
  2  3  1  0
  3  5  1  0
  4  6  2  0
  5  6  1  0
  6  7  1  0
  7  8  2  0
  7  9  2  0
  7 10  1  6
  1 11  1  0
  4 12  1  0
 10 13  1  0
 10 14  1  0
M  END
>  <filename_input>  (25) 
6YQV_8K2_docked.sdf

>  <pdb_id>  (25) 
6YQV_8K2

>  <pose_rank>  (25) 
24

>  <num_atoms_heavy>  (25) 
10

>  <num_torsions>  (25) 
1

>  <pose>  (25) 
[15.491312626649183, -12.272390172587901, 20.924319683936663, -1.5010584764844255, 0.7464427696606305, -2.322334740951482, -3.1802194171003624]

>  <energy>  (25) 
-277.18599598302154

>  <inter_energy>  (25) 
-276.0957699647165

>  <intra_energy>  (25) 
0.0

>  <rmsd>  (25) 
4.64916

>  <sdf_rank>  (25) 
0

$$$$

     RDKit          3D

 14 14  0  0  0  0  0  0  0  0999 V2000
   10.9840  -10.3280   23.9780 C   0  0  0  0  0  0  0  0  0  0  0  0
   12.2420   -7.9900   24.6850 Cl  0  0  0  0  0  0  0  0  0  0  0  0
   11.9520   -9.4040   23.7690 C   0  0  0  0  0  0  0  0  0  0  0  0
   11.0550  -11.3730   23.0400 C   0  0  0  0  0  0  0  0  0  0  0  0
   12.9620   -9.7620   22.4300 S   0  0  0  0  0  0  0  0  0  0  0  0
   12.0730  -11.2110   22.1530 C   0  0  0  0  0  0  0  0  0  0  0  0
   12.5280  -12.3550   20.8970 S   0  0  2  0  0  0  0  0  0  0  0  0
   13.4320  -11.6510   20.0400 O   0  0  0  0  0  0  0  0  0  0  0  0
   11.3180  -12.8970   20.3810 O   0  0  0  0  0  0  0  0  0  0  0  0
   13.3300  -13.5260   21.6120 N   0  0  0  0  0  0  0  0  0  0  0  0
   10.2353  -10.2683   24.7817 H   0  0  0  0  0  0  0  0  0  0  0  0
   10.3630  -12.2279   23.0253 H   0  0  0  0  0  0  0  0  0  0  0  0
   13.2564  -13.4185   22.6337 H   0  0  0  0  0  0  0  0  0  0  0  0
   12.9328  -14.4344   21.3328 H   0  0  0  0  0  0  0  0  0  0  0  0
  1  3  2  0
  1  4  1  0
  2  3  1  0
  3  5  1  0
  4  6  2  0
  5  6  1  0
  6  7  1  0
  7  8  2  0
  7  9  2  0
  7 10  1  1
  1 11  1  0
  4 12  1  0
 10 13  1  0
 10 14  1  0
M  END
>  <filename_input>  (26) 
6YQV_8K2_docked.sdf

>  <pdb_id>  (26) 
6YQV_8K2

>  <pose_rank>  (26) 
25

>  <num_atoms_heavy>  (26) 
10

>  <num_torsions>  (26) 
1

>  <pose>  (26) 
[10.984, -10.328, 23.978, 1e-06, 1e-06, 1e-06, 0.0]

>  <energy>  (26) 
-557.7764527865921

>  <inter_energy>  (26) 
-579.9883100547759

>  <intra_energy>  (26) 
0.0

>  <rmsd>  (26) 
0.0

>  <sdf_rank>  (26) 
0

$$$$
