
     RDKit          3D

 19 19  0  0  0  0  0  0  0  0999 V2000
    2.7356   13.7249    8.9693 C   0  0  0  0  0  0  0  0  0  0  0  0
    1.2931   13.6172    9.1680 N   0  0  0  0  0  0  0  0  0  0  0  0
    0.7293   13.6916   10.3688 C   0  0  0  0  0  0  0  0  0  0  0  0
    1.4580   14.1672   11.5433 C   0  0  0  0  0  0  0  0  0  0  0  0
    0.9434   14.2978   12.7411 N   0  0  0  0  0  0  0  0  0  0  0  0
   -0.3551   13.8959   12.9293 N   0  0  0  0  0  0  0  0  0  0  0  0
   -0.8064   14.0139   14.3020 C   0  0  0  0  0  0  0  0  0  0  0  0
   -1.2177   13.3834   11.9468 C   0  0  0  0  0  0  0  0  0  0  0  0
   -2.3925   13.0511   12.2024 O   0  0  0  0  0  0  0  0  0  0  0  0
   -0.6112   13.3299   10.6341 C   0  0  0  0  0  0  0  0  0  0  0  0
   -1.6507   12.7361    9.3991 Cl  0  0  0  0  0  0  0  0  0  0  0  0
    3.2386   13.7625    9.9469 H   0  0  0  0  0  0  0  0  0  0  0  0
    3.0944   12.8511    8.4057 H   0  0  0  0  0  0  0  0  0  0  0  0
    2.9606   14.6424    8.4057 H   0  0  0  0  0  0  0  0  0  0  0  0
    0.6891   13.4783    8.3453 H   0  0  0  0  0  0  0  0  0  0  0  0
    2.5167   14.4352   11.4118 H   0  0  0  0  0  0  0  0  0  0  0  0
    0.0294   13.7954   14.9828 H   0  0  0  0  0  0  0  0  0  0  0  0
   -1.1684   15.0369   14.4823 H   0  0  0  0  0  0  0  0  0  0  0  0
   -1.6228   13.2990   14.4823 H   0  0  0  0  0  0  0  0  0  0  0  0
  1  2  1  0
  2  3  1  0
  3  4  1  0
  3 10  2  0
  4  5  2  0
  5  6  1  0
  6  7  1  0
  6  8  1  0
  8  9  2  0
  8 10  1  0
 10 11  1  0
  1 12  1  0
  1 13  1  0
  1 14  1  0
  2 15  1  0
  4 16  1  0
  7 17  1  0
  7 18  1  0
  7 19  1  0
M  END
>  <filename_input>  (1) 
6YQW_82I_docked.sdf

>  <pdb_id>  (1) 
6YQW_82I

>  <pose_rank>  (1) 
0

>  <num_atoms_heavy>  (1) 
11

>  <num_torsions>  (1) 
1

>  <pose>  (1) 
[0.7292518198207858, 13.691577937202798, 10.368801098050039, 3.8324832762117444, -3.3035287477382442, 3.557944922987967, -6.384706659748509]

>  <energy>  (1) 
-791.8504252246399

>  <inter_energy>  (1) 
-780.5185367804208

>  <intra_energy>  (1) 
0.0

>  <rmsd>  (1) 
0.262532

>  <sdf_rank>  (1) 
0

$$$$

     RDKit          3D

 19 19  0  0  0  0  0  0  0  0999 V2000
   -1.5506   11.5543    8.3366 C   0  0  0  0  0  0  0  0  0  0  0  0
   -0.7837   12.7624    8.6271 N   0  0  0  0  0  0  0  0  0  0  0  0
   -0.5835   13.2018    9.8649 C   0  0  0  0  0  0  0  0  0  0  0  0
    0.7394   13.5935   10.3478 C   0  0  0  0  0  0  0  0  0  0  0  0
    0.9893   14.0692   11.5428 N   0  0  0  0  0  0  0  0  0  0  0  0
   -0.0511   14.1434   12.4346 N   0  0  0  0  0  0  0  0  0  0  0  0
    0.3425   14.6141   13.7482 C   0  0  0  0  0  0  0  0  0  0  0  0
   -1.3872   13.7905   12.1850 C   0  0  0  0  0  0  0  0  0  0  0  0
   -2.2762   13.9003   13.0530 O   0  0  0  0  0  0  0  0  0  0  0  0
   -1.6088   13.3392   10.8282 C   0  0  0  0  0  0  0  0  0  0  0  0
   -3.2418   12.9282   10.4780 Cl  0  0  0  0  0  0  0  0  0  0  0  0
   -1.8537   11.0768    9.2801 H   0  0  0  0  0  0  0  0  0  0  0  0
   -2.4462   11.8194    7.7555 H   0  0  0  0  0  0  0  0  0  0  0  0
   -0.9296   10.8567    7.7555 H   0  0  0  0  0  0  0  0  0  0  0  0
   -0.3823   13.2946    7.8419 H   0  0  0  0  0  0  0  0  0  0  0  0
    1.5879   13.4807    9.6569 H   0  0  0  0  0  0  0  0  0  0  0  0
   -0.1607   14.0123   14.5193 H   0  0  0  0  0  0  0  0  0  0  0  0
    1.4325   14.5174   13.8609 H   0  0  0  0  0  0  0  0  0  0  0  0
    0.0545   15.6697   13.8609 H   0  0  0  0  0  0  0  0  0  0  0  0
  1  2  1  0
  2  3  1  0
  3  4  1  0
  3 10  2  0
  4  5  2  0
  5  6  1  0
  6  7  1  0
  6  8  1  0
  8  9  2  0
  8 10  1  0
 10 11  1  0
  1 12  1  0
  1 13  1  0
  1 14  1  0
  2 15  1  0
  4 16  1  0
  7 17  1  0
  7 18  1  0
  7 19  1  0
M  END
>  <filename_input>  (2) 
6YQW_82I_docked.sdf

>  <pdb_id>  (2) 
6YQW_82I

>  <pose_rank>  (2) 
1

>  <num_atoms_heavy>  (2) 
11

>  <num_torsions>  (2) 
1

>  <pose>  (2) 
[-0.5834943541340956, 13.201798735671746, 9.86488343914306, -0.31473643815674385, 0.5993853330770711, -0.3237444432747929, 1.9664687219309327]

>  <energy>  (2) 
-470.1533500182254

>  <inter_energy>  (2) 
-477.23648477383193

>  <intra_energy>  (2) 
12.477123464502116

>  <rmsd>  (2) 
2.06548

>  <sdf_rank>  (2) 
0

$$$$

     RDKit          3D

 19 19  0  0  0  0  0  0  0  0999 V2000
    2.8825   11.9274    9.2917 C   0  0  0  0  0  0  0  0  0  0  0  0
    1.4270   12.0104    9.3742 N   0  0  0  0  0  0  0  0  0  0  0  0
    0.7994   12.5486   10.4142 C   0  0  0  0  0  0  0  0  0  0  0  0
    1.5204   13.1882   11.5133 C   0  0  0  0  0  0  0  0  0  0  0  0
    0.9541   13.7679   12.5427 N   0  0  0  0  0  0  0  0  0  0  0  0
   -0.4139   13.7147   12.6372 N   0  0  0  0  0  0  0  0  0  0  0  0
   -0.9365   14.3211   13.8460 C   0  0  0  0  0  0  0  0  0  0  0  0
   -1.2891   13.1246   11.7111 C   0  0  0  0  0  0  0  0  0  0  0  0
   -2.5263   13.1309   11.8695 O   0  0  0  0  0  0  0  0  0  0  0  0
   -0.6059   12.5642   10.5652 C   0  0  0  0  0  0  0  0  0  0  0  0
   -1.6508   11.8604    9.3942 Cl  0  0  0  0  0  0  0  0  0  0  0  0
    3.3064   11.9032   10.3064 H   0  0  0  0  0  0  0  0  0  0  0  0
    3.1675   11.0115    8.7533 H   0  0  0  0  0  0  0  0  0  0  0  0
    3.2699   12.8049    8.7533 H   0  0  0  0  0  0  0  0  0  0  0  0
    0.8651   11.6373    8.5958 H   0  0  0  0  0  0  0  0  0  0  0  0
    2.6196   13.1823   11.4730 H   0  0  0  0  0  0  0  0  0  0  0  0
   -0.5042   13.8195   14.7243 H   0  0  0  0  0  0  0  0  0  0  0  0
   -0.6707   15.3883   13.8654 H   0  0  0  0  0  0  0  0  0  0  0  0
   -2.0313   14.2155   13.8654 H   0  0  0  0  0  0  0  0  0  0  0  0
  1  2  1  0
  2  3  1  0
  3  4  1  0
  3 10  2  0
  4  5  2  0
  5  6  1  0
  6  7  1  0
  6  8  1  0
  8  9  2  0
  8 10  1  0
 10 11  1  0
  1 12  1  0
  1 13  1  0
  1 14  1  0
  2 15  1  0
  4 16  1  0
  7 17  1  0
  7 18  1  0
  7 19  1  0
M  END
>  <filename_input>  (3) 
6YQW_82I_docked.sdf

>  <pdb_id>  (3) 
6YQW_82I

>  <pose_rank>  (3) 
2

>  <num_atoms_heavy>  (3) 
11

>  <num_torsions>  (3) 
1

>  <pose>  (3) 
[0.7994046980457399, 12.548607248200168, 10.414236528840371, 4.346798383166648, 0.8752475073176317, 3.783749764345795, -0.25507982555670683]

>  <energy>  (3) 
-542.8794449792689

>  <inter_energy>  (3) 
-533.3338263535422

>  <intra_energy>  (3) 
0.0

>  <rmsd>  (3) 
1.04656

>  <sdf_rank>  (3) 
0

$$$$

     RDKit          3D

 19 19  0  0  0  0  0  0  0  0999 V2000
   -0.0408   14.8591   14.4709 C   0  0  0  0  0  0  0  0  0  0  0  0
    0.7920   14.4268   13.3522 N   0  0  0  0  0  0  0  0  0  0  0  0
    0.2855   13.8720   12.2563 C   0  0  0  0  0  0  0  0  0  0  0  0
    0.9881   13.8969   10.9748 C   0  0  0  0  0  0  0  0  0  0  0  0
    0.5559   13.3344    9.8732 N   0  0  0  0  0  0  0  0  0  0  0  0
   -0.6782   12.7349    9.9001 N   0  0  0  0  0  0  0  0  0  0  0  0
   -1.0954   12.2067    8.6160 C   0  0  0  0  0  0  0  0  0  0  0  0
   -1.5266   12.6276   11.0140 C   0  0  0  0  0  0  0  0  0  0  0  0
   -2.6324   12.0538   10.9537 O   0  0  0  0  0  0  0  0  0  0  0  0
   -0.9611   13.2071   12.2133 C   0  0  0  0  0  0  0  0  0  0  0  0
   -1.9609   13.0654   13.6057 Cl  0  0  0  0  0  0  0  0  0  0  0  0
    0.4553   14.6016   15.4183 H   0  0  0  0  0  0  0  0  0  0  0  0
   -0.1888   15.9478   14.4186 H   0  0  0  0  0  0  0  0  0  0  0  0
   -1.0164   14.3535   14.4186 H   0  0  0  0  0  0  0  0  0  0  0  0
    1.8118   14.5570   13.4151 H   0  0  0  0  0  0  0  0  0  0  0  0
    1.9509   14.4272   10.9320 H   0  0  0  0  0  0  0  0  0  0  0  0
   -1.7702   11.3523    8.7727 H   0  0  0  0  0  0  0  0  0  0  0  0
   -1.6211   12.9902    8.0505 H   0  0  0  0  0  0  0  0  0  0  0  0
   -0.2114   11.8769    8.0505 H   0  0  0  0  0  0  0  0  0  0  0  0
  1  2  1  0
  2  3  1  0
  3  4  1  0
  3 10  2  0
  4  5  2  0
  5  6  1  0
  6  7  1  0
  6  8  1  0
  8  9  2  0
  8 10  1  0
 10 11  1  0
  1 12  1  0
  1 13  1  0
  1 14  1  0
  2 15  1  0
  4 16  1  0
  7 17  1  0
  7 18  1  0
  7 19  1  0
M  END
>  <filename_input>  (4) 
6YQW_82I_docked.sdf

>  <pdb_id>  (4) 
6YQW_82I

>  <pose_rank>  (4) 
3

>  <num_atoms_heavy>  (4) 
11

>  <num_torsions>  (4) 
1

>  <pose>  (4) 
[0.2855093870668168, 13.87199393178922, 12.256327613079444, -2.9581151967723067, -1.269661898753891, 0.13614583747164039, 2.396342302456836]

>  <energy>  (4) 
-393.4531040640423

>  <inter_energy>  (4) 
-418.3964081467462

>  <intra_energy>  (4) 
26.15375648563076

>  <rmsd>  (4) 
3.53001

>  <sdf_rank>  (4) 
0

$$$$

     RDKit          3D

 19 19  0  0  0  0  0  0  0  0999 V2000
    2.4908   12.5192    9.1234 C   0  0  0  0  0  0  0  0  0  0  0  0
    1.4959   13.5640    9.3481 N   0  0  0  0  0  0  0  0  0  0  0  0
    0.8245   13.6785   10.4889 C   0  0  0  0  0  0  0  0  0  0  0  0
    1.4320   14.2317   11.6979 C   0  0  0  0  0  0  0  0  0  0  0  0
    0.8084   14.4038   12.8373 N   0  0  0  0  0  0  0  0  0  0  0  0
   -0.4909   13.9721   12.9297 N   0  0  0  0  0  0  0  0  0  0  0  0
   -1.0668   14.1418   14.2493 C   0  0  0  0  0  0  0  0  0  0  0  0
   -1.2479   13.3872   11.9016 C   0  0  0  0  0  0  0  0  0  0  0  0
   -2.4319   13.0320   12.0686 O   0  0  0  0  0  0  0  0  0  0  0  0
   -0.5245   13.2894   10.6523 C   0  0  0  0  0  0  0  0  0  0  0  0
   -1.4329   12.6059    9.3615 Cl  0  0  0  0  0  0  0  0  0  0  0  0
    2.8507   12.1413   10.0917 H   0  0  0  0  0  0  0  0  0  0  0  0
    2.0352   11.6953    8.5546 H   0  0  0  0  0  0  0  0  0  0  0  0
    3.3360   12.9340    8.5546 H   0  0  0  0  0  0  0  0  0  0  0  0
    1.3072   14.2385    8.5929 H   0  0  0  0  0  0  0  0  0  0  0  0
    2.4909   14.5252   11.6474 H   0  0  0  0  0  0  0  0  0  0  0  0
   -0.3070   13.9179   15.0125 H   0  0  0  0  0  0  0  0  0  0  0  0
   -1.4113   15.1797   14.3682 H   0  0  0  0  0  0  0  0  0  0  0  0
   -1.9191   13.4567   14.3682 H   0  0  0  0  0  0  0  0  0  0  0  0
  1  2  1  0
  2  3  1  0
  3  4  1  0
  3 10  2  0
  4  5  2  0
  5  6  1  0
  6  7  1  0
  6  8  1  0
  8  9  2  0
  8 10  1  0
 10 11  1  0
  1 12  1  0
  1 13  1  0
  1 14  1  0
  2 15  1  0
  4 16  1  0
  7 17  1  0
  7 18  1  0
  7 19  1  0
M  END
>  <filename_input>  (5) 
6YQW_82I_docked.sdf

>  <pdb_id>  (5) 
6YQW_82I

>  <pose_rank>  (5) 
4

>  <num_atoms_heavy>  (5) 
11

>  <num_torsions>  (5) 
1

>  <pose>  (5) 
[0.824482149413484, 13.67854556651081, 10.488915068668213, -0.10782846912016698, -0.039499136447488745, -0.03190526849077679, -5.290806512861135]

>  <energy>  (5) 
-744.3569824048338

>  <inter_energy>  (5) 
-738.2314646439514

>  <intra_energy>  (5) 
0.0

>  <rmsd>  (5) 
0.482851

>  <sdf_rank>  (5) 
0

$$$$

     RDKit          3D

 19 19  0  0  0  0  0  0  0  0999 V2000
    2.4511   13.4905    8.7032 C   0  0  0  0  0  0  0  0  0  0  0  0
    1.2400   14.0849    9.2617 N   0  0  0  0  0  0  0  0  0  0  0  0
    0.6766   13.6421   10.3805 C   0  0  0  0  0  0  0  0  0  0  0  0
    1.2696   13.8748   11.6961 C   0  0  0  0  0  0  0  0  0  0  0  0
    0.7402   13.4960   12.8332 N   0  0  0  0  0  0  0  0  0  0  0  0
   -0.4216   12.7671   12.7892 N   0  0  0  0  0  0  0  0  0  0  0  0
   -0.8863   12.3358   14.0930 C   0  0  0  0  0  0  0  0  0  0  0  0
   -1.1352   12.4086   11.6341 C   0  0  0  0  0  0  0  0  0  0  0  0
   -2.1938   11.7509   11.6849 O   0  0  0  0  0  0  0  0  0  0  0  0
   -0.5356   12.9160   10.4188 C   0  0  0  0  0  0  0  0  0  0  0  0
   -1.4014   12.5221    8.9858 Cl  0  0  0  0  0  0  0  0  0  0  0  0
    3.1113   13.1664    9.5212 H   0  0  0  0  0  0  0  0  0  0  0  0
    2.1814   12.6223    8.0838 H   0  0  0  0  0  0  0  0  0  0  0  0
    2.9729   14.2348    8.0838 H   0  0  0  0  0  0  0  0  0  0  0  0
    0.8057   14.8785    8.7692 H   0  0  0  0  0  0  0  0  0  0  0  0
    2.2314   14.4072   11.7343 H   0  0  0  0  0  0  0  0  0  0  0  0
   -0.3202   12.8612   14.8763 H   0  0  0  0  0  0  0  0  0  0  0  0
   -1.9566   12.5677   14.1960 H   0  0  0  0  0  0  0  0  0  0  0  0
   -0.7346   11.2512   14.1960 H   0  0  0  0  0  0  0  0  0  0  0  0
  1  2  1  0
  2  3  1  0
  3  4  1  0
  3 10  2  0
  4  5  2  0
  5  6  1  0
  6  7  1  0
  6  8  1  0
  8  9  2  0
  8 10  1  0
 10 11  1  0
  1 12  1  0
  1 13  1  0
  1 14  1  0
  2 15  1  0
  4 16  1  0
  7 17  1  0
  7 18  1  0
  7 19  1  0
M  END
>  <filename_input>  (6) 
6YQW_82I_docked.sdf

>  <pdb_id>  (6) 
6YQW_82I

>  <pose_rank>  (6) 
5

>  <num_atoms_heavy>  (6) 
11

>  <num_torsions>  (6) 
1

>  <pose>  (6) 
[0.6765870596306116, 13.642073375143875, 10.38047986275013, 5.251520989987714, 0.3039789155102465, 3.9937635829319684, 0.9308071863238317]

>  <energy>  (6) 
-536.3173108423234

>  <inter_energy>  (6) 
-524.2481947459779

>  <intra_energy>  (6) 
0.0

>  <rmsd>  (6) 
0.786289

>  <sdf_rank>  (6) 
0

$$$$

     RDKit          3D

 19 19  0  0  0  0  0  0  0  0999 V2000
   -1.2734   12.8134    8.2686 C   0  0  0  0  0  0  0  0  0  0  0  0
   -0.1500   13.2645    9.0849 N   0  0  0  0  0  0  0  0  0  0  0  0
   -0.2581   13.4847   10.3907 C   0  0  0  0  0  0  0  0  0  0  0  0
    0.8312   14.0622   11.1759 C   0  0  0  0  0  0  0  0  0  0  0  0
    0.7676   14.3366   12.4555 N   0  0  0  0  0  0  0  0  0  0  0  0
   -0.3786   13.9964   13.1288 N   0  0  0  0  0  0  0  0  0  0  0  0
   -0.3215   14.2753   14.5504 C   0  0  0  0  0  0  0  0  0  0  0  0
   -1.5257   13.4070   12.5731 C   0  0  0  0  0  0  0  0  0  0  0  0
   -2.5331   13.1395   13.2582 O   0  0  0  0  0  0  0  0  0  0  0  0
   -1.4170   13.1940   11.1460 C   0  0  0  0  0  0  0  0  0  0  0  0
   -2.8175   12.5019   10.4262 Cl  0  0  0  0  0  0  0  0  0  0  0  0
   -2.0937   12.4841    8.9234 H   0  0  0  0  0  0  0  0  0  0  0  0
   -1.6211   13.6417    7.6336 H   0  0  0  0  0  0  0  0  0  0  0  0
   -0.9519   11.9747    7.6336 H   0  0  0  0  0  0  0  0  0  0  0  0
    0.7617   13.4178    8.6309 H   0  0  0  0  0  0  0  0  0  0  0  0
    1.7741   14.2826   10.6540 H   0  0  0  0  0  0  0  0  0  0  0  0
   -0.5111   13.3495   15.1136 H   0  0  0  0  0  0  0  0  0  0  0  0
    0.6748   14.6638   14.8082 H   0  0  0  0  0  0  0  0  0  0  0  0
   -1.0850   15.0240   14.8082 H   0  0  0  0  0  0  0  0  0  0  0  0
  1  2  1  0
  2  3  1  0
  3  4  1  0
  3 10  2  0
  4  5  2  0
  5  6  1  0
  6  7  1  0
  6  8  1  0
  8  9  2  0
  8 10  1  0
 10 11  1  0
  1 12  1  0
  1 13  1  0
  1 14  1  0
  2 15  1  0
  4 16  1  0
  7 17  1  0
  7 18  1  0
  7 19  1  0
M  END
>  <filename_input>  (7) 
6YQW_82I_docked.sdf

>  <pdb_id>  (7) 
6YQW_82I

>  <pose_rank>  (7) 
6

>  <num_atoms_heavy>  (7) 
11

>  <num_torsions>  (7) 
1

>  <pose>  (7) 
[-0.2581496915560732, 13.484730733125861, 10.390747081646502, -0.18223467906838517, 0.40747367141637636, -0.05803842799743025, 2.9153400487476087]

>  <energy>  (7) 
-545.4286630555675

>  <inter_energy>  (7) 
-576.3883509157292

>  <intra_energy>  (7) 
31.73577564751872

>  <rmsd>  (7) 
1.59153

>  <sdf_rank>  (7) 
0

$$$$

     RDKit          3D

 19 19  0  0  0  0  0  0  0  0999 V2000
    2.0095   12.3143    8.9319 C   0  0  0  0  0  0  0  0  0  0  0  0
    1.5545   13.5834    9.4926 N   0  0  0  0  0  0  0  0  0  0  0  0
    0.8871   13.6602   10.6388 C   0  0  0  0  0  0  0  0  0  0  0  0
    1.5141   14.1225   11.8757 C   0  0  0  0  0  0  0  0  0  0  0  0
    0.8967   14.2551   13.0236 N   0  0  0  0  0  0  0  0  0  0  0  0
   -0.4181   13.8685   13.0937 N   0  0  0  0  0  0  0  0  0  0  0  0
   -0.9883   13.9870   14.4215 C   0  0  0  0  0  0  0  0  0  0  0  0
   -1.1960   13.3702   12.0361 C   0  0  0  0  0  0  0  0  0  0  0  0
   -2.3927   13.0514   12.1847 O   0  0  0  0  0  0  0  0  0  0  0  0
   -0.4759   13.3140   10.7823 C   0  0  0  0  0  0  0  0  0  0  0  0
   -1.4085   12.7375    9.4570 Cl  0  0  0  0  0  0  0  0  0  0  0  0
    2.2582   11.6207    9.7486 H   0  0  0  0  0  0  0  0  0  0  0  0
    1.2111   11.8799    8.3123 H   0  0  0  0  0  0  0  0  0  0  0  0
    2.9020   12.4861    8.3123 H   0  0  0  0  0  0  0  0  0  0  0  0
    1.7589   14.4528    8.9795 H   0  0  0  0  0  0  0  0  0  0  0  0
    2.5835   14.3780   11.8400 H   0  0  0  0  0  0  0  0  0  0  0  0
   -0.2026   13.8237   15.1738 H   0  0  0  0  0  0  0  0  0  0  0  0
   -1.4146   14.9930   14.5490 H   0  0  0  0  0  0  0  0  0  0  0  0
   -1.7802   13.2343   14.5490 H   0  0  0  0  0  0  0  0  0  0  0  0
  1  2  1  0
  2  3  1  0
  3  4  1  0
  3 10  2  0
  4  5  2  0
  5  6  1  0
  6  7  1  0
  6  8  1  0
  8  9  2  0
  8 10  1  0
 10 11  1  0
  1 12  1  0
  1 13  1  0
  1 14  1  0
  2 15  1  0
  4 16  1  0
  7 17  1  0
  7 18  1  0
  7 19  1  0
M  END
>  <filename_input>  (8) 
6YQW_82I_docked.sdf

>  <pdb_id>  (8) 
6YQW_82I

>  <pose_rank>  (8) 
7

>  <num_atoms_heavy>  (8) 
11

>  <num_torsions>  (8) 
1

>  <pose>  (8) 
[0.8870587060179701, 13.660218146014422, 10.638830488919005, -0.05347085450948262, -0.03628693229127805, -0.07081154885314916, 1.4899632780345498]

>  <energy>  (8) 
-717.0311432740638

>  <inter_energy>  (8) 
-724.4475753187535

>  <intra_energy>  (8) 
1.4010999688248134

>  <rmsd>  (8) 
0.6017

>  <sdf_rank>  (8) 
0

$$$$

     RDKit          3D

 19 19  0  0  0  0  0  0  0  0999 V2000
    1.5435   14.3201   14.5864 C   0  0  0  0  0  0  0  0  0  0  0  0
    1.0525   15.0223   13.4042 N   0  0  0  0  0  0  0  0  0  0  0  0
    0.3552   14.4150   12.4501 C   0  0  0  0  0  0  0  0  0  0  0  0
    0.8485   14.2991   11.0789 C   0  0  0  0  0  0  0  0  0  0  0  0
    0.2232   13.6793   10.1086 N   0  0  0  0  0  0  0  0  0  0  0  0
   -1.0177   13.1575   10.3747 N   0  0  0  0  0  0  0  0  0  0  0  0
   -1.6551   12.5568    9.2193 C   0  0  0  0  0  0  0  0  0  0  0  0
   -1.6849   13.1870   11.6101 C   0  0  0  0  0  0  0  0  0  0  0  0
   -2.8118   12.6764   11.7686 O   0  0  0  0  0  0  0  0  0  0  0  0
   -0.9121   13.8234   12.6549 C   0  0  0  0  0  0  0  0  0  0  0  0
   -1.6865   13.8493   14.1905 Cl  0  0  0  0  0  0  0  0  0  0  0  0
    1.1856   14.8319   15.4919 H   0  0  0  0  0  0  0  0  0  0  0  0
    1.1714   13.2850   14.5790 H   0  0  0  0  0  0  0  0  0  0  0  0
    2.6435   14.3144   14.5790 H   0  0  0  0  0  0  0  0  0  0  0  0
    1.2544   16.0276   13.3061 H   0  0  0  0  0  0  0  0  0  0  0  0
    1.8161   14.7668   10.8445 H   0  0  0  0  0  0  0  0  0  0  0  0
   -2.4178   11.8381    9.5537 H   0  0  0  0  0  0  0  0  0  0  0  0
   -2.1316   13.3419    8.6139 H   0  0  0  0  0  0  0  0  0  0  0  0
   -0.8996   12.0347    8.6139 H   0  0  0  0  0  0  0  0  0  0  0  0
  1  2  1  0
  2  3  1  0
  3  4  1  0
  3 10  2  0
  4  5  2  0
  5  6  1  0
  6  7  1  0
  6  8  1  0
  8  9  2  0
  8 10  1  0
 10 11  1  0
  1 12  1  0
  1 13  1  0
  1 14  1  0
  2 15  1  0
  4 16  1  0
  7 17  1  0
  7 18  1  0
  7 19  1  0
M  END
>  <filename_input>  (9) 
6YQW_82I_docked.sdf

>  <pdb_id>  (9) 
6YQW_82I

>  <pose_rank>  (9) 
8

>  <num_atoms_heavy>  (9) 
11

>  <num_torsions>  (9) 
1

>  <pose>  (9) 
[0.35521852544467547, 14.415047168660681, 12.450063118610336, -2.9745356495390265, -1.1952828827434883, 0.4224557460603781, 3.9102056769159876]

>  <energy>  (9) 
-467.959579072249

>  <inter_energy>  (9) 
-449.67517511086254

>  <intra_energy>  (9) 
5.091370389404946

>  <rmsd>  (9) 
3.40583

>  <sdf_rank>  (9) 
0

$$$$

     RDKit          3D

 19 19  0  0  0  0  0  0  0  0999 V2000
   -1.2776   12.0075    8.5873 C   0  0  0  0  0  0  0  0  0  0  0  0
   -0.2573   12.8244    9.2380 N   0  0  0  0  0  0  0  0  0  0  0  0
   -0.3406   13.1911   10.5124 C   0  0  0  0  0  0  0  0  0  0  0  0
    0.7626   13.8537   11.2058 C   0  0  0  0  0  0  0  0  0  0  0  0
    0.7233   14.2712   12.4470 N   0  0  0  0  0  0  0  0  0  0  0  0
   -0.4090   14.0094   13.1768 N   0  0  0  0  0  0  0  0  0  0  0  0
   -0.3249   14.4473   14.5563 C   0  0  0  0  0  0  0  0  0  0  0  0
   -1.5654   13.3609   12.7139 C   0  0  0  0  0  0  0  0  0  0  0  0
   -2.5587   13.1728   13.4444 O   0  0  0  0  0  0  0  0  0  0  0  0
   -1.4840   12.9878   11.3182 C   0  0  0  0  0  0  0  0  0  0  0  0
   -2.8966   12.2187   10.7088 Cl  0  0  0  0  0  0  0  0  0  0  0  0
   -1.8947   11.5134    9.3522 H   0  0  0  0  0  0  0  0  0  0  0  0
   -1.9148   12.6479    7.9596 H   0  0  0  0  0  0  0  0  0  0  0  0
   -0.7921   11.2457    7.9596 H   0  0  0  0  0  0  0  0  0  0  0  0
    0.5586   13.1283    8.6878 H   0  0  0  0  0  0  0  0  0  0  0  0
    1.6946   14.0136   10.6439 H   0  0  0  0  0  0  0  0  0  0  0  0
   -0.4897   13.5889   15.2242 H   0  0  0  0  0  0  0  0  0  0  0  0
    0.6714   14.8733   14.7457 H   0  0  0  0  0  0  0  0  0  0  0  0
   -1.0927   15.2119   14.7457 H   0  0  0  0  0  0  0  0  0  0  0  0
  1  2  1  0
  2  3  1  0
  3  4  1  0
  3 10  2  0
  4  5  2  0
  5  6  1  0
  6  7  1  0
  6  8  1  0
  8  9  2  0
  8 10  1  0
 10 11  1  0
  1 12  1  0
  1 13  1  0
  1 14  1  0
  2 15  1  0
  4 16  1  0
  7 17  1  0
  7 18  1  0
  7 19  1  0
M  END
>  <filename_input>  (10) 
6YQW_82I_docked.sdf

>  <pdb_id>  (10) 
6YQW_82I

>  <pose_rank>  (10) 
9

>  <num_atoms_heavy>  (10) 
11

>  <num_torsions>  (10) 
1

>  <pose>  (10) 
[-0.34056134043360836, 13.191085175235564, 10.512372606702401, -0.29501172776024037, 0.423821650321179, -0.07845559392959116, 2.6603772348655]

>  <energy>  (10) 
-536.9959379387316

>  <inter_energy>  (10) 
-562.9232702249693

>  <intra_energy>  (10) 
31.390678542885418

>  <rmsd>  (10) 
1.7492

>  <sdf_rank>  (10) 
0

$$$$

     RDKit          3D

 19 19  0  0  0  0  0  0  0  0999 V2000
    2.8024   13.5540    9.2562 C   0  0  0  0  0  0  0  0  0  0  0  0
    1.3764   13.2785    9.4070 N   0  0  0  0  0  0  0  0  0  0  0  0
    0.7507   13.3680   10.5757 C   0  0  0  0  0  0  0  0  0  0  0  0
    1.4201   13.8493   11.7827 C   0  0  0  0  0  0  0  0  0  0  0  0
    0.8442   13.9946   12.9505 N   0  0  0  0  0  0  0  0  0  0  0  0
   -0.4655   13.6036   13.0735 N   0  0  0  0  0  0  0  0  0  0  0  0
   -0.9876   13.7375   14.4194 C   0  0  0  0  0  0  0  0  0  0  0  0
   -1.2789   13.0881   12.0514 C   0  0  0  0  0  0  0  0  0  0  0  0
   -2.4680   12.7665   12.2477 O   0  0  0  0  0  0  0  0  0  0  0  0
   -0.6045   13.0181   10.7731 C   0  0  0  0  0  0  0  0  0  0  0  0
   -1.5820   12.4203    9.4903 Cl  0  0  0  0  0  0  0  0  0  0  0  0
    3.2657   13.6435   10.2498 H   0  0  0  0  0  0  0  0  0  0  0  0
    3.2782   12.7312    8.7025 H   0  0  0  0  0  0  0  0  0  0  0  0
    2.9375   14.4948    8.7025 H   0  0  0  0  0  0  0  0  0  0  0  0
    0.8346   13.0043    8.5751 H   0  0  0  0  0  0  0  0  0  0  0  0
    2.4863   14.1086   11.7048 H   0  0  0  0  0  0  0  0  0  0  0  0
   -0.1870   13.5322   15.1453 H   0  0  0  0  0  0  0  0  0  0  0  0
   -1.3628   14.7609   14.5670 H   0  0  0  0  0  0  0  0  0  0  0  0
   -1.8090   13.0209   14.5670 H   0  0  0  0  0  0  0  0  0  0  0  0
  1  2  1  0
  2  3  1  0
  3  4  1  0
  3 10  2  0
  4  5  2  0
  5  6  1  0
  6  7  1  0
  6  8  1  0
  8  9  2  0
  8 10  1  0
 10 11  1  0
  1 12  1  0
  1 13  1  0
  1 14  1  0
  2 15  1  0
  4 16  1  0
  7 17  1  0
  7 18  1  0
  7 19  1  0
M  END
>  <filename_input>  (11) 
6YQW_82I_docked.sdf

>  <pdb_id>  (11) 
6YQW_82I

>  <pose_rank>  (11) 
10

>  <num_atoms_heavy>  (11) 
11

>  <num_torsions>  (11) 
1

>  <pose>  (11) 
[0.7506947756205845, 13.36795527245981, 10.575682269777323, 4.4619343197374475, 0.03634321033051965, 4.288761832500866, -0.25090616157139944]

>  <energy>  (11) 
-681.0371913755483

>  <inter_energy>  (11) 
-671.3196307712492

>  <intra_energy>  (11) 
0.0

>  <rmsd>  (11) 
0.348519

>  <sdf_rank>  (11) 
0

$$$$

     RDKit          3D

 19 19  0  0  0  0  0  0  0  0999 V2000
   -1.6730   13.2663    7.7464 C   0  0  0  0  0  0  0  0  0  0  0  0
   -1.6388   12.1898    8.7323 N   0  0  0  0  0  0  0  0  0  0  0  0
   -1.6078   12.4192   10.0406 C   0  0  0  0  0  0  0  0  0  0  0  0
   -2.6520   11.9341   10.9413 C   0  0  0  0  0  0  0  0  0  0  0  0
   -2.6538   12.0966   12.2413 N   0  0  0  0  0  0  0  0  0  0  0  0
   -1.6392   12.8346   12.7974 N   0  0  0  0  0  0  0  0  0  0  0  0
   -1.7710   13.0164   14.2297 C   0  0  0  0  0  0  0  0  0  0  0  0
   -0.5598   13.4143   12.1112 C   0  0  0  0  0  0  0  0  0  0  0  0
    0.3290   14.0631   12.6984 O   0  0  0  0  0  0  0  0  0  0  0  0
   -0.5798   13.1394   10.6906 C   0  0  0  0  0  0  0  0  0  0  0  0
    0.7460   13.8083    9.8228 Cl  0  0  0  0  0  0  0  0  0  0  0  0
   -1.7039   14.2365    8.2639 H   0  0  0  0  0  0  0  0  0  0  0  0
   -0.7728   13.2152    7.1164 H   0  0  0  0  0  0  0  0  0  0  0  0
   -2.5682   13.1582    7.1164 H   0  0  0  0  0  0  0  0  0  0  0  0
   -1.6386   11.2147    8.4006 H   0  0  0  0  0  0  0  0  0  0  0  0
   -3.4988   11.3925   10.4945 H   0  0  0  0  0  0  0  0  0  0  0  0
   -1.2030   12.2328   14.7526 H   0  0  0  0  0  0  0  0  0  0  0  0
   -1.3779   14.0043   14.5117 H   0  0  0  0  0  0  0  0  0  0  0  0
   -2.8322   12.9500   14.5117 H   0  0  0  0  0  0  0  0  0  0  0  0
  1  2  1  0
  2  3  1  0
  3  4  1  0
  3 10  2  0
  4  5  2  0
  5  6  1  0
  6  7  1  0
  6  8  1  0
  8  9  2  0
  8 10  1  0
 10 11  1  0
  1 12  1  0
  1 13  1  0
  1 14  1  0
  2 15  1  0
  4 16  1  0
  7 17  1  0
  7 18  1  0
  7 19  1  0
M  END
>  <filename_input>  (12) 
6YQW_82I_docked.sdf

>  <pdb_id>  (12) 
6YQW_82I

>  <pose_rank>  (12) 
11

>  <num_atoms_heavy>  (12) 
11

>  <num_torsions>  (12) 
1

>  <pose>  (12) 
[-1.6078363921614043, 12.41918828300839, 10.040626206462742, 0.6626516271515291, -0.15720129681118225, -2.8765513925901263, 1.760254379071218]

>  <energy>  (12) 
-398.25054728904473

>  <inter_energy>  (12) 
-404.51142055707305

>  <intra_energy>  (12) 
6.523989988579326

>  <rmsd>  (12) 
2.9678

>  <sdf_rank>  (12) 
0

$$$$

     RDKit          3D

 19 19  0  0  0  0  0  0  0  0999 V2000
   -1.1727   11.6234    8.3897 C   0  0  0  0  0  0  0  0  0  0  0  0
   -0.3145   12.6438    8.9848 N   0  0  0  0  0  0  0  0  0  0  0  0
   -0.4155   13.0093   10.2582 C   0  0  0  0  0  0  0  0  0  0  0  0
    0.6869   13.6477   10.9750 C   0  0  0  0  0  0  0  0  0  0  0  0
    0.6314   14.0632   12.2163 N   0  0  0  0  0  0  0  0  0  0  0  0
   -0.5202   13.8230   12.9228 N   0  0  0  0  0  0  0  0  0  0  0  0
   -0.4547   14.2561   14.3049 C   0  0  0  0  0  0  0  0  0  0  0  0
   -1.6801   13.1991   12.4354 C   0  0  0  0  0  0  0  0  0  0  0  0
   -2.6914   13.0297   13.1456 O   0  0  0  0  0  0  0  0  0  0  0  0
   -1.5786   12.8275   11.0406 C   0  0  0  0  0  0  0  0  0  0  0  0
   -2.9942   12.0887   10.4014 Cl  0  0  0  0  0  0  0  0  0  0  0  0
   -1.6603   11.0437    9.1874 H   0  0  0  0  0  0  0  0  0  0  0  0
   -1.9396   12.1070    7.7668 H   0  0  0  0  0  0  0  0  0  0  0  0
   -0.5649   10.9507    7.7668 H   0  0  0  0  0  0  0  0  0  0  0  0
    0.3970   13.0979    8.3944 H   0  0  0  0  0  0  0  0  0  0  0  0
    1.6330   13.7898   10.4321 H   0  0  0  0  0  0  0  0  0  0  0  0
   -0.5860   13.3881   14.9678 H   0  0  0  0  0  0  0  0  0  0  0  0
    0.5238   14.7200   14.4978 H   0  0  0  0  0  0  0  0  0  0  0  0
   -1.2523   14.9887   14.4978 H   0  0  0  0  0  0  0  0  0  0  0  0
  1  2  1  0
  2  3  1  0
  3  4  1  0
  3 10  2  0
  4  5  2  0
  5  6  1  0
  6  7  1  0
  6  8  1  0
  8  9  2  0
  8 10  1  0
 10 11  1  0
  1 12  1  0
  1 13  1  0
  1 14  1  0
  2 15  1  0
  4 16  1  0
  7 17  1  0
  7 18  1  0
  7 19  1  0
M  END
>  <filename_input>  (13) 
6YQW_82I_docked.sdf

>  <pdb_id>  (13) 
6YQW_82I

>  <pose_rank>  (13) 
12

>  <num_atoms_heavy>  (13) 
11

>  <num_torsions>  (13) 
1

>  <pose>  (13) 
[-0.41551226369509503, 13.009260020819049, 10.258173913546134, -0.28738423628599086, 0.40723451800971733, -0.10069290756528784, 2.4237722366653376]

>  <energy>  (13) 
-545.7680097064035

>  <inter_energy>  (13) 
-562.1392258593291

>  <intra_energy>  (13) 
26.881905557809297

>  <rmsd>  (13) 
1.76282

>  <sdf_rank>  (13) 
0

$$$$

     RDKit          3D

 19 19  0  0  0  0  0  0  0  0999 V2000
    3.1050   13.1328   10.3803 C   0  0  0  0  0  0  0  0  0  0  0  0
    1.8541   13.8842   10.3296 N   0  0  0  0  0  0  0  0  0  0  0  0
    0.8302   13.6234   11.1350 C   0  0  0  0  0  0  0  0  0  0  0  0
    0.8401   13.9882   12.5505 C   0  0  0  0  0  0  0  0  0  0  0  0
   -0.1538   13.7911   13.3811 N   0  0  0  0  0  0  0  0  0  0  0  0
   -1.2622   13.1326   12.9111 N   0  0  0  0  0  0  0  0  0  0  0  0
   -2.2732   12.9012   13.9242 C   0  0  0  0  0  0  0  0  0  0  0  0
   -1.4617   12.6711   11.5999 C   0  0  0  0  0  0  0  0  0  0  0  0
   -2.5090   12.0893   11.2529 O   0  0  0  0  0  0  0  0  0  0  0  0
   -0.3578   12.9813   10.7173 C   0  0  0  0  0  0  0  0  0  0  0  0
   -0.5822   12.4580    9.0943 Cl  0  0  0  0  0  0  0  0  0  0  0  0
    3.3882   12.9627   11.4295 H   0  0  0  0  0  0  0  0  0  0  0  0
    2.9721   12.1649    9.8748 H   0  0  0  0  0  0  0  0  0  0  0  0
    3.8971   13.7047    9.8748 H   0  0  0  0  0  0  0  0  0  0  0  0
    1.7620   14.6462    9.6426 H   0  0  0  0  0  0  0  0  0  0  0  0
    1.7493   14.4632   12.9477 H   0  0  0  0  0  0  0  0  0  0  0  0
   -1.8225   13.0044   14.9223 H   0  0  0  0  0  0  0  0  0  0  0  0
   -3.0825   13.6373   13.8094 H   0  0  0  0  0  0  0  0  0  0  0  0
   -2.6816   11.8863   13.8094 H   0  0  0  0  0  0  0  0  0  0  0  0
  1  2  1  0
  2  3  1  0
  3  4  1  0
  3 10  2  0
  4  5  2  0
  5  6  1  0
  6  7  1  0
  6  8  1  0
  8  9  2  0
  8 10  1  0
 10 11  1  0
  1 12  1  0
  1 13  1  0
  1 14  1  0
  2 15  1  0
  4 16  1  0
  7 17  1  0
  7 18  1  0
  7 19  1  0
M  END
>  <filename_input>  (14) 
6YQW_82I_docked.sdf

>  <pdb_id>  (14) 
6YQW_82I

>  <pose_rank>  (14) 
13

>  <num_atoms_heavy>  (14) 
11

>  <num_torsions>  (14) 
1

>  <pose>  (14) 
[0.8301805048134652, 13.62337636745483, 11.135027399318334, 0.095463401537753, -0.41818343813272313, 0.15930737914449106, 0.954697923508939]

>  <energy>  (14) 
-459.87337811601856

>  <inter_energy>  (14) 
-461.3431718631409

>  <intra_energy>  (14) 
0.0

>  <rmsd>  (14) 
1.06317

>  <sdf_rank>  (14) 
0

$$$$

     RDKit          3D

 19 19  0  0  0  0  0  0  0  0999 V2000
   -2.8571   10.3975    9.6255 C   0  0  0  0  0  0  0  0  0  0  0  0
   -3.2108   11.3638   10.6614 N   0  0  0  0  0  0  0  0  0  0  0  0
   -2.2983   12.0546   11.3364 C   0  0  0  0  0  0  0  0  0  0  0  0
   -2.2355   12.0427   12.7968 C   0  0  0  0  0  0  0  0  0  0  0  0
   -1.3362   12.6720   13.5123 N   0  0  0  0  0  0  0  0  0  0  0  0
   -0.4248   13.4569   12.8519 N   0  0  0  0  0  0  0  0  0  0  0  0
    0.4797   14.1657   13.7360 C   0  0  0  0  0  0  0  0  0  0  0  0
   -0.3303   13.6315   11.4617 C   0  0  0  0  0  0  0  0  0  0  0  0
    0.5398   14.3582   10.9413 O   0  0  0  0  0  0  0  0  0  0  0  0
   -1.3065   12.8563   10.7269 C   0  0  0  0  0  0  0  0  0  0  0  0
   -1.1991   13.0219    9.0182 Cl  0  0  0  0  0  0  0  0  0  0  0  0
   -2.5154    9.4639   10.0963 H   0  0  0  0  0  0  0  0  0  0  0  0
   -3.7382   10.1917    9.0000 H   0  0  0  0  0  0  0  0  0  0  0  0
   -2.0513   10.8090    9.0000 H   0  0  0  0  0  0  0  0  0  0  0  0
   -4.2063   11.5159   10.8774 H   0  0  0  0  0  0  0  0  0  0  0  0
   -2.9998   11.4627   13.3347 H   0  0  0  0  0  0  0  0  0  0  0  0
    0.2107   13.9549   14.7815 H   0  0  0  0  0  0  0  0  0  0  0  0
    1.5113   13.8330   13.5486 H   0  0  0  0  0  0  0  0  0  0  0  0
    0.4034   15.2469   13.5486 H   0  0  0  0  0  0  0  0  0  0  0  0
  1  2  1  0
  2  3  1  0
  3  4  1  0
  3 10  2  0
  4  5  2  0
  5  6  1  0
  6  7  1  0
  6  8  1  0
  8  9  2  0
  8 10  1  0
 10 11  1  0
  1 12  1  0
  1 13  1  0
  1 14  1  0
  2 15  1  0
  4 16  1  0
  7 17  1  0
  7 18  1  0
  7 19  1  0
M  END
>  <filename_input>  (15) 
6YQW_82I_docked.sdf

>  <pdb_id>  (15) 
6YQW_82I

>  <pose_rank>  (15) 
14

>  <num_atoms_heavy>  (15) 
11

>  <num_torsions>  (15) 
1

>  <pose>  (15) 
[-2.2982677511011893, 12.054563639847363, 11.336392261050221, 0.765844816740069, 0.6682795480273944, 3.349111801867608, -2.512064817806347]

>  <energy>  (15) 
-411.6503048727694

>  <inter_energy>  (15) 
-443.8545018223648

>  <intra_energy>  (15) 
8.649179097447963

>  <rmsd>  (15) 
3.38533

>  <sdf_rank>  (15) 
0

$$$$

     RDKit          3D

 19 19  0  0  0  0  0  0  0  0999 V2000
    0.5367   15.9364   15.7952 C   0  0  0  0  0  0  0  0  0  0  0  0
   -0.5227   15.4181   14.9345 N   0  0  0  0  0  0  0  0  0  0  0  0
   -0.2725   14.8095   13.7802 C   0  0  0  0  0  0  0  0  0  0  0  0
    0.9174   15.1068   12.9849 C   0  0  0  0  0  0  0  0  0  0  0  0
    1.2345   14.5119   11.8614 N   0  0  0  0  0  0  0  0  0  0  0  0
    0.3549   13.5895   11.3530 N   0  0  0  0  0  0  0  0  0  0  0  0
    0.7620   13.0426   10.0735 C   0  0  0  0  0  0  0  0  0  0  0  0
   -0.8545   13.1823   11.9393 C   0  0  0  0  0  0  0  0  0  0  0  0
   -1.5924   12.3256   11.4127 O   0  0  0  0  0  0  0  0  0  0  0  0
   -1.1114   13.8250   13.2100 C   0  0  0  0  0  0  0  0  0  0  0  0
   -2.5702   13.3259   13.9722 Cl  0  0  0  0  0  0  0  0  0  0  0  0
    0.2536   15.7979   16.8491 H   0  0  0  0  0  0  0  0  0  0  0  0
    1.4721   15.3941   15.5926 H   0  0  0  0  0  0  0  0  0  0  0  0
    0.6827   17.0076   15.5926 H   0  0  0  0  0  0  0  0  0  0  0  0
   -1.5021   15.5286   15.2337 H   0  0  0  0  0  0  0  0  0  0  0  0
    1.5968   15.8877   13.3572 H   0  0  0  0  0  0  0  0  0  0  0  0
    1.4115   12.1701   10.2376 H   0  0  0  0  0  0  0  0  0  0  0  0
   -0.1288   12.7350    9.5060 H   0  0  0  0  0  0  0  0  0  0  0  0
    1.3121   13.8077    9.5060 H   0  0  0  0  0  0  0  0  0  0  0  0
  1  2  1  0
  2  3  1  0
  3  4  1  0
  3 10  2  0
  4  5  2  0
  5  6  1  0
  6  7  1  0
  6  8  1  0
  8  9  2  0
  8 10  1  0
 10 11  1  0
  1 12  1  0
  1 13  1  0
  1 14  1  0
  2 15  1  0
  4 16  1  0
  7 17  1  0
  7 18  1  0
  7 19  1  0
M  END
>  <filename_input>  (16) 
6YQW_82I_docked.sdf

>  <pdb_id>  (16) 
6YQW_82I

>  <pose_rank>  (16) 
15

>  <num_atoms_heavy>  (16) 
11

>  <num_torsions>  (16) 
1

>  <pose>  (16) 
[-0.272486961691839, 14.809480746320297, 13.780215292483547, -2.892479924695797, -1.7381639621578862, -0.6593883372171955, 5.456271563032718]

>  <energy>  (16) 
-395.2360074670369

>  <inter_energy>  (16) 
-392.5536516959726

>  <intra_energy>  (16) 
0.0

>  <rmsd>  (16) 
3.88656

>  <sdf_rank>  (16) 
0

$$$$

     RDKit          3D

 19 19  0  0  0  0  0  0  0  0999 V2000
   -1.4437    5.0761   12.1668 C   0  0  0  0  0  0  0  0  0  0  0  0
   -0.9620    4.0993   13.1394 N   0  0  0  0  0  0  0  0  0  0  0  0
    0.2999    4.0656   13.5540 C   0  0  0  0  0  0  0  0  0  0  0  0
    1.4256    4.0456   12.6217 C   0  0  0  0  0  0  0  0  0  0  0  0
    2.6879    4.0512   12.9725 N   0  0  0  0  0  0  0  0  0  0  0  0
    2.9822    4.0030   14.3120 N   0  0  0  0  0  0  0  0  0  0  0  0
    4.4032    3.9404   14.5925 C   0  0  0  0  0  0  0  0  0  0  0  0
    2.0554    3.9843   15.3669 C   0  0  0  0  0  0  0  0  0  0  0  0
    2.4105    3.9513   16.5622 O   0  0  0  0  0  0  0  0  0  0  0  0
    0.6825    4.0499   14.9146 C   0  0  0  0  0  0  0  0  0  0  0  0
   -0.4795    4.0609   16.1827 Cl  0  0  0  0  0  0  0  0  0  0  0  0
   -1.8701    5.9409   12.6962 H   0  0  0  0  0  0  0  0  0  0  0  0
   -0.6064    5.4088   11.5358 H   0  0  0  0  0  0  0  0  0  0  0  0
   -2.2174    4.6144   11.5358 H   0  0  0  0  0  0  0  0  0  0  0  0
   -1.6263    3.4096   13.5188 H   0  0  0  0  0  0  0  0  0  0  0  0
    1.1959    4.0244   11.5462 H   0  0  0  0  0  0  0  0  0  0  0  0
    4.5621    3.9334   15.6810 H   0  0  0  0  0  0  0  0  0  0  0  0
    4.8234    3.0229   14.1548 H   0  0  0  0  0  0  0  0  0  0  0  0
    4.9024    4.8174   14.1548 H   0  0  0  0  0  0  0  0  0  0  0  0
  1  2  1  0
  2  3  1  0
  3  4  1  0
  3 10  2  0
  4  5  2  0
  5  6  1  0
  6  7  1  0
  6  8  1  0
  8  9  2  0
  8 10  1  0
 10 11  1  0
  1 12  1  0
  1 13  1  0
  1 14  1  0
  2 15  1  0
  4 16  1  0
  7 17  1  0
  7 18  1  0
  7 19  1  0
M  END
>  <filename_input>  (17) 
6YQW_82I_docked.sdf

>  <pdb_id>  (17) 
6YQW_82I

>  <pose_rank>  (17) 
16

>  <num_atoms_heavy>  (17) 
11

>  <num_torsions>  (17) 
1

>  <pose>  (17) 
[0.29985138720678867, 4.065579205176415, 13.553955977335937, 0.40079926751827766, -4.364276315201223, 1.0166663150487822, -1.226297489869061]

>  <energy>  (17) 
-183.06010639623923

>  <inter_energy>  (17) 
-157.9096757082078

>  <intra_energy>  (17) 
0.0

>  <rmsd>  (17) 
10.5807

>  <sdf_rank>  (17) 
0

$$$$

     RDKit          3D

 19 19  0  0  0  0  0  0  0  0999 V2000
    3.4254    5.4272   21.3493 C   0  0  0  0  0  0  0  0  0  0  0  0
    4.3912    5.4504   20.2544 N   0  0  0  0  0  0  0  0  0  0  0  0
    5.5355    6.1220   20.3245 C   0  0  0  0  0  0  0  0  0  0  0  0
    5.6735    7.3452   21.1128 C   0  0  0  0  0  0  0  0  0  0  0  0
    6.7846    8.0261   21.2493 N   0  0  0  0  0  0  0  0  0  0  0  0
    7.8864    7.6040   20.5486 N   0  0  0  0  0  0  0  0  0  0  0  0
    9.0422    8.4640   20.7108 C   0  0  0  0  0  0  0  0  0  0  0  0
    7.9595    6.4774   19.7135 C   0  0  0  0  0  0  0  0  0  0  0  0
    9.0089    6.1577   19.1200 O   0  0  0  0  0  0  0  0  0  0  0  0
    6.7207    5.7314   19.6608 C   0  0  0  0  0  0  0  0  0  0  0  0
    6.7838    4.3261   18.6710 Cl  0  0  0  0  0  0  0  0  0  0  0  0
    3.9604    5.4401   22.3104 H   0  0  0  0  0  0  0  0  0  0  0  0
    2.7726    6.3099   21.2812 H   0  0  0  0  0  0  0  0  0  0  0  0
    2.8158    4.5141   21.2812 H   0  0  0  0  0  0  0  0  0  0  0  0
    4.1770    4.9258   19.3943 H   0  0  0  0  0  0  0  0  0  0  0  0
    4.7785    7.7219   21.6295 H   0  0  0  0  0  0  0  0  0  0  0  0
    9.2415    8.6123   21.7824 H   0  0  0  0  0  0  0  0  0  0  0  0
    9.9172    7.9956   20.2365 H   0  0  0  0  0  0  0  0  0  0  0  0
    8.8450    9.4367   20.2365 H   0  0  0  0  0  0  0  0  0  0  0  0
  1  2  1  0
  2  3  1  0
  3  4  1  0
  3 10  2  0
  4  5  2  0
  5  6  1  0
  6  7  1  0
  6  8  1  0
  8  9  2  0
  8 10  1  0
 10 11  1  0
  1 12  1  0
  1 13  1  0
  1 14  1  0
  2 15  1  0
  4 16  1  0
  7 17  1  0
  7 18  1  0
  7 19  1  0
M  END
>  <filename_input>  (18) 
6YQW_82I_docked.sdf

>  <pdb_id>  (18) 
6YQW_82I

>  <pose_rank>  (18) 
17

>  <num_atoms_heavy>  (18) 
11

>  <num_torsions>  (18) 
1

>  <pose>  (18) 
[5.535452781459472, 6.121978797383505, 20.324538577523725, 0.6887682563383017, 1.704537349930466, 2.1959605003347806, -0.8655985342977683]

>  <energy>  (18) 
-150.64290918375767

>  <inter_energy>  (18) 
-103.88279541174

>  <intra_energy>  (18) 
0.0

>  <rmsd>  (18) 
13.7921

>  <sdf_rank>  (18) 
0

$$$$

     RDKit          3D

 19 19  0  0  0  0  0  0  0  0999 V2000
   -1.7572   20.5419    1.6880 C   0  0  0  0  0  0  0  0  0  0  0  0
   -2.6528   19.6949    2.4706 N   0  0  0  0  0  0  0  0  0  0  0  0
   -3.8400   20.1120    2.8971 C   0  0  0  0  0  0  0  0  0  0  0  0
   -5.0311   20.0682    2.0509 C   0  0  0  0  0  0  0  0  0  0  0  0
   -6.2322   20.4290    2.4300 N   0  0  0  0  0  0  0  0  0  0  0  0
   -6.3776   20.9516    3.6905 N   0  0  0  0  0  0  0  0  0  0  0  0
   -7.7287   21.3859    3.9869 C   0  0  0  0  0  0  0  0  0  0  0  0
   -5.3620   21.1099    4.6474 C   0  0  0  0  0  0  0  0  0  0  0  0
   -5.5840   21.5857    5.7788 O   0  0  0  0  0  0  0  0  0  0  0  0
   -4.0757   20.6290    4.1914 C   0  0  0  0  0  0  0  0  0  0  0  0
   -2.8140   20.7785    5.3508 Cl  0  0  0  0  0  0  0  0  0  0  0  0
   -1.1284   21.1365    2.3670 H   0  0  0  0  0  0  0  0  0  0  0  0
   -1.1171   19.9110    1.0537 H   0  0  0  0  0  0  0  0  0  0  0  0
   -2.3513   21.2162    1.0537 H   0  0  0  0  0  0  0  0  0  0  0  0
   -2.3526   18.7370    2.7009 H   0  0  0  0  0  0  0  0  0  0  0  0
   -4.9100   19.7055    1.0194 H   0  0  0  0  0  0  0  0  0  0  0  0
   -7.8686   21.4308    5.0770 H   0  0  0  0  0  0  0  0  0  0  0  0
   -7.8965   22.3832    3.5542 H   0  0  0  0  0  0  0  0  0  0  0  0
   -8.4462   20.6731    3.5542 H   0  0  0  0  0  0  0  0  0  0  0  0
  1  2  1  0
  2  3  1  0
  3  4  1  0
  3 10  2  0
  4  5  2  0
  5  6  1  0
  6  7  1  0
  6  8  1  0
  8  9  2  0
  8 10  1  0
 10 11  1  0
  1 12  1  0
  1 13  1  0
  1 14  1  0
  2 15  1  0
  4 16  1  0
  7 17  1  0
  7 18  1  0
  7 19  1  0
M  END
>  <filename_input>  (19) 
6YQW_82I_docked.sdf

>  <pdb_id>  (19) 
6YQW_82I

>  <pose_rank>  (19) 
18

>  <num_atoms_heavy>  (19) 
11

>  <num_torsions>  (19) 
1

>  <pose>  (19) 
[-3.8400336026927375, 20.111979072946, 2.8971498861343763, 2.558699480205602, -0.3862810951116936, -2.157976244545775, 1.123492321798639]

>  <energy>  (19) 
-139.50131759326575

>  <inter_energy>  (19) 
-120.99204346090286

>  <intra_energy>  (19) 
0.0

>  <rmsd>  (19) 
11.7372

>  <sdf_rank>  (19) 
0

$$$$

     RDKit          3D

 19 19  0  0  0  0  0  0  0  0999 V2000
   -1.8269   20.1836    2.0526 C   0  0  0  0  0  0  0  0  0  0  0  0
   -2.4423   19.9281    3.3517 N   0  0  0  0  0  0  0  0  0  0  0  0
   -3.4012   20.6995    3.8528 C   0  0  0  0  0  0  0  0  0  0  0  0
   -4.8193   20.3895    3.6813 C   0  0  0  0  0  0  0  0  0  0  0  0
   -5.8049   21.0909    4.1845 N   0  0  0  0  0  0  0  0  0  0  0  0
   -5.4923   22.2402    4.8661 N   0  0  0  0  0  0  0  0  0  0  0  0
   -6.6534   22.9802    5.3200 C   0  0  0  0  0  0  0  0  0  0  0  0
   -4.2016   22.7337    5.1163 C   0  0  0  0  0  0  0  0  0  0  0  0
   -4.0056   23.7858    5.7570 O   0  0  0  0  0  0  0  0  0  0  0  0
   -3.1580   21.8777    4.5947 C   0  0  0  0  0  0  0  0  0  0  0  0
   -1.5622   22.4361    4.9110 Cl  0  0  0  0  0  0  0  0  0  0  0  0
   -0.8201   20.6016    2.1996 H   0  0  0  0  0  0  0  0  0  0  0  0
   -1.7541   19.2414    1.4896 H   0  0  0  0  0  0  0  0  0  0  0  0
   -2.4428   20.9004    1.4896 H   0  0  0  0  0  0  0  0  0  0  0  0
   -2.1207   19.1185    3.9012 H   0  0  0  0  0  0  0  0  0  0  0  0
   -5.0782   19.5017    3.0856 H   0  0  0  0  0  0  0  0  0  0  0  0
   -6.6732   22.9929    6.4198 H   0  0  0  0  0  0  0  0  0  0  0  0
   -6.6013   24.0120    4.9423 H   0  0  0  0  0  0  0  0  0  0  0  0
   -7.5667   22.4973    4.9423 H   0  0  0  0  0  0  0  0  0  0  0  0
  1  2  1  0
  2  3  1  0
  3  4  1  0
  3 10  2  0
  4  5  2  0
  5  6  1  0
  6  7  1  0
  6  8  1  0
  8  9  2  0
  8 10  1  0
 10 11  1  0
  1 12  1  0
  1 13  1  0
  1 14  1  0
  2 15  1  0
  4 16  1  0
  7 17  1  0
  7 18  1  0
  7 19  1  0
M  END
>  <filename_input>  (20) 
6YQW_82I_docked.sdf

>  <pdb_id>  (20) 
6YQW_82I

>  <pose_rank>  (20) 
19

>  <num_atoms_heavy>  (20) 
11

>  <num_torsions>  (20) 
1

>  <pose>  (20) 
[-3.4011543667686306, 20.699457352670915, 3.852752427959748, 1.7644230640364813, -0.9839347759661231, -2.0521810496449877, -4.97042029729745]

>  <energy>  (20) 
-137.99430474652073

>  <inter_energy>  (20) 
-131.37120732933772

>  <intra_energy>  (20) 
0.07824179860459857

>  <rmsd>  (20) 
11.6752

>  <sdf_rank>  (20) 
0

$$$$

     RDKit          3D

 19 19  0  0  0  0  0  0  0  0999 V2000
    3.8903    4.1603   12.3487 C   0  0  0  0  0  0  0  0  0  0  0  0
    2.7837    4.9399   12.8960 N   0  0  0  0  0  0  0  0  0  0  0  0
    2.3346    4.7716   14.1351 C   0  0  0  0  0  0  0  0  0  0  0  0
    3.1383    5.1119   15.3077 C   0  0  0  0  0  0  0  0  0  0  0  0
    2.7339    5.0037   16.5492 N   0  0  0  0  0  0  0  0  0  0  0  0
    1.4909    4.4679   16.7750 N   0  0  0  0  0  0  0  0  0  0  0  0
    1.1671    4.3244   18.1809 C   0  0  0  0  0  0  0  0  0  0  0  0
    0.5755    4.0490   15.7960 C   0  0  0  0  0  0  0  0  0  0  0  0
   -0.5430    3.5813   16.0894 O   0  0  0  0  0  0  0  0  0  0  0  0
    1.0547    4.2594   14.4469 C   0  0  0  0  0  0  0  0  0  0  0  0
   -0.0552    3.7862   13.2210 Cl  0  0  0  0  0  0  0  0  0  0  0  0
    4.4860    3.7407   13.1727 H   0  0  0  0  0  0  0  0  0  0  0  0
    3.4921    3.3423   11.7305 H   0  0  0  0  0  0  0  0  0  0  0  0
    4.5266    4.8107   11.7305 H   0  0  0  0  0  0  0  0  0  0  0  0
    2.3337    5.6479   12.2983 H   0  0  0  0  0  0  0  0  0  0  0  0
    4.1581    5.4866   15.1350 H   0  0  0  0  0  0  0  0  0  0  0  0
    2.0046    4.6955   18.7898 H   0  0  0  0  0  0  0  0  0  0  0  0
    0.2616    4.9055   18.4098 H   0  0  0  0  0  0  0  0  0  0  0  0
    0.9894    3.2632   18.4098 H   0  0  0  0  0  0  0  0  0  0  0  0
  1  2  1  0
  2  3  1  0
  3  4  1  0
  3 10  2  0
  4  5  2  0
  5  6  1  0
  6  7  1  0
  6  8  1  0
  8  9  2  0
  8 10  1  0
 10 11  1  0
  1 12  1  0
  1 13  1  0
  1 14  1  0
  2 15  1  0
  4 16  1  0
  7 17  1  0
  7 18  1  0
  7 19  1  0
M  END
>  <filename_input>  (21) 
6YQW_82I_docked.sdf

>  <pdb_id>  (21) 
6YQW_82I

>  <pose_rank>  (21) 
20

>  <num_atoms_heavy>  (21) 
11

>  <num_torsions>  (21) 
1

>  <pose>  (21) 
[2.3346323065721277, 4.771641222877799, 14.135061023227033, -3.4382601114837783, -4.946090175571254, -0.989166441338605, 0.8346558845535973]

>  <energy>  (21) 
-132.77110918569662

>  <inter_energy>  (21) 
-96.93393279605813

>  <intra_energy>  (21) 
0.0

>  <rmsd>  (21) 
10.0903

>  <sdf_rank>  (21) 
0

$$$$

     RDKit          3D

 19 19  0  0  0  0  0  0  0  0999 V2000
    4.6130    3.7354   11.9858 C   0  0  0  0  0  0  0  0  0  0  0  0
    3.4838    4.6381   12.1905 N   0  0  0  0  0  0  0  0  0  0  0  0
    2.7826    4.6615   13.3189 C   0  0  0  0  0  0  0  0  0  0  0  0
    3.3458    5.1511   14.5758 C   0  0  0  0  0  0  0  0  0  0  0  0
    2.6909    5.2332   15.7076 N   0  0  0  0  0  0  0  0  0  0  0  0
    1.4021    4.7630   15.7391 N   0  0  0  0  0  0  0  0  0  0  0  0
    0.7905    4.8324   17.0517 C   0  0  0  0  0  0  0  0  0  0  0  0
    0.6860    4.2262   14.6569 C   0  0  0  0  0  0  0  0  0  0  0  0
   -0.4914    3.8306   14.7706 O   0  0  0  0  0  0  0  0  0  0  0  0
    1.4413    4.2279   13.4227 C   0  0  0  0  0  0  0  0  0  0  0  0
    0.5829    3.6057   12.0682 Cl  0  0  0  0  0  0  0  0  0  0  0  0
    5.0102    3.4178   12.9612 H   0  0  0  0  0  0  0  0  0  0  0  0
    4.2789    2.8526   11.4209 H   0  0  0  0  0  0  0  0  0  0  0  0
    5.4006    4.2556   11.4209 H   0  0  0  0  0  0  0  0  0  0  0  0
    3.2206    5.2818   11.4308 H   0  0  0  0  0  0  0  0  0  0  0  0
    4.3972    5.4744   14.5711 H   0  0  0  0  0  0  0  0  0  0  0  0
    1.5688    4.7441   17.8240 H   0  0  0  0  0  0  0  0  0  0  0  0
    0.2706    5.7954   17.1636 H   0  0  0  0  0  0  0  0  0  0  0  0
    0.0681    4.0105   17.1636 H   0  0  0  0  0  0  0  0  0  0  0  0
  1  2  1  0
  2  3  1  0
  3  4  1  0
  3 10  2  0
  4  5  2  0
  5  6  1  0
  6  7  1  0
  6  8  1  0
  8  9  2  0
  8 10  1  0
 10 11  1  0
  1 12  1  0
  1 13  1  0
  1 14  1  0
  2 15  1  0
  4 16  1  0
  7 17  1  0
  7 18  1  0
  7 19  1  0
M  END
>  <filename_input>  (22) 
6YQW_82I_docked.sdf

>  <pdb_id>  (22) 
6YQW_82I

>  <pose_rank>  (22) 
21

>  <num_atoms_heavy>  (22) 
11

>  <num_torsions>  (22) 
1

>  <pose>  (22) 
[2.7826218545352335, 4.661476913460151, 13.318881535601824, -3.4962138664908946, -5.27470783034712, -0.644422787222207, 0.8670787332218549]

>  <energy>  (22) 
-123.21252940201884

>  <inter_energy>  (22) 
-121.17579952724908

>  <intra_energy>  (22) 
0.0

>  <rmsd>  (22) 
9.78944

>  <sdf_rank>  (22) 
0

$$$$

     RDKit          3D

 19 19  0  0  0  0  0  0  0  0999 V2000
   -1.7773   19.9509    2.1352 C   0  0  0  0  0  0  0  0  0  0  0  0
   -2.3403   20.7024    3.2533 N   0  0  0  0  0  0  0  0  0  0  0  0
   -3.6215   21.0502    3.3080 C   0  0  0  0  0  0  0  0  0  0  0  0
   -4.6160   20.2500    4.0201 C   0  0  0  0  0  0  0  0  0  0  0  0
   -5.8826   20.5634    4.1397 N   0  0  0  0  0  0  0  0  0  0  0  0
   -6.3291   21.6888    3.4938 N   0  0  0  0  0  0  0  0  0  0  0  0
   -7.7559   21.9082    3.6287 C   0  0  0  0  0  0  0  0  0  0  0  0
   -5.5497   22.5759    2.7337 C   0  0  0  0  0  0  0  0  0  0  0  0
   -6.0362   23.5860    2.1870 O   0  0  0  0  0  0  0  0  0  0  0  0
   -4.1499   22.2112    2.6989 C   0  0  0  0  0  0  0  0  0  0  0  0
   -3.1596   23.2944    1.8020 Cl  0  0  0  0  0  0  0  0  0  0  0  0
   -1.1597   19.1266    2.5214 H   0  0  0  0  0  0  0  0  0  0  0  0
   -2.5928   19.5414    1.5209 H   0  0  0  0  0  0  0  0  0  0  0  0
   -1.1552   20.6185    1.5209 H   0  0  0  0  0  0  0  0  0  0  0  0
   -1.7203   20.9734    4.0298 H   0  0  0  0  0  0  0  0  0  0  0  0
   -4.2760   19.3155    4.4904 H   0  0  0  0  0  0  0  0  0  0  0  0
   -8.0213   21.9490    4.6954 H   0  0  0  0  0  0  0  0  0  0  0  0
   -8.0279   22.8587    3.1465 H   0  0  0  0  0  0  0  0  0  0  0  0
   -8.3009   21.0833    3.1465 H   0  0  0  0  0  0  0  0  0  0  0  0
  1  2  1  0
  2  3  1  0
  3  4  1  0
  3 10  2  0
  4  5  2  0
  5  6  1  0
  6  7  1  0
  6  8  1  0
  8  9  2  0
  8 10  1  0
 10 11  1  0
  1 12  1  0
  1 13  1  0
  1 14  1  0
  2 15  1  0
  4 16  1  0
  7 17  1  0
  7 18  1  0
  7 19  1  0
M  END
>  <filename_input>  (23) 
6YQW_82I_docked.sdf

>  <pdb_id>  (23) 
6YQW_82I

>  <pose_rank>  (23) 
22

>  <num_atoms_heavy>  (23) 
11

>  <num_torsions>  (23) 
1

>  <pose>  (23) 
[-3.6214902845230648, 21.05022454729047, 3.3079859513979017, 1.0923348099414099, -1.020535899535532, -0.9864649098285821, 1.329684295790274]

>  <energy>  (23) 
-117.56007297473491

>  <inter_energy>  (23) 
-94.87366814812295

>  <intra_energy>  (23) 
0.13339860094428282

>  <rmsd>  (23) 
12.6447

>  <sdf_rank>  (23) 
0

$$$$

     RDKit          3D

 19 19  0  0  0  0  0  0  0  0999 V2000
   -1.0034   22.7119    2.4578 C   0  0  0  0  0  0  0  0  0  0  0  0
   -1.6885   22.5213    3.7330 N   0  0  0  0  0  0  0  0  0  0  0  0
   -2.9564   22.1321    3.8123 C   0  0  0  0  0  0  0  0  0  0  0  0
   -3.8889   22.7084    4.7793 C   0  0  0  0  0  0  0  0  0  0  0  0
   -5.1565   22.3920    4.8768 N   0  0  0  0  0  0  0  0  0  0  0  0
   -5.6347   21.3981    4.0603 N   0  0  0  0  0  0  0  0  0  0  0  0
   -7.0280   21.0736    4.2952 C   0  0  0  0  0  0  0  0  0  0  0  0
   -4.9033   20.6965    3.0882 C   0  0  0  0  0  0  0  0  0  0  0  0
   -5.4210   19.8114    2.3782 O   0  0  0  0  0  0  0  0  0  0  0  0
   -3.5303   21.1413    2.9836 C   0  0  0  0  0  0  0  0  0  0  0  0
   -2.6128   20.3244    1.7797 Cl  0  0  0  0  0  0  0  0  0  0  0  0
    0.0412   23.0027    2.6426 H   0  0  0  0  0  0  0  0  0  0  0  0
   -1.0269   21.7731    1.8850 H   0  0  0  0  0  0  0  0  0  0  0  0
   -1.5086   23.5036    1.8850 H   0  0  0  0  0  0  0  0  0  0  0  0
   -1.1686   22.6952    4.6050 H   0  0  0  0  0  0  0  0  0  0  0  0
   -3.4973   23.4637    5.4767 H   0  0  0  0  0  0  0  0  0  0  0  0
   -7.2168   21.0297    5.3780 H   0  0  0  0  0  0  0  0  0  0  0  0
   -7.6660   21.8472    3.8429 H   0  0  0  0  0  0  0  0  0  0  0  0
   -7.2586   20.0978    3.8429 H   0  0  0  0  0  0  0  0  0  0  0  0
  1  2  1  0
  2  3  1  0
  3  4  1  0
  3 10  2  0
  4  5  2  0
  5  6  1  0
  6  7  1  0
  6  8  1  0
  8  9  2  0
  8 10  1  0
 10 11  1  0
  1 12  1  0
  1 13  1  0
  1 14  1  0
  2 15  1  0
  4 16  1  0
  7 17  1  0
  7 18  1  0
  7 19  1  0
M  END
>  <filename_input>  (24) 
6YQW_82I_docked.sdf

>  <pdb_id>  (24) 
6YQW_82I

>  <pose_rank>  (24) 
23

>  <num_atoms_heavy>  (24) 
11

>  <num_torsions>  (24) 
1

>  <pose>  (24) 
[-2.9563908279718163, 22.132133603290896, 3.8123339640076934, -0.16773092926967076, -1.0573267746153356, 0.445331975279536, 3.5208303926281412]

>  <energy>  (24) 
-107.26358807626687

>  <inter_energy>  (24) 
-74.80761128330175

>  <intra_energy>  (24) 
16.513217520088396

>  <rmsd>  (24) 
11.9785

>  <sdf_rank>  (24) 
0

$$$$

     RDKit          3D

 19 19  0  0  0  0  0  0  0  0999 V2000
   -2.5847   19.3372    1.3422 C   0  0  0  0  0  0  0  0  0  0  0  0
   -3.0036   19.2754    2.7396 N   0  0  0  0  0  0  0  0  0  0  0  0
   -3.5594   20.3071    3.3656 C   0  0  0  0  0  0  0  0  0  0  0  0
   -2.7955   21.1847    4.2505 C   0  0  0  0  0  0  0  0  0  0  0  0
   -3.2808   22.2368    4.8622 N   0  0  0  0  0  0  0  0  0  0  0  0
   -4.6200   22.5008    4.7208 N   0  0  0  0  0  0  0  0  0  0  0  0
   -5.0718   23.6417    5.4930 C   0  0  0  0  0  0  0  0  0  0  0  0
   -5.5346   21.7691    3.9461 C   0  0  0  0  0  0  0  0  0  0  0  0
   -6.7381   22.0862    3.8638 O   0  0  0  0  0  0  0  0  0  0  0  0
   -4.9219   20.6630    3.2426 C   0  0  0  0  0  0  0  0  0  0  0  0
   -6.0080   19.7631    2.2582 Cl  0  0  0  0  0  0  0  0  0  0  0  0
   -1.4976   19.4974    1.2920 H   0  0  0  0  0  0  0  0  0  0  0  0
   -2.8395   18.3918    0.8409 H   0  0  0  0  0  0  0  0  0  0  0  0
   -3.1014   20.1689    0.8409 H   0  0  0  0  0  0  0  0  0  0  0  0
   -2.8627   18.3980    3.2602 H   0  0  0  0  0  0  0  0  0  0  0  0
   -1.7349   20.9440    4.4149 H   0  0  0  0  0  0  0  0  0  0  0  0
   -4.9826   23.4166    6.5660 H   0  0  0  0  0  0  0  0  0  0  0  0
   -4.4526   24.5177    5.2494 H   0  0  0  0  0  0  0  0  0  0  0  0
   -6.1228   23.8563    5.2494 H   0  0  0  0  0  0  0  0  0  0  0  0
  1  2  1  0
  2  3  1  0
  3  4  1  0
  3 10  2  0
  4  5  2  0
  5  6  1  0
  6  7  1  0
  6  8  1  0
  8  9  2  0
  8 10  1  0
 10 11  1  0
  1 12  1  0
  1 13  1  0
  1 14  1  0
  2 15  1  0
  4 16  1  0
  7 17  1  0
  7 18  1  0
  7 19  1  0
M  END
>  <filename_input>  (25) 
6YQW_82I_docked.sdf

>  <pdb_id>  (25) 
6YQW_82I

>  <pose_rank>  (25) 
24

>  <num_atoms_heavy>  (25) 
11

>  <num_torsions>  (25) 
1

>  <pose>  (25) 
[-3.5594447218876266, 20.307138593401056, 3.3655890699385425, 4.180234056682631, 1.290803030536575, 3.062639806136876, -2.0711841583528985]

>  <energy>  (25) 
-76.70831381752743

>  <inter_energy>  (25) 
-80.43283065443278

>  <intra_energy>  (25) 
0.512909555033938

>  <rmsd>  (25) 
11.6817

>  <sdf_rank>  (25) 
0

$$$$

     RDKit          3D

 19 19  0  0  0  0  0  0  0  0999 V2000
    2.6820   13.8490    9.1440 C   0  0  0  0  0  0  0  0  0  0  0  0
    1.2280   13.7750    9.2550 N   0  0  0  0  0  0  0  0  0  0  0  0
    0.6010   13.7440   10.4260 C   0  0  0  0  0  0  0  0  0  0  0  0
    1.2410   14.1850   11.6640 C   0  0  0  0  0  0  0  0  0  0  0  0
    0.6600   14.2130   12.8380 N   0  0  0  0  0  0  0  0  0  0  0  0
   -0.6210   13.7300   12.9320 N   0  0  0  0  0  0  0  0  0  0  0  0
   -1.1470   13.7380   14.2830 C   0  0  0  0  0  0  0  0  0  0  0  0
   -1.4020   13.2330   11.8760 C   0  0  0  0  0  0  0  0  0  0  0  0
   -2.5670   12.8220   12.0480 O   0  0  0  0  0  0  0  0  0  0  0  0
   -0.7280   13.2940   10.5970 C   0  0  0  0  0  0  0  0  0  0  0  0
   -1.6680   12.7220    9.2750 Cl  0  0  0  0  0  0  0  0  0  0  0  0
    3.1259   13.8716   10.1502 H   0  0  0  0  0  0  0  0  0  0  0  0
    3.0534   12.9686    8.5991 H   0  0  0  0  0  0  0  0  0  0  0  0
    2.9621   14.7626    8.5991 H   0  0  0  0  0  0  0  0  0  0  0  0
    0.6665   13.7457    8.3920 H   0  0  0  0  0  0  0  0  0  0  0  0
    2.2878   14.5180   11.6057 H   0  0  0  0  0  0  0  0  0  0  0  0
   -0.3137   13.7253   15.0010 H   0  0  0  0  0  0  0  0  0  0  0  0
   -1.7495   14.6454   14.4365 H   0  0  0  0  0  0  0  0  0  0  0  0
   -1.7768   12.8493   14.4365 H   0  0  0  0  0  0  0  0  0  0  0  0
  1  2  1  0
  2  3  1  0
  3  4  1  0
  3 10  2  0
  4  5  2  0
  5  6  1  0
  6  7  1  0
  6  8  1  0
  8  9  2  0
  8 10  1  0
 10 11  1  0
  1 12  1  0
  1 13  1  0
  1 14  1  0
  2 15  1  0
  4 16  1  0
  7 17  1  0
  7 18  1  0
  7 19  1  0
M  END
>  <filename_input>  (26) 
6YQW_82I_docked.sdf

>  <pdb_id>  (26) 
6YQW_82I

>  <pose_rank>  (26) 
25

>  <num_atoms_heavy>  (26) 
11

>  <num_torsions>  (26) 
1

>  <pose>  (26) 
[0.601, 13.744, 10.426, 1e-06, 1e-06, 1e-06, 0.0]

>  <energy>  (26) 
-737.9782013117634

>  <inter_energy>  (26) 
-738.3293225397587

>  <intra_energy>  (26) 
0.0

>  <rmsd>  (26) 
0.0

>  <sdf_rank>  (26) 
0

$$$$
