
     RDKit          3D

 82 85  0  0  0  0  0  0  0  0999 V2000
   43.1515    4.1808   13.1652 C   0  0  0  0  0  0  0  0  0  0  0  0
   43.4439    5.6401   12.7323 C   0  0  1  0  0  0  0  0  0  0  0  0
   43.8741    6.6318   13.8480 C   0  0  0  0  0  0  0  0  0  0  0  0
   44.6165    5.5844   11.7205 C   0  0  0  0  0  0  0  0  0  0  0  0
   42.1781    6.2142   12.1211 N   0  0  0  0  0  0  0  0  0  0  0  0
   41.5250    7.4099   12.7475 C   0  0  0  0  0  0  0  0  0  0  0  0
   41.1214    8.3034   11.6167 C   0  0  0  0  0  0  0  0  0  0  0  0
   41.8356    8.4091   10.6739 O   0  0  0  0  0  0  0  0  0  0  0  0
   40.0281    8.9335   11.6818 N   0  0  0  0  0  0  0  0  0  0  0  0
   39.4131    9.7415   10.8074 C   0  0  0  0  0  0  0  0  0  0  0  0
   38.7899    9.4301    9.5992 C   0  0  0  0  0  0  0  0  0  0  0  0
   38.1121   10.4410    8.8636 C   0  0  0  0  0  0  0  0  0  0  0  0
   37.4567   10.2371    7.5793 N   0  0  1  0  0  0  0  0  0  0  0  0
   38.3716    9.2774    6.9222 C   0  0  0  0  0  0  0  0  0  0  0  0
   36.1541    9.6164    7.4921 C   0  0  0  0  0  0  0  0  0  0  0  0
   38.1632   11.7813    9.3546 C   0  0  0  0  0  0  0  0  0  0  0  0
   37.4002   12.9052    8.6485 C   0  0  0  0  0  0  0  0  0  0  0  0
   38.0654   14.2474    8.8362 C   0  0  1  0  0  0  0  0  0  0  0  0
   37.2613   15.3401    8.0944 C   0  0  0  0  0  0  0  0  0  0  0  0
   37.9516   16.6318    8.4730 C   0  0  1  0  0  0  0  0  0  0  0  0
   37.3240   17.6857    7.6025 C   0  0  2  0  0  0  0  0  0  0  0  0
   38.3165   18.5721    6.9253 N   0  0  1  0  0  0  0  0  0  0  0  0
   39.6818   18.7370    7.4562 C   0  0  0  0  0  0  0  0  0  0  0  0
   38.4567   18.1137    5.5460 C   0  0  0  0  0  0  0  0  0  0  0  0
   36.3153   18.5113    8.3069 C   0  0  0  0  0  0  0  0  0  0  0  0
   36.1191   19.5922    7.6406 O   0  0  0  0  0  0  0  0  0  0  0  0
   35.7139   18.2380    9.4284 C   0  0  0  0  0  0  0  0  0  0  0  0
   34.4318   18.8394    9.8868 C   0  0  0  0  0  0  0  0  0  0  0  0
   33.3526   18.5397    9.2943 O   0  0  0  0  0  0  0  0  0  0  0  0
   34.3718   19.6812   10.8499 N   0  0  0  0  0  0  0  0  0  0  0  0
   36.3034   17.2917   10.2196 C   0  0  0  0  0  0  0  0  0  0  0  0
   35.7152   16.7362   11.1724 O   0  0  0  0  0  0  0  0  0  0  0  0
   37.7800   16.9381    9.9391 C   0  0  2  0  0  0  0  0  0  0  0  0
   38.5814   18.0542   10.3130 O   0  0  0  0  0  0  0  0  0  0  0  0
   38.2412   15.7610   10.7586 C   0  0  0  0  0  0  0  0  0  0  0  0
   38.6224   16.0827   11.9679 O   0  0  0  0  0  0  0  0  0  0  0  0
   38.3274   14.4892   10.3078 C   0  0  0  0  0  0  0  0  0  0  0  0
   38.7773   13.4566   11.1005 C   0  0  0  0  0  0  0  0  0  0  0  0
   39.1769   13.5317   12.2790 O   0  0  0  0  0  0  0  0  0  0  0  0
   38.7559   12.0706   10.5765 C   0  0  0  0  0  0  0  0  0  0  0  0
   39.3866   11.0387   11.2744 C   0  0  0  0  0  0  0  0  0  0  0  0
   39.9608   11.2367   12.4602 O   0  0  0  0  0  0  0  0  0  0  0  0
   43.1392    4.1196   14.2634 H   0  0  0  0  0  0  0  0  0  0  0  0
   42.1732    3.8701   12.7697 H   0  0  0  0  0  0  0  0  0  0  0  0
   43.9345    3.5171   12.7697 H   0  0  0  0  0  0  0  0  0  0  0  0
   43.6792    6.1825   14.8330 H   0  0  0  0  0  0  0  0  0  0  0  0
   44.9478    6.8501   13.7506 H   0  0  0  0  0  0  0  0  0  0  0  0
   43.2998    7.5649   13.7506 H   0  0  0  0  0  0  0  0  0  0  0  0
   45.5702    5.5391   12.2668 H   0  0  0  0  0  0  0  0  0  0  0  0
   44.5132    4.6902   11.0884 H   0  0  0  0  0  0  0  0  0  0  0  0
   44.5984    6.4845   11.0884 H   0  0  0  0  0  0  0  0  0  0  0  0
   42.4061    6.4729   11.1506 H   0  0  0  0  0  0  0  0  0  0  0  0
   41.4852    5.4643   12.2576 H   0  0  0  0  0  0  0  0  0  0  0  0
   40.6409    7.1028   13.3254 H   0  0  0  0  0  0  0  0  0  0  0  0
   42.2076    7.9231   13.4408 H   0  0  0  0  0  0  0  0  0  0  0  0
   39.5175    8.8025   12.5666 H   0  0  0  0  0  0  0  0  0  0  0  0
   38.8227    8.4001    9.2144 H   0  0  0  0  0  0  0  0  0  0  0  0
   37.2887   11.1798    7.1999 H   0  0  0  0  0  0  0  0  0  0  0  0
   38.9161    8.7063    7.6886 H   0  0  0  0  0  0  0  0  0  0  0  0
   37.7893    8.5866    6.2947 H   0  0  0  0  0  0  0  0  0  0  0  0
   39.0895    9.8261    6.2947 H   0  0  0  0  0  0  0  0  0  0  0  0
   35.7671    9.4321    8.5052 H   0  0  0  0  0  0  0  0  0  0  0  0
   35.4656   10.2833    6.9524 H   0  0  0  0  0  0  0  0  0  0  0  0
   36.2382    8.6617    6.9524 H   0  0  0  0  0  0  0  0  0  0  0  0
   37.3524   12.6802    7.5728 H   0  0  0  0  0  0  0  0  0  0  0  0
   36.3940   12.9609    9.0894 H   0  0  0  0  0  0  0  0  0  0  0  0
   39.0617   14.2761    8.3709 H   0  0  0  0  0  0  0  0  0  0  0  0
   37.2998   15.1817    7.0065 H   0  0  0  0  0  0  0  0  0  0  0  0
   36.1956   15.3367    8.3671 H   0  0  0  0  0  0  0  0  0  0  0  0
   39.0388   16.5766    8.3150 H   0  0  0  0  0  0  0  0  0  0  0  0
   36.8055   17.1039    6.8262 H   0  0  0  0  0  0  0  0  0  0  0  0
   37.8991   19.5012    7.0781 H   0  0  0  0  0  0  0  0  0  0  0  0
   39.6506   18.7332    8.5557 H   0  0  0  0  0  0  0  0  0  0  0  0
   40.3145   17.9087    7.1044 H   0  0  0  0  0  0  0  0  0  0  0  0
   40.0991   19.6920    7.1044 H   0  0  0  0  0  0  0  0  0  0  0  0
   38.7786   17.0618    5.5401 H   0  0  0  0  0  0  0  0  0  0  0  0
   37.4898   18.2042    5.0294 H   0  0  0  0  0  0  0  0  0  0  0  0
   39.2075   18.7297    5.0294 H   0  0  0  0  0  0  0  0  0  0  0  0
   33.4632   20.0733   11.1353 H   0  0  0  0  0  0  0  0  0  0  0  0
   35.2323   19.9662   11.3390 H   0  0  0  0  0  0  0  0  0  0  0  0
   38.6242   18.1139   11.3002 H   0  0  0  0  0  0  0  0  0  0  0  0
   39.9784   12.1438   12.8563 H   0  0  0  0  0  0  0  0  0  0  0  0
  2  1  1  1
  2  3  1  0
  2  4  1  0
  2  5  1  0
  5  6  1  0
  6  7  1  0
  7  8  2  0
  7  9  1  0
  9 10  1  0
 10 11  2  0
 10 41  1  0
 11 12  1  0
 12 13  1  0
 12 16  2  0
 13 14  1  0
 13 15  1  0
 16 17  1  0
 16 40  1  0
 18 17  1  0
 18 19  1  0
 18 37  1  0
 20 19  1  0
 20 21  1  0
 20 33  1  0
 21 22  1  0
 21 25  1  0
 22 23  1  0
 22 24  1  0
 25 26  1  0
 25 27  2  0
 27 28  1  0
 27 31  1  0
 28 29  2  0
 28 30  1  0
 31 32  2  0
 31 33  1  0
 33 34  1  1
 33 35  1  0
 35 36  1  0
 35 37  2  0
 37 38  1  0
 38 39  2  0
 38 40  1  0
 40 41  2  0
 41 42  1  0
  1 43  1  0
  1 44  1  0
  1 45  1  0
  3 46  1  0
  3 47  1  0
  3 48  1  0
  4 49  1  0
  4 50  1  0
  4 51  1  0
  5 52  1  0
  5 53  1  0
  6 54  1  0
  6 55  1  0
  9 56  1  0
 11 57  1  0
 13 58  1  6
 14 59  1  0
 14 60  1  0
 14 61  1  0
 15 62  1  0
 15 63  1  0
 15 64  1  0
 17 65  1  0
 17 66  1  0
 18 67  1  6
 19 68  1  0
 19 69  1  0
 20 70  1  6
 21 71  1  6
 22 72  1  6
 23 73  1  0
 23 74  1  0
 23 75  1  0
 24 76  1  0
 24 77  1  0
 24 78  1  0
 30 79  1  0
 30 80  1  0
 34 81  1  0
 42 82  1  0
M  CHG  5   5   1  13   1  22   1  26  -1  36  -1
M  END
>  <filename_input>  (1) 
6YR2_T1C_docked.sdf

>  <pdb_id>  (1) 
6YR2_T1C

>  <pose_rank>  (1) 
0

>  <num_atoms_heavy>  (1) 
42

>  <num_torsions>  (1) 
7

>  <pose>  (1) 
[39.4131252113892, 9.741467093316643, 10.807410018216311, 0.017409084651319906, -0.028987174271869323, -0.005925270527603346, 0.7442824364966237, -1.0562627750005604, -0.8333146064335298, 1.4414254666796034, 0.87021945599434, 0.4272926676512389, -1.8148357730675249]

>  <energy>  (1) 
-984.9039762789993

>  <inter_energy>  (1) 
-991.3444255524016

>  <intra_energy>  (1) 
14.89590557165823

>  <rmsd>  (1) 
0.720969

>  <sdf_rank>  (1) 
0

$$$$

     RDKit          3D

 82 85  0  0  0  0  0  0  0  0999 V2000
   34.2778   19.0797    9.8423 C   0  0  0  0  0  0  0  0  0  0  0  0
   35.7123   18.4983    9.9246 C   0  0  1  0  0  0  0  0  0  0  0  0
   36.8724   19.5133   10.1178 C   0  0  0  0  0  0  0  0  0  0  0  0
   35.7471   17.5549   11.1537 C   0  0  0  0  0  0  0  0  0  0  0  0
   36.0013   17.7679    8.6252 N   0  0  0  0  0  0  0  0  0  0  0  0
   37.4089   17.6851    8.1150 C   0  0  0  0  0  0  0  0  0  0  0  0
   37.6757   16.2339    7.8644 C   0  0  0  0  0  0  0  0  0  0  0  0
   38.1257   15.8961    6.8188 O   0  0  0  0  0  0  0  0  0  0  0  0
   37.4170   15.3890    8.7677 N   0  0  0  0  0  0  0  0  0  0  0  0
   37.6036   14.0634    8.8263 C   0  0  0  0  0  0  0  0  0  0  0  0
   37.1454   13.0647    7.9673 C   0  0  0  0  0  0  0  0  0  0  0  0
   37.5411   11.7135    8.1673 C   0  0  0  0  0  0  0  0  0  0  0  0
   37.0995   10.5886    7.3549 N   0  0  1  0  0  0  0  0  0  0  0  0
   35.6800   10.9294    7.1130 C   0  0  0  0  0  0  0  0  0  0  0  0
   37.6472   10.3537    6.0379 C   0  0  0  0  0  0  0  0  0  0  0  0
   38.3424   11.4074    9.3094 C   0  0  0  0  0  0  0  0  0  0  0  0
   38.8585    9.9859    9.5476 C   0  0  0  0  0  0  0  0  0  0  0  0
   39.0573    9.6930   11.0152 C   0  0  1  0  0  0  0  0  0  0  0  0
   39.5665    8.2444   11.1972 C   0  0  0  0  0  0  0  0  0  0  0  0
   39.8478    8.1322   12.6793 C   0  0  1  0  0  0  0  0  0  0  0  0
   40.1424    6.6765   12.9170 C   0  0  2  0  0  0  0  0  0  0  0  0
   39.4003    6.0968   14.0757 N   0  0  1  0  0  0  0  0  0  0  0  0
   38.5272    6.9323   14.9199 C   0  0  0  0  0  0  0  0  0  0  0  0
   38.5740    5.0021   13.5745 C   0  0  0  0  0  0  0  0  0  0  0  0
   41.5878    6.3793   13.0498 C   0  0  0  0  0  0  0  0  0  0  0  0
   41.7300    5.2350   13.6167 O   0  0  0  0  0  0  0  0  0  0  0  0
   42.5860    7.1310   12.6855 C   0  0  0  0  0  0  0  0  0  0  0  0
   43.9734    6.6561   12.4303 C   0  0  0  0  0  0  0  0  0  0  0  0
   44.2396    6.0533   11.3480 O   0  0  0  0  0  0  0  0  0  0  0  0
   44.9195    6.8058   13.2801 N   0  0  0  0  0  0  0  0  0  0  0  0
   42.3099    8.4556   12.4901 C   0  0  0  0  0  0  0  0  0  0  0  0
   43.0825    9.2319   11.8876 O   0  0  0  0  0  0  0  0  0  0  0  0
   41.0006    9.0133   13.0888 C   0  0  2  0  0  0  0  0  0  0  0  0
   41.1347    9.0329   14.5063 O   0  0  0  0  0  0  0  0  0  0  0  0
   40.7376   10.4286   12.6441 C   0  0  0  0  0  0  0  0  0  0  0  0
   41.3635   11.3267   13.3602 O   0  0  0  0  0  0  0  0  0  0  0  0
   39.8959   10.7839   11.6473 C   0  0  0  0  0  0  0  0  0  0  0  0
   39.6808   12.0991   11.2998 C   0  0  0  0  0  0  0  0  0  0  0  0
   40.1779   13.1097   11.8347 O   0  0  0  0  0  0  0  0  0  0  0  0
   38.8210   12.4159   10.1353 C   0  0  0  0  0  0  0  0  0  0  0  0
   38.4251   13.7308    9.8827 C   0  0  0  0  0  0  0  0  0  0  0  0
   38.8575   14.7521   10.6208 O   0  0  0  0  0  0  0  0  0  0  0  0
   33.8874   19.2379   10.8584 H   0  0  0  0  0  0  0  0  0  0  0  0
   34.3014   20.0392    9.3050 H   0  0  0  0  0  0  0  0  0  0  0  0
   33.6267   18.3745    9.3050 H   0  0  0  0  0  0  0  0  0  0  0  0
   37.0491   19.6679   11.1925 H   0  0  0  0  0  0  0  0  0  0  0  0
   37.7861   19.1194    9.6489 H   0  0  0  0  0  0  0  0  0  0  0  0
   36.6033   20.4713    9.6489 H   0  0  0  0  0  0  0  0  0  0  0  0
   35.7250   18.1537   12.0762 H   0  0  0  0  0  0  0  0  0  0  0  0
   34.8730   16.8877   11.1286 H   0  0  0  0  0  0  0  0  0  0  0  0
   36.6681   16.9539   11.1286 H   0  0  0  0  0  0  0  0  0  0  0  0
   35.6706   16.8001    8.7470 H   0  0  0  0  0  0  0  0  0  0  0  0
   35.5234   18.3426    7.9165 H   0  0  0  0  0  0  0  0  0  0  0  0
   37.5109   18.2585    7.1819 H   0  0  0  0  0  0  0  0  0  0  0  0
   38.1234   18.1057    8.8379 H   0  0  0  0  0  0  0  0  0  0  0  0
   36.9846   15.7920    9.6112 H   0  0  0  0  0  0  0  0  0  0  0  0
   36.4765   13.3228    7.1331 H   0  0  0  0  0  0  0  0  0  0  0  0
   37.3781    9.7439    7.8743 H   0  0  0  0  0  0  0  0  0  0  0  0
   35.1633   11.0534    8.0761 H   0  0  0  0  0  0  0  0  0  0  0  0
   35.6204   11.8674    6.5414 H   0  0  0  0  0  0  0  0  0  0  0  0
   35.2010   10.1207    6.5414 H   0  0  0  0  0  0  0  0  0  0  0  0
   38.6545    9.9216    6.1314 H   0  0  0  0  0  0  0  0  0  0  0  0
   36.9979    9.6549    5.4901 H   0  0  0  0  0  0  0  0  0  0  0  0
   37.7060   11.3057    5.4901 H   0  0  0  0  0  0  0  0  0  0  0  0
   38.1297    9.2706    9.1386 H   0  0  0  0  0  0  0  0  0  0  0  0
   39.8338    9.8912    9.0478 H   0  0  0  0  0  0  0  0  0  0  0  0
   38.1067    9.7215   11.5680 H   0  0  0  0  0  0  0  0  0  0  0  0
   38.7982    7.5195   10.8901 H   0  0  0  0  0  0  0  0  0  0  0  0
   40.4535    8.0297   10.5830 H   0  0  0  0  0  0  0  0  0  0  0  0
   38.9950    8.4727   13.2849 H   0  0  0  0  0  0  0  0  0  0  0  0
   39.7770    6.1866   12.0024 H   0  0  0  0  0  0  0  0  0  0  0  0
   40.1723    5.8569   14.7140 H   0  0  0  0  0  0  0  0  0  0  0  0
   38.7391    6.7295   15.9801 H   0  0  0  0  0  0  0  0  0  0  0  0
   38.7164    7.9943   14.7048 H   0  0  0  0  0  0  0  0  0  0  0  0
   37.4745    6.6965   14.7048 H   0  0  0  0  0  0  0  0  0  0  0  0
   38.1521    4.4431   14.4227 H   0  0  0  0  0  0  0  0  0  0  0  0
   37.7569    5.4104   12.9616 H   0  0  0  0  0  0  0  0  0  0  0  0
   39.1907    4.3282   12.9616 H   0  0  0  0  0  0  0  0  0  0  0  0
   45.8658    6.4620   13.0632 H   0  0  0  0  0  0  0  0  0  0  0  0
   44.7341    7.2700   14.1807 H   0  0  0  0  0  0  0  0  0  0  0  0
   40.2465    8.9030   14.9237 H   0  0  0  0  0  0  0  0  0  0  0  0
   39.4512   14.5865   11.3956 H   0  0  0  0  0  0  0  0  0  0  0  0
  2  1  1  6
  2  3  1  0
  2  4  1  0
  2  5  1  0
  5  6  1  0
  6  7  1  0
  7  8  2  0
  7  9  1  0
  9 10  1  0
 10 11  2  0
 10 41  1  0
 11 12  1  0
 12 13  1  0
 12 16  2  0
 13 14  1  0
 13 15  1  0
 16 17  1  0
 16 40  1  0
 18 17  1  0
 18 19  1  0
 18 37  1  0
 20 19  1  0
 20 21  1  0
 20 33  1  0
 21 22  1  0
 21 25  1  0
 22 23  1  0
 22 24  1  0
 25 26  1  0
 25 27  2  0
 27 28  1  0
 27 31  1  0
 28 29  2  0
 28 30  1  0
 31 32  2  0
 31 33  1  0
 33 34  1  1
 33 35  1  0
 35 36  1  0
 35 37  2  0
 37 38  1  0
 38 39  2  0
 38 40  1  0
 40 41  2  0
 41 42  1  0
  1 43  1  0
  1 44  1  0
  1 45  1  0
  3 46  1  0
  3 47  1  0
  3 48  1  0
  4 49  1  0
  4 50  1  0
  4 51  1  0
  5 52  1  0
  5 53  1  0
  6 54  1  0
  6 55  1  0
  9 56  1  0
 11 57  1  0
 13 58  1  1
 14 59  1  0
 14 60  1  0
 14 61  1  0
 15 62  1  0
 15 63  1  0
 15 64  1  0
 17 65  1  0
 17 66  1  0
 18 67  1  1
 19 68  1  0
 19 69  1  0
 20 70  1  1
 21 71  1  6
 22 72  1  1
 23 73  1  0
 23 74  1  0
 23 75  1  0
 24 76  1  0
 24 77  1  0
 24 78  1  0
 30 79  1  0
 30 80  1  0
 34 81  1  0
 42 82  1  0
M  CHG  5   5   1  13   1  22   1  26  -1  36  -1
M  END
>  <filename_input>  (2) 
6YR2_T1C_docked.sdf

>  <pdb_id>  (2) 
6YR2_T1C

>  <pose_rank>  (2) 
1

>  <num_atoms_heavy>  (2) 
42

>  <num_torsions>  (2) 
7

>  <pose>  (2) 
[37.60355124824775, 14.063429511879503, 8.826264576379923, 1.2942039700894463, 1.556421813513854, 2.3853928300078833, -1.4783249168869856, 1.8718108584307918, -1.0141562256151038, -4.291229283178887, 0.8354213152391219, 0.7640578767244846, -1.689348985109064]

>  <energy>  (2) 
-865.3358674612082

>  <inter_energy>  (2) 
-880.2192721175633

>  <intra_energy>  (2) 
14.969881544657346

>  <rmsd>  (2) 
10.5292

>  <sdf_rank>  (2) 
0

$$$$

     RDKit          3D

 82 85  0  0  0  0  0  0  0  0999 V2000
   39.2762   19.6650    3.4007 C   0  0  0  0  0  0  0  0  0  0  0  0
   38.7405   18.2180    3.5489 C   0  0  1  0  0  0  0  0  0  0  0  0
   37.2735   17.9625    3.1062 C   0  0  0  0  0  0  0  0  0  0  0  0
   39.6301   17.3140    2.6582 C   0  0  0  0  0  0  0  0  0  0  0  0
   38.8121   17.8358    5.0166 N   0  0  0  0  0  0  0  0  0  0  0  0
   37.5775   17.9046    5.8648 C   0  0  0  0  0  0  0  0  0  0  0  0
   37.9587   17.3464    7.2001 C   0  0  0  0  0  0  0  0  0  0  0  0
   38.5420   18.0328    7.9738 O   0  0  0  0  0  0  0  0  0  0  0  0
   37.6563   16.1530    7.4846 N   0  0  0  0  0  0  0  0  0  0  0  0
   37.8260   15.4342    8.6026 C   0  0  0  0  0  0  0  0  0  0  0  0
   37.3652   15.6831    9.8953 C   0  0  0  0  0  0  0  0  0  0  0  0
   37.5858   14.7308   10.9281 C   0  0  0  0  0  0  0  0  0  0  0  0
   37.1791   14.8999   12.3161 N   0  0  1  0  0  0  0  0  0  0  0  0
   37.4768   16.3311   12.5460 C   0  0  0  0  0  0  0  0  0  0  0  0
   35.7988   14.7460   12.7173 C   0  0  0  0  0  0  0  0  0  0  0  0
   38.3566   13.5683   10.6203 C   0  0  0  0  0  0  0  0  0  0  0  0
   38.5750   12.4721   11.6664 C   0  0  0  0  0  0  0  0  0  0  0  0
   39.8747   11.7346   11.4522 C   0  0  1  0  0  0  0  0  0  0  0  0
   40.0486   10.6503   12.5409 C   0  0  0  0  0  0  0  0  0  0  0  0
   41.3036    9.9110   12.1327 C   0  0  1  0  0  0  0  0  0  0  0  0
   41.6128    8.9916   13.2823 C   0  0  2  0  0  0  0  0  0  0  0  0
   43.0389    9.0411   13.7220 N   0  0  1  0  0  0  0  0  0  0  0  0
   44.1417    9.0226   12.7439 C   0  0  0  0  0  0  0  0  0  0  0  0
   43.2160   10.2452   14.5289 C   0  0  0  0  0  0  0  0  0  0  0  0
   41.2130    7.5857   13.0396 C   0  0  0  0  0  0  0  0  0  0  0  0
   41.8367    6.8242   13.8656 O   0  0  0  0  0  0  0  0  0  0  0  0
   40.3856    7.1438   12.1374 C   0  0  0  0  0  0  0  0  0  0  0  0
   39.6807    5.8336   12.1833 C   0  0  0  0  0  0  0  0  0  0  0  0
   38.7857    5.6345   13.0580 O   0  0  0  0  0  0  0  0  0  0  0  0
   39.9614    4.8726   11.3849 N   0  0  0  0  0  0  0  0  0  0  0  0
   40.1264    7.9809   11.0880 C   0  0  0  0  0  0  0  0  0  0  0  0
   39.1666    7.8157   10.3045 O   0  0  0  0  0  0  0  0  0  0  0  0
   41.1016    9.1530   10.8452 C   0  0  2  0  0  0  0  0  0  0  0  0
   42.3364    8.6137   10.3845 O   0  0  0  0  0  0  0  0  0  0  0  0
   40.5976   10.0917    9.7800 C   0  0  0  0  0  0  0  0  0  0  0  0
   40.8773    9.7008    8.5634 O   0  0  0  0  0  0  0  0  0  0  0  0
   39.9677   11.2647   10.0158 C   0  0  0  0  0  0  0  0  0  0  0  0
   39.5478   12.0918    8.9977 C   0  0  0  0  0  0  0  0  0  0  0  0
   39.6967   11.9129    7.7730 O   0  0  0  0  0  0  0  0  0  0  0  0
   38.7779   13.3159    9.3215 C   0  0  0  0  0  0  0  0  0  0  0  0
   38.5146   14.2696    8.3362 C   0  0  0  0  0  0  0  0  0  0  0  0
   38.8722   14.0888    7.0656 O   0  0  0  0  0  0  0  0  0  0  0  0
   39.4373   20.1002    4.3980 H   0  0  0  0  0  0  0  0  0  0  0  0
   40.2280   19.6489    2.8495 H   0  0  0  0  0  0  0  0  0  0  0  0
   38.5434   20.2726    2.8495 H   0  0  0  0  0  0  0  0  0  0  0  0
   36.6361   17.8515    3.9958 H   0  0  0  0  0  0  0  0  0  0  0  0
   36.9188   18.8124    2.5046 H   0  0  0  0  0  0  0  0  0  0  0  0
   37.2270   17.0428    2.5046 H   0  0  0  0  0  0  0  0  0  0  0  0
   40.2585   16.6753    3.2962 H   0  0  0  0  0  0  0  0  0  0  0  0
   38.9913   16.6826    2.0231 H   0  0  0  0  0  0  0  0  0  0  0  0
   40.2717   17.9425    2.0231 H   0  0  0  0  0  0  0  0  0  0  0  0
   39.1471   16.8626    5.0555 H   0  0  0  0  0  0  0  0  0  0  0  0
   39.4220   18.5597    5.4227 H   0  0  0  0  0  0  0  0  0  0  0  0
   37.2433   18.9474    5.9684 H   0  0  0  0  0  0  0  0  0  0  0  0
   36.7490   17.3381    5.4145 H   0  0  0  0  0  0  0  0  0  0  0  0
   37.1964   15.6401    6.7189 H   0  0  0  0  0  0  0  0  0  0  0  0
   36.8299   16.6183   10.1164 H   0  0  0  0  0  0  0  0  0  0  0  0
   37.6558   14.1514   12.8390 H   0  0  0  0  0  0  0  0  0  0  0  0
   37.5177   16.5279   13.6275 H   0  0  0  0  0  0  0  0  0  0  0  0
   38.4463   16.5817   12.0908 H   0  0  0  0  0  0  0  0  0  0  0  0
   36.6876   16.9475   12.0908 H   0  0  0  0  0  0  0  0  0  0  0  0
   35.7348   14.7389   13.8154 H   0  0  0  0  0  0  0  0  0  0  0  0
   35.2062   15.5837   12.3209 H   0  0  0  0  0  0  0  0  0  0  0  0
   35.4051   13.7985   12.3209 H   0  0  0  0  0  0  0  0  0  0  0  0
   38.5888   12.9325   12.6653 H   0  0  0  0  0  0  0  0  0  0  0  0
   37.7539   11.7461   11.5732 H   0  0  0  0  0  0  0  0  0  0  0  0
   40.7439   12.3961   11.5822 H   0  0  0  0  0  0  0  0  0  0  0  0
   40.1718   11.1098   13.5327 H   0  0  0  0  0  0  0  0  0  0  0  0
   39.1749    9.9863   12.6170 H   0  0  0  0  0  0  0  0  0  0  0  0
   42.1383   10.5994   11.9344 H   0  0  0  0  0  0  0  0  0  0  0  0
   40.9928    9.3851   14.1013 H   0  0  0  0  0  0  0  0  0  0  0  0
   43.1390    8.1318   14.1952 H   0  0  0  0  0  0  0  0  0  0  0  0
   45.1040    9.0064   13.2766 H   0  0  0  0  0  0  0  0  0  0  0  0
   44.0569    8.1257   12.1127 H   0  0  0  0  0  0  0  0  0  0  0  0
   44.0871    9.9218   12.1127 H   0  0  0  0  0  0  0  0  0  0  0  0
   43.1770    9.9805   15.5959 H   0  0  0  0  0  0  0  0  0  0  0  0
   44.1907   10.7004   14.2994 H   0  0  0  0  0  0  0  0  0  0  0  0
   42.4135   10.9617   14.2994 H   0  0  0  0  0  0  0  0  0  0  0  0
   39.4487    3.9817   11.4509 H   0  0  0  0  0  0  0  0  0  0  0  0
   40.6998    4.9905   10.6766 H   0  0  0  0  0  0  0  0  0  0  0  0
   42.8993    8.3679   11.1609 H   0  0  0  0  0  0  0  0  0  0  0  0
   39.3696   13.2742    6.8025 H   0  0  0  0  0  0  0  0  0  0  0  0
  2  1  1  1
  2  3  1  0
  2  4  1  0
  2  5  1  0
  5  6  1  0
  6  7  1  0
  7  8  2  0
  7  9  1  0
  9 10  1  0
 10 11  2  0
 10 41  1  0
 11 12  1  0
 12 13  1  0
 12 16  2  0
 13 14  1  0
 13 15  1  0
 16 17  1  0
 16 40  1  0
 18 17  1  0
 18 19  1  0
 18 37  1  0
 20 19  1  0
 20 21  1  0
 20 33  1  0
 21 22  1  0
 21 25  1  0
 22 23  1  0
 22 24  1  0
 25 26  1  0
 25 27  2  0
 27 28  1  0
 27 31  1  0
 28 29  2  0
 28 30  1  0
 31 32  2  0
 31 33  1  0
 33 34  1  6
 33 35  1  0
 35 36  1  0
 35 37  2  0
 37 38  1  0
 38 39  2  0
 38 40  1  0
 40 41  2  0
 41 42  1  0
  1 43  1  0
  1 44  1  0
  1 45  1  0
  3 46  1  0
  3 47  1  0
  3 48  1  0
  4 49  1  0
  4 50  1  0
  4 51  1  0
  5 52  1  0
  5 53  1  0
  6 54  1  0
  6 55  1  0
  9 56  1  0
 11 57  1  0
 13 58  1  1
 14 59  1  0
 14 60  1  0
 14 61  1  0
 15 62  1  0
 15 63  1  0
 15 64  1  0
 17 65  1  0
 17 66  1  0
 18 67  1  1
 19 68  1  0
 19 69  1  0
 20 70  1  6
 21 71  1  1
 22 72  1  1
 23 73  1  0
 23 74  1  0
 23 75  1  0
 24 76  1  0
 24 77  1  0
 24 78  1  0
 30 79  1  0
 30 80  1  0
 34 81  1  0
 42 82  1  0
M  CHG  5   5   1  13   1  22   1  26  -1  36  -1
M  END
>  <filename_input>  (3) 
6YR2_T1C_docked.sdf

>  <pdb_id>  (3) 
6YR2_T1C

>  <pose_rank>  (3) 
2

>  <num_atoms_heavy>  (3) 
42

>  <num_torsions>  (3) 
7

>  <pose>  (3) 
[37.82595144275965, 15.43419616379906, 8.602646148541194, 2.7466510980114265, 0.9138757490922227, -0.43240334819477677, 0.5296594606605616, -5.279534409082563, -0.18645621360199766, 1.1109808599220776, 0.8252644306654944, 0.031037904810071845, -1.8395894267173203]

>  <energy>  (3) 
-715.9790302711504

>  <inter_energy>  (3) 
-730.0040626093223

>  <intra_energy>  (3) 
20.931500071226672

>  <rmsd>  (3) 
10.5901

>  <sdf_rank>  (3) 
0

$$$$

     RDKit          3D

 82 85  0  0  0  0  0  0  0  0999 V2000
   34.3820   20.4042    8.1054 C   0  0  0  0  0  0  0  0  0  0  0  0
   35.3589   19.2580    8.4717 C   0  0  1  0  0  0  0  0  0  0  0  0
   36.3662   19.5331    9.6219 C   0  0  0  0  0  0  0  0  0  0  0  0
   34.4935   18.0554    8.9264 C   0  0  0  0  0  0  0  0  0  0  0  0
   36.1946   18.9394    7.2447 N   0  0  0  0  0  0  0  0  0  0  0  0
   36.3697   17.5142    6.8129 C   0  0  0  0  0  0  0  0  0  0  0  0
   37.5627   16.9984    7.5548 C   0  0  0  0  0  0  0  0  0  0  0  0
   38.5689   17.6290    7.5510 O   0  0  0  0  0  0  0  0  0  0  0  0
   37.4833   15.8991    8.1728 N   0  0  0  0  0  0  0  0  0  0  0  0
   38.3632   15.2460    8.9439 C   0  0  0  0  0  0  0  0  0  0  0  0
   39.3599   15.7534    9.7771 C   0  0  0  0  0  0  0  0  0  0  0  0
   40.1313   14.8740   10.5857 C   0  0  0  0  0  0  0  0  0  0  0  0
   41.2153   15.2886   11.4653 N   0  0  1  0  0  0  0  0  0  0  0  0
   41.2816   16.7426   11.1985 C   0  0  0  0  0  0  0  0  0  0  0  0
   41.0958   15.1871   12.9024 C   0  0  0  0  0  0  0  0  0  0  0  0
   39.9109   13.4689   10.4541 C   0  0  0  0  0  0  0  0  0  0  0  0
   40.6589   12.4707   11.3417 C   0  0  0  0  0  0  0  0  0  0  0  0
   40.8439   11.1353   10.6625 C   0  0  1  0  0  0  0  0  0  0  0  0
   41.6132   10.1731   11.5970 C   0  0  0  0  0  0  0  0  0  0  0  0
   41.6091    8.8535   10.8575 C   0  0  1  0  0  0  0  0  0  0  0  0
   42.5279    7.9574   11.6419 C   0  0  2  0  0  0  0  0  0  0  0  0
   43.5250    7.2351   10.7973 N   0  0  1  0  0  0  0  0  0  0  0  0
   44.7097    7.9245   10.2547 C   0  0  0  0  0  0  0  0  0  0  0  0
   44.0195    6.0960   11.5656 C   0  0  0  0  0  0  0  0  0  0  0  0
   41.8139    6.9912   12.5091 C   0  0  0  0  0  0  0  0  0  0  0  0
   42.6191    6.0434   12.8320 O   0  0  0  0  0  0  0  0  0  0  0  0
   40.5708    7.0411   12.8915 C   0  0  0  0  0  0  0  0  0  0  0  0
   40.0036    6.3323   14.0711 C   0  0  0  0  0  0  0  0  0  0  0  0
   39.5267    7.0029   15.0347 O   0  0  0  0  0  0  0  0  0  0  0  0
   40.0012    5.0557   14.1715 N   0  0  0  0  0  0  0  0  0  0  0  0
   39.7413    7.8446   12.1598 C   0  0  0  0  0  0  0  0  0  0  0  0
   38.6121    8.2027   12.5585 O   0  0  0  0  0  0  0  0  0  0  0  0
   40.2172    8.2828   10.7579 C   0  0  2  0  0  0  0  0  0  0  0  0
   40.2060    7.1397    9.9089 O   0  0  0  0  0  0  0  0  0  0  0  0
   39.2949    9.3047   10.1455 C   0  0  0  0  0  0  0  0  0  0  0  0
   38.2548    8.7803    9.5501 O   0  0  0  0  0  0  0  0  0  0  0  0
   39.5141   10.6389   10.1353 C   0  0  0  0  0  0  0  0  0  0  0  0
   38.6420   11.5232    9.5400 C   0  0  0  0  0  0  0  0  0  0  0  0
   37.5899   11.2473    8.9305 O   0  0  0  0  0  0  0  0  0  0  0  0
   38.8913   12.9798    9.6482 C   0  0  0  0  0  0  0  0  0  0  0  0
   38.1439   13.8855    8.8927 C   0  0  0  0  0  0  0  0  0  0  0  0
   37.1392   13.4923    8.1111 O   0  0  0  0  0  0  0  0  0  0  0  0
   33.9919   20.8619    9.0265 H   0  0  0  0  0  0  0  0  0  0  0  0
   34.9139   21.1647    7.5149 H   0  0  0  0  0  0  0  0  0  0  0  0
   33.5468   19.9996    7.5149 H   0  0  0  0  0  0  0  0  0  0  0  0
   35.8632   19.3957   10.5905 H   0  0  0  0  0  0  0  0  0  0  0  0
   37.2109   18.8328    9.5449 H   0  0  0  0  0  0  0  0  0  0  0  0
   36.7376   20.5656    9.5449 H   0  0  0  0  0  0  0  0  0  0  0  0
   34.4664   18.0178   10.0254 H   0  0  0  0  0  0  0  0  0  0  0  0
   33.4709   18.1720    8.5382 H   0  0  0  0  0  0  0  0  0  0  0  0
   34.9289   17.1228    8.5382 H   0  0  0  0  0  0  0  0  0  0  0  0
   35.7659   19.4404    6.4535 H   0  0  0  0  0  0  0  0  0  0  0  0
   37.1449   19.2237    7.5222 H   0  0  0  0  0  0  0  0  0  0  0  0
   35.4768   16.9252    7.0695 H   0  0  0  0  0  0  0  0  0  0  0  0
   36.5102   17.4388    5.7245 H   0  0  0  0  0  0  0  0  0  0  0  0
   36.5789   15.4183    8.0643 H   0  0  0  0  0  0  0  0  0  0  0  0
   39.5497   16.8364    9.8089 H   0  0  0  0  0  0  0  0  0  0  0  0
   42.0016   14.6576   11.2544 H   0  0  0  0  0  0  0  0  0  0  0  0
   41.3065   17.2897   12.1525 H   0  0  0  0  0  0  0  0  0  0  0  0
   42.1910   16.9686   10.6224 H   0  0  0  0  0  0  0  0  0  0  0  0
   40.3965   17.0504   10.6224 H   0  0  0  0  0  0  0  0  0  0  0  0
   41.8515   15.8284   13.3794 H   0  0  0  0  0  0  0  0  0  0  0  0
   40.0913   15.5126   13.2106 H   0  0  0  0  0  0  0  0  0  0  0  0
   41.2535   14.1430   13.2106 H   0  0  0  0  0  0  0  0  0  0  0  0
   41.6484   12.8849   11.5856 H   0  0  0  0  0  0  0  0  0  0  0  0
   40.0595   12.3091   12.2498 H   0  0  0  0  0  0  0  0  0  0  0  0
   41.4805   11.2181    9.7693 H   0  0  0  0  0  0  0  0  0  0  0  0
   42.6424   10.5263   11.7587 H   0  0  0  0  0  0  0  0  0  0  0  0
   41.1546   10.0983   12.5940 H   0  0  0  0  0  0  0  0  0  0  0  0
   41.9501    8.9657    9.8177 H   0  0  0  0  0  0  0  0  0  0  0  0
   43.0771    8.6556   12.2907 H   0  0  0  0  0  0  0  0  0  0  0  0
   42.9711    7.0352    9.9523 H   0  0  0  0  0  0  0  0  0  0  0  0
   45.3343    8.2879   11.0840 H   0  0  0  0  0  0  0  0  0  0  0  0
   45.2911    7.2236    9.6376 H   0  0  0  0  0  0  0  0  0  0  0  0
   44.3877    8.7762    9.6376 H   0  0  0  0  0  0  0  0  0  0  0  0
   43.9264    6.3105   12.6404 H   0  0  0  0  0  0  0  0  0  0  0  0
   43.4284    5.2021   11.3175 H   0  0  0  0  0  0  0  0  0  0  0  0
   45.0762    5.9173   11.3175 H   0  0  0  0  0  0  0  0  0  0  0  0
   39.5982    4.6055   15.0057 H   0  0  0  0  0  0  0  0  0  0  0  0
   40.4022    4.4791   13.4181 H   0  0  0  0  0  0  0  0  0  0  0  0
   40.1979    6.3183   10.4614 H   0  0  0  0  0  0  0  0  0  0  0  0
   36.9252   12.5293    8.0269 H   0  0  0  0  0  0  0  0  0  0  0  0
  2  1  1  6
  2  3  1  0
  2  4  1  0
  2  5  1  0
  5  6  1  0
  6  7  1  0
  7  8  2  0
  7  9  1  0
  9 10  1  0
 10 11  2  0
 10 41  1  0
 11 12  1  0
 12 13  1  0
 12 16  2  0
 13 14  1  0
 13 15  1  0
 16 17  1  0
 16 40  1  0
 18 17  1  0
 18 19  1  0
 18 37  1  0
 20 19  1  0
 20 21  1  0
 20 33  1  0
 21 22  1  0
 21 25  1  0
 22 23  1  0
 22 24  1  0
 25 26  1  0
 25 27  2  0
 27 28  1  0
 27 31  1  0
 28 29  2  0
 28 30  1  0
 31 32  2  0
 31 33  1  0
 33 34  1  6
 33 35  1  0
 35 36  1  0
 35 37  2  0
 37 38  1  0
 38 39  2  0
 38 40  1  0
 40 41  2  0
 41 42  1  0
  1 43  1  0
  1 44  1  0
  1 45  1  0
  3 46  1  0
  3 47  1  0
  3 48  1  0
  4 49  1  0
  4 50  1  0
  4 51  1  0
  5 52  1  0
  5 53  1  0
  6 54  1  0
  6 55  1  0
  9 56  1  0
 11 57  1  0
 13 58  1  6
 14 59  1  0
 14 60  1  0
 14 61  1  0
 15 62  1  0
 15 63  1  0
 15 64  1  0
 17 65  1  0
 17 66  1  0
 18 67  1  6
 19 68  1  0
 19 69  1  0
 20 70  1  6
 21 71  1  1
 22 72  1  6
 23 73  1  0
 23 74  1  0
 23 75  1  0
 24 76  1  0
 24 77  1  0
 24 78  1  0
 30 79  1  0
 30 80  1  0
 34 81  1  0
 42 82  1  0
M  CHG  5   5   1  13   1  22   1  26  -1  36  -1
M  END
>  <filename_input>  (4) 
6YR2_T1C_docked.sdf

>  <pdb_id>  (4) 
6YR2_T1C

>  <pose_rank>  (4) 
3

>  <num_atoms_heavy>  (4) 
42

>  <num_torsions>  (4) 
7

>  <pose>  (4) 
[38.36320431365188, 15.245968520875548, 8.943941721598968, 2.3019139128259387, 0.19508378407973073, -1.9675273865676448, 0.06321977476137193, -1.2594095166608892, 1.5088324650546765, -2.9391649249391247, 1.4633681506365859, 2.145410734247072, -0.9972041945468182]

>  <energy>  (4) 
-568.9208995387042

>  <inter_energy>  (4) 
-702.1736948269777

>  <intra_energy>  (4) 
127.83586150262806

>  <rmsd>  (4) 
10.7768

>  <sdf_rank>  (4) 
0

$$$$

     RDKit          3D

 82 85  0  0  0  0  0  0  0  0999 V2000
   43.7958    7.0712   10.8078 C   0  0  0  0  0  0  0  0  0  0  0  0
   43.5367    7.5326   12.2647 C   0  0  1  0  0  0  0  0  0  0  0  0
   43.9489    6.5519   13.3967 C   0  0  0  0  0  0  0  0  0  0  0  0
   44.3638    8.8249   12.4827 C   0  0  0  0  0  0  0  0  0  0  0  0
   42.0452    7.7647   12.4285 N   0  0  0  0  0  0  0  0  0  0  0  0
   41.0726    6.7413   11.9232 C   0  0  0  0  0  0  0  0  0  0  0  0
   40.0854    7.4862   11.0803 C   0  0  0  0  0  0  0  0  0  0  0  0
   39.0461    6.9778   10.8134 O   0  0  0  0  0  0  0  0  0  0  0  0
   40.3723    8.6441   10.6634 N   0  0  0  0  0  0  0  0  0  0  0  0
   39.6669    9.5340    9.9521 C   0  0  0  0  0  0  0  0  0  0  0  0
   38.9428    9.3534    8.7739 C   0  0  0  0  0  0  0  0  0  0  0  0
   38.1839   10.4261    8.2302 C   0  0  0  0  0  0  0  0  0  0  0  0
   37.4190   10.3605    6.9928 N   0  0  1  0  0  0  0  0  0  0  0  0
   38.3902    9.7316    6.0702 C   0  0  0  0  0  0  0  0  0  0  0  0
   36.2328    9.5411    6.8867 C   0  0  0  0  0  0  0  0  0  0  0  0
   38.2555   11.6982    8.8759 C   0  0  0  0  0  0  0  0  0  0  0  0
   37.4124   12.8771    8.3827 C   0  0  0  0  0  0  0  0  0  0  0  0
   38.0682   14.2051    8.6752 C   0  0  1  0  0  0  0  0  0  0  0  0
   37.1814   15.3562    8.1464 C   0  0  0  0  0  0  0  0  0  0  0  0
   37.8803   16.6117    8.6192 C   0  0  1  0  0  0  0  0  0  0  0  0
   37.1585   17.7449    7.9431 C   0  0  2  0  0  0  0  0  0  0  0  0
   38.0702   18.7345    7.2959 N   0  0  1  0  0  0  0  0  0  0  0  0
   39.1283   19.4155    8.0638 C   0  0  0  0  0  0  0  0  0  0  0  0
   38.7291   18.0687    6.1757 C   0  0  0  0  0  0  0  0  0  0  0  0
   36.2030   18.4502    8.8291 C   0  0  0  0  0  0  0  0  0  0  0  0
   35.9287   19.5978    8.3204 O   0  0  0  0  0  0  0  0  0  0  0  0
   35.7101   18.0264    9.9566 C   0  0  0  0  0  0  0  0  0  0  0  0
   34.4642   18.5313   10.5958 C   0  0  0  0  0  0  0  0  0  0  0  0
   33.3399   18.0961   10.2057 O   0  0  0  0  0  0  0  0  0  0  0  0
   34.4748   19.4206   11.5170 N   0  0  0  0  0  0  0  0  0  0  0  0
   36.3850   17.0085   10.5709 C   0  0  0  0  0  0  0  0  0  0  0  0
   35.8949   16.3255   11.4960 O   0  0  0  0  0  0  0  0  0  0  0  0
   37.8363   16.7335   10.1213 C   0  0  2  0  0  0  0  0  0  0  0  0
   38.6485   17.8186   10.5580 O   0  0  0  0  0  0  0  0  0  0  0  0
   38.3901   15.4795   10.7463 C   0  0  0  0  0  0  0  0  0  0  0  0
   38.8730   15.6634   11.9481 O   0  0  0  0  0  0  0  0  0  0  0  0
   38.4576   14.2745   10.1368 C   0  0  0  0  0  0  0  0  0  0  0  0
   38.9951   13.1669   10.7541 C   0  0  0  0  0  0  0  0  0  0  0  0
   39.4979   13.1103   11.8936 O   0  0  0  0  0  0  0  0  0  0  0  0
   38.9508   11.8544   10.0677 C   0  0  0  0  0  0  0  0  0  0  0  0
   39.6599   10.7640   10.5755 C   0  0  0  0  0  0  0  0  0  0  0  0
   40.3351   10.8334   11.7219 O   0  0  0  0  0  0  0  0  0  0  0  0
   44.3343    6.1121   10.8173 H   0  0  0  0  0  0  0  0  0  0  0  0
   42.8353    6.9473   10.2862 H   0  0  0  0  0  0  0  0  0  0  0  0
   44.4015    7.8268   10.2862 H   0  0  0  0  0  0  0  0  0  0  0  0
   43.7534    7.0171   14.3742 H   0  0  0  0  0  0  0  0  0  0  0  0
   43.3647    5.6240   13.3088 H   0  0  0  0  0  0  0  0  0  0  0  0
   45.0206    6.3201   13.3088 H   0  0  0  0  0  0  0  0  0  0  0  0
   44.4809    9.0078   13.5611 H   0  0  0  0  0  0  0  0  0  0  0  0
   45.3553    8.7080   12.0209 H   0  0  0  0  0  0  0  0  0  0  0  0
   43.8423    9.6763   12.0209 H   0  0  0  0  0  0  0  0  0  0  0  0
   41.8688    7.8713   13.4376 H   0  0  0  0  0  0  0  0  0  0  0  0
   41.8634    8.5833   11.8302 H   0  0  0  0  0  0  0  0  0  0  0  0
   41.5946    5.9839   11.3200 H   0  0  0  0  0  0  0  0  0  0  0  0
   40.5766    6.2152   12.7521 H   0  0  0  0  0  0  0  0  0  0  0  0
   41.3192    8.9610   10.9159 H   0  0  0  0  0  0  0  0  0  0  0  0
   38.9588    8.3789    8.2640 H   0  0  0  0  0  0  0  0  0  0  0  0
   37.0562   11.3122    6.8391 H   0  0  0  0  0  0  0  0  0  0  0  0
   39.1735    9.2244    6.6525 H   0  0  0  0  0  0  0  0  0  0  0  0
   37.8713    8.9976    5.4362 H   0  0  0  0  0  0  0  0  0  0  0  0
   38.8477   10.5054    5.4362 H   0  0  0  0  0  0  0  0  0  0  0  0
   35.8693    9.2900    7.8941 H   0  0  0  0  0  0  0  0  0  0  0  0
   35.4528   10.0939    6.3426 H   0  0  0  0  0  0  0  0  0  0  0  0
   36.4737    8.6159    6.3426 H   0  0  0  0  0  0  0  0  0  0  0  0
   37.2717   12.7825    7.2959 H   0  0  0  0  0  0  0  0  0  0  0  0
   36.4492   12.8505    8.9133 H   0  0  0  0  0  0  0  0  0  0  0  0
   39.0178   14.3181    8.1317 H   0  0  0  0  0  0  0  0  0  0  0  0
   37.1245   15.3316    7.0482 H   0  0  0  0  0  0  0  0  0  0  0  0
   36.1449   15.2896    8.5087 H   0  0  0  0  0  0  0  0  0  0  0  0
   38.9497   16.6070    8.3613 H   0  0  0  0  0  0  0  0  0  0  0  0
   36.5823   17.2467    7.1495 H   0  0  0  0  0  0  0  0  0  0  0  0
   37.4181   19.5013    7.0774 H   0  0  0  0  0  0  0  0  0  0  0  0
   38.9373   19.2925    9.1401 H   0  0  0  0  0  0  0  0  0  0  0  0
   40.1047   18.9758    7.8121 H   0  0  0  0  0  0  0  0  0  0  0  0
   39.1326   20.4863    7.8121 H   0  0  0  0  0  0  0  0  0  0  0  0
   39.4542   17.3361    6.5596 H   0  0  0  0  0  0  0  0  0  0  0  0
   37.9764   17.5525    5.5618 H   0  0  0  0  0  0  0  0  0  0  0  0
   39.2530   18.8161    5.5618 H   0  0  0  0  0  0  0  0  0  0  0  0
   33.5889   19.7421   11.9327 H   0  0  0  0  0  0  0  0  0  0  0  0
   35.3692   19.8144   11.8424 H   0  0  0  0  0  0  0  0  0  0  0  0
   38.6651   17.8408   11.5476 H   0  0  0  0  0  0  0  0  0  0  0  0
   40.3724   11.6861   12.2236 H   0  0  0  0  0  0  0  0  0  0  0  0
  2  1  1  6
  2  3  1  0
  2  4  1  0
  2  5  1  0
  5  6  1  0
  6  7  1  0
  7  8  2  0
  7  9  1  0
  9 10  1  0
 10 11  2  0
 10 41  1  0
 11 12  1  0
 12 13  1  0
 12 16  2  0
 13 14  1  0
 13 15  1  0
 16 17  1  0
 16 40  1  0
 18 17  1  0
 18 19  1  0
 18 37  1  0
 20 19  1  0
 20 21  1  0
 20 33  1  0
 21 22  1  0
 21 25  1  0
 22 23  1  0
 22 24  1  0
 25 26  1  0
 25 27  2  0
 27 28  1  0
 27 31  1  0
 28 29  2  0
 28 30  1  0
 31 32  2  0
 31 33  1  0
 33 34  1  6
 33 35  1  0
 35 36  1  0
 35 37  2  0
 37 38  1  0
 38 39  2  0
 38 40  1  0
 40 41  2  0
 41 42  1  0
  1 43  1  0
  1 44  1  0
  1 45  1  0
  3 46  1  0
  3 47  1  0
  3 48  1  0
  4 49  1  0
  4 50  1  0
  4 51  1  0
  5 52  1  0
  5 53  1  0
  6 54  1  0
  6 55  1  0
  9 56  1  0
 11 57  1  0
 13 58  1  6
 14 59  1  0
 14 60  1  0
 14 61  1  0
 15 62  1  0
 15 63  1  0
 15 64  1  0
 17 65  1  0
 17 66  1  0
 18 67  1  6
 19 68  1  0
 19 69  1  0
 20 70  1  6
 21 71  1  6
 22 72  1  6
 23 73  1  0
 23 74  1  0
 23 75  1  0
 24 76  1  0
 24 77  1  0
 24 78  1  0
 30 79  1  0
 30 80  1  0
 34 81  1  0
 42 82  1  0
M  CHG  5   5   1  13   1  22   1  26  -1  36  -1
M  END
>  <filename_input>  (5) 
6YR2_T1C_docked.sdf

>  <pdb_id>  (5) 
6YR2_T1C

>  <pose_rank>  (5) 
4

>  <num_atoms_heavy>  (5) 
42

>  <num_torsions>  (5) 
7

>  <pose>  (5) 
[39.66688167460968, 9.534004793995518, 9.952106591957758, 0.13983171245493484, 0.06072579216141212, 0.014583693908997834, -1.3398008028607222, -3.232471125434025, 0.7942810773717071, 0.18282018483583878, 0.6958556825520256, -0.15962097484099297, -1.6092577628378395]

>  <energy>  (5) 
-859.7441652098821

>  <inter_energy>  (5) 
-884.5219486343126

>  <intra_energy>  (5) 
24.52085491727547

>  <rmsd>  (5) 
1.22748

>  <sdf_rank>  (5) 
0

$$$$

     RDKit          3D

 82 85  0  0  0  0  0  0  0  0999 V2000
   34.2522   20.7691    7.9274 C   0  0  0  0  0  0  0  0  0  0  0  0
   35.1329   19.5279    8.2210 C   0  0  1  0  0  0  0  0  0  0  0  0
   35.5392   19.2882    9.7012 C   0  0  0  0  0  0  0  0  0  0  0  0
   34.3193   18.2834    7.7838 C   0  0  0  0  0  0  0  0  0  0  0  0
   36.4296   19.6744    7.4448 N   0  0  0  0  0  0  0  0  0  0  0  0
   37.1261   18.4539    6.9218 C   0  0  0  0  0  0  0  0  0  0  0  0
   37.7650   17.7999    8.1067 C   0  0  0  0  0  0  0  0  0  0  0  0
   38.5488   18.4102    8.7572 O   0  0  0  0  0  0  0  0  0  0  0  0
   37.4630   16.6077    8.3971 N   0  0  0  0  0  0  0  0  0  0  0  0
   37.8373   15.8167    9.4117 C   0  0  0  0  0  0  0  0  0  0  0  0
   37.7052   16.0149   10.7859 C   0  0  0  0  0  0  0  0  0  0  0  0
   38.0936   14.9932   11.6957 C   0  0  0  0  0  0  0  0  0  0  0  0
   38.0306   15.1032   13.1463 N   0  0  1  0  0  0  0  0  0  0  0  0
   37.4423   16.4496   13.3220 C   0  0  0  0  0  0  0  0  0  0  0  0
   37.1838   14.2310   13.9287 C   0  0  0  0  0  0  0  0  0  0  0  0
   38.6924   13.8098   11.1653 C   0  0  0  0  0  0  0  0  0  0  0  0
   39.0721   12.6440   12.0821 C   0  0  0  0  0  0  0  0  0  0  0  0
   40.2345   11.8494   11.5377 C   0  0  1  0  0  0  0  0  0  0  0  0
   40.5815   10.6955   12.5068 C   0  0  0  0  0  0  0  0  0  0  0  0
   41.6557    9.9130   11.7842 C   0  0  1  0  0  0  0  0  0  0  0  0
   42.1593    8.9124   12.7880 C   0  0  2  0  0  0  0  0  0  0  0  0
   43.6483    8.8573   12.8835 N   0  0  1  0  0  0  0  0  0  0  0  0
   44.4957    8.9535   11.6811 C   0  0  0  0  0  0  0  0  0  0  0  0
   44.0780    9.9234   13.7841 C   0  0  0  0  0  0  0  0  0  0  0  0
   41.6205    7.5474   12.5842 C   0  0  0  0  0  0  0  0  0  0  0  0
   42.3652    6.7057   13.2071 O   0  0  0  0  0  0  0  0  0  0  0  0
   40.5793    7.2053   11.8822 C   0  0  0  0  0  0  0  0  0  0  0  0
   39.8174    5.9356   12.0343 C   0  0  0  0  0  0  0  0  0  0  0  0
   40.0060    4.9901   11.2121 O   0  0  0  0  0  0  0  0  0  0  0  0
   38.9452    5.7624   12.9557 N   0  0  0  0  0  0  0  0  0  0  0  0
   40.1419    8.1152   10.9604 C   0  0  0  0  0  0  0  0  0  0  0  0
   39.0182    8.0494   10.4168 O   0  0  0  0  0  0  0  0  0  0  0  0
   41.1114    9.2438   10.5478 C   0  0  2  0  0  0  0  0  0  0  0  0
   42.1672    8.6648    9.7877 O   0  0  0  0  0  0  0  0  0  0  0  0
   40.4395   10.2695    9.6723 C   0  0  0  0  0  0  0  0  0  0  0  0
   40.4038    9.9354    8.4081 O   0  0  0  0  0  0  0  0  0  0  0  0
   39.9616   11.4597   10.1001 C   0  0  0  0  0  0  0  0  0  0  0  0
   39.3746   12.3668    9.2459 C   0  0  0  0  0  0  0  0  0  0  0  0
   39.2244   12.2517    8.0137 O   0  0  0  0  0  0  0  0  0  0  0  0
   38.7845   13.6106    9.7942 C   0  0  0  0  0  0  0  0  0  0  0  0
   38.3658   14.6333    8.9407 C   0  0  0  0  0  0  0  0  0  0  0  0
   38.4075   14.5074    7.6151 O   0  0  0  0  0  0  0  0  0  0  0  0
   33.9302   21.2229    8.8763 H   0  0  0  0  0  0  0  0  0  0  0  0
   34.8332   21.5023    7.3488 H   0  0  0  0  0  0  0  0  0  0  0  0
   33.3682   20.4629    7.3488 H   0  0  0  0  0  0  0  0  0  0  0  0
   34.7840   19.7336   10.3654 H   0  0  0  0  0  0  0  0  0  0  0  0
   35.6045   18.2071    9.8931 H   0  0  0  0  0  0  0  0  0  0  0  0
   36.5170   19.7543    9.8931 H   0  0  0  0  0  0  0  0  0  0  0  0
   33.9666   17.7441    8.6753 H   0  0  0  0  0  0  0  0  0  0  0  0
   33.4551   18.6030    7.1828 H   0  0  0  0  0  0  0  0  0  0  0  0
   34.9585   17.6200    7.1828 H   0  0  0  0  0  0  0  0  0  0  0  0
   36.2246   20.2724    6.6316 H   0  0  0  0  0  0  0  0  0  0  0  0
   37.0877   20.0434    8.1460 H   0  0  0  0  0  0  0  0  0  0  0  0
   36.4010   17.7716    6.4543 H   0  0  0  0  0  0  0  0  0  0  0  0
   37.8718   18.7142    6.1563 H   0  0  0  0  0  0  0  0  0  0  0  0
   36.8114   16.1640    7.7341 H   0  0  0  0  0  0  0  0  0  0  0  0
   37.2997   16.9637   11.1670 H   0  0  0  0  0  0  0  0  0  0  0  0
   38.9754   14.8710   13.4844 H   0  0  0  0  0  0  0  0  0  0  0  0
   37.3458   16.6705   14.3953 H   0  0  0  0  0  0  0  0  0  0  0  0
   38.0949   17.1992   12.8506 H   0  0  0  0  0  0  0  0  0  0  0  0
   36.4489   16.4801   12.8506 H   0  0  0  0  0  0  0  0  0  0  0  0
   37.3600   14.4125   14.9992 H   0  0  0  0  0  0  0  0  0  0  0  0
   36.1292   14.4341   13.6911 H   0  0  0  0  0  0  0  0  0  0  0  0
   37.4180   13.1828   13.6911 H   0  0  0  0  0  0  0  0  0  0  0  0
   39.3470   13.0439   13.0693 H   0  0  0  0  0  0  0  0  0  0  0  0
   38.2046   11.9712   12.1519 H   0  0  0  0  0  0  0  0  0  0  0  0
   41.1528   12.4532   11.4895 H   0  0  0  0  0  0  0  0  0  0  0  0
   40.9611   11.0889   13.4614 H   0  0  0  0  0  0  0  0  0  0  0  0
   39.7063   10.0776   12.7560 H   0  0  0  0  0  0  0  0  0  0  0  0
   42.4665   10.5647   11.4264 H   0  0  0  0  0  0  0  0  0  0  0  0
   41.7730    9.2912   13.7458 H   0  0  0  0  0  0  0  0  0  0  0  0
   43.7980    7.8855   13.1904 H   0  0  0  0  0  0  0  0  0  0  0  0
   45.5470    9.0728   11.9820 H   0  0  0  0  0  0  0  0  0  0  0  0
   44.3875    8.0373   11.0820 H   0  0  0  0  0  0  0  0  0  0  0  0
   44.1850    9.8221   11.0820 H   0  0  0  0  0  0  0  0  0  0  0  0
   43.9467    9.5978   14.8266 H   0  0  0  0  0  0  0  0  0  0  0  0
   45.1384   10.1520   13.6021 H   0  0  0  0  0  0  0  0  0  0  0  0
   43.4724   10.8235   13.6021 H   0  0  0  0  0  0  0  0  0  0  0  0
   38.4403    4.8673   13.0251 H   0  0  0  0  0  0  0  0  0  0  0  0
   38.7485    6.5181   13.6273 H   0  0  0  0  0  0  0  0  0  0  0  0
   42.8488    8.2911   10.4008 H   0  0  0  0  0  0  0  0  0  0  0  0
   38.7746   13.6833    7.2074 H   0  0  0  0  0  0  0  0  0  0  0  0
  2  1  1  1
  2  3  1  0
  2  4  1  0
  2  5  1  0
  5  6  1  0
  6  7  1  0
  7  8  2  0
  7  9  1  0
  9 10  1  0
 10 11  2  0
 10 41  1  0
 11 12  1  0
 12 13  1  0
 12 16  2  0
 13 14  1  0
 13 15  1  0
 16 17  1  0
 16 40  1  0
 18 17  1  0
 18 19  1  0
 18 37  1  0
 20 19  1  0
 20 21  1  0
 20 33  1  0
 21 22  1  0
 21 25  1  0
 22 23  1  0
 22 24  1  0
 25 26  1  0
 25 27  2  0
 27 28  1  0
 27 31  1  0
 28 29  2  0
 28 30  1  0
 31 32  2  0
 31 33  1  0
 33 34  1  6
 33 35  1  0
 35 36  1  0
 35 37  2  0
 37 38  1  0
 38 39  2  0
 38 40  1  0
 40 41  2  0
 41 42  1  0
  1 43  1  0
  1 44  1  0
  1 45  1  0
  3 46  1  0
  3 47  1  0
  3 48  1  0
  4 49  1  0
  4 50  1  0
  4 51  1  0
  5 52  1  0
  5 53  1  0
  6 54  1  0
  6 55  1  0
  9 56  1  0
 11 57  1  0
 13 58  1  1
 14 59  1  0
 14 60  1  0
 14 61  1  0
 15 62  1  0
 15 63  1  0
 15 64  1  0
 17 65  1  0
 17 66  1  0
 18 67  1  6
 19 68  1  0
 19 69  1  0
 20 70  1  6
 21 71  1  1
 22 72  1  1
 23 73  1  0
 23 74  1  0
 23 75  1  0
 24 76  1  0
 24 77  1  0
 24 78  1  0
 30 79  1  0
 30 80  1  0
 34 81  1  0
 42 82  1  0
M  CHG  5   5   1  13   1  22   1  26  -1  36  -1
M  END
>  <filename_input>  (6) 
6YR2_T1C_docked.sdf

>  <pdb_id>  (6) 
6YR2_T1C

>  <pose_rank>  (6) 
5

>  <num_atoms_heavy>  (6) 
42

>  <num_torsions>  (6) 
7

>  <pose>  (6) 
[37.837309247239105, 15.816653471337663, 9.411746942437775, -2.972335041332112, -0.9538229411828343, 0.8079431166633209, 0.5210894997231691, 4.872879275338265, 1.7432651541881092, -3.205255037762628, -4.731904250335032, 0.1253689208754398, 1.479916089167921]

>  <energy>  (6) 
-658.510979600383

>  <inter_energy>  (6) 
-707.0278547216833

>  <intra_energy>  (6) 
54.204438903380385

>  <rmsd>  (6) 
10.6809

>  <sdf_rank>  (6) 
0

$$$$

     RDKit          3D

 82 85  0  0  0  0  0  0  0  0999 V2000
   36.5067   18.5445    7.8607 C   0  0  0  0  0  0  0  0  0  0  0  0
   37.8663   17.8209    7.6859 C   0  0  1  0  0  0  0  0  0  0  0  0
   39.0171   18.6347    7.0328 C   0  0  0  0  0  0  0  0  0  0  0  0
   38.3558   17.4314    9.1038 C   0  0  0  0  0  0  0  0  0  0  0  0
   37.6461   16.6105    6.7961 N   0  0  0  0  0  0  0  0  0  0  0  0
   36.6953   15.5337    7.2259 C   0  0  0  0  0  0  0  0  0  0  0  0
   37.1805   15.0584    8.5596 C   0  0  0  0  0  0  0  0  0  0  0  0
   36.6925   15.4991    9.5483 O   0  0  0  0  0  0  0  0  0  0  0  0
   38.1031   14.1967    8.6146 N   0  0  0  0  0  0  0  0  0  0  0  0
   38.6771   13.5725    9.6521 C   0  0  0  0  0  0  0  0  0  0  0  0
   39.0999   14.0914   10.8756 C   0  0  0  0  0  0  0  0  0  0  0  0
   39.6065   13.2244   11.8826 C   0  0  0  0  0  0  0  0  0  0  0  0
   40.1046   13.6584   13.1803 N   0  0  1  0  0  0  0  0  0  0  0  0
   38.8590   13.7205   13.9768 C   0  0  0  0  0  0  0  0  0  0  0  0
   40.9937   12.8261   13.9591 C   0  0  0  0  0  0  0  0  0  0  0  0
   39.7439   11.8371   11.5716 C   0  0  0  0  0  0  0  0  0  0  0  0
   40.2193   10.8389   12.6305 C   0  0  0  0  0  0  0  0  0  0  0  0
   40.9352    9.6596   12.0176 C   0  0  1  0  0  0  0  0  0  0  0  0
   41.4023    8.6928   13.1303 C   0  0  0  0  0  0  0  0  0  0  0  0
   41.9741    7.5103   12.3800 C   0  0  1  0  0  0  0  0  0  0  0  0
   42.6243    6.6521   13.4303 C   0  0  2  0  0  0  0  0  0  0  0  0
   44.0072    6.2155   13.0752 N   0  0  1  0  0  0  0  0  0  0  0  0
   44.2881    5.5242   11.8038 C   0  0  0  0  0  0  0  0  0  0  0  0
   44.8703    7.3929   13.1104 C   0  0  0  0  0  0  0  0  0  0  0  0
   41.8125    5.4749   13.8183 C   0  0  0  0  0  0  0  0  0  0  0  0
   42.5703    4.6176   14.4028 O   0  0  0  0  0  0  0  0  0  0  0  0
   40.5424    5.2860   13.6058 C   0  0  0  0  0  0  0  0  0  0  0  0
   39.6758    4.3360   14.3555 C   0  0  0  0  0  0  0  0  0  0  0  0
   39.8121    3.0891   14.1759 O   0  0  0  0  0  0  0  0  0  0  0  0
   38.7648    4.7278   15.1656 N   0  0  0  0  0  0  0  0  0  0  0  0
   39.9666    6.0589   12.6362 C   0  0  0  0  0  0  0  0  0  0  0  0
   38.7295    6.1857   12.5101 O   0  0  0  0  0  0  0  0  0  0  0  0
   40.9009    6.7637   11.6292 C   0  0  2  0  0  0  0  0  0  0  0  0
   41.4788    5.7690   10.7900 O   0  0  0  0  0  0  0  0  0  0  0  0
   40.1492    7.7191   10.7392 C   0  0  0  0  0  0  0  0  0  0  0  0
   39.5896    7.1422    9.7070 O   0  0  0  0  0  0  0  0  0  0  0  0
   40.0853    9.0578   10.9184 C   0  0  0  0  0  0  0  0  0  0  0  0
   39.3976    9.8834   10.0568 C   0  0  0  0  0  0  0  0  0  0  0  0
   38.7848    9.5500    9.0235 O   0  0  0  0  0  0  0  0  0  0  0  0
   39.2856   11.3288   10.3634 C   0  0  0  0  0  0  0  0  0  0  0  0
   38.7724   12.2172    9.4163 C   0  0  0  0  0  0  0  0  0  0  0  0
   38.2980   11.8012    8.2429 O   0  0  0  0  0  0  0  0  0  0  0  0
   36.2883   18.6608    8.9325 H   0  0  0  0  0  0  0  0  0  0  0  0
   36.5555   19.5360    7.3868 H   0  0  0  0  0  0  0  0  0  0  0  0
   35.7115   17.9504    7.3868 H   0  0  0  0  0  0  0  0  0  0  0  0
   39.6448   19.0785    7.8196 H   0  0  0  0  0  0  0  0  0  0  0  0
   39.6293   17.9675    6.4081 H   0  0  0  0  0  0  0  0  0  0  0  0
   38.5922   19.4342    6.4081 H   0  0  0  0  0  0  0  0  0  0  0  0
   37.7291   17.9300    9.8579 H   0  0  0  0  0  0  0  0  0  0  0  0
   38.2836   16.3410    9.2300 H   0  0  0  0  0  0  0  0  0  0  0  0
   39.4021   17.7466    9.2300 H   0  0  0  0  0  0  0  0  0  0  0  0
   37.3068   16.9639    5.8901 H   0  0  0  0  0  0  0  0  0  0  0  0
   38.5615   16.1383    6.8038 H   0  0  0  0  0  0  0  0  0  0  0  0
   35.6756   15.9372    7.3125 H   0  0  0  0  0  0  0  0  0  0  0  0
   36.6616   14.7124    6.4949 H   0  0  0  0  0  0  0  0  0  0  0  0
   38.4825   13.9252    7.6963 H   0  0  0  0  0  0  0  0  0  0  0  0
   39.0414   15.1739   11.0622 H   0  0  0  0  0  0  0  0  0  0  0  0
   40.6764   14.4946   12.9935 H   0  0  0  0  0  0  0  0  0  0  0  0
   39.1079   13.7081   15.0482 H   0  0  0  0  0  0  0  0  0  0  0  0
   38.3163   14.6468   13.7372 H   0  0  0  0  0  0  0  0  0  0  0  0
   38.2269   12.8528   13.7372 H   0  0  0  0  0  0  0  0  0  0  0  0
   40.8114   12.9968   15.0304 H   0  0  0  0  0  0  0  0  0  0  0  0
   40.8094   11.7684   13.7198 H   0  0  0  0  0  0  0  0  0  0  0  0
   42.0370   13.0797   13.7198 H   0  0  0  0  0  0  0  0  0  0  0  0
   40.9064   11.3525   13.3191 H   0  0  0  0  0  0  0  0  0  0  0  0
   39.3333   10.4595   13.1606 H   0  0  0  0  0  0  0  0  0  0  0  0
   41.8631    9.9652   11.5120 H   0  0  0  0  0  0  0  0  0  0  0  0
   42.1716    9.1646   13.7592 H   0  0  0  0  0  0  0  0  0  0  0  0
   40.5853    8.4057   13.8087 H   0  0  0  0  0  0  0  0  0  0  0  0
   42.6983    7.8231   11.6133 H   0  0  0  0  0  0  0  0  0  0  0  0
   42.6940    7.3195   14.3019 H   0  0  0  0  0  0  0  0  0  0  0  0
   44.1762    5.4801   13.7763 H   0  0  0  0  0  0  0  0  0  0  0  0
   44.6946    4.5236   12.0125 H   0  0  0  0  0  0  0  0  0  0  0  0
   43.3575    5.4285   11.2251 H   0  0  0  0  0  0  0  0  0  0  0  0
   45.0217    6.1046   11.2251 H   0  0  0  0  0  0  0  0  0  0  0  0
   45.0722    7.6684   14.1560 H   0  0  0  0  0  0  0  0  0  0  0  0
   45.8188    7.1676   12.6008 H   0  0  0  0  0  0  0  0  0  0  0  0
   44.3700    8.2296   12.6008 H   0  0  0  0  0  0  0  0  0  0  0  0
   38.1871    4.0362   15.6645 H   0  0  0  0  0  0  0  0  0  0  0  0
   38.6097    5.7345   15.3183 H   0  0  0  0  0  0  0  0  0  0  0  0
   41.8890    5.0628   11.3496 H   0  0  0  0  0  0  0  0  0  0  0  0
   38.3341   10.8404    8.0069 H   0  0  0  0  0  0  0  0  0  0  0  0
  2  1  1  1
  2  3  1  0
  2  4  1  0
  2  5  1  0
  5  6  1  0
  6  7  1  0
  7  8  2  0
  7  9  1  0
  9 10  1  0
 10 11  2  0
 10 41  1  0
 11 12  1  0
 12 13  1  0
 12 16  2  0
 13 14  1  0
 13 15  1  0
 16 17  1  0
 16 40  1  0
 18 17  1  0
 18 19  1  0
 18 37  1  0
 20 19  1  0
 20 21  1  0
 20 33  1  0
 21 22  1  0
 21 25  1  0
 22 23  1  0
 22 24  1  0
 25 26  1  0
 25 27  2  0
 27 28  1  0
 27 31  1  0
 28 29  2  0
 28 30  1  0
 31 32  2  0
 31 33  1  0
 33 34  1  6
 33 35  1  0
 35 36  1  0
 35 37  2  0
 37 38  1  0
 38 39  2  0
 38 40  1  0
 40 41  2  0
 41 42  1  0
  1 43  1  0
  1 44  1  0
  1 45  1  0
  3 46  1  0
  3 47  1  0
  3 48  1  0
  4 49  1  0
  4 50  1  0
  4 51  1  0
  5 52  1  0
  5 53  1  0
  6 54  1  0
  6 55  1  0
  9 56  1  0
 11 57  1  0
 13 58  1  6
 14 59  1  0
 14 60  1  0
 14 61  1  0
 15 62  1  0
 15 63  1  0
 15 64  1  0
 17 65  1  0
 17 66  1  0
 18 67  1  6
 19 68  1  0
 19 69  1  0
 20 70  1  6
 21 71  1  1
 22 72  1  1
 23 73  1  0
 23 74  1  0
 23 75  1  0
 24 76  1  0
 24 77  1  0
 24 78  1  0
 30 79  1  0
 30 80  1  0
 34 81  1  0
 42 82  1  0
M  CHG  5   5   1  13   1  22   1  26  -1  36  -1
M  END
>  <filename_input>  (7) 
6YR2_T1C_docked.sdf

>  <pdb_id>  (7) 
6YR2_T1C

>  <pose_rank>  (7) 
6

>  <num_atoms_heavy>  (7) 
42

>  <num_torsions>  (7) 
7

>  <pose>  (7) 
[38.67710001616919, 13.572482098582178, 9.652103703557962, -2.9091694068772944, -0.5068499096545754, 1.4835840298597336, 5.030453331039945, 1.294146292487599, 2.0516132205647475, -1.6859900478932877, -3.2740408979246394, -0.12572639628023144, 2.0029385344257085]

>  <energy>  (7) 
-542.2742084156246

>  <inter_energy>  (7) 
-704.0990641972503

>  <intra_energy>  (7) 
164.51193800857016

>  <rmsd>  (7) 
11.0664

>  <sdf_rank>  (7) 
0

$$$$

     RDKit          3D

 82 85  0  0  0  0  0  0  0  0999 V2000
   39.0786   18.1068    8.9620 C   0  0  0  0  0  0  0  0  0  0  0  0
   38.6627   18.8867    7.6887 C   0  0  1  0  0  0  0  0  0  0  0  0
   38.0352   20.2923    7.8986 C   0  0  0  0  0  0  0  0  0  0  0  0
   39.9487   19.1024    6.8512 C   0  0  0  0  0  0  0  0  0  0  0  0
   37.6214   18.0646    6.9503 N   0  0  0  0  0  0  0  0  0  0  0  0
   36.2657   17.8612    7.5579 C   0  0  0  0  0  0  0  0  0  0  0  0
   36.4923   17.1356    8.8471 C   0  0  0  0  0  0  0  0  0  0  0  0
   35.9793   17.5372    9.8399 O   0  0  0  0  0  0  0  0  0  0  0  0
   37.2272   16.1078    8.8614 N   0  0  0  0  0  0  0  0  0  0  0  0
   37.5483   15.2570    9.8455 C   0  0  0  0  0  0  0  0  0  0  0  0
   37.2070   15.2951   11.1972 C   0  0  0  0  0  0  0  0  0  0  0  0
   37.5831   14.2286   12.0594 C   0  0  0  0  0  0  0  0  0  0  0  0
   37.3094   14.1785   13.4887 N   0  0  1  0  0  0  0  0  0  0  0  0
   38.6610   13.9536   14.0476 C   0  0  0  0  0  0  0  0  0  0  0  0
   36.8100   15.3350   14.1978 C   0  0  0  0  0  0  0  0  0  0  0  0
   38.3825   13.1750   11.5198 C   0  0  0  0  0  0  0  0  0  0  0  0
   38.7658   11.9643   12.3748 C   0  0  0  0  0  0  0  0  0  0  0  0
   40.0764   11.3545   11.9394 C   0  0  1  0  0  0  0  0  0  0  0  0
   40.4191   10.1467   12.8421 C   0  0  0  0  0  0  0  0  0  0  0  0
   41.6659    9.5585   12.2193 C   0  0  1  0  0  0  0  0  0  0  0  0
   42.1400    8.5148   13.1931 C   0  0  2  0  0  0  0  0  0  0  0  0
   43.5980    8.6025   13.5024 N   0  0  1  0  0  0  0  0  0  0  0  0
   44.3772    7.4036   13.8610 C   0  0  0  0  0  0  0  0  0  0  0  0
   44.2636    9.2045   12.3504 C   0  0  0  0  0  0  0  0  0  0  0  0
   41.7967    7.1307   12.7907 C   0  0  0  0  0  0  0  0  0  0  0  0
   42.5417    6.3089   13.4391 O   0  0  0  0  0  0  0  0  0  0  0  0
   40.9085    6.7596   11.9148 C   0  0  0  0  0  0  0  0  0  0  0  0
   40.2858    5.4098   11.8384 C   0  0  0  0  0  0  0  0  0  0  0  0
   39.1248    5.2828   11.3471 O   0  0  0  0  0  0  0  0  0  0  0  0
   40.8672    4.3576   12.2796 N   0  0  0  0  0  0  0  0  0  0  0  0
   40.4987    7.7118   11.0234 C   0  0  0  0  0  0  0  0  0  0  0  0
   39.4756    7.5889   10.3160 O   0  0  0  0  0  0  0  0  0  0  0  0
   41.3778    8.9707   10.8612 C   0  0  2  0  0  0  0  0  0  0  0  0
   42.5880    8.5860   10.2169 O   0  0  0  0  0  0  0  0  0  0  0  0
   40.7176   10.0086    9.9912 C   0  0  0  0  0  0  0  0  0  0  0  0
   40.8947    9.8073    8.7108 O   0  0  0  0  0  0  0  0  0  0  0  0
   40.0503   11.0922   10.4483 C   0  0  0  0  0  0  0  0  0  0  0  0
   39.4846   12.0191    9.6012 C   0  0  0  0  0  0  0  0  0  0  0  0
   39.5191   12.0194    8.3550 O   0  0  0  0  0  0  0  0  0  0  0  0
   38.6843   13.1315   10.1652 C   0  0  0  0  0  0  0  0  0  0  0  0
   38.2705   14.1900    9.3540 C   0  0  0  0  0  0  0  0  0  0  0  0
   38.5078   14.2090    8.0431 O   0  0  0  0  0  0  0  0  0  0  0  0
   38.7761   18.6740    9.8546 H   0  0  0  0  0  0  0  0  0  0  0  0
   38.5851   17.1238    8.9675 H   0  0  0  0  0  0  0  0  0  0  0  0
   40.1700   17.9692    8.9675 H   0  0  0  0  0  0  0  0  0  0  0  0
   37.9442   20.4960    8.9758 H   0  0  0  0  0  0  0  0  0  0  0  0
   38.6786   21.0541    7.4344 H   0  0  0  0  0  0  0  0  0  0  0  0
   37.0384   20.3218    7.4344 H   0  0  0  0  0  0  0  0  0  0  0  0
   40.8057   19.2461    7.5257 H   0  0  0  0  0  0  0  0  0  0  0  0
   40.1252   18.2213    6.2168 H   0  0  0  0  0  0  0  0  0  0  0  0
   39.8280   19.9929    6.2168 H   0  0  0  0  0  0  0  0  0  0  0  0
   37.4743   18.5193    6.0379 H   0  0  0  0  0  0  0  0  0  0  0  0
   38.0253   17.1171    6.9440 H   0  0  0  0  0  0  0  0  0  0  0  0
   35.7823   18.8312    7.7457 H   0  0  0  0  0  0  0  0  0  0  0  0
   35.6064   17.2910    6.8868 H   0  0  0  0  0  0  0  0  0  0  0  0
   37.6570   15.8836    7.9526 H   0  0  0  0  0  0  0  0  0  0  0  0
   36.6454   16.1522   11.5973 H   0  0  0  0  0  0  0  0  0  0  0  0
   36.5495   13.4925   13.6028 H   0  0  0  0  0  0  0  0  0  0  0  0
   38.6096   13.9622   15.1463 H   0  0  0  0  0  0  0  0  0  0  0  0
   39.0417   12.9798   13.7059 H   0  0  0  0  0  0  0  0  0  0  0  0
   39.3365   14.7517   13.7059 H   0  0  0  0  0  0  0  0  0  0  0  0
   36.8850   15.1614   15.2815 H   0  0  0  0  0  0  0  0  0  0  0  0
   37.4071   16.2179   13.9258 H   0  0  0  0  0  0  0  0  0  0  0  0
   35.7580   15.5059   13.9258 H   0  0  0  0  0  0  0  0  0  0  0  0
   38.8544   12.2842   13.4235 H   0  0  0  0  0  0  0  0  0  0  0  0
   37.9812   11.2027   12.2552 H   0  0  0  0  0  0  0  0  0  0  0  0
   40.9161   12.0507   12.0817 H   0  0  0  0  0  0  0  0  0  0  0  0
   40.6158   10.4743   13.8736 H   0  0  0  0  0  0  0  0  0  0  0  0
   39.5958    9.4197   12.9030 H   0  0  0  0  0  0  0  0  0  0  0  0
   42.4367   10.3236   12.0450 H   0  0  0  0  0  0  0  0  0  0  0  0
   41.5846    8.7493   14.1132 H   0  0  0  0  0  0  0  0  0  0  0  0
   43.5890    9.1395   14.3813 H   0  0  0  0  0  0  0  0  0  0  0  0
   44.4335    7.3169   14.9561 H   0  0  0  0  0  0  0  0  0  0  0  0
   43.8866    6.5102   13.4472 H   0  0  0  0  0  0  0  0  0  0  0  0
   45.3928    7.4890   13.4472 H   0  0  0  0  0  0  0  0  0  0  0  0
   45.0374    9.9045   12.6985 H   0  0  0  0  0  0  0  0  0  0  0  0
   44.7298    8.4152   11.7425 H   0  0  0  0  0  0  0  0  0  0  0  0
   43.5248    9.7474   11.7425 H   0  0  0  0  0  0  0  0  0  0  0  0
   40.4004    3.4424   12.2069 H   0  0  0  0  0  0  0  0  0  0  0  0
   41.8017    4.4265   12.7072 H   0  0  0  0  0  0  0  0  0  0  0  0
   43.2709    8.3688   10.9000 H   0  0  0  0  0  0  0  0  0  0  0  0
   39.0207   13.4743    7.6223 H   0  0  0  0  0  0  0  0  0  0  0  0
  2  1  1  1
  2  3  1  0
  2  4  1  0
  2  5  1  0
  5  6  1  0
  6  7  1  0
  7  8  2  0
  7  9  1  0
  9 10  1  0
 10 11  2  0
 10 41  1  0
 11 12  1  0
 12 13  1  0
 12 16  2  0
 13 14  1  0
 13 15  1  0
 16 17  1  0
 16 40  1  0
 18 17  1  0
 18 19  1  0
 18 37  1  0
 20 19  1  0
 20 21  1  0
 20 33  1  0
 21 22  1  0
 21 25  1  0
 22 23  1  0
 22 24  1  0
 25 26  1  0
 25 27  2  0
 27 28  1  0
 27 31  1  0
 28 29  2  0
 28 30  1  0
 31 32  2  0
 31 33  1  0
 33 34  1  6
 33 35  1  0
 35 36  1  0
 35 37  2  0
 37 38  1  0
 38 39  2  0
 38 40  1  0
 40 41  2  0
 41 42  1  0
  1 43  1  0
  1 44  1  0
  1 45  1  0
  3 46  1  0
  3 47  1  0
  3 48  1  0
  4 49  1  0
  4 50  1  0
  4 51  1  0
  5 52  1  0
  5 53  1  0
  6 54  1  0
  6 55  1  0
  9 56  1  0
 11 57  1  0
 13 58  1  6
 14 59  1  0
 14 60  1  0
 14 61  1  0
 15 62  1  0
 15 63  1  0
 15 64  1  0
 17 65  1  0
 17 66  1  0
 18 67  1  6
 19 68  1  0
 19 69  1  0
 20 70  1  6
 21 71  1  1
 22 72  1  1
 23 73  1  0
 23 74  1  0
 23 75  1  0
 24 76  1  0
 24 77  1  0
 24 78  1  0
 30 79  1  0
 30 80  1  0
 34 81  1  0
 42 82  1  0
M  CHG  5   5   1  13   1  22   1  26  -1  36  -1
M  END
>  <filename_input>  (8) 
6YR2_T1C_docked.sdf

>  <pdb_id>  (8) 
6YR2_T1C

>  <pose_rank>  (8) 
7

>  <num_atoms_heavy>  (8) 
42

>  <num_torsions>  (8) 
7

>  <pose>  (8) 
[37.54833719831585, 15.256963921683177, 9.845483770965199, -2.9485337825594105, -1.1342794557002989, 0.5331949458304903, -0.5507168194941768, -4.39196422582978, 1.9737590043478803, 0.5497346507162294, -6.961280780899146, 4.476329129460532, -0.3703920510597445]

>  <energy>  (8) 
-520.632743840338

>  <inter_energy>  (8) 
-776.4389260868728

>  <intra_energy>  (8) 
258.51680150029085

>  <rmsd>  (8) 
10.578

>  <sdf_rank>  (8) 
0

$$$$

     RDKit          3D

 82 85  0  0  0  0  0  0  0  0999 V2000
   38.3389    3.5886   12.2900 C   0  0  0  0  0  0  0  0  0  0  0  0
   38.7511    4.9513   12.9030 C   0  0  1  0  0  0  0  0  0  0  0  0
   38.0912    5.3433   14.2536 C   0  0  0  0  0  0  0  0  0  0  0  0
   40.2773    4.8854   13.1646 C   0  0  0  0  0  0  0  0  0  0  0  0
   38.3789    6.0446   11.9173 N   0  0  0  0  0  0  0  0  0  0  0  0
   39.3474    6.4393   10.8427 C   0  0  0  0  0  0  0  0  0  0  0  0
   39.8324    7.8087   11.2025 C   0  0  0  0  0  0  0  0  0  0  0  0
   40.8709    7.9300   11.7653 O   0  0  0  0  0  0  0  0  0  0  0  0
   39.1296    8.8156   10.9042 N   0  0  0  0  0  0  0  0  0  0  0  0
   39.3460   10.1290   11.0580 C   0  0  0  0  0  0  0  0  0  0  0  0
   40.1750   10.7911   11.9632 C   0  0  0  0  0  0  0  0  0  0  0  0
   40.3262   12.2033   11.8926 C   0  0  0  0  0  0  0  0  0  0  0  0
   41.1370   12.9997   12.8031 N   0  0  1  0  0  0  0  0  0  0  0  0
   41.4800   12.0089   13.8474 C   0  0  0  0  0  0  0  0  0  0  0  0
   42.4089   13.5485   12.3901 C   0  0  0  0  0  0  0  0  0  0  0  0
   39.5468   12.9179   10.9323 C   0  0  0  0  0  0  0  0  0  0  0  0
   39.7100   14.4300   10.7579 C   0  0  0  0  0  0  0  0  0  0  0  0
   38.4399   15.0854   10.2717 C   0  0  1  0  0  0  0  0  0  0  0  0
   38.6583   16.6092   10.1252 C   0  0  0  0  0  0  0  0  0  0  0  0
   37.3703   17.1124    9.5118 C   0  0  1  0  0  0  0  0  0  0  0  0
   37.4722   18.6125    9.5526 C   0  0  2  0  0  0  0  0  0  0  0  0
   36.2528   19.2811   10.0961 N   0  0  1  0  0  0  0  0  0  0  0  0
   34.9661   18.5675   10.1876 C   0  0  0  0  0  0  0  0  0  0  0  0
   36.5651   19.7543   11.4418 C   0  0  0  0  0  0  0  0  0  0  0  0
   37.8347   19.2166    8.2492 C   0  0  0  0  0  0  0  0  0  0  0  0
   37.5309   20.4650    8.2670 O   0  0  0  0  0  0  0  0  0  0  0  0
   38.3581   18.6180    7.2189 C   0  0  0  0  0  0  0  0  0  0  0  0
   39.0960   19.2907    6.1150 C   0  0  0  0  0  0  0  0  0  0  0  0
   40.0544   20.0733    6.3884 O   0  0  0  0  0  0  0  0  0  0  0  0
   38.7837   19.1348    4.8830 N   0  0  0  0  0  0  0  0  0  0  0  0
   38.2433   17.2561    7.1838 C   0  0  0  0  0  0  0  0  0  0  0  0
   38.9179   16.5341    6.4183 O   0  0  0  0  0  0  0  0  0  0  0  0
   37.1932   16.5990    8.1054 C   0  0  2  0  0  0  0  0  0  0  0  0
   35.8998   16.9323    7.6115 O   0  0  0  0  0  0  0  0  0  0  0  0
   37.3017   15.0963    8.0987 C   0  0  0  0  0  0  0  0  0  0  0  0
   36.6741   14.5310    7.0998 O   0  0  0  0  0  0  0  0  0  0  0  0
   37.9244   14.3601    9.0465 C   0  0  0  0  0  0  0  0  0  0  0  0
   37.9724   12.9846    8.9961 C   0  0  0  0  0  0  0  0  0  0  0  0
   37.4576   12.2448    8.1348 O   0  0  0  0  0  0  0  0  0  0  0  0
   38.7534   12.2430   10.0140 C   0  0  0  0  0  0  0  0  0  0  0  0
   38.6575   10.8532   10.1077 C   0  0  0  0  0  0  0  0  0  0  0  0
   37.9304   10.1368    9.2516 O   0  0  0  0  0  0  0  0  0  0  0  0
   38.1227    2.8737   13.0976 H   0  0  0  0  0  0  0  0  0  0  0  0
   37.4411    3.7226   11.6688 H   0  0  0  0  0  0  0  0  0  0  0  0
   39.1605    3.2025   11.6688 H   0  0  0  0  0  0  0  0  0  0  0  0
   38.7107    4.9753   15.0848 H   0  0  0  0  0  0  0  0  0  0  0  0
   38.0065    6.4382   14.3162 H   0  0  0  0  0  0  0  0  0  0  0  0
   37.0892    4.8938   14.3162 H   0  0  0  0  0  0  0  0  0  0  0  0
   40.4634    4.8774   14.2487 H   0  0  0  0  0  0  0  0  0  0  0  0
   40.6870    3.9688   12.7153 H   0  0  0  0  0  0  0  0  0  0  0  0
   40.7645    5.7634   12.7153 H   0  0  0  0  0  0  0  0  0  0  0  0
   37.5166    5.7388   11.4442 H   0  0  0  0  0  0  0  0  0  0  0  0
   38.3186    6.8873   12.5063 H   0  0  0  0  0  0  0  0  0  0  0  0
   40.1897    5.7326   10.8097 H   0  0  0  0  0  0  0  0  0  0  0  0
   38.8723    6.4294    9.8506 H   0  0  0  0  0  0  0  0  0  0  0  0
   38.2278    8.5852   10.4632 H   0  0  0  0  0  0  0  0  0  0  0  0
   40.7133   10.2195   12.7336 H   0  0  0  0  0  0  0  0  0  0  0  0
   40.5792   13.8406   13.0094 H   0  0  0  0  0  0  0  0  0  0  0  0
   41.3255   12.4551   14.8409 H   0  0  0  0  0  0  0  0  0  0  0  0
   40.8359   11.1238   13.7388 H   0  0  0  0  0  0  0  0  0  0  0  0
   42.5334   11.7115   13.7388 H   0  0  0  0  0  0  0  0  0  0  0  0
   43.0036   13.8051   13.2792 H   0  0  0  0  0  0  0  0  0  0  0  0
   42.9514   12.8044   11.7884 H   0  0  0  0  0  0  0  0  0  0  0  0
   42.2397   14.4537   11.7884 H   0  0  0  0  0  0  0  0  0  0  0  0
   39.9885   14.8709   11.7264 H   0  0  0  0  0  0  0  0  0  0  0  0
   40.4908   14.6018   10.0023 H   0  0  0  0  0  0  0  0  0  0  0  0
   37.6276   14.9939   11.0078 H   0  0  0  0  0  0  0  0  0  0  0  0
   38.8306   17.0746   11.1068 H   0  0  0  0  0  0  0  0  0  0  0  0
   39.5391   16.8512    9.5123 H   0  0  0  0  0  0  0  0  0  0  0  0
   36.4875   16.7555   10.0626 H   0  0  0  0  0  0  0  0  0  0  0  0
   38.2993   18.7958   10.2543 H   0  0  0  0  0  0  0  0  0  0  0  0
   36.0687   19.9907    9.3726 H   0  0  0  0  0  0  0  0  0  0  0  0
   34.7024   18.4213   11.2455 H   0  0  0  0  0  0  0  0  0  0  0  0
   34.1823   19.1599    9.6929 H   0  0  0  0  0  0  0  0  0  0  0  0
   35.0535   17.5890    9.6929 H   0  0  0  0  0  0  0  0  0  0  0  0
   36.1171   19.0755   12.1824 H   0  0  0  0  0  0  0  0  0  0  0  0
   37.6563   19.7774   11.5783 H   0  0  0  0  0  0  0  0  0  0  0  0
   36.1570   20.7667   11.5783 H   0  0  0  0  0  0  0  0  0  0  0  0
   39.3212   19.6195    4.1501 H   0  0  0  0  0  0  0  0  0  0  0  0
   37.9949   18.5247    4.6249 H   0  0  0  0  0  0  0  0  0  0  0  0
   35.2867   17.0903    8.3725 H   0  0  0  0  0  0  0  0  0  0  0  0
   37.4100   10.5915    8.5426 H   0  0  0  0  0  0  0  0  0  0  0  0
  2  1  1  6
  2  3  1  0
  2  4  1  0
  2  5  1  0
  5  6  1  0
  6  7  1  0
  7  8  2  0
  7  9  1  0
  9 10  1  0
 10 11  2  0
 10 41  1  0
 11 12  1  0
 12 13  1  0
 12 16  2  0
 13 14  1  0
 13 15  1  0
 16 17  1  0
 16 40  1  0
 18 17  1  0
 18 19  1  0
 18 37  1  0
 20 19  1  0
 20 21  1  0
 20 33  1  0
 21 22  1  0
 21 25  1  0
 22 23  1  0
 22 24  1  0
 25 26  1  0
 25 27  2  0
 27 28  1  0
 27 31  1  0
 28 29  2  0
 28 30  1  0
 31 32  2  0
 31 33  1  0
 33 34  1  6
 33 35  1  0
 35 36  1  0
 35 37  2  0
 37 38  1  0
 38 39  2  0
 38 40  1  0
 40 41  2  0
 41 42  1  0
  1 43  1  0
  1 44  1  0
  1 45  1  0
  3 46  1  0
  3 47  1  0
  3 48  1  0
  4 49  1  0
  4 50  1  0
  4 51  1  0
  5 52  1  0
  5 53  1  0
  6 54  1  0
  6 55  1  0
  9 56  1  0
 11 57  1  0
 13 58  1  1
 14 59  1  0
 14 60  1  0
 14 61  1  0
 15 62  1  0
 15 63  1  0
 15 64  1  0
 17 65  1  0
 17 66  1  0
 18 67  1  1
 19 68  1  0
 19 69  1  0
 20 70  1  1
 21 71  1  1
 22 72  1  6
 23 73  1  0
 23 74  1  0
 23 75  1  0
 24 76  1  0
 24 77  1  0
 24 78  1  0
 30 79  1  0
 30 80  1  0
 34 81  1  0
 42 82  1  0
M  CHG  5   5   1  13   1  22   1  26  -1  36  -1
M  END
>  <filename_input>  (9) 
6YR2_T1C_docked.sdf

>  <pdb_id>  (9) 
6YR2_T1C

>  <pose_rank>  (9) 
8

>  <num_atoms_heavy>  (9) 
42

>  <num_torsions>  (9) 
7

>  <pose>  (9) 
[39.345971179180935, 10.129008759617156, 11.057992451896128, 0.716451602707873, -2.710498207644437, 0.7855815632394532, -7.1872279672961845, -4.965657054429742, -5.156517437711867, -2.160909326680999, -4.938975002286564, -5.766116177116793, 4.158880788094292]

>  <energy>  (9) 
-649.6472880578717

>  <inter_energy>  (9) 
-682.3095569243794

>  <intra_energy>  (9) 
39.5515076579591

>  <rmsd>  (9) 
4.1921

>  <sdf_rank>  (9) 
0

$$$$

     RDKit          3D

 82 85  0  0  0  0  0  0  0  0999 V2000
   44.6217    2.7625   18.6216 C   0  0  0  0  0  0  0  0  0  0  0  0
   44.9929    2.4910   17.1413 C   0  0  1  0  0  0  0  0  0  0  0  0
   46.4502    2.0361   16.8539 C   0  0  0  0  0  0  0  0  0  0  0  0
   44.0719    1.3466   16.6476 C   0  0  0  0  0  0  0  0  0  0  0  0
   44.7892    3.7768   16.3599 N   0  0  0  0  0  0  0  0  0  0  0  0
   44.9797    3.7820   14.8725 C   0  0  0  0  0  0  0  0  0  0  0  0
   43.6408    4.0973   14.2828 C   0  0  0  0  0  0  0  0  0  0  0  0
   42.9334    3.2093   13.9350 O   0  0  0  0  0  0  0  0  0  0  0  0
   43.2829    5.3031   14.1618 N   0  0  0  0  0  0  0  0  0  0  0  0
   42.1417    5.8533   13.7255 C   0  0  0  0  0  0  0  0  0  0  0  0
   40.8224    5.4964   14.0031 C   0  0  0  0  0  0  0  0  0  0  0  0
   39.7489    6.2819   13.5003 C   0  0  0  0  0  0  0  0  0  0  0  0
   38.3371    5.9859   13.6997 N   0  0  1  0  0  0  0  0  0  0  0  0
   38.2420    4.6033   13.1809 C   0  0  0  0  0  0  0  0  0  0  0  0
   37.7649    5.9174   15.0254 C   0  0  0  0  0  0  0  0  0  0  0  0
   40.0613    7.3824   12.6450 C   0  0  0  0  0  0  0  0  0  0  0  0
   38.9592    8.3084   12.1237 C   0  0  0  0  0  0  0  0  0  0  0  0
   39.3160    8.9202   10.7904 C   0  0  1  0  0  0  0  0  0  0  0  0
   38.1659    9.8340   10.3075 C   0  0  0  0  0  0  0  0  0  0  0  0
   38.7047   10.4768    9.0487 C   0  0  1  0  0  0  0  0  0  0  0  0
   37.5357   11.2055    8.4448 C   0  0  2  0  0  0  0  0  0  0  0  0
   37.3568   10.9455    6.9855 N   0  0  1  0  0  0  0  0  0  0  0  0
   36.0150   10.7873    6.3958 C   0  0  0  0  0  0  0  0  0  0  0  0
   38.0093   12.0288    6.2554 C   0  0  0  0  0  0  0  0  0  0  0  0
   37.5563   12.6660    8.6936 C   0  0  0  0  0  0  0  0  0  0  0  0
   36.7751   13.2451    7.8538 O   0  0  0  0  0  0  0  0  0  0  0  0
   38.2504   13.3053    9.5900 C   0  0  0  0  0  0  0  0  0  0  0  0
   37.9457   14.6687   10.1038 C   0  0  0  0  0  0  0  0  0  0  0  0
   38.5597   15.6691    9.6266 O   0  0  0  0  0  0  0  0  0  0  0  0
   37.0986   14.8776   11.0411 N   0  0  0  0  0  0  0  0  0  0  0  0
   39.3213   12.6397   10.1183 C   0  0  0  0  0  0  0  0  0  0  0  0
   39.9053   13.0057   11.1611 O   0  0  0  0  0  0  0  0  0  0  0  0
   39.8509   11.4075    9.3533 C   0  0  2  0  0  0  0  0  0  0  0  0
   40.4588   11.8618    8.1484 O   0  0  0  0  0  0  0  0  0  0  0  0
   40.9057   10.6705   10.1369 C   0  0  0  0  0  0  0  0  0  0  0  0
   42.1044   11.1777   10.0062 O   0  0  0  0  0  0  0  0  0  0  0  0
   40.6894    9.5533   10.8671 C   0  0  0  0  0  0  0  0  0  0  0  0
   41.7008    8.9111   11.5466 C   0  0  0  0  0  0  0  0  0  0  0  0
   42.9072    9.2247   11.5725 O   0  0  0  0  0  0  0  0  0  0  0  0
   41.3794    7.7479   12.4065 C   0  0  0  0  0  0  0  0  0  0  0  0
   42.3992    6.9596   12.9436 C   0  0  0  0  0  0  0  0  0  0  0  0
   43.6862    7.2579   12.7722 O   0  0  0  0  0  0  0  0  0  0  0  0
   45.3333    2.2421   19.2794 H   0  0  0  0  0  0  0  0  0  0  0  0
   44.6642    3.8440   18.8179 H   0  0  0  0  0  0  0  0  0  0  0  0
   43.6040    2.3940   18.8179 H   0  0  0  0  0  0  0  0  0  0  0  0
   46.9773    1.8715   17.8053 H   0  0  0  0  0  0  0  0  0  0  0  0
   46.4349    1.1000   16.2765 H   0  0  0  0  0  0  0  0  0  0  0  0
   46.9702    2.8146   16.2765 H   0  0  0  0  0  0  0  0  0  0  0  0
   43.6468    0.8184   17.5138 H   0  0  0  0  0  0  0  0  0  0  0  0
   43.2578    1.7676   16.0392 H   0  0  0  0  0  0  0  0  0  0  0  0
   44.6572    0.6414   16.0392 H   0  0  0  0  0  0  0  0  0  0  0  0
   43.8224    4.0842   16.5379 H   0  0  0  0  0  0  0  0  0  0  0  0
   45.5467    4.3861   16.7002 H   0  0  0  0  0  0  0  0  0  0  0  0
   45.7137    4.5490   14.5845 H   0  0  0  0  0  0  0  0  0  0  0  0
   45.3590    2.8141   14.5129 H   0  0  0  0  0  0  0  0  0  0  0  0
   43.9974    5.9864   14.4508 H   0  0  0  0  0  0  0  0  0  0  0  0
   40.6117    4.6051   14.6124 H   0  0  0  0  0  0  0  0  0  0  0  0
   37.8250    6.7683   13.2678 H   0  0  0  0  0  0  0  0  0  0  0  0
   38.1936    3.8979   14.0236 H   0  0  0  0  0  0  0  0  0  0  0  0
   37.3349    4.5036   12.5667 H   0  0  0  0  0  0  0  0  0  0  0  0
   39.1270    4.3805   12.5667 H   0  0  0  0  0  0  0  0  0  0  0  0
   38.5642    6.0131   15.7751 H   0  0  0  0  0  0  0  0  0  0  0  0
   37.0409    6.7354   15.1550 H   0  0  0  0  0  0  0  0  0  0  0  0
   37.2543    4.9518   15.1550 H   0  0  0  0  0  0  0  0  0  0  0  0
   38.0318    7.7278   12.0108 H   0  0  0  0  0  0  0  0  0  0  0  0
   38.8322    9.1258   12.8487 H   0  0  0  0  0  0  0  0  0  0  0  0
   39.4085    8.1565   10.0042 H   0  0  0  0  0  0  0  0  0  0  0  0
   37.2642    9.2432   10.0885 H   0  0  0  0  0  0  0  0  0  0  0  0
   37.8705   10.5748   11.0651 H   0  0  0  0  0  0  0  0  0  0  0  0
   39.1157    9.7314    8.3519 H   0  0  0  0  0  0  0  0  0  0  0  0
   36.6679   10.7827    8.9723 H   0  0  0  0  0  0  0  0  0  0  0  0
   37.7580   10.0011    6.8951 H   0  0  0  0  0  0  0  0  0  0  0  0
   35.2693   10.6994    7.1996 H   0  0  0  0  0  0  0  0  0  0  0  0
   35.7822   11.6642    5.7738 H   0  0  0  0  0  0  0  0  0  0  0  0
   35.9924    9.8803    5.7738 H   0  0  0  0  0  0  0  0  0  0  0  0
   38.4406   12.7450    6.9703 H   0  0  0  0  0  0  0  0  0  0  0  0
   38.8087   11.6154    5.6230 H   0  0  0  0  0  0  0  0  0  0  0  0
   37.2700   12.5421    5.6230 H   0  0  0  0  0  0  0  0  0  0  0  0
   36.9176   15.8378   11.3670 H   0  0  0  0  0  0  0  0  0  0  0  0
   36.5982   14.0856   11.4690 H   0  0  0  0  0  0  0  0  0  0  0  0
   41.2323   12.4399    8.3666 H   0  0  0  0  0  0  0  0  0  0  0  0
   43.9442    8.0397   12.2222 H   0  0  0  0  0  0  0  0  0  0  0  0
  2  1  1  1
  2  3  1  0
  2  4  1  0
  2  5  1  0
  5  6  1  0
  6  7  1  0
  7  8  2  0
  7  9  1  0
  9 10  1  0
 10 11  2  0
 10 41  1  0
 11 12  1  0
 12 13  1  0
 12 16  2  0
 13 14  1  0
 13 15  1  0
 16 17  1  0
 16 40  1  0
 18 17  1  0
 18 19  1  0
 18 37  1  0
 20 19  1  0
 20 21  1  0
 20 33  1  0
 21 22  1  0
 21 25  1  0
 22 23  1  0
 22 24  1  0
 25 26  1  0
 25 27  2  0
 27 28  1  0
 27 31  1  0
 28 29  2  0
 28 30  1  0
 31 32  2  0
 31 33  1  0
 33 34  1  6
 33 35  1  0
 35 36  1  0
 35 37  2  0
 37 38  1  0
 38 39  2  0
 38 40  1  0
 40 41  2  0
 41 42  1  0
  1 43  1  0
  1 44  1  0
  1 45  1  0
  3 46  1  0
  3 47  1  0
  3 48  1  0
  4 49  1  0
  4 50  1  0
  4 51  1  0
  5 52  1  0
  5 53  1  0
  6 54  1  0
  6 55  1  0
  9 56  1  0
 11 57  1  0
 13 58  1  6
 14 59  1  0
 14 60  1  0
 14 61  1  0
 15 62  1  0
 15 63  1  0
 15 64  1  0
 17 65  1  0
 17 66  1  0
 18 67  1  6
 19 68  1  0
 19 69  1  0
 20 70  1  6
 21 71  1  1
 22 72  1  6
 23 73  1  0
 23 74  1  0
 23 75  1  0
 24 76  1  0
 24 77  1  0
 24 78  1  0
 30 79  1  0
 30 80  1  0
 34 81  1  0
 42 82  1  0
M  CHG  5   5   1  13   1  22   1  26  -1  36  -1
M  END
>  <filename_input>  (10) 
6YR2_T1C_docked.sdf

>  <pdb_id>  (10) 
6YR2_T1C

>  <pose_rank>  (10) 
9

>  <num_atoms_heavy>  (10) 
42

>  <num_torsions>  (10) 
7

>  <pose>  (10) 
[42.1417299528333, 5.853295843427997, 13.725461590709543, -0.7720347951100144, 0.9936893011277771, -0.33613323113793553, 25.406189013426783, 23.07918766522003, 30.2009633443597, -28.83024106909281, 6.836630402493948, -3.0068982558767745, 1.5374251003991442]

>  <energy>  (10) 
-629.3941297155195

>  <inter_energy>  (10) 
-702.4605380055979

>  <intra_energy>  (10) 
77.28214619441167

>  <rmsd>  (10) 
6.18648

>  <sdf_rank>  (10) 
0

$$$$

     RDKit          3D

 82 85  0  0  0  0  0  0  0  0999 V2000
   31.7743   13.3283    1.6969 C   0  0  0  0  0  0  0  0  0  0  0  0
   33.2386   13.4914    1.2154 C   0  0  1  0  0  0  0  0  0  0  0  0
   33.7383   12.4946    0.1337 C   0  0  0  0  0  0  0  0  0  0  0  0
   33.3543   14.9062    0.5934 C   0  0  0  0  0  0  0  0  0  0  0  0
   34.1530   13.3087    2.4137 N   0  0  0  0  0  0  0  0  0  0  0  0
   33.6106   13.4953    3.7992 C   0  0  0  0  0  0  0  0  0  0  0  0
   34.7895   13.7986    4.6699 C   0  0  0  0  0  0  0  0  0  0  0  0
   35.5406   14.6624    4.3541 O   0  0  0  0  0  0  0  0  0  0  0  0
   34.9699   13.1305    5.7272 N   0  0  0  0  0  0  0  0  0  0  0  0
   35.8929   13.2262    6.6939 C   0  0  0  0  0  0  0  0  0  0  0  0
   36.3404   14.3525    7.3841 C   0  0  0  0  0  0  0  0  0  0  0  0
   37.2735   14.2141    8.4483 C   0  0  0  0  0  0  0  0  0  0  0  0
   37.8318   15.3198    9.2139 N   0  0  1  0  0  0  0  0  0  0  0  0
   38.1232   16.3069    8.1506 C   0  0  0  0  0  0  0  0  0  0  0  0
   37.0326   16.0456   10.1754 C   0  0  0  0  0  0  0  0  0  0  0  0
   37.7922   12.9125    8.7256 C   0  0  0  0  0  0  0  0  0  0  0  0
   38.7481   12.6824    9.8991 C   0  0  0  0  0  0  0  0  0  0  0  0
   39.6824   11.5229    9.6508 C   0  0  1  0  0  0  0  0  0  0  0  0
   40.6301   11.3443   10.8594 C   0  0  0  0  0  0  0  0  0  0  0  0
   41.4067   10.0858   10.5406 C   0  0  1  0  0  0  0  0  0  0  0  0
   42.4782   10.0047   11.5931 C   0  0  2  0  0  0  0  0  0  0  0  0
   43.8393    9.7336   11.0424 N   0  0  1  0  0  0  0  0  0  0  0  0
   44.3280    8.3554   10.8555 C   0  0  0  0  0  0  0  0  0  0  0  0
   43.9339   10.3907    9.7418 C   0  0  0  0  0  0  0  0  0  0  0  0
   42.1743    9.0375   12.6736 C   0  0  0  0  0  0  0  0  0  0  0  0
   43.2610    8.7490   13.2955 O   0  0  0  0  0  0  0  0  0  0  0  0
   41.0168    8.5212   12.9697 C   0  0  0  0  0  0  0  0  0  0  0  0
   40.6544    7.9139   14.2794 C   0  0  0  0  0  0  0  0  0  0  0  0
   40.2844    8.6601   15.2344 O   0  0  0  0  0  0  0  0  0  0  0  0
   40.7277    6.6543   14.4979 N   0  0  0  0  0  0  0  0  0  0  0  0
   40.0565    8.5846   11.9987 C   0  0  0  0  0  0  0  0  0  0  0  0
   38.8434    8.3849   12.2248 O   0  0  0  0  0  0  0  0  0  0  0  0
   40.5142    8.8707   10.5521 C   0  0  2  0  0  0  0  0  0  0  0  0
   41.2196    7.7288   10.0766 O   0  0  0  0  0  0  0  0  0  0  0  0
   39.3461    9.0931    9.6269 C   0  0  0  0  0  0  0  0  0  0  0  0
   38.8250    7.9849    9.1667 O   0  0  0  0  0  0  0  0  0  0  0  0
   38.8874   10.3031    9.2349 C   0  0  0  0  0  0  0  0  0  0  0  0
   37.8258   10.4421    8.3685 C   0  0  0  0  0  0  0  0  0  0  0  0
   37.1765    9.5292    7.8215 O   0  0  0  0  0  0  0  0  0  0  0  0
   37.3111   11.7958    8.0550 C   0  0  0  0  0  0  0  0  0  0  0  0
   36.3758   11.9804    7.0348 C   0  0  0  0  0  0  0  0  0  0  0  0
   35.8563   10.9559    6.3600 O   0  0  0  0  0  0  0  0  0  0  0  0
   31.7481   13.3254    2.7966 H   0  0  0  0  0  0  0  0  0  0  0  0
   31.1684   14.1645    1.3179 H   0  0  0  0  0  0  0  0  0  0  0  0
   31.3673   12.3793    1.3179 H   0  0  0  0  0  0  0  0  0  0  0  0
   34.1798   11.6138    0.6228 H   0  0  0  0  0  0  0  0  0  0  0  0
   32.8915   12.1796   -0.4938 H   0  0  0  0  0  0  0  0  0  0  0  0
   34.4973   12.9846   -0.4938 H   0  0  0  0  0  0  0  0  0  0  0  0
   33.4156   15.6557    1.3962 H   0  0  0  0  0  0  0  0  0  0  0  0
   34.2599   14.9603   -0.0287 H   0  0  0  0  0  0  0  0  0  0  0  0
   32.4695   15.1067   -0.0287 H   0  0  0  0  0  0  0  0  0  0  0  0
   34.5213   12.3481    2.3643 H   0  0  0  0  0  0  0  0  0  0  0  0
   34.8310   14.0780    2.3166 H   0  0  0  0  0  0  0  0  0  0  0  0
   32.8959   14.3312    3.8198 H   0  0  0  0  0  0  0  0  0  0  0  0
   33.0760   12.5984    4.1452 H   0  0  0  0  0  0  0  0  0  0  0  0
   34.2837   12.3762    5.8721 H   0  0  0  0  0  0  0  0  0  0  0  0
   35.9707   15.3501    7.1047 H   0  0  0  0  0  0  0  0  0  0  0  0
   38.5750   14.9080    9.7961 H   0  0  0  0  0  0  0  0  0  0  0  0
   38.4063   17.2662    8.6085 H   0  0  0  0  0  0  0  0  0  0  0  0
   38.9513   15.9399    7.5265 H   0  0  0  0  0  0  0  0  0  0  0  0
   37.2285   16.4484    7.5265 H   0  0  0  0  0  0  0  0  0  0  0  0
   37.3406   15.7659   11.1937 H   0  0  0  0  0  0  0  0  0  0  0  0
   37.1784   17.1264   10.0320 H   0  0  0  0  0  0  0  0  0  0  0  0
   35.9708   15.7966   10.0320 H   0  0  0  0  0  0  0  0  0  0  0  0
   39.3458   13.5929   10.0537 H   0  0  0  0  0  0  0  0  0  0  0  0
   38.1437   12.4466   10.7874 H   0  0  0  0  0  0  0  0  0  0  0  0
   40.3540   11.7165    8.8014 H   0  0  0  0  0  0  0  0  0  0  0  0
   41.3068   12.2062   10.9551 H   0  0  0  0  0  0  0  0  0  0  0  0
   40.0870   11.2734   11.8134 H   0  0  0  0  0  0  0  0  0  0  0  0
   41.8393   10.1165    9.5297 H   0  0  0  0  0  0  0  0  0  0  0  0
   42.4858   11.0134   12.0316 H   0  0  0  0  0  0  0  0  0  0  0  0
   44.4409   10.0878   11.7997 H   0  0  0  0  0  0  0  0  0  0  0  0
   44.4935    7.8887   11.8377 H   0  0  0  0  0  0  0  0  0  0  0  0
   43.5811    7.7744   10.2946 H   0  0  0  0  0  0  0  0  0  0  0  0
   45.2741    8.3748   10.2946 H   0  0  0  0  0  0  0  0  0  0  0  0
   44.0894   11.4700    9.8867 H   0  0  0  0  0  0  0  0  0  0  0  0
   44.7808    9.9705    9.1794 H   0  0  0  0  0  0  0  0  0  0  0  0
   43.0029   10.2267    9.1794 H   0  0  0  0  0  0  0  0  0  0  0  0
   40.4670    6.2755   15.4196 H   0  0  0  0  0  0  0  0  0  0  0  0
   41.0473    6.0200   13.7520 H   0  0  0  0  0  0  0  0  0  0  0  0
   41.5469    7.1990   10.8462 H   0  0  0  0  0  0  0  0  0  0  0  0
   36.1570   10.0326    6.5530 H   0  0  0  0  0  0  0  0  0  0  0  0
  2  1  1  1
  2  3  1  0
  2  4  1  0
  2  5  1  0
  5  6  1  0
  6  7  1  0
  7  8  2  0
  7  9  1  0
  9 10  1  0
 10 11  2  0
 10 41  1  0
 11 12  1  0
 12 13  1  0
 12 16  2  0
 13 14  1  0
 13 15  1  0
 16 17  1  0
 16 40  1  0
 18 17  1  0
 18 19  1  0
 18 37  1  0
 20 19  1  0
 20 21  1  0
 20 33  1  0
 21 22  1  0
 21 25  1  0
 22 23  1  0
 22 24  1  0
 25 26  1  0
 25 27  2  0
 27 28  1  0
 27 31  1  0
 28 29  2  0
 28 30  1  0
 31 32  2  0
 31 33  1  0
 33 34  1  6
 33 35  1  0
 35 36  1  0
 35 37  2  0
 37 38  1  0
 38 39  2  0
 38 40  1  0
 40 41  2  0
 41 42  1  0
  1 43  1  0
  1 44  1  0
  1 45  1  0
  3 46  1  0
  3 47  1  0
  3 48  1  0
  4 49  1  0
  4 50  1  0
  4 51  1  0
  5 52  1  0
  5 53  1  0
  6 54  1  0
  6 55  1  0
  9 56  1  0
 11 57  1  0
 13 58  1  1
 14 59  1  0
 14 60  1  0
 14 61  1  0
 15 62  1  0
 15 63  1  0
 15 64  1  0
 17 65  1  0
 17 66  1  0
 18 67  1  6
 19 68  1  0
 19 69  1  0
 20 70  1  6
 21 71  1  1
 22 72  1  1
 23 73  1  0
 23 74  1  0
 23 75  1  0
 24 76  1  0
 24 77  1  0
 24 78  1  0
 30 79  1  0
 30 80  1  0
 34 81  1  0
 42 82  1  0
M  CHG  5   5   1  13   1  22   1  26  -1  36  -1
M  END
>  <filename_input>  (11) 
6YR2_T1C_docked.sdf

>  <pdb_id>  (11) 
6YR2_T1C

>  <pose_rank>  (11) 
10

>  <num_atoms_heavy>  (11) 
42

>  <num_torsions>  (11) 
7

>  <pose>  (11) 
[35.89286322282888, 13.226227823368035, 6.693866094227644, -2.976549657636391, -0.6811767514150033, 2.2839046747500626, 0.34226284985217054, 0.5077562691761812, 0.2953257764555531, -0.9992231985508307, 0.7680691435190073, -0.7411422934221297, -1.5859970693083658]

>  <energy>  (11) 
-561.6265833523289

>  <inter_energy>  (11) 
-599.1004592991411

>  <intra_energy>  (11) 
35.947425955368615

>  <rmsd>  (11) 
10.425

>  <sdf_rank>  (11) 
0

$$$$

     RDKit          3D

 82 85  0  0  0  0  0  0  0  0999 V2000
   45.0504    3.7008   16.7239 C   0  0  0  0  0  0  0  0  0  0  0  0
   44.2173    2.7396   15.8380 C   0  0  1  0  0  0  0  0  0  0  0  0
   44.9087    1.4245   15.3844 C   0  0  0  0  0  0  0  0  0  0  0  0
   42.9790    2.3187   16.6695 C   0  0  0  0  0  0  0  0  0  0  0  0
   43.8379    3.4783   14.5669 N   0  0  0  0  0  0  0  0  0  0  0  0
   42.4120    3.8817   14.3378 C   0  0  0  0  0  0  0  0  0  0  0  0
   42.4534    5.2941   13.8447 C   0  0  0  0  0  0  0  0  0  0  0  0
   42.7488    6.1652   14.5957 O   0  0  0  0  0  0  0  0  0  0  0  0
   42.1719    5.5399   12.6376 N   0  0  0  0  0  0  0  0  0  0  0  0
   42.1815    6.6816   11.9362 C   0  0  0  0  0  0  0  0  0  0  0  0
   43.2543    7.3540   11.3515 C   0  0  0  0  0  0  0  0  0  0  0  0
   43.0257    8.5166   10.5651 C   0  0  0  0  0  0  0  0  0  0  0  0
   44.0695    9.3140    9.9364 N   0  0  1  0  0  0  0  0  0  0  0  0
   44.6614   10.0092   11.1010 C   0  0  0  0  0  0  0  0  0  0  0  0
   45.1935    8.6908    9.2746 C   0  0  0  0  0  0  0  0  0  0  0  0
   41.6897    9.0121   10.4663 C   0  0  0  0  0  0  0  0  0  0  0  0
   41.3638   10.2190    9.5825 C   0  0  0  0  0  0  0  0  0  0  0  0
   40.1714   10.9908   10.0937 C   0  0  1  0  0  0  0  0  0  0  0  0
   39.8957   12.2018    9.1725 C   0  0  0  0  0  0  0  0  0  0  0  0
   38.6152   12.7977    9.7144 C   0  0  1  0  0  0  0  0  0  0  0  0
   38.4374   14.0943    8.9730 C   0  0  2  0  0  0  0  0  0  0  0  0
   38.1233   15.2534    9.8602 N   0  0  1  0  0  0  0  0  0  0  0  0
   38.5873   16.6140    9.5339 C   0  0  0  0  0  0  0  0  0  0  0  0
   36.6717   15.3288    9.9995 C   0  0  0  0  0  0  0  0  0  0  0  0
   37.4417   14.0183    7.8784 C   0  0  0  0  0  0  0  0  0  0  0  0
   37.0744   15.2084    7.5628 O   0  0  0  0  0  0  0  0  0  0  0  0
   36.9708   12.9456    7.3114 C   0  0  0  0  0  0  0  0  0  0  0  0
   36.3274   12.8921    5.9702 C   0  0  0  0  0  0  0  0  0  0  0  0
   35.0720   13.0330    5.8721 O   0  0  0  0  0  0  0  0  0  0  0  0
   36.9913   12.6783    4.8963 N   0  0  0  0  0  0  0  0  0  0  0  0
   37.1220   11.7760    8.0030 C   0  0  0  0  0  0  0  0  0  0  0  0
   36.9727   10.6503    7.4805 O   0  0  0  0  0  0  0  0  0  0  0  0
   37.4460   11.8682    9.5098 C   0  0  2  0  0  0  0  0  0  0  0  0
   36.2919   12.3625   10.1816 O   0  0  0  0  0  0  0  0  0  0  0  0
   37.7641   10.5188   10.0996 C   0  0  0  0  0  0  0  0  0  0  0  0
   36.7032    9.8346   10.4426 O   0  0  0  0  0  0  0  0  0  0  0  0
   39.0106   10.0470   10.3272 C   0  0  0  0  0  0  0  0  0  0  0  0
   39.2379    8.8105   10.8897 C   0  0  0  0  0  0  0  0  0  0  0  0
   38.3817    7.9918   11.2784 O   0  0  0  0  0  0  0  0  0  0  0  0
   40.6272    8.3127   11.0231 C   0  0  0  0  0  0  0  0  0  0  0  0
   40.9002    7.1619   11.7651 C   0  0  0  0  0  0  0  0  0  0  0  0
   39.9317    6.4297   12.3137 O   0  0  0  0  0  0  0  0  0  0  0  0
   44.8592    3.4802   17.7845 H   0  0  0  0  0  0  0  0  0  0  0  0
   46.1202    3.5638   16.5080 H   0  0  0  0  0  0  0  0  0  0  0  0
   44.7629    4.7403   16.5080 H   0  0  0  0  0  0  0  0  0  0  0  0
   45.2127    0.8461   16.2692 H   0  0  0  0  0  0  0  0  0  0  0  0
   44.2064    0.8302   14.7814 H   0  0  0  0  0  0  0  0  0  0  0  0
   45.7964    1.6660   14.7814 H   0  0  0  0  0  0  0  0  0  0  0  0
   43.2128    2.3982   17.7414 H   0  0  0  0  0  0  0  0  0  0  0  0
   42.1336    2.9799   16.4286 H   0  0  0  0  0  0  0  0  0  0  0  0
   42.7117    1.2792   16.4286 H   0  0  0  0  0  0  0  0  0  0  0  0
   44.3994    4.3415   14.5445 H   0  0  0  0  0  0  0  0  0  0  0  0
   44.0122    2.7845   13.8260 H   0  0  0  0  0  0  0  0  0  0  0  0
   41.9468    3.2282   13.5851 H   0  0  0  0  0  0  0  0  0  0  0  0
   41.8172    3.7953   15.2591 H   0  0  0  0  0  0  0  0  0  0  0  0
   41.8829    4.7136   12.0949 H   0  0  0  0  0  0  0  0  0  0  0  0
   44.2798    6.9843   11.4991 H   0  0  0  0  0  0  0  0  0  0  0  0
   43.6065    9.8255    9.1717 H   0  0  0  0  0  0  0  0  0  0  0  0
   44.2790    9.5600   12.0294 H   0  0  0  0  0  0  0  0  0  0  0  0
   45.7564    9.9100   11.0696 H   0  0  0  0  0  0  0  0  0  0  0  0
   44.3886   11.0744   11.0696 H   0  0  0  0  0  0  0  0  0  0  0  0
   45.8938    8.3025   10.0287 H   0  0  0  0  0  0  0  0  0  0  0  0
   44.8354    7.8624    8.6457 H   0  0  0  0  0  0  0  0  0  0  0  0
   45.7065    9.4333    8.6457 H   0  0  0  0  0  0  0  0  0  0  0  0
   42.2365   10.8882    9.5600 H   0  0  0  0  0  0  0  0  0  0  0  0
   41.1207    9.8467    8.5764 H   0  0  0  0  0  0  0  0  0  0  0  0
   40.3674   11.4355   11.0806 H   0  0  0  0  0  0  0  0  0  0  0  0
   40.7187   12.9296    9.2284 H   0  0  0  0  0  0  0  0  0  0  0  0
   39.8115   11.9149    8.1140 H   0  0  0  0  0  0  0  0  0  0  0  0
   38.6673   12.9612   10.8009 H   0  0  0  0  0  0  0  0  0  0  0  0
   39.4253   14.2714    8.5226 H   0  0  0  0  0  0  0  0  0  0  0  0
   38.6710   15.0217   10.7013 H   0  0  0  0  0  0  0  0  0  0  0  0
   38.7768   17.1697   10.4640 H   0  0  0  0  0  0  0  0  0  0  0  0
   39.5158   16.5539    8.9470 H   0  0  0  0  0  0  0  0  0  0  0  0
   37.8156   17.1336    8.9470 H   0  0  0  0  0  0  0  0  0  0  0  0
   36.4060   15.3426   11.0668 H   0  0  0  0  0  0  0  0  0  0  0  0
   36.3044   16.2473    9.5183 H   0  0  0  0  0  0  0  0  0  0  0  0
   36.2112   14.4534    9.5183 H   0  0  0  0  0  0  0  0  0  0  0  0
   36.5063   12.6492    3.9882 H   0  0  0  0  0  0  0  0  0  0  0  0
   38.0104   12.5354    4.9407 H   0  0  0  0  0  0  0  0  0  0  0  0
   36.4292   12.3037   11.1603 H   0  0  0  0  0  0  0  0  0  0  0  0
   38.9875    6.7153   12.2299 H   0  0  0  0  0  0  0  0  0  0  0  0
  2  1  1  1
  2  3  1  0
  2  4  1  0
  2  5  1  0
  5  6  1  0
  6  7  1  0
  7  8  2  0
  7  9  1  0
  9 10  1  0
 10 11  2  0
 10 41  1  0
 11 12  1  0
 12 13  1  0
 12 16  2  0
 13 14  1  0
 13 15  1  0
 16 17  1  0
 16 40  1  0
 18 17  1  0
 18 19  1  0
 18 37  1  0
 20 19  1  0
 20 21  1  0
 20 33  1  0
 21 22  1  0
 21 25  1  0
 22 23  1  0
 22 24  1  0
 25 26  1  0
 25 27  2  0
 27 28  1  0
 27 31  1  0
 28 29  2  0
 28 30  1  0
 31 32  2  0
 31 33  1  0
 33 34  1  1
 33 35  1  0
 35 36  1  0
 35 37  2  0
 37 38  1  0
 38 39  2  0
 38 40  1  0
 40 41  2  0
 41 42  1  0
  1 43  1  0
  1 44  1  0
  1 45  1  0
  3 46  1  0
  3 47  1  0
  3 48  1  0
  4 49  1  0
  4 50  1  0
  4 51  1  0
  5 52  1  0
  5 53  1  0
  6 54  1  0
  6 55  1  0
  9 56  1  0
 11 57  1  0
 13 58  1  6
 14 59  1  0
 14 60  1  0
 14 61  1  0
 15 62  1  0
 15 63  1  0
 15 64  1  0
 17 65  1  0
 17 66  1  0
 18 67  1  1
 19 68  1  0
 19 69  1  0
 20 70  1  1
 21 71  1  6
 22 72  1  1
 23 73  1  0
 23 74  1  0
 23 75  1  0
 24 76  1  0
 24 77  1  0
 24 78  1  0
 30 79  1  0
 30 80  1  0
 34 81  1  0
 42 82  1  0
M  CHG  5   5   1  13   1  22   1  26  -1  36  -1
M  END
>  <filename_input>  (12) 
6YR2_T1C_docked.sdf

>  <pdb_id>  (12) 
6YR2_T1C

>  <pose_rank>  (12) 
11

>  <num_atoms_heavy>  (12) 
42

>  <num_torsions>  (12) 
7

>  <pose>  (12) 
[42.181452021163956, 6.681592676637241, 11.936233179055497, 0.6265459007396499, -1.528343285591057, 0.7642674845839815, 0.9096664705910346, 4.6518196108955285, -0.8795547157955642, -2.5455624788861853, 0.2364149492318096, -2.894556127133197, 1.659687708613445]

>  <energy>  (12) 
-565.4365761876579

>  <inter_energy>  (12) 
-630.7428620498861

>  <intra_energy>  (12) 
76.81555502174945

>  <rmsd>  (12) 
5.42561

>  <sdf_rank>  (12) 
0

$$$$

     RDKit          3D

 82 85  0  0  0  0  0  0  0  0999 V2000
   34.3100   15.0498   19.3332 C   0  0  0  0  0  0  0  0  0  0  0  0
   35.0723   16.3991   19.3048 C   0  0  1  0  0  0  0  0  0  0  0  0
   34.4020   17.6008   20.0259 C   0  0  0  0  0  0  0  0  0  0  0  0
   36.4303   16.1653   20.0141 C   0  0  0  0  0  0  0  0  0  0  0  0
   35.2404   16.8162   17.8546 N   0  0  0  0  0  0  0  0  0  0  0  0
   35.9216   18.1111   17.5266 C   0  0  0  0  0  0  0  0  0  0  0  0
   36.5063   17.9390   16.1597 C   0  0  0  0  0  0  0  0  0  0  0  0
   37.4846   18.5433   15.8638 O   0  0  0  0  0  0  0  0  0  0  0  0
   35.9500   17.1549   15.3396 N   0  0  0  0  0  0  0  0  0  0  0  0
   36.2855   16.7821   14.0971 C   0  0  0  0  0  0  0  0  0  0  0  0
   36.1911   17.4945   12.9018 C   0  0  0  0  0  0  0  0  0  0  0  0
   36.6949   16.9353   11.6952 C   0  0  0  0  0  0  0  0  0  0  0  0
   36.6210   17.5733   10.3883 N   0  0  1  0  0  0  0  0  0  0  0  0
   35.2312   18.0813   10.3782 C   0  0  0  0  0  0  0  0  0  0  0  0
   37.4325   18.7264   10.0695 C   0  0  0  0  0  0  0  0  0  0  0  0
   37.2158   15.6058   11.7339 C   0  0  0  0  0  0  0  0  0  0  0  0
   37.8345   14.9689   10.4868 C   0  0  0  0  0  0  0  0  0  0  0  0
   37.6939   13.4658   10.4882 C   0  0  1  0  0  0  0  0  0  0  0  0
   38.3237   12.8784    9.2040 C   0  0  0  0  0  0  0  0  0  0  0  0
   38.2352   11.3807    9.3976 C   0  0  1  0  0  0  0  0  0  0  0  0
   38.6460   10.7863    8.0784 C   0  0  2  0  0  0  0  0  0  0  0  0
   37.7177    9.7265    7.5840 N   0  0  1  0  0  0  0  0  0  0  0  0
   36.6608    9.1715    8.4489 C   0  0  0  0  0  0  0  0  0  0  0  0
   37.0538   10.2368    6.3876 C   0  0  0  0  0  0  0  0  0  0  0  0
   40.0374   10.2774    8.0664 C   0  0  0  0  0  0  0  0  0  0  0  0
   40.1790    9.4679    7.0786 O   0  0  0  0  0  0  0  0  0  0  0  0
   40.9894   10.5592    8.9080 C   0  0  0  0  0  0  0  0  0  0  0  0
   42.4457   10.3959    8.6473 C   0  0  0  0  0  0  0  0  0  0  0  0
   43.1771   11.4222    8.5154 O   0  0  0  0  0  0  0  0  0  0  0  0
   42.9976    9.2475    8.5196 N   0  0  0  0  0  0  0  0  0  0  0  0
   40.6026   11.0820   10.1106 C   0  0  0  0  0  0  0  0  0  0  0  0
   41.3950   11.6459   10.8959 O   0  0  0  0  0  0  0  0  0  0  0  0
   39.1241   10.9180   10.5240 C   0  0  2  0  0  0  0  0  0  0  0  0
   38.8937    9.5419   10.8085 O   0  0  0  0  0  0  0  0  0  0  0  0
   38.8008   11.6942   11.7742 C   0  0  0  0  0  0  0  0  0  0  0  0
   39.1051   11.0598   12.8770 O   0  0  0  0  0  0  0  0  0  0  0  0
   38.1984   12.9043   11.8009 C   0  0  0  0  0  0  0  0  0  0  0  0
   37.9096   13.5565   12.9791 C   0  0  0  0  0  0  0  0  0  0  0  0
   38.1213   13.1468   14.1374 O   0  0  0  0  0  0  0  0  0  0  0  0
   37.3368   14.9225   12.9366 C   0  0  0  0  0  0  0  0  0  0  0  0
   36.8507   15.5244   14.0990 C   0  0  0  0  0  0  0  0  0  0  0  0
   36.9479   14.9375   15.2911 O   0  0  0  0  0  0  0  0  0  0  0  0
   34.1390   14.7472   20.3769 H   0  0  0  0  0  0  0  0  0  0  0  0
   33.3430   15.1641   18.8215 H   0  0  0  0  0  0  0  0  0  0  0  0
   34.9069   14.2805   18.8215 H   0  0  0  0  0  0  0  0  0  0  0  0
   34.4783   17.4640   21.1147 H   0  0  0  0  0  0  0  0  0  0  0  0
   34.9110   18.5321   19.7368 H   0  0  0  0  0  0  0  0  0  0  0  0
   33.3422   17.6571   19.7368 H   0  0  0  0  0  0  0  0  0  0  0  0
   36.2837   16.1905   21.1040 H   0  0  0  0  0  0  0  0  0  0  0  0
   36.8331   15.1846   19.7209 H   0  0  0  0  0  0  0  0  0  0  0  0
   37.1378   16.9548   19.7209 H   0  0  0  0  0  0  0  0  0  0  0  0
   35.7777   16.0703   17.3899 H   0  0  0  0  0  0  0  0  0  0  0  0
   34.2728   16.9674   17.5355 H   0  0  0  0  0  0  0  0  0  0  0  0
   35.1943   18.9363   17.5294 H   0  0  0  0  0  0  0  0  0  0  0  0
   36.6973   18.3555   18.2672 H   0  0  0  0  0  0  0  0  0  0  0  0
   35.0820   16.7246   15.6895 H   0  0  0  0  0  0  0  0  0  0  0  0
   35.7260   18.4912   12.8923 H   0  0  0  0  0  0  0  0  0  0  0  0
   36.9498   16.8669    9.7147 H   0  0  0  0  0  0  0  0  0  0  0  0
   34.8802   18.2096   11.4128 H   0  0  0  0  0  0  0  0  0  0  0  0
   35.1985   19.0495    9.8572 H   0  0  0  0  0  0  0  0  0  0  0  0
   34.5818   17.3624    9.8572 H   0  0  0  0  0  0  0  0  0  0  0  0
   37.7699   19.2059   11.0003 H   0  0  0  0  0  0  0  0  0  0  0  0
   38.3070   18.4085    9.4829 H   0  0  0  0  0  0  0  0  0  0  0  0
   36.8380   19.4423    9.4829 H   0  0  0  0  0  0  0  0  0  0  0  0
   37.3307   15.3716    9.5956 H   0  0  0  0  0  0  0  0  0  0  0  0
   38.9080   15.2090   10.4806 H   0  0  0  0  0  0  0  0  0  0  0  0
   36.6394   13.1560   10.4435 H   0  0  0  0  0  0  0  0  0  0  0  0
   37.7576   13.1907    8.3140 H   0  0  0  0  0  0  0  0  0  0  0  0
   39.3567   13.2221    9.0465 H   0  0  0  0  0  0  0  0  0  0  0  0
   37.2209   11.0637    9.6816 H   0  0  0  0  0  0  0  0  0  0  0  0
   38.5888   11.6368    7.3832 H   0  0  0  0  0  0  0  0  0  0  0  0
   38.3597    8.9293    7.4689 H   0  0  0  0  0  0  0  0  0  0  0  0
   36.9366    9.3164    9.5039 H   0  0  0  0  0  0  0  0  0  0  0  0
   35.7110    9.6872    8.2441 H   0  0  0  0  0  0  0  0  0  0  0  0
   36.5461    8.0969    8.2441 H   0  0  0  0  0  0  0  0  0  0  0  0
   36.2135   10.8827    6.6819 H   0  0  0  0  0  0  0  0  0  0  0  0
   37.7714   10.8181    5.7899 H   0  0  0  0  0  0  0  0  0  0  0  0
   36.6766    9.3939    5.7899 H   0  0  0  0  0  0  0  0  0  0  0  0
   44.0095    9.1795    8.3397 H   0  0  0  0  0  0  0  0  0  0  0  0
   42.4296    8.3917    8.5969 H   0  0  0  0  0  0  0  0  0  0  0  0
   38.8711    9.4069   11.7890 H   0  0  0  0  0  0  0  0  0  0  0  0
   37.3439   14.0333   15.3669 H   0  0  0  0  0  0  0  0  0  0  0  0
  2  1  1  6
  2  3  1  0
  2  4  1  0
  2  5  1  0
  5  6  1  0
  6  7  1  0
  7  8  2  0
  7  9  1  0
  9 10  1  0
 10 11  2  0
 10 41  1  0
 11 12  1  0
 12 13  1  0
 12 16  2  0
 13 14  1  0
 13 15  1  0
 16 17  1  0
 16 40  1  0
 18 17  1  0
 18 19  1  0
 18 37  1  0
 20 19  1  0
 20 21  1  0
 20 33  1  0
 21 22  1  0
 21 25  1  0
 22 23  1  0
 22 24  1  0
 25 26  1  0
 25 27  2  0
 27 28  1  0
 27 31  1  0
 28 29  2  0
 28 30  1  0
 31 32  2  0
 31 33  1  0
 33 34  1  1
 33 35  1  0
 35 36  1  0
 35 37  2  0
 37 38  1  0
 38 39  2  0
 38 40  1  0
 40 41  2  0
 41 42  1  0
  1 43  1  0
  1 44  1  0
  1 45  1  0
  3 46  1  0
  3 47  1  0
  3 48  1  0
  4 49  1  0
  4 50  1  0
  4 51  1  0
  5 52  1  0
  5 53  1  0
  6 54  1  0
  6 55  1  0
  9 56  1  0
 11 57  1  0
 13 58  1  6
 14 59  1  0
 14 60  1  0
 14 61  1  0
 15 62  1  0
 15 63  1  0
 15 64  1  0
 17 65  1  0
 17 66  1  0
 18 67  1  6
 19 68  1  0
 19 69  1  0
 20 70  1  1
 21 71  1  6
 22 72  1  6
 23 73  1  0
 23 74  1  0
 23 75  1  0
 24 76  1  0
 24 77  1  0
 24 78  1  0
 30 79  1  0
 30 80  1  0
 34 81  1  0
 42 82  1  0
M  CHG  5   5   1  13   1  22   1  26  -1  36  -1
M  END
>  <filename_input>  (13) 
6YR2_T1C_docked.sdf

>  <pdb_id>  (13) 
6YR2_T1C

>  <pose_rank>  (13) 
12

>  <num_atoms_heavy>  (13) 
42

>  <num_torsions>  (13) 
7

>  <pose>  (13) 
[36.28548866793688, 16.78213235063881, 14.097073509524634, -0.6533547287543886, 0.32070763159309046, -2.7194672843453467, -1.790090081805737, -3.0273310427313866, -0.5580321414222229, 2.485235193799695, 0.7472912024198912, 0.6307507879859984, -1.1092812637932077]

>  <energy>  (13) 
-528.0184725821432

>  <inter_energy>  (13) 
-546.711243105243

>  <intra_energy>  (13) 
22.334336070122124

>  <rmsd>  (13) 
9.28375

>  <sdf_rank>  (13) 
0

$$$$

     RDKit          3D

 82 85  0  0  0  0  0  0  0  0999 V2000
   34.6233    5.5976    1.6961 C   0  0  0  0  0  0  0  0  0  0  0  0
   34.2563    7.0779    1.4197 C   0  0  1  0  0  0  0  0  0  0  0  0
   34.8174    7.7101    0.1164 C   0  0  0  0  0  0  0  0  0  0  0  0
   32.7119    7.1470    1.3098 C   0  0  0  0  0  0  0  0  0  0  0  0
   34.7939    7.9193    2.5636 N   0  0  0  0  0  0  0  0  0  0  0  0
   35.4305    7.2500    3.7448 C   0  0  0  0  0  0  0  0  0  0  0  0
   36.2804    8.2905    4.4042 C   0  0  0  0  0  0  0  0  0  0  0  0
   36.8869    9.0593    3.7325 O   0  0  0  0  0  0  0  0  0  0  0  0
   36.3420    8.3353    5.6656 N   0  0  0  0  0  0  0  0  0  0  0  0
   36.9698    9.1783    6.4966 C   0  0  0  0  0  0  0  0  0  0  0  0
   38.0727    8.9542    7.3204 C   0  0  0  0  0  0  0  0  0  0  0  0
   38.6403   10.0268    8.0618 C   0  0  0  0  0  0  0  0  0  0  0  0
   39.7678    9.9019    8.9748 N   0  0  1  0  0  0  0  0  0  0  0  0
   40.8828   10.4185    8.1504 C   0  0  0  0  0  0  0  0  0  0  0  0
   39.8320   10.6709   10.1972 C   0  0  0  0  0  0  0  0  0  0  0  0
   38.0004   11.3023    8.0000 C   0  0  0  0  0  0  0  0  0  0  0  0
   38.5967   12.5150    8.7195 C   0  0  0  0  0  0  0  0  0  0  0  0
   37.5378   13.5126    9.1227 C   0  0  1  0  0  0  0  0  0  0  0  0
   38.1932   14.7073    9.8536 C   0  0  0  0  0  0  0  0  0  0  0  0
   37.0541   15.6774   10.0766 C   0  0  1  0  0  0  0  0  0  0  0  0
   37.6168   16.7502   10.9681 C   0  0  2  0  0  0  0  0  0  0  0  0
   36.7437   17.0792   12.1337 N   0  0  1  0  0  0  0  0  0  0  0  0
   35.2745   17.0786   12.0128 C   0  0  0  0  0  0  0  0  0  0  0  0
   37.0746   16.1550   13.2147 C   0  0  0  0  0  0  0  0  0  0  0  0
   37.9747   17.9929   10.2450 C   0  0  0  0  0  0  0  0  0  0  0  0
   38.0746   18.9555   11.0902 O   0  0  0  0  0  0  0  0  0  0  0  0
   38.1501   18.1392    8.9637 C   0  0  0  0  0  0  0  0  0  0  0  0
   38.9090   19.2456    8.3191 C   0  0  0  0  0  0  0  0  0  0  0  0
   40.1062   19.0526    7.9518 O   0  0  0  0  0  0  0  0  0  0  0  0
   38.4090   20.4110    8.1414 N   0  0  0  0  0  0  0  0  0  0  0  0
   37.6184   17.1674    8.1624 C   0  0  0  0  0  0  0  0  0  0  0  0
   37.9328   17.0263    6.9608 O   0  0  0  0  0  0  0  0  0  0  0  0
   36.5464   16.2389    8.7728 C   0  0  2  0  0  0  0  0  0  0  0  0
   35.3655   17.0057    8.9857 O   0  0  0  0  0  0  0  0  0  0  0  0
   36.1856   15.1098    7.8427 C   0  0  0  0  0  0  0  0  0  0  0  0
   35.2903   15.4361    6.9465 O   0  0  0  0  0  0  0  0  0  0  0  0
   36.6695   13.8502    7.9290 C   0  0  0  0  0  0  0  0  0  0  0  0
   36.2852   12.8533    7.0598 C   0  0  0  0  0  0  0  0  0  0  0  0
   35.4604   12.9431    6.1292 O   0  0  0  0  0  0  0  0  0  0  0  0
   36.9257   11.5200    7.1482 C   0  0  0  0  0  0  0  0  0  0  0  0
   36.4200   10.4406    6.4210 C   0  0  0  0  0  0  0  0  0  0  0  0
   35.4029   10.5767    5.5712 O   0  0  0  0  0  0  0  0  0  0  0  0
   34.6657    5.4269    2.7819 H   0  0  0  0  0  0  0  0  0  0  0  0
   33.8607    4.9415    1.2512 H   0  0  0  0  0  0  0  0  0  0  0  0
   35.6042    5.3739    1.2512 H   0  0  0  0  0  0  0  0  0  0  0  0
   35.5276    8.5100    0.3731 H   0  0  0  0  0  0  0  0  0  0  0  0
   35.3327    6.9377   -0.4734 H   0  0  0  0  0  0  0  0  0  0  0  0
   33.9894    8.1302   -0.4734 H   0  0  0  0  0  0  0  0  0  0  0  0
   32.2730    7.1667    2.3182 H   0  0  0  0  0  0  0  0  0  0  0  0
   32.4235    8.0590    0.7665 H   0  0  0  0  0  0  0  0  0  0  0  0
   32.3432    6.2645    0.7665 H   0  0  0  0  0  0  0  0  0  0  0  0
   35.5008    8.5518    2.1621 H   0  0  0  0  0  0  0  0  0  0  0  0
   33.9476    8.3515    2.9609 H   0  0  0  0  0  0  0  0  0  0  0  0
   34.6588    6.8901    4.4412 H   0  0  0  0  0  0  0  0  0  0  0  0
   36.0278    6.3785    3.4387 H   0  0  0  0  0  0  0  0  0  0  0  0
   35.8144    7.5890    6.1406 H   0  0  0  0  0  0  0  0  0  0  0  0
   38.5044    7.9454    7.3969 H   0  0  0  0  0  0  0  0  0  0  0  0
   39.7441    8.9299    9.3150 H   0  0  0  0  0  0  0  0  0  0  0  0
   41.6833   10.7895    8.8074 H   0  0  0  0  0  0  0  0  0  0  0  0
   41.2746    9.6102    7.5155 H   0  0  0  0  0  0  0  0  0  0  0  0
   40.5194   11.2400    7.5155 H   0  0  0  0  0  0  0  0  0  0  0  0
   39.7753    9.9920   11.0609 H   0  0  0  0  0  0  0  0  0  0  0  0
   40.7798   11.2282   10.2305 H   0  0  0  0  0  0  0  0  0  0  0  0
   38.9897   11.3776   10.2305 H   0  0  0  0  0  0  0  0  0  0  0  0
   39.1207   12.1692    9.6228 H   0  0  0  0  0  0  0  0  0  0  0  0
   39.2872   13.0156    8.0249 H   0  0  0  0  0  0  0  0  0  0  0  0
   36.8397   13.0891    9.8598 H   0  0  0  0  0  0  0  0  0  0  0  0
   38.6264   14.3874   10.8128 H   0  0  0  0  0  0  0  0  0  0  0  0
   39.0181   15.1519    9.2776 H   0  0  0  0  0  0  0  0  0  0  0  0
   36.1839   15.1881   10.5384 H   0  0  0  0  0  0  0  0  0  0  0  0
   38.5440   16.3032   11.3559 H   0  0  0  0  0  0  0  0  0  0  0  0
   36.9599   18.0761   12.2766 H   0  0  0  0  0  0  0  0  0  0  0  0
   34.8240   17.0784   13.0164 H   0  0  0  0  0  0  0  0  0  0  0  0
   34.9512   17.9766   11.4660 H   0  0  0  0  0  0  0  0  0  0  0  0
   34.9520   16.1803   11.4660 H   0  0  0  0  0  0  0  0  0  0  0  0
   36.8989   16.6457   14.1834 H   0  0  0  0  0  0  0  0  0  0  0  0
   36.4416   15.2587   13.1375 H   0  0  0  0  0  0  0  0  0  0  0  0
   38.1327   15.8643   13.1375 H   0  0  0  0  0  0  0  0  0  0  0  0
   38.9693   21.1485    7.6908 H   0  0  0  0  0  0  0  0  0  0  0  0
   37.4467   20.6110    8.4492 H   0  0  0  0  0  0  0  0  0  0  0  0
   35.2089   17.1074    9.9579 H   0  0  0  0  0  0  0  0  0  0  0  0
   34.9602   11.4559    5.4660 H   0  0  0  0  0  0  0  0  0  0  0  0
  2  1  1  1
  2  3  1  0
  2  4  1  0
  2  5  1  0
  5  6  1  0
  6  7  1  0
  7  8  2  0
  7  9  1  0
  9 10  1  0
 10 11  2  0
 10 41  1  0
 11 12  1  0
 12 13  1  0
 12 16  2  0
 13 14  1  0
 13 15  1  0
 16 17  1  0
 16 40  1  0
 18 17  1  0
 18 19  1  0
 18 37  1  0
 20 19  1  0
 20 21  1  0
 20 33  1  0
 21 22  1  0
 21 25  1  0
 22 23  1  0
 22 24  1  0
 25 26  1  0
 25 27  2  0
 27 28  1  0
 27 31  1  0
 28 29  2  0
 28 30  1  0
 31 32  2  0
 31 33  1  0
 33 34  1  1
 33 35  1  0
 35 36  1  0
 35 37  2  0
 37 38  1  0
 38 39  2  0
 38 40  1  0
 40 41  2  0
 41 42  1  0
  1 43  1  0
  1 44  1  0
  1 45  1  0
  3 46  1  0
  3 47  1  0
  3 48  1  0
  4 49  1  0
  4 50  1  0
  4 51  1  0
  5 52  1  0
  5 53  1  0
  6 54  1  0
  6 55  1  0
  9 56  1  0
 11 57  1  0
 13 58  1  1
 14 59  1  0
 14 60  1  0
 14 61  1  0
 15 62  1  0
 15 63  1  0
 15 64  1  0
 17 65  1  0
 17 66  1  0
 18 67  1  1
 19 68  1  0
 19 69  1  0
 20 70  1  1
 21 71  1  1
 22 72  1  1
 23 73  1  0
 23 74  1  0
 23 75  1  0
 24 76  1  0
 24 77  1  0
 24 78  1  0
 30 79  1  0
 30 80  1  0
 34 81  1  0
 42 82  1  0
M  CHG  5   5   1  13   1  22   1  26  -1  36  -1
M  END
>  <filename_input>  (14) 
6YR2_T1C_docked.sdf

>  <pdb_id>  (14) 
6YR2_T1C

>  <pose_rank>  (14) 
13

>  <num_atoms_heavy>  (14) 
42

>  <num_torsions>  (14) 
7

>  <pose>  (14) 
[36.969845940652874, 9.178261557830849, 6.4966113825140335, -0.637218187114499, 3.3920764584496004, 0.36912089509320295, -2.413200703701825, -1.0655590512791786, -0.4551865114638341, -0.7217367013806423, -3.0014390229073022, 0.18022463466934252, -1.305882185572978]

>  <energy>  (14) 
-444.3283674018587

>  <inter_energy>  (14) 
-559.4124338246788

>  <intra_energy>  (14) 
108.8402775574988

>  <rmsd>  (14) 
6.9805

>  <sdf_rank>  (14) 
0

$$$$

     RDKit          3D

 82 85  0  0  0  0  0  0  0  0999 V2000
   30.3983    9.3207   17.8990 C   0  0  0  0  0  0  0  0  0  0  0  0
   30.9638    8.4264   16.7663 C   0  0  1  0  0  0  0  0  0  0  0  0
   30.0014    8.0799   15.5972 C   0  0  0  0  0  0  0  0  0  0  0  0
   32.1561    9.1925   16.1391 C   0  0  0  0  0  0  0  0  0  0  0  0
   31.3833    7.1007   17.3761 N   0  0  0  0  0  0  0  0  0  0  0  0
   31.1000    5.8224   16.6453 C   0  0  0  0  0  0  0  0  0  0  0  0
   32.4311    5.1937   16.3756 C   0  0  0  0  0  0  0  0  0  0  0  0
   32.9068    4.4664   17.1848 O   0  0  0  0  0  0  0  0  0  0  0  0
   33.0304    5.4468   15.2924 N   0  0  0  0  0  0  0  0  0  0  0  0
   34.1826    4.9886   14.7846 C   0  0  0  0  0  0  0  0  0  0  0  0
   34.4805    3.7342   14.2527 C   0  0  0  0  0  0  0  0  0  0  0  0
   35.7579    3.4866   13.6788 C   0  0  0  0  0  0  0  0  0  0  0  0
   36.1878    2.2101   13.1254 N   0  0  1  0  0  0  0  0  0  0  0  0
   36.2470    1.3606   14.3357 C   0  0  0  0  0  0  0  0  0  0  0  0
   35.3532    1.4729   12.2036 C   0  0  0  0  0  0  0  0  0  0  0  0
   36.7378    4.5239   13.7411 C   0  0  0  0  0  0  0  0  0  0  0  0
   38.1095    4.3479   13.0843 C   0  0  0  0  0  0  0  0  0  0  0  0
   39.1803    5.1502   13.7834 C   0  0  1  0  0  0  0  0  0  0  0  0
   40.5427    4.9261   13.0874 C   0  0  0  0  0  0  0  0  0  0  0  0
   41.4825    5.8781   13.7936 C   0  0  1  0  0  0  0  0  0  0  0  0
   42.8542    5.5319   13.2826 C   0  0  2  0  0  0  0  0  0  0  0  0
   43.8740    5.3772   14.3621 N   0  0  1  0  0  0  0  0  0  0  0  0
   44.6850    4.1517   14.4780 C   0  0  0  0  0  0  0  0  0  0  0  0
   44.8124    6.4907   14.2529 C   0  0  0  0  0  0  0  0  0  0  0  0
   43.3558    6.4704   12.2517 C   0  0  0  0  0  0  0  0  0  0  0  0
   44.6307    6.3435   12.1543 O   0  0  0  0  0  0  0  0  0  0  0  0
   42.6610    7.3171   11.5485 C   0  0  0  0  0  0  0  0  0  0  0  0
   43.0899    7.9203   10.2571 C   0  0  0  0  0  0  0  0  0  0  0  0
   43.8124    7.2487    9.4618 O   0  0  0  0  0  0  0  0  0  0  0  0
   42.7811    9.1164    9.9199 N   0  0  0  0  0  0  0  0  0  0  0  0
   41.4233    7.6380   12.0325 C   0  0  0  0  0  0  0  0  0  0  0  0
   40.5493    8.2093   11.3455 O   0  0  0  0  0  0  0  0  0  0  0  0
   41.1239    7.3152   13.5123 C   0  0  2  0  0  0  0  0  0  0  0  0
   41.9006    8.1913   14.3228 O   0  0  0  0  0  0  0  0  0  0  0  0
   39.6764    7.5515   13.8572 C   0  0  0  0  0  0  0  0  0  0  0  0
   39.4047    8.7975   14.1483 O   0  0  0  0  0  0  0  0  0  0  0  0
   38.7302    6.5884   13.9309 C   0  0  0  0  0  0  0  0  0  0  0  0
   37.4247    6.8643   14.2723 C   0  0  0  0  0  0  0  0  0  0  0  0
   36.9446    7.9744   14.5747 O   0  0  0  0  0  0  0  0  0  0  0  0
   36.4163    5.7790   14.2405 C   0  0  0  0  0  0  0  0  0  0  0  0
   35.1401    5.9808   14.7700 C   0  0  0  0  0  0  0  0  0  0  0  0
   34.7542    7.1619   15.2504 O   0  0  0  0  0  0  0  0  0  0  0  0
   30.6696    8.8918   18.8749 H   0  0  0  0  0  0  0  0  0  0  0  0
   30.8211   10.3326   17.8130 H   0  0  0  0  0  0  0  0  0  0  0  0
   29.3029    9.3725   17.8130 H   0  0  0  0  0  0  0  0  0  0  0  0
   29.0399    7.7336   16.0041 H   0  0  0  0  0  0  0  0  0  0  0  0
   29.8371    8.9753   14.9798 H   0  0  0  0  0  0  0  0  0  0  0  0
   30.4457    7.2853   14.9798 H   0  0  0  0  0  0  0  0  0  0  0  0
   32.7913    9.6007   16.9391 H   0  0  0  0  0  0  0  0  0  0  0  0
   32.7471    8.5047   15.5165 H   0  0  0  0  0  0  0  0  0  0  0  0
   31.7761   10.0159   15.5165 H   0  0  0  0  0  0  0  0  0  0  0  0
   32.4029    7.1454   17.5149 H   0  0  0  0  0  0  0  0  0  0  0  0
   30.7965    7.0291   18.2196 H   0  0  0  0  0  0  0  0  0  0  0  0
   30.4823    5.1568   17.2661 H   0  0  0  0  0  0  0  0  0  0  0  0
   30.5469    6.0072   15.7126 H   0  0  0  0  0  0  0  0  0  0  0  0
   32.5457    6.1284   14.6912 H   0  0  0  0  0  0  0  0  0  0  0  0
   33.7256    2.9345   14.2772 H   0  0  0  0  0  0  0  0  0  0  0  0
   37.0247    2.4185   12.5623 H   0  0  0  0  0  0  0  0  0  0  0  0
   36.2027    1.9963   15.2324 H   0  0  0  0  0  0  0  0  0  0  0  0
   35.3951    0.6647   14.3372 H   0  0  0  0  0  0  0  0  0  0  0  0
   37.1871    0.7895   14.3372 H   0  0  0  0  0  0  0  0  0  0  0  0
   34.6459    0.8481   12.7687 H   0  0  0  0  0  0  0  0  0  0  0  0
   34.7947    2.1779   11.5704 H   0  0  0  0  0  0  0  0  0  0  0  0
   35.9839    0.8316   11.5704 H   0  0  0  0  0  0  0  0  0  0  0  0
   38.3849    3.2835   13.1176 H   0  0  0  0  0  0  0  0  0  0  0  0
   38.0378    4.7090   12.0477 H   0  0  0  0  0  0  0  0  0  0  0  0
   39.3389    4.8042   14.8155 H   0  0  0  0  0  0  0  0  0  0  0  0
   40.8769    3.8853   13.2104 H   0  0  0  0  0  0  0  0  0  0  0  0
   40.4964    5.1072   12.0034 H   0  0  0  0  0  0  0  0  0  0  0  0
   41.4244    5.7749   14.8873 H   0  0  0  0  0  0  0  0  0  0  0  0
   42.7124    4.5496   12.8084 H   0  0  0  0  0  0  0  0  0  0  0  0
   43.2789    5.3367   15.2018 H   0  0  0  0  0  0  0  0  0  0  0  0
   44.8417    3.9148   15.5407 H   0  0  0  0  0  0  0  0  0  0  0  0
   44.1602    3.3172   13.9899 H   0  0  0  0  0  0  0  0  0  0  0  0
   45.6582    4.3084   13.9899 H   0  0  0  0  0  0  0  0  0  0  0  0
   45.0980    6.8296   15.2597 H   0  0  0  0  0  0  0  0  0  0  0  0
   45.7099    6.1619   13.7084 H   0  0  0  0  0  0  0  0  0  0  0  0
   44.3363    7.3195   13.7084 H   0  0  0  0  0  0  0  0  0  0  0  0
   43.0988    9.4951    9.0163 H   0  0  0  0  0  0  0  0  0  0  0  0
   42.2149    9.6999   10.5523 H   0  0  0  0  0  0  0  0  0  0  0  0
   41.7282    7.9968   15.2781 H   0  0  0  0  0  0  0  0  0  0  0  0
   35.3905    7.9201   15.2703 H   0  0  0  0  0  0  0  0  0  0  0  0
  2  1  1  1
  2  3  1  0
  2  4  1  0
  2  5  1  0
  5  6  1  0
  6  7  1  0
  7  8  2  0
  7  9  1  0
  9 10  1  0
 10 11  2  0
 10 41  1  0
 11 12  1  0
 12 13  1  0
 12 16  2  0
 13 14  1  0
 13 15  1  0
 16 17  1  0
 16 40  1  0
 18 17  1  0
 18 19  1  0
 18 37  1  0
 20 19  1  0
 20 21  1  0
 20 33  1  0
 21 22  1  0
 21 25  1  0
 22 23  1  0
 22 24  1  0
 25 26  1  0
 25 27  2  0
 27 28  1  0
 27 31  1  0
 28 29  2  0
 28 30  1  0
 31 32  2  0
 31 33  1  0
 33 34  1  1
 33 35  1  0
 35 36  1  0
 35 37  2  0
 37 38  1  0
 38 39  2  0
 38 40  1  0
 40 41  2  0
 41 42  1  0
  1 43  1  0
  1 44  1  0
  1 45  1  0
  3 46  1  0
  3 47  1  0
  3 48  1  0
  4 49  1  0
  4 50  1  0
  4 51  1  0
  5 52  1  0
  5 53  1  0
  6 54  1  0
  6 55  1  0
  9 56  1  0
 11 57  1  0
 13 58  1  6
 14 59  1  0
 14 60  1  0
 14 61  1  0
 15 62  1  0
 15 63  1  0
 15 64  1  0
 17 65  1  0
 17 66  1  0
 18 67  1  1
 19 68  1  0
 19 69  1  0
 20 70  1  1
 21 71  1  6
 22 72  1  1
 23 73  1  0
 23 74  1  0
 23 75  1  0
 24 76  1  0
 24 77  1  0
 24 78  1  0
 30 79  1  0
 30 80  1  0
 34 81  1  0
 42 82  1  0
M  CHG  5   5   1  13   1  22   1  26  -1  36  -1
M  END
>  <filename_input>  (15) 
6YR2_T1C_docked.sdf

>  <pdb_id>  (15) 
6YR2_T1C

>  <pose_rank>  (15) 
14

>  <num_atoms_heavy>  (15) 
42

>  <num_torsions>  (15) 
7

>  <pose>  (15) 
[34.18262198977212, 4.988568641743021, 14.784609282062002, -0.8838244440141361, -1.51965856396942, -0.8473346504836204, 0.7760656949378384, 1.1524521534385812, 5.120772206791206, 1.7976481565502505, 0.34067728221459537, -3.2707014810965074, -2.459075078624068]

>  <energy>  (15) 
-394.43973406391723

>  <inter_energy>  (15) 
-495.84983264689953

>  <intra_energy>  (15) 
101.4194243043753

>  <rmsd>  (15) 
11.5404

>  <sdf_rank>  (15) 
0

$$$$

     RDKit          3D

 82 85  0  0  0  0  0  0  0  0999 V2000
   37.5790    5.0127   13.6785 C   0  0  0  0  0  0  0  0  0  0  0  0
   38.9139    4.4258   13.1529 C   0  0  1  0  0  0  0  0  0  0  0  0
   40.1519    4.5515   14.0829 C   0  0  0  0  0  0  0  0  0  0  0  0
   38.6844    2.9090   12.9327 C   0  0  0  0  0  0  0  0  0  0  0  0
   39.2747    5.1498   11.8680 N   0  0  0  0  0  0  0  0  0  0  0  0
   40.7117    5.4478   11.5599 C   0  0  0  0  0  0  0  0  0  0  0  0
   40.9339    6.8748   11.9523 C   0  0  0  0  0  0  0  0  0  0  0  0
   41.6931    7.1266   12.8299 O   0  0  0  0  0  0  0  0  0  0  0  0
   40.3097    7.7910   11.3459 N   0  0  0  0  0  0  0  0  0  0  0  0
   40.3587    9.1254   11.4569 C   0  0  0  0  0  0  0  0  0  0  0  0
   41.1137    9.9159   12.3230 C   0  0  0  0  0  0  0  0  0  0  0  0
   41.0811   11.3330   12.2084 C   0  0  0  0  0  0  0  0  0  0  0  0
   41.8008   12.2545   13.0764 N   0  0  1  0  0  0  0  0  0  0  0  0
   40.6967   12.8688   13.8468 C   0  0  0  0  0  0  0  0  0  0  0  0
   42.7223   11.7737   14.0812 C   0  0  0  0  0  0  0  0  0  0  0  0
   40.1977   11.9118   11.2467 C   0  0  0  0  0  0  0  0  0  0  0  0
   40.1622   13.4262   11.0253 C   0  0  0  0  0  0  0  0  0  0  0  0
   38.8092   13.8985   10.5506 C   0  0  1  0  0  0  0  0  0  0  0  0
   38.8274   15.4324   10.3554 C   0  0  0  0  0  0  0  0  0  0  0  0
   37.4737   15.7476    9.7584 C   0  0  1  0  0  0  0  0  0  0  0  0
   37.3832   17.2490    9.7538 C   0  0  2  0  0  0  0  0  0  0  0  0
   36.0991   17.7733   10.3065 N   0  0  1  0  0  0  0  0  0  0  0  0
   35.9079   19.2122   10.5632 C   0  0  0  0  0  0  0  0  0  0  0  0
   35.0248   17.3628    9.4067 C   0  0  0  0  0  0  0  0  0  0  0  0
   37.6395   17.8532    8.4255 C   0  0  0  0  0  0  0  0  0  0  0  0
   37.1785   19.0525    8.4147 O   0  0  0  0  0  0  0  0  0  0  0  0
   38.2150   17.2942    7.4007 C   0  0  0  0  0  0  0  0  0  0  0  0
   38.8386   18.0206    6.2609 C   0  0  0  0  0  0  0  0  0  0  0  0
   39.6826   18.9377    6.4897 O   0  0  0  0  0  0  0  0  0  0  0  0
   38.5356   17.7770    5.0409 N   0  0  0  0  0  0  0  0  0  0  0  0
   38.2751   15.9284    7.4073 C   0  0  0  0  0  0  0  0  0  0  0  0
   39.0215   15.2746    6.6471 O   0  0  0  0  0  0  0  0  0  0  0  0
   37.3363   15.1719    8.3718 C   0  0  2  0  0  0  0  0  0  0  0  0
   36.0014   15.3218    7.8992 O   0  0  0  0  0  0  0  0  0  0  0  0
   37.6364   13.6959    8.4056 C   0  0  0  0  0  0  0  0  0  0  0  0
   37.0669   13.0240    7.4383 O   0  0  0  0  0  0  0  0  0  0  0  0
   38.3670   13.0753    9.3592 C   0  0  0  0  0  0  0  0  0  0  0  0
   38.5900   11.7162    9.3471 C   0  0  0  0  0  0  0  0  0  0  0  0
   38.1575   10.8901    8.5196 O   0  0  0  0  0  0  0  0  0  0  0  0
   39.4795   11.1127   10.3670 C   0  0  0  0  0  0  0  0  0  0  0  0
   39.5645    9.7256   10.5027 C   0  0  0  0  0  0  0  0  0  0  0  0
   38.9185    8.8957    9.6848 O   0  0  0  0  0  0  0  0  0  0  0  0
   37.5852    5.0100   14.7785 H   0  0  0  0  0  0  0  0  0  0  0  0
   37.4638    6.0445   13.3150 H   0  0  0  0  0  0  0  0  0  0  0  0
   36.7408    4.4001   13.3150 H   0  0  0  0  0  0  0  0  0  0  0  0
   39.8264    4.5185   15.1331 H   0  0  0  0  0  0  0  0  0  0  0  0
   40.8436    3.7190   13.8871 H   0  0  0  0  0  0  0  0  0  0  0  0
   40.6622    5.5061   13.8871 H   0  0  0  0  0  0  0  0  0  0  0  0
   38.6080    2.4044   13.9071 H   0  0  0  0  0  0  0  0  0  0  0  0
   37.7530    2.7574   12.3673 H   0  0  0  0  0  0  0  0  0  0  0  0
   39.5291    2.4886   12.3673 H   0  0  0  0  0  0  0  0  0  0  0  0
   38.9157    4.5763   11.0914 H   0  0  0  0  0  0  0  0  0  0  0  0
   38.8587    6.0835   11.9947 H   0  0  0  0  0  0  0  0  0  0  0  0
   41.3715    4.7854   12.1394 H   0  0  0  0  0  0  0  0  0  0  0  0
   40.9363    5.2844   10.4955 H   0  0  0  0  0  0  0  0  0  0  0  0
   39.6427    7.4506   10.6386 H   0  0  0  0  0  0  0  0  0  0  0  0
   41.7359    9.4422   13.0966 H   0  0  0  0  0  0  0  0  0  0  0  0
   42.4068   12.8076   12.4537 H   0  0  0  0  0  0  0  0  0  0  0  0
   40.8949   12.7585   14.9231 H   0  0  0  0  0  0  0  0  0  0  0  0
   40.6239   13.9371   13.5949 H   0  0  0  0  0  0  0  0  0  0  0  0
   39.7506   12.3674   13.5949 H   0  0  0  0  0  0  0  0  0  0  0  0
   42.3170   11.9852   15.0817 H   0  0  0  0  0  0  0  0  0  0  0  0
   42.8601   10.6888   13.9632 H   0  0  0  0  0  0  0  0  0  0  0  0
   43.6910   12.2814   13.9632 H   0  0  0  0  0  0  0  0  0  0  0  0
   40.4009   13.9292   11.9740 H   0  0  0  0  0  0  0  0  0  0  0  0
   40.8995   13.6724   10.2470 H   0  0  0  0  0  0  0  0  0  0  0  0
   38.0300   13.7273   11.3079 H   0  0  0  0  0  0  0  0  0  0  0  0
   38.9579   15.9466   11.3190 H   0  0  0  0  0  0  0  0  0  0  0  0
   39.6577   15.7654    9.7153 H   0  0  0  0  0  0  0  0  0  0  0  0
   36.6551   15.2985   10.3398 H   0  0  0  0  0  0  0  0  0  0  0  0
   38.1936   17.5583   10.4303 H   0  0  0  0  0  0  0  0  0  0  0  0
   36.1053   17.3717   11.2550 H   0  0  0  0  0  0  0  0  0  0  0  0
   35.8842   19.3911   11.6483 H   0  0  0  0  0  0  0  0  0  0  0  0
   36.7388   19.7779   10.1164 H   0  0  0  0  0  0  0  0  0  0  0  0
   34.9582   19.5414   10.1164 H   0  0  0  0  0  0  0  0  0  0  0  0
   34.1580   17.0316    9.9975 H   0  0  0  0  0  0  0  0  0  0  0  0
   34.7330   18.2128    8.7723 H   0  0  0  0  0  0  0  0  0  0  0  0
   35.3741   16.5348    8.7723 H   0  0  0  0  0  0  0  0  0  0  0  0
   38.9915   18.3035    4.2820 H   0  0  0  0  0  0  0  0  0  0  0  0
   37.8359   17.0546    4.8184 H   0  0  0  0  0  0  0  0  0  0  0  0
   35.3842   15.3911    8.6702 H   0  0  0  0  0  0  0  0  0  0  0  0
   38.3304    9.2579    8.9756 H   0  0  0  0  0  0  0  0  0  0  0  0
  2  1  1  1
  2  3  1  0
  2  4  1  0
  2  5  1  0
  5  6  1  0
  6  7  1  0
  7  8  2  0
  7  9  1  0
  9 10  1  0
 10 11  2  0
 10 41  1  0
 11 12  1  0
 12 13  1  0
 12 16  2  0
 13 14  1  0
 13 15  1  0
 16 17  1  0
 16 40  1  0
 18 17  1  0
 18 19  1  0
 18 37  1  0
 20 19  1  0
 20 21  1  0
 20 33  1  0
 21 22  1  0
 21 25  1  0
 22 23  1  0
 22 24  1  0
 25 26  1  0
 25 27  2  0
 27 28  1  0
 27 31  1  0
 28 29  2  0
 28 30  1  0
 31 32  2  0
 31 33  1  0
 33 34  1  6
 33 35  1  0
 35 36  1  0
 35 37  2  0
 37 38  1  0
 38 39  2  0
 38 40  1  0
 40 41  2  0
 41 42  1  0
  1 43  1  0
  1 44  1  0
  1 45  1  0
  3 46  1  0
  3 47  1  0
  3 48  1  0
  4 49  1  0
  4 50  1  0
  4 51  1  0
  5 52  1  0
  5 53  1  0
  6 54  1  0
  6 55  1  0
  9 56  1  0
 11 57  1  0
 13 58  1  6
 14 59  1  0
 14 60  1  0
 14 61  1  0
 15 62  1  0
 15 63  1  0
 15 64  1  0
 17 65  1  0
 17 66  1  0
 18 67  1  1
 19 68  1  0
 19 69  1  0
 20 70  1  1
 21 71  1  1
 22 72  1  1
 23 73  1  0
 23 74  1  0
 23 75  1  0
 24 76  1  0
 24 77  1  0
 24 78  1  0
 30 79  1  0
 30 80  1  0
 34 81  1  0
 42 82  1  0
M  CHG  5   5   1  13   1  22   1  26  -1  36  -1
M  END
>  <filename_input>  (16) 
6YR2_T1C_docked.sdf

>  <pdb_id>  (16) 
6YR2_T1C

>  <pose_rank>  (16) 
15

>  <num_atoms_heavy>  (16) 
42

>  <num_torsions>  (16) 
7

>  <pose>  (16) 
[40.3587472864594, 9.125421118510344, 11.456890676228285, -2.9545003637891436, 8.75386713295737, -2.776769030378425, -6.801694063829702, -4.651085322532783, -4.963971663979459, -4.406494880109783, -0.4021534655606404, -2.4813979859956508, 4.14486202476211]

>  <energy>  (16) 
-594.9524196665477

>  <inter_energy>  (16) 
-729.8796111119053

>  <intra_energy>  (16) 
139.4052114490939

>  <rmsd>  (16) 
4.28737

>  <sdf_rank>  (16) 
0

$$$$

     RDKit          3D

 82 85  0  0  0  0  0  0  0  0999 V2000
   44.4268   21.7666    0.1155 C   0  0  0  0  0  0  0  0  0  0  0  0
   44.2002   22.2237    1.5792 C   0  0  1  0  0  0  0  0  0  0  0  0
   45.2950   21.8412    2.6128 C   0  0  0  0  0  0  0  0  0  0  0  0
   44.1352   23.7720    1.5636 C   0  0  0  0  0  0  0  0  0  0  0  0
   42.9108   21.5946    2.0762 N   0  0  0  0  0  0  0  0  0  0  0  0
   41.7014   21.5765    1.1899 C   0  0  0  0  0  0  0  0  0  0  0  0
   40.8826   20.4027    1.6276 C   0  0  0  0  0  0  0  0  0  0  0  0
   41.0389   19.3523    1.0963 O   0  0  0  0  0  0  0  0  0  0  0  0
   40.0358   20.5462    2.5545 N   0  0  0  0  0  0  0  0  0  0  0  0
   39.2260   19.6695    3.1637 C   0  0  0  0  0  0  0  0  0  0  0  0
   38.1970   18.8940    2.6301 C   0  0  0  0  0  0  0  0  0  0  0  0
   37.5159   17.9505    3.4476 C   0  0  0  0  0  0  0  0  0  0  0  0
   36.4087   17.1138    3.0065 N   0  0  1  0  0  0  0  0  0  0  0  0
   35.9732   17.8125    1.7768 C   0  0  0  0  0  0  0  0  0  0  0  0
   36.6214   15.7454    2.5918 C   0  0  0  0  0  0  0  0  0  0  0  0
   37.8595   17.8857    4.8325 C   0  0  0  0  0  0  0  0  0  0  0  0
   37.2132   16.8477    5.7536 C   0  0  0  0  0  0  0  0  0  0  0  0
   37.1410   17.3252    7.1839 C   0  0  1  0  0  0  0  0  0  0  0  0
   36.4707   16.2454    8.0647 C   0  0  0  0  0  0  0  0  0  0  0  0
   36.5848   16.7893    9.4717 C   0  0  1  0  0  0  0  0  0  0  0  0
   35.7582   15.8639   10.3218 C   0  0  2  0  0  0  0  0  0  0  0  0
   34.8205   16.5734   11.2420 N   0  0  1  0  0  0  0  0  0  0  0  0
   34.8379   18.0420   11.3681 C   0  0  0  0  0  0  0  0  0  0  0  0
   33.4592   16.2021   10.8660 C   0  0  0  0  0  0  0  0  0  0  0  0
   36.5649   14.8849   11.0874 C   0  0  0  0  0  0  0  0  0  0  0  0
   35.8510   14.4115   12.0451 O   0  0  0  0  0  0  0  0  0  0  0  0
   37.8026   14.5427   10.8752 C   0  0  0  0  0  0  0  0  0  0  0  0
   38.4434   13.2877   11.3548 C   0  0  0  0  0  0  0  0  0  0  0  0
   38.5329   12.2930   10.5750 O   0  0  0  0  0  0  0  0  0  0  0  0
   38.8901   13.1552   12.5475 N   0  0  0  0  0  0  0  0  0  0  0  0
   38.5491   15.4006   10.1164 C   0  0  0  0  0  0  0  0  0  0  0  0
   39.6460   15.0836    9.6079 O   0  0  0  0  0  0  0  0  0  0  0  0
   38.0209   16.8391    9.9276 C   0  0  2  0  0  0  0  0  0  0  0  0
   38.1251   17.5167   11.1757 O   0  0  0  0  0  0  0  0  0  0  0  0
   38.8417   17.6123    8.9283 C   0  0  0  0  0  0  0  0  0  0  0  0
   39.9180   18.1511    9.4406 O   0  0  0  0  0  0  0  0  0  0  0  0
   38.5041   17.8073    7.6337 C   0  0  0  0  0  0  0  0  0  0  0  0
   39.2873   18.5428    6.7719 C   0  0  0  0  0  0  0  0  0  0  0  0
   40.3532   19.1312    7.0402 O   0  0  0  0  0  0  0  0  0  0  0  0
   38.9100   18.6374    5.3421 C   0  0  0  0  0  0  0  0  0  0  0  0
   39.5654   19.5315    4.4931 C   0  0  0  0  0  0  0  0  0  0  0  0
   40.5927   20.2724    4.9061 O   0  0  0  0  0  0  0  0  0  0  0  0
   44.9154   20.7811    0.1106 H   0  0  0  0  0  0  0  0  0  0  0  0
   43.4582   21.6983   -0.4014 H   0  0  0  0  0  0  0  0  0  0  0  0
   45.0676   22.4961   -0.4014 H   0  0  0  0  0  0  0  0  0  0  0  0
   44.9020   21.9785    3.6310 H   0  0  0  0  0  0  0  0  0  0  0  0
   45.5828   20.7892    2.4696 H   0  0  0  0  0  0  0  0  0  0  0  0
   46.1754   22.4849    2.4696 H   0  0  0  0  0  0  0  0  0  0  0  0
   44.1193   24.1488    2.5969 H   0  0  0  0  0  0  0  0  0  0  0  0
   45.0173   24.1708    1.0413 H   0  0  0  0  0  0  0  0  0  0  0  0
   43.2226   24.0955    1.0413 H   0  0  0  0  0  0  0  0  0  0  0  0
   43.1266   20.6142    2.3066 H   0  0  0  0  0  0  0  0  0  0  0  0
   42.6288   22.2092    2.8531 H   0  0  0  0  0  0  0  0  0  0  0  0
   41.1276   22.5075    1.3083 H   0  0  0  0  0  0  0  0  0  0  0  0
   41.9821   21.4971    0.1293 H   0  0  0  0  0  0  0  0  0  0  0  0
   39.9531   21.5112    2.9049 H   0  0  0  0  0  0  0  0  0  0  0  0
   37.9115   19.0124    1.5744 H   0  0  0  0  0  0  0  0  0  0  0  0
   35.7923   17.0132    3.8255 H   0  0  0  0  0  0  0  0  0  0  0  0
   35.4095   18.7170    2.0491 H   0  0  0  0  0  0  0  0  0  0  0  0
   36.8555   18.0950    1.1836 H   0  0  0  0  0  0  0  0  0  0  0  0
   35.3310   17.1449    1.1836 H   0  0  0  0  0  0  0  0  0  0  0  0
   36.7211   15.1043    3.4801 H   0  0  0  0  0  0  0  0  0  0  0  0
   35.7650   15.4073    1.9899 H   0  0  0  0  0  0  0  0  0  0  0  0
   37.5400   15.6832    1.9899 H   0  0  0  0  0  0  0  0  0  0  0  0
   36.1934   16.6422    5.3962 H   0  0  0  0  0  0  0  0  0  0  0  0
   37.8344   15.9401    5.7302 H   0  0  0  0  0  0  0  0  0  0  0  0
   36.4900   18.2060    7.2862 H   0  0  0  0  0  0  0  0  0  0  0  0
   35.4159   16.1117    7.7826 H   0  0  0  0  0  0  0  0  0  0  0  0
   36.9449   15.2589    7.9551 H   0  0  0  0  0  0  0  0  0  0  0  0
   36.2240   17.8262    9.5404 H   0  0  0  0  0  0  0  0  0  0  0  0
   35.1558   15.3085    9.5879 H   0  0  0  0  0  0  0  0  0  0  0  0
   35.1620   16.2618   12.1625 H   0  0  0  0  0  0  0  0  0  0  0  0
   34.8412   18.3186   12.4327 H   0  0  0  0  0  0  0  0  0  0  0  0
   35.7408   18.4410   10.8828 H   0  0  0  0  0  0  0  0  0  0  0  0
   33.9447   18.4623   10.8828 H   0  0  0  0  0  0  0  0  0  0  0  0
   32.8598   16.0386   11.7738 H   0  0  0  0  0  0  0  0  0  0  0  0
   33.0099   17.0105   10.2706 H   0  0  0  0  0  0  0  0  0  0  0  0
   33.4826   15.2775   10.2706 H   0  0  0  0  0  0  0  0  0  0  0  0
   39.3268   12.2689   12.8384 H   0  0  0  0  0  0  0  0  0  0  0  0
   38.8127   13.9349   13.2161 H   0  0  0  0  0  0  0  0  0  0  0  0
   38.0249   16.8651   11.9143 H   0  0  0  0  0  0  0  0  0  0  0  0
   40.8910   20.2236    5.8488 H   0  0  0  0  0  0  0  0  0  0  0  0
  2  1  1  6
  2  3  1  0
  2  4  1  0
  2  5  1  0
  5  6  1  0
  6  7  1  0
  7  8  2  0
  7  9  1  0
  9 10  1  0
 10 11  2  0
 10 41  1  0
 11 12  1  0
 12 13  1  0
 12 16  2  0
 13 14  1  0
 13 15  1  0
 16 17  1  0
 16 40  1  0
 18 17  1  0
 18 19  1  0
 18 37  1  0
 20 19  1  0
 20 21  1  0
 20 33  1  0
 21 22  1  0
 21 25  1  0
 22 23  1  0
 22 24  1  0
 25 26  1  0
 25 27  2  0
 27 28  1  0
 27 31  1  0
 28 29  2  0
 28 30  1  0
 31 32  2  0
 31 33  1  0
 33 34  1  1
 33 35  1  0
 35 36  1  0
 35 37  2  0
 37 38  1  0
 38 39  2  0
 38 40  1  0
 40 41  2  0
 41 42  1  0
  1 43  1  0
  1 44  1  0
  1 45  1  0
  3 46  1  0
  3 47  1  0
  3 48  1  0
  4 49  1  0
  4 50  1  0
  4 51  1  0
  5 52  1  0
  5 53  1  0
  6 54  1  0
  6 55  1  0
  9 56  1  0
 11 57  1  0
 13 58  1  1
 14 59  1  0
 14 60  1  0
 14 61  1  0
 15 62  1  0
 15 63  1  0
 15 64  1  0
 17 65  1  0
 17 66  1  0
 18 67  1  6
 19 68  1  0
 19 69  1  0
 20 70  1  6
 21 71  1  6
 22 72  1  1
 23 73  1  0
 23 74  1  0
 23 75  1  0
 24 76  1  0
 24 77  1  0
 24 78  1  0
 30 79  1  0
 30 80  1  0
 34 81  1  0
 42 82  1  0
M  CHG  5   5   1  13   1  22   1  26  -1  36  -1
M  END
>  <filename_input>  (17) 
6YR2_T1C_docked.sdf

>  <pdb_id>  (17) 
6YR2_T1C

>  <pose_rank>  (17) 
16

>  <num_atoms_heavy>  (17) 
42

>  <num_torsions>  (17) 
7

>  <pose>  (17) 
[39.22601493697425, 19.66947464653832, 3.1637202413756675, -2.124339516707486, -2.1803791093167413, -2.6918396610208584, -1.5688254121923564, -2.001723087693968, -0.5544432464625798, -1.3916788616528386, 1.2100260567224486, 0.7153701196754231, -1.3366359783435522]

>  <energy>  (17) 
-425.40458986167965

>  <inter_energy>  (17) 
-432.7196630703187

>  <intra_energy>  (17) 
20.682462923459592

>  <rmsd>  (17) 
10.6815

>  <sdf_rank>  (17) 
0

$$$$

     RDKit          3D

 82 85  0  0  0  0  0  0  0  0999 V2000
   38.7932   10.1410    6.7334 C   0  0  0  0  0  0  0  0  0  0  0  0
   37.8938   10.2453    7.9915 C   0  0  1  0  0  0  0  0  0  0  0  0
   36.6263    9.3478    8.0262 C   0  0  0  0  0  0  0  0  0  0  0  0
   38.7624    9.8226    9.2035 C   0  0  0  0  0  0  0  0  0  0  0  0
   37.4014   11.6772    8.1028 N   0  0  0  0  0  0  0  0  0  0  0  0
   38.1467   12.7768    7.4072 C   0  0  0  0  0  0  0  0  0  0  0  0
   38.0125   13.9862    8.2787 C   0  0  0  0  0  0  0  0  0  0  0  0
   38.8752   14.8021    8.2802 O   0  0  0  0  0  0  0  0  0  0  0  0
   36.9848   14.1210    9.0013 N   0  0  0  0  0  0  0  0  0  0  0  0
   36.5939   15.1094    9.8173 C   0  0  0  0  0  0  0  0  0  0  0  0
   36.1034   16.3766    9.5033 C   0  0  0  0  0  0  0  0  0  0  0  0
   35.6570   17.2461   10.5364 C   0  0  0  0  0  0  0  0  0  0  0  0
   35.1580   18.5981   10.3279 N   0  0  1  0  0  0  0  0  0  0  0  0
   36.1586   19.1476    9.3861 C   0  0  0  0  0  0  0  0  0  0  0  0
   33.8847   18.8372    9.6867 C   0  0  0  0  0  0  0  0  0  0  0  0
   35.8048   16.8162   11.8904 C   0  0  0  0  0  0  0  0  0  0  0  0
   35.2844   17.6736   13.0471 C   0  0  0  0  0  0  0  0  0  0  0  0
   36.0767   17.4583   14.3140 C   0  0  1  0  0  0  0  0  0  0  0  0
   35.5167   18.3553   15.4422 C   0  0  0  0  0  0  0  0  0  0  0  0
   36.3023   17.9452   16.6682 C   0  0  1  0  0  0  0  0  0  0  0  0
   35.9284   18.9431   17.7297 C   0  0  2  0  0  0  0  0  0  0  0  0
   37.1022   19.5163   18.4529 N   0  0  1  0  0  0  0  0  0  0  0  0
   37.1130   20.9207   18.9008 C   0  0  0  0  0  0  0  0  0  0  0  0
   37.3399   18.6976   19.6384 C   0  0  0  0  0  0  0  0  0  0  0  0
   34.9428   18.4255   18.7075 C   0  0  0  0  0  0  0  0  0  0  0  0
   34.9695   19.1627   19.7595 O   0  0  0  0  0  0  0  0  0  0  0  0
   34.1692   17.3872   18.5757 C   0  0  0  0  0  0  0  0  0  0  0  0
   32.9201   17.1404   19.3468 C   0  0  0  0  0  0  0  0  0  0  0  0
   31.8580   17.7553   19.0314 O   0  0  0  0  0  0  0  0  0  0  0  0
   32.8755   16.3439   20.3484 N   0  0  0  0  0  0  0  0  0  0  0  0
   34.5293   16.4781   17.6202 C   0  0  0  0  0  0  0  0  0  0  0  0
   33.7567   15.5915   17.1965 O   0  0  0  0  0  0  0  0  0  0  0  0
   35.9761   16.5333   17.0839 C   0  0  2  0  0  0  0  0  0  0  0  0
   36.8503   16.1043   18.1229 O   0  0  0  0  0  0  0  0  0  0  0  0
   36.1781   15.6032   15.9159 C   0  0  0  0  0  0  0  0  0  0  0  0
   36.4316   14.3690   16.2678 O   0  0  0  0  0  0  0  0  0  0  0  0
   36.1684   15.9775   14.6167 C   0  0  0  0  0  0  0  0  0  0  0  0
   36.3805   15.0823   13.5916 C   0  0  0  0  0  0  0  0  0  0  0  0
   36.6262   13.8644   13.6950 O   0  0  0  0  0  0  0  0  0  0  0  0
   36.2607   15.5385   12.1869 C   0  0  0  0  0  0  0  0  0  0  0  0
   36.6633   14.7120   11.1359 C   0  0  0  0  0  0  0  0  0  0  0  0
   37.0947   13.4685   11.3417 O   0  0  0  0  0  0  0  0  0  0  0  0
   39.8421   10.0194    7.0416 H   0  0  0  0  0  0  0  0  0  0  0  0
   38.4844    9.2726    6.1329 H   0  0  0  0  0  0  0  0  0  0  0  0
   38.6912   11.0570    6.1329 H   0  0  0  0  0  0  0  0  0  0  0  0
   36.3460    9.1493    9.0712 H   0  0  0  0  0  0  0  0  0  0  0  0
   35.7987    9.8622    7.5159 H   0  0  0  0  0  0  0  0  0  0  0  0
   36.8367    8.3962    7.5159 H   0  0  0  0  0  0  0  0  0  0  0  0
   38.2386   10.0775   10.1366 H   0  0  0  0  0  0  0  0  0  0  0  0
   38.9396    8.7376    9.1670 H   0  0  0  0  0  0  0  0  0  0  0  0
   39.7255   10.3528    9.1670 H   0  0  0  0  0  0  0  0  0  0  0  0
   36.4388   11.6911    7.7366 H   0  0  0  0  0  0  0  0  0  0  0  0
   37.5281   11.8968    9.1012 H   0  0  0  0  0  0  0  0  0  0  0  0
   39.2064   12.5057    7.2913 H   0  0  0  0  0  0  0  0  0  0  0  0
   37.7435   12.9607    6.4004 H   0  0  0  0  0  0  0  0  0  0  0  0
   36.3291   13.3280    8.9548 H   0  0  0  0  0  0  0  0  0  0  0  0
   36.0617   16.7044    8.4541 H   0  0  0  0  0  0  0  0  0  0  0  0
   35.0194   18.9919   11.2695 H   0  0  0  0  0  0  0  0  0  0  0  0
   36.9850   19.6014    9.9528 H   0  0  0  0  0  0  0  0  0  0  0  0
   36.5496   18.3377    8.7528 H   0  0  0  0  0  0  0  0  0  0  0  0
   35.6849   19.9121    8.7528 H   0  0  0  0  0  0  0  0  0  0  0  0
   33.1096   18.9827   10.4535 H   0  0  0  0  0  0  0  0  0  0  0  0
   33.9535   19.7381    9.0593 H   0  0  0  0  0  0  0  0  0  0  0  0
   33.6220   17.9727    9.0593 H   0  0  0  0  0  0  0  0  0  0  0  0
   35.3528   18.7337   12.7617 H   0  0  0  0  0  0  0  0  0  0  0  0
   34.2428   17.3802   13.2446 H   0  0  0  0  0  0  0  0  0  0  0  0
   37.1220   17.7811   14.1997 H   0  0  0  0  0  0  0  0  0  0  0  0
   35.6798   19.4185   15.2122 H   0  0  0  0  0  0  0  0  0  0  0  0
   34.4318   18.2337   15.5773 H   0  0  0  0  0  0  0  0  0  0  0  0
   37.3860   17.9475   16.4798 H   0  0  0  0  0  0  0  0  0  0  0  0
   35.4508   19.7559   17.1629 H   0  0  0  0  0  0  0  0  0  0  0  0
   37.8215   19.5069   17.7157 H   0  0  0  0  0  0  0  0  0  0  0  0
   37.1133   20.9550   20.0002 H   0  0  0  0  0  0  0  0  0  0  0  0
   38.0151   21.4207   18.5181 H   0  0  0  0  0  0  0  0  0  0  0  0
   36.2189   21.4346   18.5181 H   0  0  0  0  0  0  0  0  0  0  0  0
   37.1648   19.3006   20.5416 H   0  0  0  0  0  0  0  0  0  0  0  0
   36.6544   17.8373   19.6334 H   0  0  0  0  0  0  0  0  0  0  0  0
   38.3794   18.3381   19.6334 H   0  0  0  0  0  0  0  0  0  0  0  0
   31.9897   16.2019   20.8544 H   0  0  0  0  0  0  0  0  0  0  0  0
   33.7254   15.8451   20.6480 H   0  0  0  0  0  0  0  0  0  0  0  0
   36.4415   16.3049   19.0019 H   0  0  0  0  0  0  0  0  0  0  0  0
   37.1695   13.1167   12.2640 H   0  0  0  0  0  0  0  0  0  0  0  0
  2  1  1  6
  2  3  1  0
  2  4  1  0
  2  5  1  0
  5  6  1  0
  6  7  1  0
  7  8  2  0
  7  9  1  0
  9 10  1  0
 10 11  2  0
 10 41  1  0
 11 12  1  0
 12 13  1  0
 12 16  2  0
 13 14  1  0
 13 15  1  0
 16 17  1  0
 16 40  1  0
 18 17  1  0
 18 19  1  0
 18 37  1  0
 20 19  1  0
 20 21  1  0
 20 33  1  0
 21 22  1  0
 21 25  1  0
 22 23  1  0
 22 24  1  0
 25 26  1  0
 25 27  2  0
 27 28  1  0
 27 31  1  0
 28 29  2  0
 28 30  1  0
 31 32  2  0
 31 33  1  0
 33 34  1  1
 33 35  1  0
 35 36  1  0
 35 37  2  0
 37 38  1  0
 38 39  2  0
 38 40  1  0
 40 41  2  0
 41 42  1  0
  1 43  1  0
  1 44  1  0
  1 45  1  0
  3 46  1  0
  3 47  1  0
  3 48  1  0
  4 49  1  0
  4 50  1  0
  4 51  1  0
  5 52  1  0
  5 53  1  0
  6 54  1  0
  6 55  1  0
  9 56  1  0
 11 57  1  0
 13 58  1  1
 14 59  1  0
 14 60  1  0
 14 61  1  0
 15 62  1  0
 15 63  1  0
 15 64  1  0
 17 65  1  0
 17 66  1  0
 18 67  1  6
 19 68  1  0
 19 69  1  0
 20 70  1  6
 21 71  1  6
 22 72  1  6
 23 73  1  0
 23 74  1  0
 23 75  1  0
 24 76  1  0
 24 77  1  0
 24 78  1  0
 30 79  1  0
 30 80  1  0
 34 81  1  0
 42 82  1  0
M  CHG  5   5   1  13   1  22   1  26  -1  36  -1
M  END
>  <filename_input>  (18) 
6YR2_T1C_docked.sdf

>  <pdb_id>  (18) 
6YR2_T1C

>  <pose_rank>  (18) 
17

>  <num_atoms_heavy>  (18) 
42

>  <num_torsions>  (18) 
7

>  <pose>  (18) 
[36.593918934079205, 15.109399881601053, 9.817265614988363, 1.525459315764878, -0.03490981624192991, -0.2258338311068198, 0.7873060661210705, -4.049501848056374, 0.4886818575027213, -7.282424035516708, 0.7217935260947126, 3.336416062780959, -1.6737001529487587]

>  <energy>  (18) 
-421.7896160672748

>  <inter_energy>  (18) 
-485.43712313685853

>  <intra_energy>  (18) 
73.64748521243675

>  <rmsd>  (18) 
8.26939

>  <sdf_rank>  (18) 
0

$$$$

     RDKit          3D

 82 85  0  0  0  0  0  0  0  0999 V2000
   46.3697   20.4038   13.8958 C   0  0  0  0  0  0  0  0  0  0  0  0
   44.9939   21.0053   13.5114 C   0  0  1  0  0  0  0  0  0  0  0  0
   43.9806   21.2376   14.6658 C   0  0  0  0  0  0  0  0  0  0  0  0
   45.2685   22.3956   12.8840 C   0  0  0  0  0  0  0  0  0  0  0  0
   44.3175   20.0546   12.5398 N   0  0  0  0  0  0  0  0  0  0  0  0
   43.8323   18.7197   13.0205 C   0  0  0  0  0  0  0  0  0  0  0  0
   42.9235   18.1981   11.9520 C   0  0  0  0  0  0  0  0  0  0  0  0
   43.2561   18.2759   10.8147 O   0  0  0  0  0  0  0  0  0  0  0  0
   41.8151   17.6841   12.2745 N   0  0  0  0  0  0  0  0  0  0  0  0
   40.8554   17.1049   11.5404 C   0  0  0  0  0  0  0  0  0  0  0  0
   39.8481   17.6923   10.7753 C   0  0  0  0  0  0  0  0  0  0  0  0
   38.9804   16.8815    9.9929 C   0  0  0  0  0  0  0  0  0  0  0  0
   37.8778   17.3827    9.1845 N   0  0  1  0  0  0  0  0  0  0  0  0
   36.9541   17.8979   10.2195 C   0  0  0  0  0  0  0  0  0  0  0  0
   38.0586   18.4907    8.2737 C   0  0  0  0  0  0  0  0  0  0  0  0
   39.1200   15.4628   10.0824 C   0  0  0  0  0  0  0  0  0  0  0  0
   38.2640   14.5341    9.2172 C   0  0  0  0  0  0  0  0  0  0  0  0
   38.0338   13.1961    9.8775 C   0  0  1  0  0  0  0  0  0  0  0  0
   37.1562   12.3057    8.9675 C   0  0  0  0  0  0  0  0  0  0  0  0
   37.1187   10.9706    9.6776 C   0  0  1  0  0  0  0  0  0  0  0  0
   36.1045   10.1516    8.9273 C   0  0  2  0  0  0  0  0  0  0  0  0
   35.1121    9.4709    9.8111 N   0  0  1  0  0  0  0  0  0  0  0  0
   35.5047    8.9240   11.1225 C   0  0  0  0  0  0  0  0  0  0  0  0
   34.0187   10.4066   10.0586 C   0  0  0  0  0  0  0  0  0  0  0  0
   36.7086    9.1653    8.0013 C   0  0  0  0  0  0  0  0  0  0  0  0
   35.8296    8.2765    7.7041 O   0  0  0  0  0  0  0  0  0  0  0  0
   37.9296    9.1487    7.5508 C   0  0  0  0  0  0  0  0  0  0  0  0
   38.3863    8.4358    6.3265 C   0  0  0  0  0  0  0  0  0  0  0  0
   38.2863    9.0031    5.1979 O   0  0  0  0  0  0  0  0  0  0  0  0
   38.8568    7.2453    6.3584 N   0  0  0  0  0  0  0  0  0  0  0  0
   38.8462    9.8821    8.2516 C   0  0  0  0  0  0  0  0  0  0  0  0
   39.9720   10.1804    7.7978 O   0  0  0  0  0  0  0  0  0  0  0  0
   38.4759   10.3140    9.6869 C   0  0  2  0  0  0  0  0  0  0  0  0
   38.4625    9.1519   10.5097 O   0  0  0  0  0  0  0  0  0  0  0  0
   39.4920   11.2625   10.2680 C   0  0  0  0  0  0  0  0  0  0  0  0
   40.5285   10.6614   10.7929 O   0  0  0  0  0  0  0  0  0  0  0  0
   39.3571   12.6069   10.3187 C   0  0  0  0  0  0  0  0  0  0  0  0
   40.3137   13.4217   10.8826 C   0  0  0  0  0  0  0  0  0  0  0  0
   41.3783   13.0674   11.4261 O   0  0  0  0  0  0  0  0  0  0  0  0
   40.1498   14.8930   10.8192 C   0  0  0  0  0  0  0  0  0  0  0  0
   40.9922   15.7327   11.5506 C   0  0  0  0  0  0  0  0  0  0  0  0
   42.0118   15.2600   12.2661 O   0  0  0  0  0  0  0  0  0  0  0  0
   46.4594   20.3645   14.9915 H   0  0  0  0  0  0  0  0  0  0  0  0
   46.4532   19.3870   13.4844 H   0  0  0  0  0  0  0  0  0  0  0  0
   47.1728   21.0329   13.4844 H   0  0  0  0  0  0  0  0  0  0  0  0
   44.4927   21.1202   15.6323 H   0  0  0  0  0  0  0  0  0  0  0  0
   43.5666   22.2540   14.5913 H   0  0  0  0  0  0  0  0  0  0  0  0
   43.1652   20.5031   14.5913 H   0  0  0  0  0  0  0  0  0  0  0  0
   45.4149   23.1364   13.6839 H   0  0  0  0  0  0  0  0  0  0  0  0
   46.1739   22.3445   12.2614 H   0  0  0  0  0  0  0  0  0  0  0  0
   44.4117   22.6926   12.2614 H   0  0  0  0  0  0  0  0  0  0  0  0
   43.4990   20.5500   12.1585 H   0  0  0  0  0  0  0  0  0  0  0  0
   45.0700   19.8120   11.8797 H   0  0  0  0  0  0  0  0  0  0  0  0
   44.6809   18.0354   13.1674 H   0  0  0  0  0  0  0  0  0  0  0  0
   43.3101   18.8058   13.9849 H   0  0  0  0  0  0  0  0  0  0  0  0
   41.6128   17.7162   13.2840 H   0  0  0  0  0  0  0  0  0  0  0  0
   39.7245   18.7853   10.7771 H   0  0  0  0  0  0  0  0  0  0  0  0
   37.6185   16.6084    8.5568 H   0  0  0  0  0  0  0  0  0  0  0  0
   37.3587   17.6723   11.2172 H   0  0  0  0  0  0  0  0  0  0  0  0
   36.8460   18.9866   10.1053 H   0  0  0  0  0  0  0  0  0  0  0  0
   35.9710   17.4178   10.1053 H   0  0  0  0  0  0  0  0  0  0  0  0
   38.2096   19.4166    8.8481 H   0  0  0  0  0  0  0  0  0  0  0  0
   38.9382   18.3047    7.6400 H   0  0  0  0  0  0  0  0  0  0  0  0
   37.1654   18.5939    7.6400 H   0  0  0  0  0  0  0  0  0  0  0  0
   37.2903   15.0136    9.0381 H   0  0  0  0  0  0  0  0  0  0  0  0
   38.8017   14.3585    8.2738 H   0  0  0  0  0  0  0  0  0  0  0  0
   37.4534   13.2956   10.8066 H   0  0  0  0  0  0  0  0  0  0  0  0
   36.1437   12.7248    8.8713 H   0  0  0  0  0  0  0  0  0  0  0  0
   37.5541   12.2276    7.9450 H   0  0  0  0  0  0  0  0  0  0  0  0
   36.8428   11.0778   10.7371 H   0  0  0  0  0  0  0  0  0  0  0  0
   35.5651   10.8976    8.3252 H   0  0  0  0  0  0  0  0  0  0  0  0
   34.8994    8.6236    9.2655 H   0  0  0  0  0  0  0  0  0  0  0  0
   35.0643    9.5375   11.9223 H   0  0  0  0  0  0  0  0  0  0  0  0
   35.1418    7.8895   11.2119 H   0  0  0  0  0  0  0  0  0  0  0  0
   36.6010    8.9370   11.2119 H   0  0  0  0  0  0  0  0  0  0  0  0
   33.8778   10.5272   11.1429 H   0  0  0  0  0  0  0  0  0  0  0  0
   34.2613   11.3811    9.6098 H   0  0  0  0  0  0  0  0  0  0  0  0
   33.0934   10.0163    9.6098 H   0  0  0  0  0  0  0  0  0  0  0  0
   39.1616    6.7886    5.4870 H   0  0  0  0  0  0  0  0  0  0  0  0
   38.9305    6.7445    7.2554 H   0  0  0  0  0  0  0  0  0  0  0  0
   38.4656    9.4218   11.4622 H   0  0  0  0  0  0  0  0  0  0  0  0
   42.1698   14.2841   12.3178 H   0  0  0  0  0  0  0  0  0  0  0  0
  2  1  1  1
  2  3  1  0
  2  4  1  0
  2  5  1  0
  5  6  1  0
  6  7  1  0
  7  8  2  0
  7  9  1  0
  9 10  1  0
 10 11  2  0
 10 41  1  0
 11 12  1  0
 12 13  1  0
 12 16  2  0
 13 14  1  0
 13 15  1  0
 16 17  1  0
 16 40  1  0
 18 17  1  0
 18 19  1  0
 18 37  1  0
 20 19  1  0
 20 21  1  0
 20 33  1  0
 21 22  1  0
 21 25  1  0
 22 23  1  0
 22 24  1  0
 25 26  1  0
 25 27  2  0
 27 28  1  0
 27 31  1  0
 28 29  2  0
 28 30  1  0
 31 32  2  0
 31 33  1  0
 33 34  1  1
 33 35  1  0
 35 36  1  0
 35 37  2  0
 37 38  1  0
 38 39  2  0
 38 40  1  0
 40 41  2  0
 41 42  1  0
  1 43  1  0
  1 44  1  0
  1 45  1  0
  3 46  1  0
  3 47  1  0
  3 48  1  0
  4 49  1  0
  4 50  1  0
  4 51  1  0
  5 52  1  0
  5 53  1  0
  6 54  1  0
  6 55  1  0
  9 56  1  0
 11 57  1  0
 13 58  1  6
 14 59  1  0
 14 60  1  0
 14 61  1  0
 15 62  1  0
 15 63  1  0
 15 64  1  0
 17 65  1  0
 17 66  1  0
 18 67  1  1
 19 68  1  0
 19 69  1  0
 20 70  1  1
 21 71  1  6
 22 72  1  6
 23 73  1  0
 23 74  1  0
 23 75  1  0
 24 76  1  0
 24 77  1  0
 24 78  1  0
 30 79  1  0
 30 80  1  0
 34 81  1  0
 42 82  1  0
M  CHG  5   5   1  13   1  22   1  26  -1  36  -1
M  END
>  <filename_input>  (19) 
6YR2_T1C_docked.sdf

>  <pdb_id>  (19) 
6YR2_T1C

>  <pose_rank>  (19) 
18

>  <num_atoms_heavy>  (19) 
42

>  <num_torsions>  (19) 
7

>  <pose>  (19) 
[40.855417040950144, 17.104855135042307, 11.540404016706706, -2.211566980537367, 0.2661812906895671, -2.4413867918428487, -1.8845277986237639, 0.39225046734559643, -0.34626708579800375, 0.5766866366465457, 0.35177398853902325, 0.17940732275721788, -1.5420420558259995]

>  <energy>  (19) 
-333.82793984520345

>  <inter_energy>  (19) 
-356.28981913146924

>  <intra_energy>  (19) 
20.699929023267796

>  <rmsd>  (19) 
9.41141

>  <sdf_rank>  (19) 
0

$$$$

     RDKit          3D

 82 85  0  0  0  0  0  0  0  0999 V2000
   47.4212    9.0661    4.9880 C   0  0  0  0  0  0  0  0  0  0  0  0
   47.1621    9.6446    3.5736 C   0  0  1  0  0  0  0  0  0  0  0  0
   46.8661   11.1667    3.4798 C   0  0  0  0  0  0  0  0  0  0  0  0
   48.4463    9.3966    2.7423 C   0  0  0  0  0  0  0  0  0  0  0  0
   45.9495    8.9411    2.9904 N   0  0  0  0  0  0  0  0  0  0  0  0
   44.6302    9.6518    2.9383 C   0  0  0  0  0  0  0  0  0  0  0  0
   43.7878    9.0445    4.0161 C   0  0  0  0  0  0  0  0  0  0  0  0
   43.8263    7.8712    4.1945 O   0  0  0  0  0  0  0  0  0  0  0  0
   43.0466    9.7881    4.7193 N   0  0  0  0  0  0  0  0  0  0  0  0
   42.2484    9.5193    5.7614 C   0  0  0  0  0  0  0  0  0  0  0  0
   40.8573    9.5689    5.8488 C   0  0  0  0  0  0  0  0  0  0  0  0
   40.2009    9.1505    7.0388 C   0  0  0  0  0  0  0  0  0  0  0  0
   38.7609    9.1897    7.2523 N   0  0  1  0  0  0  0  0  0  0  0  0
   38.5016   10.6460    7.2963 C   0  0  0  0  0  0  0  0  0  0  0  0
   37.8411    8.6860    6.2573 C   0  0  0  0  0  0  0  0  0  0  0  0
   41.0064    8.7639    8.1532 C   0  0  0  0  0  0  0  0  0  0  0  0
   40.3650    8.2397    9.4407 C   0  0  0  0  0  0  0  0  0  0  0  0
   41.2132    8.5292   10.6556 C   0  0  1  0  0  0  0  0  0  0  0  0
   40.5136    7.9899   11.9248 C   0  0  0  0  0  0  0  0  0  0  0  0
   41.5187    8.2228   13.0311 C   0  0  1  0  0  0  0  0  0  0  0  0
   40.7860    7.9028   14.3051 C   0  0  2  0  0  0  0  0  0  0  0  0
   40.9446    8.9429   15.3646 N   0  0  1  0  0  0  0  0  0  0  0  0
   42.2765    9.4399   15.7550 C   0  0  0  0  0  0  0  0  0  0  0  0
   40.1634   10.1102   14.9652 C   0  0  0  0  0  0  0  0  0  0  0  0
   41.1179    6.5696   14.8597 C   0  0  0  0  0  0  0  0  0  0  0  0
   40.7696    6.5315   16.0959 O   0  0  0  0  0  0  0  0  0  0  0  0
   41.6870    5.5757   14.2414 C   0  0  0  0  0  0  0  0  0  0  0  0
   41.6208    4.1491   14.6608 C   0  0  0  0  0  0  0  0  0  0  0  0
   40.5114    3.5377   14.6277 O   0  0  0  0  0  0  0  0  0  0  0  0
   42.6443    3.5088   15.0876 N   0  0  0  0  0  0  0  0  0  0  0  0
   42.3653    5.8815   13.0945 C   0  0  0  0  0  0  0  0  0  0  0  0
   42.7220    5.0195   12.2624 O   0  0  0  0  0  0  0  0  0  0  0  0
   42.7419    7.3594   12.8539 C   0  0  2  0  0  0  0  0  0  0  0  0
   43.7475    7.7192   13.7957 O   0  0  0  0  0  0  0  0  0  0  0  0
   43.3181    7.5757   11.4788 C   0  0  0  0  0  0  0  0  0  0  0  0
   44.5969    7.3114   11.4000 O   0  0  0  0  0  0  0  0  0  0  0  0
   42.6309    8.0539   10.4170 C   0  0  0  0  0  0  0  0  0  0  0  0
   43.2195    8.2499    9.1874 C   0  0  0  0  0  0  0  0  0  0  0  0
   44.4130    8.0541    8.8847 O   0  0  0  0  0  0  0  0  0  0  0  0
   42.3881    8.6846    8.0404 C   0  0  0  0  0  0  0  0  0  0  0  0
   42.9847    9.0822    6.8422 C   0  0  0  0  0  0  0  0  0  0  0  0
   44.3021    9.0172    6.6543 O   0  0  0  0  0  0  0  0  0  0  0  0
   47.0956    9.7930    5.7468 H   0  0  0  0  0  0  0  0  0  0  0  0
   46.8563    8.1302    5.1106 H   0  0  0  0  0  0  0  0  0  0  0  0
   48.4956    8.8646    5.1106 H   0  0  0  0  0  0  0  0  0  0  0  0
   46.7843   11.5875    4.4928 H   0  0  0  0  0  0  0  0  0  0  0  0
   47.6838   11.6667    2.9400 H   0  0  0  0  0  0  0  0  0  0  0  0
   45.9206   11.3238    2.9400 H   0  0  0  0  0  0  0  0  0  0  0  0
   49.2963    9.2324    3.4209 H   0  0  0  0  0  0  0  0  0  0  0  0
   48.3067    8.5088    2.1080 H   0  0  0  0  0  0  0  0  0  0  0  0
   48.6473   10.2725    2.1080 H   0  0  0  0  0  0  0  0  0  0  0  0
   46.1896    8.6862    2.0218 H   0  0  0  0  0  0  0  0  0  0  0  0
   45.7797    8.1697    3.6515 H   0  0  0  0  0  0  0  0  0  0  0  0
   44.7685   10.7274    3.1226 H   0  0  0  0  0  0  0  0  0  0  0  0
   44.1563    9.5468    1.9512 H   0  0  0  0  0  0  0  0  0  0  0  0
   43.0581   10.7798    4.4412 H   0  0  0  0  0  0  0  0  0  0  0  0
   40.2666    9.9327    4.9951 H   0  0  0  0  0  0  0  0  0  0  0  0
   38.5827    8.5780    8.0615 H   0  0  0  0  0  0  0  0  0  0  0  0
   38.4427   10.9764    8.3438 H   0  0  0  0  0  0  0  0  0  0  0  0
   39.3188   11.1795    6.7889 H   0  0  0  0  0  0  0  0  0  0  0  0
   37.5504   10.8645    6.7889 H   0  0  0  0  0  0  0  0  0  0  0  0
   36.9818    8.2153    6.7573 H   0  0  0  0  0  0  0  0  0  0  0  0
   37.4894    9.5174    5.6288 H   0  0  0  0  0  0  0  0  0  0  0  0
   38.3523    7.9419    5.6288 H   0  0  0  0  0  0  0  0  0  0  0  0
   39.3843    8.7207    9.5698 H   0  0  0  0  0  0  0  0  0  0  0  0
   40.2649    7.1481    9.3495 H   0  0  0  0  0  0  0  0  0  0  0  0
   41.3117    9.6101   10.8345 H   0  0  0  0  0  0  0  0  0  0  0  0
   39.5826    8.5419   12.1212 H   0  0  0  0  0  0  0  0  0  0  0  0
   40.2286    6.9317   11.8309 H   0  0  0  0  0  0  0  0  0  0  0  0
   41.8934    9.2570   13.0330 H   0  0  0  0  0  0  0  0  0  0  0  0
   39.7296    7.8906   13.9990 H   0  0  0  0  0  0  0  0  0  0  0  0
   40.6385    8.4293   16.2032 H   0  0  0  0  0  0  0  0  0  0  0  0
   42.3504    9.4675   16.8521 H   0  0  0  0  0  0  0  0  0  0  0  0
   43.0504    8.7700   15.3521 H   0  0  0  0  0  0  0  0  0  0  0  0
   42.4224   10.4530   15.3521 H   0  0  0  0  0  0  0  0  0  0  0  0
   39.8095   10.6390   15.8624 H   0  0  0  0  0  0  0  0  0  0  0  0
   40.7925   10.7850   14.3661 H   0  0  0  0  0  0  0  0  0  0  0  0
   39.2997    9.7858   14.3661 H   0  0  0  0  0  0  0  0  0  0  0  0
   42.5544    2.5218   15.3678 H   0  0  0  0  0  0  0  0  0  0  0  0
   43.5576    3.9809   15.1506 H   0  0  0  0  0  0  0  0  0  0  0  0
   43.3993    7.5946   14.7141 H   0  0  0  0  0  0  0  0  0  0  0  0
   44.8923    8.7117    7.3881 H   0  0  0  0  0  0  0  0  0  0  0  0
  2  1  1  1
  2  3  1  0
  2  4  1  0
  2  5  1  0
  5  6  1  0
  6  7  1  0
  7  8  2  0
  7  9  1  0
  9 10  1  0
 10 11  2  0
 10 41  1  0
 11 12  1  0
 12 13  1  0
 12 16  2  0
 13 14  1  0
 13 15  1  0
 16 17  1  0
 16 40  1  0
 18 17  1  0
 18 19  1  0
 18 37  1  0
 20 19  1  0
 20 21  1  0
 20 33  1  0
 21 22  1  0
 21 25  1  0
 22 23  1  0
 22 24  1  0
 25 26  1  0
 25 27  2  0
 27 28  1  0
 27 31  1  0
 28 29  2  0
 28 30  1  0
 31 32  2  0
 31 33  1  0
 33 34  1  1
 33 35  1  0
 35 36  1  0
 35 37  2  0
 37 38  1  0
 38 39  2  0
 38 40  1  0
 40 41  2  0
 41 42  1  0
  1 43  1  0
  1 44  1  0
  1 45  1  0
  3 46  1  0
  3 47  1  0
  3 48  1  0
  4 49  1  0
  4 50  1  0
  4 51  1  0
  5 52  1  0
  5 53  1  0
  6 54  1  0
  6 55  1  0
  9 56  1  0
 11 57  1  0
 13 58  1  1
 14 59  1  0
 14 60  1  0
 14 61  1  0
 15 62  1  0
 15 63  1  0
 15 64  1  0
 17 65  1  0
 17 66  1  0
 18 67  1  1
 19 68  1  0
 19 69  1  0
 20 70  1  1
 21 71  1  6
 22 72  1  1
 23 73  1  0
 23 74  1  0
 23 75  1  0
 24 76  1  0
 24 77  1  0
 24 78  1  0
 30 79  1  0
 30 80  1  0
 34 81  1  0
 42 82  1  0
M  CHG  5   5   1  13   1  22   1  26  -1  36  -1
M  END
>  <filename_input>  (20) 
6YR2_T1C_docked.sdf

>  <pdb_id>  (20) 
6YR2_T1C

>  <pose_rank>  (20) 
19

>  <num_atoms_heavy>  (20) 
42

>  <num_torsions>  (20) 
7

>  <pose>  (20) 
[42.24835780908987, 9.519261104844105, 5.761376248028216, 1.7064921859131885, 0.9921269371789008, 0.6856229412814319, -2.4473667168025344, 5.188239605558984, 1.205191686460205, 1.1851717311213754, 0.32661457501348035, -6.35224944790965, -1.879073381909936]

>  <energy>  (20) 
-233.9201367459771

>  <inter_energy>  (20) 
-295.10401385101954

>  <intra_energy>  (20) 
65.43708382370735

>  <rmsd>  (20) 
10.6783

>  <sdf_rank>  (20) 
0

$$$$

     RDKit          3D

 82 85  0  0  0  0  0  0  0  0999 V2000
   31.2649   14.5831   20.3460 C   0  0  0  0  0  0  0  0  0  0  0  0
   31.7459   14.6778   18.8755 C   0  0  1  0  0  0  0  0  0  0  0  0
   32.1568   16.0842   18.3593 C   0  0  0  0  0  0  0  0  0  0  0  0
   33.0048   13.7821   18.7538 C   0  0  0  0  0  0  0  0  0  0  0  0
   30.6140   14.2115   17.9774 N   0  0  0  0  0  0  0  0  0  0  0  0
   29.6035   13.2344   18.4997 C   0  0  0  0  0  0  0  0  0  0  0  0
   29.6300   12.0678   17.5626 C   0  0  0  0  0  0  0  0  0  0  0  0
   28.6278   11.4670   17.3513 O   0  0  0  0  0  0  0  0  0  0  0  0
   30.7180   11.7376   17.0112 N   0  0  0  0  0  0  0  0  0  0  0  0
   31.0071   10.7889   16.1102 C   0  0  0  0  0  0  0  0  0  0  0  0
   30.5242   10.6218   14.8125 C   0  0  0  0  0  0  0  0  0  0  0  0
   31.0392    9.5850   13.9866 C   0  0  0  0  0  0  0  0  0  0  0  0
   30.5875    9.2987   12.6322 N   0  0  1  0  0  0  0  0  0  0  0  0
   31.5998   10.0091   11.8195 C   0  0  0  0  0  0  0  0  0  0  0  0
   30.5840    7.9500   12.1119 C   0  0  0  0  0  0  0  0  0  0  0  0
   31.9916    8.6828   14.5517 C   0  0  0  0  0  0  0  0  0  0  0  0
   32.6355    7.5863   13.6991 C   0  0  0  0  0  0  0  0  0  0  0  0
   33.0293    6.3846   14.5235 C   0  0  1  0  0  0  0  0  0  0  0  0
   33.6617    5.3072   13.6123 C   0  0  0  0  0  0  0  0  0  0  0  0
   34.1256    4.2337   14.5719 C   0  0  1  0  0  0  0  0  0  0  0  0
   34.5527    3.0832   13.7022 C   0  0  2  0  0  0  0  0  0  0  0  0
   33.9991    1.7664   14.1366 N   0  0  1  0  0  0  0  0  0  0  0  0
   33.3592    1.6032   15.4546 C   0  0  0  0  0  0  0  0  0  0  0  0
   33.0186    1.3435   13.1406 C   0  0  0  0  0  0  0  0  0  0  0  0
   36.0215    2.9786   13.5385 C   0  0  0  0  0  0  0  0  0  0  0  0
   36.3141    1.7973   13.1266 O   0  0  0  0  0  0  0  0  0  0  0  0
   36.9110    3.8979   13.7788 C   0  0  0  0  0  0  0  0  0  0  0  0
   38.2891    3.9306   13.2172 C   0  0  0  0  0  0  0  0  0  0  0  0
   39.2377    3.3827   13.8539 O   0  0  0  0  0  0  0  0  0  0  0  0
   38.5698    4.5211   12.1162 N   0  0  0  0  0  0  0  0  0  0  0  0
   36.5170    4.9291   14.5853 C   0  0  0  0  0  0  0  0  0  0  0  0
   37.1529    6.0009   14.6820 O   0  0  0  0  0  0  0  0  0  0  0  0
   35.2512    4.7260   15.4458 C   0  0  2  0  0  0  0  0  0  0  0  0
   35.5521    3.7703   16.4576 O   0  0  0  0  0  0  0  0  0  0  0  0
   34.8336    5.9965   16.1395 C   0  0  0  0  0  0  0  0  0  0  0  0
   35.4731    6.2153   17.2596 O   0  0  0  0  0  0  0  0  0  0  0  0
   33.8551    6.8265   15.7134 C   0  0  0  0  0  0  0  0  0  0  0  0
   33.5039    7.9654   16.4036 C   0  0  0  0  0  0  0  0  0  0  0  0
   33.9858    8.3721   17.4792 O   0  0  0  0  0  0  0  0  0  0  0  0
   32.4901    8.8827   15.8321 C   0  0  0  0  0  0  0  0  0  0  0  0
   31.9712    9.9306   16.5953 C   0  0  0  0  0  0  0  0  0  0  0  0
   32.4126   10.1943   17.8243 O   0  0  0  0  0  0  0  0  0  0  0  0
   32.1165   14.7507   21.0218 H   0  0  0  0  0  0  0  0  0  0  0  0
   30.4950   15.3469   20.5299 H   0  0  0  0  0  0  0  0  0  0  0  0
   30.8420   13.5844   20.5299 H   0  0  0  0  0  0  0  0  0  0  0  0
   32.3504   16.7469   19.2156 H   0  0  0  0  0  0  0  0  0  0  0  0
   33.0675   15.9989   17.7483 H   0  0  0  0  0  0  0  0  0  0  0  0
   31.3433   16.5026   17.7483 H   0  0  0  0  0  0  0  0  0  0  0  0
   33.3690   13.5230   19.7589 H   0  0  0  0  0  0  0  0  0  0  0  0
   32.7487   12.8620   18.2081 H   0  0  0  0  0  0  0  0  0  0  0  0
   33.7901   14.3256   18.2081 H   0  0  0  0  0  0  0  0  0  0  0  0
   30.0945   15.0534   17.6906 H   0  0  0  0  0  0  0  0  0  0  0  0
   31.0979   13.6827   17.2377 H   0  0  0  0  0  0  0  0  0  0  0  0
   29.8734   12.9133   19.5166 H   0  0  0  0  0  0  0  0  0  0  0  0
   28.6009   13.6837   18.5533 H   0  0  0  0  0  0  0  0  0  0  0  0
   31.5289   12.2992   17.3078 H   0  0  0  0  0  0  0  0  0  0  0  0
   29.7431   11.2936   14.4270 H   0  0  0  0  0  0  0  0  0  0  0  0
   29.5905    9.5564   12.6110 H   0  0  0  0  0  0  0  0  0  0  0  0
   32.3169   10.5122   12.4849 H   0  0  0  0  0  0  0  0  0  0  0  0
   32.1335    9.2863   11.1848 H   0  0  0  0  0  0  0  0  0  0  0  0
   31.1017   10.7567   11.1848 H   0  0  0  0  0  0  0  0  0  0  0  0
   30.5821    7.2347   12.9475 H   0  0  0  0  0  0  0  0  0  0  0  0
   29.6854    7.7968   11.4961 H   0  0  0  0  0  0  0  0  0  0  0  0
   31.4817    7.7922   11.4961 H   0  0  0  0  0  0  0  0  0  0  0  0
   31.9175    7.2683   12.9288 H   0  0  0  0  0  0  0  0  0  0  0  0
   33.5484    8.0009   13.2466 H   0  0  0  0  0  0  0  0  0  0  0  0
   32.1521    5.8897   14.9659 H   0  0  0  0  0  0  0  0  0  0  0  0
   32.9175    4.9060   12.9086 H   0  0  0  0  0  0  0  0  0  0  0  0
   34.4822    5.7050   12.9971 H   0  0  0  0  0  0  0  0  0  0  0  0
   33.3286    3.9351   15.2688 H   0  0  0  0  0  0  0  0  0  0  0  0
   34.1175    3.3258   12.7215 H   0  0  0  0  0  0  0  0  0  0  0  0
   34.8570    1.2040   14.2289 H   0  0  0  0  0  0  0  0  0  0  0  0
   34.0985    1.7917   16.2470 H   0  0  0  0  0  0  0  0  0  0  0  0
   32.5288    2.3183   15.5501 H   0  0  0  0  0  0  0  0  0  0  0  0
   32.9728    0.5777   15.5501 H   0  0  0  0  0  0  0  0  0  0  0  0
   32.1228    0.9571   13.6489 H   0  0  0  0  0  0  0  0  0  0  0  0
   32.7414    2.2021   12.5113 H   0  0  0  0  0  0  0  0  0  0  0  0
   33.4528    0.5526   12.5113 H   0  0  0  0  0  0  0  0  0  0  0  0
   39.5374    4.5196   11.7631 H   0  0  0  0  0  0  0  0  0  0  0  0
   37.8280    4.9976   11.5836 H   0  0  0  0  0  0  0  0  0  0  0  0
   35.4226    4.1815   17.3489 H   0  0  0  0  0  0  0  0  0  0  0  0
   33.1052    9.6188   18.2356 H   0  0  0  0  0  0  0  0  0  0  0  0
  2  1  1  1
  2  3  1  0
  2  4  1  0
  2  5  1  0
  5  6  1  0
  6  7  1  0
  7  8  2  0
  7  9  1  0
  9 10  1  0
 10 11  2  0
 10 41  1  0
 11 12  1  0
 12 13  1  0
 12 16  2  0
 13 14  1  0
 13 15  1  0
 16 17  1  0
 16 40  1  0
 18 17  1  0
 18 19  1  0
 18 37  1  0
 20 19  1  0
 20 21  1  0
 20 33  1  0
 21 22  1  0
 21 25  1  0
 22 23  1  0
 22 24  1  0
 25 26  1  0
 25 27  2  0
 27 28  1  0
 27 31  1  0
 28 29  2  0
 28 30  1  0
 31 32  2  0
 31 33  1  0
 33 34  1  1
 33 35  1  0
 35 36  1  0
 35 37  2  0
 37 38  1  0
 38 39  2  0
 38 40  1  0
 40 41  2  0
 41 42  1  0
  1 43  1  0
  1 44  1  0
  1 45  1  0
  3 46  1  0
  3 47  1  0
  3 48  1  0
  4 49  1  0
  4 50  1  0
  4 51  1  0
  5 52  1  0
  5 53  1  0
  6 54  1  0
  6 55  1  0
  9 56  1  0
 11 57  1  0
 13 58  1  1
 14 59  1  0
 14 60  1  0
 14 61  1  0
 15 62  1  0
 15 63  1  0
 15 64  1  0
 17 65  1  0
 17 66  1  0
 18 67  1  1
 19 68  1  0
 19 69  1  0
 20 70  1  1
 21 71  1  6
 22 72  1  1
 23 73  1  0
 23 74  1  0
 23 75  1  0
 24 76  1  0
 24 77  1  0
 24 78  1  0
 30 79  1  0
 30 80  1  0
 34 81  1  0
 42 82  1  0
M  CHG  5   5   1  13   1  22   1  26  -1  36  -1
M  END
>  <filename_input>  (21) 
6YR2_T1C_docked.sdf

>  <pdb_id>  (21) 
6YR2_T1C

>  <pose_rank>  (21) 
20

>  <num_atoms_heavy>  (21) 
42

>  <num_torsions>  (21) 
7

>  <pose>  (21) 
[31.00711145929161, 10.788911140711512, 16.11021436385082, -1.07352767423268, -0.5338105867084907, -2.4277311075586705, 0.5700415410459476, 3.32962998812968, 0.8935152063345104, -1.106775911862136, -3.073316767185044, 0.5925404788747302, 1.6617129419540624]

>  <energy>  (21) 
-195.50060548278822

>  <inter_energy>  (21) 
-256.53556073121115

>  <intra_energy>  (21) 
65.3069123448001

>  <rmsd>  (21) 
13.3654

>  <sdf_rank>  (21) 
0

$$$$

     RDKit          3D

 82 85  0  0  0  0  0  0  0  0999 V2000
   43.2476    4.0423   12.2199 C   0  0  0  0  0  0  0  0  0  0  0  0
   42.3687    3.9470   13.4930 C   0  0  1  0  0  0  0  0  0  0  0  0
   42.6174    2.7331   14.4299 C   0  0  0  0  0  0  0  0  0  0  0  0
   42.6553    5.2158   14.3354 C   0  0  0  0  0  0  0  0  0  0  0  0
   40.9166    3.8556   13.0587 N   0  0  0  0  0  0  0  0  0  0  0  0
   40.4674    4.5553   11.8109 C   0  0  0  0  0  0  0  0  0  0  0  0
   40.2936    5.9950   12.1810 C   0  0  0  0  0  0  0  0  0  0  0  0
   39.6383    6.2779   13.1299 O   0  0  0  0  0  0  0  0  0  0  0  0
   40.8448    6.8887   11.4779 N   0  0  0  0  0  0  0  0  0  0  0  0
   40.8954    8.2210   11.6116 C   0  0  0  0  0  0  0  0  0  0  0  0
   41.7977    9.0067   12.3283 C   0  0  0  0  0  0  0  0  0  0  0  0
   41.7215   10.4250   12.2597 C   0  0  0  0  0  0  0  0  0  0  0  0
   42.5877   11.3408   12.9888 N   0  0  1  0  0  0  0  0  0  0  0  0
   42.1403   11.1337   14.3841 C   0  0  0  0  0  0  0  0  0  0  0  0
   44.0192   11.1446   13.0326 C   0  0  0  0  0  0  0  0  0  0  0  0
   40.6537   11.0077   11.5110 C   0  0  0  0  0  0  0  0  0  0  0  0
   40.5517   12.5257   11.3409 C   0  0  0  0  0  0  0  0  0  0  0  0
   39.1239   12.9817   11.1608 C   0  0  1  0  0  0  0  0  0  0  0  0
   39.0794   14.5196   11.0061 C   0  0  0  0  0  0  0  0  0  0  0  0
   37.6286   14.8213   10.7022 C   0  0  1  0  0  0  0  0  0  0  0  0
   37.5166   16.3203   10.7552 C   0  0  2  0  0  0  0  0  0  0  0  0
   36.3627   16.8063   11.5686 N   0  0  1  0  0  0  0  0  0  0  0  0
   35.3619   15.8701   12.1118 C   0  0  0  0  0  0  0  0  0  0  0  0
   36.8990   17.5505   12.7048 C   0  0  0  0  0  0  0  0  0  0  0  0
   37.4906   16.9593    9.4187 C   0  0  0  0  0  0  0  0  0  0  0  0
   37.0191   18.1491    9.5323 O   0  0  0  0  0  0  0  0  0  0  0  0
   37.8558   16.4351    8.2848 C   0  0  0  0  0  0  0  0  0  0  0  0
   38.2258   17.1993    7.0622 C   0  0  0  0  0  0  0  0  0  0  0  0
   37.5479   17.0507    6.0020 O   0  0  0  0  0  0  0  0  0  0  0  0
   39.2311   17.9914    7.0235 N   0  0  0  0  0  0  0  0  0  0  0  0
   37.9363   15.0710    8.2435 C   0  0  0  0  0  0  0  0  0  0  0  0
   38.5238   14.4495    7.3318 O   0  0  0  0  0  0  0  0  0  0  0  0
   37.2228   14.2744    9.3572 C   0  0  2  0  0  0  0  0  0  0  0  0
   35.8180   14.4083    9.1671 O   0  0  0  0  0  0  0  0  0  0  0  0
   37.5456   12.8042    9.2913 C   0  0  0  0  0  0  0  0  0  0  0  0
   36.8028   12.1432    8.4413 O   0  0  0  0  0  0  0  0  0  0  0  0
   38.4627   12.1769   10.0617 C   0  0  0  0  0  0  0  0  0  0  0  0
   38.6989   10.8232    9.9695 C   0  0  0  0  0  0  0  0  0  0  0  0
   38.1207   10.0075    9.2247 O   0  0  0  0  0  0  0  0  0  0  0  0
   39.7848   10.2146   10.7734 C   0  0  0  0  0  0  0  0  0  0  0  0
   39.9161    8.8267   10.8529 C   0  0  0  0  0  0  0  0  0  0  0  0
   39.1309    8.0029   10.1604 O   0  0  0  0  0  0  0  0  0  0  0  0
   44.3024    4.1568   12.5103 H   0  0  0  0  0  0  0  0  0  0  0  0
   43.1290    3.1261   11.6229 H   0  0  0  0  0  0  0  0  0  0  0  0
   42.9353    4.9119   11.6229 H   0  0  0  0  0  0  0  0  0  0  0  0
   42.5506    3.0593   15.4783 H   0  0  0  0  0  0  0  0  0  0  0  0
   41.8591    1.9599   14.2374 H   0  0  0  0  0  0  0  0  0  0  0  0
   43.6188    2.3205   14.2374 H   0  0  0  0  0  0  0  0  0  0  0  0
   42.5989    4.9662   15.4052 H   0  0  0  0  0  0  0  0  0  0  0  0
   43.6613    5.5931   14.0995 H   0  0  0  0  0  0  0  0  0  0  0  0
   41.9091    5.9889   14.0995 H   0  0  0  0  0  0  0  0  0  0  0  0
   40.7053    2.8555   12.9325 H   0  0  0  0  0  0  0  0  0  0  0  0
   40.4116    4.3524   13.8064 H   0  0  0  0  0  0  0  0  0  0  0  0
   41.2268    4.4532   11.0216 H   0  0  0  0  0  0  0  0  0  0  0  0
   39.5323    4.1246   11.4235 H   0  0  0  0  0  0  0  0  0  0  0  0
   41.3456    6.5280   10.6533 H   0  0  0  0  0  0  0  0  0  0  0  0
   42.5701    8.5280   12.9482 H   0  0  0  0  0  0  0  0  0  0  0  0
   42.4941   12.2500   12.5140 H   0  0  0  0  0  0  0  0  0  0  0  0
   42.9167   11.4931   15.0754 H   0  0  0  0  0  0  0  0  0  0  0  0
   41.2084   11.6920   14.5570 H   0  0  0  0  0  0  0  0  0  0  0  0
   41.9630   10.0619   14.5570 H   0  0  0  0  0  0  0  0  0  0  0  0
   44.3512   11.0991   14.0803 H   0  0  0  0  0  0  0  0  0  0  0  0
   44.2760   10.2029   12.5254 H   0  0  0  0  0  0  0  0  0  0  0  0
   44.5198   11.9826   12.5254 H   0  0  0  0  0  0  0  0  0  0  0  0
   40.9693   13.0118   12.2350 H   0  0  0  0  0  0  0  0  0  0  0  0
   41.1130   12.8040   10.4368 H   0  0  0  0  0  0  0  0  0  0  0  0
   38.5161   12.7779   12.0547 H   0  0  0  0  0  0  0  0  0  0  0  0
   39.3940   15.0144   11.9368 H   0  0  0  0  0  0  0  0  0  0  0  0
   39.7584   14.8834   10.2208 H   0  0  0  0  0  0  0  0  0  0  0  0
   36.9508   14.3429   11.4246 H   0  0  0  0  0  0  0  0  0  0  0  0
   38.4421   16.6303   11.2626 H   0  0  0  0  0  0  0  0  0  0  0  0
   35.8242   17.3328   10.8660 H   0  0  0  0  0  0  0  0  0  0  0  0
   35.3920   15.8983   13.2110 H   0  0  0  0  0  0  0  0  0  0  0  0
   34.3599   16.1627   11.7648 H   0  0  0  0  0  0  0  0  0  0  0  0
   35.5869   14.8508   11.7648 H   0  0  0  0  0  0  0  0  0  0  0  0
   36.5619   17.0827   13.6416 H   0  0  0  0  0  0  0  0  0  0  0  0
   37.9982   17.5395   12.6644 H   0  0  0  0  0  0  0  0  0  0  0  0
   36.5410   18.5898   12.6644 H   0  0  0  0  0  0  0  0  0  0  0  0
   39.4519   18.5014    6.1563 H   0  0  0  0  0  0  0  0  0  0  0  0
   39.8190   18.1187    7.8597 H   0  0  0  0  0  0  0  0  0  0  0  0
   35.3683   14.4512   10.0480 H   0  0  0  0  0  0  0  0  0  0  0  0
   38.4063    8.3692    9.5938 H   0  0  0  0  0  0  0  0  0  0  0  0
  2  1  1  6
  2  3  1  0
  2  4  1  0
  2  5  1  0
  5  6  1  0
  6  7  1  0
  7  8  2  0
  7  9  1  0
  9 10  1  0
 10 11  2  0
 10 41  1  0
 11 12  1  0
 12 13  1  0
 12 16  2  0
 13 14  1  0
 13 15  1  0
 16 17  1  0
 16 40  1  0
 18 17  1  0
 18 19  1  0
 18 37  1  0
 20 19  1  0
 20 21  1  0
 20 33  1  0
 21 22  1  0
 21 25  1  0
 22 23  1  0
 22 24  1  0
 25 26  1  0
 25 27  2  0
 27 28  1  0
 27 31  1  0
 28 29  2  0
 28 30  1  0
 31 32  2  0
 31 33  1  0
 33 34  1  6
 33 35  1  0
 35 36  1  0
 35 37  2  0
 37 38  1  0
 38 39  2  0
 38 40  1  0
 40 41  2  0
 41 42  1  0
  1 43  1  0
  1 44  1  0
  1 45  1  0
  3 46  1  0
  3 47  1  0
  3 48  1  0
  4 49  1  0
  4 50  1  0
  4 51  1  0
  5 52  1  0
  5 53  1  0
  6 54  1  0
  6 55  1  0
  9 56  1  0
 11 57  1  0
 13 58  1  6
 14 59  1  0
 14 60  1  0
 14 61  1  0
 15 62  1  0
 15 63  1  0
 15 64  1  0
 17 65  1  0
 17 66  1  0
 18 67  1  1
 19 68  1  0
 19 69  1  0
 20 70  1  1
 21 71  1  1
 22 72  1  6
 23 73  1  0
 23 74  1  0
 23 75  1  0
 24 76  1  0
 24 77  1  0
 24 78  1  0
 30 79  1  0
 30 80  1  0
 34 81  1  0
 42 82  1  0
M  CHG  5   5   1  13   1  22   1  26  -1  36  -1
M  END
>  <filename_input>  (22) 
6YR2_T1C_docked.sdf

>  <pdb_id>  (22) 
6YR2_T1C

>  <pose_rank>  (22) 
21

>  <num_atoms_heavy>  (22) 
42

>  <num_torsions>  (22) 
7

>  <pose>  (22) 
[40.89536794673324, 8.221038905516037, 11.611598921666465, -3.41378071645656, 8.876775203329641, -2.4393448743526345, -5.24828860861141, -7.567958180470997, -4.6196945569112735, -1.1971292848995991, -5.976447709761672, -5.58738570782899, 7.463140226807304]

>  <energy>  (22) 
-685.7505309137273

>  <inter_energy>  (22) 
-713.4353821356063

>  <intra_energy>  (22) 
30.78477759452602

>  <rmsd>  (22) 
4.39072

>  <sdf_rank>  (22) 
0

$$$$

     RDKit          3D

 82 85  0  0  0  0  0  0  0  0999 V2000
   48.4651   23.9644    4.1841 C   0  0  0  0  0  0  0  0  0  0  0  0
   47.0802   23.3420    4.4960 C   0  0  1  0  0  0  0  0  0  0  0  0
   45.8373   24.2489    4.2814 C   0  0  0  0  0  0  0  0  0  0  0  0
   46.9061   22.1295    3.5466 C   0  0  0  0  0  0  0  0  0  0  0  0
   47.0622   22.9391    5.9598 N   0  0  0  0  0  0  0  0  0  0  0  0
   48.2663   23.1931    6.8166 C   0  0  0  0  0  0  0  0  0  0  0  0
   47.7687   23.2493    8.2270 C   0  0  0  0  0  0  0  0  0  0  0  0
   47.8073   24.2784    8.8181 O   0  0  0  0  0  0  0  0  0  0  0  0
   47.3165   22.2013    8.7691 N   0  0  0  0  0  0  0  0  0  0  0  0
   46.7707   21.9870    9.9740 C   0  0  0  0  0  0  0  0  0  0  0  0
   45.7486   22.6815   10.6205 C   0  0  0  0  0  0  0  0  0  0  0  0
   45.2549   22.2235   11.8731 C   0  0  0  0  0  0  0  0  0  0  0  0
   44.2167   22.8857   12.6504 N   0  0  1  0  0  0  0  0  0  0  0  0
   44.7640   24.2543   12.7816 C   0  0  0  0  0  0  0  0  0  0  0  0
   42.8864   23.0751   12.1174 C   0  0  0  0  0  0  0  0  0  0  0  0
   45.8894   21.0949   12.4762 C   0  0  0  0  0  0  0  0  0  0  0  0
   45.3655   20.5097   13.7903 C   0  0  0  0  0  0  0  0  0  0  0  0
   46.4598   19.8479   14.5927 C   0  0  1  0  0  0  0  0  0  0  0  0
   45.8781   19.2868   15.9109 C   0  0  0  0  0  0  0  0  0  0  0  0
   47.0354   18.5448   16.5423 C   0  0  1  0  0  0  0  0  0  0  0  0
   46.5605   18.1691   17.9191 C   0  0  2  0  0  0  0  0  0  0  0  0
   47.5389   18.4934   18.9993 N   0  0  1  0  0  0  0  0  0  0  0  0
   47.0880   18.8849   20.3471 C   0  0  0  0  0  0  0  0  0  0  0  0
   48.4146   17.3375   19.1707 C   0  0  0  0  0  0  0  0  0  0  0  0
   46.1401   16.7530   18.0341 C   0  0  0  0  0  0  0  0  0  0  0  0
   46.1215   16.4208   19.2752 O   0  0  0  0  0  0  0  0  0  0  0  0
   45.8469   15.9345   17.0655 C   0  0  0  0  0  0  0  0  0  0  0  0
   45.0342   14.6949   17.2019 C   0  0  0  0  0  0  0  0  0  0  0  0
   45.6127   13.5682   17.2403 O   0  0  0  0  0  0  0  0  0  0  0  0
   43.7549   14.7129   17.2543 N   0  0  0  0  0  0  0  0  0  0  0  0
   46.2994   16.2773   15.8218 C   0  0  0  0  0  0  0  0  0  0  0  0
   45.8746   15.7490   14.7717 O   0  0  0  0  0  0  0  0  0  0  0  0
   47.4212   17.3342   15.7308 C   0  0  2  0  0  0  0  0  0  0  0  0
   48.6186   16.7542   16.2382 O   0  0  0  0  0  0  0  0  0  0  0  0
   47.6912   17.7457   14.3068 C   0  0  0  0  0  0  0  0  0  0  0  0
   48.5003   16.9364   13.6730 O   0  0  0  0  0  0  0  0  0  0  0  0
   47.2143   18.8667   13.7204 C   0  0  0  0  0  0  0  0  0  0  0  0
   47.5138   19.2003   12.4181 C   0  0  0  0  0  0  0  0  0  0  0  0
   48.2489   18.5727   11.6306 O   0  0  0  0  0  0  0  0  0  0  0  0
   46.8810   20.3917   11.8051 C   0  0  0  0  0  0  0  0  0  0  0  0
   47.3143   20.8663   10.5654 C   0  0  0  0  0  0  0  0  0  0  0  0
   48.2484   20.2350    9.8555 O   0  0  0  0  0  0  0  0  0  0  0  0
   48.9830   24.1971    5.1263 H   0  0  0  0  0  0  0  0  0  0  0  0
   49.0657   23.2496    3.6024 H   0  0  0  0  0  0  0  0  0  0  0  0
   48.3294   24.8880    3.6024 H   0  0  0  0  0  0  0  0  0  0  0  0
   45.4282   24.5474    5.2579 H   0  0  0  0  0  0  0  0  0  0  0  0
   46.1312   25.1463    3.7172 H   0  0  0  0  0  0  0  0  0  0  0  0
   45.0724   23.6952    3.7172 H   0  0  0  0  0  0  0  0  0  0  0  0
   46.7747   21.2137    4.1418 H   0  0  0  0  0  0  0  0  0  0  0  0
   46.0210   22.2846    2.9122 H   0  0  0  0  0  0  0  0  0  0  0  0
   47.7991   22.0294    2.9122 H   0  0  0  0  0  0  0  0  0  0  0  0
   46.2742   23.4380    6.3969 H   0  0  0  0  0  0  0  0  0  0  0  0
   47.0064   21.9112    5.9242 H   0  0  0  0  0  0  0  0  0  0  0  0
   48.9955   22.3776    6.7014 H   0  0  0  0  0  0  0  0  0  0  0  0
   48.7719   24.1275    6.5317 H   0  0  0  0  0  0  0  0  0  0  0  0
   47.3788   21.3599    8.1783 H   0  0  0  0  0  0  0  0  0  0  0  0
   45.3232   23.5857   10.1605 H   0  0  0  0  0  0  0  0  0  0  0  0
   44.0533   22.2814   13.4683 H   0  0  0  0  0  0  0  0  0  0  0  0
   44.8655   24.5080   13.8471 H   0  0  0  0  0  0  0  0  0  0  0  0
   45.7506   24.3026   12.2976 H   0  0  0  0  0  0  0  0  0  0  0  0
   44.0828   24.9696   12.2976 H   0  0  0  0  0  0  0  0  0  0  0  0
   42.1704   23.1771   12.9462 H   0  0  0  0  0  0  0  0  0  0  0  0
   42.8648   23.9854   11.5002 H   0  0  0  0  0  0  0  0  0  0  0  0
   42.6116   22.2071   11.5002 H   0  0  0  0  0  0  0  0  0  0  0  0
   44.9268   21.3207   14.3900 H   0  0  0  0  0  0  0  0  0  0  0  0
   44.6147   19.7441   13.5450 H   0  0  0  0  0  0  0  0  0  0  0  0
   47.2223   20.5722   14.9153 H   0  0  0  0  0  0  0  0  0  0  0  0
   45.5350   20.1026   16.5642 H   0  0  0  0  0  0  0  0  0  0  0  0
   45.0043   18.6398   15.7437 H   0  0  0  0  0  0  0  0  0  0  0  0
   47.9435   19.1640   16.5866 H   0  0  0  0  0  0  0  0  0  0  0  0
   45.6722   18.8008   18.0669 H   0  0  0  0  0  0  0  0  0  0  0  0
   47.9610   19.3613   18.6395 H   0  0  0  0  0  0  0  0  0  0  0  0
   47.6919   18.3606   21.1025 H   0  0  0  0  0  0  0  0  0  0  0  0
   47.2067   19.9713   20.4724 H   0  0  0  0  0  0  0  0  0  0  0  0
   46.0291   18.6148   20.4724 H   0  0  0  0  0  0  0  0  0  0  0  0
   48.5610   17.1443   20.2437 H   0  0  0  0  0  0  0  0  0  0  0  0
   47.9553   16.4564   18.6988 H   0  0  0  0  0  0  0  0  0  0  0  0
   49.3871   17.5411   18.6988 H   0  0  0  0  0  0  0  0  0  0  0  0
   43.2309   13.8312   17.3490 H   0  0  0  0  0  0  0  0  0  0  0  0
   43.2498   15.6090   17.2018 H   0  0  0  0  0  0  0  0  0  0  0  0
   48.5968   16.7648   17.2279 H   0  0  0  0  0  0  0  0  0  0  0  0
   48.6817   19.4225   10.2191 H   0  0  0  0  0  0  0  0  0  0  0  0
  2  1  1  6
  2  3  1  0
  2  4  1  0
  2  5  1  0
  5  6  1  0
  6  7  1  0
  7  8  2  0
  7  9  1  0
  9 10  1  0
 10 11  2  0
 10 41  1  0
 11 12  1  0
 12 13  1  0
 12 16  2  0
 13 14  1  0
 13 15  1  0
 16 17  1  0
 16 40  1  0
 18 17  1  0
 18 19  1  0
 18 37  1  0
 20 19  1  0
 20 21  1  0
 20 33  1  0
 21 22  1  0
 21 25  1  0
 22 23  1  0
 22 24  1  0
 25 26  1  0
 25 27  2  0
 27 28  1  0
 27 31  1  0
 28 29  2  0
 28 30  1  0
 31 32  2  0
 31 33  1  0
 33 34  1  1
 33 35  1  0
 35 36  1  0
 35 37  2  0
 37 38  1  0
 38 39  2  0
 38 40  1  0
 40 41  2  0
 41 42  1  0
  1 43  1  0
  1 44  1  0
  1 45  1  0
  3 46  1  0
  3 47  1  0
  3 48  1  0
  4 49  1  0
  4 50  1  0
  4 51  1  0
  5 52  1  0
  5 53  1  0
  6 54  1  0
  6 55  1  0
  9 56  1  0
 11 57  1  0
 13 58  1  1
 14 59  1  0
 14 60  1  0
 14 61  1  0
 15 62  1  0
 15 63  1  0
 15 64  1  0
 17 65  1  0
 17 66  1  0
 18 67  1  1
 19 68  1  0
 19 69  1  0
 20 70  1  1
 21 71  1  1
 22 72  1  6
 23 73  1  0
 23 74  1  0
 23 75  1  0
 24 76  1  0
 24 77  1  0
 24 78  1  0
 30 79  1  0
 30 80  1  0
 34 81  1  0
 42 82  1  0
M  CHG  5   5   1  13   1  22   1  26  -1  36  -1
M  END
>  <filename_input>  (23) 
6YR2_T1C_docked.sdf

>  <pdb_id>  (23) 
6YR2_T1C

>  <pose_rank>  (23) 
22

>  <num_atoms_heavy>  (23) 
42

>  <num_torsions>  (23) 
7

>  <pose>  (23) 
[46.770672102481505, 21.987038998038877, 9.97395304407977, -3.7912044322023237, -0.897672309299663, -0.25289768045877464, 0.37735899336650763, 3.9268187464829842, -0.5056590014713123, -0.6195779564230017, 0.5601975221815116, 3.387675234055052, 1.4701651639695736]

>  <energy>  (23) 
-142.35217077915587

>  <inter_energy>  (23) 
-213.33966124250077

>  <intra_energy>  (23) 
74.94755510009416

>  <rmsd>  (23) 
14.7449

>  <sdf_rank>  (23) 
0

$$$$

     RDKit          3D

 82 85  0  0  0  0  0  0  0  0999 V2000
   46.3728   15.1858    3.1857 C   0  0  0  0  0  0  0  0  0  0  0  0
   47.3873   14.7477    4.2727 C   0  0  1  0  0  0  0  0  0  0  0  0
   47.9221   13.2916    4.1894 C   0  0  0  0  0  0  0  0  0  0  0  0
   48.6214   15.6754    4.1383 C   0  0  0  0  0  0  0  0  0  0  0  0
   46.7123   14.8738    5.6269 N   0  0  0  0  0  0  0  0  0  0  0  0
   47.5448   14.9029    6.8737 C   0  0  0  0  0  0  0  0  0  0  0  0
   46.6316   14.5111    7.9928 C   0  0  0  0  0  0  0  0  0  0  0  0
   47.0955   14.1467    9.0233 O   0  0  0  0  0  0  0  0  0  0  0  0
   45.3807   14.5720    7.8249 N   0  0  0  0  0  0  0  0  0  0  0  0
   44.3584   14.3359    8.6583 C   0  0  0  0  0  0  0  0  0  0  0  0
   43.8082   15.1576    9.6418 C   0  0  0  0  0  0  0  0  0  0  0  0
   42.6535   14.7391   10.3587 C   0  0  0  0  0  0  0  0  0  0  0  0
   42.0159   15.4986   11.4250 N   0  0  1  0  0  0  0  0  0  0  0  0
   40.8693   16.1097   10.7167 C   0  0  0  0  0  0  0  0  0  0  0  0
   41.4274   14.8378   12.5682 C   0  0  0  0  0  0  0  0  0  0  0  0
   42.1354   13.4334   10.0999 C   0  0  0  0  0  0  0  0  0  0  0  0
   40.8571   12.9461   10.7871 C   0  0  0  0  0  0  0  0  0  0  0  0
   40.8393   11.4457   10.9536 C   0  0  1  0  0  0  0  0  0  0  0  0
   39.5350   11.0116   11.6617 C   0  0  0  0  0  0  0  0  0  0  0  0
   39.5862    9.4999   11.6418 C   0  0  1  0  0  0  0  0  0  0  0  0
   38.4389    9.0537   12.5061 C   0  0  2  0  0  0  0  0  0  0  0  0
   38.8137    8.0123   13.5082 N   0  0  1  0  0  0  0  0  0  0  0  0
   37.8938    7.6309   14.5953 C   0  0  0  0  0  0  0  0  0  0  0  0
   39.1323    6.7867   12.7810 C   0  0  0  0  0  0  0  0  0  0  0  0
   37.2572    8.6027   11.7344 C   0  0  0  0  0  0  0  0  0  0  0  0
   36.5007    7.8999   12.4991 O   0  0  0  0  0  0  0  0  0  0  0  0
   36.9948    8.8375   10.4814 C   0  0  0  0  0  0  0  0  0  0  0  0
   35.6474    8.7570    9.8539 C   0  0  0  0  0  0  0  0  0  0  0  0
   34.6922    9.4382   10.3327 O   0  0  0  0  0  0  0  0  0  0  0  0
   35.3982    7.9971    8.8539 N   0  0  0  0  0  0  0  0  0  0  0  0
   38.0489    9.2247    9.7017 C   0  0  0  0  0  0  0  0  0  0  0  0
   37.9086    9.7394    8.5713 O   0  0  0  0  0  0  0  0  0  0  0  0
   39.4734    8.9639   10.2371 C   0  0  2  0  0  0  0  0  0  0  0  0
   39.7031    7.5587   10.2192 O   0  0  0  0  0  0  0  0  0  0  0  0
   40.5259    9.6009    9.3674 C   0  0  0  0  0  0  0  0  0  0  0  0
   40.8591    8.8740    8.3321 O   0  0  0  0  0  0  0  0  0  0  0  0
   41.1375   10.7784    9.6275 C   0  0  0  0  0  0  0  0  0  0  0  0
   42.1095   11.3005    8.8031 C   0  0  0  0  0  0  0  0  0  0  0  0
   42.5697   10.7879    7.7640 O   0  0  0  0  0  0  0  0  0  0  0  0
   42.6707   12.6409    9.0932 C   0  0  0  0  0  0  0  0  0  0  0  0
   43.7893   13.1068    8.3994 C   0  0  0  0  0  0  0  0  0  0  0  0
   44.3464   12.4103    7.4097 O   0  0  0  0  0  0  0  0  0  0  0  0
   45.4652   15.5777    3.6678 H   0  0  0  0  0  0  0  0  0  0  0  0
   46.8228   15.9698    2.5589 H   0  0  0  0  0  0  0  0  0  0  0  0
   46.1107   14.3207    2.5589 H   0  0  0  0  0  0  0  0  0  0  0  0
   48.0675   12.8958    5.2054 H   0  0  0  0  0  0  0  0  0  0  0  0
   47.1957   12.6643    3.6520 H   0  0  0  0  0  0  0  0  0  0  0  0
   48.8818   13.2836    3.6520 H   0  0  0  0  0  0  0  0  0  0  0  0
   48.9853   15.9489    5.1397 H   0  0  0  0  0  0  0  0  0  0  0  0
   49.4172   15.1500    3.5900 H   0  0  0  0  0  0  0  0  0  0  0  0
   48.3378   16.5859    3.5900 H   0  0  0  0  0  0  0  0  0  0  0  0
   46.1700   15.7493    5.6096 H   0  0  0  0  0  0  0  0  0  0  0  0
   46.1832   13.9943    5.7131 H   0  0  0  0  0  0  0  0  0  0  0  0
   48.3778   14.1890    6.7931 H   0  0  0  0  0  0  0  0  0  0  0  0
   47.9816   15.8984    7.0417 H   0  0  0  0  0  0  0  0  0  0  0  0
   45.0954   14.8539    6.8762 H   0  0  0  0  0  0  0  0  0  0  0  0
   44.2686   16.1317    9.8636 H   0  0  0  0  0  0  0  0  0  0  0  0
   42.7637   16.0672   11.8473 H   0  0  0  0  0  0  0  0  0  0  0  0
   40.1471   16.4946   11.4518 H   0  0  0  0  0  0  0  0  0  0  0  0
   41.2267   16.9370   10.0859 H   0  0  0  0  0  0  0  0  0  0  0  0
   40.3818   15.3518   10.0859 H   0  0  0  0  0  0  0  0  0  0  0  0
   41.8235   15.2826   13.4929 H   0  0  0  0  0  0  0  0  0  0  0  0
   40.3347   14.9612   12.5407 H   0  0  0  0  0  0  0  0  0  0  0  0
   41.6762   13.7666   12.5407 H   0  0  0  0  0  0  0  0  0  0  0  0
   40.7876   13.4141   11.7801 H   0  0  0  0  0  0  0  0  0  0  0  0
   40.0032   13.2270   10.1531 H   0  0  0  0  0  0  0  0  0  0  0  0
   41.6423   11.1011   11.6218 H   0  0  0  0  0  0  0  0  0  0  0  0
   39.5087   11.3873   12.6952 H   0  0  0  0  0  0  0  0  0  0  0  0
   38.6358   11.4089   11.1681 H   0  0  0  0  0  0  0  0  0  0  0  0
   40.5456    9.1175   12.0204 H   0  0  0  0  0  0  0  0  0  0  0  0
   38.1594    9.9654   13.0545 H   0  0  0  0  0  0  0  0  0  0  0  0
   39.5805    8.4798   14.0124 H   0  0  0  0  0  0  0  0  0  0  0  0
   38.3715    7.8290   15.5661 H   0  0  0  0  0  0  0  0  0  0  0  0
   36.9679    8.2194   14.5154 H   0  0  0  0  0  0  0  0  0  0  0  0
   37.6558    6.5600   14.5154 H   0  0  0  0  0  0  0  0  0  0  0  0
   39.3423    5.9791   13.4977 H   0  0  0  0  0  0  0  0  0  0  0  0
   38.2781    6.5029   12.1487 H   0  0  0  0  0  0  0  0  0  0  0  0
   40.0166    6.9549   12.1487 H   0  0  0  0  0  0  0  0  0  0  0  0
   34.4511    7.9717    8.4499 H   0  0  0  0  0  0  0  0  0  0  0  0
   36.1447    7.4112    8.4536 H   0  0  0  0  0  0  0  0  0  0  0  0
   39.7582    7.2214   11.1483 H   0  0  0  0  0  0  0  0  0  0  0  0
   43.9887   11.5190    7.1692 H   0  0  0  0  0  0  0  0  0  0  0  0
  2  1  1  6
  2  3  1  0
  2  4  1  0
  2  5  1  0
  5  6  1  0
  6  7  1  0
  7  8  2  0
  7  9  1  0
  9 10  1  0
 10 11  2  0
 10 41  1  0
 11 12  1  0
 12 13  1  0
 12 16  2  0
 13 14  1  0
 13 15  1  0
 16 17  1  0
 16 40  1  0
 18 17  1  0
 18 19  1  0
 18 37  1  0
 20 19  1  0
 20 21  1  0
 20 33  1  0
 21 22  1  0
 21 25  1  0
 22 23  1  0
 22 24  1  0
 25 26  1  0
 25 27  2  0
 27 28  1  0
 27 31  1  0
 28 29  2  0
 28 30  1  0
 31 32  2  0
 31 33  1  0
 33 34  1  1
 33 35  1  0
 35 36  1  0
 35 37  2  0
 37 38  1  0
 38 39  2  0
 38 40  1  0
 40 41  2  0
 41 42  1  0
  1 43  1  0
  1 44  1  0
  1 45  1  0
  3 46  1  0
  3 47  1  0
  3 48  1  0
  4 49  1  0
  4 50  1  0
  4 51  1  0
  5 52  1  0
  5 53  1  0
  6 54  1  0
  6 55  1  0
  9 56  1  0
 11 57  1  0
 13 58  1  1
 14 59  1  0
 14 60  1  0
 14 61  1  0
 15 62  1  0
 15 63  1  0
 15 64  1  0
 17 65  1  0
 17 66  1  0
 18 67  1  1
 19 68  1  0
 19 69  1  0
 20 70  1  1
 21 71  1  1
 22 72  1  1
 23 73  1  0
 23 74  1  0
 23 75  1  0
 24 76  1  0
 24 77  1  0
 24 78  1  0
 30 79  1  0
 30 80  1  0
 34 81  1  0
 42 82  1  0
M  CHG  5   5   1  13   1  22   1  26  -1  36  -1
M  END
>  <filename_input>  (24) 
6YR2_T1C_docked.sdf

>  <pdb_id>  (24) 
6YR2_T1C

>  <pose_rank>  (24) 
23

>  <num_atoms_heavy>  (24) 
42

>  <num_torsions>  (24) 
7

>  <pose>  (24) 
[44.35835264267943, 14.335886483225762, 8.658348871880825, -3.219394295495385, 0.7662444913817218, -0.2520138891952276, -5.3695412126751885, -3.84700838921108, -6.011579771631574, -3.4671419323410486, -3.0107980274091988, -2.5197662308753044, 4.221676647699702]

>  <energy>  (24) 
-68.5724039534478

>  <inter_energy>  (24) 
-199.08091054015898

>  <intra_energy>  (24) 
142.427850037505

>  <rmsd>  (24) 
9.49762

>  <sdf_rank>  (24) 
0

$$$$

     RDKit          3D

 82 85  0  0  0  0  0  0  0  0999 V2000
   45.9612   14.3461    7.2809 C   0  0  0  0  0  0  0  0  0  0  0  0
   47.4768   14.6381    7.1386 C   0  0  1  0  0  0  0  0  0  0  0  0
   48.3127   13.6267    6.3070 C   0  0  0  0  0  0  0  0  0  0  0  0
   47.6075   16.0066    6.4229 C   0  0  0  0  0  0  0  0  0  0  0  0
   48.0880   14.6504    8.5284 N   0  0  0  0  0  0  0  0  0  0  0  0
   47.1965   14.6931    9.7333 C   0  0  0  0  0  0  0  0  0  0  0  0
   47.5559   15.9437   10.4726 C   0  0  0  0  0  0  0  0  0  0  0  0
   48.6190   16.0269   10.9950 O   0  0  0  0  0  0  0  0  0  0  0  0
   46.7231   16.8922   10.5319 N   0  0  0  0  0  0  0  0  0  0  0  0
   46.8051   18.1162   11.0710 C   0  0  0  0  0  0  0  0  0  0  0  0
   47.2962   19.2981   10.5169 C   0  0  0  0  0  0  0  0  0  0  0  0
   47.2042   20.5187   11.2407 C   0  0  0  0  0  0  0  0  0  0  0  0
   47.7111   21.8020   10.7752 N   0  0  1  0  0  0  0  0  0  0  0  0
   46.4711   22.6056   10.6952 C   0  0  0  0  0  0  0  0  0  0  0  0
   48.6066   22.5942   11.5877 C   0  0  0  0  0  0  0  0  0  0  0  0
   46.6771   20.4779   12.5676 C   0  0  0  0  0  0  0  0  0  0  0  0
   46.4884   21.7637   13.3768 C   0  0  0  0  0  0  0  0  0  0  0  0
   46.5956   21.5197   14.8628 C   0  0  1  0  0  0  0  0  0  0  0  0
   46.4095   22.8504   15.6281 C   0  0  0  0  0  0  0  0  0  0  0  0
   46.4049   22.4441   17.0852 C   0  0  1  0  0  0  0  0  0  0  0  0
   46.4370   23.7353   17.8561 C   0  0  2  0  0  0  0  0  0  0  0  0
   47.4579   23.7573   18.9454 N   0  0  1  0  0  0  0  0  0  0  0  0
   47.1103   23.3783   20.3269 C   0  0  0  0  0  0  0  0  0  0  0  0
   48.5624   22.8925   18.5399 C   0  0  0  0  0  0  0  0  0  0  0  0
   45.1172   24.1328   18.3997 C   0  0  0  0  0  0  0  0  0  0  0  0
   45.2920   24.9979   19.3335 O   0  0  0  0  0  0  0  0  0  0  0  0
   43.9477   23.6915   18.0372 C   0  0  0  0  0  0  0  0  0  0  0  0
   42.6535   24.3884   18.2722 C   0  0  0  0  0  0  0  0  0  0  0  0
   42.2223   25.2142   17.4134 O   0  0  0  0  0  0  0  0  0  0  0  0
   41.9585   24.2102   19.3328 N   0  0  0  0  0  0  0  0  0  0  0  0
   43.9297   22.5079   17.3532 C   0  0  0  0  0  0  0  0  0  0  0  0
   42.9341   22.1044   16.7141 O   0  0  0  0  0  0  0  0  0  0  0  0
   45.1896   21.6181   17.4224 C   0  0  2  0  0  0  0  0  0  0  0  0
   45.2914   21.0964   18.7434 O   0  0  0  0  0  0  0  0  0  0  0  0
   45.1003   20.4438   16.4827 C   0  0  0  0  0  0  0  0  0  0  0  0
   44.4423   19.4271   16.9771 O   0  0  0  0  0  0  0  0  0  0  0  0
   45.6812   20.3812   15.2633 C   0  0  0  0  0  0  0  0  0  0  0  0
   45.5808   19.2693   14.4568 C   0  0  0  0  0  0  0  0  0  0  0  0
   44.9960   18.1999   14.7189 O   0  0  0  0  0  0  0  0  0  0  0  0
   46.1589   19.3015   13.0928 C   0  0  0  0  0  0  0  0  0  0  0  0
   46.2492   18.1336   12.3328 C   0  0  0  0  0  0  0  0  0  0  0  0
   45.7586   16.9721   12.7631 O   0  0  0  0  0  0  0  0  0  0  0  0
   45.6962   14.2951    8.3473 H   0  0  0  0  0  0  0  0  0  0  0  0
   45.3860   15.1500    6.7982 H   0  0  0  0  0  0  0  0  0  0  0  0
   45.7258   13.3861    6.7982 H   0  0  0  0  0  0  0  0  0  0  0  0
   48.8637   12.9601    6.9867 H   0  0  0  0  0  0  0  0  0  0  0  0
   47.6409   13.0298    5.6727 H   0  0  0  0  0  0  0  0  0  0  0  0
   49.0255   14.1741    5.6727 H   0  0  0  0  0  0  0  0  0  0  0  0
   47.6840   16.8070    7.1735 H   0  0  0  0  0  0  0  0  0  0  0  0
   48.5097   16.0065    5.7937 H   0  0  0  0  0  0  0  0  0  0  0  0
   46.7216   16.1774    5.7937 H   0  0  0  0  0  0  0  0  0  0  0  0
   48.6599   13.7977    8.6104 H   0  0  0  0  0  0  0  0  0  0  0  0
   48.5821   15.5534    8.5644 H   0  0  0  0  0  0  0  0  0  0  0  0
   46.1406   14.7215    9.4260 H   0  0  0  0  0  0  0  0  0  0  0  0
   47.3303   13.8015   10.3636 H   0  0  0  0  0  0  0  0  0  0  0  0
   45.8179   16.6876   10.0852 H   0  0  0  0  0  0  0  0  0  0  0  0
   47.7556   19.2861    9.5175 H   0  0  0  0  0  0  0  0  0  0  0  0
   48.2806   21.5911    9.9433 H   0  0  0  0  0  0  0  0  0  0  0  0
   46.1168   22.8352   11.7109 H   0  0  0  0  0  0  0  0  0  0  0  0
   46.6758   23.5432   10.1576 H   0  0  0  0  0  0  0  0  0  0  0  0
   45.6989   22.0358   10.1576 H   0  0  0  0  0  0  0  0  0  0  0  0
   48.3972   22.4089   12.6516 H   0  0  0  0  0  0  0  0  0  0  0  0
   49.6472   22.3156   11.3649 H   0  0  0  0  0  0  0  0  0  0  0  0
   48.4569   23.6610   11.3649 H   0  0  0  0  0  0  0  0  0  0  0  0
   47.2620   22.4869   13.0793 H   0  0  0  0  0  0  0  0  0  0  0  0
   45.4798   22.1504   13.1687 H   0  0  0  0  0  0  0  0  0  0  0  0
   47.6017   21.1777   15.1472 H   0  0  0  0  0  0  0  0  0  0  0  0
   47.2401   23.5404   15.4182 H   0  0  0  0  0  0  0  0  0  0  0  0
   45.4903   23.3791   15.3356 H   0  0  0  0  0  0  0  0  0  0  0  0
   47.2656   21.8065   17.3353 H   0  0  0  0  0  0  0  0  0  0  0  0
   46.7320   24.4791   17.1013 H   0  0  0  0  0  0  0  0  0  0  0  0
   47.6484   24.7662   19.0271 H   0  0  0  0  0  0  0  0  0  0  0  0
   47.6808   24.0003   21.0323 H   0  0  0  0  0  0  0  0  0  0  0  0
   46.0335   23.5329   20.4896 H   0  0  0  0  0  0  0  0  0  0  0  0
   47.3574   22.3188   20.4896 H   0  0  0  0  0  0  0  0  0  0  0  0
   49.0665   22.4978   19.4344 H   0  0  0  0  0  0  0  0  0  0  0  0
   48.1727   22.0569   17.9399 H   0  0  0  0  0  0  0  0  0  0  0  0
   49.2801   23.4713   17.9399 H   0  0  0  0  0  0  0  0  0  0  0  0
   41.0679   24.7129   19.4554 H   0  0  0  0  0  0  0  0  0  0  0  0
   42.2900   23.5643   20.0634 H   0  0  0  0  0  0  0  0  0  0  0  0
   45.1491   21.8254   19.3980 H   0  0  0  0  0  0  0  0  0  0  0  0
   45.3445   16.9116   13.6603 H   0  0  0  0  0  0  0  0  0  0  0  0
  2  1  1  1
  2  3  1  0
  2  4  1  0
  2  5  1  0
  5  6  1  0
  6  7  1  0
  7  8  2  0
  7  9  1  0
  9 10  1  0
 10 11  2  0
 10 41  1  0
 11 12  1  0
 12 13  1  0
 12 16  2  0
 13 14  1  0
 13 15  1  0
 16 17  1  0
 16 40  1  0
 18 17  1  0
 18 19  1  0
 18 37  1  0
 20 19  1  0
 20 21  1  0
 20 33  1  0
 21 22  1  0
 21 25  1  0
 22 23  1  0
 22 24  1  0
 25 26  1  0
 25 27  2  0
 27 28  1  0
 27 31  1  0
 28 29  2  0
 28 30  1  0
 31 32  2  0
 31 33  1  0
 33 34  1  1
 33 35  1  0
 35 36  1  0
 35 37  2  0
 37 38  1  0
 38 39  2  0
 38 40  1  0
 40 41  2  0
 41 42  1  0
  1 43  1  0
  1 44  1  0
  1 45  1  0
  3 46  1  0
  3 47  1  0
  3 48  1  0
  4 49  1  0
  4 50  1  0
  4 51  1  0
  5 52  1  0
  5 53  1  0
  6 54  1  0
  6 55  1  0
  9 56  1  0
 11 57  1  0
 13 58  1  6
 14 59  1  0
 14 60  1  0
 14 61  1  0
 15 62  1  0
 15 63  1  0
 15 64  1  0
 17 65  1  0
 17 66  1  0
 18 67  1  6
 19 68  1  0
 19 69  1  0
 20 70  1  6
 21 71  1  6
 22 72  1  1
 23 73  1  0
 23 74  1  0
 23 75  1  0
 24 76  1  0
 24 77  1  0
 24 78  1  0
 30 79  1  0
 30 80  1  0
 34 81  1  0
 42 82  1  0
M  CHG  5   5   1  13   1  22   1  26  -1  36  -1
M  END
>  <filename_input>  (25) 
6YR2_T1C_docked.sdf

>  <pdb_id>  (25) 
6YR2_T1C

>  <pose_rank>  (25) 
24

>  <num_atoms_heavy>  (25) 
42

>  <num_torsions>  (25) 
7

>  <pose>  (25) 
[46.8051382007649, 18.11616998908744, 11.071030854408658, 1.3141936771202534, -0.8163065350096371, -0.4260559463920625, 1.018798543079359, -1.5792488986498947, 0.9513363358957667, -0.8571370779893435, -2.711017989148971, -0.8135323244305624, -1.4784724147412804]

>  <energy>  (25) 
-20.589019036829967

>  <inter_energy>  (25) 
-112.70176698427882

>  <intra_energy>  (25) 
94.9003475706853

>  <rmsd>  (25) 
12.7568

>  <sdf_rank>  (25) 
0

$$$$

     RDKit          3D

 82 85  0  0  0  0  0  0  0  0999 V2000
   41.8590    4.8600   14.2680 C   0  0  0  0  0  0  0  0  0  0  0  0
   42.8900    5.3740   13.2310 C   0  0  1  0  0  0  0  0  0  0  0  0
   44.1150    6.1530   13.7840 C   0  0  0  0  0  0  0  0  0  0  0  0
   43.4560    4.1290   12.5020 C   0  0  0  0  0  0  0  0  0  0  0  0
   42.1760    6.3240   12.2860 N   0  0  0  0  0  0  0  0  0  0  0  0
   41.1010    7.2280   12.8110 C   0  0  0  0  0  0  0  0  0  0  0  0
   40.5210    7.9210   11.6180 C   0  0  0  0  0  0  0  0  0  0  0  0
   40.6370    7.4280   10.5440 O   0  0  0  0  0  0  0  0  0  0  0  0
   39.9180    9.0210   11.7700 N   0  0  0  0  0  0  0  0  0  0  0  0
   39.2730    9.8100   10.9000 C   0  0  0  0  0  0  0  0  0  0  0  0
   38.6170    9.4740    9.7160 C   0  0  0  0  0  0  0  0  0  0  0  0
   37.9120   10.4680    8.9830 C   0  0  0  0  0  0  0  0  0  0  0  0
   37.2210   10.2380    7.7220 N   0  0  1  0  0  0  0  0  0  0  0  0
   38.3100   10.4370    6.7400 C   0  0  0  0  0  0  0  0  0  0  0  0
   36.6680    8.9430    7.3950 C   0  0  0  0  0  0  0  0  0  0  0  0
   37.9690   11.8170    9.4490 C   0  0  0  0  0  0  0  0  0  0  0  0
   37.1790   12.9240    8.7460 C   0  0  0  0  0  0  0  0  0  0  0  0
   37.8410   14.2730    8.8910 C   0  0  1  0  0  0  0  0  0  0  0  0
   37.0090   15.3480    8.1540 C   0  0  0  0  0  0  0  0  0  0  0  0
   37.7020   16.6500    8.4900 C   0  0  1  0  0  0  0  0  0  0  0  0
   37.0430   17.6850    7.6200 C   0  0  2  0  0  0  0  0  0  0  0  0
   38.0100   18.5650    6.8990 N   0  0  1  0  0  0  0  0  0  0  0  0
   39.1540   19.1780    7.5980 C   0  0  0  0  0  0  0  0  0  0  0  0
   38.5620   17.8020    5.7830 C   0  0  0  0  0  0  0  0  0  0  0  0
   36.0500   18.5170    8.3390 C   0  0  0  0  0  0  0  0  0  0  0  0
   35.8280   19.5850    7.6600 O   0  0  0  0  0  0  0  0  0  0  0  0
   35.4830   18.2600    9.4820 C   0  0  0  0  0  0  0  0  0  0  0  0
   34.2110   18.8620    9.9670 C   0  0  0  0  0  0  0  0  0  0  0  0
   33.6930   18.4460   11.0460 O   0  0  0  0  0  0  0  0  0  0  0  0
   33.5910   19.7760    9.3190 N   0  0  0  0  0  0  0  0  0  0  0  0
   36.1010   17.3310   10.2720 C   0  0  0  0  0  0  0  0  0  0  0  0
   35.5440   16.7890   11.2510 O   0  0  0  0  0  0  0  0  0  0  0  0
   37.5710   16.9810    9.9550 C   0  0  2  0  0  0  0  0  0  0  0  0
   38.3760   18.1080   10.2860 O   0  0  0  0  0  0  0  0  0  0  0  0
   38.0630   15.8210   10.7810 C   0  0  0  0  0  0  0  0  0  0  0  0
   38.4770   16.1660   11.9730 O   0  0  0  0  0  0  0  0  0  0  0  0
   38.1440   14.5420   10.3500 C   0  0  0  0  0  0  0  0  0  0  0  0
   38.6230   13.5260   11.1470 C   0  0  0  0  0  0  0  0  0  0  0  0
   39.0560   13.6240   12.3120 O   0  0  0  0  0  0  0  0  0  0  0  0
   38.5950   12.1310   10.6480 C   0  0  0  0  0  0  0  0  0  0  0  0
   39.2520   11.1150   11.3450 C   0  0  0  0  0  0  0  0  0  0  0  0
   39.8590   11.3370   12.5100 O   0  0  0  0  0  0  0  0  0  0  0  0
   42.2361    5.0480   15.2841 H   0  0  0  0  0  0  0  0  0  0  0  0
   40.9039    5.3874   14.1279 H   0  0  0  0  0  0  0  0  0  0  0  0
   41.7054    3.7798   14.1279 H   0  0  0  0  0  0  0  0  0  0  0  0
   44.0926    6.1388   14.8837 H   0  0  0  0  0  0  0  0  0  0  0  0
   45.0419    5.6780   13.4299 H   0  0  0  0  0  0  0  0  0  0  0  0
   44.0780    7.1938   13.4299 H   0  0  0  0  0  0  0  0  0  0  0  0
   43.7918    3.3903   13.2447 H   0  0  0  0  0  0  0  0  0  0  0  0
   42.6714    3.6848   11.8719 H   0  0  0  0  0  0  0  0  0  0  0  0
   44.3066    4.4282   11.8719 H   0  0  0  0  0  0  0  0  0  0  0  0
   42.8979    6.9293   11.8696 H   0  0  0  0  0  0  0  0  0  0  0  0
   41.6681    5.6923   11.6505 H   0  0  0  0  0  0  0  0  0  0  0  0
   40.3261    6.6407   13.3253 H   0  0  0  0  0  0  0  0  0  0  0  0
   41.5025    7.9490   13.5383 H   0  0  0  0  0  0  0  0  0  0  0  0
   39.9232    9.3750   12.7372 H   0  0  0  0  0  0  0  0  0  0  0  0
   38.6450    8.4377    9.3483 H   0  0  0  0  0  0  0  0  0  0  0  0
   36.3888   10.8445    7.7460 H   0  0  0  0  0  0  0  0  0  0  0  0
   39.2568   10.6100    7.2725 H   0  0  0  0  0  0  0  0  0  0  0  0
   38.4028    9.5409    6.1088 H   0  0  0  0  0  0  0  0  0  0  0  0
   38.0799   11.3080    6.1088 H   0  0  0  0  0  0  0  0  0  0  0  0
   36.4356    8.3988    8.3223 H   0  0  0  0  0  0  0  0  0  0  0  0
   35.7478    9.0751    6.8070 H   0  0  0  0  0  0  0  0  0  0  0  0
   37.3998    8.3697    6.8070 H   0  0  0  0  0  0  0  0  0  0  0  0
   37.1014   12.6800    7.6762 H   0  0  0  0  0  0  0  0  0  0  0  0
   36.1856   12.9817    9.2149 H   0  0  0  0  0  0  0  0  0  0  0  0
   38.8232   14.2992    8.3966 H   0  0  0  0  0  0  0  0  0  0  0  0
   37.0170   15.1708    7.0684 H   0  0  0  0  0  0  0  0  0  0  0  0
   35.9517   15.3433    8.4576 H   0  0  0  0  0  0  0  0  0  0  0  0
   38.7845   16.5983    8.3015 H   0  0  0  0  0  0  0  0  0  0  0  0
   36.5058   17.0868    6.8693 H   0  0  0  0  0  0  0  0  0  0  0  0
   37.4187   19.3778    6.6739 H   0  0  0  0  0  0  0  0  0  0  0  0
   39.0051   19.0982    8.6850 H   0  0  0  0  0  0  0  0  0  0  0  0
   40.0795   18.6550    7.3153 H   0  0  0  0  0  0  0  0  0  0  0  0
   39.2311   20.2383    7.3153 H   0  0  0  0  0  0  0  0  0  0  0  0
   39.1652   16.9683    6.1716 H   0  0  0  0  0  0  0  0  0  0  0  0
   37.7406   17.4051    5.1684 H   0  0  0  0  0  0  0  0  0  0  0  0
   39.1960   18.4579    5.1684 H   0  0  0  0  0  0  0  0  0  0  0  0
   32.7130   20.1655    9.6908 H   0  0  0  0  0  0  0  0  0  0  0  0
   33.9703   20.1217    8.4260 H   0  0  0  0  0  0  0  0  0  0  0  0
   38.4364   18.1926   11.2705 H   0  0  0  0  0  0  0  0  0  0  0  0
   39.8824   12.2510   12.8897 H   0  0  0  0  0  0  0  0  0  0  0  0
  2  1  1  1
  2  3  1  0
  2  4  1  0
  2  5  1  0
  5  6  1  0
  6  7  1  0
  7  8  2  0
  7  9  1  0
  9 10  1  0
 10 11  2  0
 10 41  1  0
 11 12  1  0
 12 13  1  0
 12 16  2  0
 13 14  1  0
 13 15  1  0
 16 17  1  0
 16 40  1  0
 18 17  1  0
 18 19  1  0
 18 37  1  0
 20 19  1  0
 20 21  1  0
 20 33  1  0
 21 22  1  0
 21 25  1  0
 22 23  1  0
 22 24  1  0
 25 26  1  0
 25 27  2  0
 27 28  1  0
 27 31  1  0
 28 29  2  0
 28 30  1  0
 31 32  2  0
 31 33  1  0
 33 34  1  6
 33 35  1  0
 35 36  1  0
 35 37  2  0
 37 38  1  0
 38 39  2  0
 38 40  1  0
 40 41  2  0
 41 42  1  0
  1 43  1  0
  1 44  1  0
  1 45  1  0
  3 46  1  0
  3 47  1  0
  3 48  1  0
  4 49  1  0
  4 50  1  0
  4 51  1  0
  5 52  1  0
  5 53  1  0
  6 54  1  0
  6 55  1  0
  9 56  1  0
 11 57  1  0
 13 58  1  6
 14 59  1  0
 14 60  1  0
 14 61  1  0
 15 62  1  0
 15 63  1  0
 15 64  1  0
 17 65  1  0
 17 66  1  0
 18 67  1  6
 19 68  1  0
 19 69  1  0
 20 70  1  6
 21 71  1  6
 22 72  1  6
 23 73  1  0
 23 74  1  0
 23 75  1  0
 24 76  1  0
 24 77  1  0
 24 78  1  0
 30 79  1  0
 30 80  1  0
 34 81  1  0
 42 82  1  0
M  CHG  5   5   1  13   1  22   1  26  -1  36  -1
M  END
>  <filename_input>  (26) 
6YR2_T1C_docked.sdf

>  <pdb_id>  (26) 
6YR2_T1C

>  <pose_rank>  (26) 
25

>  <num_atoms_heavy>  (26) 
42

>  <num_torsions>  (26) 
7

>  <pose>  (26) 
[39.273, 9.81, 10.9, 1e-06, 1e-06, 1e-06, 0.0, 0.0, 0.0, 0.0, 0.0, 0.0, 0.0]

>  <energy>  (26) 
-871.0117065477443

>  <inter_energy>  (26) 
-944.7346812162699

>  <intra_energy>  (26) 
70.09856599978316

>  <rmsd>  (26) 
0.0

>  <sdf_rank>  (26) 
0

$$$$
