
     RDKit          3D

 53 52  0  0  0  0  0  0  0  0999 V2000
   21.3013   47.4050   22.7495 C   0  0  0  0  0  0  0  0  0  0  0  0
   22.0965   48.6322   22.4572 C   0  0  0  0  0  0  0  0  0  0  0  0
   22.8956   49.1864   23.6176 C   0  0  0  0  0  0  0  0  0  0  0  0
   22.0719   50.2681   24.2462 C   0  0  0  0  0  0  0  0  0  0  0  0
   22.5570   51.6362   24.1721 C   0  0  0  0  0  0  0  0  0  0  0  0
   21.6002   52.7308   24.2054 C   0  0  0  0  0  0  0  0  0  0  0  0
   21.5438   53.5901   23.0550 C   0  0  0  0  0  0  0  0  0  0  0  0
   22.7395   53.6778   22.1809 C   0  0  0  0  0  0  0  0  0  0  0  0
   22.3794   54.6037   21.0449 C   0  0  0  0  0  0  0  0  0  0  0  0
   23.4016   55.4876   20.3826 C   0  0  0  0  0  0  0  0  0  0  0  0
   23.1762   55.7411   18.8657 C   0  0  0  0  0  0  0  0  0  0  0  0
   24.3118   55.3372   17.9358 C   0  0  0  0  0  0  0  0  0  0  0  0
   25.1924   54.2476   18.5261 C   0  0  0  0  0  0  0  0  0  0  0  0
   26.3314   53.7044   17.7571 C   0  0  0  0  0  0  0  0  0  0  0  0
   25.9002   53.2999   16.3802 C   0  0  0  0  0  0  0  0  0  0  0  0
   25.0792   52.0722   16.1927 C   0  0  0  0  0  0  0  0  0  0  0  0
   25.6094   51.0702   15.2467 C   0  0  0  0  0  0  0  0  0  0  0  0
   21.2163   47.2739   23.8384 H   0  0  0  0  0  0  0  0  0  0  0  0
   20.2967   47.5063   22.3130 H   0  0  0  0  0  0  0  0  0  0  0  0
   21.8042   46.5295   22.3130 H   0  0  0  0  0  0  0  0  0  0  0  0
   22.7994   48.3944   21.6452 H   0  0  0  0  0  0  0  0  0  0  0  0
   21.3638   49.4105   22.1978 H   0  0  0  0  0  0  0  0  0  0  0  0
   23.0963   48.3913   24.3508 H   0  0  0  0  0  0  0  0  0  0  0  0
   23.8622   49.5822   23.2725 H   0  0  0  0  0  0  0  0  0  0  0  0
   21.0836   50.2467   23.7635 H   0  0  0  0  0  0  0  0  0  0  0  0
   22.0892   50.0323   25.3205 H   0  0  0  0  0  0  0  0  0  0  0  0
   23.2409   51.7812   25.0214 H   0  0  0  0  0  0  0  0  0  0  0  0
   22.9970   51.7038   23.1662 H   0  0  0  0  0  0  0  0  0  0  0  0
   20.6005   52.2922   24.3400 H   0  0  0  0  0  0  0  0  0  0  0  0
   21.9401   53.3790   25.0266 H   0  0  0  0  0  0  0  0  0  0  0  0
   20.7085   53.2420   22.4296 H   0  0  0  0  0  0  0  0  0  0  0  0
   21.4424   54.6009   23.4769 H   0  0  0  0  0  0  0  0  0  0  0  0
   23.5924   54.0835   22.7448 H   0  0  0  0  0  0  0  0  0  0  0  0
   23.0289   52.6851   21.8056 H   0  0  0  0  0  0  0  0  0  0  0  0
   21.9606   53.9684   20.2506 H   0  0  0  0  0  0  0  0  0  0  0  0
   21.7272   55.3368   21.5421 H   0  0  0  0  0  0  0  0  0  0  0  0
   23.3926   56.4609   20.8950 H   0  0  0  0  0  0  0  0  0  0  0  0
   24.3615   54.9564   20.4633 H   0  0  0  0  0  0  0  0  0  0  0  0
   22.2798   55.1804   18.5623 H   0  0  0  0  0  0  0  0  0  0  0  0
   23.0877   56.8326   18.7619 H   0  0  0  0  0  0  0  0  0  0  0  0
   23.8810   54.9696   16.9928 H   0  0  0  0  0  0  0  0  0  0  0  0
   24.9422   56.2243   17.7756 H   0  0  0  0  0  0  0  0  0  0  0  0
   25.6075   54.6504   19.4617 H   0  0  0  0  0  0  0  0  0  0  0  0
   24.5091   53.3884   18.5958 H   0  0  0  0  0  0  0  0  0  0  0  0
   27.1132   54.4742   17.6784 H   0  0  0  0  0  0  0  0  0  0  0  0
   26.7184   52.8173   18.2799 H   0  0  0  0  0  0  0  0  0  0  0  0
   25.3180   54.1381   15.9697 H   0  0  0  0  0  0  0  0  0  0  0  0
   26.8474   53.0522   15.8787 H   0  0  0  0  0  0  0  0  0  0  0  0
   24.9752   51.5853   17.1735 H   0  0  0  0  0  0  0  0  0  0  0  0
   24.1310   52.4170   15.7546 H   0  0  0  0  0  0  0  0  0  0  0  0
   26.0518   50.2341   15.8081 H   0  0  0  0  0  0  0  0  0  0  0  0
   24.7918   50.6950   14.6137 H   0  0  0  0  0  0  0  0  0  0  0  0
   26.3795   51.5351   14.6137 H   0  0  0  0  0  0  0  0  0  0  0  0
  1  2  1  0
  2  3  1  0
  3  4  1  0
  4  5  1  0
  5  6  1  0
  6  7  1  0
  7  8  1  0
  8  9  1  0
  9 10  1  0
 10 11  1  0
 11 12  1  0
 12 13  1  0
 13 14  1  0
 14 15  1  0
 15 16  1  0
 16 17  1  0
  1 18  1  0
  1 19  1  0
  1 20  1  0
  2 21  1  0
  2 22  1  0
  3 23  1  0
  3 24  1  0
  4 25  1  0
  4 26  1  0
  5 27  1  0
  5 28  1  0
  6 29  1  0
  6 30  1  0
  7 31  1  0
  7 32  1  0
  8 33  1  0
  8 34  1  0
  9 35  1  0
  9 36  1  0
 10 37  1  0
 10 38  1  0
 11 39  1  0
 11 40  1  0
 12 41  1  0
 12 42  1  0
 13 43  1  0
 13 44  1  0
 14 45  1  0
 14 46  1  0
 15 47  1  0
 15 48  1  0
 16 49  1  0
 16 50  1  0
 17 51  1  0
 17 52  1  0
 17 53  1  0
M  END
>  <filename_input>  (1) 
6YRV_PJ8_docked.sdf

>  <pdb_id>  (1) 
6YRV_PJ8

>  <pose_rank>  (1) 
0

>  <num_atoms_heavy>  (1) 
17

>  <num_torsions>  (1) 
14

>  <pose>  (1) 
[22.379370883216836, 54.603719926831424, 21.04493022443101, -1.265640017045466, 6.045306134793647, 0.30271187209810924, 11.964853019519552, 18.45633506955549, 13.1774386629979, 5.057601084845431, 3.626362465329202, 0.8667645179407618, 1.091889938854345, -6.663912479773501, 6.521076693515104, -0.7173829107318993, -0.41375794414611555, 2.239444780534773, 1.1975076917696126, 1.1055495536760638]

>  <energy>  (1) 
-637.1491392368761

>  <inter_energy>  (1) 
-629.7271708444713

>  <intra_energy>  (1) 
0.013725308355005308

>  <rmsd>  (1) 
0.980577

>  <sdf_rank>  (1) 
0

$$$$

     RDKit          3D

 53 52  0  0  0  0  0  0  0  0999 V2000
   25.7935   49.9019   16.6077 C   0  0  0  0  0  0  0  0  0  0  0  0
   25.2947   51.2984   16.7652 C   0  0  0  0  0  0  0  0  0  0  0  0
   25.7999   52.2933   15.7418 C   0  0  0  0  0  0  0  0  0  0  0  0
   25.0551   53.5739   15.9638 C   0  0  0  0  0  0  0  0  0  0  0  0
   25.1439   54.2064   17.2694 C   0  0  0  0  0  0  0  0  0  0  0  0
   23.9203   54.5242   17.9882 C   0  0  0  0  0  0  0  0  0  0  0  0
   23.7658   55.8731   18.4592 C   0  0  0  0  0  0  0  0  0  0  0  0
   23.3330   56.0849   19.8625 C   0  0  0  0  0  0  0  0  0  0  0  0
   22.8337   54.7535   20.3679 C   0  0  0  0  0  0  0  0  0  0  0  0
   23.1968   54.2319   21.7321 C   0  0  0  0  0  0  0  0  0  0  0  0
   22.0184   53.6294   22.5473 C   0  0  0  0  0  0  0  0  0  0  0  0
   22.2874   53.3481   24.0190 C   0  0  0  0  0  0  0  0  0  0  0  0
   22.0700   51.8887   24.3853 C   0  0  0  0  0  0  0  0  0  0  0  0
   22.6540   50.8123   23.5583 C   0  0  0  0  0  0  0  0  0  0  0  0
   21.9326   49.5179   23.7816 C   0  0  0  0  0  0  0  0  0  0  0  0
   22.4454   48.2678   23.1568 C   0  0  0  0  0  0  0  0  0  0  0  0
   21.6967   47.7678   21.9866 C   0  0  0  0  0  0  0  0  0  0  0  0
   25.9529   49.4554   17.6003 H   0  0  0  0  0  0  0  0  0  0  0  0
   25.0519   49.3081   16.0533 H   0  0  0  0  0  0  0  0  0  0  0  0
   26.7435   49.9122   16.0533 H   0  0  0  0  0  0  0  0  0  0  0  0
   24.1969   51.2749   16.7010 H   0  0  0  0  0  0  0  0  0  0  0  0
   25.6763   51.6462   17.7365 H   0  0  0  0  0  0  0  0  0  0  0  0
   26.8793   52.4570   15.8761 H   0  0  0  0  0  0  0  0  0  0  0  0
   25.6374   51.9192   14.7202 H   0  0  0  0  0  0  0  0  0  0  0  0
   25.4269   54.2990   15.2249 H   0  0  0  0  0  0  0  0  0  0  0  0
   23.9961   53.2909   15.8713 H   0  0  0  0  0  0  0  0  0  0  0  0
   25.7294   53.5337   17.9133 H   0  0  0  0  0  0  0  0  0  0  0  0
   25.5840   55.1912   17.0537 H   0  0  0  0  0  0  0  0  0  0  0  0
   23.0766   54.3100   17.3158 H   0  0  0  0  0  0  0  0  0  0  0  0
   23.9593   53.9090   18.8993 H   0  0  0  0  0  0  0  0  0  0  0  0
   24.7385   56.3728   18.3398 H   0  0  0  0  0  0  0  0  0  0  0  0
   22.9385   56.2768   17.8570 H   0  0  0  0  0  0  0  0  0  0  0  0
   24.1812   56.4283   20.4730 H   0  0  0  0  0  0  0  0  0  0  0  0
   22.5462   56.8513   19.9225 H   0  0  0  0  0  0  0  0  0  0  0  0
   21.7353   54.8060   20.3406 H   0  0  0  0  0  0  0  0  0  0  0  0
   23.3513   54.0453   19.7042 H   0  0  0  0  0  0  0  0  0  0  0  0
   23.9580   53.4481   21.6048 H   0  0  0  0  0  0  0  0  0  0  0  0
   23.5513   55.1008   22.3059 H   0  0  0  0  0  0  0  0  0  0  0  0
   21.1765   54.3350   22.4898 H   0  0  0  0  0  0  0  0  0  0  0  0
   21.8213   52.6470   22.0933 H   0  0  0  0  0  0  0  0  0  0  0  0
   23.3303   53.6160   24.2439 H   0  0  0  0  0  0  0  0  0  0  0  0
   21.5779   53.9482   24.6076 H   0  0  0  0  0  0  0  0  0  0  0  0
   22.4685   51.7563   25.4019 H   0  0  0  0  0  0  0  0  0  0  0  0
   20.9882   51.7552   24.2367 H   0  0  0  0  0  0  0  0  0  0  0  0
   22.5755   51.0903   22.4969 H   0  0  0  0  0  0  0  0  0  0  0  0
   23.7083   50.6817   23.8433 H   0  0  0  0  0  0  0  0  0  0  0  0
   21.9145   49.3468   24.8680 H   0  0  0  0  0  0  0  0  0  0  0  0
   20.9658   49.6752   23.2810 H   0  0  0  0  0  0  0  0  0  0  0  0
   23.4817   48.4529   22.8378 H   0  0  0  0  0  0  0  0  0  0  0  0
   22.3400   47.4897   23.9272 H   0  0  0  0  0  0  0  0  0  0  0  0
   20.8272   47.1872   22.3283 H   0  0  0  0  0  0  0  0  0  0  0  0
   21.3538   48.6189   21.3798 H   0  0  0  0  0  0  0  0  0  0  0  0
   22.3514   47.1250   21.3798 H   0  0  0  0  0  0  0  0  0  0  0  0
  1  2  1  0
  2  3  1  0
  3  4  1  0
  4  5  1  0
  5  6  1  0
  6  7  1  0
  7  8  1  0
  8  9  1  0
  9 10  1  0
 10 11  1  0
 11 12  1  0
 12 13  1  0
 13 14  1  0
 14 15  1  0
 15 16  1  0
 16 17  1  0
  1 18  1  0
  1 19  1  0
  1 20  1  0
  2 21  1  0
  2 22  1  0
  3 23  1  0
  3 24  1  0
  4 25  1  0
  4 26  1  0
  5 27  1  0
  5 28  1  0
  6 29  1  0
  6 30  1  0
  7 31  1  0
  7 32  1  0
  8 33  1  0
  8 34  1  0
  9 35  1  0
  9 36  1  0
 10 37  1  0
 10 38  1  0
 11 39  1  0
 11 40  1  0
 12 41  1  0
 12 42  1  0
 13 43  1  0
 13 44  1  0
 14 45  1  0
 14 46  1  0
 15 47  1  0
 15 48  1  0
 16 49  1  0
 16 50  1  0
 17 51  1  0
 17 52  1  0
 17 53  1  0
M  END
>  <filename_input>  (2) 
6YRV_PJ8_docked.sdf

>  <pdb_id>  (2) 
6YRV_PJ8

>  <pose_rank>  (2) 
1

>  <num_atoms_heavy>  (2) 
17

>  <num_torsions>  (2) 
14

>  <pose>  (2) 
[22.83367083797408, 54.75350353179182, 20.367946035022225, 2.7501575635852245, 0.9753191521734261, 1.3875560224481833, -0.8098574931791087, 2.5445385316639166, -1.2858885171940737, -1.3880435884861158, -1.2322576741092146, -2.4093261244384307, -0.49793272317380444, 5.693373522402641, -0.5693193333812006, 3.0089538803027196, -2.6953563265033, 0.3424255053176454, -0.5533038830354698, 1.462073017527222]

>  <energy>  (2) 
-615.965999836216

>  <inter_energy>  (2) 
-604.8699960739975

>  <intra_energy>  (2) 
0.22419690262109676

>  <rmsd>  (2) 
1.09004

>  <sdf_rank>  (2) 
0

$$$$

     RDKit          3D

 53 52  0  0  0  0  0  0  0  0999 V2000
   22.1585   55.6760   17.4795 C   0  0  0  0  0  0  0  0  0  0  0  0
   23.2059   56.7104   17.2413 C   0  0  0  0  0  0  0  0  0  0  0  0
   24.5778   56.1817   16.8796 C   0  0  0  0  0  0  0  0  0  0  0  0
   24.4238   54.7236   16.5730 C   0  0  0  0  0  0  0  0  0  0  0  0
   25.5233   53.8302   16.8980 C   0  0  0  0  0  0  0  0  0  0  0  0
   25.7263   53.4293   18.2811 C   0  0  0  0  0  0  0  0  0  0  0  0
   24.6501   53.6741   19.2014 C   0  0  0  0  0  0  0  0  0  0  0  0
   24.6796   54.9208   20.0055 C   0  0  0  0  0  0  0  0  0  0  0  0
   23.4910   54.8664   20.9337 C   0  0  0  0  0  0  0  0  0  0  0  0
   23.2476   53.6969   21.8490 C   0  0  0  0  0  0  0  0  0  0  0  0
   22.5794   54.0462   23.2084 C   0  0  0  0  0  0  0  0  0  0  0  0
   23.0074   53.2115   24.4073 C   0  0  0  0  0  0  0  0  0  0  0  0
   22.1807   51.9453   24.5642 C   0  0  0  0  0  0  0  0  0  0  0  0
   22.8067   50.6160   24.4070 C   0  0  0  0  0  0  0  0  0  0  0  0
   21.9340   49.7089   23.5939 C   0  0  0  0  0  0  0  0  0  0  0  0
   22.4004   48.3345   23.2629 C   0  0  0  0  0  0  0  0  0  0  0  0
   23.8509   48.0892   23.3879 C   0  0  0  0  0  0  0  0  0  0  0  0
   22.0189   55.5381   18.5619 H   0  0  0  0  0  0  0  0  0  0  0  0
   21.2109   56.0024   17.0262 H   0  0  0  0  0  0  0  0  0  0  0  0
   22.4731   54.7244   17.0262 H   0  0  0  0  0  0  0  0  0  0  0  0
   22.8638   57.3549   16.4181 H   0  0  0  0  0  0  0  0  0  0  0  0
   23.3299   57.2387   18.1981 H   0  0  0  0  0  0  0  0  0  0  0  0
   24.9661   56.7132   15.9982 H   0  0  0  0  0  0  0  0  0  0  0  0
   25.2858   56.3341   17.7075 H   0  0  0  0  0  0  0  0  0  0  0  0
   23.5409   54.3668   17.1235 H   0  0  0  0  0  0  0  0  0  0  0  0
   24.3571   54.6830   15.4758 H   0  0  0  0  0  0  0  0  0  0  0  0
   25.3723   52.9095   16.3154 H   0  0  0  0  0  0  0  0  0  0  0  0
   26.4200   54.4224   16.6629 H   0  0  0  0  0  0  0  0  0  0  0  0
   25.9261   52.3477   18.2860 H   0  0  0  0  0  0  0  0  0  0  0  0
   26.5542   54.0587   18.6396 H   0  0  0  0  0  0  0  0  0  0  0  0
   23.7184   53.6861   18.6168 H   0  0  0  0  0  0  0  0  0  0  0  0
   24.7426   52.8697   19.9460 H   0  0  0  0  0  0  0  0  0  0  0  0
   25.6121   54.9752   20.5864 H   0  0  0  0  0  0  0  0  0  0  0  0
   24.6364   55.8097   19.3589 H   0  0  0  0  0  0  0  0  0  0  0  0
   23.5640   55.7534   21.5801 H   0  0  0  0  0  0  0  0  0  0  0  0
   22.6504   54.7870   20.2286 H   0  0  0  0  0  0  0  0  0  0  0  0
   22.5960   52.9835   21.3233 H   0  0  0  0  0  0  0  0  0  0  0  0
   24.2398   53.2895   22.0931 H   0  0  0  0  0  0  0  0  0  0  0  0
   22.8093   55.0981   23.4337 H   0  0  0  0  0  0  0  0  0  0  0  0
   21.5091   53.8330   23.0711 H   0  0  0  0  0  0  0  0  0  0  0  0
   24.0631   52.9294   24.2812 H   0  0  0  0  0  0  0  0  0  0  0  0
   22.8552   53.8223   25.3094 H   0  0  0  0  0  0  0  0  0  0  0  0
   21.7507   51.9733   25.5763 H   0  0  0  0  0  0  0  0  0  0  0  0
   21.4884   51.9949   23.7109 H   0  0  0  0  0  0  0  0  0  0  0  0
   23.7766   50.7318   23.9011 H   0  0  0  0  0  0  0  0  0  0  0  0
   22.9450   50.1716   25.4036 H   0  0  0  0  0  0  0  0  0  0  0  0
   20.9876   49.6003   24.1440 H   0  0  0  0  0  0  0  0  0  0  0  0
   21.8918   50.2068   22.6139 H   0  0  0  0  0  0  0  0  0  0  0  0
   21.8827   47.6339   23.9346 H   0  0  0  0  0  0  0  0  0  0  0  0
   22.1696   48.1948   22.1965 H   0  0  0  0  0  0  0  0  0  0  0  0
   24.1246   48.0430   24.4523 H   0  0  0  0  0  0  0  0  0  0  0  0
   24.1047   47.1354   22.9022 H   0  0  0  0  0  0  0  0  0  0  0  0
   24.4042   48.9066   22.9022 H   0  0  0  0  0  0  0  0  0  0  0  0
  1  2  1  0
  2  3  1  0
  3  4  1  0
  4  5  1  0
  5  6  1  0
  6  7  1  0
  7  8  1  0
  8  9  1  0
  9 10  1  0
 10 11  1  0
 11 12  1  0
 12 13  1  0
 13 14  1  0
 14 15  1  0
 15 16  1  0
 16 17  1  0
  1 18  1  0
  1 19  1  0
  1 20  1  0
  2 21  1  0
  2 22  1  0
  3 23  1  0
  3 24  1  0
  4 25  1  0
  4 26  1  0
  5 27  1  0
  5 28  1  0
  6 29  1  0
  6 30  1  0
  7 31  1  0
  7 32  1  0
  8 33  1  0
  8 34  1  0
  9 35  1  0
  9 36  1  0
 10 37  1  0
 10 38  1  0
 11 39  1  0
 11 40  1  0
 12 41  1  0
 12 42  1  0
 13 43  1  0
 13 44  1  0
 14 45  1  0
 14 46  1  0
 15 47  1  0
 15 48  1  0
 16 49  1  0
 16 50  1  0
 17 51  1  0
 17 52  1  0
 17 53  1  0
M  END
>  <filename_input>  (3) 
6YRV_PJ8_docked.sdf

>  <pdb_id>  (3) 
6YRV_PJ8

>  <pose_rank>  (3) 
2

>  <num_atoms_heavy>  (3) 
17

>  <num_torsions>  (3) 
14

>  <pose>  (3) 
[23.49096574153828, 54.86635948524859, 20.933698412232065, 2.77571001741974, -1.3289381956115731, 0.3495876187998401, 4.038979786445003, -0.29791689243769065, -0.6357979214110028, 1.093137420050631, -3.979203165008016, 0.2875076376990584, -3.3051878723549524, -0.3829007793503398, -0.17629358893439298, 3.6056923678253416, -1.5298262677531334, 0.7405080314906286, -0.7101874724279864, -3.317491573458556]

>  <energy>  (3) 
-522.9142875189644

>  <inter_energy>  (3) 
-535.8128680123128

>  <intra_energy>  (3) 
16.258364266824607

>  <rmsd>  (3) 
2.73373

>  <sdf_rank>  (3) 
0

$$$$

     RDKit          3D

 53 52  0  0  0  0  0  0  0  0999 V2000
   21.8444   48.0788   22.0805 C   0  0  0  0  0  0  0  0  0  0  0  0
   21.9917   48.7422   23.4079 C   0  0  0  0  0  0  0  0  0  0  0  0
   22.7308   50.0636   23.4010 C   0  0  0  0  0  0  0  0  0  0  0  0
   21.9355   51.0202   24.2353 C   0  0  0  0  0  0  0  0  0  0  0  0
   21.7828   52.3862   23.7626 C   0  0  0  0  0  0  0  0  0  0  0  0
   22.8517   53.3429   24.0012 C   0  0  0  0  0  0  0  0  0  0  0  0
   23.0382   54.3783   23.0222 C   0  0  0  0  0  0  0  0  0  0  0  0
   22.7737   54.0579   21.5979 C   0  0  0  0  0  0  0  0  0  0  0  0
   23.8847   54.6919   20.7972 C   0  0  0  0  0  0  0  0  0  0  0  0
   24.9324   53.8689   20.0974 C   0  0  0  0  0  0  0  0  0  0  0  0
   24.6697   53.6046   18.5883 C   0  0  0  0  0  0  0  0  0  0  0  0
   25.8565   53.7867   17.6525 C   0  0  0  0  0  0  0  0  0  0  0  0
   25.9751   55.2085   17.1274 C   0  0  0  0  0  0  0  0  0  0  0  0
   25.2556   56.3159   17.7904 C   0  0  0  0  0  0  0  0  0  0  0  0
   23.8475   56.4133   17.2872 C   0  0  0  0  0  0  0  0  0  0  0  0
   22.7337   56.6497   18.2462 C   0  0  0  0  0  0  0  0  0  0  0  0
   21.5400   55.7960   18.0841 C   0  0  0  0  0  0  0  0  0  0  0  0
   21.6083   47.0144   22.2268 H   0  0  0  0  0  0  0  0  0  0  0  0
   21.0314   48.5608   21.5179 H   0  0  0  0  0  0  0  0  0  0  0  0
   22.7851   48.1717   21.5179 H   0  0  0  0  0  0  0  0  0  0  0  0
   20.9837   48.9204   23.8107 H   0  0  0  0  0  0  0  0  0  0  0  0
   22.6009   48.0601   24.0191 H   0  0  0  0  0  0  0  0  0  0  0  0
   23.7358   49.9355   23.8293 H   0  0  0  0  0  0  0  0  0  0  0  0
   22.8445   50.4420   22.3744 H   0  0  0  0  0  0  0  0  0  0  0  0
   20.9254   50.5977   24.3413 H   0  0  0  0  0  0  0  0  0  0  0  0
   22.5171   51.1182   25.1638 H   0  0  0  0  0  0  0  0  0  0  0  0
   21.6345   52.3349   22.6739 H   0  0  0  0  0  0  0  0  0  0  0  0
   20.9443   52.7769   24.3578 H   0  0  0  0  0  0  0  0  0  0  0  0
   22.6487   53.8320   24.9653 H   0  0  0  0  0  0  0  0  0  0  0  0
   23.7768   52.7488   23.9647 H   0  0  0  0  0  0  0  0  0  0  0  0
   22.3729   55.2099   23.2976 H   0  0  0  0  0  0  0  0  0  0  0  0
   24.1168   54.5914   23.0559 H   0  0  0  0  0  0  0  0  0  0  0  0
   22.7727   52.9682   21.4482 H   0  0  0  0  0  0  0  0  0  0  0  0
   21.7913   54.4393   21.2824 H   0  0  0  0  0  0  0  0  0  0  0  0
   23.3969   55.2964   20.0184 H   0  0  0  0  0  0  0  0  0  0  0  0
   24.4718   55.1987   21.5773 H   0  0  0  0  0  0  0  0  0  0  0  0
   25.8944   54.3947   20.1880 H   0  0  0  0  0  0  0  0  0  0  0  0
   24.9217   52.8832   20.5856 H   0  0  0  0  0  0  0  0  0  0  0  0
   24.3193   52.5669   18.4864 H   0  0  0  0  0  0  0  0  0  0  0  0
   23.9365   54.3652   18.2818 H   0  0  0  0  0  0  0  0  0  0  0  0
   26.7775   53.5350   18.1987 H   0  0  0  0  0  0  0  0  0  0  0  0
   25.7032   53.1242   16.7878 H   0  0  0  0  0  0  0  0  0  0  0  0
   27.0441   55.4662   17.1548 H   0  0  0  0  0  0  0  0  0  0  0  0
   25.4863   55.1501   16.1437 H   0  0  0  0  0  0  0  0  0  0  0  0
   25.2390   56.1365   18.8756 H   0  0  0  0  0  0  0  0  0  0  0  0
   25.7760   57.2586   17.5657 H   0  0  0  0  0  0  0  0  0  0  0  0
   23.8248   57.2406   16.5625 H   0  0  0  0  0  0  0  0  0  0  0  0
   23.6434   55.4028   16.9034 H   0  0  0  0  0  0  0  0  0  0  0  0
   23.1255   56.4891   19.2614 H   0  0  0  0  0  0  0  0  0  0  0  0
   22.3898   57.6759   18.0499 H   0  0  0  0  0  0  0  0  0  0  0  0
   21.1510   55.5178   19.0747 H   0  0  0  0  0  0  0  0  0  0  0  0
   20.7674   56.3476   17.5285 H   0  0  0  0  0  0  0  0  0  0  0  0
   21.8124   54.8866   17.5285 H   0  0  0  0  0  0  0  0  0  0  0  0
  1  2  1  0
  2  3  1  0
  3  4  1  0
  4  5  1  0
  5  6  1  0
  6  7  1  0
  7  8  1  0
  8  9  1  0
  9 10  1  0
 10 11  1  0
 11 12  1  0
 12 13  1  0
 13 14  1  0
 14 15  1  0
 15 16  1  0
 16 17  1  0
  1 18  1  0
  1 19  1  0
  1 20  1  0
  2 21  1  0
  2 22  1  0
  3 23  1  0
  3 24  1  0
  4 25  1  0
  4 26  1  0
  5 27  1  0
  5 28  1  0
  6 29  1  0
  6 30  1  0
  7 31  1  0
  7 32  1  0
  8 33  1  0
  8 34  1  0
  9 35  1  0
  9 36  1  0
 10 37  1  0
 10 38  1  0
 11 39  1  0
 11 40  1  0
 12 41  1  0
 12 42  1  0
 13 43  1  0
 13 44  1  0
 14 45  1  0
 14 46  1  0
 15 47  1  0
 15 48  1  0
 16 49  1  0
 16 50  1  0
 17 51  1  0
 17 52  1  0
 17 53  1  0
M  END
>  <filename_input>  (4) 
6YRV_PJ8_docked.sdf

>  <pdb_id>  (4) 
6YRV_PJ8

>  <pose_rank>  (4) 
3

>  <num_atoms_heavy>  (4) 
17

>  <num_torsions>  (4) 
14

>  <pose>  (4) 
[23.88474513512934, 54.6919183191275, 20.79721322239717, -0.8863443740856464, 0.15517484128212003, 4.61580554116389, -1.251561161407691, 0.3778165416213539, 0.42883577862261046, -2.853230361383467, -0.46746642934987304, 0.43761185860461865, -1.1738613187564089, -1.2534716109655508, 4.7255369757999395, 3.57386315031199, -3.240572718194569, 1.648470775880075, -1.410846985197924, 0.9547846524192223]

>  <energy>  (4) 
-531.8929817656802

>  <inter_energy>  (4) 
-551.0646550019426

>  <intra_energy>  (4) 
21.873456251196743

>  <rmsd>  (4) 
3.00029

>  <sdf_rank>  (4) 
0

$$$$

     RDKit          3D

 53 52  0  0  0  0  0  0  0  0999 V2000
   26.5830   52.6533   17.4998 C   0  0  0  0  0  0  0  0  0  0  0  0
   25.5185   52.4468   16.4761 C   0  0  0  0  0  0  0  0  0  0  0  0
   24.3434   53.3985   16.5525 C   0  0  0  0  0  0  0  0  0  0  0  0
   24.4909   54.1835   17.8197 C   0  0  0  0  0  0  0  0  0  0  0  0
   24.6147   55.6286   17.7259 C   0  0  0  0  0  0  0  0  0  0  0  0
   23.8118   56.4676   18.6011 C   0  0  0  0  0  0  0  0  0  0  0  0
   22.5534   55.9367   19.0482 C   0  0  0  0  0  0  0  0  0  0  0  0
   22.2595   55.9492   20.5025 C   0  0  0  0  0  0  0  0  0  0  0  0
   22.6933   54.6091   21.0442 C   0  0  0  0  0  0  0  0  0  0  0  0
   23.3018   54.4618   22.4127 C   0  0  0  0  0  0  0  0  0  0  0  0
   22.3806   53.8098   23.4816 C   0  0  0  0  0  0  0  0  0  0  0  0
   22.9683   52.6403   24.2591 C   0  0  0  0  0  0  0  0  0  0  0  0
   22.0607   51.4207   24.2569 C   0  0  0  0  0  0  0  0  0  0  0  0
   22.0063   50.5278   23.0806 C   0  0  0  0  0  0  0  0  0  0  0  0
   21.8437   49.0993   23.5032 C   0  0  0  0  0  0  0  0  0  0  0  0
   23.0439   48.2328   23.6600 C   0  0  0  0  0  0  0  0  0  0  0  0
   23.6783   47.7636   22.4120 C   0  0  0  0  0  0  0  0  0  0  0  0
   26.1459   52.5685   18.5056 H   0  0  0  0  0  0  0  0  0  0  0  0
   27.3652   51.8901   17.3744 H   0  0  0  0  0  0  0  0  0  0  0  0
   27.0232   53.6535   17.3744 H   0  0  0  0  0  0  0  0  0  0  0  0
   25.9784   52.5561   15.4829 H   0  0  0  0  0  0  0  0  0  0  0  0
   25.1070   51.4449   16.6681 H   0  0  0  0  0  0  0  0  0  0  0  0
   24.3504   54.0763   15.6863 H   0  0  0  0  0  0  0  0  0  0  0  0
   23.3922   52.8460   16.5439 H   0  0  0  0  0  0  0  0  0  0  0  0
   23.6062   53.9721   18.4384 H   0  0  0  0  0  0  0  0  0  0  0  0
   25.4568   53.8549   18.2311 H   0  0  0  0  0  0  0  0  0  0  0  0
   25.6686   55.8744   17.9231 H   0  0  0  0  0  0  0  0  0  0  0  0
   24.2333   55.8592   16.7202 H   0  0  0  0  0  0  0  0  0  0  0  0
   24.4149   56.6859   19.4947 H   0  0  0  0  0  0  0  0  0  0  0  0
   23.5484   57.3436   17.9901 H   0  0  0  0  0  0  0  0  0  0  0  0
   21.7611   56.5156   18.5512 H   0  0  0  0  0  0  0  0  0  0  0  0
   22.6040   54.8683   18.7916 H   0  0  0  0  0  0  0  0  0  0  0  0
   22.8203   56.7569   20.9956 H   0  0  0  0  0  0  0  0  0  0  0  0
   21.1895   56.1236   20.6884 H   0  0  0  0  0  0  0  0  0  0  0  0
   21.7989   53.9688   21.0342 H   0  0  0  0  0  0  0  0  0  0  0  0
   23.5384   54.3566   20.3869 H   0  0  0  0  0  0  0  0  0  0  0  0
   24.2051   53.8413   22.3181 H   0  0  0  0  0  0  0  0  0  0  0  0
   23.5044   55.4831   22.7674 H   0  0  0  0  0  0  0  0  0  0  0  0
   22.1057   54.5896   24.2070 H   0  0  0  0  0  0  0  0  0  0  0  0
   21.5327   53.3906   22.9200 H   0  0  0  0  0  0  0  0  0  0  0  0
   23.9311   52.3637   23.8047 H   0  0  0  0  0  0  0  0  0  0  0  0
   23.0899   52.9628   25.3037 H   0  0  0  0  0  0  0  0  0  0  0  0
   22.3669   50.7986   25.1108 H   0  0  0  0  0  0  0  0  0  0  0  0
   21.0534   51.8622   24.2787 H   0  0  0  0  0  0  0  0  0  0  0  0
   21.1536   50.8160   22.4483 H   0  0  0  0  0  0  0  0  0  0  0  0
   22.9484   50.6245   22.5210 H   0  0  0  0  0  0  0  0  0  0  0  0
   21.3303   49.1115   24.4760 H   0  0  0  0  0  0  0  0  0  0  0  0
   21.3082   48.6427   22.6577 H   0  0  0  0  0  0  0  0  0  0  0  0
   23.7967   48.8017   24.2255 H   0  0  0  0  0  0  0  0  0  0  0  0
   22.6864   47.3246   24.1672 H   0  0  0  0  0  0  0  0  0  0  0  0
   24.5405   47.1258   22.6563 H   0  0  0  0  0  0  0  0  0  0  0  0
   22.9493   47.1857   21.8250 H   0  0  0  0  0  0  0  0  0  0  0  0
   24.0175   48.6299   21.8250 H   0  0  0  0  0  0  0  0  0  0  0  0
  1  2  1  0
  2  3  1  0
  3  4  1  0
  4  5  1  0
  5  6  1  0
  6  7  1  0
  7  8  1  0
  8  9  1  0
  9 10  1  0
 10 11  1  0
 11 12  1  0
 12 13  1  0
 13 14  1  0
 14 15  1  0
 15 16  1  0
 16 17  1  0
  1 18  1  0
  1 19  1  0
  1 20  1  0
  2 21  1  0
  2 22  1  0
  3 23  1  0
  3 24  1  0
  4 25  1  0
  4 26  1  0
  5 27  1  0
  5 28  1  0
  6 29  1  0
  6 30  1  0
  7 31  1  0
  7 32  1  0
  8 33  1  0
  8 34  1  0
  9 35  1  0
  9 36  1  0
 10 37  1  0
 10 38  1  0
 11 39  1  0
 11 40  1  0
 12 41  1  0
 12 42  1  0
 13 43  1  0
 13 44  1  0
 14 45  1  0
 14 46  1  0
 15 47  1  0
 15 48  1  0
 16 49  1  0
 16 50  1  0
 17 51  1  0
 17 52  1  0
 17 53  1  0
M  END
>  <filename_input>  (5) 
6YRV_PJ8_docked.sdf

>  <pdb_id>  (5) 
6YRV_PJ8

>  <pose_rank>  (5) 
4

>  <num_atoms_heavy>  (5) 
17

>  <num_torsions>  (5) 
14

>  <pose>  (5) 
[22.69326421546276, 54.609108998112724, 21.044160326127997, -2.0039055195413167, -1.6137848063109685, -1.085794818092782, -6.953040676836511, 1.148707738869877, -3.0175837377342716, 0.34898377262381947, 3.28335795036738, -1.3403327880899532, 2.616240304120664, -1.0802729278723004, -1.6694884581101972, 2.8866965031978915, -2.154508826528195, -0.6524845725406229, 0.8300936374174412, 1.9825734128801358]

>  <energy>  (5) 
-553.2370530432132

>  <inter_energy>  (5) 
-557.368982757382

>  <intra_energy>  (5) 
1.7344746555761967

>  <rmsd>  (5) 
1.17795

>  <sdf_rank>  (5) 
0

$$$$

     RDKit          3D

 53 52  0  0  0  0  0  0  0  0999 V2000
   24.9011   54.3193   16.5736 C   0  0  0  0  0  0  0  0  0  0  0  0
   23.7378   54.7999   17.3732 C   0  0  0  0  0  0  0  0  0  0  0  0
   24.0678   55.7565   18.4995 C   0  0  0  0  0  0  0  0  0  0  0  0
   22.7785   56.1020   19.1792 C   0  0  0  0  0  0  0  0  0  0  0  0
   22.5179   55.5372   20.4929 C   0  0  0  0  0  0  0  0  0  0  0  0
   23.6311   55.0354   21.2827 C   0  0  0  0  0  0  0  0  0  0  0  0
   23.3142   54.3583   22.5100 C   0  0  0  0  0  0  0  0  0  0  0  0
   21.9504   53.7973   22.6741 C   0  0  0  0  0  0  0  0  0  0  0  0
   22.1052   52.2985   22.7582 C   0  0  0  0  0  0  0  0  0  0  0  0
   22.2813   51.5882   24.0731 C   0  0  0  0  0  0  0  0  0  0  0  0
   21.4955   50.2548   24.2173 C   0  0  0  0  0  0  0  0  0  0  0  0
   22.3229   48.9769   24.2077 C   0  0  0  0  0  0  0  0  0  0  0  0
   22.7106   48.5411   22.8038 C   0  0  0  0  0  0  0  0  0  0  0  0
   24.1004   48.1422   22.4988 C   0  0  0  0  0  0  0  0  0  0  0  0
   24.1593   47.3413   21.2336 C   0  0  0  0  0  0  0  0  0  0  0  0
   25.4533   47.1896   20.5135 C   0  0  0  0  0  0  0  0  0  0  0  0
   25.5306   46.0872   19.5344 C   0  0  0  0  0  0  0  0  0  0  0  0
   25.7011   53.9888   17.2525 H   0  0  0  0  0  0  0  0  0  0  0  0
   24.5873   53.4772   15.9393 H   0  0  0  0  0  0  0  0  0  0  0  0
   25.2731   55.1374   15.9393 H   0  0  0  0  0  0  0  0  0  0  0  0
   23.0442   55.3099   16.6885 H   0  0  0  0  0  0  0  0  0  0  0  0
   23.3127   53.9059   17.8529 H   0  0  0  0  0  0  0  0  0  0  0  0
   24.7533   55.2761   19.2132 H   0  0  0  0  0  0  0  0  0  0  0  0
   24.5597   56.6609   18.1121 H   0  0  0  0  0  0  0  0  0  0  0  0
   22.7489   57.1966   19.2839 H   0  0  0  0  0  0  0  0  0  0  0  0
   22.0052   55.6580   18.5352 H   0  0  0  0  0  0  0  0  0  0  0  0
   22.0290   56.3219   21.0889 H   0  0  0  0  0  0  0  0  0  0  0  0
   21.9231   54.6373   20.2776 H   0  0  0  0  0  0  0  0  0  0  0  0
   24.1931   54.3310   20.6519 H   0  0  0  0  0  0  0  0  0  0  0  0
   24.1875   55.9331   21.5901 H   0  0  0  0  0  0  0  0  0  0  0  0
   24.0237   53.5241   22.6138 H   0  0  0  0  0  0  0  0  0  0  0  0
   23.3775   55.1443   23.2768 H   0  0  0  0  0  0  0  0  0  0  0  0
   21.4901   54.1832   23.5956 H   0  0  0  0  0  0  0  0  0  0  0  0
   21.3018   54.0815   21.8323 H   0  0  0  0  0  0  0  0  0  0  0  0
   21.2048   51.8694   22.2944 H   0  0  0  0  0  0  0  0  0  0  0  0
   23.0815   52.1395   22.2769 H   0  0  0  0  0  0  0  0  0  0  0  0
   23.3515   51.3675   24.1997 H   0  0  0  0  0  0  0  0  0  0  0  0
   21.8774   52.2643   24.8411 H   0  0  0  0  0  0  0  0  0  0  0  0
   20.9467   50.2910   25.1699 H   0  0  0  0  0  0  0  0  0  0  0  0
   20.8553   50.1950   23.3247 H   0  0  0  0  0  0  0  0  0  0  0  0
   23.2406   49.1473   24.7896 H   0  0  0  0  0  0  0  0  0  0  0  0
   21.7065   48.1781   24.6459 H   0  0  0  0  0  0  0  0  0  0  0  0
   22.0736   47.6797   22.5542 H   0  0  0  0  0  0  0  0  0  0  0  0
   22.5828   49.4615   22.2152 H   0  0  0  0  0  0  0  0  0  0  0  0
   24.7175   49.0453   22.3827 H   0  0  0  0  0  0  0  0  0  0  0  0
   24.4787   47.5231   23.3255 H   0  0  0  0  0  0  0  0  0  0  0  0
   23.8124   46.3274   21.4821 H   0  0  0  0  0  0  0  0  0  0  0  0
   23.5446   47.9256   20.5331 H   0  0  0  0  0  0  0  0  0  0  0  0
   25.6505   48.1293   19.9767 H   0  0  0  0  0  0  0  0  0  0  0  0
   26.1944   46.9463   21.2890 H   0  0  0  0  0  0  0  0  0  0  0  0
   25.5979   45.1274   20.0675 H   0  0  0  0  0  0  0  0  0  0  0  0
   24.6298   46.0936   18.9031 H   0  0  0  0  0  0  0  0  0  0  0  0
   26.4217   46.2192   18.9031 H   0  0  0  0  0  0  0  0  0  0  0  0
  1  2  1  0
  2  3  1  0
  3  4  1  0
  4  5  1  0
  5  6  1  0
  6  7  1  0
  7  8  1  0
  8  9  1  0
  9 10  1  0
 10 11  1  0
 11 12  1  0
 12 13  1  0
 13 14  1  0
 14 15  1  0
 15 16  1  0
 16 17  1  0
  1 18  1  0
  1 19  1  0
  1 20  1  0
  2 21  1  0
  2 22  1  0
  3 23  1  0
  3 24  1  0
  4 25  1  0
  4 26  1  0
  5 27  1  0
  5 28  1  0
  6 29  1  0
  6 30  1  0
  7 31  1  0
  7 32  1  0
  8 33  1  0
  8 34  1  0
  9 35  1  0
  9 36  1  0
 10 37  1  0
 10 38  1  0
 11 39  1  0
 11 40  1  0
 12 41  1  0
 12 42  1  0
 13 43  1  0
 13 44  1  0
 14 45  1  0
 14 46  1  0
 15 47  1  0
 15 48  1  0
 16 49  1  0
 16 50  1  0
 17 51  1  0
 17 52  1  0
 17 53  1  0
M  END
>  <filename_input>  (6) 
6YRV_PJ8_docked.sdf

>  <pdb_id>  (6) 
6YRV_PJ8

>  <pose_rank>  (6) 
5

>  <num_atoms_heavy>  (6) 
17

>  <num_torsions>  (6) 
14

>  <pose>  (6) 
[22.105202705056577, 52.29851988130932, 22.758182707462645, 2.308222276695583, 1.6570761731338373, 2.1077010003737318, -1.5952367759538024, -1.4951008728280246, 1.3891311312397712, -2.1907830010134184, 1.3020947437164452, -1.5581978594716144, -0.3621031183243596, -0.5194648202835055, -2.0114247280608946, -2.5491600773986467, -1.2092583542068416, -0.3458178666611052, -0.9913801984335983, -0.1606951346389338]

>  <energy>  (6) 
-514.7241464769897

>  <inter_energy>  (6) 
-515.0182324840273

>  <intra_energy>  (6) 
0.0

>  <rmsd>  (6) 
3.49322

>  <sdf_rank>  (6) 
0

$$$$

     RDKit          3D

 53 52  0  0  0  0  0  0  0  0999 V2000
   24.0556   46.9911   21.1312 C   0  0  0  0  0  0  0  0  0  0  0  0
   23.5497   48.1210   21.9625 C   0  0  0  0  0  0  0  0  0  0  0  0
   22.9222   47.7316   23.2843 C   0  0  0  0  0  0  0  0  0  0  0  0
   21.7039   48.5843   23.4644 C   0  0  0  0  0  0  0  0  0  0  0  0
   21.4974   49.6948   22.5497 C   0  0  0  0  0  0  0  0  0  0  0  0
   21.3664   51.0402   23.0857 C   0  0  0  0  0  0  0  0  0  0  0  0
   22.2316   51.4013   24.1749 C   0  0  0  0  0  0  0  0  0  0  0  0
   23.3252   52.3699   23.9155 C   0  0  0  0  0  0  0  0  0  0  0  0
   22.7037   53.5444   23.2002 C   0  0  0  0  0  0  0  0  0  0  0  0
   23.5298   54.6926   22.6865 C   0  0  0  0  0  0  0  0  0  0  0  0
   23.0283   55.3295   21.3602 C   0  0  0  0  0  0  0  0  0  0  0  0
   23.7115   54.8606   20.0832 C   0  0  0  0  0  0  0  0  0  0  0  0
   23.3100   55.6823   18.8688 C   0  0  0  0  0  0  0  0  0  0  0  0
   24.1070   55.6232   17.6257 C   0  0  0  0  0  0  0  0  0  0  0  0
   24.5522   54.2202   17.3445 C   0  0  0  0  0  0  0  0  0  0  0  0
   25.5172   53.9571   16.2419 C   0  0  0  0  0  0  0  0  0  0  0  0
   26.3991   55.0794   15.8642 C   0  0  0  0  0  0  0  0  0  0  0  0
   24.4163   46.1856   21.7878 H   0  0  0  0  0  0  0  0  0  0  0  0
   23.2422   46.6101   20.4963 H   0  0  0  0  0  0  0  0  0  0  0  0
   24.8816   47.3442   20.4963 H   0  0  0  0  0  0  0  0  0  0  0  0
   24.3962   48.7908   22.1742 H   0  0  0  0  0  0  0  0  0  0  0  0
   22.7468   48.5905   21.3752 H   0  0  0  0  0  0  0  0  0  0  0  0
   22.6393   46.6687   23.2685 H   0  0  0  0  0  0  0  0  0  0  0  0
   23.6304   47.8825   24.1123 H   0  0  0  0  0  0  0  0  0  0  0  0
   20.8285   47.9238   23.3773 H   0  0  0  0  0  0  0  0  0  0  0  0
   21.8509   49.0635   24.4435 H   0  0  0  0  0  0  0  0  0  0  0  0
   22.3535   49.7059   21.8591 H   0  0  0  0  0  0  0  0  0  0  0  0
   20.5100   49.4912   22.1096 H   0  0  0  0  0  0  0  0  0  0  0  0
   21.5592   51.7443   22.2628 H   0  0  0  0  0  0  0  0  0  0  0  0
   20.3506   51.0800   23.5059 H   0  0  0  0  0  0  0  0  0  0  0  0
   21.5980   51.8300   24.9653 H   0  0  0  0  0  0  0  0  0  0  0  0
   22.7527   50.4662   24.4279 H   0  0  0  0  0  0  0  0  0  0  0  0
   23.7738   52.6983   24.8647 H   0  0  0  0  0  0  0  0  0  0  0  0
   24.1220   51.9141   23.3095 H   0  0  0  0  0  0  0  0  0  0  0  0
   22.1763   53.1301   22.3283 H   0  0  0  0  0  0  0  0  0  0  0  0
   22.1193   54.0203   24.0014 H   0  0  0  0  0  0  0  0  0  0  0  0
   23.5392   55.4766   23.4579 H   0  0  0  0  0  0  0  0  0  0  0  0
   24.5250   54.2780   22.4680 H   0  0  0  0  0  0  0  0  0  0  0  0
   21.9551   55.1068   21.2668 H   0  0  0  0  0  0  0  0  0  0  0  0
   23.2658   56.4005   21.4423 H   0  0  0  0  0  0  0  0  0  0  0  0
   24.8005   54.9391   20.2172 H   0  0  0  0  0  0  0  0  0  0  0  0
   23.3987   53.8220   19.9005 H   0  0  0  0  0  0  0  0  0  0  0  0
   22.2884   55.3732   18.6030 H   0  0  0  0  0  0  0  0  0  0  0  0
   23.4607   56.7172   19.2099 H   0  0  0  0  0  0  0  0  0  0  0  0
   23.4929   55.9816   16.7864 H   0  0  0  0  0  0  0  0  0  0  0  0
   24.9973   56.2575   17.7476 H   0  0  0  0  0  0  0  0  0  0  0  0
   25.0132   53.8411   18.2685 H   0  0  0  0  0  0  0  0  0  0  0  0
   23.6319   53.7246   17.0016 H   0  0  0  0  0  0  0  0  0  0  0  0
   26.1569   53.1168   16.5496 H   0  0  0  0  0  0  0  0  0  0  0  0
   24.9005   53.7562   15.3535 H   0  0  0  0  0  0  0  0  0  0  0  0
   26.7820   55.5667   16.7730 H   0  0  0  0  0  0  0  0  0  0  0  0
   27.2423   54.6988   15.2691 H   0  0  0  0  0  0  0  0  0  0  0  0
   25.8299   55.8087   15.2691 H   0  0  0  0  0  0  0  0  0  0  0  0
  1  2  1  0
  2  3  1  0
  3  4  1  0
  4  5  1  0
  5  6  1  0
  6  7  1  0
  7  8  1  0
  8  9  1  0
  9 10  1  0
 10 11  1  0
 11 12  1  0
 12 13  1  0
 13 14  1  0
 14 15  1  0
 15 16  1  0
 16 17  1  0
  1 18  1  0
  1 19  1  0
  1 20  1  0
  2 21  1  0
  2 22  1  0
  3 23  1  0
  3 24  1  0
  4 25  1  0
  4 26  1  0
  5 27  1  0
  5 28  1  0
  6 29  1  0
  6 30  1  0
  7 31  1  0
  7 32  1  0
  8 33  1  0
  8 34  1  0
  9 35  1  0
  9 36  1  0
 10 37  1  0
 10 38  1  0
 11 39  1  0
 11 40  1  0
 12 41  1  0
 12 42  1  0
 13 43  1  0
 13 44  1  0
 14 45  1  0
 14 46  1  0
 15 47  1  0
 15 48  1  0
 16 49  1  0
 16 50  1  0
 17 51  1  0
 17 52  1  0
 17 53  1  0
M  END
>  <filename_input>  (7) 
6YRV_PJ8_docked.sdf

>  <pdb_id>  (7) 
6YRV_PJ8

>  <pose_rank>  (7) 
6

>  <num_atoms_heavy>  (7) 
17

>  <num_torsions>  (7) 
14

>  <pose>  (7) 
[22.703683304440435, 53.54439922300235, 23.200154442950097, -5.642953840619137, -1.4848346028172983, -1.0695756951904445, 0.03213901689877279, 3.643087924200906, -3.356027670278079, 1.5380702866738525, -1.1785320784873623, 2.6770893360629793, 0.34884365554137214, -0.4111595707319257, 0.6638662081326995, 2.145752158948198, -0.6694432935229198, 3.824566772964215, -0.5235015267778099, -2.5582200342304082]

>  <energy>  (7) 
-544.2539322411077

>  <inter_energy>  (7) 
-545.1942319003101

>  <intra_energy>  (7) 
0.0

>  <rmsd>  (7) 
2.28476

>  <sdf_rank>  (7) 
0

$$$$

     RDKit          3D

 53 52  0  0  0  0  0  0  0  0999 V2000
   25.6522   46.5007   19.7797 C   0  0  0  0  0  0  0  0  0  0  0  0
   25.1444   46.8586   21.1354 C   0  0  0  0  0  0  0  0  0  0  0  0
   23.6771   47.2246   21.2093 C   0  0  0  0  0  0  0  0  0  0  0  0
   23.5071   48.1380   22.3843 C   0  0  0  0  0  0  0  0  0  0  0  0
   22.5381   47.7760   23.4053 C   0  0  0  0  0  0  0  0  0  0  0  0
   21.2687   48.4833   23.4611 C   0  0  0  0  0  0  0  0  0  0  0  0
   21.3178   49.9178   23.5314 C   0  0  0  0  0  0  0  0  0  0  0  0
   22.6036   50.5624   23.8957 C   0  0  0  0  0  0  0  0  0  0  0  0
   22.2631   51.7499   24.7625 C   0  0  0  0  0  0  0  0  0  0  0  0
   22.5850   53.1595   24.3451 C   0  0  0  0  0  0  0  0  0  0  0  0
   21.9482   53.6156   23.0025 C   0  0  0  0  0  0  0  0  0  0  0  0
   22.5644   54.8415   22.3429 C   0  0  0  0  0  0  0  0  0  0  0  0
   22.7088   54.6859   20.8375 C   0  0  0  0  0  0  0  0  0  0  0  0
   23.8350   55.3210   20.1220 C   0  0  0  0  0  0  0  0  0  0  0  0
   24.0382   54.6875   18.7792 C   0  0  0  0  0  0  0  0  0  0  0  0
   24.1346   55.5428   17.5646 C   0  0  0  0  0  0  0  0  0  0  0  0
   23.5398   56.8903   17.6658 C   0  0  0  0  0  0  0  0  0  0  0  0
   26.5477   45.8696   19.8784 H   0  0  0  0  0  0  0  0  0  0  0  0
   24.8743   45.9502   19.2304 H   0  0  0  0  0  0  0  0  0  0  0  0
   25.9091   47.4184   19.2304 H   0  0  0  0  0  0  0  0  0  0  0  0
   25.3119   45.9966   21.7979 H   0  0  0  0  0  0  0  0  0  0  0  0
   25.6952   47.7628   21.4338 H   0  0  0  0  0  0  0  0  0  0  0  0
   23.3695   47.7371   20.2859 H   0  0  0  0  0  0  0  0  0  0  0  0
   23.0552   46.3242   21.3215 H   0  0  0  0  0  0  0  0  0  0  0  0
   24.4864   48.2178   22.8788 H   0  0  0  0  0  0  0  0  0  0  0  0
   23.1089   49.0668   21.9500 H   0  0  0  0  0  0  0  0  0  0  0  0
   22.3061   46.7099   23.2648 H   0  0  0  0  0  0  0  0  0  0  0  0
   23.0340   48.0538   24.3471 H   0  0  0  0  0  0  0  0  0  0  0  0
   20.7011   48.2157   22.5577 H   0  0  0  0  0  0  0  0  0  0  0  0
   20.8108   48.1688   24.4105 H   0  0  0  0  0  0  0  0  0  0  0  0
   21.0302   50.3021   22.5417 H   0  0  0  0  0  0  0  0  0  0  0  0
   20.6431   50.1712   24.3624 H   0  0  0  0  0  0  0  0  0  0  0  0
   23.2374   49.8562   24.4522 H   0  0  0  0  0  0  0  0  0  0  0  0
   23.1584   50.8737   22.9983 H   0  0  0  0  0  0  0  0  0  0  0  0
   21.1747   51.7157   24.9182 H   0  0  0  0  0  0  0  0  0  0  0  0
   22.9308   51.6059   25.6247 H   0  0  0  0  0  0  0  0  0  0  0  0
   22.2321   53.8374   25.1363 H   0  0  0  0  0  0  0  0  0  0  0  0
   23.6738   53.1907   24.1920 H   0  0  0  0  0  0  0  0  0  0  0  0
   22.0274   52.7786   22.2932 H   0  0  0  0  0  0  0  0  0  0  0  0
   20.9168   53.9054   23.2518 H   0  0  0  0  0  0  0  0  0  0  0  0
   21.9227   55.7112   22.5471 H   0  0  0  0  0  0  0  0  0  0  0  0
   23.5728   54.9734   22.7621 H   0  0  0  0  0  0  0  0  0  0  0  0
   22.7772   53.6064   20.6375 H   0  0  0  0  0  0  0  0  0  0  0  0
   21.8329   55.2255   20.4482 H   0  0  0  0  0  0  0  0  0  0  0  0
   23.6188   56.3910   19.9868 H   0  0  0  0  0  0  0  0  0  0  0  0
   24.7506   55.1872   20.7168 H   0  0  0  0  0  0  0  0  0  0  0  0
   24.9729   54.1105   18.8374 H   0  0  0  0  0  0  0  0  0  0  0  0
   23.1077   54.1228   18.6203 H   0  0  0  0  0  0  0  0  0  0  0  0
   25.2010   55.6642   17.3236 H   0  0  0  0  0  0  0  0  0  0  0  0
   23.5513   55.0215   16.7912 H   0  0  0  0  0  0  0  0  0  0  0  0
   23.4207   57.1599   18.7255 H   0  0  0  0  0  0  0  0  0  0  0  0
   24.1993   57.6202   17.1736 H   0  0  0  0  0  0  0  0  0  0  0  0
   22.5560   56.8948   17.1736 H   0  0  0  0  0  0  0  0  0  0  0  0
  1  2  1  0
  2  3  1  0
  3  4  1  0
  4  5  1  0
  5  6  1  0
  6  7  1  0
  7  8  1  0
  8  9  1  0
  9 10  1  0
 10 11  1  0
 11 12  1  0
 12 13  1  0
 13 14  1  0
 14 15  1  0
 15 16  1  0
 16 17  1  0
  1 18  1  0
  1 19  1  0
  1 20  1  0
  2 21  1  0
  2 22  1  0
  3 23  1  0
  3 24  1  0
  4 25  1  0
  4 26  1  0
  5 27  1  0
  5 28  1  0
  6 29  1  0
  6 30  1  0
  7 31  1  0
  7 32  1  0
  8 33  1  0
  8 34  1  0
  9 35  1  0
  9 36  1  0
 10 37  1  0
 10 38  1  0
 11 39  1  0
 11 40  1  0
 12 41  1  0
 12 42  1  0
 13 43  1  0
 13 44  1  0
 14 45  1  0
 14 46  1  0
 15 47  1  0
 15 48  1  0
 16 49  1  0
 16 50  1  0
 17 51  1  0
 17 52  1  0
 17 53  1  0
M  END
>  <filename_input>  (8) 
6YRV_PJ8_docked.sdf

>  <pdb_id>  (8) 
6YRV_PJ8

>  <pose_rank>  (8) 
7

>  <num_atoms_heavy>  (8) 
17

>  <num_torsions>  (8) 
14

>  <pose>  (8) 
[22.263119343940776, 51.74994176184513, 24.76251312257896, -2.747085687829138, -3.6931851497212236, 0.7194206149188669, 1.0518657793209092, 0.2920913702308069, 0.7497502304181166, -0.09805555195492663, 5.416212243701887, 0.677345633819227, 0.09101786334268183, -1.921894479554507, 5.82066414460082, 1.2617341320372963, -6.103154024207274, -0.34381896646306653, -1.5482010688068815, 2.907492674316967]

>  <energy>  (8) 
-495.7145943799091

>  <inter_energy>  (8) 
-514.520629096441

>  <intra_energy>  (8) 
19.375601861970104

>  <rmsd>  (8) 
4.10704

>  <sdf_rank>  (8) 
0

$$$$

     RDKit          3D

 53 52  0  0  0  0  0  0  0  0999 V2000
   19.2245   49.9442   24.9887 C   0  0  0  0  0  0  0  0  0  0  0  0
   20.6900   50.0245   25.2529 C   0  0  0  0  0  0  0  0  0  0  0  0
   21.3759   51.2816   24.7613 C   0  0  0  0  0  0  0  0  0  0  0  0
   22.6522   51.4204   25.5331 C   0  0  0  0  0  0  0  0  0  0  0  0
   23.4448   52.6242   25.3453 C   0  0  0  0  0  0  0  0  0  0  0  0
   23.6195   53.1561   24.0032 C   0  0  0  0  0  0  0  0  0  0  0  0
   22.4423   53.6180   23.3205 C   0  0  0  0  0  0  0  0  0  0  0  0
   22.3651   53.4407   21.8494 C   0  0  0  0  0  0  0  0  0  0  0  0
   23.3316   54.4279   21.2423 C   0  0  0  0  0  0  0  0  0  0  0  0
   22.9224   55.3705   20.1428 C   0  0  0  0  0  0  0  0  0  0  0  0
   23.8904   55.4331   18.9282 C   0  0  0  0  0  0  0  0  0  0  0  0
   23.3841   54.8262   17.6271 C   0  0  0  0  0  0  0  0  0  0  0  0
   24.4307   53.9673   16.9356 C   0  0  0  0  0  0  0  0  0  0  0  0
   25.2650   53.0284   17.7143 C   0  0  0  0  0  0  0  0  0  0  0  0
   25.8726   51.9894   16.8217 C   0  0  0  0  0  0  0  0  0  0  0  0
   25.1948   50.6754   16.6478 C   0  0  0  0  0  0  0  0  0  0  0  0
   25.7440   49.5488   17.4282 C   0  0  0  0  0  0  0  0  0  0  0  0
   18.6808   49.9145   25.9445 H   0  0  0  0  0  0  0  0  0  0  0  0
   18.9068   50.8263   24.4134 H   0  0  0  0  0  0  0  0  0  0  0  0
   19.0050   49.0327   24.4134 H   0  0  0  0  0  0  0  0  0  0  0  0
   20.8418   49.9595   26.3404 H   0  0  0  0  0  0  0  0  0  0  0  0
   21.1429   49.1950   24.6900 H   0  0  0  0  0  0  0  0  0  0  0  0
   21.5930   51.1966   23.6862 H   0  0  0  0  0  0  0  0  0  0  0  0
   20.7322   52.1611   24.9095 H   0  0  0  0  0  0  0  0  0  0  0  0
   22.3945   51.3637   26.6010 H   0  0  0  0  0  0  0  0  0  0  0  0
   23.2912   50.6123   25.1476 H   0  0  0  0  0  0  0  0  0  0  0  0
   22.9738   53.4161   25.9462 H   0  0  0  0  0  0  0  0  0  0  0  0
   24.4595   52.3180   25.6396 H   0  0  0  0  0  0  0  0  0  0  0  0
   24.3163   54.0045   24.0718 H   0  0  0  0  0  0  0  0  0  0  0  0
   23.9777   52.3049   23.4057 H   0  0  0  0  0  0  0  0  0  0  0  0
   21.5836   53.0874   23.7576 H   0  0  0  0  0  0  0  0  0  0  0  0
   22.4584   54.7088   23.4611 H   0  0  0  0  0  0  0  0  0  0  0  0
   22.6499   52.4140   21.5758 H   0  0  0  0  0  0  0  0  0  0  0  0
   21.3420   53.6123   21.4834 H   0  0  0  0  0  0  0  0  0  0  0  0
   23.6897   55.0573   22.0702 H   0  0  0  0  0  0  0  0  0  0  0  0
   24.0440   53.7669   20.7269 H   0  0  0  0  0  0  0  0  0  0  0  0
   21.9349   55.0553   19.7747 H   0  0  0  0  0  0  0  0  0  0  0  0
   22.9259   56.3767   20.5873 H   0  0  0  0  0  0  0  0  0  0  0  0
   24.1191   56.4919   18.7368 H   0  0  0  0  0  0  0  0  0  0  0  0
   24.7599   54.8239   19.2159 H   0  0  0  0  0  0  0  0  0  0  0  0
   22.5060   54.2016   17.8481 H   0  0  0  0  0  0  0  0  0  0  0  0
   23.1327   55.6549   16.9489 H   0  0  0  0  0  0  0  0  0  0  0  0
   23.8983   53.3664   16.1837 H   0  0  0  0  0  0  0  0  0  0  0  0
   25.1609   54.7079   16.5775 H   0  0  0  0  0  0  0  0  0  0  0  0
   26.0687   53.5894   18.2137 H   0  0  0  0  0  0  0  0  0  0  0  0
   24.6292   52.5258   18.4581 H   0  0  0  0  0  0  0  0  0  0  0  0
   25.9573   52.4390   15.8214 H   0  0  0  0  0  0  0  0  0  0  0  0
   26.8088   51.7272   17.3362 H   0  0  0  0  0  0  0  0  0  0  0  0
   24.1407   50.8010   16.9363 H   0  0  0  0  0  0  0  0  0  0  0  0
   25.3470   50.4037   15.5928 H   0  0  0  0  0  0  0  0  0  0  0  0
   25.6401   49.7619   18.5024 H   0  0  0  0  0  0  0  0  0  0  0  0
   25.1931   48.6291   17.1819 H   0  0  0  0  0  0  0  0  0  0  0  0
   26.8078   49.4162   17.1819 H   0  0  0  0  0  0  0  0  0  0  0  0
  1  2  1  0
  2  3  1  0
  3  4  1  0
  4  5  1  0
  5  6  1  0
  6  7  1  0
  7  8  1  0
  8  9  1  0
  9 10  1  0
 10 11  1  0
 11 12  1  0
 12 13  1  0
 13 14  1  0
 14 15  1  0
 15 16  1  0
 16 17  1  0
  1 18  1  0
  1 19  1  0
  1 20  1  0
  2 21  1  0
  2 22  1  0
  3 23  1  0
  3 24  1  0
  4 25  1  0
  4 26  1  0
  5 27  1  0
  5 28  1  0
  6 29  1  0
  6 30  1  0
  7 31  1  0
  7 32  1  0
  8 33  1  0
  8 34  1  0
  9 35  1  0
  9 36  1  0
 10 37  1  0
 10 38  1  0
 11 39  1  0
 11 40  1  0
 12 41  1  0
 12 42  1  0
 13 43  1  0
 13 44  1  0
 14 45  1  0
 14 46  1  0
 15 47  1  0
 15 48  1  0
 16 49  1  0
 16 50  1  0
 17 51  1  0
 17 52  1  0
 17 53  1  0
M  END
>  <filename_input>  (9) 
6YRV_PJ8_docked.sdf

>  <pdb_id>  (9) 
6YRV_PJ8

>  <pose_rank>  (9) 
8

>  <num_atoms_heavy>  (9) 
17

>  <num_torsions>  (9) 
14

>  <pose>  (9) 
[23.33160206643154, 54.42788043254209, 21.242265255345654, -0.6455082223370694, -2.2862872931148233, 2.223606325865622, 7.129697273054249, -4.759845503044561, -1.5225510322141693, -4.330992235199904, 0.22600793323069282, -0.18264063522560842, -0.73463962413147, 1.0328826757764524, 4.285847997784645, -3.5142220626909935, -9.06350343187517, -6.633221945518383, 7.108432141461978, 1.5324638940649575]

>  <energy>  (9) 
-365.64168258001115

>  <inter_energy>  (9) 
-377.7774376371818

>  <intra_energy>  (9) 
21.99536936049282

>  <rmsd>  (9) 
2.05294

>  <sdf_rank>  (9) 
0

$$$$

     RDKit          3D

 53 52  0  0  0  0  0  0  0  0999 V2000
   21.2578   56.0239   15.8984 C   0  0  0  0  0  0  0  0  0  0  0  0
   22.2008   56.7000   16.8350 C   0  0  0  0  0  0  0  0  0  0  0  0
   22.0331   56.3504   18.2986 C   0  0  0  0  0  0  0  0  0  0  0  0
   23.0993   55.3556   18.6412 C   0  0  0  0  0  0  0  0  0  0  0  0
   23.3561   55.0748   20.0440 C   0  0  0  0  0  0  0  0  0  0  0  0
   22.2539   55.1267   20.9911 C   0  0  0  0  0  0  0  0  0  0  0  0
   22.3932   54.3696   22.2045 C   0  0  0  0  0  0  0  0  0  0  0  0
   23.2571   53.1634   22.1878 C   0  0  0  0  0  0  0  0  0  0  0  0
   22.5599   52.1190   23.0248 C   0  0  0  0  0  0  0  0  0  0  0  0
   23.0891   51.6894   24.3665 C   0  0  0  0  0  0  0  0  0  0  0  0
   23.0490   50.1591   24.6364 C   0  0  0  0  0  0  0  0  0  0  0  0
   21.7460   49.4466   24.3016 C   0  0  0  0  0  0  0  0  0  0  0  0
   21.8596   48.5690   23.0654 C   0  0  0  0  0  0  0  0  0  0  0  0
   23.1850   48.1765   22.5429 C   0  0  0  0  0  0  0  0  0  0  0  0
   23.6761   46.9315   23.2171 C   0  0  0  0  0  0  0  0  0  0  0  0
   24.6362   46.0382   22.5126 C   0  0  0  0  0  0  0  0  0  0  0  0
   25.7875   46.6978   21.8650 C   0  0  0  0  0  0  0  0  0  0  0  0
   20.4965   55.4780   16.4751 H   0  0  0  0  0  0  0  0  0  0  0  0
   20.7672   56.7773   15.2646 H   0  0  0  0  0  0  0  0  0  0  0  0
   21.8139   55.3175   15.2646 H   0  0  0  0  0  0  0  0  0  0  0  0
   23.2248   56.4298   16.5377 H   0  0  0  0  0  0  0  0  0  0  0  0
   21.9836   57.7755   16.7560 H   0  0  0  0  0  0  0  0  0  0  0  0
   22.1469   57.2528   18.9171 H   0  0  0  0  0  0  0  0  0  0  0  0
   21.0335   55.9323   18.4882 H   0  0  0  0  0  0  0  0  0  0  0  0
   22.8219   54.4039   18.1643 H   0  0  0  0  0  0  0  0  0  0  0  0
   24.0294   55.8212   18.2834 H   0  0  0  0  0  0  0  0  0  0  0  0
   23.7777   54.0601   20.0967 H   0  0  0  0  0  0  0  0  0  0  0  0
   24.0119   55.8994   20.3601 H   0  0  0  0  0  0  0  0  0  0  0  0
   22.1096   56.1801   21.2732 H   0  0  0  0  0  0  0  0  0  0  0  0
   21.4061   54.6641   20.4645 H   0  0  0  0  0  0  0  0  0  0  0  0
   22.7991   55.0499   22.9677 H   0  0  0  0  0  0  0  0  0  0  0  0
   21.3837   53.9767   22.3957 H   0  0  0  0  0  0  0  0  0  0  0  0
   23.3826   52.8012   21.1568 H   0  0  0  0  0  0  0  0  0  0  0  0
   24.2572   53.3875   22.5873 H   0  0  0  0  0  0  0  0  0  0  0  0
   21.5415   52.4953   23.2015 H   0  0  0  0  0  0  0  0  0  0  0  0
   22.6960   51.2099   22.4206 H   0  0  0  0  0  0  0  0  0  0  0  0
   24.1355   52.0205   24.4411 H   0  0  0  0  0  0  0  0  0  0  0  0
   22.4276   52.1483   25.1160 H   0  0  0  0  0  0  0  0  0  0  0  0
   23.8478   49.6931   24.0408 H   0  0  0  0  0  0  0  0  0  0  0  0
   23.1698   50.0511   25.7244 H   0  0  0  0  0  0  0  0  0  0  0  0
   21.4599   48.8159   25.1562 H   0  0  0  0  0  0  0  0  0  0  0  0
   20.9890   50.2173   24.0942 H   0  0  0  0  0  0  0  0  0  0  0  0
   21.3209   47.6367   23.2904 H   0  0  0  0  0  0  0  0  0  0  0  0
   21.4603   49.2127   22.2678 H   0  0  0  0  0  0  0  0  0  0  0  0
   23.1063   47.9935   21.4611 H   0  0  0  0  0  0  0  0  0  0  0  0
   23.8977   48.9901   22.7431 H   0  0  0  0  0  0  0  0  0  0  0  0
   24.1616   47.2463   24.1526 H   0  0  0  0  0  0  0  0  0  0  0  0
   22.7699   46.3141   23.3038 H   0  0  0  0  0  0  0  0  0  0  0  0
   25.0305   45.3225   23.2490 H   0  0  0  0  0  0  0  0  0  0  0  0
   24.0630   45.5777   21.6945 H   0  0  0  0  0  0  0  0  0  0  0  0
   26.4681   47.0878   22.6361 H   0  0  0  0  0  0  0  0  0  0  0  0
   26.3225   45.9693   21.2381 H   0  0  0  0  0  0  0  0  0  0  0  0
   25.4295   47.5278   21.2381 H   0  0  0  0  0  0  0  0  0  0  0  0
  1  2  1  0
  2  3  1  0
  3  4  1  0
  4  5  1  0
  5  6  1  0
  6  7  1  0
  7  8  1  0
  8  9  1  0
  9 10  1  0
 10 11  1  0
 11 12  1  0
 12 13  1  0
 13 14  1  0
 14 15  1  0
 15 16  1  0
 16 17  1  0
  1 18  1  0
  1 19  1  0
  1 20  1  0
  2 21  1  0
  2 22  1  0
  3 23  1  0
  3 24  1  0
  4 25  1  0
  4 26  1  0
  5 27  1  0
  5 28  1  0
  6 29  1  0
  6 30  1  0
  7 31  1  0
  7 32  1  0
  8 33  1  0
  8 34  1  0
  9 35  1  0
  9 36  1  0
 10 37  1  0
 10 38  1  0
 11 39  1  0
 11 40  1  0
 12 41  1  0
 12 42  1  0
 13 43  1  0
 13 44  1  0
 14 45  1  0
 14 46  1  0
 15 47  1  0
 15 48  1  0
 16 49  1  0
 16 50  1  0
 17 51  1  0
 17 52  1  0
 17 53  1  0
M  END
>  <filename_input>  (10) 
6YRV_PJ8_docked.sdf

>  <pdb_id>  (10) 
6YRV_PJ8

>  <pose_rank>  (10) 
9

>  <num_atoms_heavy>  (10) 
17

>  <num_torsions>  (10) 
14

>  <pose>  (10) 
[22.559894027984736, 52.118970025343, 23.024779273767113, -3.018727050518788, -0.6591024686352506, -1.0026645147433708, 1.1826210319765917, 0.3260553335384326, 0.5470341994712267, -2.717405776637757, 1.5316161649994142, -0.5212510467954798, -1.7514141550346414, 0.9411837151907704, 1.5493380296019033, 0.734677490869049, 3.0434408341105614, -1.6416322617086205, -1.119967592318108, -2.1756886143486085]

>  <energy>  (10) 
-265.2091652137661

>  <inter_energy>  (10) 
-267.8013066496214

>  <intra_energy>  (10) 
2.4230029267829476

>  <rmsd>  (10) 
3.85741

>  <sdf_rank>  (10) 
0

$$$$

     RDKit          3D

 53 52  0  0  0  0  0  0  0  0999 V2000
   25.5592   52.9964   16.0495 C   0  0  0  0  0  0  0  0  0  0  0  0
   25.5338   54.2775   16.8124 C   0  0  0  0  0  0  0  0  0  0  0  0
   24.2275   54.6001   17.5067 C   0  0  0  0  0  0  0  0  0  0  0  0
   24.5400   55.5581   18.6150 C   0  0  0  0  0  0  0  0  0  0  0  0
   24.0866   55.2324   19.9571 C   0  0  0  0  0  0  0  0  0  0  0  0
   22.6675   55.3099   20.2646 C   0  0  0  0  0  0  0  0  0  0  0  0
   22.2282   54.7155   21.4971 C   0  0  0  0  0  0  0  0  0  0  0  0
   23.2550   54.2127   22.4428 C   0  0  0  0  0  0  0  0  0  0  0  0
   22.8479   52.8091   22.8189 C   0  0  0  0  0  0  0  0  0  0  0  0
   21.8686   52.5336   23.9280 C   0  0  0  0  0  0  0  0  0  0  0  0
   22.0710   51.1836   24.6714 C   0  0  0  0  0  0  0  0  0  0  0  0
   23.1226   50.2450   24.0964 C   0  0  0  0  0  0  0  0  0  0  0  0
   22.7718   49.7583   22.6996 C   0  0  0  0  0  0  0  0  0  0  0  0
   22.2428   48.3943   22.4909 C   0  0  0  0  0  0  0  0  0  0  0  0
   20.8972   48.2409   23.1322 C   0  0  0  0  0  0  0  0  0  0  0  0
   20.3876   46.8827   23.4668 C   0  0  0  0  0  0  0  0  0  0  0  0
   20.1607   46.6048   24.8990 C   0  0  0  0  0  0  0  0  0  0  0  0
   25.5760   52.1510   16.7530 H   0  0  0  0  0  0  0  0  0  0  0  0
   24.6623   52.9288   15.4163 H   0  0  0  0  0  0  0  0  0  0  0  0
   26.4582   52.9645   15.4163 H   0  0  0  0  0  0  0  0  0  0  0  0
   26.3217   54.2307   17.5785 H   0  0  0  0  0  0  0  0  0  0  0  0
   25.6834   55.0736   16.0682 H   0  0  0  0  0  0  0  0  0  0  0  0
   23.5268   55.0619   16.7956 H   0  0  0  0  0  0  0  0  0  0  0  0
   23.7588   53.6864   17.9009 H   0  0  0  0  0  0  0  0  0  0  0  0
   25.6343   55.6612   18.6573 H   0  0  0  0  0  0  0  0  0  0  0  0
   23.9795   56.4676   18.3530 H   0  0  0  0  0  0  0  0  0  0  0  0
   24.4039   54.1992   20.1616 H   0  0  0  0  0  0  0  0  0  0  0  0
   24.5333   56.0195   20.5824 H   0  0  0  0  0  0  0  0  0  0  0  0
   22.3933   56.3748   20.2949 H   0  0  0  0  0  0  0  0  0  0  0  0
   22.1743   54.7230   19.4757 H   0  0  0  0  0  0  0  0  0  0  0  0
   21.6373   55.4739   22.0315 H   0  0  0  0  0  0  0  0  0  0  0  0
   21.6842   53.8125   21.1832 H   0  0  0  0  0  0  0  0  0  0  0  0
   24.2434   54.2042   21.9600 H   0  0  0  0  0  0  0  0  0  0  0  0
   23.3231   54.8567   23.3320 H   0  0  0  0  0  0  0  0  0  0  0  0
   22.4199   52.3588   21.9112 H   0  0  0  0  0  0  0  0  0  0  0  0
   23.7827   52.3991   23.2288 H   0  0  0  0  0  0  0  0  0  0  0  0
   21.9542   53.3445   24.6663 H   0  0  0  0  0  0  0  0  0  0  0  0
   20.8786   52.4739   23.4523 H   0  0  0  0  0  0  0  0  0  0  0  0
   22.3578   51.4123   25.7085 H   0  0  0  0  0  0  0  0  0  0  0  0
   21.1153   50.6484   24.5705 H   0  0  0  0  0  0  0  0  0  0  0  0
   24.0840   50.7779   24.0526 H   0  0  0  0  0  0  0  0  0  0  0  0
   23.1764   49.3636   24.7523 H   0  0  0  0  0  0  0  0  0  0  0  0
   22.0162   50.4531   22.3043 H   0  0  0  0  0  0  0  0  0  0  0  0
   23.7498   49.7236   22.1971 H   0  0  0  0  0  0  0  0  0  0  0  0
   22.1514   48.2044   21.4112 H   0  0  0  0  0  0  0  0  0  0  0  0
   22.9359   47.6737   22.9494 H   0  0  0  0  0  0  0  0  0  0  0  0
   20.9257   48.8109   24.0725 H   0  0  0  0  0  0  0  0  0  0  0  0
   20.2025   48.5892   22.3537 H   0  0  0  0  0  0  0  0  0  0  0  0
   19.4303   46.7453   22.9427 H   0  0  0  0  0  0  0  0  0  0  0  0
   21.1798   46.1865   23.1543 H   0  0  0  0  0  0  0  0  0  0  0  0
   20.7406   47.3151   25.5067 H   0  0  0  0  0  0  0  0  0  0  0  0
   19.0905   46.7142   25.1287 H   0  0  0  0  0  0  0  0  0  0  0  0
   20.4819   45.5782   25.1287 H   0  0  0  0  0  0  0  0  0  0  0  0
  1  2  1  0
  2  3  1  0
  3  4  1  0
  4  5  1  0
  5  6  1  0
  6  7  1  0
  7  8  1  0
  8  9  1  0
  9 10  1  0
 10 11  1  0
 11 12  1  0
 12 13  1  0
 13 14  1  0
 14 15  1  0
 15 16  1  0
 16 17  1  0
  1 18  1  0
  1 19  1  0
  1 20  1  0
  2 21  1  0
  2 22  1  0
  3 23  1  0
  3 24  1  0
  4 25  1  0
  4 26  1  0
  5 27  1  0
  5 28  1  0
  6 29  1  0
  6 30  1  0
  7 31  1  0
  7 32  1  0
  8 33  1  0
  8 34  1  0
  9 35  1  0
  9 36  1  0
 10 37  1  0
 10 38  1  0
 11 39  1  0
 11 40  1  0
 12 41  1  0
 12 42  1  0
 13 43  1  0
 13 44  1  0
 14 45  1  0
 14 46  1  0
 15 47  1  0
 15 48  1  0
 16 49  1  0
 16 50  1  0
 17 51  1  0
 17 52  1  0
 17 53  1  0
M  END
>  <filename_input>  (11) 
6YRV_PJ8_docked.sdf

>  <pdb_id>  (11) 
6YRV_PJ8

>  <pose_rank>  (11) 
10

>  <num_atoms_heavy>  (11) 
17

>  <num_torsions>  (11) 
14

>  <pose>  (11) 
[22.847882126951966, 52.809079756767616, 22.81894695666715, -1.4988518857479658, -1.7076706819025314, -2.5737658461129613, -4.668624298247892, 0.50758402600174, 1.1491571416547552, -2.5284138674779117, -0.28760933950830014, 0.6413321353837901, -0.7635632745210001, 0.715169774795752, 2.2546399645810955, 4.018222065684955, 0.9518863069180262, -2.016574274838178, -0.2947327662542721, -0.9513211600103652]

>  <energy>  (11) 
-547.1172639332685

>  <inter_energy>  (11) 
-559.3692558978446

>  <intra_energy>  (11) 
19.005876752829668

>  <rmsd>  (11) 
2.44974

>  <sdf_rank>  (11) 
0

$$$$

     RDKit          3D

 53 52  0  0  0  0  0  0  0  0999 V2000
   32.4372   53.6749   19.5529 C   0  0  0  0  0  0  0  0  0  0  0  0
   31.0190   53.8720   19.9694 C   0  0  0  0  0  0  0  0  0  0  0  0
   29.9821   53.6461   18.8895 C   0  0  0  0  0  0  0  0  0  0  0  0
   28.6382   53.8699   19.5122 C   0  0  0  0  0  0  0  0  0  0  0  0
   27.5111   54.1516   18.6387 C   0  0  0  0  0  0  0  0  0  0  0  0
   26.6497   53.0584   18.2175 C   0  0  0  0  0  0  0  0  0  0  0  0
   25.3261   53.3980   17.7726 C   0  0  0  0  0  0  0  0  0  0  0  0
   25.0386   54.8127   17.4299 C   0  0  0  0  0  0  0  0  0  0  0  0
   23.8920   55.2476   18.3094 C   0  0  0  0  0  0  0  0  0  0  0  0
   24.0838   55.5722   19.7663 C   0  0  0  0  0  0  0  0  0  0  0  0
   22.9088   55.1621   20.6976 C   0  0  0  0  0  0  0  0  0  0  0  0
   23.2857   54.4532   21.9910 C   0  0  0  0  0  0  0  0  0  0  0  0
   22.0862   54.1967   22.8890 C   0  0  0  0  0  0  0  0  0  0  0  0
   21.5964   52.8205   23.1124 C   0  0  0  0  0  0  0  0  0  0  0  0
   22.7208   51.9126   23.5085 C   0  0  0  0  0  0  0  0  0  0  0  0
   22.4220   50.5755   24.0908 C   0  0  0  0  0  0  0  0  0  0  0  0
   23.3608   49.4889   23.7473 C   0  0  0  0  0  0  0  0  0  0  0  0
   33.0729   53.5865   20.4462 H   0  0  0  0  0  0  0  0  0  0  0  0
   32.5189   52.7568   18.9525 H   0  0  0  0  0  0  0  0  0  0  0  0
   32.7661   54.5360   18.9525 H   0  0  0  0  0  0  0  0  0  0  0  0
   30.8079   53.1735   20.7925 H   0  0  0  0  0  0  0  0  0  0  0  0
   30.9331   54.9316   20.2519 H   0  0  0  0  0  0  0  0  0  0  0  0
   30.1375   54.3556   18.0634 H   0  0  0  0  0  0  0  0  0  0  0  0
   30.0587   52.6275   18.4815 H   0  0  0  0  0  0  0  0  0  0  0  0
   28.3889   52.9631   20.0829 H   0  0  0  0  0  0  0  0  0  0  0  0
   28.7621   54.7912   20.1003 H   0  0  0  0  0  0  0  0  0  0  0  0
   26.8737   54.8800   19.1613 H   0  0  0  0  0  0  0  0  0  0  0  0
   27.9825   54.4886   17.7037 H   0  0  0  0  0  0  0  0  0  0  0  0
   27.1543   52.5401   17.3887 H   0  0  0  0  0  0  0  0  0  0  0  0
   26.4973   52.4529   19.1231 H   0  0  0  0  0  0  0  0  0  0  0  0
   25.1208   52.7975   16.8741 H   0  0  0  0  0  0  0  0  0  0  0  0
   24.6872   53.1957   18.6449 H   0  0  0  0  0  0  0  0  0  0  0  0
   25.9232   55.4371   17.6240 H   0  0  0  0  0  0  0  0  0  0  0  0
   24.7826   54.9178   16.3653 H   0  0  0  0  0  0  0  0  0  0  0  0
   23.4734   56.1525   17.8447 H   0  0  0  0  0  0  0  0  0  0  0  0
   23.2768   54.3368   18.3545 H   0  0  0  0  0  0  0  0  0  0  0  0
   24.9898   55.0540   20.1137 H   0  0  0  0  0  0  0  0  0  0  0  0
   24.1527   56.6683   19.8276 H   0  0  0  0  0  0  0  0  0  0  0  0
   22.3590   56.0765   20.9652 H   0  0  0  0  0  0  0  0  0  0  0  0
   22.3226   54.4297   20.1231 H   0  0  0  0  0  0  0  0  0  0  0  0
   23.7511   53.4883   21.7409 H   0  0  0  0  0  0  0  0  0  0  0  0
   23.9785   55.1081   22.5398 H   0  0  0  0  0  0  0  0  0  0  0  0
   22.3403   54.6051   23.8783 H   0  0  0  0  0  0  0  0  0  0  0  0
   21.2591   54.6668   22.3368 H   0  0  0  0  0  0  0  0  0  0  0  0
   20.8427   52.8317   23.9136 H   0  0  0  0  0  0  0  0  0  0  0  0
   21.1552   52.4473   22.1764 H   0  0  0  0  0  0  0  0  0  0  0  0
   23.3233   51.7389   22.6047 H   0  0  0  0  0  0  0  0  0  0  0  0
   23.2025   52.4503   24.3384 H   0  0  0  0  0  0  0  0  0  0  0  0
   22.4166   50.6802   25.1858 H   0  0  0  0  0  0  0  0  0  0  0  0
   21.4556   50.2762   23.6590 H   0  0  0  0  0  0  0  0  0  0  0  0
   23.7517   49.0365   24.6706 H   0  0  0  0  0  0  0  0  0  0  0  0
   22.8354   48.7232   23.1576 H   0  0  0  0  0  0  0  0  0  0  0  0
   24.1947   49.8976   23.1576 H   0  0  0  0  0  0  0  0  0  0  0  0
  1  2  1  0
  2  3  1  0
  3  4  1  0
  4  5  1  0
  5  6  1  0
  6  7  1  0
  7  8  1  0
  8  9  1  0
  9 10  1  0
 10 11  1  0
 11 12  1  0
 12 13  1  0
 13 14  1  0
 14 15  1  0
 15 16  1  0
 16 17  1  0
  1 18  1  0
  1 19  1  0
  1 20  1  0
  2 21  1  0
  2 22  1  0
  3 23  1  0
  3 24  1  0
  4 25  1  0
  4 26  1  0
  5 27  1  0
  5 28  1  0
  6 29  1  0
  6 30  1  0
  7 31  1  0
  7 32  1  0
  8 33  1  0
  8 34  1  0
  9 35  1  0
  9 36  1  0
 10 37  1  0
 10 38  1  0
 11 39  1  0
 11 40  1  0
 12 41  1  0
 12 42  1  0
 13 43  1  0
 13 44  1  0
 14 45  1  0
 14 46  1  0
 15 47  1  0
 15 48  1  0
 16 49  1  0
 16 50  1  0
 17 51  1  0
 17 52  1  0
 17 53  1  0
M  END
>  <filename_input>  (12) 
6YRV_PJ8_docked.sdf

>  <pdb_id>  (12) 
6YRV_PJ8

>  <pose_rank>  (12) 
11

>  <num_atoms_heavy>  (12) 
17

>  <num_torsions>  (12) 
14

>  <pose>  (12) 
[23.89198977646113, 55.24760359858626, 18.309392675877795, 2.0159743431829527, -0.20310018614351877, 0.6327480513896394, -8.139449925654668, 6.928449389372443, -4.983456441871246, 3.606754972719791, -9.948775635100976, -0.6339006472524614, 5.893930661156389, 0.8219291427239844, -1.5742255969722287, -4.374635102699192, -1.596017882020501, -2.2819216200892685, -0.917020361477539, -0.4522252458523455]

>  <energy>  (12) 
-461.34988340577024

>  <inter_energy>  (12) 
-465.4389199709205

>  <intra_energy>  (12) 
0.0005377891845863774

>  <rmsd>  (12) 
4.20025

>  <sdf_rank>  (12) 
0

$$$$

     RDKit          3D

 53 52  0  0  0  0  0  0  0  0999 V2000
   26.1773   47.7898   29.1786 C   0  0  0  0  0  0  0  0  0  0  0  0
   26.6056   49.0400   28.4878 C   0  0  0  0  0  0  0  0  0  0  0  0
   26.6701   48.9639   26.9770 C   0  0  0  0  0  0  0  0  0  0  0  0
   25.3192   49.3480   26.4561 C   0  0  0  0  0  0  0  0  0  0  0  0
   25.2483   50.2768   25.3404 C   0  0  0  0  0  0  0  0  0  0  0  0
   25.4037   51.7007   25.5919 C   0  0  0  0  0  0  0  0  0  0  0  0
   24.8155   52.6043   24.6418 C   0  0  0  0  0  0  0  0  0  0  0  0
   23.3542   52.5195   24.3991 C   0  0  0  0  0  0  0  0  0  0  0  0
   23.1730   51.7740   23.0996 C   0  0  0  0  0  0  0  0  0  0  0  0
   23.4240   52.4246   21.7660 C   0  0  0  0  0  0  0  0  0  0  0  0
   22.1491   52.8505   20.9852 C   0  0  0  0  0  0  0  0  0  0  0  0
   22.3330   53.1605   19.5062 C   0  0  0  0  0  0  0  0  0  0  0  0
   22.7968   54.5873   19.2604 C   0  0  0  0  0  0  0  0  0  0  0  0
   23.6204   54.9157   18.0782 C   0  0  0  0  0  0  0  0  0  0  0  0
   23.3239   53.9801   16.9458 C   0  0  0  0  0  0  0  0  0  0  0  0
   24.3249   53.7918   15.8602 C   0  0  0  0  0  0  0  0  0  0  0  0
   25.7354   53.6865   16.2834 C   0  0  0  0  0  0  0  0  0  0  0  0
   26.2277   47.9369   30.2676 H   0  0  0  0  0  0  0  0  0  0  0  0
   25.1445   47.5461   28.8890 H   0  0  0  0  0  0  0  0  0  0  0  0
   26.8438   46.9640   28.8890 H   0  0  0  0  0  0  0  0  0  0  0  0
   25.8949   49.8354   28.7565 H   0  0  0  0  0  0  0  0  0  0  0  0
   27.6354   49.2314   28.8236 H   0  0  0  0  0  0  0  0  0  0  0  0
   27.4325   49.6598   26.5969 H   0  0  0  0  0  0  0  0  0  0  0  0
   26.9416   47.9499   26.6483 H   0  0  0  0  0  0  0  0  0  0  0  0
   24.8165   48.4217   26.1410 H   0  0  0  0  0  0  0  0  0  0  0  0
   24.8513   49.8908   27.2907 H   0  0  0  0  0  0  0  0  0  0  0  0
   26.0375   49.9877   24.6308 H   0  0  0  0  0  0  0  0  0  0  0  0
   24.2100   50.1850   24.9890 H   0  0  0  0  0  0  0  0  0  0  0  0
   24.9547   51.9141   26.5731 H   0  0  0  0  0  0  0  0  0  0  0  0
   26.4862   51.8836   25.5239 H   0  0  0  0  0  0  0  0  0  0  0  0
   25.0287   53.6259   24.9894 H   0  0  0  0  0  0  0  0  0  0  0  0
   25.2665   52.3174   23.6804 H   0  0  0  0  0  0  0  0  0  0  0  0
   22.8646   51.9750   25.2200 H   0  0  0  0  0  0  0  0  0  0  0  0
   22.9030   53.5213   24.3468 H   0  0  0  0  0  0  0  0  0  0  0  0
   23.8428   50.9028   23.1482 H   0  0  0  0  0  0  0  0  0  0  0  0
   22.0854   51.6109   23.0763 H   0  0  0  0  0  0  0  0  0  0  0  0
   24.0349   53.3234   21.9358 H   0  0  0  0  0  0  0  0  0  0  0  0
   23.9216   51.6648   21.1453 H   0  0  0  0  0  0  0  0  0  0  0  0
   21.4176   52.0331   21.0674 H   0  0  0  0  0  0  0  0  0  0  0  0
   21.8280   53.7971   21.4444 H   0  0  0  0  0  0  0  0  0  0  0  0
   23.0829   52.4703   19.0923 H   0  0  0  0  0  0  0  0  0  0  0  0
   21.3555   53.0393   19.0167 H   0  0  0  0  0  0  0  0  0  0  0  0
   21.8899   55.2064   19.1944 H   0  0  0  0  0  0  0  0  0  0  0  0
   23.4840   54.7718   20.0993 H   0  0  0  0  0  0  0  0  0  0  0  0
   23.4015   55.9460   17.7613 H   0  0  0  0  0  0  0  0  0  0  0  0
   24.6817   54.8154   18.3494 H   0  0  0  0  0  0  0  0  0  0  0  0
   23.1451   52.9896   17.3896 H   0  0  0  0  0  0  0  0  0  0  0  0
   22.4783   54.4611   16.4324 H   0  0  0  0  0  0  0  0  0  0  0  0
   24.0664   52.8678   15.3222 H   0  0  0  0  0  0  0  0  0  0  0  0
   24.2692   54.7039   15.2478 H   0  0  0  0  0  0  0  0  0  0  0  0
   25.7892   53.6825   17.3821 H   0  0  0  0  0  0  0  0  0  0  0  0
   26.1672   52.7537   15.8918 H   0  0  0  0  0  0  0  0  0  0  0  0
   26.3008   54.5450   15.8918 H   0  0  0  0  0  0  0  0  0  0  0  0
  1  2  1  0
  2  3  1  0
  3  4  1  0
  4  5  1  0
  5  6  1  0
  6  7  1  0
  7  8  1  0
  8  9  1  0
  9 10  1  0
 10 11  1  0
 11 12  1  0
 12 13  1  0
 13 14  1  0
 14 15  1  0
 15 16  1  0
 16 17  1  0
  1 18  1  0
  1 19  1  0
  1 20  1  0
  2 21  1  0
  2 22  1  0
  3 23  1  0
  3 24  1  0
  4 25  1  0
  4 26  1  0
  5 27  1  0
  5 28  1  0
  6 29  1  0
  6 30  1  0
  7 31  1  0
  7 32  1  0
  8 33  1  0
  8 34  1  0
  9 35  1  0
  9 36  1  0
 10 37  1  0
 10 38  1  0
 11 39  1  0
 11 40  1  0
 12 41  1  0
 12 42  1  0
 13 43  1  0
 13 44  1  0
 14 45  1  0
 14 46  1  0
 15 47  1  0
 15 48  1  0
 16 49  1  0
 16 50  1  0
 17 51  1  0
 17 52  1  0
 17 53  1  0
M  END
>  <filename_input>  (13) 
6YRV_PJ8_docked.sdf

>  <pdb_id>  (13) 
6YRV_PJ8

>  <pose_rank>  (13) 
12

>  <num_atoms_heavy>  (13) 
17

>  <num_torsions>  (13) 
14

>  <pose>  (13) 
[23.172967294813326, 51.773964217695664, 23.09956568423781, -0.8183579038012152, -0.2731298505194731, 1.1323880175168706, 1.7713103038683395, 1.005229465480312, 2.046984219962061, -1.87512155370338, -0.4322021421431409, -1.0766381861909577, 4.326757716489453, 1.5433605293391461, -0.497382062457056, -2.6185398821395185, -0.9000206779044349, -2.6550416265333285, -0.2854203331930084, -2.264468060504562]

>  <energy>  (13) 
9.588437448320304

>  <inter_energy>  (13) 
-2.5198614234196874

>  <intra_energy>  (13) 
4.7662168069702435

>  <rmsd>  (13) 
4.13929

>  <sdf_rank>  (13) 
0

$$$$

     RDKit          3D

 53 52  0  0  0  0  0  0  0  0999 V2000
   24.0436   55.4422   17.4055 C   0  0  0  0  0  0  0  0  0  0  0  0
   23.5278   55.9102   18.7241 C   0  0  0  0  0  0  0  0  0  0  0  0
   22.7296   54.8938   19.5130 C   0  0  0  0  0  0  0  0  0  0  0  0
   22.7011   55.3609   20.9359 C   0  0  0  0  0  0  0  0  0  0  0  0
   23.0307   54.4073   21.9821 C   0  0  0  0  0  0  0  0  0  0  0  0
   22.0281   54.0769   22.9822 C   0  0  0  0  0  0  0  0  0  0  0  0
   22.1506   52.8057   23.6412 C   0  0  0  0  0  0  0  0  0  0  0  0
   23.4256   52.0596   23.5029 C   0  0  0  0  0  0  0  0  0  0  0  0
   23.0660   50.6681   23.0424 C   0  0  0  0  0  0  0  0  0  0  0  0
   21.9621   49.8753   23.6885 C   0  0  0  0  0  0  0  0  0  0  0  0
   22.2639   48.3646   23.8956 C   0  0  0  0  0  0  0  0  0  0  0  0
   21.1415   47.3963   23.5490 C   0  0  0  0  0  0  0  0  0  0  0  0
   20.3691   46.9329   24.7737 C   0  0  0  0  0  0  0  0  0  0  0  0
   21.0599   46.2305   25.8752 C   0  0  0  0  0  0  0  0  0  0  0  0
   20.4563   46.5912   27.1984 C   0  0  0  0  0  0  0  0  0  0  0  0
   21.1256   46.1647   28.4579 C   0  0  0  0  0  0  0  0  0  0  0  0
   20.3074   46.2259   29.6854 C   0  0  0  0  0  0  0  0  0  0  0  0
   24.8495   54.7109   17.5656 H   0  0  0  0  0  0  0  0  0  0  0  0
   23.2273   54.9701   16.8391 H   0  0  0  0  0  0  0  0  0  0  0  0
   24.4343   56.3004   16.8391 H   0  0  0  0  0  0  0  0  0  0  0  0
   24.3900   56.2126   19.3367 H   0  0  0  0  0  0  0  0  0  0  0  0
   22.8311   56.7315   18.5002 H   0  0  0  0  0  0  0  0  0  0  0  0
   21.7054   54.8292   19.1169 H   0  0  0  0  0  0  0  0  0  0  0  0
   23.1863   53.8958   19.4387 H   0  0  0  0  0  0  0  0  0  0  0  0
   23.4138   56.1946   21.0192 H   0  0  0  0  0  0  0  0  0  0  0  0
   21.6451   55.6091   21.1185 H   0  0  0  0  0  0  0  0  0  0  0  0
   23.3097   53.4672   21.4838 H   0  0  0  0  0  0  0  0  0  0  0  0
   23.8187   54.9136   22.5589 H   0  0  0  0  0  0  0  0  0  0  0  0
   22.0649   54.8563   23.7576 H   0  0  0  0  0  0  0  0  0  0  0  0
   21.0815   54.0169   22.4251 H   0  0  0  0  0  0  0  0  0  0  0  0
   21.9902   52.9794   24.7155 H   0  0  0  0  0  0  0  0  0  0  0  0
   21.4081   52.1680   23.1392 H   0  0  0  0  0  0  0  0  0  0  0  0
   24.0727   52.5493   22.7603 H   0  0  0  0  0  0  0  0  0  0  0  0
   23.9731   52.0316   24.4566 H   0  0  0  0  0  0  0  0  0  0  0  0
   22.8010   50.7547   21.9783 H   0  0  0  0  0  0  0  0  0  0  0  0
   23.9599   50.0928   23.3252 H   0  0  0  0  0  0  0  0  0  0  0  0
   21.7565   50.3191   24.6738 H   0  0  0  0  0  0  0  0  0  0  0  0
   21.1078   49.9233   22.9971 H   0  0  0  0  0  0  0  0  0  0  0  0
   23.1321   48.1081   23.2707 H   0  0  0  0  0  0  0  0  0  0  0  0
   22.4294   48.2452   24.9765 H   0  0  0  0  0  0  0  0  0  0  0  0
   20.4440   47.8972   22.8615 H   0  0  0  0  0  0  0  0  0  0  0  0
   21.5986   46.5082   23.0880 H   0  0  0  0  0  0  0  0  0  0  0  0
   19.9070   47.8294   25.2125 H   0  0  0  0  0  0  0  0  0  0  0  0
   19.7021   46.1586   24.3667 H   0  0  0  0  0  0  0  0  0  0  0  0
   20.9709   45.1448   25.7223 H   0  0  0  0  0  0  0  0  0  0  0  0
   22.1178   46.5319   25.8766 H   0  0  0  0  0  0  0  0  0  0  0  0
   20.3892   47.6887   27.2293 H   0  0  0  0  0  0  0  0  0  0  0  0
   19.5108   46.0291   27.2091 H   0  0  0  0  0  0  0  0  0  0  0  0
   21.4556   45.1236   28.3264 H   0  0  0  0  0  0  0  0  0  0  0  0
   21.9435   46.8835   28.6139 H   0  0  0  0  0  0  0  0  0  0  0  0
   20.9640   46.1768   30.5665 H   0  0  0  0  0  0  0  0  0  0  0  0
   19.7412   47.1688   29.7021 H   0  0  0  0  0  0  0  0  0  0  0  0
   19.6073   45.3775   29.7021 H   0  0  0  0  0  0  0  0  0  0  0  0
  1  2  1  0
  2  3  1  0
  3  4  1  0
  4  5  1  0
  5  6  1  0
  6  7  1  0
  7  8  1  0
  8  9  1  0
  9 10  1  0
 10 11  1  0
 11 12  1  0
 12 13  1  0
 13 14  1  0
 14 15  1  0
 15 16  1  0
 16 17  1  0
  1 18  1  0
  1 19  1  0
  1 20  1  0
  2 21  1  0
  2 22  1  0
  3 23  1  0
  3 24  1  0
  4 25  1  0
  4 26  1  0
  5 27  1  0
  5 28  1  0
  6 29  1  0
  6 30  1  0
  7 31  1  0
  7 32  1  0
  8 33  1  0
  8 34  1  0
  9 35  1  0
  9 36  1  0
 10 37  1  0
 10 38  1  0
 11 39  1  0
 11 40  1  0
 12 41  1  0
 12 42  1  0
 13 43  1  0
 13 44  1  0
 14 45  1  0
 14 46  1  0
 15 47  1  0
 15 48  1  0
 16 49  1  0
 16 50  1  0
 17 51  1  0
 17 52  1  0
 17 53  1  0
M  END
>  <filename_input>  (14) 
6YRV_PJ8_docked.sdf

>  <pdb_id>  (14) 
6YRV_PJ8

>  <pose_rank>  (14) 
13

>  <num_atoms_heavy>  (14) 
17

>  <num_torsions>  (14) 
14

>  <pose>  (14) 
[23.06603988180846, 50.66813797911253, 23.042407496545167, -1.2666721521402697, -0.8774604697957366, -2.8562162075783584, -3.999328527203116, 0.5467334351424351, 1.2635453264226342, -2.7302710093920832, -1.1050871620717104, 0.5629122115613117, -0.6969794580302158, 0.9027057051614799, -0.015668556202145197, 3.4015919428705477, 1.7179371663382828, -0.6235935696421961, -0.5014686262947277, 0.43125144572095386]

>  <energy>  (14) 
-450.01793643704417

>  <inter_energy>  (14) 
-450.3272250839917

>  <intra_energy>  (14) 
0.0

>  <rmsd>  (14) 
5.25235

>  <sdf_rank>  (14) 
0

$$$$

     RDKit          3D

 53 52  0  0  0  0  0  0  0  0999 V2000
   22.8073   51.1784   24.3508 C   0  0  0  0  0  0  0  0  0  0  0  0
   23.6561   50.1066   23.7554 C   0  0  0  0  0  0  0  0  0  0  0  0
   22.9217   48.8562   23.3198 C   0  0  0  0  0  0  0  0  0  0  0  0
   23.9264   47.9574   22.6668 C   0  0  0  0  0  0  0  0  0  0  0  0
   23.6847   47.5312   21.2984 C   0  0  0  0  0  0  0  0  0  0  0  0
   24.6236   46.6205   20.6628 C   0  0  0  0  0  0  0  0  0  0  0  0
   25.5590   47.1859   19.7299 C   0  0  0  0  0  0  0  0  0  0  0  0
   25.1713   47.2598   18.2996 C   0  0  0  0  0  0  0  0  0  0  0  0
   25.5257   48.6479   17.8253 C   0  0  0  0  0  0  0  0  0  0  0  0
   25.5848   48.9997   16.3633 C   0  0  0  0  0  0  0  0  0  0  0  0
   26.3227   50.3264   16.0295 C   0  0  0  0  0  0  0  0  0  0  0  0
   25.4440   51.5339   15.7341 C   0  0  0  0  0  0  0  0  0  0  0  0
   25.4771   52.5684   16.8476 C   0  0  0  0  0  0  0  0  0  0  0  0
   24.5968   53.7543   16.7968 C   0  0  0  0  0  0  0  0  0  0  0  0
   24.7861   54.6108   18.0117 C   0  0  0  0  0  0  0  0  0  0  0  0
   23.7493   55.6141   18.3785 C   0  0  0  0  0  0  0  0  0  0  0  0
   23.0177   55.3670   19.6370 C   0  0  0  0  0  0  0  0  0  0  0  0
   22.8557   51.1174   25.4480 H   0  0  0  0  0  0  0  0  0  0  0  0
   23.1742   52.1618   24.0218 H   0  0  0  0  0  0  0  0  0  0  0  0
   21.7660   51.0467   24.0218 H   0  0  0  0  0  0  0  0  0  0  0  0
   24.1620   50.5264   22.8735 H   0  0  0  0  0  0  0  0  0  0  0  0
   24.3432   49.7890   24.5536 H   0  0  0  0  0  0  0  0  0  0  0  0
   22.4794   48.3552   24.1935 H   0  0  0  0  0  0  0  0  0  0  0  0
   22.1081   49.1043   22.6223 H   0  0  0  0  0  0  0  0  0  0  0  0
   24.8912   48.4856   22.6775 H   0  0  0  0  0  0  0  0  0  0  0  0
   23.8791   47.0275   23.2525 H   0  0  0  0  0  0  0  0  0  0  0  0
   22.7006   47.0401   21.2837 H   0  0  0  0  0  0  0  0  0  0  0  0
   23.7832   48.4582   20.7143 H   0  0  0  0  0  0  0  0  0  0  0  0
   25.2047   46.1348   21.4605 H   0  0  0  0  0  0  0  0  0  0  0  0
   23.9986   45.9435   20.0620 H   0  0  0  0  0  0  0  0  0  0  0  0
   25.7705   48.2127   20.0630 H   0  0  0  0  0  0  0  0  0  0  0  0
   26.4099   46.4889   19.7439 H   0  0  0  0  0  0  0  0  0  0  0  0
   25.7241   46.5077   17.7176 H   0  0  0  0  0  0  0  0  0  0  0  0
   24.0975   47.0595   18.1699 H   0  0  0  0  0  0  0  0  0  0  0  0
   24.7854   49.3256   18.2755 H   0  0  0  0  0  0  0  0  0  0  0  0
   26.5803   48.7329   18.1264 H   0  0  0  0  0  0  0  0  0  0  0  0
   26.1002   48.1824   15.8375 H   0  0  0  0  0  0  0  0  0  0  0  0
   24.5424   49.1417   16.0419 H   0  0  0  0  0  0  0  0  0  0  0  0
   26.9614   50.5794   16.8886 H   0  0  0  0  0  0  0  0  0  0  0  0
   26.8711   50.1290   15.0966 H   0  0  0  0  0  0  0  0  0  0  0  0
   25.7949   52.0058   14.8045 H   0  0  0  0  0  0  0  0  0  0  0  0
   24.4076   51.1769   15.6422 H   0  0  0  0  0  0  0  0  0  0  0  0
   25.2351   52.0362   17.7794 H   0  0  0  0  0  0  0  0  0  0  0  0
   26.4830   53.0031   16.7513 H   0  0  0  0  0  0  0  0  0  0  0  0
   24.8370   54.3434   15.8994 H   0  0  0  0  0  0  0  0  0  0  0  0
   23.5508   53.4154   16.7641 H   0  0  0  0  0  0  0  0  0  0  0  0
   24.8873   53.9293   18.8692 H   0  0  0  0  0  0  0  0  0  0  0  0
   25.6591   55.2287   17.7546 H   0  0  0  0  0  0  0  0  0  0  0  0
   24.2450   56.5922   18.4653 H   0  0  0  0  0  0  0  0  0  0  0  0
   22.9920   55.5584   17.5827 H   0  0  0  0  0  0  0  0  0  0  0  0
   23.6735   55.5885   20.4919 H   0  0  0  0  0  0  0  0  0  0  0  0
   22.1299   56.0152   19.6783 H   0  0  0  0  0  0  0  0  0  0  0  0
   22.7047   54.3133   19.6783 H   0  0  0  0  0  0  0  0  0  0  0  0
  1  2  1  0
  2  3  1  0
  3  4  1  0
  4  5  1  0
  5  6  1  0
  6  7  1  0
  7  8  1  0
  8  9  1  0
  9 10  1  0
 10 11  1  0
 11 12  1  0
 12 13  1  0
 13 14  1  0
 14 15  1  0
 15 16  1  0
 16 17  1  0
  1 18  1  0
  1 19  1  0
  1 20  1  0
  2 21  1  0
  2 22  1  0
  3 23  1  0
  3 24  1  0
  4 25  1  0
  4 26  1  0
  5 27  1  0
  5 28  1  0
  6 29  1  0
  6 30  1  0
  7 31  1  0
  7 32  1  0
  8 33  1  0
  8 34  1  0
  9 35  1  0
  9 36  1  0
 10 37  1  0
 10 38  1  0
 11 39  1  0
 11 40  1  0
 12 41  1  0
 12 42  1  0
 13 43  1  0
 13 44  1  0
 14 45  1  0
 14 46  1  0
 15 47  1  0
 15 48  1  0
 16 49  1  0
 16 50  1  0
 17 51  1  0
 17 52  1  0
 17 53  1  0
M  END
>  <filename_input>  (15) 
6YRV_PJ8_docked.sdf

>  <pdb_id>  (15) 
6YRV_PJ8

>  <pose_rank>  (15) 
14

>  <num_atoms_heavy>  (15) 
17

>  <num_torsions>  (15) 
14

>  <pose>  (15) 
[25.525712731830954, 48.64792363929349, 17.825344306124848, 0.3085450364162046, 1.2921779557915412, -1.3834972977491584, 5.982247594559498, 5.114138422966088, -6.835608210783775, -0.9460928297965632, -2.144461070093743, 6.998479096197385, -0.4427947403821358, -5.811478431485444, -5.686413906845724, 0.7457421135704821, -0.29698478563477854, -0.03893226375218482, -0.3473532763680182, -1.007644708361893]

>  <energy>  (15) 
-391.35584328621184

>  <inter_energy>  (15) 
-389.61607112369563

>  <intra_energy>  (15) 
0.0

>  <rmsd>  (15) 
5.63815

>  <sdf_rank>  (15) 
0

$$$$

     RDKit          3D

 53 52  0  0  0  0  0  0  0  0999 V2000
   19.7516   56.4131   24.1898 C   0  0  0  0  0  0  0  0  0  0  0  0
   20.4244   55.3697   25.0159 C   0  0  0  0  0  0  0  0  0  0  0  0
   19.7625   54.0080   25.0169 C   0  0  0  0  0  0  0  0  0  0  0  0
   20.7748   53.0239   25.5174 C   0  0  0  0  0  0  0  0  0  0  0  0
   21.9775   52.8100   24.7299 C   0  0  0  0  0  0  0  0  0  0  0  0
   23.1428   52.2131   25.3626 C   0  0  0  0  0  0  0  0  0  0  0  0
   23.7612   51.1043   24.6892 C   0  0  0  0  0  0  0  0  0  0  0  0
   24.5687   51.3781   23.4750 C   0  0  0  0  0  0  0  0  0  0  0  0
   23.9424   52.5726   22.7978 C   0  0  0  0  0  0  0  0  0  0  0  0
   24.7464   53.7878   22.4218 C   0  0  0  0  0  0  0  0  0  0  0  0
   24.7789   54.1179   20.9032 C   0  0  0  0  0  0  0  0  0  0  0  0
   23.5703   54.8561   20.3448 C   0  0  0  0  0  0  0  0  0  0  0  0
   22.3927   53.9326   20.0770 C   0  0  0  0  0  0  0  0  0  0  0  0
   22.1750   53.3652   18.7300 C   0  0  0  0  0  0  0  0  0  0  0  0
   21.7942   54.4377   17.7553 C   0  0  0  0  0  0  0  0  0  0  0  0
   21.0093   55.6145   18.2192 C   0  0  0  0  0  0  0  0  0  0  0  0
   19.5456   55.4352   18.2933 C   0  0  0  0  0  0  0  0  0  0  0  0
   19.2749   57.1525   24.8500 H   0  0  0  0  0  0  0  0  0  0  0  0
   20.4968   56.9149   23.5549 H   0  0  0  0  0  0  0  0  0  0  0  0
   18.9871   55.9415   23.5549 H   0  0  0  0  0  0  0  0  0  0  0  0
   21.4498   55.2473   24.6370 H   0  0  0  0  0  0  0  0  0  0  0  0
   20.3737   55.7295   26.0542 H   0  0  0  0  0  0  0  0  0  0  0  0
   18.8848   54.0161   25.6799 H   0  0  0  0  0  0  0  0  0  0  0  0
   19.4224   53.7384   24.0061 H   0  0  0  0  0  0  0  0  0  0  0  0
   21.0943   53.3638   26.5136 H   0  0  0  0  0  0  0  0  0  0  0  0
   20.2525   52.0564   25.4825 H   0  0  0  0  0  0  0  0  0  0  0  0
   21.6992   52.1581   23.8887 H   0  0  0  0  0  0  0  0  0  0  0  0
   22.3095   53.8279   24.4774 H   0  0  0  0  0  0  0  0  0  0  0  0
   23.9025   53.0017   25.4676 H   0  0  0  0  0  0  0  0  0  0  0  0
   22.7686   51.7963   26.3093 H   0  0  0  0  0  0  0  0  0  0  0  0
   24.4233   50.6107   25.4157 H   0  0  0  0  0  0  0  0  0  0  0  0
   22.9151   50.5049   24.3220 H   0  0  0  0  0  0  0  0  0  0  0  0
   25.6087   51.6028   23.7541 H   0  0  0  0  0  0  0  0  0  0  0  0
   24.5836   50.5060   22.8047 H   0  0  0  0  0  0  0  0  0  0  0  0
   23.4951   52.1984   21.8651 H   0  0  0  0  0  0  0  0  0  0  0  0
   23.2835   52.9660   23.5859 H   0  0  0  0  0  0  0  0  0  0  0  0
   24.3201   54.6540   22.9490 H   0  0  0  0  0  0  0  0  0  0  0  0
   25.7852   53.5661   22.7076 H   0  0  0  0  0  0  0  0  0  0  0  0
   25.6669   54.7392   20.7147 H   0  0  0  0  0  0  0  0  0  0  0  0
   24.7877   53.1436   20.3925 H   0  0  0  0  0  0  0  0  0  0  0  0
   23.2592   55.6220   21.0705 H   0  0  0  0  0  0  0  0  0  0  0  0
   23.8676   55.3032   19.3848 H   0  0  0  0  0  0  0  0  0  0  0  0
   22.4979   53.0805   20.7646 H   0  0  0  0  0  0  0  0  0  0  0  0
   21.5243   54.5947   20.2095 H   0  0  0  0  0  0  0  0  0  0  0  0
   23.1017   52.8805   18.3890 H   0  0  0  0  0  0  0  0  0  0  0  0
   21.3567   52.6321   18.7846 H   0  0  0  0  0  0  0  0  0  0  0  0
   22.7303   54.8274   17.3287 H   0  0  0  0  0  0  0  0  0  0  0  0
   21.1040   53.9253   17.0691 H   0  0  0  0  0  0  0  0  0  0  0  0
   21.3660   55.8800   19.2253 H   0  0  0  0  0  0  0  0  0  0  0  0
   21.1717   56.3938   17.4600 H   0  0  0  0  0  0  0  0  0  0  0  0
   19.2338   55.3970   19.3475 H   0  0  0  0  0  0  0  0  0  0  0  0
   19.0471   56.2790   17.7938 H   0  0  0  0  0  0  0  0  0  0  0  0
   19.2655   54.4960   17.7938 H   0  0  0  0  0  0  0  0  0  0  0  0
  1  2  1  0
  2  3  1  0
  3  4  1  0
  4  5  1  0
  5  6  1  0
  6  7  1  0
  7  8  1  0
  8  9  1  0
  9 10  1  0
 10 11  1  0
 11 12  1  0
 12 13  1  0
 13 14  1  0
 14 15  1  0
 15 16  1  0
 16 17  1  0
  1 18  1  0
  1 19  1  0
  1 20  1  0
  2 21  1  0
  2 22  1  0
  3 23  1  0
  3 24  1  0
  4 25  1  0
  4 26  1  0
  5 27  1  0
  5 28  1  0
  6 29  1  0
  6 30  1  0
  7 31  1  0
  7 32  1  0
  8 33  1  0
  8 34  1  0
  9 35  1  0
  9 36  1  0
 10 37  1  0
 10 38  1  0
 11 39  1  0
 11 40  1  0
 12 41  1  0
 12 42  1  0
 13 43  1  0
 13 44  1  0
 14 45  1  0
 14 46  1  0
 15 47  1  0
 15 48  1  0
 16 49  1  0
 16 50  1  0
 17 51  1  0
 17 52  1  0
 17 53  1  0
M  END
>  <filename_input>  (16) 
6YRV_PJ8_docked.sdf

>  <pdb_id>  (16) 
6YRV_PJ8

>  <pose_rank>  (16) 
15

>  <num_atoms_heavy>  (16) 
17

>  <num_torsions>  (16) 
14

>  <pose>  (16) 
[23.942377111261777, 52.572561043615764, 22.797820342171164, -5.597836245634264, -0.3464884208628499, -1.7192588442884775, -7.246713965545551, 8.507297315020056, 2.3181562100709225, 9.392518310181602, 10.046953295251173, 1.740627352981932, -0.6772739435436531, 5.413860124497288, -2.506265629455799, -8.826851730943003, -5.191082297523873, 8.222805016262544, 1.915620946515719, 1.8328244527089084]

>  <energy>  (16) 
-63.39067261611294

>  <inter_energy>  (16) 
-101.40999284192156

>  <intra_energy>  (16) 
41.88940103087184

>  <rmsd>  (16) 
4.85381

>  <sdf_rank>  (16) 
0

$$$$

     RDKit          3D

 53 52  0  0  0  0  0  0  0  0999 V2000
   24.6534   49.6630   16.9021 C   0  0  0  0  0  0  0  0  0  0  0  0
   24.6394   49.9007   15.4300 C   0  0  0  0  0  0  0  0  0  0  0  0
   25.5281   51.0243   14.9398 C   0  0  0  0  0  0  0  0  0  0  0  0
   26.4599   51.3727   16.0598 C   0  0  0  0  0  0  0  0  0  0  0  0
   26.8505   52.7629   16.2254 C   0  0  0  0  0  0  0  0  0  0  0  0
   25.8226   53.7662   16.4524 C   0  0  0  0  0  0  0  0  0  0  0  0
   24.9582   53.5775   17.5848 C   0  0  0  0  0  0  0  0  0  0  0  0
   25.3605   54.1679   18.8852 C   0  0  0  0  0  0  0  0  0  0  0  0
   24.2971   55.1738   19.2524 C   0  0  0  0  0  0  0  0  0  0  0  0
   24.2340   55.8044   20.6173 C   0  0  0  0  0  0  0  0  0  0  0  0
   24.0409   54.8123   21.7982 C   0  0  0  0  0  0  0  0  0  0  0  0
   22.8098   53.9188   21.7372 C   0  0  0  0  0  0  0  0  0  0  0  0
   22.0823   53.8329   23.0693 C   0  0  0  0  0  0  0  0  0  0  0  0
   21.5019   52.5530   23.5264 C   0  0  0  0  0  0  0  0  0  0  0  0
   22.0703   52.1543   24.8543 C   0  0  0  0  0  0  0  0  0  0  0  0
   21.3101   51.2266   25.7361 C   0  0  0  0  0  0  0  0  0  0  0  0
   21.7656   49.8223   25.7540 C   0  0  0  0  0  0  0  0  0  0  0  0
   24.5967   50.6265   17.4297 H   0  0  0  0  0  0  0  0  0  0  0  0
   23.7904   49.0407   17.1813 H   0  0  0  0  0  0  0  0  0  0  0  0
   25.5836   49.1463   17.1813 H   0  0  0  0  0  0  0  0  0  0  0  0
   24.9623   48.9732   14.9345 H   0  0  0  0  0  0  0  0  0  0  0  0
   23.6105   50.2019   15.1838 H   0  0  0  0  0  0  0  0  0  0  0  0
   26.1017   50.6950   14.0609 H   0  0  0  0  0  0  0  0  0  0  0  0
   24.9272   51.8975   14.6458 H   0  0  0  0  0  0  0  0  0  0  0  0
   25.9761   51.0568   16.9958 H   0  0  0  0  0  0  0  0  0  0  0  0
   27.3968   50.8567   15.8031 H   0  0  0  0  0  0  0  0  0  0  0  0
   27.5353   52.8041   17.0852 H   0  0  0  0  0  0  0  0  0  0  0  0
   27.2702   53.0353   15.2458 H   0  0  0  0  0  0  0  0  0  0  0  0
   26.3282   54.7347   16.5800 H   0  0  0  0  0  0  0  0  0  0  0  0
   25.1608   53.6968   15.5764 H   0  0  0  0  0  0  0  0  0  0  0  0
   23.9796   54.0058   17.3220 H   0  0  0  0  0  0  0  0  0  0  0  0
   24.9781   52.4922   17.7626 H   0  0  0  0  0  0  0  0  0  0  0  0
   25.4226   53.3840   19.6544 H   0  0  0  0  0  0  0  0  0  0  0  0
   26.3490   54.6452   18.8141 H   0  0  0  0  0  0  0  0  0  0  0  0
   24.3953   56.0017   18.5348 H   0  0  0  0  0  0  0  0  0  0  0  0
   23.3841   54.5605   19.2386 H   0  0  0  0  0  0  0  0  0  0  0  0
   25.1740   56.3512   20.7829 H   0  0  0  0  0  0  0  0  0  0  0  0
   23.3437   56.4504   20.6135 H   0  0  0  0  0  0  0  0  0  0  0  0
   24.9260   54.1603   21.8357 H   0  0  0  0  0  0  0  0  0  0  0  0
   23.9009   55.4421   22.6891 H   0  0  0  0  0  0  0  0  0  0  0  0
   22.1181   54.3232   20.9836 H   0  0  0  0  0  0  0  0  0  0  0  0
   23.1471   52.9048   21.4762 H   0  0  0  0  0  0  0  0  0  0  0  0
   22.8004   54.1467   23.8413 H   0  0  0  0  0  0  0  0  0  0  0  0
   21.1951   54.4627   22.9074 H   0  0  0  0  0  0  0  0  0  0  0  0
   20.4116   52.6645   23.6197 H   0  0  0  0  0  0  0  0  0  0  0  0
   21.7458   51.7728   22.7903 H   0  0  0  0  0  0  0  0  0  0  0  0
   23.0423   51.6795   24.6551 H   0  0  0  0  0  0  0  0  0  0  0  0
   22.0778   53.0967   25.4217 H   0  0  0  0  0  0  0  0  0  0  0  0
   21.3741   51.6130   26.7640 H   0  0  0  0  0  0  0  0  0  0  0  0
   20.2904   51.1995   25.3245 H   0  0  0  0  0  0  0  0  0  0  0  0
   21.8748   49.4855   26.7954 H   0  0  0  0  0  0  0  0  0  0  0  0
   21.0263   49.1905   25.2399 H   0  0  0  0  0  0  0  0  0  0  0  0
   22.7350   49.7447   25.2399 H   0  0  0  0  0  0  0  0  0  0  0  0
  1  2  1  0
  2  3  1  0
  3  4  1  0
  4  5  1  0
  5  6  1  0
  6  7  1  0
  7  8  1  0
  8  9  1  0
  9 10  1  0
 10 11  1  0
 11 12  1  0
 12 13  1  0
 13 14  1  0
 14 15  1  0
 15 16  1  0
 16 17  1  0
  1 18  1  0
  1 19  1  0
  1 20  1  0
  2 21  1  0
  2 22  1  0
  3 23  1  0
  3 24  1  0
  4 25  1  0
  4 26  1  0
  5 27  1  0
  5 28  1  0
  6 29  1  0
  6 30  1  0
  7 31  1  0
  7 32  1  0
  8 33  1  0
  8 34  1  0
  9 35  1  0
  9 36  1  0
 10 37  1  0
 10 38  1  0
 11 39  1  0
 11 40  1  0
 12 41  1  0
 12 42  1  0
 13 43  1  0
 13 44  1  0
 14 45  1  0
 14 46  1  0
 15 47  1  0
 15 48  1  0
 16 49  1  0
 16 50  1  0
 17 51  1  0
 17 52  1  0
 17 53  1  0
M  END
>  <filename_input>  (17) 
6YRV_PJ8_docked.sdf

>  <pdb_id>  (17) 
6YRV_PJ8

>  <pose_rank>  (17) 
16

>  <num_atoms_heavy>  (17) 
17

>  <num_torsions>  (17) 
14

>  <pose>  (17) 
[24.297098789159783, 55.173778738076805, 19.25235909197184, 1.5998721672821912, -0.6444627692284957, 0.6822827168962837, 6.051380929934512, 4.834601981663863, -3.686276328338968, 1.8363161113985942, -4.291686612449959, 0.3216082778243615, 3.0182756825726864, 2.283079082072154, 1.3690208250607738, 2.769234771954326, 0.2892773325259739, -1.0264461622566, -1.0655577784689678, -1.2132365769416456]

>  <energy>  (17) 
-423.9016889023008

>  <inter_energy>  (17) 
-425.43238070221645

>  <intra_energy>  (17) 
0.19120504152774948

>  <rmsd>  (17) 
3.31454

>  <sdf_rank>  (17) 
0

$$$$

     RDKit          3D

 53 52  0  0  0  0  0  0  0  0999 V2000
   23.1231   55.7768   18.3107 C   0  0  0  0  0  0  0  0  0  0  0  0
   24.4551   55.3672   17.7798 C   0  0  0  0  0  0  0  0  0  0  0  0
   24.5846   53.9099   17.3901 C   0  0  0  0  0  0  0  0  0  0  0  0
   25.9712   53.7153   16.8579 C   0  0  0  0  0  0  0  0  0  0  0  0
   26.2014   52.6389   15.9087 C   0  0  0  0  0  0  0  0  0  0  0  0
   26.4691   51.2992   16.4069 C   0  0  0  0  0  0  0  0  0  0  0  0
   25.3343   50.4699   16.7063 C   0  0  0  0  0  0  0  0  0  0  0  0
   25.4715   49.0014   16.5442 C   0  0  0  0  0  0  0  0  0  0  0  0
   25.6392   48.4260   17.9292 C   0  0  0  0  0  0  0  0  0  0  0  0
   24.8271   47.2532   18.4085 C   0  0  0  0  0  0  0  0  0  0  0  0
   25.4059   46.5054   19.6422 C   0  0  0  0  0  0  0  0  0  0  0  0
   25.4233   47.2768   20.9545 C   0  0  0  0  0  0  0  0  0  0  0  0
   24.0476   47.3753   21.5939 C   0  0  0  0  0  0  0  0  0  0  0  0
   23.8578   48.1220   22.8549 C   0  0  0  0  0  0  0  0  0  0  0  0
   22.5599   48.8709   22.8404 C   0  0  0  0  0  0  0  0  0  0  0  0
   22.2527   49.8401   23.9279 C   0  0  0  0  0  0  0  0  0  0  0  0
   22.6347   51.2443   23.6785 C   0  0  0  0  0  0  0  0  0  0  0  0
   23.1485   55.7689   19.4104 H   0  0  0  0  0  0  0  0  0  0  0  0
   22.8831   56.7902   17.9567 H   0  0  0  0  0  0  0  0  0  0  0  0
   22.3552   55.0732   17.9567 H   0  0  0  0  0  0  0  0  0  0  0  0
   24.6656   55.9759   16.8881 H   0  0  0  0  0  0  0  0  0  0  0  0
   25.1677   55.5228   18.6032 H   0  0  0  0  0  0  0  0  0  0  0  0
   24.4252   53.2689   18.2698 H   0  0  0  0  0  0  0  0  0  0  0  0
   23.8341   53.6400   16.6326 H   0  0  0  0  0  0  0  0  0  0  0  0
   26.2647   54.6532   16.3637 H   0  0  0  0  0  0  0  0  0  0  0  0
   26.5625   53.4295   17.7403 H   0  0  0  0  0  0  0  0  0  0  0  0
   25.3052   52.5727   15.2742 H   0  0  0  0  0  0  0  0  0  0  0  0
   27.1394   52.9252   15.4107 H   0  0  0  0  0  0  0  0  0  0  0  0
   27.0687   50.7773   15.6466 H   0  0  0  0  0  0  0  0  0  0  0  0
   26.9712   51.4517   17.3736 H   0  0  0  0  0  0  0  0  0  0  0  0
   25.0622   50.6573   17.7555 H   0  0  0  0  0  0  0  0  0  0  0  0
   24.5841   50.7562   15.9544 H   0  0  0  0  0  0  0  0  0  0  0  0
   24.5709   48.5868   16.0679 H   0  0  0  0  0  0  0  0  0  0  0  0
   26.3319   48.7526   15.9055 H   0  0  0  0  0  0  0  0  0  0  0  0
   26.6939   48.1248   18.0120 H   0  0  0  0  0  0  0  0  0  0  0  0
   25.2652   49.2418   18.5653 H   0  0  0  0  0  0  0  0  0  0  0  0
   23.8241   47.6195   18.6727 H   0  0  0  0  0  0  0  0  0  0  0  0
   24.8269   46.5254   17.5837 H   0  0  0  0  0  0  0  0  0  0  0  0
   24.8044   45.5974   19.7957 H   0  0  0  0  0  0  0  0  0  0  0  0
   26.4623   46.3166   19.4003 H   0  0  0  0  0  0  0  0  0  0  0  0
   26.1011   46.7659   21.6543 H   0  0  0  0  0  0  0  0  0  0  0  0
   25.7623   48.2999   20.7348 H   0  0  0  0  0  0  0  0  0  0  0  0
   23.3866   47.8421   20.8488 H   0  0  0  0  0  0  0  0  0  0  0  0
   23.8367   46.3365   21.8877 H   0  0  0  0  0  0  0  0  0  0  0  0
   23.8559   47.4138   23.6965 H   0  0  0  0  0  0  0  0  0  0  0  0
   24.6802   48.8444   22.9638 H   0  0  0  0  0  0  0  0  0  0  0  0
   22.5266   49.4321   21.8949 H   0  0  0  0  0  0  0  0  0  0  0  0
   21.8080   48.0808   22.9831 H   0  0  0  0  0  0  0  0  0  0  0  0
   21.1671   49.8140   24.1035 H   0  0  0  0  0  0  0  0  0  0  0  0
   22.8591   49.5189   24.7876 H   0  0  0  0  0  0  0  0  0  0  0  0
   22.7755   51.7620   24.6387 H   0  0  0  0  0  0  0  0  0  0  0  0
   23.5732   51.2727   23.1055 H   0  0  0  0  0  0  0  0  0  0  0  0
   21.8399   51.7442   23.1055 H   0  0  0  0  0  0  0  0  0  0  0  0
  1  2  1  0
  2  3  1  0
  3  4  1  0
  4  5  1  0
  5  6  1  0
  6  7  1  0
  7  8  1  0
  8  9  1  0
  9 10  1  0
 10 11  1  0
 11 12  1  0
 12 13  1  0
 13 14  1  0
 14 15  1  0
 15 16  1  0
 16 17  1  0
  1 18  1  0
  1 19  1  0
  1 20  1  0
  2 21  1  0
  2 22  1  0
  3 23  1  0
  3 24  1  0
  4 25  1  0
  4 26  1  0
  5 27  1  0
  5 28  1  0
  6 29  1  0
  6 30  1  0
  7 31  1  0
  7 32  1  0
  8 33  1  0
  8 34  1  0
  9 35  1  0
  9 36  1  0
 10 37  1  0
 10 38  1  0
 11 39  1  0
 11 40  1  0
 12 41  1  0
 12 42  1  0
 13 43  1  0
 13 44  1  0
 14 45  1  0
 14 46  1  0
 15 47  1  0
 15 48  1  0
 16 49  1  0
 16 50  1  0
 17 51  1  0
 17 52  1  0
 17 53  1  0
M  END
>  <filename_input>  (18) 
6YRV_PJ8_docked.sdf

>  <pdb_id>  (18) 
6YRV_PJ8

>  <pose_rank>  (18) 
17

>  <num_atoms_heavy>  (18) 
17

>  <num_torsions>  (18) 
14

>  <pose>  (18) 
[25.639206891444445, 48.42603079858503, 17.929167594073675, 1.4333449490437604, -2.286989839697578, -1.7191973906474691, -0.896389275385774, 17.14148021447823, 16.198570023533268, -3.9476185440195346, 5.754032106824678, 6.45519576101662, -0.39573776898221885, -25.261364907038462, -21.594752331009932, -18.678491868926525, 5.9234015996694085, -0.6873631095248303, -0.5161630577999158, -1.3790851956035057]

>  <energy>  (18) 
-403.38480064461737

>  <inter_energy>  (18) 
-404.99344934127225

>  <intra_energy>  (18) 
1.367267822268493

>  <rmsd>  (18) 
5.52937

>  <sdf_rank>  (18) 
0

$$$$

     RDKit          3D

 53 52  0  0  0  0  0  0  0  0999 V2000
   23.8876   56.0140   18.2278 C   0  0  0  0  0  0  0  0  0  0  0  0
   23.8600   55.0732   19.3845 C   0  0  0  0  0  0  0  0  0  0  0  0
   22.8085   55.3589   20.4358 C   0  0  0  0  0  0  0  0  0  0  0  0
   23.0240   54.3854   21.5537 C   0  0  0  0  0  0  0  0  0  0  0  0
   22.0915   54.3973   22.6685 C   0  0  0  0  0  0  0  0  0  0  0  0
   21.6326   53.1336   23.2228 C   0  0  0  0  0  0  0  0  0  0  0  0
   22.6374   52.2033   23.6587 C   0  0  0  0  0  0  0  0  0  0  0  0
   22.1976   50.9390   24.2988 C   0  0  0  0  0  0  0  0  0  0  0  0
   22.4671   49.8341   23.3068 C   0  0  0  0  0  0  0  0  0  0  0  0
   23.8104   49.1632   23.2066 C   0  0  0  0  0  0  0  0  0  0  0  0
   23.8010   47.7543   22.5501 C   0  0  0  0  0  0  0  0  0  0  0  0
   24.2965   47.6737   21.1130 C   0  0  0  0  0  0  0  0  0  0  0  0
   25.1545   46.4450   20.8576 C   0  0  0  0  0  0  0  0  0  0  0  0
   25.4826   46.0325   19.4770 C   0  0  0  0  0  0  0  0  0  0  0  0
   26.1701   44.7010   19.4679 C   0  0  0  0  0  0  0  0  0  0  0  0
   26.7655   44.1843   18.2052 C   0  0  0  0  0  0  0  0  0  0  0  0
   26.9786   42.7251   18.1328 C   0  0  0  0  0  0  0  0  0  0  0  0
   23.9179   57.0494   18.5979 H   0  0  0  0  0  0  0  0  0  0  0  0
   24.7803   55.8170   17.6161 H   0  0  0  0  0  0  0  0  0  0  0  0
   22.9848   55.8696   17.6161 H   0  0  0  0  0  0  0  0  0  0  0  0
   23.6808   54.0610   18.9931 H   0  0  0  0  0  0  0  0  0  0  0  0
   24.8300   55.1897   19.8900 H   0  0  0  0  0  0  0  0  0  0  0  0
   22.9166   56.3888   20.8068 H   0  0  0  0  0  0  0  0  0  0  0  0
   21.7974   55.2535   20.0156 H   0  0  0  0  0  0  0  0  0  0  0  0
   22.9958   53.3764   21.1165 H   0  0  0  0  0  0  0  0  0  0  0  0
   23.9822   54.6917   21.9987 H   0  0  0  0  0  0  0  0  0  0  0  0
   22.5758   54.9503   23.4868 H   0  0  0  0  0  0  0  0  0  0  0  0
   21.1802   54.8426   22.2427 H   0  0  0  0  0  0  0  0  0  0  0  0
   20.9969   53.3644   24.0904 H   0  0  0  0  0  0  0  0  0  0  0  0
   21.1211   52.6284   22.3903 H   0  0  0  0  0  0  0  0  0  0  0  0
   23.2333   51.9305   22.7753 H   0  0  0  0  0  0  0  0  0  0  0  0
   23.1736   52.7382   24.4564 H   0  0  0  0  0  0  0  0  0  0  0  0
   22.7664   50.7647   25.2241 H   0  0  0  0  0  0  0  0  0  0  0  0
   21.1311   50.9804   24.5650 H   0  0  0  0  0  0  0  0  0  0  0  0
   21.7409   49.0380   23.5277 H   0  0  0  0  0  0  0  0  0  0  0  0
   22.4016   50.3652   22.3457 H   0  0  0  0  0  0  0  0  0  0  0  0
   24.4706   49.8112   22.6114 H   0  0  0  0  0  0  0  0  0  0  0  0
   24.1548   49.0150   24.2408 H   0  0  0  0  0  0  0  0  0  0  0  0
   24.4368   47.0963   23.1607 H   0  0  0  0  0  0  0  0  0  0  0  0
   22.7426   47.4571   22.5113 H   0  0  0  0  0  0  0  0  0  0  0  0
   23.4258   47.6410   20.4416 H   0  0  0  0  0  0  0  0  0  0  0  0
   24.9205   48.5601   20.9259 H   0  0  0  0  0  0  0  0  0  0  0  0
   26.1120   46.6170   21.3710 H   0  0  0  0  0  0  0  0  0  0  0  0
   24.5200   45.6215   21.2173 H   0  0  0  0  0  0  0  0  0  0  0  0
   24.5542   45.9628   18.8912 H   0  0  0  0  0  0  0  0  0  0  0  0
   26.1582   46.7807   19.0369 H   0  0  0  0  0  0  0  0  0  0  0  0
   26.9852   44.7584   20.2043 H   0  0  0  0  0  0  0  0  0  0  0  0
   25.3550   43.9918   19.6744 H   0  0  0  0  0  0  0  0  0  0  0  0
   26.0967   44.4669   17.3788 H   0  0  0  0  0  0  0  0  0  0  0  0
   27.7692   44.6309   18.1493 H   0  0  0  0  0  0  0  0  0  0  0  0
   27.0389   42.3124   19.1507 H   0  0  0  0  0  0  0  0  0  0  0  0
   26.1392   42.2580   17.5969 H   0  0  0  0  0  0  0  0  0  0  0  0
   27.9166   42.5176   17.5969 H   0  0  0  0  0  0  0  0  0  0  0  0
  1  2  1  0
  2  3  1  0
  3  4  1  0
  4  5  1  0
  5  6  1  0
  6  7  1  0
  7  8  1  0
  8  9  1  0
  9 10  1  0
 10 11  1  0
 11 12  1  0
 12 13  1  0
 13 14  1  0
 14 15  1  0
 15 16  1  0
 16 17  1  0
  1 18  1  0
  1 19  1  0
  1 20  1  0
  2 21  1  0
  2 22  1  0
  3 23  1  0
  3 24  1  0
  4 25  1  0
  4 26  1  0
  5 27  1  0
  5 28  1  0
  6 29  1  0
  6 30  1  0
  7 31  1  0
  7 32  1  0
  8 33  1  0
  8 34  1  0
  9 35  1  0
  9 36  1  0
 10 37  1  0
 10 38  1  0
 11 39  1  0
 11 40  1  0
 12 41  1  0
 12 42  1  0
 13 43  1  0
 13 44  1  0
 14 45  1  0
 14 46  1  0
 15 47  1  0
 15 48  1  0
 16 49  1  0
 16 50  1  0
 17 51  1  0
 17 52  1  0
 17 53  1  0
M  END
>  <filename_input>  (19) 
6YRV_PJ8_docked.sdf

>  <pdb_id>  (19) 
6YRV_PJ8

>  <pose_rank>  (19) 
18

>  <num_atoms_heavy>  (19) 
17

>  <num_torsions>  (19) 
14

>  <pose>  (19) 
[22.46707529891827, 49.83409606724488, 23.306805731813107, 4.143646316550324, 1.6124709942453794, 1.2619490907694324, -1.694962039374011, -1.6145253052951865, -2.177775425707931, 1.799413785516629, -2.9128612564348106, -0.2271991353700547, -0.2895556448564197, -0.1782820006359748, -2.1109086092956737, 1.2870281726351422, -0.6245602135718696, 0.11946742294044942, -0.5109329018006022, 0.5219322367326643]

>  <energy>  (19) 
-411.0626676780061

>  <inter_energy>  (19) 
-404.8757487642915

>  <intra_energy>  (19) 
0.0

>  <rmsd>  (19) 
6.13079

>  <sdf_rank>  (19) 
0

$$$$

     RDKit          3D

 53 52  0  0  0  0  0  0  0  0999 V2000
   23.4275   55.9250   18.3247 C   0  0  0  0  0  0  0  0  0  0  0  0
   23.0577   56.0991   19.7588 C   0  0  0  0  0  0  0  0  0  0  0  0
   22.4534   54.8845   20.4312 C   0  0  0  0  0  0  0  0  0  0  0  0
   23.1642   54.7018   21.7371 C   0  0  0  0  0  0  0  0  0  0  0  0
   22.5434   53.8635   22.7493 C   0  0  0  0  0  0  0  0  0  0  0  0
   23.0796   52.5344   22.9958 C   0  0  0  0  0  0  0  0  0  0  0  0
   22.2394   51.6070   23.7023 C   0  0  0  0  0  0  0  0  0  0  0  0
   22.5853   50.1649   23.6551 C   0  0  0  0  0  0  0  0  0  0  0  0
   21.8505   49.5812   22.4732 C   0  0  0  0  0  0  0  0  0  0  0  0
   21.4371   48.1349   22.4270 C   0  0  0  0  0  0  0  0  0  0  0  0
   21.7727   47.3081   23.6998 C   0  0  0  0  0  0  0  0  0  0  0  0
   20.6186   47.0369   24.6547 C   0  0  0  0  0  0  0  0  0  0  0  0
   21.0397   46.2178   25.8642 C   0  0  0  0  0  0  0  0  0  0  0  0
   20.3158   46.3457   27.1462 C   0  0  0  0  0  0  0  0  0  0  0  0
   21.1902   45.9423   28.2943 C   0  0  0  0  0  0  0  0  0  0  0  0
   21.0426   46.6210   29.6110 C   0  0  0  0  0  0  0  0  0  0  0  0
   21.3631   45.8109   30.8030 C   0  0  0  0  0  0  0  0  0  0  0  0
   24.4208   55.4573   18.2565 H   0  0  0  0  0  0  0  0  0  0  0  0
   22.6847   55.2820   17.8300 H   0  0  0  0  0  0  0  0  0  0  0  0
   23.4499   56.9072   17.8300 H   0  0  0  0  0  0  0  0  0  0  0  0
   23.9678   56.3743   20.3120 H   0  0  0  0  0  0  0  0  0  0  0  0
   22.2756   56.8725   19.7759 H   0  0  0  0  0  0  0  0  0  0  0  0
   21.3794   55.0458   20.6060 H   0  0  0  0  0  0  0  0  0  0  0  0
   22.5643   53.9920   19.7980 H   0  0  0  0  0  0  0  0  0  0  0  0
   24.1493   54.2664   21.5133 H   0  0  0  0  0  0  0  0  0  0  0  0
   23.1713   55.7066   22.1846 H   0  0  0  0  0  0  0  0  0  0  0  0
   22.5983   54.4137   23.7002 H   0  0  0  0  0  0  0  0  0  0  0  0
   21.5378   53.6697   22.3478 H   0  0  0  0  0  0  0  0  0  0  0  0
   23.3176   52.0874   22.0193 H   0  0  0  0  0  0  0  0  0  0  0  0
   23.9428   52.6958   23.6583 H   0  0  0  0  0  0  0  0  0  0  0  0
   22.2411   51.9075   24.7605 H   0  0  0  0  0  0  0  0  0  0  0  0
   21.2712   51.6701   23.1841 H   0  0  0  0  0  0  0  0  0  0  0  0
   23.6705   50.0394   23.5265 H   0  0  0  0  0  0  0  0  0  0  0  0
   22.2987   49.6585   24.5886 H   0  0  0  0  0  0  0  0  0  0  0  0
   20.9273   50.1691   22.3634 H   0  0  0  0  0  0  0  0  0  0  0  0
   22.6119   49.6295   21.6807 H   0  0  0  0  0  0  0  0  0  0  0  0
   20.3484   48.0972   22.2744 H   0  0  0  0  0  0  0  0  0  0  0  0
   22.0125   47.6797   21.6075 H   0  0  0  0  0  0  0  0  0  0  0  0
   22.1714   46.3366   23.3722 H   0  0  0  0  0  0  0  0  0  0  0  0
   22.4843   47.9241   24.2691 H   0  0  0  0  0  0  0  0  0  0  0  0
   20.2167   47.9995   25.0039 H   0  0  0  0  0  0  0  0  0  0  0  0
   19.8623   46.4560   24.1063 H   0  0  0  0  0  0  0  0  0  0  0  0
   20.9715   45.1606   25.5680 H   0  0  0  0  0  0  0  0  0  0  0  0
   22.0353   46.6211   26.1013 H   0  0  0  0  0  0  0  0  0  0  0  0
   20.0035   47.3918   27.2811 H   0  0  0  0  0  0  0  0  0  0  0  0
   19.4377   45.6836   27.1225 H   0  0  0  0  0  0  0  0  0  0  0  0
   21.0145   44.8703   28.4672 H   0  0  0  0  0  0  0  0  0  0  0  0
   22.1967   46.2403   27.9653 H   0  0  0  0  0  0  0  0  0  0  0  0
   21.7070   47.4977   29.6128 H   0  0  0  0  0  0  0  0  0  0  0  0
   19.9730   46.8624   29.6988 H   0  0  0  0  0  0  0  0  0  0  0  0
   21.1347   46.3882   31.7110 H   0  0  0  0  0  0  0  0  0  0  0  0
   20.7616   44.8900   30.7930 H   0  0  0  0  0  0  0  0  0  0  0  0
   22.4319   45.5509   30.7930 H   0  0  0  0  0  0  0  0  0  0  0  0
  1  2  1  0
  2  3  1  0
  3  4  1  0
  4  5  1  0
  5  6  1  0
  6  7  1  0
  7  8  1  0
  8  9  1  0
  9 10  1  0
 10 11  1  0
 11 12  1  0
 12 13  1  0
 13 14  1  0
 14 15  1  0
 15 16  1  0
 16 17  1  0
  1 18  1  0
  1 19  1  0
  1 20  1  0
  2 21  1  0
  2 22  1  0
  3 23  1  0
  3 24  1  0
  4 25  1  0
  4 26  1  0
  5 27  1  0
  5 28  1  0
  6 29  1  0
  6 30  1  0
  7 31  1  0
  7 32  1  0
  8 33  1  0
  8 34  1  0
  9 35  1  0
  9 36  1  0
 10 37  1  0
 10 38  1  0
 11 39  1  0
 11 40  1  0
 12 41  1  0
 12 42  1  0
 13 43  1  0
 13 44  1  0
 14 45  1  0
 14 46  1  0
 15 47  1  0
 15 48  1  0
 16 49  1  0
 16 50  1  0
 17 51  1  0
 17 52  1  0
 17 53  1  0
M  END
>  <filename_input>  (20) 
6YRV_PJ8_docked.sdf

>  <pdb_id>  (20) 
6YRV_PJ8

>  <pose_rank>  (20) 
19

>  <num_atoms_heavy>  (20) 
17

>  <num_torsions>  (20) 
14

>  <pose>  (20) 
[21.85051148838765, 49.58120015881662, 22.47318830655155, -1.5489587199834345, 0.35285643981191445, -1.7676512800025295, 0.4416247335135846, 1.1947876441894445, 3.8827580356893616, -2.0013115210446335, 2.7970326330762854, -0.5908700066191621, 5.075745945283909, 3.3758135217872627, -2.132088210536896, 1.9884563489566986, -0.8728282135895736, 0.4001670607240848, -1.2442959078602602, -0.37649132560799653]

>  <energy>  (20) 
-401.5931432263688

>  <inter_energy>  (20) 
-396.2837752087891

>  <intra_energy>  (20) 
0.0

>  <rmsd>  (20) 
6.16483

>  <sdf_rank>  (20) 
0

$$$$

     RDKit          3D

 53 52  0  0  0  0  0  0  0  0999 V2000
   22.8381   54.0892   22.1183 C   0  0  0  0  0  0  0  0  0  0  0  0
   21.3752   53.8093   22.1911 C   0  0  0  0  0  0  0  0  0  0  0  0
   20.8903   53.1927   23.4861 C   0  0  0  0  0  0  0  0  0  0  0  0
   22.1008   52.7264   24.2351 C   0  0  0  0  0  0  0  0  0  0  0  0
   22.3578   51.2978   24.3105 C   0  0  0  0  0  0  0  0  0  0  0  0
   23.3820   50.7154   23.4582 C   0  0  0  0  0  0  0  0  0  0  0  0
   23.8897   49.4232   23.8292 C   0  0  0  0  0  0  0  0  0  0  0  0
   23.4169   48.2365   23.0745 C   0  0  0  0  0  0  0  0  0  0  0  0
   22.0817   48.6067   22.4763 C   0  0  0  0  0  0  0  0  0  0  0  0
   20.9251   47.6443   22.4520 C   0  0  0  0  0  0  0  0  0  0  0  0
   20.8788   46.6327   23.6313 C   0  0  0  0  0  0  0  0  0  0  0  0
   20.4725   47.1922   24.9876 C   0  0  0  0  0  0  0  0  0  0  0  0
   20.9215   46.3115   26.1425 C   0  0  0  0  0  0  0  0  0  0  0  0
   20.3315   46.4784   27.4871 C   0  0  0  0  0  0  0  0  0  0  0  0
   21.3199   46.1114   28.5519 C   0  0  0  0  0  0  0  0  0  0  0  0
   20.9533   46.2653   29.9865 C   0  0  0  0  0  0  0  0  0  0  0  0
   21.8555   47.0993   30.8053 C   0  0  0  0  0  0  0  0  0  0  0  0
   23.2475   54.1675   23.1363 H   0  0  0  0  0  0  0  0  0  0  0  0
   23.3418   53.2711   21.5825 H   0  0  0  0  0  0  0  0  0  0  0  0
   23.0042   55.0354   21.5825 H   0  0  0  0  0  0  0  0  0  0  0  0
   20.8412   54.7603   22.0484 H   0  0  0  0  0  0  0  0  0  0  0  0
   21.1725   53.0633   21.4084 H   0  0  0  0  0  0  0  0  0  0  0  0
   20.3454   53.9418   24.0793 H   0  0  0  0  0  0  0  0  0  0  0  0
   20.2069   52.3539   23.2874 H   0  0  0  0  0  0  0  0  0  0  0  0
   22.9770   53.1900   23.7585 H   0  0  0  0  0  0  0  0  0  0  0  0
   21.9054   53.0219   25.2765 H   0  0  0  0  0  0  0  0  0  0  0  0
   22.6408   51.0766   25.3502 H   0  0  0  0  0  0  0  0  0  0  0  0
   21.4245   50.8443   23.9453 H   0  0  0  0  0  0  0  0  0  0  0  0
   22.9593   50.6267   22.4466 H   0  0  0  0  0  0  0  0  0  0  0  0
   24.2433   51.3940   23.5465 H   0  0  0  0  0  0  0  0  0  0  0  0
   24.9840   49.4611   23.7236 H   0  0  0  0  0  0  0  0  0  0  0  0
   23.5082   49.2652   24.8488 H   0  0  0  0  0  0  0  0  0  0  0  0
   24.1322   47.9841   22.2780 H   0  0  0  0  0  0  0  0  0  0  0  0
   23.3262   47.3596   23.7324 H   0  0  0  0  0  0  0  0  0  0  0  0
   21.7331   49.4934   23.0261 H   0  0  0  0  0  0  0  0  0  0  0  0
   22.3255   48.7023   21.4080 H   0  0  0  0  0  0  0  0  0  0  0  0
   19.9945   48.2305   22.4702 H   0  0  0  0  0  0  0  0  0  0  0  0
   21.0486   47.0426   21.5394 H   0  0  0  0  0  0  0  0  0  0  0  0
   20.1608   45.8426   23.3666 H   0  0  0  0  0  0  0  0  0  0  0  0
   21.9143   46.2837   23.7576 H   0  0  0  0  0  0  0  0  0  0  0  0
   20.9245   48.1879   25.1075 H   0  0  0  0  0  0  0  0  0  0  0  0
   19.3738   47.2394   25.0126 H   0  0  0  0  0  0  0  0  0  0  0  0
   20.7272   45.2720   25.8400 H   0  0  0  0  0  0  0  0  0  0  0  0
   21.9681   46.6152   26.2925 H   0  0  0  0  0  0  0  0  0  0  0  0
   20.0305   47.5279   27.6209 H   0  0  0  0  0  0  0  0  0  0  0  0
   19.4582   45.8152   27.5734 H   0  0  0  0  0  0  0  0  0  0  0  0
   21.5732   45.0518   28.3998 H   0  0  0  0  0  0  0  0  0  0  0  0
   22.1271   46.8461   28.4147 H   0  0  0  0  0  0  0  0  0  0  0  0
   19.9501   46.7142   30.0300 H   0  0  0  0  0  0  0  0  0  0  0  0
   21.0170   45.2546   30.4160 H   0  0  0  0  0  0  0  0  0  0  0  0
   21.6572   46.9160   31.8716 H   0  0  0  0  0  0  0  0  0  0  0  0
   22.9004   46.8422   30.5771 H   0  0  0  0  0  0  0  0  0  0  0  0
   21.6810   48.1612   30.5771 H   0  0  0  0  0  0  0  0  0  0  0  0
  1  2  1  0
  2  3  1  0
  3  4  1  0
  4  5  1  0
  5  6  1  0
  6  7  1  0
  7  8  1  0
  8  9  1  0
  9 10  1  0
 10 11  1  0
 11 12  1  0
 12 13  1  0
 13 14  1  0
 14 15  1  0
 15 16  1  0
 16 17  1  0
  1 18  1  0
  1 19  1  0
  1 20  1  0
  2 21  1  0
  2 22  1  0
  3 23  1  0
  3 24  1  0
  4 25  1  0
  4 26  1  0
  5 27  1  0
  5 28  1  0
  6 29  1  0
  6 30  1  0
  7 31  1  0
  7 32  1  0
  8 33  1  0
  8 34  1  0
  9 35  1  0
  9 36  1  0
 10 37  1  0
 10 38  1  0
 11 39  1  0
 11 40  1  0
 12 41  1  0
 12 42  1  0
 13 43  1  0
 13 44  1  0
 14 45  1  0
 14 46  1  0
 15 47  1  0
 15 48  1  0
 16 49  1  0
 16 50  1  0
 17 51  1  0
 17 52  1  0
 17 53  1  0
M  END
>  <filename_input>  (21) 
6YRV_PJ8_docked.sdf

>  <pdb_id>  (21) 
6YRV_PJ8

>  <pose_rank>  (21) 
20

>  <num_atoms_heavy>  (21) 
17

>  <num_torsions>  (21) 
14

>  <pose>  (21) 
[22.08171033523969, 48.60670805488283, 22.47634598583584, -1.7629661461008308, 1.4094461178458744, -1.4927989431650703, 0.6735116454313652, 2.3681714893921804, 2.8216766193063876, -2.6248960977484987, 2.7520982228443773, 0.9857795124458391, 2.533742322107379, 3.872039929656612, -2.637359728734616, 2.3541419121821225, -0.10681661709995627, 0.5085607004643693, -0.7131233752687562, 1.1208977906059643]

>  <energy>  (21) 
-320.70375730138517

>  <inter_energy>  (21) 
-331.379150382514

>  <intra_energy>  (21) 
10.971392098969645

>  <rmsd>  (21) 
7.28407

>  <sdf_rank>  (21) 
0

$$$$

     RDKit          3D

 53 52  0  0  0  0  0  0  0  0999 V2000
   32.6322   51.7817   27.5183 C   0  0  0  0  0  0  0  0  0  0  0  0
   31.7875   52.1186   26.3365 C   0  0  0  0  0  0  0  0  0  0  0  0
   30.8176   51.0423   25.8968 C   0  0  0  0  0  0  0  0  0  0  0  0
   29.5296   51.7227   25.5476 C   0  0  0  0  0  0  0  0  0  0  0  0
   28.3006   50.9495   25.6135 C   0  0  0  0  0  0  0  0  0  0  0  0
   27.0267   51.6251   25.4258 C   0  0  0  0  0  0  0  0  0  0  0  0
   25.8344   50.8517   25.6393 C   0  0  0  0  0  0  0  0  0  0  0  0
   24.5246   51.4739   25.3253 C   0  0  0  0  0  0  0  0  0  0  0  0
   23.8170   50.5390   24.3752 C   0  0  0  0  0  0  0  0  0  0  0  0
   22.3667   50.7167   24.0147 C   0  0  0  0  0  0  0  0  0  0  0  0
   22.0720   51.8457   22.9878 C   0  0  0  0  0  0  0  0  0  0  0  0
   21.5510   53.1585   23.5559 C   0  0  0  0  0  0  0  0  0  0  0  0
   22.0437   54.3690   22.7793 C   0  0  0  0  0  0  0  0  0  0  0  0
   23.0253   54.2106   21.6860 C   0  0  0  0  0  0  0  0  0  0  0  0
   23.0663   55.4365   20.8251 C   0  0  0  0  0  0  0  0  0  0  0  0
   22.5318   55.3838   19.4367 C   0  0  0  0  0  0  0  0  0  0  0  0
   23.5159   55.1221   18.3676 C   0  0  0  0  0  0  0  0  0  0  0  0
   32.0765   52.0034   28.4413 H   0  0  0  0  0  0  0  0  0  0  0  0
   32.8889   50.7124   27.4927 H   0  0  0  0  0  0  0  0  0  0  0  0
   33.5544   52.3808   27.4927 H   0  0  0  0  0  0  0  0  0  0  0  0
   31.2052   53.0189   26.5824 H   0  0  0  0  0  0  0  0  0  0  0  0
   32.4854   52.2555   25.4973 H   0  0  0  0  0  0  0  0  0  0  0  0
   31.2147   50.5133   25.0180 H   0  0  0  0  0  0  0  0  0  0  0  0
   30.6645   50.3038   26.6976 H   0  0  0  0  0  0  0  0  0  0  0  0
   29.4152   52.5748   26.2338 H   0  0  0  0  0  0  0  0  0  0  0  0
   29.6356   51.9727   24.4816 H   0  0  0  0  0  0  0  0  0  0  0  0
   28.3688   50.1711   24.8393 H   0  0  0  0  0  0  0  0  0  0  0  0
   28.2633   50.6059   26.6578 H   0  0  0  0  0  0  0  0  0  0  0  0
   26.9979   52.4761   26.1222 H   0  0  0  0  0  0  0  0  0  0  0  0
   27.0029   51.8934   24.3593 H   0  0  0  0  0  0  0  0  0  0  0  0
   25.9201   49.9450   25.0224 H   0  0  0  0  0  0  0  0  0  0  0  0
   25.8053   50.6942   26.7276 H   0  0  0  0  0  0  0  0  0  0  0  0
   23.9339   51.5984   26.2449 H   0  0  0  0  0  0  0  0  0  0  0  0
   24.6568   52.4691   24.8759 H   0  0  0  0  0  0  0  0  0  0  0  0
   24.3768   50.5795   23.4292 H   0  0  0  0  0  0  0  0  0  0  0  0
   23.7998   49.5987   24.9459 H   0  0  0  0  0  0  0  0  0  0  0  0
   22.0029   49.7687   23.5915 H   0  0  0  0  0  0  0  0  0  0  0  0
   21.8555   51.0090   24.9438 H   0  0  0  0  0  0  0  0  0  0  0  0
   23.0070   52.0615   22.4500 H   0  0  0  0  0  0  0  0  0  0  0  0
   21.2605   51.4593   22.3536 H   0  0  0  0  0  0  0  0  0  0  0  0
   20.4515   53.1439   23.5250 H   0  0  0  0  0  0  0  0  0  0  0  0
   21.9272   53.2480   24.5857 H   0  0  0  0  0  0  0  0  0  0  0  0
   21.1547   54.8435   22.3382 H   0  0  0  0  0  0  0  0  0  0  0  0
   22.6059   54.9359   23.5359 H   0  0  0  0  0  0  0  0  0  0  0  0
   24.0222   54.0403   22.1185 H   0  0  0  0  0  0  0  0  0  0  0  0
   22.7255   53.3538   21.0648 H   0  0  0  0  0  0  0  0  0  0  0  0
   22.5002   56.2168   21.3549 H   0  0  0  0  0  0  0  0  0  0  0  0
   24.1427   55.6086   20.6776 H   0  0  0  0  0  0  0  0  0  0  0  0
   21.7752   54.5863   19.3987 H   0  0  0  0  0  0  0  0  0  0  0  0
   22.1394   56.3914   19.2345 H   0  0  0  0  0  0  0  0  0  0  0  0
   24.4860   54.8640   18.8173 H   0  0  0  0  0  0  0  0  0  0  0  0
   23.1665   54.2856   17.7444 H   0  0  0  0  0  0  0  0  0  0  0  0
   23.6282   56.0215   17.7444 H   0  0  0  0  0  0  0  0  0  0  0  0
  1  2  1  0
  2  3  1  0
  3  4  1  0
  4  5  1  0
  5  6  1  0
  6  7  1  0
  7  8  1  0
  8  9  1  0
  9 10  1  0
 10 11  1  0
 11 12  1  0
 12 13  1  0
 13 14  1  0
 14 15  1  0
 15 16  1  0
 16 17  1  0
  1 18  1  0
  1 19  1  0
  1 20  1  0
  2 21  1  0
  2 22  1  0
  3 23  1  0
  3 24  1  0
  4 25  1  0
  4 26  1  0
  5 27  1  0
  5 28  1  0
  6 29  1  0
  6 30  1  0
  7 31  1  0
  7 32  1  0
  8 33  1  0
  8 34  1  0
  9 35  1  0
  9 36  1  0
 10 37  1  0
 10 38  1  0
 11 39  1  0
 11 40  1  0
 12 41  1  0
 12 42  1  0
 13 43  1  0
 13 44  1  0
 14 45  1  0
 14 46  1  0
 15 47  1  0
 15 48  1  0
 16 49  1  0
 16 50  1  0
 17 51  1  0
 17 52  1  0
 17 53  1  0
M  END
>  <filename_input>  (22) 
6YRV_PJ8_docked.sdf

>  <pdb_id>  (22) 
6YRV_PJ8

>  <pose_rank>  (22) 
21

>  <num_atoms_heavy>  (22) 
17

>  <num_torsions>  (22) 
14

>  <pose>  (22) 
[23.81696118428001, 50.53896142710901, 24.37521135752157, 0.3425863353969224, 0.1563137351327908, 2.2395019934980303, -0.22741681742040706, -1.3078436359288785, -2.0138923790494774, 4.092018791290712, 3.9812026682635175, 0.13796407762306184, -1.09486458796403, -1.6001984749431635, 0.6081364506192897, 1.395215796770719, -3.6283071124866457, -0.3011501173091075, 0.5553554910778989, 1.6308572709733042]

>  <energy>  (22) 
-309.90188748406143

>  <inter_energy>  (22) 
-309.99519569116273

>  <intra_energy>  (22) 
0.0

>  <rmsd>  (22) 
6.90922

>  <sdf_rank>  (22) 
0

$$$$

     RDKit          3D

 53 52  0  0  0  0  0  0  0  0999 V2000
   26.3310   53.9182   19.4910 C   0  0  0  0  0  0  0  0  0  0  0  0
   26.5182   53.5724   18.0526 C   0  0  0  0  0  0  0  0  0  0  0  0
   27.8840   53.0349   17.6808 C   0  0  0  0  0  0  0  0  0  0  0  0
   27.6663   51.8492   16.7917 C   0  0  0  0  0  0  0  0  0  0  0  0
   26.4518   51.0698   16.9658 C   0  0  0  0  0  0  0  0  0  0  0  0
   25.7714   50.5453   15.7925 C   0  0  0  0  0  0  0  0  0  0  0  0
   25.5058   51.4647   14.7205 C   0  0  0  0  0  0  0  0  0  0  0  0
   25.0519   52.8352   15.0630 C   0  0  0  0  0  0  0  0  0  0  0  0
   23.6665   52.7001   15.6460 C   0  0  0  0  0  0  0  0  0  0  0  0
   23.3608   53.0790   17.0700 C   0  0  0  0  0  0  0  0  0  0  0  0
   22.5810   54.4118   17.2490 C   0  0  0  0  0  0  0  0  0  0  0  0
   21.3030   54.3429   18.0734 C   0  0  0  0  0  0  0  0  0  0  0  0
   21.3493   55.2385   19.3009 C   0  0  0  0  0  0  0  0  0  0  0  0
   22.3021   54.9622   20.3961 C   0  0  0  0  0  0  0  0  0  0  0  0
   23.5034   55.8521   20.2944 C   0  0  0  0  0  0  0  0  0  0  0  0
   23.8587   56.4690   18.9870 C   0  0  0  0  0  0  0  0  0  0  0  0
   23.2757   57.7972   18.7116 C   0  0  0  0  0  0  0  0  0  0  0  0
   26.7612   53.1235   20.1182 H   0  0  0  0  0  0  0  0  0  0  0  0
   26.8368   54.8706   19.7080 H   0  0  0  0  0  0  0  0  0  0  0  0
   25.2571   54.0157   19.7080 H   0  0  0  0  0  0  0  0  0  0  0  0
   25.7709   52.8098   17.7880 H   0  0  0  0  0  0  0  0  0  0  0  0
   26.4058   54.5164   17.4993 H   0  0  0  0  0  0  0  0  0  0  0  0
   28.4598   53.8054   17.1473 H   0  0  0  0  0  0  0  0  0  0  0  0
   28.4495   52.7500   18.5802 H   0  0  0  0  0  0  0  0  0  0  0  0
   27.6723   52.2149   15.7543 H   0  0  0  0  0  0  0  0  0  0  0  0
   28.4751   51.1549   17.0632 H   0  0  0  0  0  0  0  0  0  0  0  0
   26.7108   50.2084   17.5991 H   0  0  0  0  0  0  0  0  0  0  0  0
   25.7348   51.7921   17.3831 H   0  0  0  0  0  0  0  0  0  0  0  0
   26.3920   49.7333   15.3857 H   0  0  0  0  0  0  0  0  0  0  0  0
   24.7791   50.2381   16.1544 H   0  0  0  0  0  0  0  0  0  0  0  0
   26.4350   51.5653   14.1404 H   0  0  0  0  0  0  0  0  0  0  0  0
   24.6507   51.0213   14.1893 H   0  0  0  0  0  0  0  0  0  0  0  0
   25.7315   53.2862   15.8011 H   0  0  0  0  0  0  0  0  0  0  0  0
   25.0457   53.4836   14.1745 H   0  0  0  0  0  0  0  0  0  0  0  0
   23.0058   53.3133   15.0155 H   0  0  0  0  0  0  0  0  0  0  0  0
   23.5278   51.6090   15.6622 H   0  0  0  0  0  0  0  0  0  0  0  0
   22.7609   52.2717   17.5154 H   0  0  0  0  0  0  0  0  0  0  0  0
   24.3337   53.2270   17.5614 H   0  0  0  0  0  0  0  0  0  0  0  0
   23.2554   55.1311   17.7366 H   0  0  0  0  0  0  0  0  0  0  0  0
   22.2608   54.7011   16.2372 H   0  0  0  0  0  0  0  0  0  0  0  0
   20.4589   54.6553   17.4411 H   0  0  0  0  0  0  0  0  0  0  0  0
   21.1874   53.3060   18.4220 H   0  0  0  0  0  0  0  0  0  0  0  0
   21.5686   56.2547   18.9414 H   0  0  0  0  0  0  0  0  0  0  0  0
   20.3718   55.0611   19.7732 H   0  0  0  0  0  0  0  0  0  0  0  0
   21.8036   55.1383   21.3607 H   0  0  0  0  0  0  0  0  0  0  0  0
   22.6318   53.9154   20.3206 H   0  0  0  0  0  0  0  0  0  0  0  0
   23.3491   56.6778   21.0047 H   0  0  0  0  0  0  0  0  0  0  0  0
   24.3436   55.1699   20.4912 H   0  0  0  0  0  0  0  0  0  0  0  0
   24.9535   56.5691   18.9499 H   0  0  0  0  0  0  0  0  0  0  0  0
   23.4383   55.7994   18.2223 H   0  0  0  0  0  0  0  0  0  0  0  0
   23.0532   58.3042   19.6621 H   0  0  0  0  0  0  0  0  0  0  0  0
   23.9922   58.3995   18.1338 H   0  0  0  0  0  0  0  0  0  0  0  0
   22.3474   57.6776   18.1338 H   0  0  0  0  0  0  0  0  0  0  0  0
  1  2  1  0
  2  3  1  0
  3  4  1  0
  4  5  1  0
  5  6  1  0
  6  7  1  0
  7  8  1  0
  8  9  1  0
  9 10  1  0
 10 11  1  0
 11 12  1  0
 12 13  1  0
 13 14  1  0
 14 15  1  0
 15 16  1  0
 16 17  1  0
  1 18  1  0
  1 19  1  0
  1 20  1  0
  2 21  1  0
  2 22  1  0
  3 23  1  0
  3 24  1  0
  4 25  1  0
  4 26  1  0
  5 27  1  0
  5 28  1  0
  6 29  1  0
  6 30  1  0
  7 31  1  0
  7 32  1  0
  8 33  1  0
  8 34  1  0
  9 35  1  0
  9 36  1  0
 10 37  1  0
 10 38  1  0
 11 39  1  0
 11 40  1  0
 12 41  1  0
 12 42  1  0
 13 43  1  0
 13 44  1  0
 14 45  1  0
 14 46  1  0
 15 47  1  0
 15 48  1  0
 16 49  1  0
 16 50  1  0
 17 51  1  0
 17 52  1  0
 17 53  1  0
M  END
>  <filename_input>  (23) 
6YRV_PJ8_docked.sdf

>  <pdb_id>  (23) 
6YRV_PJ8

>  <pose_rank>  (23) 
22

>  <num_atoms_heavy>  (23) 
17

>  <num_torsions>  (23) 
14

>  <pose>  (23) 
[23.666485888138553, 52.70012328101802, 15.64603233471996, -3.4519562983117162, -0.2939476608775244, -2.033359285385884, 5.129379728120713, -4.6936107651260155, 6.597463128771372, 12.535654812747463, -2.8552478932680305, -16.505657567455398, -7.44012218189661, -19.957957452980505, -20.556757797554344, 7.226849243593402, 1.6036728089589918, 4.867491417557408, -4.192857360723209, 4.875236975621496]

>  <energy>  (23) 
-291.3408247094114

>  <inter_energy>  (23) 
-350.31453413762773

>  <intra_energy>  (23) 
61.57101444877609

>  <rmsd>  (23) 
6.3413

>  <sdf_rank>  (23) 
0

$$$$

     RDKit          3D

 53 52  0  0  0  0  0  0  0  0999 V2000
   23.8020   55.6798   17.5919 C   0  0  0  0  0  0  0  0  0  0  0  0
   23.2960   56.4168   18.7854 C   0  0  0  0  0  0  0  0  0  0  0  0
   22.6967   55.5584   19.8793 C   0  0  0  0  0  0  0  0  0  0  0  0
   23.8002   55.2260   20.8361 C   0  0  0  0  0  0  0  0  0  0  0  0
   23.4437   54.7481   22.1616 C   0  0  0  0  0  0  0  0  0  0  0  0
   22.3787   53.7675   22.2993 C   0  0  0  0  0  0  0  0  0  0  0  0
   21.8237   53.5793   23.6115 C   0  0  0  0  0  0  0  0  0  0  0  0
   20.6363   54.3812   23.9966 C   0  0  0  0  0  0  0  0  0  0  0  0
   21.1371   55.5066   24.8684 C   0  0  0  0  0  0  0  0  0  0  0  0
   20.2211   56.2750   25.7823 C   0  0  0  0  0  0  0  0  0  0  0  0
   20.7928   57.6169   26.3195 C   0  0  0  0  0  0  0  0  0  0  0  0
   20.0885   58.8855   25.8590 C   0  0  0  0  0  0  0  0  0  0  0  0
   19.8227   59.8546   26.9998 C   0  0  0  0  0  0  0  0  0  0  0  0
   20.3153   59.5632   28.3622 C   0  0  0  0  0  0  0  0  0  0  0  0
   19.3940   60.1364   29.3958 C   0  0  0  0  0  0  0  0  0  0  0  0
   18.7563   59.2389   30.3978 C   0  0  0  0  0  0  0  0  0  0  0  0
   19.5347   58.0501   30.7987 C   0  0  0  0  0  0  0  0  0  0  0  0
   24.3962   54.8142   17.9201 H   0  0  0  0  0  0  0  0  0  0  0  0
   22.9510   55.3324   16.9875 H   0  0  0  0  0  0  0  0  0  0  0  0
   24.4319   56.3491   16.9875 H   0  0  0  0  0  0  0  0  0  0  0  0
   24.1373   56.9778   19.2183 H   0  0  0  0  0  0  0  0  0  0  0  0
   22.4770   57.0540   18.4205 H   0  0  0  0  0  0  0  0  0  0  0  0
   21.9009   56.1119   20.3993 H   0  0  0  0  0  0  0  0  0  0  0  0
   22.2549   54.6428   19.4592 H   0  0  0  0  0  0  0  0  0  0  0  0
   24.4165   54.4467   20.3640 H   0  0  0  0  0  0  0  0  0  0  0  0
   24.2984   56.1893   21.0203 H   0  0  0  0  0  0  0  0  0  0  0  0
   24.3499   54.3016   22.5968 H   0  0  0  0  0  0  0  0  0  0  0  0
   23.0432   55.6415   22.6630 H   0  0  0  0  0  0  0  0  0  0  0  0
   21.5582   54.0747   21.6342 H   0  0  0  0  0  0  0  0  0  0  0  0
   22.8468   52.8041   22.0491 H   0  0  0  0  0  0  0  0  0  0  0  0
   21.5420   52.5194   23.6966 H   0  0  0  0  0  0  0  0  0  0  0  0
   22.6157   53.9245   24.2923 H   0  0  0  0  0  0  0  0  0  0  0  0
   20.1452   54.7863   23.0995 H   0  0  0  0  0  0  0  0  0  0  0  0
   19.8989   53.7645   24.5314 H   0  0  0  0  0  0  0  0  0  0  0  0
   21.9202   55.0749   25.5091 H   0  0  0  0  0  0  0  0  0  0  0  0
   21.4149   56.2687   24.1253 H   0  0  0  0  0  0  0  0  0  0  0  0
   19.2965   56.4966   25.2291 H   0  0  0  0  0  0  0  0  0  0  0  0
   20.0643   55.6361   26.6639 H   0  0  0  0  0  0  0  0  0  0  0  0
   20.7425   57.5862   27.4179 H   0  0  0  0  0  0  0  0  0  0  0  0
   21.8122   57.6842   25.9118 H   0  0  0  0  0  0  0  0  0  0  0  0
   20.7200   59.3870   25.1108 H   0  0  0  0  0  0  0  0  0  0  0  0
   19.1155   58.5920   25.4381 H   0  0  0  0  0  0  0  0  0  0  0  0
   20.2644   60.8177   26.7044 H   0  0  0  0  0  0  0  0  0  0  0  0
   18.7300   59.8053   27.1163 H   0  0  0  0  0  0  0  0  0  0  0  0
   20.3761   58.4734   28.4982 H   0  0  0  0  0  0  0  0  0  0  0  0
   21.3084   60.0205   28.4831 H   0  0  0  0  0  0  0  0  0  0  0  0
   19.9727   60.8829   29.9595 H   0  0  0  0  0  0  0  0  0  0  0  0
   18.5426   60.5028   28.8034 H   0  0  0  0  0  0  0  0  0  0  0  0
   18.5605   59.8325   31.3030 H   0  0  0  0  0  0  0  0  0  0  0  0
   17.8527   58.8469   29.9082 H   0  0  0  0  0  0  0  0  0  0  0  0
   19.5738   57.9905   31.8964 H   0  0  0  0  0  0  0  0  0  0  0  0
   19.0538   57.1451   30.3992 H   0  0  0  0  0  0  0  0  0  0  0  0
   20.5566   58.1291   30.3992 H   0  0  0  0  0  0  0  0  0  0  0  0
  1  2  1  0
  2  3  1  0
  3  4  1  0
  4  5  1  0
  5  6  1  0
  6  7  1  0
  7  8  1  0
  8  9  1  0
  9 10  1  0
 10 11  1  0
 11 12  1  0
 12 13  1  0
 13 14  1  0
 14 15  1  0
 15 16  1  0
 16 17  1  0
  1 18  1  0
  1 19  1  0
  1 20  1  0
  2 21  1  0
  2 22  1  0
  3 23  1  0
  3 24  1  0
  4 25  1  0
  4 26  1  0
  5 27  1  0
  5 28  1  0
  6 29  1  0
  6 30  1  0
  7 31  1  0
  7 32  1  0
  8 33  1  0
  8 34  1  0
  9 35  1  0
  9 36  1  0
 10 37  1  0
 10 38  1  0
 11 39  1  0
 11 40  1  0
 12 41  1  0
 12 42  1  0
 13 43  1  0
 13 44  1  0
 14 45  1  0
 14 46  1  0
 15 47  1  0
 15 48  1  0
 16 49  1  0
 16 50  1  0
 17 51  1  0
 17 52  1  0
 17 53  1  0
M  END
>  <filename_input>  (24) 
6YRV_PJ8_docked.sdf

>  <pdb_id>  (24) 
6YRV_PJ8

>  <pose_rank>  (24) 
23

>  <num_atoms_heavy>  (24) 
17

>  <num_torsions>  (24) 
14

>  <pose>  (24) 
[21.137142574458306, 55.50663570685146, 24.868397695915288, -0.37043829441422554, 3.364047685728468, -0.19834196536461066, 0.2869784185988797, 1.012770692201605, -3.6522413106501426, 4.2535575567563315, 1.7115433086760399, -0.5908848679979781, -1.916300529794007, 0.46472072912966517, -1.9196731994886345, 1.190174361894018, -3.4618516385903204, 0.5272003665421949, -1.691290112577623, -2.445359439983181]

>  <energy>  (24) 
-303.9359496161396

>  <inter_energy>  (24) 
-307.1777007488432

>  <intra_energy>  (24) 
0.8047504339948263

>  <rmsd>  (24) 
7.88069

>  <sdf_rank>  (24) 
0

$$$$

     RDKit          3D

 53 52  0  0  0  0  0  0  0  0999 V2000
   23.1696   56.2974   18.1984 C   0  0  0  0  0  0  0  0  0  0  0  0
   22.6143   55.5472   19.3615 C   0  0  0  0  0  0  0  0  0  0  0  0
   23.5249   55.4397   20.5663 C   0  0  0  0  0  0  0  0  0  0  0  0
   22.6848   54.9757   21.7164 C   0  0  0  0  0  0  0  0  0  0  0  0
   23.0900   53.7738   22.4263 C   0  0  0  0  0  0  0  0  0  0  0  0
   22.1964   53.2025   23.4212 C   0  0  0  0  0  0  0  0  0  0  0  0
   22.1493   51.7695   23.5172 C   0  0  0  0  0  0  0  0  0  0  0  0
   23.3987   51.0439   23.8548 C   0  0  0  0  0  0  0  0  0  0  0  0
   24.0210   51.7712   25.0215 C   0  0  0  0  0  0  0  0  0  0  0  0
   25.1412   51.1721   25.8283 C   0  0  0  0  0  0  0  0  0  0  0  0
   26.4836   50.9895   25.0662 C   0  0  0  0  0  0  0  0  0  0  0  0
   27.6630   51.8122   25.5658 C   0  0  0  0  0  0  0  0  0  0  0  0
   28.9912   51.0911   25.4017 C   0  0  0  0  0  0  0  0  0  0  0  0
   30.2618   51.7781   25.7136 C   0  0  0  0  0  0  0  0  0  0  0  0
   31.1663   50.8890   26.5115 C   0  0  0  0  0  0  0  0  0  0  0  0
   32.6368   50.9329   26.2832 C   0  0  0  0  0  0  0  0  0  0  0  0
   33.3752   52.0008   26.9861 C   0  0  0  0  0  0  0  0  0  0  0  0
   23.7873   57.1320   18.5616 H   0  0  0  0  0  0  0  0  0  0  0  0
   23.7874   55.6224   17.5879 H   0  0  0  0  0  0  0  0  0  0  0  0
   22.3436   56.6911   17.5879 H   0  0  0  0  0  0  0  0  0  0  0  0
   21.6903   56.0520   19.6797 H   0  0  0  0  0  0  0  0  0  0  0  0
   22.4596   54.5169   19.0086 H   0  0  0  0  0  0  0  0  0  0  0  0
   24.3274   54.7138   20.3687 H   0  0  0  0  0  0  0  0  0  0  0  0
   23.9921   56.4100   20.7905 H   0  0  0  0  0  0  0  0  0  0  0  0
   22.6580   55.7941   22.4509 H   0  0  0  0  0  0  0  0  0  0  0  0
   21.7217   54.7076   21.2576 H   0  0  0  0  0  0  0  0  0  0  0  0
   23.2658   52.9965   21.6681 H   0  0  0  0  0  0  0  0  0  0  0  0
   23.9620   54.0980   23.0132 H   0  0  0  0  0  0  0  0  0  0  0  0
   22.5044   53.5899   24.4036 H   0  0  0  0  0  0  0  0  0  0  0  0
   21.1872   53.4980   23.0983 H   0  0  0  0  0  0  0  0  0  0  0  0
   21.4087   51.5194   24.2912 H   0  0  0  0  0  0  0  0  0  0  0  0
   21.9111   51.4375   22.4959 H   0  0  0  0  0  0  0  0  0  0  0  0
   23.1700   50.0048   24.1341 H   0  0  0  0  0  0  0  0  0  0  0  0
   24.0844   51.0155   22.9950 H   0  0  0  0  0  0  0  0  0  0  0  0
   24.4030   52.7227   24.6230 H   0  0  0  0  0  0  0  0  0  0  0  0
   23.1961   51.7896   25.7490 H   0  0  0  0  0  0  0  0  0  0  0  0
   25.3268   51.8279   26.6917 H   0  0  0  0  0  0  0  0  0  0  0  0
   24.8091   50.1611   26.1067 H   0  0  0  0  0  0  0  0  0  0  0  0
   26.7642   49.9280   25.1323 H   0  0  0  0  0  0  0  0  0  0  0  0
   26.2902   51.3469   24.0440 H   0  0  0  0  0  0  0  0  0  0  0  0
   27.7010   52.7539   24.9985 H   0  0  0  0  0  0  0  0  0  0  0  0
   27.5122   51.9915   26.6406 H   0  0  0  0  0  0  0  0  0  0  0  0
   28.9480   50.2007   26.0462 H   0  0  0  0  0  0  0  0  0  0  0  0
   29.0550   50.9351   24.3146 H   0  0  0  0  0  0  0  0  0  0  0  0
   30.7634   52.0526   24.7738 H   0  0  0  0  0  0  0  0  0  0  0  0
   30.0396   52.6778   26.3063 H   0  0  0  0  0  0  0  0  0  0  0  0
   31.0011   51.1349   27.5709 H   0  0  0  0  0  0  0  0  0  0  0  0
   30.8870   49.8779   26.1804 H   0  0  0  0  0  0  0  0  0  0  0  0
   33.0551   49.9679   26.6054 H   0  0  0  0  0  0  0  0  0  0  0  0
   32.7614   51.1461   25.2113 H   0  0  0  0  0  0  0  0  0  0  0  0
   33.2778   51.8599   28.0727 H   0  0  0  0  0  0  0  0  0  0  0  0
   34.4378   51.9583   26.7047 H   0  0  0  0  0  0  0  0  0  0  0  0
   32.9603   52.9799   26.7047 H   0  0  0  0  0  0  0  0  0  0  0  0
  1  2  1  0
  2  3  1  0
  3  4  1  0
  4  5  1  0
  5  6  1  0
  6  7  1  0
  7  8  1  0
  8  9  1  0
  9 10  1  0
 10 11  1  0
 11 12  1  0
 12 13  1  0
 13 14  1  0
 14 15  1  0
 15 16  1  0
 16 17  1  0
  1 18  1  0
  1 19  1  0
  1 20  1  0
  2 21  1  0
  2 22  1  0
  3 23  1  0
  3 24  1  0
  4 25  1  0
  4 26  1  0
  5 27  1  0
  5 28  1  0
  6 29  1  0
  6 30  1  0
  7 31  1  0
  7 32  1  0
  8 33  1  0
  8 34  1  0
  9 35  1  0
  9 36  1  0
 10 37  1  0
 10 38  1  0
 11 39  1  0
 11 40  1  0
 12 41  1  0
 12 42  1  0
 13 43  1  0
 13 44  1  0
 14 45  1  0
 14 46  1  0
 15 47  1  0
 15 48  1  0
 16 49  1  0
 16 50  1  0
 17 51  1  0
 17 52  1  0
 17 53  1  0
M  END
>  <filename_input>  (25) 
6YRV_PJ8_docked.sdf

>  <pdb_id>  (25) 
6YRV_PJ8

>  <pose_rank>  (25) 
24

>  <num_atoms_heavy>  (25) 
17

>  <num_torsions>  (25) 
14

>  <pose>  (25) 
[24.020966237332797, 51.77121092725289, 25.021486495824586, 1.6903941581752606, -0.7355678061371744, -0.868490885631071, -0.2724228330804674, -2.6892881318131496, 2.0764350700445924, 3.3447055525571905, -2.035418723393241, 5.026224982373396, -0.6181616602289531, -1.7848723916768443, 4.382683959113516, 1.4144060060519545, -0.4902421912571116, -0.8011538687426564, -1.297812893935355, -1.54206555113263]

>  <energy>  (25) 
-303.90423374538045

>  <inter_energy>  (25) 
-307.01734350929075

>  <intra_energy>  (25) 
4.617827694667202

>  <rmsd>  (25) 
7.1681

>  <sdf_rank>  (25) 
0

$$$$

     RDKit          3D

 53 52  0  0  0  0  0  0  0  0999 V2000
   21.6230   47.5420   21.8200 C   0  0  0  0  0  0  0  0  0  0  0  0
   22.5540   48.3110   22.6950 C   0  0  0  0  0  0  0  0  0  0  0  0
   21.9710   49.5490   23.3430 C   0  0  0  0  0  0  0  0  0  0  0  0
   23.1190   50.4360   23.7160 C   0  0  0  0  0  0  0  0  0  0  0  0
   22.8810   51.5100   24.6660 C   0  0  0  0  0  0  0  0  0  0  0  0
   21.8260   52.4740   24.3970 C   0  0  0  0  0  0  0  0  0  0  0  0
   21.7830   53.0520   23.0820 C   0  0  0  0  0  0  0  0  0  0  0  0
   22.9730   53.7950   22.5990 C   0  0  0  0  0  0  0  0  0  0  0  0
   22.4990   54.6960   21.4850 C   0  0  0  0  0  0  0  0  0  0  0  0
   23.4470   55.5700   20.7090 C   0  0  0  0  0  0  0  0  0  0  0  0
   22.8510   56.2240   19.4310 C   0  0  0  0  0  0  0  0  0  0  0  0
   23.7220   56.1880   18.1830 C   0  0  0  0  0  0  0  0  0  0  0  0
   23.9460   54.7760   17.6660 C   0  0  0  0  0  0  0  0  0  0  0  0
   25.1100   54.4660   16.8100 C   0  0  0  0  0  0  0  0  0  0  0  0
   25.1050   53.0230   16.4060 C   0  0  0  0  0  0  0  0  0  0  0  0
   26.3880   52.2720   16.3280 C   0  0  0  0  0  0  0  0  0  0  0  0
   26.2800   50.8150   16.1150 C   0  0  0  0  0  0  0  0  0  0  0  0
   20.9249   46.9654   22.4446 H   0  0  0  0  0  0  0  0  0  0  0  0
   21.0567   48.2391   21.1849 H   0  0  0  0  0  0  0  0  0  0  0  0
   22.2007   46.8542   21.1849 H   0  0  0  0  0  0  0  0  0  0  0  0
   22.8976   47.6398   23.4959 H   0  0  0  0  0  0  0  0  0  0  0  0
   23.3600   48.6674   22.0367 H   0  0  0  0  0  0  0  0  0  0  0  0
   21.3080   50.0682   22.6352 H   0  0  0  0  0  0  0  0  0  0  0  0
   21.3786   49.2829   24.2308 H   0  0  0  0  0  0  0  0  0  0  0  0
   23.9026   49.7923   24.1421 H   0  0  0  0  0  0  0  0  0  0  0  0
   23.3763   50.9540   22.7803 H   0  0  0  0  0  0  0  0  0  0  0  0
   22.6471   51.0387   25.6320 H   0  0  0  0  0  0  0  0  0  0  0  0
   23.8018   52.1099   24.6189 H   0  0  0  0  0  0  0  0  0  0  0  0
   20.8643   51.9680   24.5675 H   0  0  0  0  0  0  0  0  0  0  0  0
   22.0353   53.3181   25.0706 H   0  0  0  0  0  0  0  0  0  0  0  0
   21.6013   52.2318   22.3719 H   0  0  0  0  0  0  0  0  0  0  0  0
   20.9950   53.8167   23.1482 H   0  0  0  0  0  0  0  0  0  0  0  0
   23.4024   54.3948   23.4150 H   0  0  0  0  0  0  0  0  0  0  0  0
   23.7534   53.1052   22.2451 H   0  0  0  0  0  0  0  0  0  0  0  0
   22.0089   54.0428   20.7480 H   0  0  0  0  0  0  0  0  0  0  0  0
   21.8938   55.4367   22.0283 H   0  0  0  0  0  0  0  0  0  0  0  0
   23.7893   56.3756   21.3752 H   0  0  0  0  0  0  0  0  0  0  0  0
   24.2566   54.9100   20.3641 H   0  0  0  0  0  0  0  0  0  0  0  0
   21.9098   55.7049   19.1973 H   0  0  0  0  0  0  0  0  0  0  0  0
   22.7347   57.2902   19.6755 H   0  0  0  0  0  0  0  0  0  0  0  0
   23.2321   56.7781   17.3945 H   0  0  0  0  0  0  0  0  0  0  0  0
   24.7044   56.6042   18.4507 H   0  0  0  0  0  0  0  0  0  0  0  0
   24.0226   54.1254   18.5497 H   0  0  0  0  0  0  0  0  0  0  0  0
   23.0932   54.6228   16.9884 H   0  0  0  0  0  0  0  0  0  0  0  0
   25.0708   55.0933   15.9072 H   0  0  0  0  0  0  0  0  0  0  0  0
   26.0295   54.6695   17.3785 H   0  0  0  0  0  0  0  0  0  0  0  0
   24.4686   52.4920   17.1292 H   0  0  0  0  0  0  0  0  0  0  0  0
   24.7626   53.0520   15.3611 H   0  0  0  0  0  0  0  0  0  0  0  0
   26.9714   52.6904   15.4946 H   0  0  0  0  0  0  0  0  0  0  0  0
   26.8583   52.3905   17.3153 H   0  0  0  0  0  0  0  0  0  0  0  0
   26.2421   50.3040   17.0883 H   0  0  0  0  0  0  0  0  0  0  0  0
   25.3630   50.5942   15.5490 H   0  0  0  0  0  0  0  0  0  0  0  0
   27.1544   50.4614   15.5490 H   0  0  0  0  0  0  0  0  0  0  0  0
  1  2  1  0
  2  3  1  0
  3  4  1  0
  4  5  1  0
  5  6  1  0
  6  7  1  0
  7  8  1  0
  8  9  1  0
  9 10  1  0
 10 11  1  0
 11 12  1  0
 12 13  1  0
 13 14  1  0
 14 15  1  0
 15 16  1  0
 16 17  1  0
  1 18  1  0
  1 19  1  0
  1 20  1  0
  2 21  1  0
  2 22  1  0
  3 23  1  0
  3 24  1  0
  4 25  1  0
  4 26  1  0
  5 27  1  0
  5 28  1  0
  6 29  1  0
  6 30  1  0
  7 31  1  0
  7 32  1  0
  8 33  1  0
  8 34  1  0
  9 35  1  0
  9 36  1  0
 10 37  1  0
 10 38  1  0
 11 39  1  0
 11 40  1  0
 12 41  1  0
 12 42  1  0
 13 43  1  0
 13 44  1  0
 14 45  1  0
 14 46  1  0
 15 47  1  0
 15 48  1  0
 16 49  1  0
 16 50  1  0
 17 51  1  0
 17 52  1  0
 17 53  1  0
M  END
>  <filename_input>  (26) 
6YRV_PJ8_docked.sdf

>  <pdb_id>  (26) 
6YRV_PJ8

>  <pose_rank>  (26) 
25

>  <num_atoms_heavy>  (26) 
17

>  <num_torsions>  (26) 
14

>  <pose>  (26) 
[22.499, 54.696, 21.485, 1e-06, 1e-06, 1e-06, 0.0, 0.0, 0.0, 0.0, 0.0, 0.0, 0.0, 0.0, 0.0, 0.0, 0.0, 0.0, 0.0, 0.0]

>  <energy>  (26) 
-591.483238567596

>  <inter_energy>  (26) 
-594.7655888577128

>  <intra_energy>  (26) 
4.373737499577353

>  <rmsd>  (26) 
0.0

>  <sdf_rank>  (26) 
0

$$$$
