
     RDKit          3D

 22 21  0  0  0  0  0  0  0  0999 V2000
   19.3709   28.7447  -35.8743 P   0  0  1  0  0  0  0  0  0  0  0  0
   19.2229   29.0688  -37.3457 O   0  0  0  0  0  0  0  0  0  0  0  0
   19.2219   29.9461  -34.9751 O   0  0  0  0  0  0  0  0  0  0  0  0
   18.4682   27.6051  -35.4527 O   0  0  0  0  0  0  0  0  0  0  0  0
   21.0752   28.1010  -35.6422 C   0  0  0  0  0  0  0  0  0  0  0  0
   21.3806   28.0815  -34.1686 C   0  0  0  0  0  0  0  0  0  0  0  0
   20.9932   27.2134  -33.4505 O   0  0  0  0  0  0  0  0  0  0  0  0
   22.1332   29.1912  -33.7470 N   0  0  0  0  0  0  0  0  0  0  0  0
   22.5322   29.3478  -32.3571 C   0  0  2  0  0  0  0  0  0  0  0  0
   21.4046   29.6578  -31.3909 C   0  0  0  0  0  0  0  0  0  0  0  0
   20.2988   30.1515  -31.7397 O   0  0  0  0  0  0  0  0  0  0  0  0
   21.6384   29.3286  -30.1998 O   0  0  0  0  0  0  0  0  0  0  0  0
   23.6170   30.4283  -32.3567 C   0  0  0  0  0  0  0  0  0  0  0  0
   23.1260   31.8398  -32.6277 C   0  0  0  0  0  0  0  0  0  0  0  0
   22.1540   32.0259  -33.3991 O   0  0  0  0  0  0  0  0  0  0  0  0
   23.6947   32.7920  -32.0297 O   0  0  0  0  0  0  0  0  0  0  0  0
   21.1457   27.0816  -36.0495 H   0  0  0  0  0  0  0  0  0  0  0  0
   21.7963   28.7437  -36.1686 H   0  0  0  0  0  0  0  0  0  0  0  0
   22.4073   29.9069  -34.4351 H   0  0  0  0  0  0  0  0  0  0  0  0
   22.9030   28.3852  -31.9751 H   0  0  0  0  0  0  0  0  0  0  0  0
   24.1038   30.4211  -31.3703 H   0  0  0  0  0  0  0  0  0  0  0  0
   24.2966   30.1780  -33.1847 H   0  0  0  0  0  0  0  0  0  0  0  0
  1  2  2  0
  1  3  1  1
  1  4  1  0
  1  5  1  0
  5  6  1  0
  6  7  2  0
  6  8  1  0
  8  9  1  0
  9 10  1  0
  9 13  1  0
 10 11  2  0
 10 12  1  0
 13 14  1  0
 14 15  2  0
 14 16  1  0
  5 17  1  0
  5 18  1  0
  8 19  1  0
  9 20  1  1
 13 21  1  0
 13 22  1  0
M  CHG  4   3  -1   4  -1  12  -1  16  -1
M  END
>  <filename_input>  (1) 
6YSP_PAL_docked.sdf

>  <pdb_id>  (1) 
6YSP_PAL

>  <pose_rank>  (1) 
0

>  <num_atoms_heavy>  (1) 
16

>  <num_torsions>  (1) 
6

>  <pose>  (1) 
[21.380649513643846, 28.081520558918417, -34.168644675654946, 3.7774934199043546, -3.5794403827315526, 3.4679480741824933, -6.220769712290976, -6.221995458977651, -6.415892134574822, -0.2638542467469475, 6.435027314518728, -0.727207043066811]

>  <energy>  (1) 
-1122.887701083128

>  <inter_energy>  (1) 
-1133.8792422179429

>  <intra_energy>  (1) 
29.351060145309663

>  <rmsd>  (1) 
0.34819

>  <sdf_rank>  (1) 
0

$$$$

     RDKit          3D

 22 21  0  0  0  0  0  0  0  0999 V2000
   20.4945   28.3619  -35.3220 P   0  0  1  0  0  0  0  0  0  0  0  0
   21.5849   28.4145  -36.3708 O   0  0  0  0  0  0  0  0  0  0  0  0
   19.1019   28.3583  -35.9006 O   0  0  0  0  0  0  0  0  0  0  0  0
   20.7051   27.2261  -34.3438 O   0  0  0  0  0  0  0  0  0  0  0  0
   20.6580   29.8860  -34.3105 C   0  0  0  0  0  0  0  0  0  0  0  0
   21.2089   29.5063  -32.9623 C   0  0  0  0  0  0  0  0  0  0  0  0
   20.5107   29.1302  -32.0732 O   0  0  0  0  0  0  0  0  0  0  0  0
   22.6020   29.6689  -32.8704 N   0  0  0  0  0  0  0  0  0  0  0  0
   23.3195   29.3486  -31.6465 C   0  0  2  0  0  0  0  0  0  0  0  0
   22.5138   29.4867  -30.3687 C   0  0  0  0  0  0  0  0  0  0  0  0
   21.2909   29.7897  -30.3407 O   0  0  0  0  0  0  0  0  0  0  0  0
   23.1551   29.2177  -29.3208 O   0  0  0  0  0  0  0  0  0  0  0  0
   24.5655   30.2385  -31.6518 C   0  0  0  0  0  0  0  0  0  0  0  0
   24.3251   31.6880  -32.0363 C   0  0  0  0  0  0  0  0  0  0  0  0
   23.1723   32.1754  -31.9461 O   0  0  0  0  0  0  0  0  0  0  0  0
   25.3139   32.3775  -32.4031 O   0  0  0  0  0  0  0  0  0  0  0  0
   21.3430   30.5892  -34.8068 H   0  0  0  0  0  0  0  0  0  0  0  0
   19.6766   30.3691  -34.1947 H   0  0  0  0  0  0  0  0  0  0  0  0
   23.1245   30.0214  -33.6850 H   0  0  0  0  0  0  0  0  0  0  0  0
   23.5723   28.2780  -31.6434 H   0  0  0  0  0  0  0  0  0  0  0  0
   24.9993   30.2222  -30.6411 H   0  0  0  0  0  0  0  0  0  0  0  0
   25.2317   29.8251  -32.4234 H   0  0  0  0  0  0  0  0  0  0  0  0
  1  2  2  0
  1  3  1  6
  1  4  1  0
  1  5  1  0
  5  6  1  0
  6  7  2  0
  6  8  1  0
  8  9  1  0
  9 10  1  0
  9 13  1  0
 10 11  2  0
 10 12  1  0
 13 14  1  0
 14 15  2  0
 14 16  1  0
  5 17  1  0
  5 18  1  0
  8 19  1  0
  9 20  1  6
 13 21  1  0
 13 22  1  0
M  CHG  4   3  -1   4  -1  12  -1  16  -1
M  END
>  <filename_input>  (2) 
6YSP_PAL_docked.sdf

>  <pdb_id>  (2) 
6YSP_PAL

>  <pose_rank>  (2) 
1

>  <num_atoms_heavy>  (2) 
16

>  <num_torsions>  (2) 
6

>  <pose>  (2) 
[21.20887294030698, 29.506339320992634, -32.962335697908756, -0.024740946394474522, 0.3034818175302685, -0.8430079336592415, 3.4684377080638065, 1.5619051559592165, -5.687918851253778, 0.16848725364494008, -12.880891718917379, 0.2089733093191828]

>  <energy>  (2) 
-517.6739548819869

>  <inter_energy>  (2) 
-644.7828648974042

>  <intra_energy>  (2) 
141.56043830401063

>  <rmsd>  (2) 
1.80059

>  <sdf_rank>  (2) 
0

$$$$

     RDKit          3D

 22 21  0  0  0  0  0  0  0  0999 V2000
   19.4314   28.8698  -35.8416 P   0  0  1  0  0  0  0  0  0  0  0  0
   18.7494   29.3540  -34.5798 O   0  0  0  0  0  0  0  0  0  0  0  0
   18.7515   27.6827  -36.4761 O   0  0  0  0  0  0  0  0  0  0  0  0
   19.6519   29.9932  -36.8319 O   0  0  0  0  0  0  0  0  0  0  0  0
   21.1204   28.3341  -35.3590 C   0  0  0  0  0  0  0  0  0  0  0  0
   21.4650   28.9742  -34.0412 C   0  0  0  0  0  0  0  0  0  0  0  0
   21.6811   28.3334  -33.0603 O   0  0  0  0  0  0  0  0  0  0  0  0
   21.4754   30.3786  -34.0965 N   0  0  0  0  0  0  0  0  0  0  0  0
   21.7919   31.1773  -32.9229 C   0  0  2  0  0  0  0  0  0  0  0  0
   23.2708   31.3210  -32.6174 C   0  0  0  0  0  0  0  0  0  0  0  0
   24.0915   30.3657  -32.6617 O   0  0  0  0  0  0  0  0  0  0  0  0
   23.6352   32.4979  -32.3647 O   0  0  0  0  0  0  0  0  0  0  0  0
   21.0145   30.5415  -31.7671 C   0  0  0  0  0  0  0  0  0  0  0  0
   21.3684   31.0612  -30.3845 C   0  0  0  0  0  0  0  0  0  0  0  0
   22.2796   30.5072  -29.7232 O   0  0  0  0  0  0  0  0  0  0  0  0
   20.7522   32.0724  -29.9540 O   0  0  0  0  0  0  0  0  0  0  0  0
   21.1480   27.2391  -35.2583 H   0  0  0  0  0  0  0  0  0  0  0  0
   21.8466   28.6379  -36.1274 H   0  0  0  0  0  0  0  0  0  0  0  0
   21.2547   30.8511  -34.9848 H   0  0  0  0  0  0  0  0  0  0  0  0
   21.4926   32.2205  -33.1021 H   0  0  0  0  0  0  0  0  0  0  0  0
   19.9433   30.7258  -31.9358 H   0  0  0  0  0  0  0  0  0  0  0  0
   21.2834   29.4748  -31.7696 H   0  0  0  0  0  0  0  0  0  0  0  0
  1  2  2  0
  1  3  1  6
  1  4  1  0
  1  5  1  0
  5  6  1  0
  6  7  2  0
  6  8  1  0
  8  9  1  0
  9 10  1  0
  9 13  1  0
 10 11  2  0
 10 12  1  0
 13 14  1  0
 14 15  2  0
 14 16  1  0
  5 17  1  0
  5 18  1  0
  8 19  1  0
  9 20  1  6
 13 21  1  0
 13 22  1  0
M  CHG  4   3  -1   4  -1  12  -1  16  -1
M  END
>  <filename_input>  (3) 
6YSP_PAL_docked.sdf

>  <pdb_id>  (3) 
6YSP_PAL

>  <pose_rank>  (3) 
2

>  <num_atoms_heavy>  (3) 
16

>  <num_torsions>  (3) 
6

>  <pose>  (3) 
[21.465025672730203, 28.97420022706333, -34.04119980732817, -0.33971909960571234, 0.1664593080907471, 0.5729353966222688, 0.717633525601757, 3.092694588912567, -3.7920825905676026, -0.6608983171545911, -4.41257468961608, 4.563373081617936]

>  <energy>  (3) 
-622.1493964303073

>  <inter_energy>  (3) 
-662.0741280437397

>  <intra_energy>  (3) 
50.91836248207506

>  <rmsd>  (3) 
2.42192

>  <sdf_rank>  (3) 
0

$$$$

     RDKit          3D

 22 21  0  0  0  0  0  0  0  0999 V2000
   20.1696   28.8838  -35.3201 P   0  0  1  0  0  0  0  0  0  0  0  0
   21.1257   29.4044  -36.3720 O   0  0  0  0  0  0  0  0  0  0  0  0
   18.7941   28.5757  -35.8560 O   0  0  0  0  0  0  0  0  0  0  0  0
   20.7538   27.7170  -34.5528 O   0  0  0  0  0  0  0  0  0  0  0  0
   19.9794   30.2164  -34.0707 C   0  0  0  0  0  0  0  0  0  0  0  0
   20.9182   29.9360  -32.9283 C   0  0  0  0  0  0  0  0  0  0  0  0
   20.6148   29.2361  -32.0132 O   0  0  0  0  0  0  0  0  0  0  0  0
   22.1508   30.6001  -33.0520 N   0  0  0  0  0  0  0  0  0  0  0  0
   23.1926   30.4498  -32.0483 C   0  0  2  0  0  0  0  0  0  0  0  0
   22.7101   30.0328  -30.6719 C   0  0  0  0  0  0  0  0  0  0  0  0
   23.1600   30.5120  -29.5967 O   0  0  0  0  0  0  0  0  0  0  0  0
   21.7705   29.1968  -30.6841 O   0  0  0  0  0  0  0  0  0  0  0  0
   23.9423   31.7847  -32.0262 C   0  0  0  0  0  0  0  0  0  0  0  0
   25.4445   31.6812  -31.8274 C   0  0  0  0  0  0  0  0  0  0  0  0
   26.2226   32.2003  -32.6638 O   0  0  0  0  0  0  0  0  0  0  0  0
   25.8685   31.1012  -30.7923 O   0  0  0  0  0  0  0  0  0  0  0  0
   20.2258   31.1879  -34.5238 H   0  0  0  0  0  0  0  0  0  0  0  0
   18.9416   30.2476  -33.7074 H   0  0  0  0  0  0  0  0  0  0  0  0
   22.3194   31.2046  -33.8688 H   0  0  0  0  0  0  0  0  0  0  0  0
   23.8461   29.6097  -32.3262 H   0  0  0  0  0  0  0  0  0  0  0  0
   23.7603   32.2927  -32.9847 H   0  0  0  0  0  0  0  0  0  0  0  0
   23.5571   32.3359  -31.1557 H   0  0  0  0  0  0  0  0  0  0  0  0
  1  2  2  0
  1  3  1  6
  1  4  1  0
  1  5  1  0
  5  6  1  0
  6  7  2  0
  6  8  1  0
  8  9  1  0
  9 10  1  0
  9 13  1  0
 10 11  2  0
 10 12  1  0
 13 14  1  0
 14 15  2  0
 14 16  1  0
  5 17  1  0
  5 18  1  0
  8 19  1  0
  9 20  1  6
 13 21  1  0
 13 22  1  0
M  CHG  4   3  -1   4  -1  12  -1  16  -1
M  END
>  <filename_input>  (4) 
6YSP_PAL_docked.sdf

>  <pdb_id>  (4) 
6YSP_PAL

>  <pose_rank>  (4) 
3

>  <num_atoms_heavy>  (4) 
16

>  <num_torsions>  (4) 
6

>  <pose>  (4) 
[20.918229530606663, 29.935974995329993, -32.928320482322434, -0.03229544840072691, 0.5361860221306933, -0.44579232437207106, -2.847096119429656, -4.531575513103839, 0.6782432532408914, -2.3193211888352576, 2.6987096914890176, 2.020802156260721]

>  <energy>  (4) 
-424.1786541294841

>  <inter_energy>  (4) 
-569.6184111593524

>  <intra_energy>  (4) 
158.69717331072644

>  <rmsd>  (4) 
2.31888

>  <sdf_rank>  (4) 
0

$$$$

     RDKit          3D

 22 21  0  0  0  0  0  0  0  0999 V2000
   21.6971   27.6495  -34.5729 P   0  0  1  0  0  0  0  0  0  0  0  0
   21.4717   27.6497  -36.0699 O   0  0  0  0  0  0  0  0  0  0  0  0
   21.3751   26.3310  -33.9155 O   0  0  0  0  0  0  0  0  0  0  0  0
   23.0818   28.1413  -34.2094 O   0  0  0  0  0  0  0  0  0  0  0  0
   20.5557   28.9020  -33.8649 C   0  0  0  0  0  0  0  0  0  0  0  0
   21.1653   29.4404  -32.5985 C   0  0  0  0  0  0  0  0  0  0  0  0
   20.9292   28.9704  -31.5295 O   0  0  0  0  0  0  0  0  0  0  0  0
   22.0015   30.5488  -32.8172 N   0  0  0  0  0  0  0  0  0  0  0  0
   22.6866   31.2057  -31.7151 C   0  0  2  0  0  0  0  0  0  0  0  0
   24.0132   31.8503  -32.0697 C   0  0  0  0  0  0  0  0  0  0  0  0
   25.1104   31.5348  -31.5361 O   0  0  0  0  0  0  0  0  0  0  0  0
   23.9446   32.7015  -32.9930 O   0  0  0  0  0  0  0  0  0  0  0  0
   22.8261   30.1429  -30.6217 C   0  0  0  0  0  0  0  0  0  0  0  0
   22.8945   30.6786  -29.2021 C   0  0  0  0  0  0  0  0  0  0  0  0
   21.8358   30.8889  -28.5620 O   0  0  0  0  0  0  0  0  0  0  0  0
   24.0311   30.8617  -28.6900 O   0  0  0  0  0  0  0  0  0  0  0  0
   20.4108   29.7212  -34.5846 H   0  0  0  0  0  0  0  0  0  0  0  0
   19.5795   28.4434  -33.6485 H   0  0  0  0  0  0  0  0  0  0  0  0
   22.1315   30.9025  -33.7757 H   0  0  0  0  0  0  0  0  0  0  0  0
   22.0934   32.0702  -31.3824 H   0  0  0  0  0  0  0  0  0  0  0  0
   21.9590   29.4694  -30.6896 H   0  0  0  0  0  0  0  0  0  0  0  0
   23.7881   29.6419  -30.8048 H   0  0  0  0  0  0  0  0  0  0  0  0
  1  2  2  0
  1  3  1  1
  1  4  1  0
  1  5  1  0
  5  6  1  0
  6  7  2  0
  6  8  1  0
  8  9  1  0
  9 10  1  0
  9 13  1  0
 10 11  2  0
 10 12  1  0
 13 14  1  0
 14 15  2  0
 14 16  1  0
  5 17  1  0
  5 18  1  0
  8 19  1  0
  9 20  1  1
 13 21  1  0
 13 22  1  0
M  CHG  4   3  -1   4  -1  12  -1  16  -1
M  END
>  <filename_input>  (5) 
6YSP_PAL_docked.sdf

>  <pdb_id>  (5) 
6YSP_PAL

>  <pose_rank>  (5) 
4

>  <num_atoms_heavy>  (5) 
16

>  <num_torsions>  (5) 
6

>  <pose>  (5) 
[21.165255075456155, 29.440412180787977, -32.5985384992524, 5.1076147171798665, -2.5859096857315205, 0.8507266102363058, -2.9434876375911516, 0.7889767617271641, -2.577389584182505, 4.289417706510422, -10.045333583464258, 1.369101662861556]

>  <energy>  (5) 
-457.4527337310458

>  <inter_energy>  (5) 
-510.29053640231854

>  <intra_energy>  (5) 
55.75977868908284

>  <rmsd>  (5) 
3.36095

>  <sdf_rank>  (5) 
0

$$$$

     RDKit          3D

 22 21  0  0  0  0  0  0  0  0999 V2000
   22.2985   31.2581  -29.5300 P   0  0  1  0  0  0  0  0  0  0  0  0
   21.7272   31.5530  -28.1595 O   0  0  0  0  0  0  0  0  0  0  0  0
   21.8901   32.2594  -30.5810 O   0  0  0  0  0  0  0  0  0  0  0  0
   23.7987   31.0611  -29.4869 O   0  0  0  0  0  0  0  0  0  0  0  0
   21.6278   29.6275  -30.0441 C   0  0  0  0  0  0  0  0  0  0  0  0
   22.2226   29.2669  -31.3787 C   0  0  0  0  0  0  0  0  0  0  0  0
   23.1823   28.5680  -31.4791 O   0  0  0  0  0  0  0  0  0  0  0  0
   21.5472   29.8571  -32.4608 N   0  0  0  0  0  0  0  0  0  0  0  0
   21.9705   29.6229  -33.8324 C   0  0  2  0  0  0  0  0  0  0  0  0
   21.8470   28.1891  -34.3121 C   0  0  0  0  0  0  0  0  0  0  0  0
   20.7687   27.6748  -34.7132 O   0  0  0  0  0  0  0  0  0  0  0  0
   22.9328   27.5547  -34.3323 O   0  0  0  0  0  0  0  0  0  0  0  0
   23.4066   30.1470  -33.9180 C   0  0  0  0  0  0  0  0  0  0  0  0
   23.6335   31.5186  -33.3062 C   0  0  0  0  0  0  0  0  0  0  0  0
   22.9172   32.4865  -33.6593 O   0  0  0  0  0  0  0  0  0  0  0  0
   24.5227   31.6348  -32.4210 O   0  0  0  0  0  0  0  0  0  0  0  0
   21.8967   28.8640  -29.2993 H   0  0  0  0  0  0  0  0  0  0  0  0
   20.5316   29.6776  -30.1206 H   0  0  0  0  0  0  0  0  0  0  0  0
   20.7372   30.4670  -32.2791 H   0  0  0  0  0  0  0  0  0  0  0  0
   21.2922   30.1528  -34.5173 H   0  0  0  0  0  0  0  0  0  0  0  0
   24.0613   29.4310  -33.3997 H   0  0  0  0  0  0  0  0  0  0  0  0
   23.6295   30.2511  -34.9901 H   0  0  0  0  0  0  0  0  0  0  0  0
  1  2  2  0
  1  3  1  6
  1  4  1  0
  1  5  1  0
  5  6  1  0
  6  7  2  0
  6  8  1  0
  8  9  1  0
  9 10  1  0
  9 13  1  0
 10 11  2  0
 10 12  1  0
 13 14  1  0
 14 15  2  0
 14 16  1  0
  5 17  1  0
  5 18  1  0
  8 19  1  0
  9 20  1  6
 13 21  1  0
 13 22  1  0
M  CHG  4   3  -1   4  -1  12  -1  16  -1
M  END
>  <filename_input>  (6) 
6YSP_PAL_docked.sdf

>  <pdb_id>  (6) 
6YSP_PAL

>  <pose_rank>  (6) 
5

>  <num_atoms_heavy>  (6) 
16

>  <num_torsions>  (6) 
6

>  <pose>  (6) 
[22.222617635253847, 29.266902531821923, -31.378690988222694, 0.7878291097668572, -3.5507631758780587, 0.4913938681312728, 0.33827973620304186, 0.3425448575979561, -4.0755581644726036, 1.517869308875477, -1.9129136600600753, 5.2029142175879395]

>  <energy>  (6) 
-345.6513568688996

>  <inter_energy>  (6) 
-384.52323081118897

>  <intra_energy>  (6) 
49.47322812674459

>  <rmsd>  (6) 
4.76473

>  <sdf_rank>  (6) 
0

$$$$

     RDKit          3D

 22 21  0  0  0  0  0  0  0  0999 V2000
   23.2600   31.2712  -31.9784 P   0  0  1  0  0  0  0  0  0  0  0  0
   23.2886   32.7086  -32.4525 O   0  0  0  0  0  0  0  0  0  0  0  0
   23.7411   30.2859  -33.0137 O   0  0  0  0  0  0  0  0  0  0  0  0
   23.9746   31.0979  -30.6553 O   0  0  0  0  0  0  0  0  0  0  0  0
   21.5052   30.8667  -31.6182 C   0  0  0  0  0  0  0  0  0  0  0  0
   21.0616   29.7842  -32.5651 C   0  0  0  0  0  0  0  0  0  0  0  0
   20.5773   28.7648  -32.1835 O   0  0  0  0  0  0  0  0  0  0  0  0
   21.3040   30.0981  -33.9136 N   0  0  0  0  0  0  0  0  0  0  0  0
   20.9392   29.1782  -34.9795 C   0  0  2  0  0  0  0  0  0  0  0  0
   19.4979   29.2651  -35.4445 C   0  0  0  0  0  0  0  0  0  0  0  0
   18.9424   28.3977  -36.1705 O   0  0  0  0  0  0  0  0  0  0  0  0
   18.8691   30.2588  -34.9983 O   0  0  0  0  0  0  0  0  0  0  0  0
   21.3053   27.7830  -34.4658 C   0  0  0  0  0  0  0  0  0  0  0  0
   22.7628   27.3911  -34.6369 C   0  0  0  0  0  0  0  0  0  0  0  0
   23.1078   26.6775  -35.6097 O   0  0  0  0  0  0  0  0  0  0  0  0
   23.5989   27.8339  -33.8048 O   0  0  0  0  0  0  0  0  0  0  0  0
   21.4110   30.5137  -30.5806 H   0  0  0  0  0  0  0  0  0  0  0  0
   20.8777   31.7610  -31.7468 H   0  0  0  0  0  0  0  0  0  0  0  0
   21.7483   30.9965  -34.1514 H   0  0  0  0  0  0  0  0  0  0  0  0
   21.4912   29.4438  -35.8931 H   0  0  0  0  0  0  0  0  0  0  0  0
   21.0659   27.7420  -33.3930 H   0  0  0  0  0  0  0  0  0  0  0  0
   20.7256   27.0728  -35.0737 H   0  0  0  0  0  0  0  0  0  0  0  0
  1  2  2  0
  1  3  1  6
  1  4  1  0
  1  5  1  0
  5  6  1  0
  6  7  2  0
  6  8  1  0
  8  9  1  0
  9 10  1  0
  9 13  1  0
 10 11  2  0
 10 12  1  0
 13 14  1  0
 14 15  2  0
 14 16  1  0
  5 17  1  0
  5 18  1  0
  8 19  1  0
  9 20  1  6
 13 21  1  0
 13 22  1  0
M  CHG  4   3  -1   4  -1  12  -1  16  -1
M  END
>  <filename_input>  (7) 
6YSP_PAL_docked.sdf

>  <pdb_id>  (7) 
6YSP_PAL

>  <pose_rank>  (7) 
6

>  <num_atoms_heavy>  (7) 
16

>  <num_torsions>  (7) 
6

>  <pose>  (7) 
[21.061642046585245, 29.784231111095416, -32.56514958765324, -1.3073196536985041, -2.7136096187856364, 1.556031994585404, -5.41921034003531, -0.8166539493687673, -3.7278824014096585, -2.7974193937017193, 3.7414153392354472, -1.8623171206361235]

>  <energy>  (7) 
-402.03835835125926

>  <inter_energy>  (7) 
-490.43380445912516

>  <intra_energy>  (7) 
82.91262931088984

>  <rmsd>  (7) 
5.00586

>  <sdf_rank>  (7) 
0

$$$$

     RDKit          3D

 22 21  0  0  0  0  0  0  0  0999 V2000
   28.5344   24.5930  -36.8157 P   0  0  1  0  0  0  0  0  0  0  0  0
   29.1132   24.4268  -35.4267 O   0  0  0  0  0  0  0  0  0  0  0  0
   28.4909   26.0263  -37.2825 O   0  0  0  0  0  0  0  0  0  0  0  0
   29.2125   23.6889  -37.8228 O   0  0  0  0  0  0  0  0  0  0  0  0
   26.8002   23.9931  -36.7425 C   0  0  0  0  0  0  0  0  0  0  0  0
   26.6824   22.7690  -37.6101 C   0  0  0  0  0  0  0  0  0  0  0  0
   27.3124   21.7793  -37.4022 O   0  0  0  0  0  0  0  0  0  0  0  0
   25.7865   22.9358  -38.6802 N   0  0  0  0  0  0  0  0  0  0  0  0
   25.5337   21.8609  -39.6268 C   0  0  2  0  0  0  0  0  0  0  0  0
   26.6644   20.8628  -39.7898 C   0  0  0  0  0  0  0  0  0  0  0  0
   26.5208   19.6162  -39.6731 O   0  0  0  0  0  0  0  0  0  0  0  0
   27.7664   21.3769  -40.1106 O   0  0  0  0  0  0  0  0  0  0  0  0
   25.1648   22.5478  -40.9447 C   0  0  0  0  0  0  0  0  0  0  0  0
   24.2462   21.7518  -41.8554 C   0  0  0  0  0  0  0  0  0  0  0  0
   23.8691   22.2434  -42.9466 O   0  0  0  0  0  0  0  0  0  0  0  0
   23.9172   20.5890  -41.4985 O   0  0  0  0  0  0  0  0  0  0  0  0
   26.5387   23.7392  -35.7047 H   0  0  0  0  0  0  0  0  0  0  0  0
   26.1148   24.7759  -37.0995 H   0  0  0  0  0  0  0  0  0  0  0  0
   25.2998   23.8361  -38.7961 H   0  0  0  0  0  0  0  0  0  0  0  0
   24.7203   21.2257  -39.2463 H   0  0  0  0  0  0  0  0  0  0  0  0
   24.6656   23.4981  -40.7047 H   0  0  0  0  0  0  0  0  0  0  0  0
   26.1077   22.6730  -41.4972 H   0  0  0  0  0  0  0  0  0  0  0  0
  1  2  2  0
  1  3  1  6
  1  4  1  0
  1  5  1  0
  5  6  1  0
  6  7  2  0
  6  8  1  0
  8  9  1  0
  9 10  1  0
  9 13  1  0
 10 11  2  0
 10 12  1  0
 13 14  1  0
 14 15  2  0
 14 16  1  0
  5 17  1  0
  5 18  1  0
  8 19  1  0
  9 20  1  1
 13 21  1  0
 13 22  1  0
M  CHG  4   3  -1   4  -1  12  -1  16  -1
M  END
>  <filename_input>  (8) 
6YSP_PAL_docked.sdf

>  <pdb_id>  (8) 
6YSP_PAL

>  <pose_rank>  (8) 
7

>  <num_atoms_heavy>  (8) 
16

>  <num_torsions>  (8) 
6

>  <pose>  (8) 
[26.68240948351702, 22.768958876693876, -37.61009996258072, -0.36773251885259417, 2.8118818120150686, -1.355868039918271, -0.27092251223810965, 1.4394042506646585, 0.6250710334712256, 2.326021491050341, 2.535925485863425, 2.9697878980027745]

>  <energy>  (8) 
-5.382516936043089

>  <inter_energy>  (8) 
-81.504492139034

>  <intra_energy>  (8) 
66.51862969607522

>  <rmsd>  (8) 
11.6941

>  <sdf_rank>  (8) 
0

$$$$

     RDKit          3D

 22 21  0  0  0  0  0  0  0  0999 V2000
   24.2267   21.0601  -41.6461 P   0  0  1  0  0  0  0  0  0  0  0  0
   25.5544   21.4198  -41.0140 O   0  0  0  0  0  0  0  0  0  0  0  0
   24.0157   21.6861  -43.0017 O   0  0  0  0  0  0  0  0  0  0  0  0
   23.9991   19.5638  -41.6707 O   0  0  0  0  0  0  0  0  0  0  0  0
   22.9172   21.7137  -40.5367 C   0  0  0  0  0  0  0  0  0  0  0  0
   23.5628   22.1760  -39.2582 C   0  0  0  0  0  0  0  0  0  0  0  0
   23.7484   21.4421  -38.3382 O   0  0  0  0  0  0  0  0  0  0  0  0
   23.8874   23.5435  -39.2677 N   0  0  0  0  0  0  0  0  0  0  0  0
   24.5240   24.1755  -38.1228 C   0  0  2  0  0  0  0  0  0  0  0  0
   25.9588   23.7550  -37.8661 C   0  0  0  0  0  0  0  0  0  0  0  0
   26.8378   23.6772  -38.7658 O   0  0  0  0  0  0  0  0  0  0  0  0
   26.2260   23.5382  -36.6564 O   0  0  0  0  0  0  0  0  0  0  0  0
   23.6080   23.8899  -36.9295 C   0  0  0  0  0  0  0  0  0  0  0  0
   22.5705   24.9603  -36.6381 C   0  0  0  0  0  0  0  0  0  0  0  0
   22.8791   26.1726  -36.7361 O   0  0  0  0  0  0  0  0  0  0  0  0
   21.4034   24.5911  -36.3397 O   0  0  0  0  0  0  0  0  0  0  0  0
   22.4074   22.5591  -41.0220 H   0  0  0  0  0  0  0  0  0  0  0  0
   22.1770   20.9285  -40.3232 H   0  0  0  0  0  0  0  0  0  0  0  0
   23.6704   24.1087  -40.1010 H   0  0  0  0  0  0  0  0  0  0  0  0
   24.6322   25.2529  -38.3164 H   0  0  0  0  0  0  0  0  0  0  0  0
   23.0774   22.9467  -37.1263 H   0  0  0  0  0  0  0  0  0  0  0  0
   24.2620   23.8511  -36.0459 H   0  0  0  0  0  0  0  0  0  0  0  0
  1  2  2  0
  1  3  1  6
  1  4  1  0
  1  5  1  0
  5  6  1  0
  6  7  2  0
  6  8  1  0
  8  9  1  0
  9 10  1  0
  9 13  1  0
 10 11  2  0
 10 12  1  0
 13 14  1  0
 14 15  2  0
 14 16  1  0
  5 17  1  0
  5 18  1  0
  8 19  1  0
  9 20  1  6
 13 21  1  0
 13 22  1  0
M  CHG  4   3  -1   4  -1  12  -1  16  -1
M  END
>  <filename_input>  (9) 
6YSP_PAL_docked.sdf

>  <pdb_id>  (9) 
6YSP_PAL

>  <pose_rank>  (9) 
8

>  <num_atoms_heavy>  (9) 
16

>  <num_torsions>  (9) 
6

>  <pose>  (9) 
[23.562782292980113, 22.17598958137338, -39.25817623179372, 2.4560173975088677, -3.3508928997056926, -3.965350115254197, 3.4192659881674565, 3.2706046227242367, 2.2948330367302474, 0.913493072475139, 3.5651052393298994, -0.8475297892811436]

>  <energy>  (9) 
-155.02855869803906

>  <inter_energy>  (9) 
-166.59803796589148

>  <intra_energy>  (9) 
25.23093493350589

>  <rmsd>  (9) 
9.38963

>  <sdf_rank>  (9) 
0

$$$$

     RDKit          3D

 22 21  0  0  0  0  0  0  0  0999 V2000
   27.6409   20.4181  -41.4643 P   0  0  1  0  0  0  0  0  0  0  0  0
   27.0681   20.3194  -42.8621 O   0  0  0  0  0  0  0  0  0  0  0  0
   26.6434   20.0949  -40.3804 O   0  0  0  0  0  0  0  0  0  0  0  0
   28.9168   19.6167  -41.3181 O   0  0  0  0  0  0  0  0  0  0  0  0
   28.1561   22.1645  -41.2247 C   0  0  0  0  0  0  0  0  0  0  0  0
   28.3353   22.4105  -39.7507 C   0  0  0  0  0  0  0  0  0  0  0  0
   28.5058   21.5232  -38.9742 O   0  0  0  0  0  0  0  0  0  0  0  0
   28.2535   23.7704  -39.4049 N   0  0  0  0  0  0  0  0  0  0  0  0
   28.4069   24.2087  -38.0266 C   0  0  2  0  0  0  0  0  0  0  0  0
   27.1446   24.7351  -37.3703 C   0  0  0  0  0  0  0  0  0  0  0  0
   27.1415   25.4752  -36.3504 O   0  0  0  0  0  0  0  0  0  0  0  0
   26.0819   24.4173  -37.9632 O   0  0  0  0  0  0  0  0  0  0  0  0
   29.5334   25.2456  -38.0445 C   0  0  0  0  0  0  0  0  0  0  0  0
   30.8308   24.8046  -37.3895 C   0  0  0  0  0  0  0  0  0  0  0  0
   31.4886   23.8563  -37.8821 O   0  0  0  0  0  0  0  0  0  0  0  0
   31.2319   25.4399  -36.3780 O   0  0  0  0  0  0  0  0  0  0  0  0
   29.1054   22.3469  -41.7496 H   0  0  0  0  0  0  0  0  0  0  0  0
   27.3907   22.8427  -41.6301 H   0  0  0  0  0  0  0  0  0  0  0  0
   28.0816   24.4697  -40.1414 H   0  0  0  0  0  0  0  0  0  0  0  0
   28.6491   23.3415  -37.3947 H   0  0  0  0  0  0  0  0  0  0  0  0
   29.7498   25.4944  -39.0940 H   0  0  0  0  0  0  0  0  0  0  0  0
   29.1699   26.1004  -37.4554 H   0  0  0  0  0  0  0  0  0  0  0  0
  1  2  2  0
  1  3  1  1
  1  4  1  0
  1  5  1  0
  5  6  1  0
  6  7  2  0
  6  8  1  0
  8  9  1  0
  9 10  1  0
  9 13  1  0
 10 11  2  0
 10 12  1  0
 13 14  1  0
 14 15  2  0
 14 16  1  0
  5 17  1  0
  5 18  1  0
  8 19  1  0
  9 20  1  1
 13 21  1  0
 13 22  1  0
M  CHG  4   3  -1   4  -1  12  -1  16  -1
M  END
>  <filename_input>  (10) 
6YSP_PAL_docked.sdf

>  <pdb_id>  (10) 
6YSP_PAL

>  <pose_rank>  (10) 
9

>  <num_atoms_heavy>  (10) 
16

>  <num_torsions>  (10) 
6

>  <pose>  (10) 
[28.335330236268824, 22.410526725304525, -39.750743294981795, -0.09058509258181205, -0.023251262902664466, 0.6245083402485331, 5.304777293368624, 0.0016987020819176912, -0.8407983338145177, -2.6848394496264563, -3.015677981833618, 0.9820000092090351]

>  <energy>  (10) 
-57.99914617195082

>  <inter_energy>  (10) 
-72.4026351468444

>  <intra_energy>  (10) 
17.175969023452573

>  <rmsd>  (10) 
11.3992

>  <sdf_rank>  (10) 
0

$$$$

     RDKit          3D

 22 21  0  0  0  0  0  0  0  0999 V2000
   29.8430   27.5397  -40.7168 P   0  0  1  0  0  0  0  0  0  0  0  0
   30.7897   27.0100  -41.7727 O   0  0  0  0  0  0  0  0  0  0  0  0
   30.3079   27.2796  -39.3060 O   0  0  0  0  0  0  0  0  0  0  0  0
   29.5029   28.9974  -40.9422 O   0  0  0  0  0  0  0  0  0  0  0  0
   28.2519   26.6494  -40.9369 C   0  0  0  0  0  0  0  0  0  0  0  0
   27.8578   26.0443  -39.6164 C   0  0  0  0  0  0  0  0  0  0  0  0
   27.3271   26.6791  -38.7592 O   0  0  0  0  0  0  0  0  0  0  0  0
   28.2043   24.6865  -39.5069 N   0  0  0  0  0  0  0  0  0  0  0  0
   27.9007   23.9252  -38.3054 C   0  0  2  0  0  0  0  0  0  0  0  0
   28.8697   24.1184  -37.1544 C   0  0  0  0  0  0  0  0  0  0  0  0
   30.1176   23.9754  -37.2575 O   0  0  0  0  0  0  0  0  0  0  0  0
   28.3309   24.4927  -36.0814 O   0  0  0  0  0  0  0  0  0  0  0  0
   27.8078   22.4639  -38.7533 C   0  0  0  0  0  0  0  0  0  0  0  0
   26.4094   21.8712  -38.7455 C   0  0  0  0  0  0  0  0  0  0  0  0
   26.0540   21.1210  -37.8046 O   0  0  0  0  0  0  0  0  0  0  0  0
   25.6247   22.1874  -39.6793 O   0  0  0  0  0  0  0  0  0  0  0  0
   27.4751   27.3539  -41.2690 H   0  0  0  0  0  0  0  0  0  0  0  0
   28.3627   25.8604  -41.6953 H   0  0  0  0  0  0  0  0  0  0  0  0
   28.6822   24.2220  -40.2922 H   0  0  0  0  0  0  0  0  0  0  0  0
   26.9567   24.2893  -37.8737 H   0  0  0  0  0  0  0  0  0  0  0  0
   28.1997   22.3971  -39.7790 H   0  0  0  0  0  0  0  0  0  0  0  0
   28.3887   21.8835  -38.0214 H   0  0  0  0  0  0  0  0  0  0  0  0
  1  2  2  0
  1  3  1  1
  1  4  1  0
  1  5  1  0
  5  6  1  0
  6  7  2  0
  6  8  1  0
  8  9  1  0
  9 10  1  0
  9 13  1  0
 10 11  2  0
 10 12  1  0
 13 14  1  0
 14 15  2  0
 14 16  1  0
  5 17  1  0
  5 18  1  0
  8 19  1  0
  9 20  1  1
 13 21  1  0
 13 22  1  0
M  CHG  4   3  -1   4  -1  12  -1  16  -1
M  END
>  <filename_input>  (11) 
6YSP_PAL_docked.sdf

>  <pdb_id>  (11) 
6YSP_PAL

>  <pose_rank>  (11) 
10

>  <num_atoms_heavy>  (11) 
16

>  <num_torsions>  (11) 
6

>  <pose>  (11) 
[27.857826346368245, 26.04428612493104, -39.616359473876635, 0.30139878268535697, 0.2668547474491383, -2.2475266232318662, -6.2060835202791536, -0.6310130721875786, -0.319074257186009, -0.8172966935736973, -3.0027120825420237, -1.9199126548880043]

>  <energy>  (11) 
-151.78252159454385

>  <inter_energy>  (11) 
-139.37313148310278

>  <intra_energy>  (11) 
4.899096417815502

>  <rmsd>  (11) 
11.1189

>  <sdf_rank>  (11) 
0

$$$$

     RDKit          3D

 22 21  0  0  0  0  0  0  0  0999 V2000
   30.5348   25.0697  -40.9728 P   0  0  1  0  0  0  0  0  0  0  0  0
   30.9163   24.0686  -42.0425 O   0  0  0  0  0  0  0  0  0  0  0  0
   31.0458   24.7090  -39.6006 O   0  0  0  0  0  0  0  0  0  0  0  0
   30.9075   26.4839  -41.3632 O   0  0  0  0  0  0  0  0  0  0  0  0
   28.7005   25.0775  -40.8842 C   0  0  0  0  0  0  0  0  0  0  0  0
   28.2935   25.3140  -39.4546 C   0  0  0  0  0  0  0  0  0  0  0  0
   28.2564   26.4045  -38.9763 O   0  0  0  0  0  0  0  0  0  0  0  0
   27.9964   24.1272  -38.7625 N   0  0  0  0  0  0  0  0  0  0  0  0
   27.5782   24.1510  -37.3697 C   0  0  2  0  0  0  0  0  0  0  0  0
   28.3239   23.1993  -36.4536 C   0  0  0  0  0  0  0  0  0  0  0  0
   28.4253   21.9607  -36.6626 O   0  0  0  0  0  0  0  0  0  0  0  0
   28.8914   23.7567  -35.4794 O   0  0  0  0  0  0  0  0  0  0  0  0
   26.0700   23.8870  -37.3855 C   0  0  0  0  0  0  0  0  0  0  0  0
   25.2042   25.0932  -37.7052 C   0  0  0  0  0  0  0  0  0  0  0  0
   24.3018   25.4438  -36.9069 O   0  0  0  0  0  0  0  0  0  0  0  0
   25.4483   25.7372  -38.7604 O   0  0  0  0  0  0  0  0  0  0  0  0
   28.3014   25.8803  -41.5215 H   0  0  0  0  0  0  0  0  0  0  0  0
   28.3016   24.1144  -41.2356 H   0  0  0  0  0  0  0  0  0  0  0  0
   28.0763   23.2239  -39.2508 H   0  0  0  0  0  0  0  0  0  0  0  0
   27.8251   25.1300  -36.9331 H   0  0  0  0  0  0  0  0  0  0  0  0
   25.8681   23.1136  -38.1412 H   0  0  0  0  0  0  0  0  0  0  0  0
   25.8032   23.5832  -36.3625 H   0  0  0  0  0  0  0  0  0  0  0  0
  1  2  2  0
  1  3  1  1
  1  4  1  0
  1  5  1  0
  5  6  1  0
  6  7  2  0
  6  8  1  0
  8  9  1  0
  9 10  1  0
  9 13  1  0
 10 11  2  0
 10 12  1  0
 13 14  1  0
 14 15  2  0
 14 16  1  0
  5 17  1  0
  5 18  1  0
  8 19  1  0
  9 20  1  1
 13 21  1  0
 13 22  1  0
M  CHG  4   3  -1   4  -1  12  -1  16  -1
M  END
>  <filename_input>  (12) 
6YSP_PAL_docked.sdf

>  <pdb_id>  (12) 
6YSP_PAL

>  <pose_rank>  (12) 
11

>  <num_atoms_heavy>  (12) 
16

>  <num_torsions>  (12) 
6

>  <pose>  (12) 
[28.29346450258449, 25.313981981861698, -39.45463896773501, 0.06650861023766744, -0.3124413461858888, -2.7327412514608342, -6.189788142539221, -0.29760479503662074, -1.1913332461495527, -0.8451153268653663, -2.5072162872009356, -2.317103082889372]

>  <energy>  (12) 
-107.71711615310565

>  <inter_energy>  (12) 
-143.26539068629478

>  <intra_energy>  (12) 
31.5073210551193

>  <rmsd>  (12) 
10.6748

>  <sdf_rank>  (12) 
0

$$$$

     RDKit          3D

 22 21  0  0  0  0  0  0  0  0999 V2000
   29.3013   29.4612  -42.1667 P   0  0  1  0  0  0  0  0  0  0  0  0
   30.2375   30.2893  -41.3126 O   0  0  0  0  0  0  0  0  0  0  0  0
   29.9225   28.9890  -43.4572 O   0  0  0  0  0  0  0  0  0  0  0  0
   28.6816   28.3223  -41.3855 O   0  0  0  0  0  0  0  0  0  0  0  0
   27.8881   30.5471  -42.6100 C   0  0  0  0  0  0  0  0  0  0  0  0
   28.3236   31.9802  -42.4619 C   0  0  0  0  0  0  0  0  0  0  0  0
   29.1870   32.4547  -43.1317 O   0  0  0  0  0  0  0  0  0  0  0  0
   27.6291   32.6656  -41.4502 N   0  0  0  0  0  0  0  0  0  0  0  0
   27.9057   34.0636  -41.1596 C   0  0  2  0  0  0  0  0  0  0  0  0
   28.4852   34.3366  -39.7845 C   0  0  0  0  0  0  0  0  0  0  0  0
   28.8044   35.4844  -39.3739 O   0  0  0  0  0  0  0  0  0  0  0  0
   28.5743   33.3200  -39.0493 O   0  0  0  0  0  0  0  0  0  0  0  0
   26.5871   34.8048  -41.3967 C   0  0  0  0  0  0  0  0  0  0  0  0
   26.6690   35.9844  -42.3500 C   0  0  0  0  0  0  0  0  0  0  0  0
   26.3537   37.1320  -41.9523 O   0  0  0  0  0  0  0  0  0  0  0  0
   27.0943   35.7765  -43.5177 O   0  0  0  0  0  0  0  0  0  0  0  0
   27.5856   30.3567  -43.6503 H   0  0  0  0  0  0  0  0  0  0  0  0
   27.0331   30.3423  -41.9490 H   0  0  0  0  0  0  0  0  0  0  0  0
   26.9108   32.1685  -40.9044 H   0  0  0  0  0  0  0  0  0  0  0  0
   28.7088   34.4200  -41.8215 H   0  0  0  0  0  0  0  0  0  0  0  0
   25.8620   34.0862  -41.8065 H   0  0  0  0  0  0  0  0  0  0  0  0
   26.2919   35.2207  -40.4221 H   0  0  0  0  0  0  0  0  0  0  0  0
  1  2  2  0
  1  3  1  6
  1  4  1  0
  1  5  1  0
  5  6  1  0
  6  7  2  0
  6  8  1  0
  8  9  1  0
  9 10  1  0
  9 13  1  0
 10 11  2  0
 10 12  1  0
 13 14  1  0
 14 15  2  0
 14 16  1  0
  5 17  1  0
  5 18  1  0
  8 19  1  0
  9 20  1  6
 13 21  1  0
 13 22  1  0
M  CHG  4   3  -1   4  -1  12  -1  16  -1
M  END
>  <filename_input>  (13) 
6YSP_PAL_docked.sdf

>  <pdb_id>  (13) 
6YSP_PAL

>  <pose_rank>  (13) 
12

>  <num_atoms_heavy>  (13) 
16

>  <num_torsions>  (13) 
6

>  <pose>  (13) 
[28.323589048711096, 31.980160487629725, -42.46186836006702, -0.33739197101383117, -2.4148435422634957, -2.7157569279302542, -0.22221834355173858, -2.473393699805867, -0.9261950213767643, -3.0543773063049886, 2.9800191828292735, -2.251309261745481]

>  <energy>  (13) 
-104.9734817654349

>  <inter_energy>  (13) 
-114.65065517586578

>  <intra_energy>  (13) 
4.403222986579327

>  <rmsd>  (13) 
11.7266

>  <sdf_rank>  (13) 
0

$$$$

     RDKit          3D

 22 21  0  0  0  0  0  0  0  0999 V2000
   30.3341   25.9780  -39.8605 P   0  0  1  0  0  0  0  0  0  0  0  0
   31.4862   25.3404  -40.6074 O   0  0  0  0  0  0  0  0  0  0  0  0
   30.1386   25.4265  -38.4706 O   0  0  0  0  0  0  0  0  0  0  0  0
   30.4253   27.4890  -39.8635 O   0  0  0  0  0  0  0  0  0  0  0  0
   28.8105   25.6000  -40.8137 C   0  0  0  0  0  0  0  0  0  0  0  0
   27.6629   25.4756  -39.8480 C   0  0  0  0  0  0  0  0  0  0  0  0
   27.1820   26.4218  -39.3067 O   0  0  0  0  0  0  0  0  0  0  0  0
   27.2544   24.1460  -39.6457 N   0  0  0  0  0  0  0  0  0  0  0  0
   26.1548   23.8228  -38.7502 C   0  0  2  0  0  0  0  0  0  0  0  0
   26.3013   24.3408  -37.3319 C   0  0  0  0  0  0  0  0  0  0  0  0
   27.2747   24.0627  -36.5815 O   0  0  0  0  0  0  0  0  0  0  0  0
   25.3892   25.1282  -36.9717 O   0  0  0  0  0  0  0  0  0  0  0  0
   26.0100   22.2995  -38.8049 C   0  0  0  0  0  0  0  0  0  0  0  0
   24.7129   21.7931  -39.4115 C   0  0  0  0  0  0  0  0  0  0  0  0
   23.6680   21.7643  -38.7173 O   0  0  0  0  0  0  0  0  0  0  0  0
   24.7183   21.4484  -40.6234 O   0  0  0  0  0  0  0  0  0  0  0  0
   28.6084   26.4119  -41.5278 H   0  0  0  0  0  0  0  0  0  0  0  0
   28.9378   24.6606  -41.3716 H   0  0  0  0  0  0  0  0  0  0  0  0
   27.7429   23.3863  -40.1408 H   0  0  0  0  0  0  0  0  0  0  0  0
   25.2455   24.3401  -39.0903 H   0  0  0  0  0  0  0  0  0  0  0  0
   26.8432   21.9000  -39.4017 H   0  0  0  0  0  0  0  0  0  0  0  0
   26.0123   21.9556  -37.7600 H   0  0  0  0  0  0  0  0  0  0  0  0
  1  2  2  0
  1  3  1  1
  1  4  1  0
  1  5  1  0
  5  6  1  0
  6  7  2  0
  6  8  1  0
  8  9  1  0
  9 10  1  0
  9 13  1  0
 10 11  2  0
 10 12  1  0
 13 14  1  0
 14 15  2  0
 14 16  1  0
  5 17  1  0
  5 18  1  0
  8 19  1  0
  9 20  1  6
 13 21  1  0
 13 22  1  0
M  CHG  4   3  -1   4  -1  12  -1  16  -1
M  END
>  <filename_input>  (14) 
6YSP_PAL_docked.sdf

>  <pdb_id>  (14) 
6YSP_PAL

>  <pose_rank>  (14) 
13

>  <num_atoms_heavy>  (14) 
16

>  <num_torsions>  (14) 
6

>  <pose>  (14) 
[27.662853934055246, 25.475623475611, -39.84801744105492, 0.9252655824890526, -0.1670477263626334, -2.552944977241056, -6.341611033854501, -0.2593996996766426, 0.1167315788785239, -0.8929256986936611, -3.0931555165482414, -1.5523812401124435]

>  <energy>  (14) 
-110.90440175282299

>  <inter_energy>  (14) 
-132.98548969438355

>  <intra_energy>  (14) 
13.19568298642109

>  <rmsd>  (14) 
10.8961

>  <sdf_rank>  (14) 
0

$$$$

     RDKit          3D

 22 21  0  0  0  0  0  0  0  0999 V2000
   28.7876   26.1626  -41.2001 P   0  0  1  0  0  0  0  0  0  0  0  0
   29.8660   27.1956  -41.4482 O   0  0  0  0  0  0  0  0  0  0  0  0
   27.5469   26.7296  -40.5571 O   0  0  0  0  0  0  0  0  0  0  0  0
   28.4672   25.3685  -42.4483 O   0  0  0  0  0  0  0  0  0  0  0  0
   29.4907   24.9325  -40.0316 C   0  0  0  0  0  0  0  0  0  0  0  0
   28.3701   24.0702  -39.5160 C   0  0  0  0  0  0  0  0  0  0  0  0
   27.9429   23.1459  -40.1345 O   0  0  0  0  0  0  0  0  0  0  0  0
   27.8828   24.4888  -38.2658 N   0  0  0  0  0  0  0  0  0  0  0  0
   26.8023   23.7777  -37.6009 C   0  0  2  0  0  0  0  0  0  0  0  0
   27.1391   22.3721  -37.1408 C   0  0  0  0  0  0  0  0  0  0  0  0
   26.7483   21.3292  -37.7305 O   0  0  0  0  0  0  0  0  0  0  0  0
   27.8978   22.3233  -36.1389 O   0  0  0  0  0  0  0  0  0  0  0  0
   25.6240   23.8070  -38.5784 C   0  0  0  0  0  0  0  0  0  0  0  0
   24.2931   24.2240  -37.9769 C   0  0  0  0  0  0  0  0  0  0  0  0
   23.5105   24.9512  -38.6351 O   0  0  0  0  0  0  0  0  0  0  0  0
   23.9953   23.7879  -36.8329 O   0  0  0  0  0  0  0  0  0  0  0  0
   30.2311   24.3071  -40.5519 H   0  0  0  0  0  0  0  0  0  0  0  0
   29.9864   25.4470  -39.1951 H   0  0  0  0  0  0  0  0  0  0  0  0
   28.2988   25.3146  -37.8120 H   0  0  0  0  0  0  0  0  0  0  0  0
   26.5677   24.2799  -36.6507 H   0  0  0  0  0  0  0  0  0  0  0  0
   25.8689   24.5137  -39.3850 H   0  0  0  0  0  0  0  0  0  0  0  0
   25.4904   22.7718  -38.9255 H   0  0  0  0  0  0  0  0  0  0  0  0
  1  2  2  0
  1  3  1  1
  1  4  1  0
  1  5  1  0
  5  6  1  0
  6  7  2  0
  6  8  1  0
  8  9  1  0
  9 10  1  0
  9 13  1  0
 10 11  2  0
 10 12  1  0
 13 14  1  0
 14 15  2  0
 14 16  1  0
  5 17  1  0
  5 18  1  0
  8 19  1  0
  9 20  1  1
 13 21  1  0
 13 22  1  0
M  CHG  4   3  -1   4  -1  12  -1  16  -1
M  END
>  <filename_input>  (15) 
6YSP_PAL_docked.sdf

>  <pdb_id>  (15) 
6YSP_PAL

>  <pose_rank>  (15) 
14

>  <num_atoms_heavy>  (15) 
16

>  <num_torsions>  (15) 
6

>  <pose>  (15) 
[28.370084135733176, 24.070245290409616, -39.51599699422707, 0.6861071880060385, -1.184645800727176, 0.011683972502622736, -6.192597963427711, 0.07729938474299743, 2.2519760632865085, -1.7098076535680937, -3.401638235241522, 2.3197742648748516]

>  <energy>  (15) 
-138.3275516773874

>  <inter_energy>  (15) 
-133.88044613147636

>  <intra_energy>  (15) 
25.225753555453277

>  <rmsd>  (15) 
10.3739

>  <sdf_rank>  (15) 
0

$$$$

     RDKit          3D

 22 21  0  0  0  0  0  0  0  0999 V2000
   29.8527   22.2910  -31.3071 P   0  0  1  0  0  0  0  0  0  0  0  0
   30.4728   22.4198  -32.6821 O   0  0  0  0  0  0  0  0  0  0  0  0
   30.8283   21.8487  -30.2455 O   0  0  0  0  0  0  0  0  0  0  0  0
   29.1055   23.5441  -30.9040 O   0  0  0  0  0  0  0  0  0  0  0  0
   28.5582   20.9939  -31.4288 C   0  0  0  0  0  0  0  0  0  0  0  0
   27.7656   20.9902  -30.1494 C   0  0  0  0  0  0  0  0  0  0  0  0
   26.5939   20.7755  -30.1280 O   0  0  0  0  0  0  0  0  0  0  0  0
   28.5443   21.2878  -29.0177 N   0  0  0  0  0  0  0  0  0  0  0  0
   27.9575   21.3265  -27.6875 C   0  0  2  0  0  0  0  0  0  0  0  0
   27.1389   22.5652  -27.3768 C   0  0  0  0  0  0  0  0  0  0  0  0
   27.4839   23.7328  -27.7020 O   0  0  0  0  0  0  0  0  0  0  0  0
   26.0420   22.3314  -26.8077 O   0  0  0  0  0  0  0  0  0  0  0  0
   29.1243   21.1367  -26.7143 C   0  0  0  0  0  0  0  0  0  0  0  0
   28.7612   20.5030  -25.3826 C   0  0  0  0  0  0  0  0  0  0  0  0
   29.3020   20.9134  -24.3273 O   0  0  0  0  0  0  0  0  0  0  0  0
   27.8859   19.5967  -25.3747 O   0  0  0  0  0  0  0  0  0  0  0  0
   27.8928   21.2120  -32.2771 H   0  0  0  0  0  0  0  0  0  0  0  0
   29.0237   20.0099  -31.5872 H   0  0  0  0  0  0  0  0  0  0  0  0
   29.5492   21.4821  -29.1326 H   0  0  0  0  0  0  0  0  0  0  0  0
   27.2067   20.5274  -27.5984 H   0  0  0  0  0  0  0  0  0  0  0  0
   29.8736   20.4963  -27.2026 H   0  0  0  0  0  0  0  0  0  0  0  0
   29.4933   22.1463  -26.4807 H   0  0  0  0  0  0  0  0  0  0  0  0
  1  2  2  0
  1  3  1  1
  1  4  1  0
  1  5  1  0
  5  6  1  0
  6  7  2  0
  6  8  1  0
  8  9  1  0
  9 10  1  0
  9 13  1  0
 10 11  2  0
 10 12  1  0
 13 14  1  0
 14 15  2  0
 14 16  1  0
  5 17  1  0
  5 18  1  0
  8 19  1  0
  9 20  1  6
 13 21  1  0
 13 22  1  0
M  CHG  4   3  -1   4  -1  12  -1  16  -1
M  END
>  <filename_input>  (16) 
6YSP_PAL_docked.sdf

>  <pdb_id>  (16) 
6YSP_PAL

>  <pose_rank>  (16) 
15

>  <num_atoms_heavy>  (16) 
16

>  <num_torsions>  (16) 
6

>  <pose>  (16) 
[27.765628185296713, 20.990176825427927, -30.14943019563846, -0.6238843584074436, 3.269389540144171, 3.9860017543105513, 1.182025967483369, 0.45751514446227437, 6.036343129433739, -0.6240068363405514, 2.5245409349474235, 3.6724427084937092]

>  <energy>  (16) 
-135.51163752253157

>  <inter_energy>  (16) 
-145.5619727722726

>  <intra_energy>  (16) 
31.454529872801658

>  <rmsd>  (16) 
12.281

>  <sdf_rank>  (16) 
0

$$$$

     RDKit          3D

 22 21  0  0  0  0  0  0  0  0999 V2000
   30.6280   38.2672  -28.1458 P   0  0  1  0  0  0  0  0  0  0  0  0
   31.0290   36.8622  -28.5420 O   0  0  0  0  0  0  0  0  0  0  0  0
   31.4474   38.8303  -27.0119 O   0  0  0  0  0  0  0  0  0  0  0  0
   30.5897   39.2013  -29.3363 O   0  0  0  0  0  0  0  0  0  0  0  0
   28.8877   38.1780  -27.5657 C   0  0  0  0  0  0  0  0  0  0  0  0
   28.7540   36.9995  -26.6393 C   0  0  0  0  0  0  0  0  0  0  0  0
   29.3220   36.9452  -25.5934 O   0  0  0  0  0  0  0  0  0  0  0  0
   27.9243   35.9871  -27.1514 N   0  0  0  0  0  0  0  0  0  0  0  0
   27.6676   34.7695  -26.3985 C   0  0  2  0  0  0  0  0  0  0  0  0
   27.8452   33.4785  -27.1751 C   0  0  0  0  0  0  0  0  0  0  0  0
   28.9110   32.8061  -27.1821 O   0  0  0  0  0  0  0  0  0  0  0  0
   26.8124   33.0919  -27.7797 O   0  0  0  0  0  0  0  0  0  0  0  0
   26.2528   34.9225  -25.8332 C   0  0  0  0  0  0  0  0  0  0  0  0
   26.1434   35.7780  -24.5830 C   0  0  0  0  0  0  0  0  0  0  0  0
   26.6516   35.3798  -23.5070 O   0  0  0  0  0  0  0  0  0  0  0  0
   25.5699   36.8961  -24.6763 O   0  0  0  0  0  0  0  0  0  0  0  0
   28.6271   39.1027  -27.0300 H   0  0  0  0  0  0  0  0  0  0  0  0
   28.2094   38.0622  -28.4239 H   0  0  0  0  0  0  0  0  0  0  0  0
   27.4899   36.1098  -28.0773 H   0  0  0  0  0  0  0  0  0  0  0  0
   28.4237   34.6662  -25.6063 H   0  0  0  0  0  0  0  0  0  0  0  0
   25.6227   35.3766  -26.6122 H   0  0  0  0  0  0  0  0  0  0  0  0
   25.9310   33.9123  -25.5402 H   0  0  0  0  0  0  0  0  0  0  0  0
  1  2  2  0
  1  3  1  1
  1  4  1  0
  1  5  1  0
  5  6  1  0
  6  7  2  0
  6  8  1  0
  8  9  1  0
  9 10  1  0
  9 13  1  0
 10 11  2  0
 10 12  1  0
 13 14  1  0
 14 15  2  0
 14 16  1  0
  5 17  1  0
  5 18  1  0
  8 19  1  0
  9 20  1  1
 13 21  1  0
 13 22  1  0
M  CHG  4   3  -1   4  -1  12  -1  16  -1
M  END
>  <filename_input>  (17) 
6YSP_PAL_docked.sdf

>  <pdb_id>  (17) 
6YSP_PAL

>  <pose_rank>  (17) 
16

>  <num_atoms_heavy>  (17) 
16

>  <num_torsions>  (17) 
6

>  <pose>  (17) 
[28.754024596228913, 36.99946030242113, -26.639310314670016, -0.23729414916138974, 1.4720805993633757, -2.8575526713568196, -6.485810752879579, -2.0447372056612076, -1.2035524616507367, 1.755071862660108, -2.4979094545503093, -1.3247348282660907]

>  <energy>  (17) 
-133.82583350900845

>  <inter_energy>  (17) 
-131.18225641512842

>  <intra_energy>  (17) 
3.665665360379762

>  <rmsd>  (17) 
12.7198

>  <sdf_rank>  (17) 
0

$$$$

     RDKit          3D

 22 21  0  0  0  0  0  0  0  0999 V2000
   29.4524   24.1724  -35.7113 P   0  0  1  0  0  0  0  0  0  0  0  0
   28.8018   22.8520  -36.0646 O   0  0  0  0  0  0  0  0  0  0  0  0
   29.5334   24.4258  -34.2269 O   0  0  0  0  0  0  0  0  0  0  0  0
   30.7952   24.3406  -36.3895 O   0  0  0  0  0  0  0  0  0  0  0  0
   28.3973   25.4924  -36.4304 C   0  0  0  0  0  0  0  0  0  0  0  0
   27.5575   24.8885  -37.5236 C   0  0  0  0  0  0  0  0  0  0  0  0
   26.3715   24.8083  -37.4436 O   0  0  0  0  0  0  0  0  0  0  0  0
   28.3187   24.4193  -38.6081 N   0  0  0  0  0  0  0  0  0  0  0  0
   27.6853   23.8070  -39.7653 C   0  0  2  0  0  0  0  0  0  0  0  0
   27.4852   22.3060  -39.6752 C   0  0  0  0  0  0  0  0  0  0  0  0
   27.5448   21.6546  -38.5981 O   0  0  0  0  0  0  0  0  0  0  0  0
   27.1955   21.7559  -40.7685 O   0  0  0  0  0  0  0  0  0  0  0  0
   28.5410   24.2122  -40.9687 C   0  0  0  0  0  0  0  0  0  0  0  0
   29.0194   25.6538  -40.9678 C   0  0  0  0  0  0  0  0  0  0  0  0
   28.1993   26.5843  -41.1578 O   0  0  0  0  0  0  0  0  0  0  0  0
   30.2375   25.8756  -40.7343 O   0  0  0  0  0  0  0  0  0  0  0  0
   27.7452   25.9125  -35.6505 H   0  0  0  0  0  0  0  0  0  0  0  0
   29.0259   26.2975  -36.8386 H   0  0  0  0  0  0  0  0  0  0  0  0
   29.3443   24.5108  -38.5827 H   0  0  0  0  0  0  0  0  0  0  0  0
   26.6508   24.1715  -39.8482 H   0  0  0  0  0  0  0  0  0  0  0  0
   29.4265   23.5601  -40.9913 H   0  0  0  0  0  0  0  0  0  0  0  0
   27.8939   24.1066  -41.8519 H   0  0  0  0  0  0  0  0  0  0  0  0
  1  2  2  0
  1  3  1  1
  1  4  1  0
  1  5  1  0
  5  6  1  0
  6  7  2  0
  6  8  1  0
  8  9  1  0
  9 10  1  0
  9 13  1  0
 10 11  2  0
 10 12  1  0
 13 14  1  0
 14 15  2  0
 14 16  1  0
  5 17  1  0
  5 18  1  0
  8 19  1  0
  9 20  1  6
 13 21  1  0
 13 22  1  0
M  CHG  4   3  -1   4  -1  12  -1  16  -1
M  END
>  <filename_input>  (18) 
6YSP_PAL_docked.sdf

>  <pdb_id>  (18) 
6YSP_PAL

>  <pose_rank>  (18) 
17

>  <num_atoms_heavy>  (18) 
16

>  <num_torsions>  (18) 
6

>  <pose>  (18) 
[27.557486219910757, 24.888502067676665, -37.523624215823645, -2.6145504864661113, -1.478500937353585, 1.4633432859500934, -5.624786686175404, -3.2012266231119098, 5.8088024989751945, 0.39798602376133846, -8.104592905017268, -1.3786774404903968]

>  <energy>  (18) 
-129.52997929099604

>  <inter_energy>  (18) 
-118.15150205602943

>  <intra_energy>  (18) 
15.297996016871089

>  <rmsd>  (18) 
11.2005

>  <sdf_rank>  (18) 
0

$$$$

     RDKit          3D

 22 21  0  0  0  0  0  0  0  0999 V2000
   27.7764   32.3749  -41.4461 P   0  0  1  0  0  0  0  0  0  0  0  0
   28.3791   33.2603  -42.5159 O   0  0  0  0  0  0  0  0  0  0  0  0
   26.2735   32.2764  -41.5221 O   0  0  0  0  0  0  0  0  0  0  0  0
   28.4327   31.0115  -41.4045 O   0  0  0  0  0  0  0  0  0  0  0  0
   28.1890   33.1415  -39.8290 C   0  0  0  0  0  0  0  0  0  0  0  0
   29.3155   34.1174  -40.0380 C   0  0  0  0  0  0  0  0  0  0  0  0
   30.4168   33.7652  -40.3251 O   0  0  0  0  0  0  0  0  0  0  0  0
   28.9318   35.4541  -39.8340 N   0  0  0  0  0  0  0  0  0  0  0  0
   29.8811   36.5442  -39.9945 C   0  0  2  0  0  0  0  0  0  0  0  0
   29.9875   37.4893  -38.8127 C   0  0  0  0  0  0  0  0  0  0  0  0
   29.1747   38.4260  -38.5891 O   0  0  0  0  0  0  0  0  0  0  0  0
   30.9342   37.2301  -38.0263 O   0  0  0  0  0  0  0  0  0  0  0  0
   29.4728   37.2627  -41.2835 C   0  0  0  0  0  0  0  0  0  0  0  0
   29.8511   36.5501  -42.5704 C   0  0  0  0  0  0  0  0  0  0  0  0
   31.0562   36.4752  -42.9121 O   0  0  0  0  0  0  0  0  0  0  0  0
   28.9318   36.0147  -43.2456 O   0  0  0  0  0  0  0  0  0  0  0  0
   27.3090   33.6695  -39.4332 H   0  0  0  0  0  0  0  0  0  0  0  0
   28.4904   32.3658  -39.1097 H   0  0  0  0  0  0  0  0  0  0  0  0
   27.9601   35.6656  -39.5657 H   0  0  0  0  0  0  0  0  0  0  0  0
   30.8998   36.1331  -40.0516 H   0  0  0  0  0  0  0  0  0  0  0  0
   28.3799   37.3867  -41.2721 H   0  0  0  0  0  0  0  0  0  0  0  0
   30.0238   38.2147  -41.2892 H   0  0  0  0  0  0  0  0  0  0  0  0
  1  2  2  0
  1  3  1  6
  1  4  1  0
  1  5  1  0
  5  6  1  0
  6  7  2  0
  6  8  1  0
  8  9  1  0
  9 10  1  0
  9 13  1  0
 10 11  2  0
 10 12  1  0
 13 14  1  0
 14 15  2  0
 14 16  1  0
  5 17  1  0
  5 18  1  0
  8 19  1  0
  9 20  1  6
 13 21  1  0
 13 22  1  0
M  CHG  4   3  -1   4  -1  12  -1  16  -1
M  END
>  <filename_input>  (19) 
6YSP_PAL_docked.sdf

>  <pdb_id>  (19) 
6YSP_PAL

>  <pose_rank>  (19) 
18

>  <num_atoms_heavy>  (19) 
16

>  <num_torsions>  (19) 
6

>  <pose>  (19) 
[29.31551216680872, 34.11743998731996, -40.03799707673527, -0.21308184561707147, -3.657536255957576, -2.3116700136636275, -2.525738585479113, -3.1467657894847467, -1.1303717770890664, -1.3013558072188802, -2.4241040043263427, -1.3719657025561192]

>  <energy>  (19) 
-125.24442254769855

>  <inter_energy>  (19) 
-128.24471961156053

>  <intra_energy>  (19) 
13.335733461660745

>  <rmsd>  (19) 
12.4169

>  <sdf_rank>  (19) 
0

$$$$

     RDKit          3D

 22 21  0  0  0  0  0  0  0  0999 V2000
   14.3715   38.0140  -32.4090 P   0  0  1  0  0  0  0  0  0  0  0  0
   14.4804   36.5102  -32.5448 O   0  0  0  0  0  0  0  0  0  0  0  0
   14.5334   38.7500  -33.7152 O   0  0  0  0  0  0  0  0  0  0  0  0
   13.1115   38.4259  -31.6782 O   0  0  0  0  0  0  0  0  0  0  0  0
   15.7438   38.5478  -31.3115 C   0  0  0  0  0  0  0  0  0  0  0  0
   15.2338   38.5883  -29.8961 C   0  0  0  0  0  0  0  0  0  0  0  0
   14.8788   39.6002  -29.3769 O   0  0  0  0  0  0  0  0  0  0  0  0
   15.2504   37.3310  -29.2679 N   0  0  0  0  0  0  0  0  0  0  0  0
   14.7898   37.1661  -27.8982 C   0  0  2  0  0  0  0  0  0  0  0  0
   13.3080   37.4070  -27.6802 C   0  0  0  0  0  0  0  0  0  0  0  0
   12.8458   38.3673  -27.0076 O   0  0  0  0  0  0  0  0  0  0  0  0
   12.5579   36.5931  -28.2774 O   0  0  0  0  0  0  0  0  0  0  0  0
   15.6645   38.0954  -27.0523 C   0  0  0  0  0  0  0  0  0  0  0  0
   16.1806   37.4969  -25.7552 C   0  0  0  0  0  0  0  0  0  0  0  0
   17.4145   37.4636  -25.5299 O   0  0  0  0  0  0  0  0  0  0  0  0
   15.3378   37.0808  -24.9160 O   0  0  0  0  0  0  0  0  0  0  0  0
   16.5774   37.8339  -31.3854 H   0  0  0  0  0  0  0  0  0  0  0  0
   16.1020   39.5434  -31.6122 H   0  0  0  0  0  0  0  0  0  0  0  0
   15.5952   36.5111  -29.7873 H   0  0  0  0  0  0  0  0  0  0  0  0
   14.8962   36.1116  -27.6038 H   0  0  0  0  0  0  0  0  0  0  0  0
   16.5328   38.3910  -27.6595 H   0  0  0  0  0  0  0  0  0  0  0  0
   15.0214   38.9398  -26.7634 H   0  0  0  0  0  0  0  0  0  0  0  0
  1  2  2  0
  1  3  1  6
  1  4  1  0
  1  5  1  0
  5  6  1  0
  6  7  2  0
  6  8  1  0
  8  9  1  0
  9 10  1  0
  9 13  1  0
 10 11  2  0
 10 12  1  0
 13 14  1  0
 14 15  2  0
 14 16  1  0
  5 17  1  0
  5 18  1  0
  8 19  1  0
  9 20  1  1
 13 21  1  0
 13 22  1  0
M  CHG  4   3  -1   4  -1  12  -1  16  -1
M  END
>  <filename_input>  (20) 
6YSP_PAL_docked.sdf

>  <pdb_id>  (20) 
6YSP_PAL

>  <pose_rank>  (20) 
19

>  <num_atoms_heavy>  (20) 
16

>  <num_torsions>  (20) 
6

>  <pose>  (20) 
[15.233808645494406, 38.58832192241003, -29.896064958755534, 0.17107056046024086, -0.23221077647170316, -2.4640622127416427, 3.2336702591651196, 1.8201551294820093, 2.243256028807302, -1.8661772371999579, 2.8121862094932255, 2.005848269612831]

>  <energy>  (20) 
-120.877290112276

>  <inter_energy>  (20) 
-120.25411471705563

>  <intra_energy>  (20) 
24.01532818452247

>  <rmsd>  (20) 
11.801

>  <sdf_rank>  (20) 
0

$$$$

     RDKit          3D

 22 21  0  0  0  0  0  0  0  0999 V2000
   12.6246   26.1712  -25.9916 P   0  0  1  0  0  0  0  0  0  0  0  0
   11.3918   25.6072  -25.3180 O   0  0  0  0  0  0  0  0  0  0  0  0
   12.4161   27.5456  -26.5763 O   0  0  0  0  0  0  0  0  0  0  0  0
   13.8375   26.1175  -25.0875 O   0  0  0  0  0  0  0  0  0  0  0  0
   13.0299   25.0447  -27.3843 C   0  0  0  0  0  0  0  0  0  0  0  0
   13.0780   23.6353  -26.8587 C   0  0  0  0  0  0  0  0  0  0  0  0
   12.1015   22.9599  -26.7599 O   0  0  0  0  0  0  0  0  0  0  0  0
   14.3707   23.2307  -26.4836 N   0  0  0  0  0  0  0  0  0  0  0  0
   14.6208   21.8983  -25.9567 C   0  0  2  0  0  0  0  0  0  0  0  0
   14.2817   21.7077  -24.4905 C   0  0  0  0  0  0  0  0  0  0  0  0
   14.0993   22.6589  -23.6841 O   0  0  0  0  0  0  0  0  0  0  0  0
   14.1392   20.5071  -24.1440 O   0  0  0  0  0  0  0  0  0  0  0  0
   16.0921   21.6022  -26.2605 C   0  0  0  0  0  0  0  0  0  0  0  0
   17.0515   21.8333  -25.1059 C   0  0  0  0  0  0  0  0  0  0  0  0
   17.6013   20.8547  -24.5450 O   0  0  0  0  0  0  0  0  0  0  0  0
   17.2987   23.0215  -24.7673 O   0  0  0  0  0  0  0  0  0  0  0  0
   12.2571   25.1243  -28.1631 H   0  0  0  0  0  0  0  0  0  0  0  0
   14.0020   25.3182  -27.8203 H   0  0  0  0  0  0  0  0  0  0  0  0
   15.1556   23.8901  -26.5836 H   0  0  0  0  0  0  0  0  0  0  0  0
   13.9427   21.1820  -26.4437 H   0  0  0  0  0  0  0  0  0  0  0  0
   16.1713   20.5474  -26.5625 H   0  0  0  0  0  0  0  0  0  0  0  0
   16.3886   22.3093  -27.0491 H   0  0  0  0  0  0  0  0  0  0  0  0
  1  2  2  0
  1  3  1  6
  1  4  1  0
  1  5  1  0
  5  6  1  0
  6  7  2  0
  6  8  1  0
  8  9  1  0
  9 10  1  0
  9 13  1  0
 10 11  2  0
 10 12  1  0
 13 14  1  0
 14 15  2  0
 14 16  1  0
  5 17  1  0
  5 18  1  0
  8 19  1  0
  9 20  1  6
 13 21  1  0
 13 22  1  0
M  CHG  4   3  -1   4  -1  12  -1  16  -1
M  END
>  <filename_input>  (21) 
6YSP_PAL_docked.sdf

>  <pdb_id>  (21) 
6YSP_PAL

>  <pose_rank>  (21) 
20

>  <num_atoms_heavy>  (21) 
16

>  <num_torsions>  (21) 
6

>  <pose>  (21) 
[13.077950392857465, 23.635264316361223, -26.858663925628225, -3.5742644123822322, -1.4880992862259095, 3.012387487301387, 0.15576910363611451, 2.5467698976870663, -0.31243759053692566, -0.1748794444910481, 0.6215560404938171, 1.7742028226786384]

>  <energy>  (21) 
-114.2325865051157

>  <inter_energy>  (21) 
-108.26989817929864

>  <intra_energy>  (21) 
13.767360629854393

>  <rmsd>  (21) 
12.7487

>  <sdf_rank>  (21) 
0

$$$$

     RDKit          3D

 22 21  0  0  0  0  0  0  0  0999 V2000
   13.7945   21.0020  -28.0296 P   0  0  1  0  0  0  0  0  0  0  0  0
   15.1934   20.5233  -27.7046 O   0  0  0  0  0  0  0  0  0  0  0  0
   13.1514   20.2532  -29.1697 O   0  0  0  0  0  0  0  0  0  0  0  0
   12.9091   21.0361  -26.8023 O   0  0  0  0  0  0  0  0  0  0  0  0
   13.9422   22.7576  -28.5480 C   0  0  0  0  0  0  0  0  0  0  0  0
   14.0862   23.6082  -27.3148 C   0  0  0  0  0  0  0  0  0  0  0  0
   15.0663   23.5857  -26.6378 O   0  0  0  0  0  0  0  0  0  0  0  0
   12.9489   24.3902  -27.0487 N   0  0  0  0  0  0  0  0  0  0  0  0
   12.8991   25.2829  -25.9015 C   0  0  2  0  0  0  0  0  0  0  0  0
   12.7992   24.5977  -24.5519 C   0  0  0  0  0  0  0  0  0  0  0  0
   12.0151   23.6418  -24.3077 O   0  0  0  0  0  0  0  0  0  0  0  0
   13.6115   25.0260  -23.6925 O   0  0  0  0  0  0  0  0  0  0  0  0
   11.7259   26.2309  -26.1650 C   0  0  0  0  0  0  0  0  0  0  0  0
   12.1087   27.6736  -26.4460 C   0  0  0  0  0  0  0  0  0  0  0  0
   12.2026   28.4909  -25.4986 O   0  0  0  0  0  0  0  0  0  0  0  0
   12.3615   28.0004  -27.6364 O   0  0  0  0  0  0  0  0  0  0  0  0
   14.8267   22.8820  -29.1901 H   0  0  0  0  0  0  0  0  0  0  0  0
   13.0484   23.0606  -29.1132 H   0  0  0  0  0  0  0  0  0  0  0  0
   12.1357   24.3299  -27.6779 H   0  0  0  0  0  0  0  0  0  0  0  0
   13.8562   25.8184  -25.8163 H   0  0  0  0  0  0  0  0  0  0  0  0
   11.1704   25.8508  -27.0351 H   0  0  0  0  0  0  0  0  0  0  0  0
   11.1339   26.2478  -25.2380 H   0  0  0  0  0  0  0  0  0  0  0  0
  1  2  2  0
  1  3  1  6
  1  4  1  0
  1  5  1  0
  5  6  1  0
  6  7  2  0
  6  8  1  0
  8  9  1  0
  9 10  1  0
  9 13  1  0
 10 11  2  0
 10 12  1  0
 13 14  1  0
 14 15  2  0
 14 16  1  0
  5 17  1  0
  5 18  1  0
  8 19  1  0
  9 20  1  1
 13 21  1  0
 13 22  1  0
M  CHG  4   3  -1   4  -1  12  -1  16  -1
M  END
>  <filename_input>  (22) 
6YSP_PAL_docked.sdf

>  <pdb_id>  (22) 
6YSP_PAL

>  <pose_rank>  (22) 
21

>  <num_atoms_heavy>  (22) 
16

>  <num_torsions>  (22) 
6

>  <pose>  (22) 
[14.086150063828963, 23.608154673240456, -27.314761802124117, 0.641836970316976, -1.1105667009559517, -4.405377779659627, -0.12135471533037426, 2.064899792025136, -0.1546014616705284, -0.6826023048661782, 3.2465299297633883, -1.7242732707982606]

>  <energy>  (22) 
-112.77074833608339

>  <inter_energy>  (22) 
-117.58002278350203

>  <intra_energy>  (22) 
5.200606968397369

>  <rmsd>  (22) 
12.2704

>  <sdf_rank>  (22) 
0

$$$$

     RDKit          3D

 22 21  0  0  0  0  0  0  0  0999 V2000
   29.8931   30.6208  -41.1226 P   0  0  1  0  0  0  0  0  0  0  0  0
   29.6198   31.3995  -42.3917 O   0  0  0  0  0  0  0  0  0  0  0  0
   28.7713   29.6913  -40.7329 O   0  0  0  0  0  0  0  0  0  0  0  0
   31.2280   29.9089  -41.1723 O   0  0  0  0  0  0  0  0  0  0  0  0
   30.0707   31.8531  -39.7725 C   0  0  0  0  0  0  0  0  0  0  0  0
   30.3912   33.1894  -40.3862 C   0  0  0  0  0  0  0  0  0  0  0  0
   31.2279   33.3199  -41.2242 O   0  0  0  0  0  0  0  0  0  0  0  0
   29.6268   34.2399  -39.8498 N   0  0  0  0  0  0  0  0  0  0  0  0
   29.7891   35.6069  -40.3194 C   0  0  2  0  0  0  0  0  0  0  0  0
   30.2256   36.6061  -39.2649 C   0  0  0  0  0  0  0  0  0  0  0  0
   29.4612   37.0622  -38.3727 O   0  0  0  0  0  0  0  0  0  0  0  0
   31.4449   36.9106  -39.3135 O   0  0  0  0  0  0  0  0  0  0  0  0
   28.4533   35.9841  -40.9659 C   0  0  0  0  0  0  0  0  0  0  0  0
   28.2263   35.4234  -42.3591 C   0  0  0  0  0  0  0  0  0  0  0  0
   28.8845   35.8729  -43.3283 O   0  0  0  0  0  0  0  0  0  0  0  0
   27.3986   34.4830  -42.4938 O   0  0  0  0  0  0  0  0  0  0  0  0
   29.1304   31.9208  -39.2057 H   0  0  0  0  0  0  0  0  0  0  0  0
   30.8763   31.5493  -39.0879 H   0  0  0  0  0  0  0  0  0  0  0  0
   28.9389   34.0379  -39.1102 H   0  0  0  0  0  0  0  0  0  0  0  0
   30.6242   35.6485  -41.0341 H   0  0  0  0  0  0  0  0  0  0  0  0
   27.6453   35.6171  -40.3159 H   0  0  0  0  0  0  0  0  0  0  0  0
   28.4667   37.0784  -41.0764 H   0  0  0  0  0  0  0  0  0  0  0  0
  1  2  2  0
  1  3  1  1
  1  4  1  0
  1  5  1  0
  5  6  1  0
  6  7  2  0
  6  8  1  0
  8  9  1  0
  9 10  1  0
  9 13  1  0
 10 11  2  0
 10 12  1  0
 13 14  1  0
 14 15  2  0
 14 16  1  0
  5 17  1  0
  5 18  1  0
  8 19  1  0
  9 20  1  6
 13 21  1  0
 13 22  1  0
M  CHG  4   3  -1   4  -1  12  -1  16  -1
M  END
>  <filename_input>  (23) 
6YSP_PAL_docked.sdf

>  <pdb_id>  (23) 
6YSP_PAL

>  <pose_rank>  (23) 
22

>  <num_atoms_heavy>  (23) 
16

>  <num_torsions>  (23) 
6

>  <pose>  (23) 
[30.391202501650742, 33.18939497343067, -40.386191332303916, 0.018645124782727934, -3.022778273410537, -1.9900558670550224, -2.1584773312896086, -3.1987884943077503, -0.9985495140281072, -1.2025846468818913, -2.457334021130312, -1.387717859632594]

>  <energy>  (23) 
-85.41811328955042

>  <inter_energy>  (23) 
-84.7681247172905

>  <intra_energy>  (23) 
12.594600367796914

>  <rmsd>  (23) 
12.4777

>  <sdf_rank>  (23) 
0

$$$$

     RDKit          3D

 22 21  0  0  0  0  0  0  0  0999 V2000
   18.4510   36.5711  -42.7407 P   0  0  1  0  0  0  0  0  0  0  0  0
   17.4319   37.4138  -43.4775 O   0  0  0  0  0  0  0  0  0  0  0  0
   17.9547   35.1891  -42.3972 O   0  0  0  0  0  0  0  0  0  0  0  0
   19.7811   36.5330  -43.4623 O   0  0  0  0  0  0  0  0  0  0  0  0
   18.8036   37.4305  -41.1564 C   0  0  0  0  0  0  0  0  0  0  0  0
   20.2175   37.9446  -41.1975 C   0  0  0  0  0  0  0  0  0  0  0  0
   20.5266   38.9051  -41.8311 O   0  0  0  0  0  0  0  0  0  0  0  0
   21.1100   37.1640  -40.4427 N   0  0  0  0  0  0  0  0  0  0  0  0
   22.5213   37.5046  -40.3549 C   0  0  2  0  0  0  0  0  0  0  0  0
   22.8178   38.9528  -40.0145 C   0  0  0  0  0  0  0  0  0  0  0  0
   23.5586   39.6985  -40.7097 O   0  0  0  0  0  0  0  0  0  0  0  0
   22.2140   39.3794  -38.9970 O   0  0  0  0  0  0  0  0  0  0  0  0
   23.1337   37.0806  -41.6927 C   0  0  0  0  0  0  0  0  0  0  0  0
   23.8114   35.7213  -41.6934 C   0  0  0  0  0  0  0  0  0  0  0  0
   23.9122   35.0728  -40.6238 O   0  0  0  0  0  0  0  0  0  0  0  0
   24.2234   35.2632  -42.7925 O   0  0  0  0  0  0  0  0  0  0  0  0
   18.1064   38.2715  -41.0271 H   0  0  0  0  0  0  0  0  0  0  0  0
   18.6795   36.7344  -40.3138 H   0  0  0  0  0  0  0  0  0  0  0  0
   20.7580   36.3354  -39.9424 H   0  0  0  0  0  0  0  0  0  0  0  0
   22.9709   36.9725  -39.5036 H   0  0  0  0  0  0  0  0  0  0  0  0
   22.3300   37.0602  -42.4434 H   0  0  0  0  0  0  0  0  0  0  0  0
   23.9230   37.8145  -41.9126 H   0  0  0  0  0  0  0  0  0  0  0  0
  1  2  2  0
  1  3  1  1
  1  4  1  0
  1  5  1  0
  5  6  1  0
  6  7  2  0
  6  8  1  0
  8  9  1  0
  9 10  1  0
  9 13  1  0
 10 11  2  0
 10 12  1  0
 13 14  1  0
 14 15  2  0
 14 16  1  0
  5 17  1  0
  5 18  1  0
  8 19  1  0
  9 20  1  1
 13 21  1  0
 13 22  1  0
M  CHG  4   3  -1   4  -1  12  -1  16  -1
M  END
>  <filename_input>  (24) 
6YSP_PAL_docked.sdf

>  <pdb_id>  (24) 
6YSP_PAL

>  <pose_rank>  (24) 
23

>  <num_atoms_heavy>  (24) 
16

>  <num_torsions>  (24) 
6

>  <pose>  (24) 
[20.217459720716676, 37.94463118825533, -41.197506887289094, -2.3107290312695454, -0.504771978889887, -1.9077382527432796, -0.016048153684163742, 1.4878539682737886, 1.9417967843012822, 4.197717796298325, -2.793145111315824, -0.22716351505372087]

>  <energy>  (24) 
-92.062860263257

>  <inter_energy>  (24) 
-110.57380105800326

>  <intra_energy>  (24) 
27.904226918305504

>  <rmsd>  (24) 
11.518

>  <sdf_rank>  (24) 
0

$$$$

     RDKit          3D

 22 21  0  0  0  0  0  0  0  0999 V2000
   23.7797   36.0849  -41.8485 P   0  0  1  0  0  0  0  0  0  0  0  0
   25.1537   35.4498  -41.8256 O   0  0  0  0  0  0  0  0  0  0  0  0
   23.8119   37.5850  -41.9987 O   0  0  0  0  0  0  0  0  0  0  0  0
   22.8719   35.4320  -42.8688 O   0  0  0  0  0  0  0  0  0  0  0  0
   22.9995   35.7185  -40.2268 C   0  0  0  0  0  0  0  0  0  0  0  0
   21.5115   35.6133  -40.4268 C   0  0  0  0  0  0  0  0  0  0  0  0
   20.9597   34.5652  -40.5551 O   0  0  0  0  0  0  0  0  0  0  0  0
   20.8713   36.8639  -40.4697 N   0  0  0  0  0  0  0  0  0  0  0  0
   19.4320   36.9686  -40.6508 C   0  0  2  0  0  0  0  0  0  0  0  0
   18.9833   37.4025  -42.0333 C   0  0  0  0  0  0  0  0  0  0  0  0
   18.2865   38.4292  -42.2538 O   0  0  0  0  0  0  0  0  0  0  0  0
   19.4124   36.6783  -42.9678 O   0  0  0  0  0  0  0  0  0  0  0  0
   18.9443   37.9176  -39.5525 C   0  0  0  0  0  0  0  0  0  0  0  0
   19.8907   39.0557  -39.2120 C   0  0  0  0  0  0  0  0  0  0  0  0
   20.2531   39.2325  -38.0237 O   0  0  0  0  0  0  0  0  0  0  0  0
   20.3193   39.7743  -40.1540 O   0  0  0  0  0  0  0  0  0  0  0  0
   23.3893   34.7680  -39.8336 H   0  0  0  0  0  0  0  0  0  0  0  0
   23.2280   36.5197  -39.5085 H   0  0  0  0  0  0  0  0  0  0  0  0
   21.4320   37.7223  -40.3712 H   0  0  0  0  0  0  0  0  0  0  0  0
   18.9818   35.9684  -40.5671 H   0  0  0  0  0  0  0  0  0  0  0  0
   17.9901   38.3555  -39.8806 H   0  0  0  0  0  0  0  0  0  0  0  0
   18.8589   37.3091  -38.6401 H   0  0  0  0  0  0  0  0  0  0  0  0
  1  2  2  0
  1  3  1  6
  1  4  1  0
  1  5  1  0
  5  6  1  0
  6  7  2  0
  6  8  1  0
  8  9  1  0
  9 10  1  0
  9 13  1  0
 10 11  2  0
 10 12  1  0
 13 14  1  0
 14 15  2  0
 14 16  1  0
  5 17  1  0
  5 18  1  0
  8 19  1  0
  9 20  1  1
 13 21  1  0
 13 22  1  0
M  CHG  4   3  -1   4  -1  12  -1  16  -1
M  END
>  <filename_input>  (25) 
6YSP_PAL_docked.sdf

>  <pdb_id>  (25) 
6YSP_PAL

>  <pose_rank>  (25) 
24

>  <num_atoms_heavy>  (25) 
16

>  <num_torsions>  (25) 
6

>  <pose>  (25) 
[21.511486872457965, 35.61334152320933, -40.426784566269895, 0.7655309742438003, 4.148742854087966, -0.9656011463876651, 0.3720228660490364, 0.8386182378367487, -0.7409645993770226, 4.2744271715858195, -6.75624621712771, -2.349821205225183]

>  <energy>  (25) 
-91.53375611520401

>  <inter_energy>  (25) 
-77.51054811700375

>  <intra_energy>  (25) 
15.38990711272197

>  <rmsd>  (25) 
11.259

>  <sdf_rank>  (25) 
0

$$$$

     RDKit          3D

 22 21  0  0  0  0  0  0  0  0999 V2000
   19.4430   28.6630  -35.8670 P   0  0  1  0  0  0  0  0  0  0  0  0
   19.3170   29.1030  -37.3100 O   0  0  0  0  0  0  0  0  0  0  0  0
   19.1600   29.7630  -34.8750 O   0  0  0  0  0  0  0  0  0  0  0  0
   18.6290   27.4190  -35.5820 O   0  0  0  0  0  0  0  0  0  0  0  0
   21.1880   28.1460  -35.6210 C   0  0  0  0  0  0  0  0  0  0  0  0
   21.4690   28.1050  -34.1430 C   0  0  0  0  0  0  0  0  0  0  0  0
   21.0840   27.2180  -33.4470 O   0  0  0  0  0  0  0  0  0  0  0  0
   22.1960   29.2190  -33.6890 N   0  0  0  0  0  0  0  0  0  0  0  0
   22.5690   29.3570  -32.2900 C   0  0  2  0  0  0  0  0  0  0  0  0
   21.4090   29.4510  -31.3170 C   0  0  0  0  0  0  0  0  0  0  0  0
   20.2020   29.5280  -31.6710 O   0  0  0  0  0  0  0  0  0  0  0  0
   21.7430   29.3900  -30.1060 O   0  0  0  0  0  0  0  0  0  0  0  0
   23.4880   30.5800  -32.2250 C   0  0  0  0  0  0  0  0  0  0  0  0
   22.8450   31.8960  -32.6270 C   0  0  0  0  0  0  0  0  0  0  0  0
   21.6070   31.9520  -32.8240 O   0  0  0  0  0  0  0  0  0  0  0  0
   23.5810   32.9150  -32.7140 O   0  0  0  0  0  0  0  0  0  0  0  0
   21.3444   27.1480  -36.0565 H   0  0  0  0  0  0  0  0  0  0  0  0
   21.8657   28.8583  -36.1143 H   0  0  0  0  0  0  0  0  0  0  0  0
   22.4697   29.9513  -34.3596 H   0  0  0  0  0  0  0  0  0  0  0  0
   23.0739   28.4384  -31.9565 H   0  0  0  0  0  0  0  0  0  0  0  0
   23.8486   30.6797  -31.1906 H   0  0  0  0  0  0  0  0  0  0  0  0
   24.2902   30.3974  -32.9552 H   0  0  0  0  0  0  0  0  0  0  0  0
  1  2  2  0
  1  3  1  1
  1  4  1  0
  1  5  1  0
  5  6  1  0
  6  7  2  0
  6  8  1  0
  8  9  1  0
  9 10  1  0
  9 13  1  0
 10 11  2  0
 10 12  1  0
 13 14  1  0
 14 15  2  0
 14 16  1  0
  5 17  1  0
  5 18  1  0
  8 19  1  0
  9 20  1  1
 13 21  1  0
 13 22  1  0
M  CHG  4   3  -1   4  -1  12  -1  16  -1
M  END
>  <filename_input>  (26) 
6YSP_PAL_docked.sdf

>  <pdb_id>  (26) 
6YSP_PAL

>  <pose_rank>  (26) 
25

>  <num_atoms_heavy>  (26) 
16

>  <num_torsions>  (26) 
6

>  <pose>  (26) 
[21.469, 28.105, -34.143, 1e-06, 1e-06, 1e-06, 0.0, 0.0, 0.0, 0.0, 0.0, 0.0]

>  <energy>  (26) 
-1085.696464837591

>  <inter_energy>  (26) 
-1148.274148863371

>  <intra_energy>  (26) 
47.41954997538586

>  <rmsd>  (26) 
0.0

>  <sdf_rank>  (26) 
0

$$$$
