
     RDKit          3D

 52 55  0  0  0  0  0  0  0  0999 V2000
   -0.4213    7.2309  -21.8575 C   0  0  0  0  0  0  0  0  0  0  0  0
    2.1021    5.4035  -19.1634 C   0  0  0  0  0  0  0  0  0  0  0  0
    3.1714    6.3342  -18.6456 C   0  0  0  0  0  0  0  0  0  0  0  0
    2.8721    7.4927  -17.9350 C   0  0  0  0  0  0  0  0  0  0  0  0
    3.8889    8.3229  -17.4947 C   0  0  0  0  0  0  0  0  0  0  0  0
    5.1935    7.9749  -17.7696 C   0  0  0  0  0  0  0  0  0  0  0  0
    4.5392    6.0894  -18.8628 C   0  0  0  0  0  0  0  0  0  0  0  0
    5.0156    3.9017  -17.0753 C   0  0  0  0  0  0  0  0  0  0  0  0
    1.0071    6.9475  -23.9532 C   0  0  0  0  0  0  0  0  0  0  0  0
    3.2453    6.0658  -24.1681 C   0  0  0  0  0  0  0  0  0  0  0  0
    1.9160    6.5250  -26.1393 C   0  0  0  0  0  0  0  0  0  0  0  0
    0.3902    6.5834  -21.0051 N   0  0  0  0  0  0  0  0  0  0  0  0
   -1.6165    7.7664  -21.5689 N   0  0  0  0  0  0  0  0  0  0  0  0
   -2.0202    7.6200  -20.3025 C   0  0  0  0  0  0  0  0  0  0  0  0
   -1.2815    6.9762  -19.3353 C   0  0  0  0  0  0  0  0  0  0  0  0
   -0.0553    6.4651  -19.7458 C   0  0  0  0  0  0  0  0  0  0  0  0
    0.7464    5.8207  -18.8564 N   0  0  0  0  0  0  0  0  0  0  0  0
   -0.0783    7.3755  -23.1672 N   0  0  0  0  0  0  0  0  0  0  0  0
    5.5423    6.8713  -18.4442 N   0  0  0  0  0  0  0  0  0  0  0  0
    4.9080    4.9098  -19.6039 N   0  0  0  0  0  0  0  0  0  0  0  0
    5.4046    3.6067  -18.7588 S   0  0  1  0  0  0  0  0  0  0  0  0
    5.5115    5.1346  -20.9203 C   0  0  0  0  0  0  0  0  0  0  0  0
    6.8240    3.5529  -18.8910 O   0  0  0  0  0  0  0  0  0  0  0  0
    4.6273    2.5035  -19.2173 O   0  0  0  0  0  0  0  0  0  0  0  0
    0.8705    6.9613  -25.3395 C   0  0  0  0  0  0  0  0  0  0  0  0
    2.1953    6.5026  -23.3756 C   0  0  0  0  0  0  0  0  0  0  0  0
    3.0912    6.0806  -25.5475 C   0  0  0  0  0  0  0  0  0  0  0  0
    2.0707    6.4155  -27.6254 C   0  0  0  0  0  0  0  0  0  0  0  0
    3.4507    5.8156  -27.7831 C   0  0  0  0  0  0  0  0  0  0  0  0
    3.9806    5.6682  -26.5416 N   0  0  0  0  0  0  0  0  0  0  0  0
    3.9969    5.4923  -28.8305 O   0  0  0  0  0  0  0  0  0  0  0  0
    2.2029    5.3376  -20.2568 H   0  0  0  0  0  0  0  0  0  0  0  0
    2.2555    4.4372  -18.6606 H   0  0  0  0  0  0  0  0  0  0  0  0
    1.8240    7.7497  -17.7223 H   0  0  0  0  0  0  0  0  0  0  0  0
    3.6597    9.2424  -16.9363 H   0  0  0  0  0  0  0  0  0  0  0  0
    5.9939    8.6411  -17.4152 H   0  0  0  0  0  0  0  0  0  0  0  0
    5.7279    3.3615  -16.4343 H   0  0  0  0  0  0  0  0  0  0  0  0
    5.0802    4.9800  -16.8676 H   0  0  0  0  0  0  0  0  0  0  0  0
    3.9947    3.5488  -16.8676 H   0  0  0  0  0  0  0  0  0  0  0  0
    4.1828    5.7141  -23.7125 H   0  0  0  0  0  0  0  0  0  0  0  0
   -2.9972    8.0374  -20.0176 H   0  0  0  0  0  0  0  0  0  0  0  0
   -1.6398    6.8724  -18.3005 H   0  0  0  0  0  0  0  0  0  0  0  0
    0.3729    5.6186  -17.9181 H   0  0  0  0  0  0  0  0  0  0  0  0
   -0.7687    7.9209  -23.7028 H   0  0  0  0  0  0  0  0  0  0  0  0
    6.5355    5.5160  -20.7940 H   0  0  0  0  0  0  0  0  0  0  0  0
    5.5395    4.1866  -21.4776 H   0  0  0  0  0  0  0  0  0  0  0  0
    4.9125    5.8699  -21.4776 H   0  0  0  0  0  0  0  0  0  0  0  0
   -0.0638    7.3171  -25.7983 H   0  0  0  0  0  0  0  0  0  0  0  0
    2.3006    6.4981  -22.2807 H   0  0  0  0  0  0  0  0  0  0  0  0
    1.3021    5.7562  -28.0550 H   0  0  0  0  0  0  0  0  0  0  0  0
    1.9558    7.3785  -28.1444 H   0  0  0  0  0  0  0  0  0  0  0  0
    4.9235    5.2975  -26.3560 H   0  0  0  0  0  0  0  0  0  0  0  0
  1 12  2  0
  1 13  1  0
  1 18  1  0
  2  3  1  0
  2 17  1  0
  3  4  2  0
  3  7  1  0
  4  5  1  0
  5  6  2  0
  6 19  1  0
  7 19  2  0
  7 20  1  0
 21  8  1  0
  9 18  1  0
  9 25  2  0
  9 26  1  0
 10 26  2  0
 10 27  1  0
 11 25  1  0
 11 27  2  0
 11 28  1  0
 12 16  1  0
 13 14  2  0
 14 15  1  0
 15 16  2  0
 16 17  1  0
 21 20  1  6
 20 22  1  0
 21 23  2  0
 21 24  2  0
 27 30  1  0
 28 29  1  0
 29 30  1  0
 29 31  2  0
  2 32  1  0
  2 33  1  0
  4 34  1  0
  5 35  1  0
  6 36  1  0
  8 37  1  0
  8 38  1  0
  8 39  1  0
 10 40  1  0
 14 41  1  0
 15 42  1  0
 17 43  1  0
 18 44  1  0
 22 45  1  0
 22 46  1  0
 22 47  1  0
 25 48  1  0
 26 49  1  0
 28 50  1  0
 28 51  1  0
 30 52  1  0
M  END
>  <filename_input>  (1) 
6YT6_PKE_docked.sdf

>  <pdb_id>  (1) 
6YT6_PKE

>  <pose_rank>  (1) 
0

>  <num_atoms_heavy>  (1) 
31

>  <num_torsions>  (1) 
5

>  <pose>  (1) 
[-0.42131176063460624, 7.230875167727865, -21.85753313676862, 3.1866283459485234, -0.798630913170122, -5.2333696556412175, 0.28227011736764024, -0.06619412839547095, 0.1934641728715045, -0.18654411946442495, 1.6356760007355402]

>  <energy>  (1) 
-1958.153742985892

>  <inter_energy>  (1) 
-1960.2006108719768

>  <intra_energy>  (1) 
25.43424491691989

>  <rmsd>  (1) 
0.743338

>  <sdf_rank>  (1) 
0

$$$$

     RDKit          3D

 52 55  0  0  0  0  0  0  0  0999 V2000
   -0.3239    7.1377  -21.8144 C   0  0  0  0  0  0  0  0  0  0  0  0
    1.9972    4.8756  -19.2768 C   0  0  0  0  0  0  0  0  0  0  0  0
    2.9185    4.5802  -18.1184 C   0  0  0  0  0  0  0  0  0  0  0  0
    2.9994    3.3209  -17.5317 C   0  0  0  0  0  0  0  0  0  0  0  0
    3.8488    3.1043  -16.4600 C   0  0  0  0  0  0  0  0  0  0  0  0
    4.6099    4.1548  -15.9956 C   0  0  0  0  0  0  0  0  0  0  0  0
    3.7441    5.5690  -17.5541 C   0  0  0  0  0  0  0  0  0  0  0  0
    4.9484    9.0788  -19.1536 C   0  0  0  0  0  0  0  0  0  0  0  0
    1.0750    6.8555  -23.9301 C   0  0  0  0  0  0  0  0  0  0  0  0
    3.3049    5.9695  -24.2053 C   0  0  0  0  0  0  0  0  0  0  0  0
    1.8780    6.3135  -26.1313 C   0  0  0  0  0  0  0  0  0  0  0  0
    0.4368    6.3861  -21.0015 N   0  0  0  0  0  0  0  0  0  0  0  0
   -1.4738    7.7475  -21.4915 N   0  0  0  0  0  0  0  0  0  0  0  0
   -1.8855    7.5666  -20.2322 C   0  0  0  0  0  0  0  0  0  0  0  0
   -1.1970    6.8182  -19.3041 C   0  0  0  0  0  0  0  0  0  0  0  0
   -0.0144    6.2366  -19.7476 C   0  0  0  0  0  0  0  0  0  0  0  0
    0.7368    5.4869  -18.8975 N   0  0  0  0  0  0  0  0  0  0  0  0
    0.0270    7.3239  -23.1167 N   0  0  0  0  0  0  0  0  0  0  0  0
    4.5779    5.3861  -16.5225 N   0  0  0  0  0  0  0  0  0  0  0  0
    3.6930    6.8960  -18.1137 N   0  0  0  0  0  0  0  0  0  0  0  0
    4.8731    7.3276  -19.1529 S   0  0  1  0  0  0  0  0  0  0  0  0
    3.1325    7.9408  -17.2523 C   0  0  0  0  0  0  0  0  0  0  0  0
    4.4551    6.8936  -20.4460 O   0  0  0  0  0  0  0  0  0  0  0  0
    6.0930    6.8213  -18.6170 O   0  0  0  0  0  0  0  0  0  0  0  0
    0.8705    6.7911  -25.3065 C   0  0  0  0  0  0  0  0  0  0  0  0
    2.2926    6.4471  -23.3878 C   0  0  0  0  0  0  0  0  0  0  0  0
    3.0832    5.9064  -25.5742 C   0  0  0  0  0  0  0  0  0  0  0  0
    1.9602    6.1212  -27.6148 C   0  0  0  0  0  0  0  0  0  0  0  0
    3.3342    5.5174  -27.8064 C   0  0  0  0  0  0  0  0  0  0  0  0
    3.9251    5.4414  -26.5863 N   0  0  0  0  0  0  0  0  0  0  0  0
    3.8301    5.1373  -28.8597 O   0  0  0  0  0  0  0  0  0  0  0  0
    2.5175    5.5578  -19.9652 H   0  0  0  0  0  0  0  0  0  0  0  0
    1.7513    3.9077  -19.7380 H   0  0  0  0  0  0  0  0  0  0  0  0
    2.3863    2.4946  -17.9208 H   0  0  0  0  0  0  0  0  0  0  0  0
    3.9148    2.1127  -15.9885 H   0  0  0  0  0  0  0  0  0  0  0  0
    5.2818    3.9721  -15.1440 H   0  0  0  0  0  0  0  0  0  0  0  0
    4.9641    9.4455  -18.1167 H   0  0  0  0  0  0  0  0  0  0  0  0
    5.8614    9.4063  -19.6723 H   0  0  0  0  0  0  0  0  0  0  0  0
    4.0668    9.4834  -19.6723 H   0  0  0  0  0  0  0  0  0  0  0  0
    4.2655    5.6466  -23.7776 H   0  0  0  0  0  0  0  0  0  0  0  0
   -2.8271    8.0422  -19.9204 H   0  0  0  0  0  0  0  0  0  0  0  0
   -1.5604    6.6882  -18.2740 H   0  0  0  0  0  0  0  0  0  0  0  0
    0.3942    5.3459  -17.9364 H   0  0  0  0  0  0  0  0  0  0  0  0
   -0.6202    7.9479  -23.6193 H   0  0  0  0  0  0  0  0  0  0  0  0
    3.2804    7.6650  -16.1978 H   0  0  0  0  0  0  0  0  0  0  0  0
    3.6396    8.8954  -17.4563 H   0  0  0  0  0  0  0  0  0  0  0  0
    2.0567    8.0462  -17.4563 H   0  0  0  0  0  0  0  0  0  0  0  0
   -0.0872    7.1179  -25.7379 H   0  0  0  0  0  0  0  0  0  0  0  0
    2.4515    6.5044  -22.3008 H   0  0  0  0  0  0  0  0  0  0  0  0
    1.1751    5.4367  -27.9684 H   0  0  0  0  0  0  0  0  0  0  0  0
    1.8146    7.0533  -28.1805 H   0  0  0  0  0  0  0  0  0  0  0  0
    4.8781    5.0844  -26.4269 H   0  0  0  0  0  0  0  0  0  0  0  0
  1 12  2  0
  1 13  1  0
  1 18  1  0
  2  3  1  0
  2 17  1  0
  3  4  2  0
  3  7  1  0
  4  5  1  0
  5  6  2  0
  6 19  1  0
  7 19  2  0
  7 20  1  0
 21  8  1  0
  9 18  1  0
  9 25  2  0
  9 26  1  0
 10 26  2  0
 10 27  1  0
 11 25  1  0
 11 27  2  0
 11 28  1  0
 12 16  1  0
 13 14  2  0
 14 15  1  0
 15 16  2  0
 16 17  1  0
 21 20  1  1
 20 22  1  0
 21 23  2  0
 21 24  2  0
 27 30  1  0
 28 29  1  0
 29 30  1  0
 29 31  2  0
  2 32  1  0
  2 33  1  0
  4 34  1  0
  5 35  1  0
  6 36  1  0
  8 37  1  0
  8 38  1  0
  8 39  1  0
 10 40  1  0
 14 41  1  0
 15 42  1  0
 17 43  1  0
 18 44  1  0
 22 45  1  0
 22 46  1  0
 22 47  1  0
 25 48  1  0
 26 49  1  0
 28 50  1  0
 28 51  1  0
 30 52  1  0
M  END
>  <filename_input>  (2) 
6YT6_PKE_docked.sdf

>  <pdb_id>  (2) 
6YT6_PKE

>  <pose_rank>  (2) 
1

>  <num_atoms_heavy>  (2) 
31

>  <num_torsions>  (2) 
5

>  <pose>  (2) 
[-0.32389309505187425, 7.137677581176331, -21.814431519313363, 0.23869268427404539, -5.147216923200755, -3.559498629749294, -6.143748078903269, -0.17361258204235175, 1.19177619204958, 1.5157941452821355, 4.956279812820638]

>  <energy>  (2) 
-1688.0378044793163

>  <inter_energy>  (2) 
-1715.1236743912723

>  <intra_energy>  (2) 
25.548067073117117

>  <rmsd>  (2) 
2.47869

>  <sdf_rank>  (2) 
0

$$$$

     RDKit          3D

 52 55  0  0  0  0  0  0  0  0999 V2000
   -0.3399    7.1861  -21.9184 C   0  0  0  0  0  0  0  0  0  0  0  0
    2.1492    5.9185  -18.6220 C   0  0  0  0  0  0  0  0  0  0  0  0
    3.2489    5.0430  -19.1714 C   0  0  0  0  0  0  0  0  0  0  0  0
    3.2460    4.5757  -20.4823 C   0  0  0  0  0  0  0  0  0  0  0  0
    4.2704    3.7614  -20.9345 C   0  0  0  0  0  0  0  0  0  0  0  0
    5.2871    3.4319  -20.0649 C   0  0  0  0  0  0  0  0  0  0  0  0
    4.3400    4.6366  -18.3826 C   0  0  0  0  0  0  0  0  0  0  0  0
    6.7319    6.2668  -17.7381 C   0  0  0  0  0  0  0  0  0  0  0  0
    0.9640    6.8683  -24.0889 C   0  0  0  0  0  0  0  0  0  0  0  0
    1.6601    5.6558  -26.0584 C   0  0  0  0  0  0  0  0  0  0  0  0
    3.3028    6.7125  -24.6271 C   0  0  0  0  0  0  0  0  0  0  0  0
    0.4411    6.4257  -21.1334 N   0  0  0  0  0  0  0  0  0  0  0  0
   -1.4646    7.8177  -21.5514 N   0  0  0  0  0  0  0  0  0  0  0  0
   -1.8263    7.6506  -20.2750 C   0  0  0  0  0  0  0  0  0  0  0  0
   -1.1125    6.8953  -19.3718 C   0  0  0  0  0  0  0  0  0  0  0  0
    0.0403    6.2909  -19.8608 C   0  0  0  0  0  0  0  0  0  0  0  0
    0.8135    5.5327  -19.0383 N   0  0  0  0  0  0  0  0  0  0  0  0
   -0.0407    7.3592  -23.2353 N   0  0  0  0  0  0  0  0  0  0  0  0
    5.3459    3.8550  -18.7952 N   0  0  0  0  0  0  0  0  0  0  0  0
    4.3893    5.0805  -17.0125 N   0  0  0  0  0  0  0  0  0  0  0  0
    5.3527    6.3478  -16.6594 S   0  0  1  0  0  0  0  0  0  0  0  0
    4.2315    4.0430  -15.9896 C   0  0  0  0  0  0  0  0  0  0  0  0
    5.8126    6.1494  -15.3237 O   0  0  0  0  0  0  0  0  0  0  0  0
    4.6069    7.5236  -16.9642 O   0  0  0  0  0  0  0  0  0  0  0  0
    2.2923    7.1650  -23.7919 C   0  0  0  0  0  0  0  0  0  0  0  0
    0.6559    6.1126  -25.2191 C   0  0  0  0  0  0  0  0  0  0  0  0
    2.9781    5.9648  -25.7515 C   0  0  0  0  0  0  0  0  0  0  0  0
    4.7924    6.8667  -24.5826 C   0  0  0  0  0  0  0  0  0  0  0  0
    5.2481    6.1562  -25.8381 C   0  0  0  0  0  0  0  0  0  0  0  0
    4.1461    5.6489  -26.4481 N   0  0  0  0  0  0  0  0  0  0  0  0
    6.3954    6.0662  -26.2569 O   0  0  0  0  0  0  0  0  0  0  0  0
    2.1928    5.8775  -17.5236 H   0  0  0  0  0  0  0  0  0  0  0  0
    2.3232    6.9292  -19.0197 H   0  0  0  0  0  0  0  0  0  0  0  0
    2.4269    4.8544  -21.1616 H   0  0  0  0  0  0  0  0  0  0  0  0
    4.2725    3.3848  -21.9680 H   0  0  0  0  0  0  0  0  0  0  0  0
    6.0963    2.7847  -20.4341 H   0  0  0  0  0  0  0  0  0  0  0  0
    7.6576    6.2124  -17.1463 H   0  0  0  0  0  0  0  0  0  0  0  0
    6.6492    5.3720  -18.3725 H   0  0  0  0  0  0  0  0  0  0  0  0
    6.7545    7.1652  -18.3725 H   0  0  0  0  0  0  0  0  0  0  0  0
    1.4171    5.0599  -26.9505 H   0  0  0  0  0  0  0  0  0  0  0  0
   -2.7456    8.1443  -19.9269 H   0  0  0  0  0  0  0  0  0  0  0  0
   -1.4346    6.7772  -18.3267 H   0  0  0  0  0  0  0  0  0  0  0  0
    0.4321    4.6402  -18.6936 H   0  0  0  0  0  0  0  0  0  0  0  0
   -0.6976    7.9917  -23.7142 H   0  0  0  0  0  0  0  0  0  0  0  0
    4.3009    4.4990  -14.9910 H   0  0  0  0  0  0  0  0  0  0  0  0
    3.2496    3.5606  -16.1050 H   0  0  0  0  0  0  0  0  0  0  0  0
    5.0255    3.2905  -16.1050 H   0  0  0  0  0  0  0  0  0  0  0  0
    2.5389    7.7563  -22.8978 H   0  0  0  0  0  0  0  0  0  0  0  0
   -0.3940    5.8765  -25.4470 H   0  0  0  0  0  0  0  0  0  0  0  0
    5.0803    7.9281  -24.6027 H   0  0  0  0  0  0  0  0  0  0  0  0
    5.2424    6.4571  -23.6662 H   0  0  0  0  0  0  0  0  0  0  0  0
    4.1691    5.0985  -27.3184 H   0  0  0  0  0  0  0  0  0  0  0  0
  1 12  2  0
  1 13  1  0
  1 18  1  0
  2  3  1  0
  2 17  1  0
  3  4  2  0
  3  7  1  0
  4  5  1  0
  5  6  2  0
  6 19  1  0
  7 19  2  0
  7 20  1  0
 21  8  1  0
  9 18  1  0
  9 25  2  0
  9 26  1  0
 10 26  2  0
 10 27  1  0
 11 25  1  0
 11 27  2  0
 11 28  1  0
 12 16  1  0
 13 14  2  0
 14 15  1  0
 15 16  2  0
 16 17  1  0
 21 20  1  6
 20 22  1  0
 21 23  2  0
 21 24  2  0
 27 30  1  0
 28 29  1  0
 29 30  1  0
 29 31  2  0
  2 32  1  0
  2 33  1  0
  4 34  1  0
  5 35  1  0
  6 36  1  0
  8 37  1  0
  8 38  1  0
  8 39  1  0
 10 40  1  0
 14 41  1  0
 15 42  1  0
 17 43  1  0
 18 44  1  0
 22 45  1  0
 22 46  1  0
 22 47  1  0
 25 48  1  0
 26 49  1  0
 28 50  1  0
 28 51  1  0
 30 52  1  0
M  END
>  <filename_input>  (3) 
6YT6_PKE_docked.sdf

>  <pdb_id>  (3) 
6YT6_PKE

>  <pose_rank>  (3) 
2

>  <num_atoms_heavy>  (3) 
31

>  <num_torsions>  (3) 
5

>  <pose>  (3) 
[-0.33992967051970735, 7.186123356601135, -21.918394684811368, 0.639260171708068, -6.161956069901619, 0.5980520021959417, -3.6244235106025946, 0.9853854379049729, 2.779074685082028, 0.5258150138289128, 0.8477679434345061]

>  <energy>  (3) 
-1461.7118503952306

>  <inter_energy>  (3) 
-1479.3456427511537

>  <intra_energy>  (3) 
24.258117189729123

>  <rmsd>  (3) 
2.88648

>  <sdf_rank>  (3) 
0

$$$$

     RDKit          3D

 52 55  0  0  0  0  0  0  0  0999 V2000
    1.0125    6.8773  -24.0686 C   0  0  0  0  0  0  0  0  0  0  0  0
    1.2690    4.2558  -20.1976 C   0  0  0  0  0  0  0  0  0  0  0  0
    0.8369    4.9151  -18.9106 C   0  0  0  0  0  0  0  0  0  0  0  0
   -0.3719    4.6172  -18.2888 C   0  0  0  0  0  0  0  0  0  0  0  0
   -0.7306    5.2614  -17.1170 C   0  0  0  0  0  0  0  0  0  0  0  0
    0.1329    6.1927  -16.5825 C   0  0  0  0  0  0  0  0  0  0  0  0
    1.6299    5.8828  -18.2681 C   0  0  0  0  0  0  0  0  0  0  0  0
    3.9084    5.1528  -16.5940 C   0  0  0  0  0  0  0  0  0  0  0  0
    2.4387    6.5273  -26.1557 C   0  0  0  0  0  0  0  0  0  0  0  0
    4.4460    5.2092  -26.4137 C   0  0  0  0  0  0  0  0  0  0  0  0
    3.4352    6.2883  -28.3314 C   0  0  0  0  0  0  0  0  0  0  0  0
    1.7107    6.0783  -23.2449 N   0  0  0  0  0  0  0  0  0  0  0  0
   -0.1072    7.5506  -23.7662 N   0  0  0  0  0  0  0  0  0  0  0  0
   -0.5560    7.3863  -22.5173 C   0  0  0  0  0  0  0  0  0  0  0  0
    0.0679    6.5941  -21.5799 C   0  0  0  0  0  0  0  0  0  0  0  0
    1.2244    5.9479  -22.0020 C   0  0  0  0  0  0  0  0  0  0  0  0
    1.9125    5.1511  -21.1413 N   0  0  0  0  0  0  0  0  0  0  0  0
    1.4019    7.0506  -25.3617 N   0  0  0  0  0  0  0  0  0  0  0  0
    1.3104    6.5168  -17.1329 N   0  0  0  0  0  0  0  0  0  0  0  0
    2.8877    6.2402  -18.8737 N   0  0  0  0  0  0  0  0  0  0  0  0
    4.2421    5.5674  -18.2640 S   0  0  1  0  0  0  0  0  0  0  0  0
    2.9869    7.6028  -19.4042 C   0  0  0  0  0  0  0  0  0  0  0  0
    5.2451    6.5816  -18.2852 O   0  0  0  0  0  0  0  0  0  0  0  0
    4.4634    4.3638  -18.9947 O   0  0  0  0  0  0  0  0  0  0  0  0
    2.4377    6.8081  -27.5202 C   0  0  0  0  0  0  0  0  0  0  0  0
    3.4450    5.7318  -25.6099 C   0  0  0  0  0  0  0  0  0  0  0  0
    4.4276    5.4938  -27.7722 C   0  0  0  0  0  0  0  0  0  0  0  0
    3.7004    6.4017  -29.8015 C   0  0  0  0  0  0  0  0  0  0  0  0
    4.9283    5.5394  -29.9958 C   0  0  0  0  0  0  0  0  0  0  0  0
    5.2965    5.0657  -28.7777 N   0  0  0  0  0  0  0  0  0  0  0  0
    5.4875    5.2838  -31.0550 O   0  0  0  0  0  0  0  0  0  0  0  0
    1.9755    3.4495  -19.9512 H   0  0  0  0  0  0  0  0  0  0  0  0
    0.3542    3.8887  -20.6858 H   0  0  0  0  0  0  0  0  0  0  0  0
   -1.0448    3.8671  -18.7300 H   0  0  0  0  0  0  0  0  0  0  0  0
   -1.6864    5.0342  -16.6223 H   0  0  0  0  0  0  0  0  0  0  0  0
   -0.1613    6.6986  -15.6511 H   0  0  0  0  0  0  0  0  0  0  0  0
    4.4582    5.8358  -15.9297 H   0  0  0  0  0  0  0  0  0  0  0  0
    2.8291    5.2444  -16.4021 H   0  0  0  0  0  0  0  0  0  0  0  0
    4.2285    4.1181  -16.4021 H   0  0  0  0  0  0  0  0  0  0  0  0
    5.2398    4.5810  -25.9833 H   0  0  0  0  0  0  0  0  0  0  0  0
   -1.4752    7.9137  -22.2224 H   0  0  0  0  0  0  0  0  0  0  0  0
   -0.3248    6.4793  -20.5588 H   0  0  0  0  0  0  0  0  0  0  0  0
    2.9418    5.1847  -21.1601 H   0  0  0  0  0  0  0  0  0  0  0  0
    0.8028    7.7138  -25.8737 H   0  0  0  0  0  0  0  0  0  0  0  0
    3.0389    8.3181  -18.5701 H   0  0  0  0  0  0  0  0  0  0  0  0
    3.8938    7.6913  -20.0203 H   0  0  0  0  0  0  0  0  0  0  0  0
    2.1023    7.8217  -20.0203 H   0  0  0  0  0  0  0  0  0  0  0  0
    1.6482    7.4402  -27.9528 H   0  0  0  0  0  0  0  0  0  0  0  0
    3.4446    5.5167  -24.5311 H   0  0  0  0  0  0  0  0  0  0  0  0
    2.8517    6.0179  -30.3867 H   0  0  0  0  0  0  0  0  0  0  0  0
    3.8433    7.4396  -30.1365 H   0  0  0  0  0  0  0  0  0  0  0  0
    6.1166    4.4640  -28.6153 H   0  0  0  0  0  0  0  0  0  0  0  0
  1 12  2  0
  1 13  1  0
  1 18  1  0
  2  3  1  0
  2 17  1  0
  3  4  2  0
  3  7  1  0
  4  5  1  0
  5  6  2  0
  6 19  1  0
  7 19  2  0
  7 20  1  0
 21  8  1  0
  9 18  1  0
  9 25  2  0
  9 26  1  0
 10 26  2  0
 10 27  1  0
 11 25  1  0
 11 27  2  0
 11 28  1  0
 12 16  1  0
 13 14  2  0
 14 15  1  0
 15 16  2  0
 16 17  1  0
 21 20  1  6
 20 22  1  0
 21 23  2  0
 21 24  2  0
 27 30  1  0
 28 29  1  0
 29 30  1  0
 29 31  2  0
  2 32  1  0
  2 33  1  0
  4 34  1  0
  5 35  1  0
  6 36  1  0
  8 37  1  0
  8 38  1  0
  8 39  1  0
 10 40  1  0
 14 41  1  0
 15 42  1  0
 17 43  1  0
 18 44  1  0
 22 45  1  0
 22 46  1  0
 22 47  1  0
 25 48  1  0
 26 49  1  0
 28 50  1  0
 28 51  1  0
 30 52  1  0
M  END
>  <filename_input>  (4) 
6YT6_PKE_docked.sdf

>  <pdb_id>  (4) 
6YT6_PKE

>  <pose_rank>  (4) 
3

>  <num_atoms_heavy>  (4) 
31

>  <num_torsions>  (4) 
5

>  <pose>  (4) 
[1.0125103217978382, 6.877326163821059, -24.0686319661021, 0.8216717799591335, -0.652932318511679, -6.242150359396683, 0.4433827028418015, -2.6442776312205516, 3.28629329656553, 2.25257378827674, 0.9760277548796276]

>  <energy>  (4) 
-581.011248882049

>  <inter_energy>  (4) 
-653.3947521925431

>  <intra_energy>  (4) 
77.63613276747047

>  <rmsd>  (4) 
3.15242

>  <sdf_rank>  (4) 
0

$$$$

     RDKit          3D

 52 55  0  0  0  0  0  0  0  0999 V2000
   -0.4723    7.1806  -21.9486 C   0  0  0  0  0  0  0  0  0  0  0  0
    1.6381    4.7354  -19.2632 C   0  0  0  0  0  0  0  0  0  0  0  0
    2.8723    4.5259  -18.4202 C   0  0  0  0  0  0  0  0  0  0  0  0
    2.8076    4.1268  -17.0887 C   0  0  0  0  0  0  0  0  0  0  0  0
    3.9687    3.9637  -16.3524 C   0  0  0  0  0  0  0  0  0  0  0  0
    5.1800    4.1985  -16.9657 C   0  0  0  0  0  0  0  0  0  0  0  0
    4.1659    4.7347  -18.9311 C   0  0  0  0  0  0  0  0  0  0  0  0
    6.3872    4.1506  -21.7220 C   0  0  0  0  0  0  0  0  0  0  0  0
    0.8184    6.7890  -24.1150 C   0  0  0  0  0  0  0  0  0  0  0  0
    1.5875    5.6404  -26.0956 C   0  0  0  0  0  0  0  0  0  0  0  0
    3.1757    6.6469  -24.5697 C   0  0  0  0  0  0  0  0  0  0  0  0
    0.3999    6.5874  -21.1169 N   0  0  0  0  0  0  0  0  0  0  0  0
   -1.6514    7.7236  -21.6120 N   0  0  0  0  0  0  0  0  0  0  0  0
   -1.9698    7.6462  -20.3156 C   0  0  0  0  0  0  0  0  0  0  0  0
   -1.1627    7.0627  -19.3649 C   0  0  0  0  0  0  0  0  0  0  0  0
    0.0392    6.5374  -19.8263 C   0  0  0  0  0  0  0  0  0  0  0  0
    0.9041    5.9494  -18.9572 N   0  0  0  0  0  0  0  0  0  0  0  0
   -0.2175    7.2535  -23.2841 N   0  0  0  0  0  0  0  0  0  0  0  0
    5.3046    4.5794  -18.2440 N   0  0  0  0  0  0  0  0  0  0  0  0
    4.2935    5.1610  -20.3017 N   0  0  0  0  0  0  0  0  0  0  0  0
    4.6654    4.0307  -21.4167 S   0  0  1  0  0  0  0  0  0  0  0  0
    4.8079    6.5169  -20.5129 C   0  0  0  0  0  0  0  0  0  0  0  0
    3.9697    4.3911  -22.6089 O   0  0  0  0  0  0  0  0  0  0  0  0
    4.3978    2.7650  -20.8185 O   0  0  0  0  0  0  0  0  0  0  0  0
    2.1348    7.0735  -23.7587 C   0  0  0  0  0  0  0  0  0  0  0  0
    0.5527    6.0712  -25.2801 C   0  0  0  0  0  0  0  0  0  0  0  0
    2.8932    5.9369  -25.7294 C   0  0  0  0  0  0  0  0  0  0  0  0
    4.6626    6.7970  -24.4642 C   0  0  0  0  0  0  0  0  0  0  0  0
    5.1650    6.1271  -25.7244 C   0  0  0  0  0  0  0  0  0  0  0  0
    4.0864    5.6420  -26.3916 N   0  0  0  0  0  0  0  0  0  0  0  0
    6.3272    6.0489  -26.1025 O   0  0  0  0  0  0  0  0  0  0  0  0
    1.9448    4.7752  -20.3188 H   0  0  0  0  0  0  0  0  0  0  0  0
    0.9620    3.8955  -19.0454 H   0  0  0  0  0  0  0  0  0  0  0  0
    1.8304    3.9402  -16.6194 H   0  0  0  0  0  0  0  0  0  0  0  0
    3.9250    3.6527  -15.2982 H   0  0  0  0  0  0  0  0  0  0  0  0
    6.0965    4.0658  -16.3721 H   0  0  0  0  0  0  0  0  0  0  0  0
    6.9276    4.1882  -20.7647 H   0  0  0  0  0  0  0  0  0  0  0  0
    6.7197    3.2734  -22.2965 H   0  0  0  0  0  0  0  0  0  0  0  0
    6.5949    5.0654  -22.2965 H   0  0  0  0  0  0  0  0  0  0  0  0
    1.3780    5.0744  -27.0152 H   0  0  0  0  0  0  0  0  0  0  0  0
   -2.9302    8.0725  -19.9905 H   0  0  0  0  0  0  0  0  0  0  0  0
   -1.4512    7.0150  -18.3044 H   0  0  0  0  0  0  0  0  0  0  0  0
    1.0453    6.3875  -18.0358 H   0  0  0  0  0  0  0  0  0  0  0  0
   -0.9470    7.7632  -23.8026 H   0  0  0  0  0  0  0  0  0  0  0  0
    4.9896    6.9959  -19.5395 H   0  0  0  0  0  0  0  0  0  0  0  0
    5.7498    6.4677  -21.0789 H   0  0  0  0  0  0  0  0  0  0  0  0
    4.0703    7.1048  -21.0789 H   0  0  0  0  0  0  0  0  0  0  0  0
    2.3479    7.6349  -22.8371 H   0  0  0  0  0  0  0  0  0  0  0  0
   -0.4880    5.8445  -25.5549 H   0  0  0  0  0  0  0  0  0  0  0  0
    4.9517    7.8580  -24.4388 H   0  0  0  0  0  0  0  0  0  0  0  0
    5.0777    6.3568  -23.5455 H   0  0  0  0  0  0  0  0  0  0  0  0
    4.1418    5.1203  -27.2780 H   0  0  0  0  0  0  0  0  0  0  0  0
  1 12  2  0
  1 13  1  0
  1 18  1  0
  2  3  1  0
  2 17  1  0
  3  4  2  0
  3  7  1  0
  4  5  1  0
  5  6  2  0
  6 19  1  0
  7 19  2  0
  7 20  1  0
 21  8  1  0
  9 18  1  0
  9 25  2  0
  9 26  1  0
 10 26  2  0
 10 27  1  0
 11 25  1  0
 11 27  2  0
 11 28  1  0
 12 16  1  0
 13 14  2  0
 14 15  1  0
 15 16  2  0
 16 17  1  0
 21 20  1  1
 20 22  1  0
 21 23  2  0
 21 24  2  0
 27 30  1  0
 28 29  1  0
 29 30  1  0
 29 31  2  0
  2 32  1  0
  2 33  1  0
  4 34  1  0
  5 35  1  0
  6 36  1  0
  8 37  1  0
  8 38  1  0
  8 39  1  0
 10 40  1  0
 14 41  1  0
 15 42  1  0
 17 43  1  0
 18 44  1  0
 22 45  1  0
 22 46  1  0
 22 47  1  0
 25 48  1  0
 26 49  1  0
 28 50  1  0
 28 51  1  0
 30 52  1  0
M  END
>  <filename_input>  (5) 
6YT6_PKE_docked.sdf

>  <pdb_id>  (5) 
6YT6_PKE

>  <pose_rank>  (5) 
4

>  <num_atoms_heavy>  (5) 
31

>  <num_torsions>  (5) 
5

>  <pose>  (5) 
[-0.4723275192879705, 7.180560729750692, -21.948623427372382, -0.10694548916121605, 0.08155599404575604, 0.09801046594068336, -3.44462620102881, -0.9113544207890444, 1.2340572107465024, 7.39627324498622, -0.3098527562581704]

>  <energy>  (5) 
-1475.3254882222411

>  <inter_energy>  (5) 
-1500.687325229273

>  <intra_energy>  (5) 
26.504765921185783

>  <rmsd>  (5) 
2.23687

>  <sdf_rank>  (5) 
0

$$$$

     RDKit          3D

 52 55  0  0  0  0  0  0  0  0999 V2000
   -0.4379    7.2005  -21.8066 C   0  0  0  0  0  0  0  0  0  0  0  0
    2.1786    5.9072  -18.7704 C   0  0  0  0  0  0  0  0  0  0  0  0
    3.0116    4.8204  -19.4048 C   0  0  0  0  0  0  0  0  0  0  0  0
    2.7383    4.3145  -20.6721 C   0  0  0  0  0  0  0  0  0  0  0  0
    3.5229    3.3055  -21.2042 C   0  0  0  0  0  0  0  0  0  0  0  0
    4.5754    2.8219  -20.4579 C   0  0  0  0  0  0  0  0  0  0  0  0
    4.1110    4.2444  -18.7434 C   0  0  0  0  0  0  0  0  0  0  0  0
    5.4531    6.9772  -18.5585 C   0  0  0  0  0  0  0  0  0  0  0  0
    0.9637    6.9604  -23.9256 C   0  0  0  0  0  0  0  0  0  0  0  0
    3.2143    6.1250  -24.1911 C   0  0  0  0  0  0  0  0  0  0  0  0
    1.8179    6.5185  -26.1299 C   0  0  0  0  0  0  0  0  0  0  0  0
    0.3752    6.5196  -20.9822 N   0  0  0  0  0  0  0  0  0  0  0  0
   -1.6234    7.7413  -21.4893 N   0  0  0  0  0  0  0  0  0  0  0  0
   -2.0148    7.5636  -20.2231 C   0  0  0  0  0  0  0  0  0  0  0  0
   -1.2731    6.8840  -19.2830 C   0  0  0  0  0  0  0  0  0  0  0  0
   -0.0577    6.3707  -19.7218 C   0  0  0  0  0  0  0  0  0  0  0  0
    0.7461    5.6920  -18.8602 N   0  0  0  0  0  0  0  0  0  0  0  0
   -0.1078    7.3784  -23.1155 N   0  0  0  0  0  0  0  0  0  0  0  0
    4.8892    3.2724  -19.2359 N   0  0  0  0  0  0  0  0  0  0  0  0
    4.4337    4.7208  -17.4222 N   0  0  0  0  0  0  0  0  0  0  0  0
    5.6517    5.7955  -17.2792 S   0  0  1  0  0  0  0  0  0  0  0  0
    4.2361    3.7698  -16.3248 C   0  0  0  0  0  0  0  0  0  0  0  0
    6.8599    5.0746  -17.5148 O   0  0  0  0  0  0  0  0  0  0  0  0
    5.4725    6.4496  -16.0256 O   0  0  0  0  0  0  0  0  0  0  0  0
    0.7864    6.9459  -25.3073 C   0  0  0  0  0  0  0  0  0  0  0  0
    2.1782    6.5527  -23.3758 C   0  0  0  0  0  0  0  0  0  0  0  0
    3.0196    6.1112  -25.5655 C   0  0  0  0  0  0  0  0  0  0  0  0
    1.9316    6.3854  -27.6178 C   0  0  0  0  0  0  0  0  0  0  0  0
    3.3197    5.8136  -27.8057 C   0  0  0  0  0  0  0  0  0  0  0  0
    3.8888    5.7007  -26.5780 N   0  0  0  0  0  0  0  0  0  0  0  0
    3.8423    5.4835  -28.8629 O   0  0  0  0  0  0  0  0  0  0  0  0
    2.4509    5.9731  -17.7067 H   0  0  0  0  0  0  0  0  0  0  0  0
    2.3932    6.8325  -19.3251 H   0  0  0  0  0  0  0  0  0  0  0  0
    1.8959    4.7178  -21.2532 H   0  0  0  0  0  0  0  0  0  0  0  0
    3.3102    2.8978  -22.2035 H   0  0  0  0  0  0  0  0  0  0  0  0
    5.1928    2.0205  -20.8898 H   0  0  0  0  0  0  0  0  0  0  0  0
    5.2861    7.9708  -18.1171 H   0  0  0  0  0  0  0  0  0  0  0  0
    6.3600    7.0000  -19.1806 H   0  0  0  0  0  0  0  0  0  0  0  0
    4.5885    6.7023  -19.1806 H   0  0  0  0  0  0  0  0  0  0  0  0
    4.1724    5.8027  -23.7574 H   0  0  0  0  0  0  0  0  0  0  0  0
   -2.9836    7.9840  -19.9153 H   0  0  0  0  0  0  0  0  0  0  0  0
   -1.6211    6.7550  -18.2475 H   0  0  0  0  0  0  0  0  0  0  0  0
    0.3169    4.9902  -18.2404 H   0  0  0  0  0  0  0  0  0  0  0  0
   -0.7975    7.9467  -23.6275 H   0  0  0  0  0  0  0  0  0  0  0  0
    4.3446    4.2922  -15.3629 H   0  0  0  0  0  0  0  0  0  0  0  0
    3.2283    3.3343  -16.3939 H   0  0  0  0  0  0  0  0  0  0  0  0
    4.9870    2.9690  -16.3939 H   0  0  0  0  0  0  0  0  0  0  0  0
   -0.1687    7.2724  -25.7444 H   0  0  0  0  0  0  0  0  0  0  0  0
    2.3154    6.5705  -22.2845 H   0  0  0  0  0  0  0  0  0  0  0  0
    1.1659    5.7014  -28.0128 H   0  0  0  0  0  0  0  0  0  0  0  0
    1.7796    7.3360  -28.1500 H   0  0  0  0  0  0  0  0  0  0  0  0
    4.8449    5.3546  -26.4139 H   0  0  0  0  0  0  0  0  0  0  0  0
  1 12  2  0
  1 13  1  0
  1 18  1  0
  2  3  1  0
  2 17  1  0
  3  4  2  0
  3  7  1  0
  4  5  1  0
  5  6  2  0
  6 19  1  0
  7 19  2  0
  7 20  1  0
 21  8  1  0
  9 18  1  0
  9 25  2  0
  9 26  1  0
 10 26  2  0
 10 27  1  0
 11 25  1  0
 11 27  2  0
 11 28  1  0
 12 16  1  0
 13 14  2  0
 14 15  1  0
 15 16  2  0
 16 17  1  0
 21 20  1  6
 20 22  1  0
 21 23  2  0
 21 24  2  0
 27 30  1  0
 28 29  1  0
 29 30  1  0
 29 31  2  0
  2 32  1  0
  2 33  1  0
  4 34  1  0
  5 35  1  0
  6 36  1  0
  8 37  1  0
  8 38  1  0
  8 39  1  0
 10 40  1  0
 14 41  1  0
 15 42  1  0
 17 43  1  0
 18 44  1  0
 22 45  1  0
 22 46  1  0
 22 47  1  0
 25 48  1  0
 26 49  1  0
 28 50  1  0
 28 51  1  0
 30 52  1  0
M  END
>  <filename_input>  (6) 
6YT6_PKE_docked.sdf

>  <pdb_id>  (6) 
6YT6_PKE

>  <pose_rank>  (6) 
5

>  <num_atoms_heavy>  (6) 
31

>  <num_torsions>  (6) 
5

>  <pose>  (6) 
[-0.43792649889354696, 7.200464435566021, -21.806623324171255, 1.8197447079368148, -1.747039817924964, -5.662430292216301, 0.22186048134683098, -18.268513943619137, -53.63352329702237, -30.782628823524234, 2.187613655407322]

>  <energy>  (6) 
-1817.3192699278918

>  <inter_energy>  (6) 
-1881.0308782230475

>  <intra_energy>  (6) 
37.52466962271147

>  <rmsd>  (6) 
2.47907

>  <sdf_rank>  (6) 
0

$$$$

     RDKit          3D

 52 55  0  0  0  0  0  0  0  0999 V2000
   -0.3125    7.1330  -22.2592 C   0  0  0  0  0  0  0  0  0  0  0  0
    1.6194    5.7372  -18.3192 C   0  0  0  0  0  0  0  0  0  0  0  0
    2.8879    6.5469  -18.4327 C   0  0  0  0  0  0  0  0  0  0  0  0
    2.9068    7.9298  -18.2777 C   0  0  0  0  0  0  0  0  0  0  0  0
    4.0943    8.6297  -18.4072 C   0  0  0  0  0  0  0  0  0  0  0  0
    5.2482    7.9301  -18.6854 C   0  0  0  0  0  0  0  0  0  0  0  0
    4.1291    5.9489  -18.7151 C   0  0  0  0  0  0  0  0  0  0  0  0
    3.7430    4.1009  -16.2397 C   0  0  0  0  0  0  0  0  0  0  0  0
    0.9898    7.2266  -24.4518 C   0  0  0  0  0  0  0  0  0  0  0  0
    1.8097    6.9100  -26.7015 C   0  0  0  0  0  0  0  0  0  0  0  0
    3.3295    6.8089  -24.8190 C   0  0  0  0  0  0  0  0  0  0  0  0
    0.5640    6.3857  -21.5681 N   0  0  0  0  0  0  0  0  0  0  0  0
   -1.4990    7.5790  -21.8212 N   0  0  0  0  0  0  0  0  0  0  0  0
   -1.8206    7.2234  -20.5729 C   0  0  0  0  0  0  0  0  0  0  0  0
   -1.0097    6.4594  -19.7639 C   0  0  0  0  0  0  0  0  0  0  0  0
    0.1997    6.0576  -20.3199 C   0  0  0  0  0  0  0  0  0  0  0  0
    1.0687    5.3072  -19.5913 N   0  0  0  0  0  0  0  0  0  0  0  0
   -0.0542    7.4919  -23.5469 N   0  0  0  0  0  0  0  0  0  0  0  0
    5.2923    6.6001  -18.8403 N   0  0  0  0  0  0  0  0  0  0  0  0
    4.1678    4.5200  -18.8979 N   0  0  0  0  0  0  0  0  0  0  0  0
    4.6700    3.6076  -17.6432 S   0  0  1  0  0  0  0  0  0  0  0  0
    4.4842    4.0484  -20.2488 C   0  0  0  0  0  0  0  0  0  0  0  0
    6.0388    3.9415  -17.4197 O   0  0  0  0  0  0  0  0  0  0  0  0
    4.3321    2.2594  -17.9590 O   0  0  0  0  0  0  0  0  0  0  0  0
    2.2769    7.0506  -23.9490 C   0  0  0  0  0  0  0  0  0  0  0  0
    0.7632    7.1521  -25.8254 C   0  0  0  0  0  0  0  0  0  0  0  0
    3.0871    6.7424  -26.1849 C   0  0  0  0  0  0  0  0  0  0  0  0
    4.7939    6.5873  -24.5929 C   0  0  0  0  0  0  0  0  0  0  0  0
    5.3384    6.4368  -25.9965 C   0  0  0  0  0  0  0  0  0  0  0  0
    4.2910    6.5210  -26.8565 N   0  0  0  0  0  0  0  0  0  0  0  0
    6.5108    6.2899  -26.3186 O   0  0  0  0  0  0  0  0  0  0  0  0
    1.8349    4.8421  -17.7171 H   0  0  0  0  0  0  0  0  0  0  0  0
    0.8675    6.3933  -17.8565 H   0  0  0  0  0  0  0  0  0  0  0  0
    1.9749    8.4686  -18.0514 H   0  0  0  0  0  0  0  0  0  0  0  0
    4.1161    9.7233  -18.2903 H   0  0  0  0  0  0  0  0  0  0  0  0
    6.1864    8.4955  -18.7860 H   0  0  0  0  0  0  0  0  0  0  0  0
    4.2821    3.8140  -15.3248 H   0  0  0  0  0  0  0  0  0  0  0  0
    3.6045    5.1920  -16.2568 H   0  0  0  0  0  0  0  0  0  0  0  0
    2.7606    3.6063  -16.2568 H   0  0  0  0  0  0  0  0  0  0  0  0
    1.6312    6.8517  -27.7853 H   0  0  0  0  0  0  0  0  0  0  0  0
   -2.7871    7.5601  -20.1698 H   0  0  0  0  0  0  0  0  0  0  0  0
   -1.3011    6.1835  -18.7397 H   0  0  0  0  0  0  0  0  0  0  0  0
    1.3501    4.3878  -19.9606 H   0  0  0  0  0  0  0  0  0  0  0  0
   -0.7881    8.0925  -23.9489 H   0  0  0  0  0  0  0  0  0  0  0  0
    5.0961    3.1365  -20.1849 H   0  0  0  0  0  0  0  0  0  0  0  0
    3.5513    3.8269  -20.7878 H   0  0  0  0  0  0  0  0  0  0  0  0
    5.0429    4.8277  -20.7878 H   0  0  0  0  0  0  0  0  0  0  0  0
    2.4579    7.1032  -22.8653 H   0  0  0  0  0  0  0  0  0  0  0  0
   -0.2556    7.2867  -26.2176 H   0  0  0  0  0  0  0  0  0  0  0  0
    5.2495    7.4488  -24.0828 H   0  0  0  0  0  0  0  0  0  0  0  0
    5.0060    5.7194  -23.9513 H   0  0  0  0  0  0  0  0  0  0  0  0
    4.3745    6.4324  -27.8793 H   0  0  0  0  0  0  0  0  0  0  0  0
  1 12  2  0
  1 13  1  0
  1 18  1  0
  2  3  1  0
  2 17  1  0
  3  4  2  0
  3  7  1  0
  4  5  1  0
  5  6  2  0
  6 19  1  0
  7 19  2  0
  7 20  1  0
 21  8  1  0
  9 18  1  0
  9 25  2  0
  9 26  1  0
 10 26  2  0
 10 27  1  0
 11 25  1  0
 11 27  2  0
 11 28  1  0
 12 16  1  0
 13 14  2  0
 14 15  1  0
 15 16  2  0
 16 17  1  0
 21 20  1  6
 20 22  1  0
 21 23  2  0
 21 24  2  0
 27 30  1  0
 28 29  1  0
 29 30  1  0
 29 31  2  0
  2 32  1  0
  2 33  1  0
  4 34  1  0
  5 35  1  0
  6 36  1  0
  8 37  1  0
  8 38  1  0
  8 39  1  0
 10 40  1  0
 14 41  1  0
 15 42  1  0
 17 43  1  0
 18 44  1  0
 22 45  1  0
 22 46  1  0
 22 47  1  0
 25 48  1  0
 26 49  1  0
 28 50  1  0
 28 51  1  0
 30 52  1  0
M  END
>  <filename_input>  (7) 
6YT6_PKE_docked.sdf

>  <pdb_id>  (7) 
6YT6_PKE

>  <pose_rank>  (7) 
6

>  <num_atoms_heavy>  (7) 
31

>  <num_torsions>  (7) 
5

>  <pose>  (7) 
[-0.31250268544621024, 7.133043986221137, -22.2591538230588, 4.020864703124458, 2.461954813299944, 4.408839799720665, 3.168797683649558, -4.3583646527109385, 3.2048989473675715, 7.899007975626768, -3.972131281916709]

>  <energy>  (7) 
-1293.9484543871604

>  <inter_energy>  (7) 
-1323.8570234946824

>  <intra_energy>  (7) 
32.190051265808776

>  <rmsd>  (7) 
1.8884

>  <sdf_rank>  (7) 
0

$$$$

     RDKit          3D

 52 55  0  0  0  0  0  0  0  0999 V2000
   -0.4470    7.2057  -21.9564 C   0  0  0  0  0  0  0  0  0  0  0  0
    2.2262    6.3325  -18.7489 C   0  0  0  0  0  0  0  0  0  0  0  0
    3.3041    5.3729  -19.1901 C   0  0  0  0  0  0  0  0  0  0  0  0
    3.1708    4.5678  -20.3174 C   0  0  0  0  0  0  0  0  0  0  0  0
    4.1822    3.6912  -20.6717 C   0  0  0  0  0  0  0  0  0  0  0  0
    5.3167    3.6392  -19.8916 C   0  0  0  0  0  0  0  0  0  0  0  0
    4.5074    5.2272  -18.4768 C   0  0  0  0  0  0  0  0  0  0  0  0
    5.0324    8.2607  -18.8162 C   0  0  0  0  0  0  0  0  0  0  0  0
    0.9293    6.9789  -24.0934 C   0  0  0  0  0  0  0  0  0  0  0  0
    3.1140    5.9918  -24.3875 C   0  0  0  0  0  0  0  0  0  0  0  0
    1.8753    6.8151  -26.2984 C   0  0  0  0  0  0  0  0  0  0  0  0
    0.4185    6.5996  -21.1269 N   0  0  0  0  0  0  0  0  0  0  0  0
   -1.6562    7.6873  -21.6334 N   0  0  0  0  0  0  0  0  0  0  0  0
   -2.0146    7.5281  -20.3550 C   0  0  0  0  0  0  0  0  0  0  0  0
   -1.2185    6.9229  -19.4086 C   0  0  0  0  0  0  0  0  0  0  0  0
    0.0169    6.4666  -19.8545 C   0  0  0  0  0  0  0  0  0  0  0  0
    0.8737    5.8634  -18.9877 N   0  0  0  0  0  0  0  0  0  0  0  0
   -0.1505    7.3602  -23.2762 N   0  0  0  0  0  0  0  0  0  0  0  0
    5.5033    4.3923  -18.7995 N   0  0  0  0  0  0  0  0  0  0  0  0
    4.6956    6.0272  -17.2931 N   0  0  0  0  0  0  0  0  0  0  0  0
    5.6117    7.3700  -17.4221 S   0  0  1  0  0  0  0  0  0  0  0  0
    4.7310    5.3018  -16.0202 C   0  0  0  0  0  0  0  0  0  0  0  0
    6.9423    6.9304  -17.6888 O   0  0  0  0  0  0  0  0  0  0  0  0
    5.3635    8.1462  -16.2527 O   0  0  0  0  0  0  0  0  0  0  0  0
    0.8354    7.2001  -25.4655 C   0  0  0  0  0  0  0  0  0  0  0  0
    2.0698    6.3786  -23.5620 C   0  0  0  0  0  0  0  0  0  0  0  0
    3.0024    6.2142  -25.7531 C   0  0  0  0  0  0  0  0  0  0  0  0
    2.0673    6.9098  -27.7812 C   0  0  0  0  0  0  0  0  0  0  0  0
    3.4115    6.2494  -27.9956 C   0  0  0  0  0  0  0  0  0  0  0  0
    3.8939    5.8910  -26.7779 N   0  0  0  0  0  0  0  0  0  0  0  0
    3.9676    6.0443  -29.0672 O   0  0  0  0  0  0  0  0  0  0  0  0
    2.3436    6.5098  -17.6697 H   0  0  0  0  0  0  0  0  0  0  0  0
    2.3530    7.2457  -19.3489 H   0  0  0  0  0  0  0  0  0  0  0  0
    2.2585    4.6282  -20.9291 H   0  0  0  0  0  0  0  0  0  0  0  0
    4.0819    3.0487  -21.5589 H   0  0  0  0  0  0  0  0  0  0  0  0
    6.1145    2.9397  -20.1820 H   0  0  0  0  0  0  0  0  0  0  0  0
    4.4615    9.1385  -18.4791 H   0  0  0  0  0  0  0  0  0  0  0  0
    5.8890    8.5909  -19.4221 H   0  0  0  0  0  0  0  0  0  0  0  0
    4.3831    7.6116  -19.4221 H   0  0  0  0  0  0  0  0  0  0  0  0
    4.0137    5.5176  -23.9685 H   0  0  0  0  0  0  0  0  0  0  0  0
   -3.0008    7.9016  -20.0419 H   0  0  0  0  0  0  0  0  0  0  0  0
   -1.5404    6.8073  -18.3632 H   0  0  0  0  0  0  0  0  0  0  0  0
    0.5465    5.0321  -18.4752 H   0  0  0  0  0  0  0  0  0  0  0  0
   -0.8809    7.8711  -23.7924 H   0  0  0  0  0  0  0  0  0  0  0  0
    4.6959    6.0200  -15.1877 H   0  0  0  0  0  0  0  0  0  0  0  0
    3.8648    4.6266  -15.9587 H   0  0  0  0  0  0  0  0  0  0  0  0
    5.6590    4.7143  -15.9587 H   0  0  0  0  0  0  0  0  0  0  0  0
   -0.0609    7.6786  -25.8871 H   0  0  0  0  0  0  0  0  0  0  0  0
    2.1418    6.2103  -22.4773 H   0  0  0  0  0  0  0  0  0  0  0  0
    1.2724    6.3709  -28.3176 H   0  0  0  0  0  0  0  0  0  0  0  0
    2.0280    7.9427  -28.1574 H   0  0  0  0  0  0  0  0  0  0  0  0
    4.8059    5.4364  -26.6285 H   0  0  0  0  0  0  0  0  0  0  0  0
  1 12  2  0
  1 13  1  0
  1 18  1  0
  2  3  1  0
  2 17  1  0
  3  4  2  0
  3  7  1  0
  4  5  1  0
  5  6  2  0
  6 19  1  0
  7 19  2  0
  7 20  1  0
 21  8  1  0
  9 18  1  0
  9 25  2  0
  9 26  1  0
 10 26  2  0
 10 27  1  0
 11 25  1  0
 11 27  2  0
 11 28  1  0
 12 16  1  0
 13 14  2  0
 14 15  1  0
 15 16  2  0
 16 17  1  0
 21 20  1  1
 20 22  1  0
 21 23  2  0
 21 24  2  0
 27 30  1  0
 28 29  1  0
 29 30  1  0
 29 31  2  0
  2 32  1  0
  2 33  1  0
  4 34  1  0
  5 35  1  0
  6 36  1  0
  8 37  1  0
  8 38  1  0
  8 39  1  0
 10 40  1  0
 14 41  1  0
 15 42  1  0
 17 43  1  0
 18 44  1  0
 22 45  1  0
 22 46  1  0
 22 47  1  0
 25 48  1  0
 26 49  1  0
 28 50  1  0
 28 51  1  0
 30 52  1  0
M  END
>  <filename_input>  (8) 
6YT6_PKE_docked.sdf

>  <pdb_id>  (8) 
6YT6_PKE

>  <pose_rank>  (8) 
7

>  <num_atoms_heavy>  (8) 
31

>  <num_torsions>  (8) 
5

>  <pose>  (8) 
[-0.44699471191307216, 7.205695349857139, -21.956391794863734, -0.05634171803460123, 0.042499474229954357, 0.13476109922482427, -5.808068174143199, 0.7939986213631725, 2.73856032634177, 0.42358051298875254, 2.2809544891280624]

>  <energy>  (8) 
-1738.4214428355692

>  <inter_energy>  (8) 
-1764.9332406268384

>  <intra_energy>  (8) 
32.219528542231025

>  <rmsd>  (8) 
2.60377

>  <sdf_rank>  (8) 
0

$$$$

     RDKit          3D

 52 55  0  0  0  0  0  0  0  0999 V2000
    0.7899    6.6775  -23.3946 C   0  0  0  0  0  0  0  0  0  0  0  0
    4.1007    6.6390  -20.0976 C   0  0  0  0  0  0  0  0  0  0  0  0
    4.9631    5.7462  -19.2393 C   0  0  0  0  0  0  0  0  0  0  0  0
    6.2376    6.1174  -18.8216 C   0  0  0  0  0  0  0  0  0  0  0  0
    6.9964    5.2557  -18.0479 C   0  0  0  0  0  0  0  0  0  0  0  0
    6.4621    4.0343  -17.6996 C   0  0  0  0  0  0  0  0  0  0  0  0
    4.5309    4.4753  -18.8196 C   0  0  0  0  0  0  0  0  0  0  0  0
    1.8970    2.6313  -17.3095 C   0  0  0  0  0  0  0  0  0  0  0  0
    1.1852    6.3260  -25.8911 C   0  0  0  0  0  0  0  0  0  0  0  0
    1.2277    5.7334  -28.2322 C   0  0  0  0  0  0  0  0  0  0  0  0
    3.2922    5.9358  -26.9829 C   0  0  0  0  0  0  0  0  0  0  0  0
    2.0114    6.3120  -22.9719 N   0  0  0  0  0  0  0  0  0  0  0  0
   -0.2447    7.0414  -22.6228 N   0  0  0  0  0  0  0  0  0  0  0  0
   -0.0131    7.0219  -21.3059 C   0  0  0  0  0  0  0  0  0  0  0  0
    1.1941    6.6650  -20.7483 C   0  0  0  0  0  0  0  0  0  0  0  0
    2.1973    6.3118  -21.6439 C   0  0  0  0  0  0  0  0  0  0  0  0
    3.4258    5.9533  -21.1842 N   0  0  0  0  0  0  0  0  0  0  0  0
    0.4867    6.6787  -24.7219 N   0  0  0  0  0  0  0  0  0  0  0  0
    5.2409    3.6248  -18.0677 N   0  0  0  0  0  0  0  0  0  0  0  0
    3.2232    4.0327  -19.2328 N   0  0  0  0  0  0  0  0  0  0  0  0
    2.0036    4.1613  -18.1581 S   0  0  1  0  0  0  0  0  0  0  0  0
    3.1869    2.9050  -20.1680 C   0  0  0  0  0  0  0  0  0  0  0  0
    0.8094    4.3400  -18.9176 O   0  0  0  0  0  0  0  0  0  0  0  0
    2.3859    5.1707  -17.2271 O   0  0  0  0  0  0  0  0  0  0  0  0
    2.5757    6.2601  -25.8406 C   0  0  0  0  0  0  0  0  0  0  0  0
    0.5190    6.0591  -27.0863 C   0  0  0  0  0  0  0  0  0  0  0  0
    2.6131    5.6773  -28.1665 C   0  0  0  0  0  0  0  0  0  0  0  0
    4.7602    5.7927  -27.2456 C   0  0  0  0  0  0  0  0  0  0  0  0
    4.8142    5.4705  -28.7229 C   0  0  0  0  0  0  0  0  0  0  0  0
    3.5364    5.4047  -29.1777 N   0  0  0  0  0  0  0  0  0  0  0  0
    5.8191    5.3180  -29.4061 O   0  0  0  0  0  0  0  0  0  0  0  0
    3.3369    7.1012  -19.4549 H   0  0  0  0  0  0  0  0  0  0  0  0
    4.7736    7.3760  -20.5604 H   0  0  0  0  0  0  0  0  0  0  0  0
    6.6436    7.0991  -19.1071 H   0  0  0  0  0  0  0  0  0  0  0  0
    8.0062    5.5406  -17.7178 H   0  0  0  0  0  0  0  0  0  0  0  0
    7.0730    3.3572  -17.0845 H   0  0  0  0  0  0  0  0  0  0  0  0
    1.9096    2.8121  -16.2246 H   0  0  0  0  0  0  0  0  0  0  0  0
    0.9613    2.1233  -17.5858 H   0  0  0  0  0  0  0  0  0  0  0  0
    2.7532    1.9984  -17.5858 H   0  0  0  0  0  0  0  0  0  0  0  0
    0.7022    5.5233  -29.1754 H   0  0  0  0  0  0  0  0  0  0  0  0
   -0.8331    7.3069  -20.6303 H   0  0  0  0  0  0  0  0  0  0  0  0
    1.3552    6.6597  -19.6602 H   0  0  0  0  0  0  0  0  0  0  0  0
    3.9011    5.1552  -21.6292 H   0  0  0  0  0  0  0  0  0  0  0  0
   -0.4686    7.0128  -24.9130 H   0  0  0  0  0  0  0  0  0  0  0  0
    3.1565    1.9614  -19.6036 H   0  0  0  0  0  0  0  0  0  0  0  0
    2.2908    2.9825  -20.8012 H   0  0  0  0  0  0  0  0  0  0  0  0
    4.0861    2.9247  -20.8012 H   0  0  0  0  0  0  0  0  0  0  0  0
    3.1039    6.4646  -24.8976 H   0  0  0  0  0  0  0  0  0  0  0  0
   -0.5794    6.1075  -27.1203 H   0  0  0  0  0  0  0  0  0  0  0  0
    5.2938    6.7291  -27.0258 H   0  0  0  0  0  0  0  0  0  0  0  0
    5.2393    5.0267  -26.6181 H   0  0  0  0  0  0  0  0  0  0  0  0
    3.2797    5.1810  -30.1498 H   0  0  0  0  0  0  0  0  0  0  0  0
  1 12  2  0
  1 13  1  0
  1 18  1  0
  2  3  1  0
  2 17  1  0
  3  4  2  0
  3  7  1  0
  4  5  1  0
  5  6  2  0
  6 19  1  0
  7 19  2  0
  7 20  1  0
 21  8  1  0
  9 18  1  0
  9 25  2  0
  9 26  1  0
 10 26  2  0
 10 27  1  0
 11 25  1  0
 11 27  2  0
 11 28  1  0
 12 16  1  0
 13 14  2  0
 14 15  1  0
 15 16  2  0
 16 17  1  0
 21 20  1  6
 20 22  1  0
 21 23  2  0
 21 24  2  0
 27 30  1  0
 28 29  1  0
 29 30  1  0
 29 31  2  0
  2 32  1  0
  2 33  1  0
  4 34  1  0
  5 35  1  0
  6 36  1  0
  8 37  1  0
  8 38  1  0
  8 39  1  0
 10 40  1  0
 14 41  1  0
 15 42  1  0
 17 43  1  0
 18 44  1  0
 22 45  1  0
 22 46  1  0
 22 47  1  0
 25 48  1  0
 26 49  1  0
 28 50  1  0
 28 51  1  0
 30 52  1  0
M  END
>  <filename_input>  (9) 
6YT6_PKE_docked.sdf

>  <pdb_id>  (9) 
6YT6_PKE

>  <pose_rank>  (9) 
8

>  <num_atoms_heavy>  (9) 
31

>  <num_torsions>  (9) 
5

>  <pose>  (9) 
[0.7898720031419826, 6.677529458955576, -23.394600200388396, -0.1429296410713498, 0.48102397326130997, 0.30108374604430566, -2.9005297784239534, -4.066902915795703, 1.0239272405173392, 2.192112416226334, -0.2046450049542244]

>  <energy>  (9) 
-714.4700709966246

>  <inter_energy>  (9) 
-757.0176794578039

>  <intra_energy>  (9) 
64.61653086170679

>  <rmsd>  (9) 
3.14301

>  <sdf_rank>  (9) 
0

$$$$

     RDKit          3D

 52 55  0  0  0  0  0  0  0  0999 V2000
   -0.3750    7.1966  -21.9545 C   0  0  0  0  0  0  0  0  0  0  0  0
    2.1336    5.9372  -18.7462 C   0  0  0  0  0  0  0  0  0  0  0  0
    3.1283    4.8536  -19.0839 C   0  0  0  0  0  0  0  0  0  0  0  0
    3.1096    4.1757  -20.2991 C   0  0  0  0  0  0  0  0  0  0  0  0
    4.0343    3.1776  -20.5550 C   0  0  0  0  0  0  0  0  0  0  0  0
    4.9693    2.8776  -19.5884 C   0  0  0  0  0  0  0  0  0  0  0  0
    4.1298    4.4557  -18.1801 C   0  0  0  0  0  0  0  0  0  0  0  0
    4.4264    7.7588  -16.2865 C   0  0  0  0  0  0  0  0  0  0  0  0
    1.0432    6.9859  -24.0655 C   0  0  0  0  0  0  0  0  0  0  0  0
    1.9707    6.4300  -26.2252 C   0  0  0  0  0  0  0  0  0  0  0  0
    3.3588    6.3608  -24.2423 C   0  0  0  0  0  0  0  0  0  0  0  0
    0.4181    6.4810  -21.1400 N   0  0  0  0  0  0  0  0  0  0  0  0
   -1.5540    7.7499  -21.6347 N   0  0  0  0  0  0  0  0  0  0  0  0
   -1.9610    7.5471  -20.3772 C   0  0  0  0  0  0  0  0  0  0  0  0
   -1.2405    6.8310  -19.4478 C   0  0  0  0  0  0  0  0  0  0  0  0
   -0.0298    6.3078  -19.8880 C   0  0  0  0  0  0  0  0  0  0  0  0
    0.7537    5.5936  -19.0364 N   0  0  0  0  0  0  0  0  0  0  0  0
   -0.0289    7.4018  -23.2552 N   0  0  0  0  0  0  0  0  0  0  0  0
    5.0391    3.4986  -18.4035 N   0  0  0  0  0  0  0  0  0  0  0  0
    4.1895    5.1151  -16.9002 N   0  0  0  0  0  0  0  0  0  0  0  0
    5.2968    6.2963  -16.7058 S   0  0  1  0  0  0  0  0  0  0  0  0
    3.8634    4.2923  -15.7321 C   0  0  0  0  0  0  0  0  0  0  0  0
    5.9145    6.4880  -17.9773 O   0  0  0  0  0  0  0  0  0  0  0  0
    6.1068    5.9166  -15.5962 O   0  0  0  0  0  0  0  0  0  0  0  0
    2.2783    6.7512  -23.4655 C   0  0  0  0  0  0  0  0  0  0  0  0
    0.8959    6.8209  -25.4420 C   0  0  0  0  0  0  0  0  0  0  0  0
    3.1959    6.2055  -25.6128 C   0  0  0  0  0  0  0  0  0  0  0  0
    4.7833    6.0451  -23.9022 C   0  0  0  0  0  0  0  0  0  0  0  0
    5.3986    5.7424  -25.2508 C   0  0  0  0  0  0  0  0  0  0  0  0
    4.4164    5.8392  -26.1834 N   0  0  0  0  0  0  0  0  0  0  0  0
    6.5724    5.4802  -25.4815 O   0  0  0  0  0  0  0  0  0  0  0  0
    2.2151    6.1567  -17.6715 H   0  0  0  0  0  0  0  0  0  0  0  0
    2.3826    6.8014  -19.3796 H   0  0  0  0  0  0  0  0  0  0  0  0
    2.3573    4.4338  -21.0590 H   0  0  0  0  0  0  0  0  0  0  0  0
    4.0228    2.6345  -21.5116 H   0  0  0  0  0  0  0  0  0  0  0  0
    5.6997    2.0832  -19.8018 H   0  0  0  0  0  0  0  0  0  0  0  0
    4.3712    7.8515  -15.1918 H   0  0  0  0  0  0  0  0  0  0  0  0
    4.9526    8.6306  -16.7023 H   0  0  0  0  0  0  0  0  0  0  0  0
    3.4091    7.7120  -16.7023 H   0  0  0  0  0  0  0  0  0  0  0  0
    1.8548    6.3003  -27.3114 H   0  0  0  0  0  0  0  0  0  0  0  0
   -2.9254    7.9764  -20.0679 H   0  0  0  0  0  0  0  0  0  0  0  0
   -1.6008    6.6819  -18.4192 H   0  0  0  0  0  0  0  0  0  0  0  0
    0.3475    4.7675  -18.5742 H   0  0  0  0  0  0  0  0  0  0  0  0
   -0.7036    7.9949  -23.7591 H   0  0  0  0  0  0  0  0  0  0  0  0
    4.0864    4.8550  -14.8136 H   0  0  0  0  0  0  0  0  0  0  0  0
    2.7946    4.0332  -15.7530 H   0  0  0  0  0  0  0  0  0  0  0  0
    4.4645    3.3713  -15.7530 H   0  0  0  0  0  0  0  0  0  0  0  0
    2.3961    6.8751  -22.3788 H   0  0  0  0  0  0  0  0  0  0  0  0
   -0.0824    7.0025  -25.9109 H   0  0  0  0  0  0  0  0  0  0  0  0
    5.2762    6.9063  -23.4275 H   0  0  0  0  0  0  0  0  0  0  0  0
    4.8835    5.2168  -23.1853 H   0  0  0  0  0  0  0  0  0  0  0  0
    4.5548    5.6638  -27.1889 H   0  0  0  0  0  0  0  0  0  0  0  0
  1 12  2  0
  1 13  1  0
  1 18  1  0
  2  3  1  0
  2 17  1  0
  3  4  2  0
  3  7  1  0
  4  5  1  0
  5  6  2  0
  6 19  1  0
  7 19  2  0
  7 20  1  0
 21  8  1  0
  9 18  1  0
  9 25  2  0
  9 26  1  0
 10 26  2  0
 10 27  1  0
 11 25  1  0
 11 27  2  0
 11 28  1  0
 12 16  1  0
 13 14  2  0
 14 15  1  0
 15 16  2  0
 16 17  1  0
 21 20  1  6
 20 22  1  0
 21 23  2  0
 21 24  2  0
 27 30  1  0
 28 29  1  0
 29 30  1  0
 29 31  2  0
  2 32  1  0
  2 33  1  0
  4 34  1  0
  5 35  1  0
  6 36  1  0
  8 37  1  0
  8 38  1  0
  8 39  1  0
 10 40  1  0
 14 41  1  0
 15 42  1  0
 17 43  1  0
 18 44  1  0
 22 45  1  0
 22 46  1  0
 22 47  1  0
 25 48  1  0
 26 49  1  0
 28 50  1  0
 28 51  1  0
 30 52  1  0
M  END
>  <filename_input>  (10) 
6YT6_PKE_docked.sdf

>  <pdb_id>  (10) 
6YT6_PKE

>  <pose_rank>  (10) 
9

>  <num_atoms_heavy>  (10) 
31

>  <num_torsions>  (10) 
5

>  <pose>  (10) 
[-0.37498871969716047, 7.196634555547665, -21.95445862583872, -0.05081860276872293, -1.3515297503265329, -6.073152458163397, -15.642873351453376, -43.198740949891594, -16.21642313301373, 13.202134151336713, 9.817392371799054]

>  <energy>  (10) 
-1470.5486830926282

>  <inter_energy>  (10) 
-1474.2891731769726

>  <intra_energy>  (10) 
20.05203816894596

>  <rmsd>  (10) 
3.06335

>  <sdf_rank>  (10) 
0

$$$$

     RDKit          3D

 52 55  0  0  0  0  0  0  0  0999 V2000
   -0.2726    7.2721  -22.0375 C   0  0  0  0  0  0  0  0  0  0  0  0
    2.3539    5.7380  -19.0644 C   0  0  0  0  0  0  0  0  0  0  0  0
    3.1622    4.6378  -19.7078 C   0  0  0  0  0  0  0  0  0  0  0  0
    2.8584    4.1268  -20.9661 C   0  0  0  0  0  0  0  0  0  0  0  0
    3.6212    3.1057  -21.5067 C   0  0  0  0  0  0  0  0  0  0  0  0
    4.6827    2.6151  -20.7780 C   0  0  0  0  0  0  0  0  0  0  0  0
    4.2680    4.0538  -19.0643 C   0  0  0  0  0  0  0  0  0  0  0  0
    5.6927    6.7210  -18.9762 C   0  0  0  0  0  0  0  0  0  0  0  0
    0.9223    6.8783  -24.2577 C   0  0  0  0  0  0  0  0  0  0  0  0
    2.8705    5.5236  -24.7079 C   0  0  0  0  0  0  0  0  0  0  0  0
    1.6915    6.6131  -26.5208 C   0  0  0  0  0  0  0  0  0  0  0  0
    0.5021    6.4782  -21.2798 N   0  0  0  0  0  0  0  0  0  0  0  0
   -1.3485    7.9606  -21.6289 N   0  0  0  0  0  0  0  0  0  0  0  0
   -1.6643    7.8186  -20.3373 C   0  0  0  0  0  0  0  0  0  0  0  0
   -0.9514    7.0338  -19.4589 C   0  0  0  0  0  0  0  0  0  0  0  0
    0.1487    6.3703  -19.9908 C   0  0  0  0  0  0  0  0  0  0  0  0
    0.9173    5.5793  -19.1954 N   0  0  0  0  0  0  0  0  0  0  0  0
   -0.0205    7.4230  -23.3669 N   0  0  0  0  0  0  0  0  0  0  0  0
    5.0256    3.0701  -19.5654 N   0  0  0  0  0  0  0  0  0  0  0  0
    4.6219    4.5351  -17.7529 N   0  0  0  0  0  0  0  0  0  0  0  0
    5.8543    5.5970  -17.6410 S   0  0  1  0  0  0  0  0  0  0  0  0
    4.4354    3.5935  -16.6455 C   0  0  0  0  0  0  0  0  0  0  0  0
    7.0544    4.8480  -17.8247 O   0  0  0  0  0  0  0  0  0  0  0  0
    5.6672    6.3111  -16.4218 O   0  0  0  0  0  0  0  0  0  0  0  0
    0.7895    7.1537  -25.6168 C   0  0  0  0  0  0  0  0  0  0  0  0
    1.9643    6.0670  -23.8109 C   0  0  0  0  0  0  0  0  0  0  0  0
    2.7211    5.8032  -26.0593 C   0  0  0  0  0  0  0  0  0  0  0  0
    1.8100    6.7160  -28.0108 C   0  0  0  0  0  0  0  0  0  0  0  0
    2.9972    5.8312  -28.3221 C   0  0  0  0  0  0  0  0  0  0  0  0
    3.4773    5.3557  -27.1443 N   0  0  0  0  0  0  0  0  0  0  0  0
    3.4429    5.5616  -29.4305 O   0  0  0  0  0  0  0  0  0  0  0  0
    2.6011    5.7653  -17.9929 H   0  0  0  0  0  0  0  0  0  0  0  0
    2.6167    6.6690  -19.5881 H   0  0  0  0  0  0  0  0  0  0  0  0
    2.0092    4.5358  -21.5332 H   0  0  0  0  0  0  0  0  0  0  0  0
    3.3843    2.6939  -22.4988 H   0  0  0  0  0  0  0  0  0  0  0  0
    5.2826    1.8041  -21.2166 H   0  0  0  0  0  0  0  0  0  0  0  0
    5.5466    7.7382  -18.5837 H   0  0  0  0  0  0  0  0  0  0  0  0
    6.6042    6.6929  -19.5915 H   0  0  0  0  0  0  0  0  0  0  0  0
    4.8261    6.4374  -19.5915 H   0  0  0  0  0  0  0  0  0  0  0  0
    3.6925    4.8830  -24.3556 H   0  0  0  0  0  0  0  0  0  0  0  0
   -2.5428    8.3592  -19.9552 H   0  0  0  0  0  0  0  0  0  0  0  0
   -1.2351    6.9375  -18.4005 H   0  0  0  0  0  0  0  0  0  0  0  0
    0.4568    4.8301  -18.6591 H   0  0  0  0  0  0  0  0  0  0  0  0
   -0.6648    8.0847  -23.8229 H   0  0  0  0  0  0  0  0  0  0  0  0
    4.5410    4.1266  -15.6891 H   0  0  0  0  0  0  0  0  0  0  0  0
    3.4316    3.1480  -16.7081 H   0  0  0  0  0  0  0  0  0  0  0  0
    5.1937    2.7991  -16.7081 H   0  0  0  0  0  0  0  0  0  0  0  0
   -0.0283    7.7980  -25.9718 H   0  0  0  0  0  0  0  0  0  0  0  0
    2.0682    5.8562  -22.7363 H   0  0  0  0  0  0  0  0  0  0  0  0
    0.9004    6.3451  -28.5058 H   0  0  0  0  0  0  0  0  0  0  0  0
    1.9366    7.7499  -28.3642 H   0  0  0  0  0  0  0  0  0  0  0  0
    4.2990    4.7402  -27.0615 H   0  0  0  0  0  0  0  0  0  0  0  0
  1 12  2  0
  1 13  1  0
  1 18  1  0
  2  3  1  0
  2 17  1  0
  3  4  2  0
  3  7  1  0
  4  5  1  0
  5  6  2  0
  6 19  1  0
  7 19  2  0
  7 20  1  0
 21  8  1  0
  9 18  1  0
  9 25  2  0
  9 26  1  0
 10 26  2  0
 10 27  1  0
 11 25  1  0
 11 27  2  0
 11 28  1  0
 12 16  1  0
 13 14  2  0
 14 15  1  0
 15 16  2  0
 16 17  1  0
 21 20  1  6
 20 22  1  0
 21 23  2  0
 21 24  2  0
 27 30  1  0
 28 29  1  0
 29 30  1  0
 29 31  2  0
  2 32  1  0
  2 33  1  0
  4 34  1  0
  5 35  1  0
  6 36  1  0
  8 37  1  0
  8 38  1  0
  8 39  1  0
 10 40  1  0
 14 41  1  0
 15 42  1  0
 17 43  1  0
 18 44  1  0
 22 45  1  0
 22 46  1  0
 22 47  1  0
 25 48  1  0
 26 49  1  0
 28 50  1  0
 28 51  1  0
 30 52  1  0
M  END
>  <filename_input>  (11) 
6YT6_PKE_docked.sdf

>  <pdb_id>  (11) 
6YT6_PKE

>  <pose_rank>  (11) 
10

>  <num_atoms_heavy>  (11) 
31

>  <num_torsions>  (11) 
5

>  <pose>  (11) 
[-0.2725816926114322, 7.272099032073508, -22.037453802072953, -0.011237124974225106, 0.10054581802369626, -0.0552196202443906, -5.825547598103303, 0.7482495306012706, 2.8354294199447954, 0.571477683412905, 2.1348794778269613]

>  <energy>  (11) 
-1531.6312919041245

>  <inter_energy>  (11) 
-1560.6190393509926

>  <intra_energy>  (11) 
34.76194784927414

>  <rmsd>  (11) 
2.52878

>  <sdf_rank>  (11) 
0

$$$$

     RDKit          3D

 52 55  0  0  0  0  0  0  0  0999 V2000
   -0.4854    7.2582  -22.0965 C   0  0  0  0  0  0  0  0  0  0  0  0
    1.0959    5.5878  -18.1701 C   0  0  0  0  0  0  0  0  0  0  0  0
    2.3188    6.4192  -18.4717 C   0  0  0  0  0  0  0  0  0  0  0  0
    2.3739    7.7858  -18.2152 C   0  0  0  0  0  0  0  0  0  0  0  0
    3.5138    8.5080  -18.5250 C   0  0  0  0  0  0  0  0  0  0  0  0
    4.5855    7.8461  -19.0834 C   0  0  0  0  0  0  0  0  0  0  0  0
    3.4755    5.8600  -19.0439 C   0  0  0  0  0  0  0  0  0  0  0  0
    5.2319    4.4380  -17.2640 C   0  0  0  0  0  0  0  0  0  0  0  0
    0.8949    6.9880  -24.2258 C   0  0  0  0  0  0  0  0  0  0  0  0
    1.5792    6.0145  -26.3277 C   0  0  0  0  0  0  0  0  0  0  0  0
    3.2140    6.4733  -24.6012 C   0  0  0  0  0  0  0  0  0  0  0  0
    0.1608    6.3447  -21.3533 N   0  0  0  0  0  0  0  0  0  0  0  0
   -1.5516    7.9804  -21.7222 N   0  0  0  0  0  0  0  0  0  0  0  0
   -2.0007    7.7422  -20.4854 C   0  0  0  0  0  0  0  0  0  0  0  0
   -1.4272    6.8309  -19.6273 C   0  0  0  0  0  0  0  0  0  0  0  0
   -0.3233    6.1433  -20.1190 C   0  0  0  0  0  0  0  0  0  0  0  0
    0.3133    5.2296  -19.3387 N   0  0  0  0  0  0  0  0  0  0  0  0
   -0.0953    7.5133  -23.3757 N   0  0  0  0  0  0  0  0  0  0  0  0
    4.5923    6.5329  -19.3484 N   0  0  0  0  0  0  0  0  0  0  0  0
    3.4711    4.4502  -19.3427 N   0  0  0  0  0  0  0  0  0  0  0  0
    4.2118    3.4489  -18.2903 S   0  0  1  0  0  0  0  0  0  0  0  0
    3.5075    4.0892  -20.7626 C   0  0  0  0  0  0  0  0  0  0  0  0
    5.0480    2.5910  -19.0649 O   0  0  0  0  0  0  0  0  0  0  0  0
    3.1858    2.8703  -17.4877 O   0  0  0  0  0  0  0  0  0  0  0  0
    2.2134    6.9658  -23.7767 C   0  0  0  0  0  0  0  0  0  0  0  0
    0.5851    6.5092  -25.4979 C   0  0  0  0  0  0  0  0  0  0  0  0
    2.8887    6.0045  -25.8673 C   0  0  0  0  0  0  0  0  0  0  0  0
    4.6929    6.3247  -24.4135 C   0  0  0  0  0  0  0  0  0  0  0  0
    5.1520    5.7622  -25.7408 C   0  0  0  0  0  0  0  0  0  0  0  0
    4.0522    5.5900  -26.5183 N   0  0  0  0  0  0  0  0  0  0  0  0
    6.3045    5.5228  -26.0790 O   0  0  0  0  0  0  0  0  0  0  0  0
    1.4230    4.6604  -17.6772 H   0  0  0  0  0  0  0  0  0  0  0  0
    0.4453    6.2047  -17.5327 H   0  0  0  0  0  0  0  0  0  0  0  0
    1.5086    8.2941  -17.7647 H   0  0  0  0  0  0  0  0  0  0  0  0
    3.5629    9.5893  -18.3290 H   0  0  0  0  0  0  0  0  0  0  0  0
    5.4864    8.4290  -19.3255 H   0  0  0  0  0  0  0  0  0  0  0  0
    5.0093    4.2222  -16.2086 H   0  0  0  0  0  0  0  0  0  0  0  0
    6.2885    4.2115  -17.4696 H   0  0  0  0  0  0  0  0  0  0  0  0
    5.0380    5.5011  -17.4696 H   0  0  0  0  0  0  0  0  0  0  0  0
    1.3351    5.6372  -27.3316 H   0  0  0  0  0  0  0  0  0  0  0  0
   -2.8775    8.3059  -20.1339 H   0  0  0  0  0  0  0  0  0  0  0  0
   -1.8187    6.6574  -18.6141 H   0  0  0  0  0  0  0  0  0  0  0  0
    0.2362    4.2335  -19.5894 H   0  0  0  0  0  0  0  0  0  0  0  0
   -0.6497    8.2583  -23.8212 H   0  0  0  0  0  0  0  0  0  0  0  0
    3.6176    2.9992  -20.8611 H   0  0  0  0  0  0  0  0  0  0  0  0
    2.5726    4.4085  -21.2462 H   0  0  0  0  0  0  0  0  0  0  0  0
    4.3598    4.5890  -21.2462 H   0  0  0  0  0  0  0  0  0  0  0  0
    2.4601    7.3376  -22.7713 H   0  0  0  0  0  0  0  0  0  0  0  0
   -0.4581    6.5241  -25.8465 H   0  0  0  0  0  0  0  0  0  0  0  0
    5.1652    7.2976  -24.2122 H   0  0  0  0  0  0  0  0  0  0  0  0
    4.9584    5.6862  -23.5580 H   0  0  0  0  0  0  0  0  0  0  0  0
    4.0737    5.2010  -27.4718 H   0  0  0  0  0  0  0  0  0  0  0  0
  1 12  2  0
  1 13  1  0
  1 18  1  0
  2  3  1  0
  2 17  1  0
  3  4  2  0
  3  7  1  0
  4  5  1  0
  5  6  2  0
  6 19  1  0
  7 19  2  0
  7 20  1  0
 21  8  1  0
  9 18  1  0
  9 25  2  0
  9 26  1  0
 10 26  2  0
 10 27  1  0
 11 25  1  0
 11 27  2  0
 11 28  1  0
 12 16  1  0
 13 14  2  0
 14 15  1  0
 15 16  2  0
 16 17  1  0
 21 20  1  6
 20 22  1  0
 21 23  2  0
 21 24  2  0
 27 30  1  0
 28 29  1  0
 29 30  1  0
 29 31  2  0
  2 32  1  0
  2 33  1  0
  4 34  1  0
  5 35  1  0
  6 36  1  0
  8 37  1  0
  8 38  1  0
  8 39  1  0
 10 40  1  0
 14 41  1  0
 15 42  1  0
 17 43  1  0
 18 44  1  0
 22 45  1  0
 22 46  1  0
 22 47  1  0
 25 48  1  0
 26 49  1  0
 28 50  1  0
 28 51  1  0
 30 52  1  0
M  END
>  <filename_input>  (12) 
6YT6_PKE_docked.sdf

>  <pdb_id>  (12) 
6YT6_PKE

>  <pose_rank>  (12) 
11

>  <num_atoms_heavy>  (12) 
31

>  <num_torsions>  (12) 
5

>  <pose>  (12) 
[-0.48537480173052694, 7.2582134932216205, -22.096474588461763, 0.09069452788809959, 0.008234127344491738, -0.11718122722326799, -9.78462891030169, -29.68750627408757, -52.92668855513674, 14.202333973507809, 1.1432230958802698]

>  <energy>  (12) 
-1395.4304495782608

>  <inter_energy>  (12) 
-1409.1571662937079

>  <intra_energy>  (12) 
24.992779059368814

>  <rmsd>  (12) 
1.70662

>  <sdf_rank>  (12) 
0

$$$$

     RDKit          3D

 52 55  0  0  0  0  0  0  0  0999 V2000
    0.9325    5.9516  -18.2779 C   0  0  0  0  0  0  0  0  0  0  0  0
    1.4280    6.5699  -22.4381 C   0  0  0  0  0  0  0  0  0  0  0  0
    2.6038    5.6326  -22.5669 C   0  0  0  0  0  0  0  0  0  0  0  0
    2.9708    4.7522  -21.5537 C   0  0  0  0  0  0  0  0  0  0  0  0
    4.0682    3.9233  -21.7137 C   0  0  0  0  0  0  0  0  0  0  0  0
    4.7790    3.9861  -22.8924 C   0  0  0  0  0  0  0  0  0  0  0  0
    3.4084    5.6032  -23.7201 C   0  0  0  0  0  0  0  0  0  0  0  0
    3.4127    5.0861  -27.1014 C   0  0  0  0  0  0  0  0  0  0  0  0
    3.2849    5.3355  -17.5036 C   0  0  0  0  0  0  0  0  0  0  0  0
    5.0227    3.6623  -17.6203 C   0  0  0  0  0  0  0  0  0  0  0  0
    5.5737    6.0138  -17.7949 C   0  0  0  0  0  0  0  0  0  0  0  0
    1.1457    5.8266  -19.5982 N   0  0  0  0  0  0  0  0  0  0  0  0
   -0.2065    6.3429  -17.6880 N   0  0  0  0  0  0  0  0  0  0  0  0
   -1.2108    6.6398  -18.5194 C   0  0  0  0  0  0  0  0  0  0  0  0
   -1.1177    6.5536  -19.8904 C   0  0  0  0  0  0  0  0  0  0  0  0
    0.1086    6.1314  -20.3917 C   0  0  0  0  0  0  0  0  0  0  0  0
    0.2901    6.0083  -21.7337 N   0  0  0  0  0  0  0  0  0  0  0  0
    1.9310    5.6996  -17.3871 N   0  0  0  0  0  0  0  0  0  0  0  0
    4.4707    4.8090  -23.9036 N   0  0  0  0  0  0  0  0  0  0  0  0
    3.0826    6.5026  -24.7978 N   0  0  0  0  0  0  0  0  0  0  0  0
    2.2548    5.8989  -26.0664 S   0  0  1  0  0  0  0  0  0  0  0  0
    4.0508    7.5697  -25.0657 C   0  0  0  0  0  0  0  0  0  0  0  0
    1.7239    7.0174  -26.7750 O   0  0  0  0  0  0  0  0  0  0  0  0
    1.3556    4.9263  -25.5403 O   0  0  0  0  0  0  0  0  0  0  0  0
    4.2339    6.3438  -17.6564 C   0  0  0  0  0  0  0  0  0  0  0  0
    3.6855    4.0004  -17.4834 C   0  0  0  0  0  0  0  0  0  0  0  0
    5.9552    4.6785  -17.7772 C   0  0  0  0  0  0  0  0  0  0  0  0
    6.8041    6.8489  -17.9771 C   0  0  0  0  0  0  0  0  0  0  0  0
    7.9031    5.8169  -18.1041 C   0  0  0  0  0  0  0  0  0  0  0  0
    7.3364    4.5913  -17.9612 N   0  0  0  0  0  0  0  0  0  0  0  0
    9.0896    6.0289  -18.3212 O   0  0  0  0  0  0  0  0  0  0  0  0
    1.7605    7.4670  -21.8953 H   0  0  0  0  0  0  0  0  0  0  0  0
    1.0876    6.7901  -23.4607 H   0  0  0  0  0  0  0  0  0  0  0  0
    2.3870    4.7147  -20.6221 H   0  0  0  0  0  0  0  0  0  0  0  0
    4.3667    3.2279  -20.9154 H   0  0  0  0  0  0  0  0  0  0  0  0
    5.6489    3.3231  -23.0097 H   0  0  0  0  0  0  0  0  0  0  0  0
    4.1561    4.5642  -26.4809 H   0  0  0  0  0  0  0  0  0  0  0  0
    2.8882    4.3569  -27.7364 H   0  0  0  0  0  0  0  0  0  0  0  0
    3.9203    5.8271  -27.7364 H   0  0  0  0  0  0  0  0  0  0  0  0
    5.3390    2.6088  -17.6049 H   0  0  0  0  0  0  0  0  0  0  0  0
   -2.1648    6.9715  -18.0836 H   0  0  0  0  0  0  0  0  0  0  0  0
   -1.9623    6.8037  -20.5493 H   0  0  0  0  0  0  0  0  0  0  0  0
   -0.4151    5.4907  -22.2774 H   0  0  0  0  0  0  0  0  0  0  0  0
    1.6267    5.7976  -16.4080 H   0  0  0  0  0  0  0  0  0  0  0  0
    4.4204    7.9771  -24.1131 H   0  0  0  0  0  0  0  0  0  0  0  0
    4.8945    7.1630  -25.6425 H   0  0  0  0  0  0  0  0  0  0  0  0
    3.5641    8.3700  -25.6425 H   0  0  0  0  0  0  0  0  0  0  0  0
    3.9214    7.3984  -17.6670 H   0  0  0  0  0  0  0  0  0  0  0  0
    2.9333    3.2077  -17.3576 H   0  0  0  0  0  0  0  0  0  0  0  0
    6.7329    7.4640  -18.8863 H   0  0  0  0  0  0  0  0  0  0  0  0
    6.9707    7.5591  -17.1538 H   0  0  0  0  0  0  0  0  0  0  0  0
    7.8614    3.7054  -17.9855 H   0  0  0  0  0  0  0  0  0  0  0  0
  1 12  2  0
  1 13  1  0
  1 18  1  0
  2  3  1  0
  2 17  1  0
  3  4  2  0
  3  7  1  0
  4  5  1  0
  5  6  2  0
  6 19  1  0
  7 19  2  0
  7 20  1  0
 21  8  1  0
  9 18  1  0
  9 25  2  0
  9 26  1  0
 10 26  2  0
 10 27  1  0
 11 25  1  0
 11 27  2  0
 11 28  1  0
 12 16  1  0
 13 14  2  0
 14 15  1  0
 15 16  2  0
 16 17  1  0
 21 20  1  1
 20 22  1  0
 21 23  2  0
 21 24  2  0
 27 30  1  0
 28 29  1  0
 29 30  1  0
 29 31  2  0
  2 32  1  0
  2 33  1  0
  4 34  1  0
  5 35  1  0
  6 36  1  0
  8 37  1  0
  8 38  1  0
  8 39  1  0
 10 40  1  0
 14 41  1  0
 15 42  1  0
 17 43  1  0
 18 44  1  0
 22 45  1  0
 22 46  1  0
 22 47  1  0
 25 48  1  0
 26 49  1  0
 28 50  1  0
 28 51  1  0
 30 52  1  0
M  END
>  <filename_input>  (13) 
6YT6_PKE_docked.sdf

>  <pdb_id>  (13) 
6YT6_PKE

>  <pose_rank>  (13) 
12

>  <num_atoms_heavy>  (13) 
31

>  <num_torsions>  (13) 
5

>  <pose>  (13) 
[0.932545417942813, 5.951577113047627, -18.277851095790556, -3.093522078686336, 1.283385622324198, 1.13726074472565, -1.0508413062874906, 5.226343410400119, 0.05433000740914233, -0.8359637612176924, 0.010919920230204279]

>  <energy>  (13) 
-688.4480719957858

>  <inter_energy>  (13) 
-709.7713077868993

>  <intra_energy>  (13) 
35.752570218826875

>  <rmsd>  (13) 
6.78263

>  <sdf_rank>  (13) 
0

$$$$

     RDKit          3D

 52 55  0  0  0  0  0  0  0  0999 V2000
    1.2571    6.7955  -23.3915 C   0  0  0  0  0  0  0  0  0  0  0  0
    2.4958    4.7522  -19.3628 C   0  0  0  0  0  0  0  0  0  0  0  0
    3.5084    5.8326  -19.0712 C   0  0  0  0  0  0  0  0  0  0  0  0
    3.1949    6.9693  -18.3321 C   0  0  0  0  0  0  0  0  0  0  0  0
    4.1554    7.9403  -18.1053 C   0  0  0  0  0  0  0  0  0  0  0  0
    5.4200    7.7536  -18.6197 C   0  0  0  0  0  0  0  0  0  0  0  0
    4.8314    5.7584  -19.5424 C   0  0  0  0  0  0  0  0  0  0  0  0
    6.5350    4.0356  -18.0144 C   0  0  0  0  0  0  0  0  0  0  0  0
    2.3966    6.4656  -25.6509 C   0  0  0  0  0  0  0  0  0  0  0  0
    2.7958    5.5302  -27.8416 C   0  0  0  0  0  0  0  0  0  0  0  0
    4.6064    5.7261  -26.2456 C   0  0  0  0  0  0  0  0  0  0  0  0
    1.8891    5.8102  -22.7325 N   0  0  0  0  0  0  0  0  0  0  0  0
    0.2996    7.5959  -22.9008 N   0  0  0  0  0  0  0  0  0  0  0  0
   -0.0475    7.3638  -21.6305 C   0  0  0  0  0  0  0  0  0  0  0  0
    0.5237    6.3838  -20.8500 C   0  0  0  0  0  0  0  0  0  0  0  0
    1.5103    5.6176  -21.4606 C   0  0  0  0  0  0  0  0  0  0  0  0
    2.1363    4.6319  -20.7637 N   0  0  0  0  0  0  0  0  0  0  0  0
    1.5430    7.0507  -24.6979 N   0  0  0  0  0  0  0  0  0  0  0  0
    5.7810    6.6790  -19.3337 N   0  0  0  0  0  0  0  0  0  0  0  0
    5.2097    4.6087  -20.3245 N   0  0  0  0  0  0  0  0  0  0  0  0
    6.0263    3.4143  -19.5724 S   0  0  1  0  0  0  0  0  0  0  0  0
    5.5198    4.8585  -21.7349 C   0  0  0  0  0  0  0  0  0  0  0  0
    7.1895    3.1596  -20.3581 O   0  0  0  0  0  0  0  0  0  0  0  0
    5.0949    2.3571  -19.3571 O   0  0  0  0  0  0  0  0  0  0  0  0
    3.7368    6.2809  -25.3187 C   0  0  0  0  0  0  0  0  0  0  0  0
    1.9333    6.0862  -26.9098 C   0  0  0  0  0  0  0  0  0  0  0  0
    4.1294    5.3579  -27.4969 C   0  0  0  0  0  0  0  0  0  0  0  0
    6.0703    5.4117  -26.1926 C   0  0  0  0  0  0  0  0  0  0  0  0
    6.3549    4.8699  -27.5762 C   0  0  0  0  0  0  0  0  0  0  0  0
    5.1831    4.8545  -28.2621 N   0  0  0  0  0  0  0  0  0  0  0  0
    7.4424    4.5262  -28.0221 O   0  0  0  0  0  0  0  0  0  0  0  0
    2.9132    3.7902  -19.0306 H   0  0  0  0  0  0  0  0  0  0  0  0
    1.5770    5.0286  -18.8248 H   0  0  0  0  0  0  0  0  0  0  0  0
    2.1804    7.0967  -17.9266 H   0  0  0  0  0  0  0  0  0  0  0  0
    3.9137    8.8434  -17.5257 H   0  0  0  0  0  0  0  0  0  0  0  0
    6.1759    8.5307  -18.4335 H   0  0  0  0  0  0  0  0  0  0  0  0
    6.0574    3.4523  -17.2134 H   0  0  0  0  0  0  0  0  0  0  0  0
    7.6284    3.9531  -17.9260 H   0  0  0  0  0  0  0  0  0  0  0  0
    6.2386    5.0912  -17.9260 H   0  0  0  0  0  0  0  0  0  0  0  0
    2.4306    5.2312  -28.8351 H   0  0  0  0  0  0  0  0  0  0  0  0
   -0.8333    7.9908  -21.1840 H   0  0  0  0  0  0  0  0  0  0  0  0
    0.2179    6.2171  -19.8066 H   0  0  0  0  0  0  0  0  0  0  0  0
    2.3669    3.7563  -21.2546 H   0  0  0  0  0  0  0  0  0  0  0  0
    1.0159    7.8523  -25.0728 H   0  0  0  0  0  0  0  0  0  0  0  0
    6.3746    5.5471  -21.8059 H   0  0  0  0  0  0  0  0  0  0  0  0
    5.7722    3.9085  -22.2287 H   0  0  0  0  0  0  0  0  0  0  0  0
    4.6453    5.3074  -22.2287 H   0  0  0  0  0  0  0  0  0  0  0  0
    4.1041    6.5741  -24.3241 H   0  0  0  0  0  0  0  0  0  0  0  0
    0.8732    6.2294  -27.1661 H   0  0  0  0  0  0  0  0  0  0  0  0
    6.6618    6.3176  -25.9937 H   0  0  0  0  0  0  0  0  0  0  0  0
    6.3325    4.7070  -25.3897 H   0  0  0  0  0  0  0  0  0  0  0  0
    5.0838    4.5133  -29.2289 H   0  0  0  0  0  0  0  0  0  0  0  0
  1 12  2  0
  1 13  1  0
  1 18  1  0
  2  3  1  0
  2 17  1  0
  3  4  2  0
  3  7  1  0
  4  5  1  0
  5  6  2  0
  6 19  1  0
  7 19  2  0
  7 20  1  0
 21  8  1  0
  9 18  1  0
  9 25  2  0
  9 26  1  0
 10 26  2  0
 10 27  1  0
 11 25  1  0
 11 27  2  0
 11 28  1  0
 12 16  1  0
 13 14  2  0
 14 15  1  0
 15 16  2  0
 16 17  1  0
 21 20  1  6
 20 22  1  0
 21 23  2  0
 21 24  2  0
 27 30  1  0
 28 29  1  0
 29 30  1  0
 29 31  2  0
  2 32  1  0
  2 33  1  0
  4 34  1  0
  5 35  1  0
  6 36  1  0
  8 37  1  0
  8 38  1  0
  8 39  1  0
 10 40  1  0
 14 41  1  0
 15 42  1  0
 17 43  1  0
 18 44  1  0
 22 45  1  0
 22 46  1  0
 22 47  1  0
 25 48  1  0
 26 49  1  0
 28 50  1  0
 28 51  1  0
 30 52  1  0
M  END
>  <filename_input>  (14) 
6YT6_PKE_docked.sdf

>  <pdb_id>  (14) 
6YT6_PKE

>  <pose_rank>  (14) 
13

>  <num_atoms_heavy>  (14) 
31

>  <num_torsions>  (14) 
5

>  <pose>  (14) 
[1.2571169242308906, 6.795457525327243, -23.39146373376051, 0.10815775812115616, 0.10319844516730281, -0.2084804176391545, -9.750791471534976, -29.141262519535534, -52.91866245416439, 14.35686755345224, 1.21051482241287]

>  <energy>  (14) 
-757.8221212417237

>  <inter_energy>  (14) 
-801.9481308625299

>  <intra_energy>  (14) 
31.26643207660136

>  <rmsd>  (14) 
2.35105

>  <sdf_rank>  (14) 
0

$$$$

     RDKit          3D

 52 55  0  0  0  0  0  0  0  0999 V2000
    1.4630    6.5843  -17.8318 C   0  0  0  0  0  0  0  0  0  0  0  0
    1.0343    5.6962  -21.9114 C   0  0  0  0  0  0  0  0  0  0  0  0
    2.2984    4.9081  -21.6697 C   0  0  0  0  0  0  0  0  0  0  0  0
    2.3424    3.8125  -20.8128 C   0  0  0  0  0  0  0  0  0  0  0  0
    3.5311    3.1317  -20.6118 C   0  0  0  0  0  0  0  0  0  0  0  0
    4.6589    3.5576  -21.2791 C   0  0  0  0  0  0  0  0  0  0  0  0
    3.5147    5.2446  -22.2906 C   0  0  0  0  0  0  0  0  0  0  0  0
    4.7400    7.0246  -25.5342 C   0  0  0  0  0  0  0  0  0  0  0  0
    3.9676    6.2245  -17.5001 C   0  0  0  0  0  0  0  0  0  0  0  0
    5.9949    6.4765  -18.7885 C   0  0  0  0  0  0  0  0  0  0  0  0
    5.8410    4.7798  -17.0676 C   0  0  0  0  0  0  0  0  0  0  0  0
    1.3712    6.0468  -19.0594 N   0  0  0  0  0  0  0  0  0  0  0  0
    0.4683    7.1515  -17.1336 N   0  0  0  0  0  0  0  0  0  0  0  0
   -0.7199    7.1790  -17.7464 C   0  0  0  0  0  0  0  0  0  0  0  0
   -0.9427    6.6633  -19.0034 C   0  0  0  0  0  0  0  0  0  0  0  0
    0.1594    6.0940  -19.6317 C   0  0  0  0  0  0  0  0  0  0  0  0
    0.0317    5.5517  -20.8721 N   0  0  0  0  0  0  0  0  0  0  0  0
    2.6562    6.6182  -17.1769 N   0  0  0  0  0  0  0  0  0  0  0  0
    4.6763    4.6012  -22.1189 N   0  0  0  0  0  0  0  0  0  0  0  0
    3.5316    6.3786  -23.1796 N   0  0  0  0  0  0  0  0  0  0  0  0
    3.4636    6.0875  -24.7826 S   0  0  1  0  0  0  0  0  0  0  0  0
    4.3067    7.5396  -22.7335 C   0  0  0  0  0  0  0  0  0  0  0  0
    2.2080    6.5918  -25.2346 O   0  0  0  0  0  0  0  0  0  0  0  0
    3.7538    4.7031  -24.9579 O   0  0  0  0  0  0  0  0  0  0  0  0
    4.5422    5.1758  -16.7855 C   0  0  0  0  0  0  0  0  0  0  0  0
    4.6966    6.8668  -18.4999 C   0  0  0  0  0  0  0  0  0  0  0  0
    6.5549    5.4335  -18.0636 C   0  0  0  0  0  0  0  0  0  0  0  0
    6.7194    3.7150  -16.4853 C   0  0  0  0  0  0  0  0  0  0  0  0
    8.0167    3.8878  -17.2444 C   0  0  0  0  0  0  0  0  0  0  0  0
    7.8365    4.8859  -18.1472 N   0  0  0  0  0  0  0  0  0  0  0  0
    9.0579    3.2664  -17.0724 O   0  0  0  0  0  0  0  0  0  0  0  0
    1.3012    6.7607  -21.9868 H   0  0  0  0  0  0  0  0  0  0  0  0
    0.5886    5.3003  -22.8359 H   0  0  0  0  0  0  0  0  0  0  0  0
    1.4294    3.4862  -20.2932 H   0  0  0  0  0  0  0  0  0  0  0  0
    3.5744    2.2675  -19.9327 H   0  0  0  0  0  0  0  0  0  0  0  0
    5.5982    3.0097  -21.1128 H   0  0  0  0  0  0  0  0  0  0  0  0
    5.3655    7.4838  -24.7546 H   0  0  0  0  0  0  0  0  0  0  0  0
    5.3593    6.3650  -26.1599 H   0  0  0  0  0  0  0  0  0  0  0  0
    4.2963    7.8130  -26.1599 H   0  0  0  0  0  0  0  0  0  0  0  0
    6.5705    6.9835  -19.5770 H   0  0  0  0  0  0  0  0  0  0  0  0
   -1.5668    7.6394  -17.2165 H   0  0  0  0  0  0  0  0  0  0  0  0
   -1.9326    6.6996  -19.4817 H   0  0  0  0  0  0  0  0  0  0  0  0
   -0.8191    5.0114  -21.0847 H   0  0  0  0  0  0  0  0  0  0  0  0
    2.5822    7.0231  -16.2328 H   0  0  0  0  0  0  0  0  0  0  0  0
    4.3254    7.5675  -21.6340 H   0  0  0  0  0  0  0  0  0  0  0  0
    5.3353    7.4626  -23.1159 H   0  0  0  0  0  0  0  0  0  0  0  0
    3.8414    8.4601  -23.1159 H   0  0  0  0  0  0  0  0  0  0  0  0
    3.9675    4.6633  -16.0000 H   0  0  0  0  0  0  0  0  0  0  0  0
    4.2371    7.6912  -19.0650 H   0  0  0  0  0  0  0  0  0  0  0  0
    6.8689    3.8724  -15.4069 H   0  0  0  0  0  0  0  0  0  0  0  0
    6.2946    2.7047  -16.5792 H   0  0  0  0  0  0  0  0  0  0  0  0
    8.5571    5.2007  -18.8124 H   0  0  0  0  0  0  0  0  0  0  0  0
  1 12  2  0
  1 13  1  0
  1 18  1  0
  2  3  1  0
  2 17  1  0
  3  4  2  0
  3  7  1  0
  4  5  1  0
  5  6  2  0
  6 19  1  0
  7 19  2  0
  7 20  1  0
 21  8  1  0
  9 18  1  0
  9 25  2  0
  9 26  1  0
 10 26  2  0
 10 27  1  0
 11 25  1  0
 11 27  2  0
 11 28  1  0
 12 16  1  0
 13 14  2  0
 14 15  1  0
 15 16  2  0
 16 17  1  0
 21 20  1  1
 20 22  1  0
 21 23  2  0
 21 24  2  0
 27 30  1  0
 28 29  1  0
 29 30  1  0
 29 31  2  0
  2 32  1  0
  2 33  1  0
  4 34  1  0
  5 35  1  0
  6 36  1  0
  8 37  1  0
  8 38  1  0
  8 39  1  0
 10 40  1  0
 14 41  1  0
 15 42  1  0
 17 43  1  0
 18 44  1  0
 22 45  1  0
 22 46  1  0
 22 47  1  0
 25 48  1  0
 26 49  1  0
 28 50  1  0
 28 51  1  0
 30 52  1  0
M  END
>  <filename_input>  (15) 
6YT6_PKE_docked.sdf

>  <pdb_id>  (15) 
6YT6_PKE

>  <pose_rank>  (15) 
14

>  <num_atoms_heavy>  (15) 
31

>  <num_torsions>  (15) 
5

>  <pose>  (15) 
[1.4630131701790023, 6.58427758126696, -17.831752814033926, -3.2803025224031006, 1.5289545441333199, 1.4926765532351896, 1.7353498176090167, -0.8960152901611925, -0.2939168514797899, 0.17887314564234688, -0.8670951228011621]

>  <energy>  (15) 
-760.2617980599268

>  <inter_energy>  (15) 
-814.4651120372201

>  <intra_energy>  (15) 
44.53233033171738

>  <rmsd>  (15) 
6.63608

>  <sdf_rank>  (15) 
0

$$$$

     RDKit          3D

 52 55  0  0  0  0  0  0  0  0999 V2000
    0.7658    6.5305  -17.6675 C   0  0  0  0  0  0  0  0  0  0  0  0
    0.6491    5.4647  -21.8735 C   0  0  0  0  0  0  0  0  0  0  0  0
    1.4672    5.7011  -23.1195 C   0  0  0  0  0  0  0  0  0  0  0  0
    0.9292    6.2740  -24.2679 C   0  0  0  0  0  0  0  0  0  0  0  0
    1.7175    6.4552  -25.3916 C   0  0  0  0  0  0  0  0  0  0  0  0
    3.0376    6.0634  -25.3445 C   0  0  0  0  0  0  0  0  0  0  0  0
    2.8251    5.3429  -23.1964 C   0  0  0  0  0  0  0  0  0  0  0  0
    3.8852    7.3430  -21.4003 C   0  0  0  0  0  0  0  0  0  0  0  0
    3.1438    6.2523  -16.7843 C   0  0  0  0  0  0  0  0  0  0  0  0
    5.3507    7.1783  -17.1094 C   0  0  0  0  0  0  0  0  0  0  0  0
    5.0757    4.8410  -16.5390 C   0  0  0  0  0  0  0  0  0  0  0  0
    1.0635    6.5128  -18.9773 N   0  0  0  0  0  0  0  0  0  0  0  0
   -0.4500    6.7044  -17.1289 N   0  0  0  0  0  0  0  0  0  0  0  0
   -1.4451    6.8839  -18.0039 C   0  0  0  0  0  0  0  0  0  0  0  0
   -1.2693    6.8882  -19.3694 C   0  0  0  0  0  0  0  0  0  0  0  0
    0.0328    6.6928  -19.8160 C   0  0  0  0  0  0  0  0  0  0  0  0
    0.3002    6.6730  -21.1491 N   0  0  0  0  0  0  0  0  0  0  0  0
    1.7449    6.3913  -16.7317 N   0  0  0  0  0  0  0  0  0  0  0  0
    3.6114    5.5116  -24.2670 N   0  0  0  0  0  0  0  0  0  0  0  0
    3.4327    4.7339  -22.0404 N   0  0  0  0  0  0  0  0  0  0  0  0
    4.3377    5.6821  -21.0703 S   0  0  1  0  0  0  0  0  0  0  0  0
    3.8327    3.3312  -22.1824 C   0  0  0  0  0  0  0  0  0  0  0  0
    5.6943    5.4962  -21.4706 O   0  0  0  0  0  0  0  0  0  0  0  0
    3.9650    5.3679  -19.7309 O   0  0  0  0  0  0  0  0  0  0  0  0
    3.6985    5.0031  -16.5154 C   0  0  0  0  0  0  0  0  0  0  0  0
    3.9734    7.3322  -17.0828 C   0  0  0  0  0  0  0  0  0  0  0  0
    5.8879    5.9284  -16.8337 C   0  0  0  0  0  0  0  0  0  0  0  0
    5.9554    3.6534  -16.2942 C   0  0  0  0  0  0  0  0  0  0  0  0
    7.3492    4.2229  -16.4427 C   0  0  0  0  0  0  0  0  0  0  0  0
    7.2259    5.5348  -16.7705 N   0  0  0  0  0  0  0  0  0  0  0  0
    8.4077    3.6296  -16.2769 O   0  0  0  0  0  0  0  0  0  0  0  0
   -0.2822    4.9566  -22.1643 H   0  0  0  0  0  0  0  0  0  0  0  0
    1.2726    4.8614  -21.1973 H   0  0  0  0  0  0  0  0  0  0  0  0
   -0.1261    6.5839  -24.2830 H   0  0  0  0  0  0  0  0  0  0  0  0
    1.2979    6.9034  -26.3044 H   0  0  0  0  0  0  0  0  0  0  0  0
    3.6553    6.2121  -26.2424 H   0  0  0  0  0  0  0  0  0  0  0  0
    3.7392    7.8788  -20.4507 H   0  0  0  0  0  0  0  0  0  0  0  0
    4.6827    7.8324  -21.9786 H   0  0  0  0  0  0  0  0  0  0  0  0
    2.9496    7.3602  -21.9786 H   0  0  0  0  0  0  0  0  0  0  0  0
    6.0055    8.0304  -17.3444 H   0  0  0  0  0  0  0  0  0  0  0  0
   -2.4610    7.0366  -17.6107 H   0  0  0  0  0  0  0  0  0  0  0  0
   -2.1083    7.0373  -20.0651 H   0  0  0  0  0  0  0  0  0  0  0  0
    0.2528    7.5598  -21.6709 H   0  0  0  0  0  0  0  0  0  0  0  0
    1.3791    6.3866  -15.7688 H   0  0  0  0  0  0  0  0  0  0  0  0
    3.9604    2.8836  -21.1858 H   0  0  0  0  0  0  0  0  0  0  0  0
    3.0553    2.7823  -22.7341 H   0  0  0  0  0  0  0  0  0  0  0  0
    4.7827    3.2749  -22.7341 H   0  0  0  0  0  0  0  0  0  0  0  0
    3.0463    4.1478  -16.2851 H   0  0  0  0  0  0  0  0  0  0  0  0
    3.5308    8.3156  -17.2994 H   0  0  0  0  0  0  0  0  0  0  0  0
    5.7999    3.2484  -15.2833 H   0  0  0  0  0  0  0  0  0  0  0  0
    5.7544    2.8174  -16.9802 H   0  0  0  0  0  0  0  0  0  0  0  0
    8.0222    6.1628  -16.9504 H   0  0  0  0  0  0  0  0  0  0  0  0
  1 12  2  0
  1 13  1  0
  1 18  1  0
  2  3  1  0
  2 17  1  0
  3  4  2  0
  3  7  1  0
  4  5  1  0
  5  6  2  0
  6 19  1  0
  7 19  2  0
  7 20  1  0
 21  8  1  0
  9 18  1  0
  9 25  2  0
  9 26  1  0
 10 26  2  0
 10 27  1  0
 11 25  1  0
 11 27  2  0
 11 28  1  0
 12 16  1  0
 13 14  2  0
 14 15  1  0
 15 16  2  0
 16 17  1  0
 21 20  1  6
 20 22  1  0
 21 23  2  0
 21 24  2  0
 27 30  1  0
 28 29  1  0
 29 30  1  0
 29 31  2  0
  2 32  1  0
  2 33  1  0
  4 34  1  0
  5 35  1  0
  6 36  1  0
  8 37  1  0
  8 38  1  0
  8 39  1  0
 10 40  1  0
 14 41  1  0
 15 42  1  0
 17 43  1  0
 18 44  1  0
 22 45  1  0
 22 46  1  0
 22 47  1  0
 25 48  1  0
 26 49  1  0
 28 50  1  0
 28 51  1  0
 30 52  1  0
M  END
>  <filename_input>  (16) 
6YT6_PKE_docked.sdf

>  <pdb_id>  (16) 
6YT6_PKE

>  <pose_rank>  (16) 
15

>  <num_atoms_heavy>  (16) 
31

>  <num_torsions>  (16) 
5

>  <pose>  (16) 
[0.765805780391077, 6.530521683335811, -17.66751693071859, -3.2159304502200925, 1.016701500779049, 1.0172387258511981, 1.8689759894404934, 1.050420963930873, 2.045747078737537, -1.4332016349193235, 1.758179565027676]

>  <energy>  (16) 
-722.5024881382358

>  <inter_energy>  (16) 
-734.4611053203249

>  <intra_energy>  (16) 
23.950841299303416

>  <rmsd>  (16) 
6.79587

>  <sdf_rank>  (16) 
0

$$$$

     RDKit          3D

 52 55  0  0  0  0  0  0  0  0999 V2000
   -0.3532    7.2186  -21.9232 C   0  0  0  0  0  0  0  0  0  0  0  0
    2.2344    6.1519  -18.7008 C   0  0  0  0  0  0  0  0  0  0  0  0
    3.2652    5.1906  -19.2401 C   0  0  0  0  0  0  0  0  0  0  0  0
    2.9904    4.3080  -20.2803 C   0  0  0  0  0  0  0  0  0  0  0  0
    3.9657    3.4338  -20.7291 C   0  0  0  0  0  0  0  0  0  0  0  0
    5.2063    3.4619  -20.1302 C   0  0  0  0  0  0  0  0  0  0  0  0
    4.5668    5.1224  -18.7116 C   0  0  0  0  0  0  0  0  0  0  0  0
    4.7226    8.7228  -17.5712 C   0  0  0  0  0  0  0  0  0  0  0  0
    1.0213    6.9301  -24.0539 C   0  0  0  0  0  0  0  0  0  0  0  0
    1.9374    6.3842  -26.2210 C   0  0  0  0  0  0  0  0  0  0  0  0
    3.3130    6.2234  -24.2346 C   0  0  0  0  0  0  0  0  0  0  0  0
    0.4671    6.5507  -21.0953 N   0  0  0  0  0  0  0  0  0  0  0  0
   -1.5324    7.7709  -21.6024 N   0  0  0  0  0  0  0  0  0  0  0  0
   -1.9090    7.6203  -20.3282 C   0  0  0  0  0  0  0  0  0  0  0  0
   -1.1587    6.9562  -19.3838 C   0  0  0  0  0  0  0  0  0  0  0  0
    0.0491    6.4289  -19.8270 C   0  0  0  0  0  0  0  0  0  0  0  0
    0.8605    5.7639  -18.9619 N   0  0  0  0  0  0  0  0  0  0  0  0
   -0.0384    7.3689  -23.2393 N   0  0  0  0  0  0  0  0  0  0  0  0
    5.5302    4.2916  -19.1295 N   0  0  0  0  0  0  0  0  0  0  0  0
    4.9045    6.0051  -17.6238 N   0  0  0  0  0  0  0  0  0  0  0  0
    5.7444    7.3576  -17.9765 S   0  0  1  0  0  0  0  0  0  0  0  0
    5.1567    5.3688  -16.3280 C   0  0  0  0  0  0  0  0  0  0  0  0
    5.9506    7.3519  -19.3881 O   0  0  0  0  0  0  0  0  0  0  0  0
    6.8793    7.3687  -17.1142 O   0  0  0  0  0  0  0  0  0  0  0  0
    2.2441    6.6377  -23.4541 C   0  0  0  0  0  0  0  0  0  0  0  0
    0.8743    6.7985  -25.4340 C   0  0  0  0  0  0  0  0  0  0  0  0
    3.1507    6.1021  -25.6086 C   0  0  0  0  0  0  0  0  0  0  0  0
    4.7233    5.8485  -23.8957 C   0  0  0  0  0  0  0  0  0  0  0  0
    5.3332    5.5506  -25.2479 C   0  0  0  0  0  0  0  0  0  0  0  0
    4.3594    5.7026  -26.1820 N   0  0  0  0  0  0  0  0  0  0  0  0
    6.4975    5.2500  -25.4794 O   0  0  0  0  0  0  0  0  0  0  0  0
    2.3700    6.2270  -17.6117 H   0  0  0  0  0  0  0  0  0  0  0  0
    2.3951    7.1089  -19.2189 H   0  0  0  0  0  0  0  0  0  0  0  0
    1.9946    4.3049  -20.7477 H   0  0  0  0  0  0  0  0  0  0  0  0
    3.7543    2.7304  -21.5479 H   0  0  0  0  0  0  0  0  0  0  0  0
    5.9742    2.7636  -20.4944 H   0  0  0  0  0  0  0  0  0  0  0  0
    4.6525    8.8165  -16.4775 H   0  0  0  0  0  0  0  0  0  0  0  0
    5.1560    9.6426  -17.9910 H   0  0  0  0  0  0  0  0  0  0  0  0
    3.7179    8.5662  -17.9910 H   0  0  0  0  0  0  0  0  0  0  0  0
    1.8217    6.2808  -27.3100 H   0  0  0  0  0  0  0  0  0  0  0  0
   -2.8721    8.0510  -20.0171 H   0  0  0  0  0  0  0  0  0  0  0  0
   -1.4945    6.8494  -18.3418 H   0  0  0  0  0  0  0  0  0  0  0  0
    0.4812    4.9439  -18.4672 H   0  0  0  0  0  0  0  0  0  0  0  0
   -0.7320    7.9299  -23.7542 H   0  0  0  0  0  0  0  0  0  0  0  0
    4.8819    6.0621  -15.5194 H   0  0  0  0  0  0  0  0  0  0  0  0
    4.5537    4.4525  -16.2460 H   0  0  0  0  0  0  0  0  0  0  0  0
    6.2236    5.1142  -16.2460 H   0  0  0  0  0  0  0  0  0  0  0  0
    2.3615    6.7351  -22.3647 H   0  0  0  0  0  0  0  0  0  0  0  0
   -0.0946    7.0257  -25.9028 H   0  0  0  0  0  0  0  0  0  0  0  0
    5.2455    6.6811  -23.4016 H   0  0  0  0  0  0  0  0  0  0  0  0
    4.7896    5.0027  -23.1955 H   0  0  0  0  0  0  0  0  0  0  0  0
    4.4958    5.5426  -27.1903 H   0  0  0  0  0  0  0  0  0  0  0  0
  1 12  2  0
  1 13  1  0
  1 18  1  0
  2  3  1  0
  2 17  1  0
  3  4  2  0
  3  7  1  0
  4  5  1  0
  5  6  2  0
  6 19  1  0
  7 19  2  0
  7 20  1  0
 21  8  1  0
  9 18  1  0
  9 25  2  0
  9 26  1  0
 10 26  2  0
 10 27  1  0
 11 25  1  0
 11 27  2  0
 11 28  1  0
 12 16  1  0
 13 14  2  0
 14 15  1  0
 15 16  2  0
 16 17  1  0
 21 20  1  1
 20 22  1  0
 21 23  2  0
 21 24  2  0
 27 30  1  0
 28 29  1  0
 29 30  1  0
 29 31  2  0
  2 32  1  0
  2 33  1  0
  4 34  1  0
  5 35  1  0
  6 36  1  0
  8 37  1  0
  8 38  1  0
  8 39  1  0
 10 40  1  0
 14 41  1  0
 15 42  1  0
 17 43  1  0
 18 44  1  0
 22 45  1  0
 22 46  1  0
 22 47  1  0
 25 48  1  0
 26 49  1  0
 28 50  1  0
 28 51  1  0
 30 52  1  0
M  END
>  <filename_input>  (17) 
6YT6_PKE_docked.sdf

>  <pdb_id>  (17) 
6YT6_PKE

>  <pose_rank>  (17) 
16

>  <num_atoms_heavy>  (17) 
31

>  <num_torsions>  (17) 
5

>  <pose>  (17) 
[-0.3532257516524476, 7.2185676246937005, -21.92322747713141, -3.0427272207840517, 2.5349013807249254, 4.996622180353976, -15.55627970164651, -43.17899020584647, -16.03411413949318, 12.76817126363968, 9.738234459082307]

>  <energy>  (17) 
-1521.9840939808892

>  <inter_energy>  (17) 
-1525.3170507752293

>  <intra_energy>  (17) 
24.58374628925237

>  <rmsd>  (17) 
2.99955

>  <sdf_rank>  (17) 
0

$$$$

     RDKit          3D

 52 55  0  0  0  0  0  0  0  0999 V2000
   -0.4308    7.1285  -21.9158 C   0  0  0  0  0  0  0  0  0  0  0  0
    2.0072    4.9886  -19.3816 C   0  0  0  0  0  0  0  0  0  0  0  0
    2.8903    4.6003  -18.2210 C   0  0  0  0  0  0  0  0  0  0  0  0
    2.8773    3.3233  -17.6681 C   0  0  0  0  0  0  0  0  0  0  0  0
    3.6953    3.0207  -16.5927 C   0  0  0  0  0  0  0  0  0  0  0  0
    4.5195    4.0041  -16.0906 C   0  0  0  0  0  0  0  0  0  0  0  0
    3.7734    5.5151  -17.6199 C   0  0  0  0  0  0  0  0  0  0  0  0
    4.5929    6.6524  -20.7478 C   0  0  0  0  0  0  0  0  0  0  0  0
    0.9517    6.8757  -24.0458 C   0  0  0  0  0  0  0  0  0  0  0  0
    1.8829    6.4141  -26.2260 C   0  0  0  0  0  0  0  0  0  0  0  0
    3.2134    6.0791  -24.2306 C   0  0  0  0  0  0  0  0  0  0  0  0
    0.3664    6.4133  -21.1050 N   0  0  0  0  0  0  0  0  0  0  0  0
   -1.5982    7.6995  -21.5845 N   0  0  0  0  0  0  0  0  0  0  0  0
   -1.9878    7.5167  -20.3185 C   0  0  0  0  0  0  0  0  0  0  0  0
   -1.2613    6.8032  -19.3917 C   0  0  0  0  0  0  0  0  0  0  0  0
   -0.0639    6.2604  -19.8442 C   0  0  0  0  0  0  0  0  0  0  0  0
    0.7244    5.5472  -18.9962 N   0  0  0  0  0  0  0  0  0  0  0  0
   -0.1027    7.3140  -23.2240 N   0  0  0  0  0  0  0  0  0  0  0  0
    4.5785    5.2482  -16.5839 N   0  0  0  0  0  0  0  0  0  0  0  0
    3.8203    6.8569  -18.1434 N   0  0  0  0  0  0  0  0  0  0  0  0
    5.0411    7.2343  -19.1563 S   0  0  1  0  0  0  0  0  0  0  0  0
    3.3202    7.9142  -17.2604 C   0  0  0  0  0  0  0  0  0  0  0  0
    6.1803    6.4995  -18.7118 O   0  0  0  0  0  0  0  0  0  0  0  0
    5.1116    8.6573  -19.1968 O   0  0  0  0  0  0  0  0  0  0  0  0
    2.1494    6.4953  -23.4445 C   0  0  0  0  0  0  0  0  0  0  0  0
    0.8246    6.8298  -25.4333 C   0  0  0  0  0  0  0  0  0  0  0  0
    3.0714    6.0438  -25.6117 C   0  0  0  0  0  0  0  0  0  0  0  0
    4.5996    5.6229  -23.8916 C   0  0  0  0  0  0  0  0  0  0  0  0
    5.2207    5.3759  -25.2489 C   0  0  0  0  0  0  0  0  0  0  0  0
    4.2719    5.6242  -26.1880 N   0  0  0  0  0  0  0  0  0  0  0  0
    6.3749    5.0374  -25.4789 O   0  0  0  0  0  0  0  0  0  0  0  0
    2.5414    5.7371  -19.9853 H   0  0  0  0  0  0  0  0  0  0  0  0
    1.7936    4.0638  -19.9376 H   0  0  0  0  0  0  0  0  0  0  0  0
    2.2149    2.5514  -18.0870 H   0  0  0  0  0  0  0  0  0  0  0  0
    3.6872    2.0148  -16.1478 H   0  0  0  0  0  0  0  0  0  0  0  0
    5.1656    3.7534  -15.2364 H   0  0  0  0  0  0  0  0  0  0  0  0
    3.9245    5.7847  -20.6461 H   0  0  0  0  0  0  0  0  0  0  0  0
    4.0750    7.4518  -21.2980 H   0  0  0  0  0  0  0  0  0  0  0  0
    5.4980    6.3556  -21.2980 H   0  0  0  0  0  0  0  0  0  0  0  0
    1.7830    6.3784  -27.3209 H   0  0  0  0  0  0  0  0  0  0  0  0
   -2.9422    7.9611  -19.9997 H   0  0  0  0  0  0  0  0  0  0  0  0
   -1.6073    6.6707  -18.3560 H   0  0  0  0  0  0  0  0  0  0  0  0
    0.3945    5.3958  -18.0323 H   0  0  0  0  0  0  0  0  0  0  0  0
   -0.7782    7.9090  -23.7246 H   0  0  0  0  0  0  0  0  0  0  0  0
    3.4623    7.6139  -16.2117 H   0  0  0  0  0  0  0  0  0  0  0  0
    3.8735    8.8452  -17.4533 H   0  0  0  0  0  0  0  0  0  0  0  0
    2.2496    8.0772  -17.4533 H   0  0  0  0  0  0  0  0  0  0  0  0
    2.2509    6.5251  -22.3496 H   0  0  0  0  0  0  0  0  0  0  0  0
   -0.1246    7.1263  -25.9035 H   0  0  0  0  0  0  0  0  0  0  0  0
    5.1483    6.4019  -23.3420 H   0  0  0  0  0  0  0  0  0  0  0  0
    4.6161    4.7364  -23.2405 H   0  0  0  0  0  0  0  0  0  0  0  0
    4.4197    5.5161  -27.2016 H   0  0  0  0  0  0  0  0  0  0  0  0
  1 12  2  0
  1 13  1  0
  1 18  1  0
  2  3  1  0
  2 17  1  0
  3  4  2  0
  3  7  1  0
  4  5  1  0
  5  6  2  0
  6 19  1  0
  7 19  2  0
  7 20  1  0
 21  8  1  0
  9 18  1  0
  9 25  2  0
  9 26  1  0
 10 26  2  0
 10 27  1  0
 11 25  1  0
 11 27  2  0
 11 28  1  0
 12 16  1  0
 13 14  2  0
 14 15  1  0
 15 16  2  0
 16 17  1  0
 21 20  1  1
 20 22  1  0
 21 23  2  0
 21 24  2  0
 27 30  1  0
 28 29  1  0
 29 30  1  0
 29 31  2  0
  2 32  1  0
  2 33  1  0
  4 34  1  0
  5 35  1  0
  6 36  1  0
  8 37  1  0
  8 38  1  0
  8 39  1  0
 10 40  1  0
 14 41  1  0
 15 42  1  0
 17 43  1  0
 18 44  1  0
 22 45  1  0
 22 46  1  0
 22 47  1  0
 25 48  1  0
 26 49  1  0
 28 50  1  0
 28 51  1  0
 30 52  1  0
M  END
>  <filename_input>  (18) 
6YT6_PKE_docked.sdf

>  <pdb_id>  (18) 
6YT6_PKE

>  <pose_rank>  (18) 
17

>  <num_atoms_heavy>  (18) 
31

>  <num_torsions>  (18) 
5

>  <pose>  (18) 
[-0.43081746031044443, 7.1285097687858165, -21.915751084889333, 1.1995478116432807, -3.1783615394393565, -5.217519143195179, -15.523589102518432, -44.14557813781811, -17.549145118834755, 13.975134696217193, 9.126875691513346]

>  <energy>  (18) 
-1447.535487698466

>  <inter_energy>  (18) 
-1486.0557890781172

>  <intra_energy>  (18) 
41.22360808066434

>  <rmsd>  (18) 
2.89792

>  <sdf_rank>  (18) 
0

$$$$

     RDKit          3D

 52 55  0  0  0  0  0  0  0  0999 V2000
    5.1030    3.5658  -19.1315 C   0  0  0  0  0  0  0  0  0  0  0  0
    1.5598    5.8833  -17.9185 C   0  0  0  0  0  0  0  0  0  0  0  0
    0.3318    6.7411  -18.1028 C   0  0  0  0  0  0  0  0  0  0  0  0
    0.0519    7.8295  -17.2821 C   0  0  0  0  0  0  0  0  0  0  0  0
   -1.0968    8.5762  -17.4819 C   0  0  0  0  0  0  0  0  0  0  0  0
   -1.9463    8.2225  -18.5074 C   0  0  0  0  0  0  0  0  0  0  0  0
   -0.6120    6.4813  -19.1127 C   0  0  0  0  0  0  0  0  0  0  0  0
   -0.8522    6.7454  -22.2822 C   0  0  0  0  0  0  0  0  0  0  0  0
    6.9695    3.7955  -17.4065 C   0  0  0  0  0  0  0  0  0  0  0  0
    8.9813    4.6991  -16.4219 C   0  0  0  0  0  0  0  0  0  0  0  0
    6.9458    4.5401  -15.1199 C   0  0  0  0  0  0  0  0  0  0  0  0
    4.3771    4.6279  -18.7448 N   0  0  0  0  0  0  0  0  0  0  0  0
    4.7924    2.7014  -20.1087 N   0  0  0  0  0  0  0  0  0  0  0  0
    3.6371    2.9383  -20.7388 C   0  0  0  0  0  0  0  0  0  0  0  0
    2.8039    3.9916  -20.4352 C   0  0  0  0  0  0  0  0  0  0  0  0
    3.2290    4.8272  -19.4083 C   0  0  0  0  0  0  0  0  0  0  0  0
    2.4744    5.8986  -19.0453 N   0  0  0  0  0  0  0  0  0  0  0  0
    6.2683    3.2549  -18.4998 N   0  0  0  0  0  0  0  0  0  0  0  0
   -1.7271    7.1894  -19.3316 N   0  0  0  0  0  0  0  0  0  0  0  0
   -0.3800    5.3584  -19.9855 N   0  0  0  0  0  0  0  0  0  0  0  0
    0.2504    5.6597  -21.4589 S   0  0  1  0  0  0  0  0  0  0  0  0
   -1.3197    4.2403  -19.8657 C   0  0  0  0  0  0  0  0  0  0  0  0
    0.2643    4.4160  -22.1574 O   0  0  0  0  0  0  0  0  0  0  0  0
    1.4826    6.3427  -21.2427 O   0  0  0  0  0  0  0  0  0  0  0  0
    6.2860    3.9892  -16.2083 C   0  0  0  0  0  0  0  0  0  0  0  0
    8.3145    4.1489  -17.5053 C   0  0  0  0  0  0  0  0  0  0  0  0
    8.2845    4.8908  -15.2367 C   0  0  0  0  0  0  0  0  0  0  0  0
    6.4957    4.8706  -13.7297 C   0  0  0  0  0  0  0  0  0  0  0  0
    7.7294    5.4870  -13.1075 C   0  0  0  0  0  0  0  0  0  0  0  0
    8.7220    5.4470  -14.0332 N   0  0  0  0  0  0  0  0  0  0  0  0
    7.8265    5.9632  -11.9834 O   0  0  0  0  0  0  0  0  0  0  0  0
    2.1009    6.2428  -17.0308 H   0  0  0  0  0  0  0  0  0  0  0  0
    1.2068    4.8468  -17.8138 H   0  0  0  0  0  0  0  0  0  0  0  0
    0.7457    8.0976  -16.4717 H   0  0  0  0  0  0  0  0  0  0  0  0
   -1.3268    9.4352  -16.8344 H   0  0  0  0  0  0  0  0  0  0  0  0
   -2.8560    8.8223  -18.6579 H   0  0  0  0  0  0  0  0  0  0  0  0
   -1.4299    7.3144  -21.5389 H   0  0  0  0  0  0  0  0  0  0  0  0
   -0.2791    7.4416  -22.9122 H   0  0  0  0  0  0  0  0  0  0  0  0
   -1.5394    6.1617  -22.9122 H   0  0  0  0  0  0  0  0  0  0  0  0
   10.0424    4.9785  -16.4997 H   0  0  0  0  0  0  0  0  0  0  0  0
    3.3353    2.2533  -21.5449 H   0  0  0  0  0  0  0  0  0  0  0  0
    1.8593    4.1617  -20.9724 H   0  0  0  0  0  0  0  0  0  0  0  0
    2.5561    6.7642  -19.5975 H   0  0  0  0  0  0  0  0  0  0  0  0
    6.7432    2.4411  -18.9158 H   0  0  0  0  0  0  0  0  0  0  0  0
   -1.5003    4.0254  -18.8021 H   0  0  0  0  0  0  0  0  0  0  0  0
   -2.2697    4.5059  -20.3526 H   0  0  0  0  0  0  0  0  0  0  0  0
   -0.8946    3.3502  -20.3526 H   0  0  0  0  0  0  0  0  0  0  0  0
    5.2263    3.7061  -16.1256 H   0  0  0  0  0  0  0  0  0  0  0  0
    8.8516    3.9895  -18.4520 H   0  0  0  0  0  0  0  0  0  0  0  0
    5.6610    5.5868  -13.7446 H   0  0  0  0  0  0  0  0  0  0  0  0
    6.1232    3.9960  -13.1762 H   0  0  0  0  0  0  0  0  0  0  0  0
    9.6806    5.7856  -13.8677 H   0  0  0  0  0  0  0  0  0  0  0  0
  1 12  2  0
  1 13  1  0
  1 18  1  0
  2  3  1  0
  2 17  1  0
  3  4  2  0
  3  7  1  0
  4  5  1  0
  5  6  2  0
  6 19  1  0
  7 19  2  0
  7 20  1  0
 21  8  1  0
  9 18  1  0
  9 25  2  0
  9 26  1  0
 10 26  2  0
 10 27  1  0
 11 25  1  0
 11 27  2  0
 11 28  1  0
 12 16  1  0
 13 14  2  0
 14 15  1  0
 15 16  2  0
 16 17  1  0
 21 20  1  1
 20 22  1  0
 21 23  2  0
 21 24  2  0
 27 30  1  0
 28 29  1  0
 29 30  1  0
 29 31  2  0
  2 32  1  0
  2 33  1  0
  4 34  1  0
  5 35  1  0
  6 36  1  0
  8 37  1  0
  8 38  1  0
  8 39  1  0
 10 40  1  0
 14 41  1  0
 15 42  1  0
 17 43  1  0
 18 44  1  0
 22 45  1  0
 22 46  1  0
 22 47  1  0
 25 48  1  0
 26 49  1  0
 28 50  1  0
 28 51  1  0
 30 52  1  0
M  END
>  <filename_input>  (19) 
6YT6_PKE_docked.sdf

>  <pdb_id>  (19) 
6YT6_PKE

>  <pose_rank>  (19) 
18

>  <num_atoms_heavy>  (19) 
31

>  <num_torsions>  (19) 
5

>  <pose>  (19) 
[5.102950720649354, 3.565769249208, -19.13151176766064, 3.2369300104834235, 2.4296566433186095, -0.7046619213341537, -1.6500393201981247, 4.649838332989601, -10.39385025524462, 4.045749396509854, 6.677234387944253]

>  <energy>  (19) 
-359.4404173477718

>  <inter_energy>  (19) 
-487.4638966015754

>  <intra_energy>  (19) 
124.97437634340899

>  <rmsd>  (19) 
8.66168

>  <sdf_rank>  (19) 
0

$$$$

     RDKit          3D

 52 55  0  0  0  0  0  0  0  0999 V2000
    1.4005    6.8191  -23.5387 C   0  0  0  0  0  0  0  0  0  0  0  0
    5.2754    5.2506  -22.2402 C   0  0  0  0  0  0  0  0  0  0  0  0
    4.8969    5.8353  -20.9013 C   0  0  0  0  0  0  0  0  0  0  0  0
    3.5802    6.1311  -20.5616 C   0  0  0  0  0  0  0  0  0  0  0  0
    3.2858    6.6819  -19.3260 C   0  0  0  0  0  0  0  0  0  0  0  0
    4.3181    6.9232  -18.4458 C   0  0  0  0  0  0  0  0  0  0  0  0
    5.8596    6.1281  -19.9188 C   0  0  0  0  0  0  0  0  0  0  0  0
    8.1096    4.7246  -17.8979 C   0  0  0  0  0  0  0  0  0  0  0  0
    0.0782    7.6165  -21.5069 C   0  0  0  0  0  0  0  0  0  0  0  0
   -1.1931    8.6639  -19.7405 C   0  0  0  0  0  0  0  0  0  0  0  0
    0.3594    6.8753  -19.2364 C   0  0  0  0  0  0  0  0  0  0  0  0
    2.2947    6.0644  -22.8790 N   0  0  0  0  0  0  0  0  0  0  0  0
    1.3656    7.0406  -24.8609 N   0  0  0  0  0  0  0  0  0  0  0  0
    2.3326    6.4465  -25.5681 C   0  0  0  0  0  0  0  0  0  0  0  0
    3.3074    5.6505  -25.0098 C   0  0  0  0  0  0  0  0  0  0  0  0
    3.2426    5.4858  -23.6307 C   0  0  0  0  0  0  0  0  0  0  0  0
    4.1591    4.7093  -22.9933 N   0  0  0  0  0  0  0  0  0  0  0  0
    0.4177    7.4780  -22.8651 N   0  0  0  0  0  0  0  0  0  0  0  0
    5.6027    6.6552  -18.7151 N   0  0  0  0  0  0  0  0  0  0  0  0
    7.2418    5.8538  -20.2203 N   0  0  0  0  0  0  0  0  0  0  0  0
    7.8923    4.4841  -19.6205 S   0  0  1  0  0  0  0  0  0  0  0  0
    8.1195    7.0200  -20.3525 C   0  0  0  0  0  0  0  0  0  0  0  0
    9.1783    4.3469  -20.2225 O   0  0  0  0  0  0  0  0  0  0  0  0
    6.9262    3.4546  -19.8165 O   0  0  0  0  0  0  0  0  0  0  0  0
    0.6901    6.7761  -20.5796 C   0  0  0  0  0  0  0  0  0  0  0  0
   -0.8578    8.5579  -21.0813 C   0  0  0  0  0  0  0  0  0  0  0  0
   -0.5785    7.8154  -18.8299 C   0  0  0  0  0  0  0  0  0  0  0  0
    0.8276    6.1284  -18.0250 C   0  0  0  0  0  0  0  0  0  0  0  0
    0.0049    6.7346  -16.9094 C   0  0  0  0  0  0  0  0  0  0  0  0
   -0.7682    7.7109  -17.4507 N   0  0  0  0  0  0  0  0  0  0  0  0
    0.0048    6.4013  -15.7309 O   0  0  0  0  0  0  0  0  0  0  0  0
    5.7448    6.0429  -22.8417 H   0  0  0  0  0  0  0  0  0  0  0  0
    5.9543    4.4096  -22.0356 H   0  0  0  0  0  0  0  0  0  0  0  0
    2.7703    5.9264  -21.2773 H   0  0  0  0  0  0  0  0  0  0  0  0
    2.2479    6.9223  -19.0522 H   0  0  0  0  0  0  0  0  0  0  0  0
    4.0735    7.3607  -17.4666 H   0  0  0  0  0  0  0  0  0  0  0  0
    7.4717    4.0188  -17.3458 H   0  0  0  0  0  0  0  0  0  0  0  0
    9.1631    4.5507  -17.6335 H   0  0  0  0  0  0  0  0  0  0  0  0
    7.8305    5.7552  -17.6335 H   0  0  0  0  0  0  0  0  0  0  0  0
   -1.9321    9.4063  -19.4046 H   0  0  0  0  0  0  0  0  0  0  0  0
    2.3502    6.6025  -26.6568 H   0  0  0  0  0  0  0  0  0  0  0  0
    4.0902    5.1736  -25.6180 H   0  0  0  0  0  0  0  0  0  0  0  0
    4.0559    3.6860  -23.0479 H   0  0  0  0  0  0  0  0  0  0  0  0
   -0.2207    7.9902  -23.4905 H   0  0  0  0  0  0  0  0  0  0  0  0
    8.3953    7.3865  -19.3528 H   0  0  0  0  0  0  0  0  0  0  0  0
    9.0286    6.7343  -20.9020 H   0  0  0  0  0  0  0  0  0  0  0  0
    7.5933    7.8144  -20.9020 H   0  0  0  0  0  0  0  0  0  0  0  0
    1.4332    6.0362  -20.9116 H   0  0  0  0  0  0  0  0  0  0  0  0
   -1.3348    9.2227  -21.8164 H   0  0  0  0  0  0  0  0  0  0  0  0
    0.6272    5.0513  -18.1232 H   0  0  0  0  0  0  0  0  0  0  0  0
    1.9116    6.2119  -17.8576 H   0  0  0  0  0  0  0  0  0  0  0  0
   -1.4155    8.3020  -16.9098 H   0  0  0  0  0  0  0  0  0  0  0  0
  1 12  2  0
  1 13  1  0
  1 18  1  0
  2  3  1  0
  2 17  1  0
  3  4  2  0
  3  7  1  0
  4  5  1  0
  5  6  2  0
  6 19  1  0
  7 19  2  0
  7 20  1  0
 21  8  1  0
  9 18  1  0
  9 25  2  0
  9 26  1  0
 10 26  2  0
 10 27  1  0
 11 25  1  0
 11 27  2  0
 11 28  1  0
 12 16  1  0
 13 14  2  0
 14 15  1  0
 15 16  2  0
 16 17  1  0
 21 20  1  6
 20 22  1  0
 21 23  2  0
 21 24  2  0
 27 30  1  0
 28 29  1  0
 29 30  1  0
 29 31  2  0
  2 32  1  0
  2 33  1  0
  4 34  1  0
  5 35  1  0
  6 36  1  0
  8 37  1  0
  8 38  1  0
  8 39  1  0
 10 40  1  0
 14 41  1  0
 15 42  1  0
 17 43  1  0
 18 44  1  0
 22 45  1  0
 22 46  1  0
 22 47  1  0
 25 48  1  0
 26 49  1  0
 28 50  1  0
 28 51  1  0
 30 52  1  0
M  END
>  <filename_input>  (20) 
6YT6_PKE_docked.sdf

>  <pdb_id>  (20) 
6YT6_PKE

>  <pose_rank>  (20) 
19

>  <num_atoms_heavy>  (20) 
31

>  <num_torsions>  (20) 
5

>  <pose>  (20) 
[1.4004618180575, 6.81913107771408, -23.538731545831826, -2.0338646437519183, 1.858679334002569, -1.8511564849400886, -2.773152558382497, 4.734660651812757, -0.23632153862035543, 12.117378329491343, 0.15152224748189796]

>  <energy>  (20) 
-395.76287674639536

>  <inter_energy>  (20) 
-587.7667904876057

>  <intra_energy>  (20) 
179.00474352221985

>  <rmsd>  (20) 
5.73586

>  <sdf_rank>  (20) 
0

$$$$

     RDKit          3D

 52 55  0  0  0  0  0  0  0  0999 V2000
    0.9602    6.7146  -24.7748 C   0  0  0  0  0  0  0  0  0  0  0  0
    3.2187    6.0254  -20.7837 C   0  0  0  0  0  0  0  0  0  0  0  0
    3.6419    5.0368  -19.7248 C   0  0  0  0  0  0  0  0  0  0  0  0
    3.9321    3.7078  -20.0180 C   0  0  0  0  0  0  0  0  0  0  0  0
    4.3007    2.8354  -19.0081 C   0  0  0  0  0  0  0  0  0  0  0  0
    4.3783    3.3115  -17.7174 C   0  0  0  0  0  0  0  0  0  0  0  0
    3.7565    5.4007  -18.3711 C   0  0  0  0  0  0  0  0  0  0  0  0
    6.1736    6.8210  -17.8231 C   0  0  0  0  0  0  0  0  0  0  0  0
    1.9942    6.3189  -27.0741 C   0  0  0  0  0  0  0  0  0  0  0  0
    2.9506    6.3300  -29.2919 C   0  0  0  0  0  0  0  0  0  0  0  0
    3.8539    4.8792  -27.5764 C   0  0  0  0  0  0  0  0  0  0  0  0
    1.9053    6.0936  -24.0499 N   0  0  0  0  0  0  0  0  0  0  0  0
   -0.1617    7.2795  -24.3050 N   0  0  0  0  0  0  0  0  0  0  0  0
   -0.3364    7.1948  -22.9820 C   0  0  0  0  0  0  0  0  0  0  0  0
    0.5574    6.5835  -22.1315 C   0  0  0  0  0  0  0  0  0  0  0  0
    1.6885    6.0373  -22.7278 C   0  0  0  0  0  0  0  0  0  0  0  0
    2.6306    5.4211  -21.9649 N   0  0  0  0  0  0  0  0  0  0  0  0
    1.0674    6.7966  -26.1296 N   0  0  0  0  0  0  0  0  0  0  0  0
    4.1157    4.5801  -17.3759 N   0  0  0  0  0  0  0  0  0  0  0  0
    3.4562    6.7622  -18.0067 N   0  0  0  0  0  0  0  0  0  0  0  0
    4.7086    7.7826  -17.7853 S   0  0  1  0  0  0  0  0  0  0  0  0
    2.2633    6.9630  -17.1794 C   0  0  0  0  0  0  0  0  0  0  0  0
    4.5615    8.3289  -16.4757 O   0  0  0  0  0  0  0  0  0  0  0  0
    4.7168    8.6661  -18.9037 O   0  0  0  0  0  0  0  0  0  0  0  0
    2.9146    5.3533  -26.6730 C   0  0  0  0  0  0  0  0  0  0  0  0
    2.0157    6.7995  -28.3826 C   0  0  0  0  0  0  0  0  0  0  0  0
    3.8644    5.3720  -28.8748 C   0  0  0  0  0  0  0  0  0  0  0  0
    4.9539    3.8698  -27.4508 C   0  0  0  0  0  0  0  0  0  0  0  0
    5.6017    3.8969  -28.8178 C   0  0  0  0  0  0  0  0  0  0  0  0
    4.9063    4.7742  -29.5864 N   0  0  0  0  0  0  0  0  0  0  0  0
    6.5892    3.2676  -29.1763 O   0  0  0  0  0  0  0  0  0  0  0  0
    2.4782    6.7080  -20.3412 H   0  0  0  0  0  0  0  0  0  0  0  0
    4.1317    6.5413  -21.1155 H   0  0  0  0  0  0  0  0  0  0  0  0
    3.8684    3.3490  -21.0559 H   0  0  0  0  0  0  0  0  0  0  0  0
    4.5274    1.7825  -19.2317 H   0  0  0  0  0  0  0  0  0  0  0  0
    4.6724    2.6104  -16.9225 H   0  0  0  0  0  0  0  0  0  0  0  0
    6.4988    6.6076  -16.7942 H   0  0  0  0  0  0  0  0  0  0  0  0
    5.9779    5.8752  -18.3495 H   0  0  0  0  0  0  0  0  0  0  0  0
    6.9636    7.3769  -18.3495 H   0  0  0  0  0  0  0  0  0  0  0  0
    2.9681    6.7095  -30.3242 H   0  0  0  0  0  0  0  0  0  0  0  0
   -1.2450    7.6383  -22.5488 H   0  0  0  0  0  0  0  0  0  0  0  0
    0.3869    6.5305  -21.0461 H   0  0  0  0  0  0  0  0  0  0  0  0
    2.9424    4.4785  -22.2391 H   0  0  0  0  0  0  0  0  0  0  0  0
    0.2968    7.3278  -26.5597 H   0  0  0  0  0  0  0  0  0  0  0  0
    2.5423    6.9161  -16.1163 H   0  0  0  0  0  0  0  0  0  0  0  0
    1.8253    7.9475  -17.4003 H   0  0  0  0  0  0  0  0  0  0  0  0
    1.5271    6.1762  -17.4003 H   0  0  0  0  0  0  0  0  0  0  0  0
    2.8965    4.9681  -25.6428 H   0  0  0  0  0  0  0  0  0  0  0  0
    1.2838    7.5583  -28.6964 H   0  0  0  0  0  0  0  0  0  0  0  0
    5.6700    4.1615  -26.6685 H   0  0  0  0  0  0  0  0  0  0  0  0
    4.5937    2.8712  -27.1625 H   0  0  0  0  0  0  0  0  0  0  0  0
    5.1213    4.9741  -30.5737 H   0  0  0  0  0  0  0  0  0  0  0  0
  1 12  2  0
  1 13  1  0
  1 18  1  0
  2  3  1  0
  2 17  1  0
  3  4  2  0
  3  7  1  0
  4  5  1  0
  5  6  2  0
  6 19  1  0
  7 19  2  0
  7 20  1  0
 21  8  1  0
  9 18  1  0
  9 25  2  0
  9 26  1  0
 10 26  2  0
 10 27  1  0
 11 25  1  0
 11 27  2  0
 11 28  1  0
 12 16  1  0
 13 14  2  0
 14 15  1  0
 15 16  2  0
 16 17  1  0
 21 20  1  6
 20 22  1  0
 21 23  2  0
 21 24  2  0
 27 30  1  0
 28 29  1  0
 29 30  1  0
 29 31  2  0
  2 32  1  0
  2 33  1  0
  4 34  1  0
  5 35  1  0
  6 36  1  0
  8 37  1  0
  8 38  1  0
  8 39  1  0
 10 40  1  0
 14 41  1  0
 15 42  1  0
 17 43  1  0
 18 44  1  0
 22 45  1  0
 22 46  1  0
 22 47  1  0
 25 48  1  0
 26 49  1  0
 28 50  1  0
 28 51  1  0
 30 52  1  0
M  END
>  <filename_input>  (21) 
6YT6_PKE_docked.sdf

>  <pdb_id>  (21) 
6YT6_PKE

>  <pose_rank>  (21) 
20

>  <num_atoms_heavy>  (21) 
31

>  <num_torsions>  (21) 
5

>  <pose>  (21) 
[0.9602300731659267, 6.714646113303442, -24.774802657525292, -0.09079183348901951, 0.19298447841738237, 0.0819878399574031, -2.318986348152979, 2.055536198945302, 1.0745040491240774, 0.2231876190399452, 1.2689342979419054]

>  <energy>  (21) 
-550.8618876622007

>  <inter_energy>  (21) 
-584.5600168041838

>  <intra_energy>  (21) 
31.452567929603752

>  <rmsd>  (21) 
3.83905

>  <sdf_rank>  (21) 
0

$$$$

     RDKit          3D

 52 55  0  0  0  0  0  0  0  0999 V2000
    3.0454    6.1535  -25.3231 C   0  0  0  0  0  0  0  0  0  0  0  0
    3.6776    6.2862  -20.7080 C   0  0  0  0  0  0  0  0  0  0  0  0
    2.6697    5.8413  -19.6766 C   0  0  0  0  0  0  0  0  0  0  0  0
    1.3068    5.7677  -19.9483 C   0  0  0  0  0  0  0  0  0  0  0  0
    0.4199    5.3689  -18.9628 C   0  0  0  0  0  0  0  0  0  0  0  0
    0.9149    5.0440  -17.7187 C   0  0  0  0  0  0  0  0  0  0  0  0
    3.0502    5.4851  -18.3703 C   0  0  0  0  0  0  0  0  0  0  0  0
    6.9471    4.5637  -17.5843 C   0  0  0  0  0  0  0  0  0  0  0  0
    4.8393    5.5132  -27.0214 C   0  0  0  0  0  0  0  0  0  0  0  0
    7.2487    5.5821  -27.1753 C   0  0  0  0  0  0  0  0  0  0  0  0
    6.0036    3.8061  -28.2520 C   0  0  0  0  0  0  0  0  0  0  0  0
    3.7007    5.7562  -24.2198 N   0  0  0  0  0  0  0  0  0  0  0  0
    1.8064    6.6642  -25.3736 N   0  0  0  0  0  0  0  0  0  0  0  0
    1.1807    6.7699  -24.1966 C   0  0  0  0  0  0  0  0  0  0  0  0
    1.7433    6.3965  -22.9968 C   0  0  0  0  0  0  0  0  0  0  0  0
    3.0346    5.8852  -23.0631 C   0  0  0  0  0  0  0  0  0  0  0  0
    3.6735    5.4983  -21.9268 N   0  0  0  0  0  0  0  0  0  0  0  0
    3.6194    6.0331  -26.5518 N   0  0  0  0  0  0  0  0  0  0  0  0
    2.2154    5.0911  -17.4004 N   0  0  0  0  0  0  0  0  0  0  0  0
    4.4484    5.5541  -18.0283 N   0  0  0  0  0  0  0  0  0  0  0  0
    5.3003    4.1637  -18.0321 S   0  0  1  0  0  0  0  0  0  0  0  0
    4.8259    6.5781  -17.0502 C   0  0  0  0  0  0  0  0  0  0  0  0
    5.3011    3.6909  -19.3780 O   0  0  0  0  0  0  0  0  0  0  0  0
    4.7403    3.3402  -17.0124 O   0  0  0  0  0  0  0  0  0  0  0  0
    4.8149    4.3536  -27.7930 C   0  0  0  0  0  0  0  0  0  0  0  0
    6.0563    6.1225  -26.7196 C   0  0  0  0  0  0  0  0  0  0  0  0
    7.2075    4.4232  -27.9383 C   0  0  0  0  0  0  0  0  0  0  0  0
    6.3018    2.5929  -29.0789 C   0  0  0  0  0  0  0  0  0  0  0  0
    7.8133    2.5870  -29.1460 C   0  0  0  0  0  0  0  0  0  0  0  0
    8.2600    3.6825  -28.4795 N   0  0  0  0  0  0  0  0  0  0  0  0
    8.5225    1.7426  -29.6788 O   0  0  0  0  0  0  0  0  0  0  0  0
    3.4607    7.3315  -20.9730 H   0  0  0  0  0  0  0  0  0  0  0  0
    4.6709    6.1573  -20.2533 H   0  0  0  0  0  0  0  0  0  0  0  0
    0.9329    6.0273  -20.9497 H   0  0  0  0  0  0  0  0  0  0  0  0
   -0.6591    5.3126  -19.1691 H   0  0  0  0  0  0  0  0  0  0  0  0
    0.2020    4.7280  -16.9429 H   0  0  0  0  0  0  0  0  0  0  0  0
    7.0341    4.5848  -16.4879 H   0  0  0  0  0  0  0  0  0  0  0  0
    7.6323    3.8058  -17.9920 H   0  0  0  0  0  0  0  0  0  0  0  0
    7.2083    5.5514  -17.9920 H   0  0  0  0  0  0  0  0  0  0  0  0
    8.2091    6.0624  -26.9368 H   0  0  0  0  0  0  0  0  0  0  0  0
    0.1593    7.1782  -24.1864 H   0  0  0  0  0  0  0  0  0  0  0  0
    1.2039    6.4965  -22.0434 H   0  0  0  0  0  0  0  0  0  0  0  0
    4.1796    4.6012  -21.9312 H   0  0  0  0  0  0  0  0  0  0  0  0
    3.0273    6.4066  -27.3074 H   0  0  0  0  0  0  0  0  0  0  0  0
    4.6809    6.1849  -16.0332 H   0  0  0  0  0  0  0  0  0  0  0  0
    5.8827    6.8483  -17.1917 H   0  0  0  0  0  0  0  0  0  0  0  0
    4.1973    7.4697  -17.1917 H   0  0  0  0  0  0  0  0  0  0  0  0
    3.8558    3.8737  -28.0375 H   0  0  0  0  0  0  0  0  0  0  0  0
    6.0705    7.0407  -26.1142 H   0  0  0  0  0  0  0  0  0  0  0  0
    5.9245    1.6811  -28.5928 H   0  0  0  0  0  0  0  0  0  0  0  0
    5.8249    2.6170  -30.0698 H   0  0  0  0  0  0  0  0  0  0  0  0
    9.2538    3.9360  -28.3848 H   0  0  0  0  0  0  0  0  0  0  0  0
  1 12  2  0
  1 13  1  0
  1 18  1  0
  2  3  1  0
  2 17  1  0
  3  4  2  0
  3  7  1  0
  4  5  1  0
  5  6  2  0
  6 19  1  0
  7 19  2  0
  7 20  1  0
 21  8  1  0
  9 18  1  0
  9 25  2  0
  9 26  1  0
 10 26  2  0
 10 27  1  0
 11 25  1  0
 11 27  2  0
 11 28  1  0
 12 16  1  0
 13 14  2  0
 14 15  1  0
 15 16  2  0
 16 17  1  0
 21 20  1  6
 20 22  1  0
 21 23  2  0
 21 24  2  0
 27 30  1  0
 28 29  1  0
 29 30  1  0
 29 31  2  0
  2 32  1  0
  2 33  1  0
  4 34  1  0
  5 35  1  0
  6 36  1  0
  8 37  1  0
  8 38  1  0
  8 39  1  0
 10 40  1  0
 14 41  1  0
 15 42  1  0
 17 43  1  0
 18 44  1  0
 22 45  1  0
 22 46  1  0
 22 47  1  0
 25 48  1  0
 26 49  1  0
 28 50  1  0
 28 51  1  0
 30 52  1  0
M  END
>  <filename_input>  (22) 
6YT6_PKE_docked.sdf

>  <pdb_id>  (22) 
6YT6_PKE

>  <pose_rank>  (22) 
21

>  <num_atoms_heavy>  (22) 
31

>  <num_torsions>  (22) 
5

>  <pose>  (22) 
[3.045426176403603, 6.1535283092798325, -25.32309104349174, -0.28426800001027086, -0.1590515797834556, 0.12331505109549577, -0.6083215515948345, 2.1563809784327623, 0.18187546257727993, -1.1848406094843678, 4.561846458662293]

>  <energy>  (22) 
-541.8748451181315

>  <inter_energy>  (22) 
-588.8729258613056

>  <intra_energy>  (22) 
27.28996137328432

>  <rmsd>  (22) 
4.39624

>  <sdf_rank>  (22) 
0

$$$$

     RDKit          3D

 52 55  0  0  0  0  0  0  0  0999 V2000
    6.6349    4.0563  -17.4348 C   0  0  0  0  0  0  0  0  0  0  0  0
    3.3223    5.3164  -20.1753 C   0  0  0  0  0  0  0  0  0  0  0  0
    3.5170    6.4878  -19.2439 C   0  0  0  0  0  0  0  0  0  0  0  0
    4.6788    7.2539  -19.2411 C   0  0  0  0  0  0  0  0  0  0  0  0
    4.8160    8.3093  -18.3555 C   0  0  0  0  0  0  0  0  0  0  0  0
    3.7814    8.5844  -17.4881 C   0  0  0  0  0  0  0  0  0  0  0  0
    2.5351    6.8676  -18.3113 C   0  0  0  0  0  0  0  0  0  0  0  0
   -1.1804    5.4242  -19.1175 C   0  0  0  0  0  0  0  0  0  0  0  0
    8.9736    4.6511  -18.2648 C   0  0  0  0  0  0  0  0  0  0  0  0
   10.7262    6.1540  -18.9743 C   0  0  0  0  0  0  0  0  0  0  0  0
   10.1910    4.1909  -20.2872 C   0  0  0  0  0  0  0  0  0  0  0  0
    5.9964    4.1806  -18.6101 N   0  0  0  0  0  0  0  0  0  0  0  0
    6.0769    3.7581  -16.2523 N   0  0  0  0  0  0  0  0  0  0  0  0
    4.7518    3.5799  -16.2716 C   0  0  0  0  0  0  0  0  0  0  0  0
    3.9844    3.6811  -17.4103 C   0  0  0  0  0  0  0  0  0  0  0  0
    4.6695    3.9889  -18.5804 C   0  0  0  0  0  0  0  0  0  0  0  0
    3.9948    4.1007  -19.7557 N   0  0  0  0  0  0  0  0  0  0  0  0
    7.9777    4.2646  -17.3495 N   0  0  0  0  0  0  0  0  0  0  0  0
    2.6390    7.8858  -17.4480 N   0  0  0  0  0  0  0  0  0  0  0  0
    1.3152    6.1021  -18.2608 N   0  0  0  0  0  0  0  0  0  0  0  0
    0.0046    6.7117  -19.0155 S   0  0  1  0  0  0  0  0  0  0  0  0
    1.0929    5.3181  -17.0428 C   0  0  0  0  0  0  0  0  0  0  0  0
    0.4178    7.0501  -20.3383 O   0  0  0  0  0  0  0  0  0  0  0  0
   -0.5114    7.7373  -18.1710 O   0  0  0  0  0  0  0  0  0  0  0  0
    9.2012    3.8464  -19.3789 C   0  0  0  0  0  0  0  0  0  0  0  0
    9.7357    5.8022  -18.0707 C   0  0  0  0  0  0  0  0  0  0  0  0
   10.9442    5.3386  -20.0763 C   0  0  0  0  0  0  0  0  0  0  0  0
   10.6696    3.5435  -21.5506 C   0  0  0  0  0  0  0  0  0  0  0  0
   11.8052    4.4426  -21.9876 C   0  0  0  0  0  0  0  0  0  0  0  0
   11.8896    5.4633  -21.0960 N   0  0  0  0  0  0  0  0  0  0  0  0
   12.5413    4.2814  -22.9530 O   0  0  0  0  0  0  0  0  0  0  0  0
    2.2446    5.1073  -20.2449 H   0  0  0  0  0  0  0  0  0  0  0  0
    3.7655    5.6043  -21.1399 H   0  0  0  0  0  0  0  0  0  0  0  0
    5.4911    7.0201  -19.9451 H   0  0  0  0  0  0  0  0  0  0  0  0
    5.7332    8.9164  -18.3447 H   0  0  0  0  0  0  0  0  0  0  0  0
    3.9003    9.4252  -16.7888 H   0  0  0  0  0  0  0  0  0  0  0  0
   -1.4691    5.1105  -18.1035 H   0  0  0  0  0  0  0  0  0  0  0  0
   -2.0687    5.7853  -19.6565 H   0  0  0  0  0  0  0  0  0  0  0  0
   -0.7470    4.5688  -19.6565 H   0  0  0  0  0  0  0  0  0  0  0  0
   11.3279    7.0619  -18.8210 H   0  0  0  0  0  0  0  0  0  0  0  0
    4.2465    3.3389  -15.3247 H   0  0  0  0  0  0  0  0  0  0  0  0
    2.8953    3.5277  -17.3952 H   0  0  0  0  0  0  0  0  0  0  0  0
    3.9592    3.2817  -20.3793 H   0  0  0  0  0  0  0  0  0  0  0  0
    8.3474    4.1028  -16.4018 H   0  0  0  0  0  0  0  0  0  0  0  0
    1.2724    5.9511  -16.1613 H   0  0  0  0  0  0  0  0  0  0  0  0
    0.0555    4.9524  -17.0264 H   0  0  0  0  0  0  0  0  0  0  0  0
    1.7837    4.4622  -17.0264 H   0  0  0  0  0  0  0  0  0  0  0  0
    8.5978    2.9405  -19.5377 H   0  0  0  0  0  0  0  0  0  0  0  0
    9.5492    6.4373  -17.1921 H   0  0  0  0  0  0  0  0  0  0  0  0
   11.0267    2.5207  -21.3596 H   0  0  0  0  0  0  0  0  0  0  0  0
    9.8808    3.4426  -22.3106 H   0  0  0  0  0  0  0  0  0  0  0  0
   12.5682    6.2352  -21.1637 H   0  0  0  0  0  0  0  0  0  0  0  0
  1 12  2  0
  1 13  1  0
  1 18  1  0
  2  3  1  0
  2 17  1  0
  3  4  2  0
  3  7  1  0
  4  5  1  0
  5  6  2  0
  6 19  1  0
  7 19  2  0
  7 20  1  0
 21  8  1  0
  9 18  1  0
  9 25  2  0
  9 26  1  0
 10 26  2  0
 10 27  1  0
 11 25  1  0
 11 27  2  0
 11 28  1  0
 12 16  1  0
 13 14  2  0
 14 15  1  0
 15 16  2  0
 16 17  1  0
 21 20  1  1
 20 22  1  0
 21 23  2  0
 21 24  2  0
 27 30  1  0
 28 29  1  0
 29 30  1  0
 29 31  2  0
  2 32  1  0
  2 33  1  0
  4 34  1  0
  5 35  1  0
  6 36  1  0
  8 37  1  0
  8 38  1  0
  8 39  1  0
 10 40  1  0
 14 41  1  0
 15 42  1  0
 17 43  1  0
 18 44  1  0
 22 45  1  0
 22 46  1  0
 22 47  1  0
 25 48  1  0
 26 49  1  0
 28 50  1  0
 28 51  1  0
 30 52  1  0
M  END
>  <filename_input>  (23) 
6YT6_PKE_docked.sdf

>  <pdb_id>  (23) 
6YT6_PKE

>  <pose_rank>  (23) 
22

>  <num_atoms_heavy>  (23) 
31

>  <num_torsions>  (23) 
5

>  <pose>  (23) 
[6.634883924427303, 4.05634638176725, -17.434774887931184, 2.1568568937391848, -0.05852527284227996, -1.5101067017148788, -9.893448853332414, 4.408784726871822, 4.8171822654555525, 1.1920396450601192, -1.95202189016574]

>  <energy>  (23) 
-566.511544581629

>  <inter_energy>  (23) 
-617.3756932899981

>  <intra_energy>  (23) 
34.999226682000135

>  <rmsd>  (23) 
7.60914

>  <sdf_rank>  (23) 
0

$$$$

     RDKit          3D

 52 55  0  0  0  0  0  0  0  0999 V2000
    7.4183    5.2042  -18.4110 C   0  0  0  0  0  0  0  0  0  0  0  0
    3.0731    4.0915  -17.8207 C   0  0  0  0  0  0  0  0  0  0  0  0
    3.1006    4.7009  -19.2011 C   0  0  0  0  0  0  0  0  0  0  0  0
    3.6720    4.0524  -20.2918 C   0  0  0  0  0  0  0  0  0  0  0  0
    3.6866    4.6607  -21.5355 C   0  0  0  0  0  0  0  0  0  0  0  0
    3.1217    5.9105  -21.6679 C   0  0  0  0  0  0  0  0  0  0  0  0
    2.5580    5.9715  -19.4640 C   0  0  0  0  0  0  0  0  0  0  0  0
   -0.0466    5.8219  -16.7506 C   0  0  0  0  0  0  0  0  0  0  0  0
    8.7012    3.8906  -20.1833 C   0  0  0  0  0  0  0  0  0  0  0  0
    8.3993    2.8222  -22.3282 C   0  0  0  0  0  0  0  0  0  0  0  0
    9.8964    1.8645  -20.6835 C   0  0  0  0  0  0  0  0  0  0  0  0
    6.3953    4.3460  -18.2650 N   0  0  0  0  0  0  0  0  0  0  0  0
    7.5643    6.3834  -17.7891 N   0  0  0  0  0  0  0  0  0  0  0  0
    6.5757    6.7176  -16.9530 C   0  0  0  0  0  0  0  0  0  0  0  0
    5.4740    5.9259  -16.7183 C   0  0  0  0  0  0  0  0  0  0  0  0
    5.4304    4.7224  -17.4132 C   0  0  0  0  0  0  0  0  0  0  0  0
    4.3839    3.8719  -17.2378 N   0  0  0  0  0  0  0  0  0  0  0  0
    8.4329    4.9330  -19.2775 N   0  0  0  0  0  0  0  0  0  0  0  0
    2.5535    6.5805  -20.6565 N   0  0  0  0  0  0  0  0  0  0  0  0
    1.9635    6.6952  -18.3688 N   0  0  0  0  0  0  0  0  0  0  0  0
    0.3385    6.6701  -18.2354 S   0  0  1  0  0  0  0  0  0  0  0  0
    2.6601    7.9122  -17.9429 C   0  0  0  0  0  0  0  0  0  0  0  0
   -0.1478    5.9004  -19.3337 O   0  0  0  0  0  0  0  0  0  0  0  0
   -0.0804    8.0262  -18.1049 O   0  0  0  0  0  0  0  0  0  0  0  0
    9.5963    2.8932  -19.8031 C   0  0  0  0  0  0  0  0  0  0  0  0
    8.1054    3.8474  -21.4429 C   0  0  0  0  0  0  0  0  0  0  0  0
    9.2975    1.8391  -21.9363 C   0  0  0  0  0  0  0  0  0  0  0  0
   10.8016    0.6757  -20.5740 C   0  0  0  0  0  0  0  0  0  0  0  0
   10.6675    0.0169  -21.9294 C   0  0  0  0  0  0  0  0  0  0  0  0
    9.7704    0.7369  -22.6510 N   0  0  0  0  0  0  0  0  0  0  0  0
   11.2692   -0.9719  -22.3293 O   0  0  0  0  0  0  0  0  0  0  0  0
    2.5100    4.7652  -17.1581 H   0  0  0  0  0  0  0  0  0  0  0  0
    2.6043    3.1017  -17.9230 H   0  0  0  0  0  0  0  0  0  0  0  0
    4.1137    3.0530  -20.1654 H   0  0  0  0  0  0  0  0  0  0  0  0
    4.1403    4.1560  -22.4011 H   0  0  0  0  0  0  0  0  0  0  0  0
    3.1381    6.3848  -22.6602 H   0  0  0  0  0  0  0  0  0  0  0  0
    0.2361    6.4443  -15.8889 H   0  0  0  0  0  0  0  0  0  0  0  0
   -1.1266    5.6158  -16.7156 H   0  0  0  0  0  0  0  0  0  0  0  0
    0.5090    4.8732  -16.7156 H   0  0  0  0  0  0  0  0  0  0  0  0
    7.9297    2.7882  -23.3224 H   0  0  0  0  0  0  0  0  0  0  0  0
    6.6467    7.6789  -16.4230 H   0  0  0  0  0  0  0  0  0  0  0  0
    4.6766    6.2273  -16.0231 H   0  0  0  0  0  0  0  0  0  0  0  0
    4.5288    3.0299  -16.6627 H   0  0  0  0  0  0  0  0  0  0  0  0
    9.1696    5.6528  -19.2675 H   0  0  0  0  0  0  0  0  0  0  0  0
    2.6847    7.9551  -16.8440 H   0  0  0  0  0  0  0  0  0  0  0  0
    3.6888    7.9013  -18.3325 H   0  0  0  0  0  0  0  0  0  0  0  0
    2.1298    8.7937  -18.3325 H   0  0  0  0  0  0  0  0  0  0  0  0
   10.0637    2.9215  -18.8078 H   0  0  0  0  0  0  0  0  0  0  0  0
    7.3954    4.6344  -21.7370 H   0  0  0  0  0  0  0  0  0  0  0  0
   11.8401    0.9860  -20.3867 H   0  0  0  0  0  0  0  0  0  0  0  0
   10.5392    0.0076  -19.7405 H   0  0  0  0  0  0  0  0  0  0  0  0
    9.4749    0.4990  -23.6086 H   0  0  0  0  0  0  0  0  0  0  0  0
  1 12  2  0
  1 13  1  0
  1 18  1  0
  2  3  1  0
  2 17  1  0
  3  4  2  0
  3  7  1  0
  4  5  1  0
  5  6  2  0
  6 19  1  0
  7 19  2  0
  7 20  1  0
 21  8  1  0
  9 18  1  0
  9 25  2  0
  9 26  1  0
 10 26  2  0
 10 27  1  0
 11 25  1  0
 11 27  2  0
 11 28  1  0
 12 16  1  0
 13 14  2  0
 14 15  1  0
 15 16  2  0
 16 17  1  0
 21 20  1  6
 20 22  1  0
 21 23  2  0
 21 24  2  0
 27 30  1  0
 28 29  1  0
 29 30  1  0
 29 31  2  0
  2 32  1  0
  2 33  1  0
  4 34  1  0
  5 35  1  0
  6 36  1  0
  8 37  1  0
  8 38  1  0
  8 39  1  0
 10 40  1  0
 14 41  1  0
 15 42  1  0
 17 43  1  0
 18 44  1  0
 22 45  1  0
 22 46  1  0
 22 47  1  0
 25 48  1  0
 26 49  1  0
 28 50  1  0
 28 51  1  0
 30 52  1  0
M  END
>  <filename_input>  (24) 
6YT6_PKE_docked.sdf

>  <pdb_id>  (24) 
6YT6_PKE

>  <pose_rank>  (24) 
23

>  <num_atoms_heavy>  (24) 
31

>  <num_torsions>  (24) 
5

>  <pose>  (24) 
[7.418330576323828, 5.204186700786066, -18.41095684464307, 0.563894751102551, -0.5186773066017871, -1.3881830632758436, 1.972083267002904, -2.0181752514682265, -7.18277428001499, -5.367443441257773, -2.8591034083242244]

>  <energy>  (24) 
-592.8074678798155

>  <inter_energy>  (24) 
-579.5248374367574

>  <intra_energy>  (24) 
15.887541553747688

>  <rmsd>  (24) 
7.59019

>  <sdf_rank>  (24) 
0

$$$$

     RDKit          3D

 52 55  0  0  0  0  0  0  0  0999 V2000
    5.9987    6.3248  -17.5026 C   0  0  0  0  0  0  0  0  0  0  0  0
    2.2857    5.0717  -19.6743 C   0  0  0  0  0  0  0  0  0  0  0  0
    1.0347    5.9014  -19.5183 C   0  0  0  0  0  0  0  0  0  0  0  0
    0.6171    6.3975  -18.2870 C   0  0  0  0  0  0  0  0  0  0  0  0
   -0.5474    7.1406  -18.1934 C   0  0  0  0  0  0  0  0  0  0  0  0
   -1.2740    7.3799  -19.3393 C   0  0  0  0  0  0  0  0  0  0  0  0
    0.2076    6.2126  -20.6124 C   0  0  0  0  0  0  0  0  0  0  0  0
    2.4354    5.7925  -23.9085 C   0  0  0  0  0  0  0  0  0  0  0  0
    8.1632    5.4150  -18.5024 C   0  0  0  0  0  0  0  0  0  0  0  0
   10.2223    4.2053  -18.8634 C   0  0  0  0  0  0  0  0  0  0  0  0
    8.4530    4.1308  -20.5150 C   0  0  0  0  0  0  0  0  0  0  0  0
    5.1572    5.4612  -18.0946 N   0  0  0  0  0  0  0  0  0  0  0  0
    5.6602    7.3422  -16.6971 N   0  0  0  0  0  0  0  0  0  0  0  0
    4.3487    7.4948  -16.4856 C   0  0  0  0  0  0  0  0  0  0  0  0
    3.3866    6.6775  -17.0352 C   0  0  0  0  0  0  0  0  0  0  0  0
    3.8526    5.6515  -17.8496 C   0  0  0  0  0  0  0  0  0  0  0  0
    2.9750    4.7892  -18.4287 N   0  0  0  0  0  0  0  0  0  0  0  0
    7.3412    6.2402  -17.7134 N   0  0  0  0  0  0  0  0  0  0  0  0
   -0.9196    6.9328  -20.5514 N   0  0  0  0  0  0  0  0  0  0  0  0
    0.5844    5.7146  -21.9111 N   0  0  0  0  0  0  0  0  0  0  0  0
    1.3346    6.7430  -22.9301 S   0  0  1  0  0  0  0  0  0  0  0  0
   -0.2982    4.7022  -22.4974 C   0  0  0  0  0  0  0  0  0  0  0  0
    2.1032    7.6304  -22.1196 O   0  0  0  0  0  0  0  0  0  0  0  0
    0.3253    7.2842  -23.7787 O   0  0  0  0  0  0  0  0  0  0  0  0
    7.6734    4.9628  -19.7256 C   0  0  0  0  0  0  0  0  0  0  0  0
    9.4365    5.0359  -18.0798 C   0  0  0  0  0  0  0  0  0  0  0  0
    9.7174    3.7590  -20.0769 C   0  0  0  0  0  0  0  0  0  0  0  0
    8.2122    3.4882  -21.8467 C   0  0  0  0  0  0  0  0  0  0  0  0
    9.4723    2.6815  -22.0710 C   0  0  0  0  0  0  0  0  0  0  0  0
   10.2973    2.9034  -21.0156 N   0  0  0  0  0  0  0  0  0  0  0  0
    9.7118    1.9386  -23.0146 O   0  0  0  0  0  0  0  0  0  0  0  0
    2.0081    4.1141  -20.1390 H   0  0  0  0  0  0  0  0  0  0  0  0
    2.9795    5.6615  -20.2912 H   0  0  0  0  0  0  0  0  0  0  0  0
    1.2143    6.1987  -17.3849 H   0  0  0  0  0  0  0  0  0  0  0  0
   -0.8860    7.5323  -17.2228 H   0  0  0  0  0  0  0  0  0  0  0  0
   -2.1974    7.9716  -19.2542 H   0  0  0  0  0  0  0  0  0  0  0  0
    3.1038    5.2153  -23.2527 H   0  0  0  0  0  0  0  0  0  0  0  0
    1.8595    5.1031  -24.5434 H   0  0  0  0  0  0  0  0  0  0  0  0
    3.0336    6.4626  -24.5434 H   0  0  0  0  0  0  0  0  0  0  0  0
   11.2268    3.9056  -18.5299 H   0  0  0  0  0  0  0  0  0  0  0  0
    4.0201    8.3195  -15.8360 H   0  0  0  0  0  0  0  0  0  0  0  0
    2.3141    6.8273  -16.8417 H   0  0  0  0  0  0  0  0  0  0  0  0
    2.7902    3.8909  -17.9601 H   0  0  0  0  0  0  0  0  0  0  0  0
    7.8747    6.9368  -17.1741 H   0  0  0  0  0  0  0  0  0  0  0  0
   -0.7917    4.1362  -21.6936 H   0  0  0  0  0  0  0  0  0  0  0  0
   -1.0597    5.1956  -23.1194 H   0  0  0  0  0  0  0  0  0  0  0  0
    0.2943    4.0151  -23.1194 H   0  0  0  0  0  0  0  0  0  0  0  0
    6.6714    5.2648  -20.0642 H   0  0  0  0  0  0  0  0  0  0  0  0
    9.8212    5.3993  -17.1155 H   0  0  0  0  0  0  0  0  0  0  0  0
    7.3263    2.8367  -21.8165 H   0  0  0  0  0  0  0  0  0  0  0  0
    8.0155    4.2151  -22.6485 H   0  0  0  0  0  0  0  0  0  0  0  0
   11.2363    2.4910  -20.9192 H   0  0  0  0  0  0  0  0  0  0  0  0
  1 12  2  0
  1 13  1  0
  1 18  1  0
  2  3  1  0
  2 17  1  0
  3  4  2  0
  3  7  1  0
  4  5  1  0
  5  6  2  0
  6 19  1  0
  7 19  2  0
  7 20  1  0
 21  8  1  0
  9 18  1  0
  9 25  2  0
  9 26  1  0
 10 26  2  0
 10 27  1  0
 11 25  1  0
 11 27  2  0
 11 28  1  0
 12 16  1  0
 13 14  2  0
 14 15  1  0
 15 16  2  0
 16 17  1  0
 21 20  1  1
 20 22  1  0
 21 23  2  0
 21 24  2  0
 27 30  1  0
 28 29  1  0
 29 30  1  0
 29 31  2  0
  2 32  1  0
  2 33  1  0
  4 34  1  0
  5 35  1  0
  6 36  1  0
  8 37  1  0
  8 38  1  0
  8 39  1  0
 10 40  1  0
 14 41  1  0
 15 42  1  0
 17 43  1  0
 18 44  1  0
 22 45  1  0
 22 46  1  0
 22 47  1  0
 25 48  1  0
 26 49  1  0
 28 50  1  0
 28 51  1  0
 30 52  1  0
M  END
>  <filename_input>  (25) 
6YT6_PKE_docked.sdf

>  <pdb_id>  (25) 
6YT6_PKE

>  <pose_rank>  (25) 
24

>  <num_atoms_heavy>  (25) 
31

>  <num_torsions>  (25) 
5

>  <pose>  (25) 
[5.998727658642067, 6.324843768985344, -17.50260710927102, -2.7270552011640894, 1.9074961196425229, 2.9016750217968554, -1.9753855708594739, -1.8751473484484027, 3.2817598403607136, -0.14037440456236913, -2.278467965371633]

>  <energy>  (25) 
-616.0679046625215

>  <inter_energy>  (25) 
-616.4683263957872

>  <intra_energy>  (25) 
41.33769845748663

>  <rmsd>  (25) 
7.04616

>  <sdf_rank>  (25) 
0

$$$$

     RDKit          3D

 52 55  0  0  0  0  0  0  0  0999 V2000
   -0.4460    7.3500  -21.7930 C   0  0  0  0  0  0  0  0  0  0  0  0
    1.8960    5.2330  -19.1420 C   0  0  0  0  0  0  0  0  0  0  0  0
    2.9760    6.1990  -18.7200 C   0  0  0  0  0  0  0  0  0  0  0  0
    2.7140    7.3100  -17.9240 C   0  0  0  0  0  0  0  0  0  0  0  0
    3.7370    8.1760  -17.5770 C   0  0  0  0  0  0  0  0  0  0  0  0
    5.0110    7.9110  -18.0300 C   0  0  0  0  0  0  0  0  0  0  0  0
    4.3150    6.0380  -19.1190 C   0  0  0  0  0  0  0  0  0  0  0  0
    7.0180    3.9320  -19.0480 C   0  0  0  0  0  0  0  0  0  0  0  0
    0.9850    7.0530  -23.8850 C   0  0  0  0  0  0  0  0  0  0  0  0
    3.2630    6.2930  -24.1430 C   0  0  0  0  0  0  0  0  0  0  0  0
    1.7650    6.3390  -26.0450 C   0  0  0  0  0  0  0  0  0  0  0  0
    0.2920    6.5890  -20.9680 N   0  0  0  0  0  0  0  0  0  0  0  0
   -1.5940    7.9730  -21.4890 N   0  0  0  0  0  0  0  0  0  0  0  0
   -2.0290    7.7960  -20.2370 C   0  0  0  0  0  0  0  0  0  0  0  0
   -1.3650    7.0390  -19.2980 C   0  0  0  0  0  0  0  0  0  0  0  0
   -0.1820    6.4440  -19.7220 C   0  0  0  0  0  0  0  0  0  0  0  0
    0.5460    5.6850  -18.8600 N   0  0  0  0  0  0  0  0  0  0  0  0
   -0.0710    7.5330  -23.0890 N   0  0  0  0  0  0  0  0  0  0  0  0
    5.3240    6.8560  -18.7940 N   0  0  0  0  0  0  0  0  0  0  0  0
    4.6430    4.9110  -19.9550 N   0  0  0  0  0  0  0  0  0  0  0  0
    5.3070    3.6040  -19.2410 S   0  0  1  0  0  0  0  0  0  0  0  0
    5.0610    5.2210  -21.3250 C   0  0  0  0  0  0  0  0  0  0  0  0
    5.1560    2.5200  -20.1560 O   0  0  0  0  0  0  0  0  0  0  0  0
    4.7160    3.5020  -17.9480 O   0  0  0  0  0  0  0  0  0  0  0  0
    0.7490    6.8320  -25.2400 C   0  0  0  0  0  0  0  0  0  0  0  0
    2.2420    6.7850  -23.3450 C   0  0  0  0  0  0  0  0  0  0  0  0
    3.0100    6.0730  -25.4900 C   0  0  0  0  0  0  0  0  0  0  0  0
    1.8210    5.9990  -27.5030 C   0  0  0  0  0  0  0  0  0  0  0  0
    3.2280    5.4710  -27.6780 C   0  0  0  0  0  0  0  0  0  0  0  0
    3.8550    5.5620  -26.4770 N   0  0  0  0  0  0  0  0  0  0  0  0
    3.7210    5.0170  -28.7030 O   0  0  0  0  0  0  0  0  0  0  0  0
    1.9849    5.0692  -20.2261 H   0  0  0  0  0  0  0  0  0  0  0  0
    2.0491    4.3144  -18.5565 H   0  0  0  0  0  0  0  0  0  0  0  0
    1.6904    7.5008  -17.5692 H   0  0  0  0  0  0  0  0  0  0  0  0
    3.5366    9.0585  -16.9517 H   0  0  0  0  0  0  0  0  0  0  0  0
    5.8167    8.6050  -17.7484 H   0  0  0  0  0  0  0  0  0  0  0  0
    7.2638    3.9791  -17.9769 H   0  0  0  0  0  0  0  0  0  0  0  0
    7.6011    3.1293  -19.5230 H   0  0  0  0  0  0  0  0  0  0  0  0
    7.2629    4.8935  -19.5230 H   0  0  0  0  0  0  0  0  0  0  0  0
    4.2547    6.0810  -23.7170 H   0  0  0  0  0  0  0  0  0  0  0  0
   -2.9700    8.2824  -19.9407 H   0  0  0  0  0  0  0  0  0  0  0  0
   -1.7473    6.9126  -18.2743 H   0  0  0  0  0  0  0  0  0  0  0  0
    0.1180    5.4175  -17.9621 H   0  0  0  0  0  0  0  0  0  0  0  0
   -0.7023    8.1649  -23.6019 H   0  0  0  0  0  0  0  0  0  0  0  0
    5.9443    5.8761  -21.2995 H   0  0  0  0  0  0  0  0  0  0  0  0
    5.3112    4.2884  -21.8519 H   0  0  0  0  0  0  0  0  0  0  0  0
    4.2412    5.7312  -21.8519 H   0  0  0  0  0  0  0  0  0  0  0  0
   -0.2401    7.0479  -25.6701 H   0  0  0  0  0  0  0  0  0  0  0  0
    2.4253    6.9657  -22.2755 H   0  0  0  0  0  0  0  0  0  0  0  0
    1.0763    5.2308  -27.7583 H   0  0  0  0  0  0  0  0  0  0  0  0
    1.5960    6.8553  -28.1558 H   0  0  0  0  0  0  0  0  0  0  0  0
    4.8343    5.2876  -26.3141 H   0  0  0  0  0  0  0  0  0  0  0  0
  1 12  2  0
  1 13  1  0
  1 18  1  0
  2  3  1  0
  2 17  1  0
  3  4  2  0
  3  7  1  0
  4  5  1  0
  5  6  2  0
  6 19  1  0
  7 19  2  0
  7 20  1  0
 21  8  1  0
  9 18  1  0
  9 25  2  0
  9 26  1  0
 10 26  2  0
 10 27  1  0
 11 25  1  0
 11 27  2  0
 11 28  1  0
 12 16  1  0
 13 14  2  0
 14 15  1  0
 15 16  2  0
 16 17  1  0
 21 20  1  6
 20 22  1  0
 21 23  2  0
 21 24  2  0
 27 30  1  0
 28 29  1  0
 29 30  1  0
 29 31  2  0
  2 32  1  0
  2 33  1  0
  4 34  1  0
  5 35  1  0
  6 36  1  0
  8 37  1  0
  8 38  1  0
  8 39  1  0
 10 40  1  0
 14 41  1  0
 15 42  1  0
 17 43  1  0
 18 44  1  0
 22 45  1  0
 22 46  1  0
 22 47  1  0
 25 48  1  0
 26 49  1  0
 28 50  1  0
 28 51  1  0
 30 52  1  0
M  END
>  <filename_input>  (26) 
6YT6_PKE_docked.sdf

>  <pdb_id>  (26) 
6YT6_PKE

>  <pose_rank>  (26) 
25

>  <num_atoms_heavy>  (26) 
31

>  <num_torsions>  (26) 
5

>  <pose>  (26) 
[-0.446, 7.35, -21.793, 1e-06, 1e-06, 1e-06, 0.0, 0.0, 0.0, 0.0, 0.0]

>  <energy>  (26) 
-1821.3314960948308

>  <inter_energy>  (26) 
-1861.918314579229

>  <intra_energy>  (26) 
23.152893563600898

>  <rmsd>  (26) 
0.0

>  <sdf_rank>  (26) 
0

$$$$
