
     RDKit          3D

 33 35  0  0  0  0  0  0  0  0999 V2000
   15.1020   17.3716   21.8787 C   0  0  0  0  0  0  0  0  0  0  0  0
   12.3592   21.3585   22.7942 C   0  0  0  0  0  0  0  0  0  0  0  0
   12.1215   19.4978   24.2973 C   0  0  0  0  0  0  0  0  0  0  0  0
   13.6768   20.8356   22.3277 C   0  0  0  0  0  0  0  0  0  0  0  0
   13.4005   18.8896   23.7064 C   0  0  0  0  0  0  0  0  0  0  0  0
   16.1099   16.7630   21.1474 C   0  0  0  0  0  0  0  0  0  0  0  0
   14.7162   18.7032   21.6450 C   0  0  0  0  0  0  0  0  0  0  0  0
   16.9147   19.4110   19.0969 C   0  0  0  0  0  0  0  0  0  0  0  0
   11.9141   23.0794   25.0944 O   0  0  0  0  0  0  0  0  0  0  0  0
   11.2952   21.8071   25.1903 S   0  0  1  0  0  0  0  0  0  0  0  0
   11.2453   21.0509   26.3613 O   0  0  0  0  0  0  0  0  0  0  0  0
    9.7141   22.0210   24.3771 C   0  0  0  0  0  0  0  0  0  0  0  0
   12.2574   20.9681   24.2425 N   0  0  0  0  0  0  0  0  0  0  0  0
   13.7307   19.3990   22.3545 N   0  0  0  0  0  0  0  0  0  0  0  0
   15.3285   19.5041   20.6948 N   0  0  0  0  0  0  0  0  0  0  0  0
   16.6544   17.6232   20.2338 C   0  0  0  0  0  0  0  0  0  0  0  0
   17.6656   17.3417   19.4365 N   0  0  0  0  0  0  0  0  0  0  0  0
   17.7639   18.4308   18.7145 N   0  0  0  0  0  0  0  0  0  0  0  0
   16.2516   18.8706   20.1169 N   0  0  0  0  0  0  0  0  0  0  0  0
   14.5897   16.7966   22.6642 H   0  0  0  0  0  0  0  0  0  0  0  0
   12.3213   22.4527   22.6882 H   0  0  0  0  0  0  0  0  0  0  0  0
   11.5270   20.9483   22.2034 H   0  0  0  0  0  0  0  0  0  0  0  0
   11.2486   19.1799   23.7082 H   0  0  0  0  0  0  0  0  0  0  0  0
   11.9785   19.1621   25.3350 H   0  0  0  0  0  0  0  0  0  0  0  0
   13.8486   21.1775   21.2964 H   0  0  0  0  0  0  0  0  0  0  0  0
   14.4518   21.2157   23.0095 H   0  0  0  0  0  0  0  0  0  0  0  0
   14.2389   19.1216   24.3797 H   0  0  0  0  0  0  0  0  0  0  0  0
   13.2281   17.8075   23.6099 H   0  0  0  0  0  0  0  0  0  0  0  0
   16.4313   15.7199   21.2843 H   0  0  0  0  0  0  0  0  0  0  0  0
   16.7990   20.4169   18.6669 H   0  0  0  0  0  0  0  0  0  0  0  0
    8.9237   22.1279   25.1346 H   0  0  0  0  0  0  0  0  0  0  0  0
    9.7441   22.9232   23.7486 H   0  0  0  0  0  0  0  0  0  0  0  0
    9.5033   21.1432   23.7486 H   0  0  0  0  0  0  0  0  0  0  0  0
  1  6  2  0
  1  7  1  0
  2  4  1  0
  2 13  1  0
  3  5  1  0
  3 13  1  0
  4 14  1  0
  5 14  1  0
  6 16  1  0
  7 14  1  0
  7 15  2  0
  8 18  2  0
  8 19  1  0
  9 10  2  0
 10 11  2  0
 10 12  1  6
 10 13  1  0
 15 19  1  0
 16 17  2  0
 16 19  1  0
 17 18  1  0
  1 20  1  0
  2 21  1  0
  2 22  1  0
  3 23  1  0
  3 24  1  0
  4 25  1  0
  4 26  1  0
  5 27  1  0
  5 28  1  0
  6 29  1  0
  8 30  1  0
 12 31  1  0
 12 32  1  0
 12 33  1  0
M  END
>  <filename_input>  (1) 
6YYO_Q1K_docked.sdf

>  <pdb_id>  (1) 
6YYO_Q1K

>  <pose_rank>  (1) 
0

>  <num_atoms_heavy>  (1) 
19

>  <num_torsions>  (1) 
1

>  <pose>  (1) 
[15.102046113280117, 17.371581028954164, 21.878744806627612, 0.1814487410708884, -3.3700417696565808, 5.312651476386449, -0.14103102436876352]

>  <energy>  (1) 
-655.7786452054777

>  <inter_energy>  (1) 
-646.6901860095677

>  <intra_energy>  (1) 
0.0

>  <rmsd>  (1) 
0.500736

>  <sdf_rank>  (1) 
0

$$$$

     RDKit          3D

 33 35  0  0  0  0  0  0  0  0999 V2000
   15.1823   17.2352   21.6102 C   0  0  0  0  0  0  0  0  0  0  0  0
   12.9212   21.5665   22.2293 C   0  0  0  0  0  0  0  0  0  0  0  0
   12.3020   19.7857   23.7202 C   0  0  0  0  0  0  0  0  0  0  0  0
   14.1947   20.8652   21.8927 C   0  0  0  0  0  0  0  0  0  0  0  0
   13.5375   19.0023   23.2571 C   0  0  0  0  0  0  0  0  0  0  0  0
   16.1630   16.4840   20.9817 C   0  0  0  0  0  0  0  0  0  0  0  0
   14.9998   18.6007   21.3294 C   0  0  0  0  0  0  0  0  0  0  0  0
   17.4965   18.9590   18.9916 C   0  0  0  0  0  0  0  0  0  0  0  0
   10.5880   22.2751   23.6491 O   0  0  0  0  0  0  0  0  0  0  0  0
   11.7115   22.2021   24.5113 S   0  0  1  0  0  0  0  0  0  0  0  0
   12.5475   23.2819   24.7953 O   0  0  0  0  0  0  0  0  0  0  0  0
   11.1064   21.3322   25.9549 C   0  0  0  0  0  0  0  0  0  0  0  0
   12.6364   21.2239   23.6652 N   0  0  0  0  0  0  0  0  0  0  0  0
   14.0547   19.4349   21.9374 N   0  0  0  0  0  0  0  0  0  0  0  0
   15.7973   19.2937   20.4334 N   0  0  0  0  0  0  0  0  0  0  0  0
   16.8982   17.2455   20.1153 C   0  0  0  0  0  0  0  0  0  0  0  0
   17.9317   16.8166   19.4186 N   0  0  0  0  0  0  0  0  0  0  0  0
   18.2393   17.8678   18.6991 N   0  0  0  0  0  0  0  0  0  0  0  0
   16.6771   18.5323   19.9500 N   0  0  0  0  0  0  0  0  0  0  0  0
   14.5284   16.7494   22.3494 H   0  0  0  0  0  0  0  0  0  0  0  0
   13.0388   22.6537   22.1103 H   0  0  0  0  0  0  0  0  0  0  0  0
   12.0994   21.2568   21.5669 H   0  0  0  0  0  0  0  0  0  0  0  0
   11.4521   19.5728   23.0551 H   0  0  0  0  0  0  0  0  0  0  0  0
   12.0214   19.4939   24.7430 H   0  0  0  0  0  0  0  0  0  0  0  0
   14.5040   21.1595   20.8789 H   0  0  0  0  0  0  0  0  0  0  0  0
   14.9477   21.1546   22.6405 H   0  0  0  0  0  0  0  0  0  0  0  0
   14.3342   19.1363   24.0036 H   0  0  0  0  0  0  0  0  0  0  0  0
   13.2325   17.9504   23.1546 H   0  0  0  0  0  0  0  0  0  0  0  0
   16.3291   15.4109   21.1575 H   0  0  0  0  0  0  0  0  0  0  0  0
   17.5553   19.9619   18.5437 H   0  0  0  0  0  0  0  0  0  0  0  0
   11.4600   21.8404   26.8641 H   0  0  0  0  0  0  0  0  0  0  0  0
   10.0065   21.3238   25.9436 H   0  0  0  0  0  0  0  0  0  0  0  0
   11.4811   20.2980   25.9436 H   0  0  0  0  0  0  0  0  0  0  0  0
  1  6  2  0
  1  7  1  0
  2  4  1  0
  2 13  1  0
  3  5  1  0
  3 13  1  0
  4 14  1  0
  5 14  1  0
  6 16  1  0
  7 14  1  0
  7 15  2  0
  8 18  2  0
  8 19  1  0
  9 10  2  0
 10 11  2  0
 10 12  1  1
 10 13  1  0
 15 19  1  0
 16 17  2  0
 16 19  1  0
 17 18  1  0
  1 20  1  0
  2 21  1  0
  2 22  1  0
  3 23  1  0
  3 24  1  0
  4 25  1  0
  4 26  1  0
  5 27  1  0
  5 28  1  0
  6 29  1  0
  8 30  1  0
 12 31  1  0
 12 32  1  0
 12 33  1  0
M  END
>  <filename_input>  (2) 
6YYO_Q1K_docked.sdf

>  <pdb_id>  (2) 
6YYO_Q1K

>  <pose_rank>  (2) 
1

>  <num_atoms_heavy>  (2) 
19

>  <num_torsions>  (2) 
1

>  <pose>  (2) 
[15.182286023254113, 17.235190780814442, 21.61017315229421, -0.015725412783698243, -0.0985925361934378, -0.12353411067696281, -10.706257460797998]

>  <energy>  (2) 
-684.1099363984913

>  <inter_energy>  (2) 
-657.4302846468065

>  <intra_energy>  (2) 
0.0

>  <rmsd>  (2) 
1.34515

>  <sdf_rank>  (2) 
0

$$$$

     RDKit          3D

 33 35  0  0  0  0  0  0  0  0999 V2000
   14.6966   21.1835   19.8602 C   0  0  0  0  0  0  0  0  0  0  0  0
   13.2404   20.5761   24.5257 C   0  0  0  0  0  0  0  0  0  0  0  0
   12.3568   22.4720   23.3414 C   0  0  0  0  0  0  0  0  0  0  0  0
   13.5921   19.9126   23.2361 C   0  0  0  0  0  0  0  0  0  0  0  0
   12.8558   21.8529   22.0289 C   0  0  0  0  0  0  0  0  0  0  0  0
   15.3763   20.7000   18.7533 C   0  0  0  0  0  0  0  0  0  0  0  0
   14.6286   20.4598   21.0636 C   0  0  0  0  0  0  0  0  0  0  0  0
   16.4683   17.7209   20.0936 C   0  0  0  0  0  0  0  0  0  0  0  0
   10.1256   20.6452   25.3909 O   0  0  0  0  0  0  0  0  0  0  0  0
   11.0363   21.7296   25.4670 S   0  0  1  0  0  0  0  0  0  0  0  0
   10.6879   23.0584   25.2258 O   0  0  0  0  0  0  0  0  0  0  0  0
   11.9183   21.4606   27.0021 C   0  0  0  0  0  0  0  0  0  0  0  0
   11.9908   21.3648   24.2488 N   0  0  0  0  0  0  0  0  0  0  0  0
   13.9423   20.8623   22.2150 N   0  0  0  0  0  0  0  0  0  0  0  0
   15.2071   19.2107   21.2195 N   0  0  0  0  0  0  0  0  0  0  0  0
   15.9160   19.4669   18.9969 C   0  0  0  0  0  0  0  0  0  0  0  0
   16.5699   18.7379   18.1146 N   0  0  0  0  0  0  0  0  0  0  0  0
   16.9448   17.7049   18.8284 N   0  0  0  0  0  0  0  0  0  0  0  0
   15.7628   18.8484   20.1484 N   0  0  0  0  0  0  0  0  0  0  0  0
   14.1963   22.1610   19.7953 H   0  0  0  0  0  0  0  0  0  0  0  0
   13.0542   19.8237   25.3061 H   0  0  0  0  0  0  0  0  0  0  0  0
   14.0557   21.2202   24.8869 H   0  0  0  0  0  0  0  0  0  0  0  0
   13.1528   23.0808   23.7950 H   0  0  0  0  0  0  0  0  0  0  0  0
   11.4887   23.1216   23.1558 H   0  0  0  0  0  0  0  0  0  0  0  0
   14.4475   19.2417   23.4045 H   0  0  0  0  0  0  0  0  0  0  0  0
   12.7087   19.3554   22.8908 H   0  0  0  0  0  0  0  0  0  0  0  0
   12.0091   21.3519   21.5369 H   0  0  0  0  0  0  0  0  0  0  0  0
   13.2675   22.6726   21.4218 H   0  0  0  0  0  0  0  0  0  0  0  0
   15.4700   21.2397   17.7993 H   0  0  0  0  0  0  0  0  0  0  0  0
   16.6263   16.9780   20.8894 H   0  0  0  0  0  0  0  0  0  0  0  0
   11.2486   21.6648   27.8504 H   0  0  0  0  0  0  0  0  0  0  0  0
   12.2622   20.4168   27.0494 H   0  0  0  0  0  0  0  0  0  0  0  0
   12.7861   22.1350   27.0494 H   0  0  0  0  0  0  0  0  0  0  0  0
  1  6  2  0
  1  7  1  0
  2  4  1  0
  2 13  1  0
  3  5  1  0
  3 13  1  0
  4 14  1  0
  5 14  1  0
  6 16  1  0
  7 14  1  0
  7 15  2  0
  8 18  2  0
  8 19  1  0
  9 10  2  0
 10 11  2  0
 10 12  1  1
 10 13  1  0
 15 19  1  0
 16 17  2  0
 16 19  1  0
 17 18  1  0
  1 20  1  0
  2 21  1  0
  2 22  1  0
  3 23  1  0
  3 24  1  0
  4 25  1  0
  4 26  1  0
  5 27  1  0
  5 28  1  0
  6 29  1  0
  8 30  1  0
 12 31  1  0
 12 32  1  0
 12 33  1  0
M  END
>  <filename_input>  (3) 
6YYO_Q1K_docked.sdf

>  <pdb_id>  (3) 
6YYO_Q1K

>  <pose_rank>  (3) 
2

>  <num_atoms_heavy>  (3) 
19

>  <num_torsions>  (3) 
1

>  <pose>  (3) 
[14.696599234684989, 21.183520180607967, 19.86017191894848, -2.162746536385942, 1.3057744791697545, 2.3354448995176496, -6.987044843947341]

>  <energy>  (3) 
-670.4635143464527

>  <inter_energy>  (3) 
-664.3028231330342

>  <intra_energy>  (3) 
0.0

>  <rmsd>  (3) 
2.11918

>  <sdf_rank>  (3) 
0

$$$$

     RDKit          3D

 33 35  0  0  0  0  0  0  0  0999 V2000
   15.6684   20.0806   20.1792 C   0  0  0  0  0  0  0  0  0  0  0  0
   12.9267   19.9033   24.2668 C   0  0  0  0  0  0  0  0  0  0  0  0
   12.7637   21.8909   22.9250 C   0  0  0  0  0  0  0  0  0  0  0  0
   13.4811   19.1450   23.1072 C   0  0  0  0  0  0  0  0  0  0  0  0
   13.4718   21.1483   21.7839 C   0  0  0  0  0  0  0  0  0  0  0  0
   16.5175   19.4443   19.2875 C   0  0  0  0  0  0  0  0  0  0  0  0
   15.1460   19.4209   21.3056 C   0  0  0  0  0  0  0  0  0  0  0  0
   16.6332   16.3592   20.8148 C   0  0  0  0  0  0  0  0  0  0  0  0
   10.5937   20.3535   25.4435 O   0  0  0  0  0  0  0  0  0  0  0  0
   10.8066   21.4742   24.6011 S   0  0  1  0  0  0  0  0  0  0  0  0
    9.8668   21.9528   23.6882 O   0  0  0  0  0  0  0  0  0  0  0  0
   11.4874   22.7233   25.6888 C   0  0  0  0  0  0  0  0  0  0  0  0
   11.9674   20.9003   23.6785 N   0  0  0  0  0  0  0  0  0  0  0  0
   14.2636   19.9803   22.2369 N   0  0  0  0  0  0  0  0  0  0  0  0
   15.4174   18.0920   21.5875 N   0  0  0  0  0  0  0  0  0  0  0  0
   16.7318   18.1411   19.6437 C   0  0  0  0  0  0  0  0  0  0  0  0
   17.4503   17.2758   18.9564 N   0  0  0  0  0  0  0  0  0  0  0  0
   17.4201   16.2147   19.7248 N   0  0  0  0  0  0  0  0  0  0  0  0
   16.1624   17.5989   20.6991 N   0  0  0  0  0  0  0  0  0  0  0  0
   15.3956   21.1312   20.0008 H   0  0  0  0  0  0  0  0  0  0  0  0
   12.4006   19.2237   24.9534 H   0  0  0  0  0  0  0  0  0  0  0  0
   13.7206   20.3966   24.8468 H   0  0  0  0  0  0  0  0  0  0  0  0
   13.5079   22.3561   23.5881 H   0  0  0  0  0  0  0  0  0  0  0  0
   12.1144   22.6836   22.5248 H   0  0  0  0  0  0  0  0  0  0  0  0
   14.1190   18.3332   23.4870 H   0  0  0  0  0  0  0  0  0  0  0  0
   12.6349   18.7502   22.5258 H   0  0  0  0  0  0  0  0  0  0  0  0
   12.7101   20.7971   21.0722 H   0  0  0  0  0  0  0  0  0  0  0  0
   14.1769   21.8578   21.3263 H   0  0  0  0  0  0  0  0  0  0  0  0
   16.9629   19.9264   18.4047 H   0  0  0  0  0  0  0  0  0  0  0  0
   16.4301   15.6259   21.6091 H   0  0  0  0  0  0  0  0  0  0  0  0
   11.3253   22.4259   26.7354 H   0  0  0  0  0  0  0  0  0  0  0  0
   12.5662   22.8257   25.4996 H   0  0  0  0  0  0  0  0  0  0  0  0
   10.9890   23.6854   25.4996 H   0  0  0  0  0  0  0  0  0  0  0  0
  1  6  2  0
  1  7  1  0
  2  4  1  0
  2 13  1  0
  3  5  1  0
  3 13  1  0
  4 14  1  0
  5 14  1  0
  6 16  1  0
  7 14  1  0
  7 15  2  0
  8 18  2  0
  8 19  1  0
  9 10  2  0
 10 11  2  0
 10 12  1  1
 10 13  1  0
 15 19  1  0
 16 17  2  0
 16 19  1  0
 17 18  1  0
  1 20  1  0
  2 21  1  0
  2 22  1  0
  3 23  1  0
  3 24  1  0
  4 25  1  0
  4 26  1  0
  5 27  1  0
  5 28  1  0
  6 29  1  0
  8 30  1  0
 12 31  1  0
 12 32  1  0
 12 33  1  0
M  END
>  <filename_input>  (4) 
6YYO_Q1K_docked.sdf

>  <pdb_id>  (4) 
6YYO_Q1K

>  <pose_rank>  (4) 
3

>  <num_atoms_heavy>  (4) 
19

>  <num_torsions>  (4) 
1

>  <pose>  (4) 
[15.668424701722397, 20.08058363529747, 20.179242936534287, -2.1480037111898924, 1.4493243642050728, 1.89520823305135, 0.3963118399411862]

>  <energy>  (4) 
-670.0105077001439

>  <inter_energy>  (4) 
-657.6046249808596

>  <intra_energy>  (4) 
0.0

>  <rmsd>  (4) 
1.94744

>  <sdf_rank>  (4) 
0

$$$$

     RDKit          3D

 33 35  0  0  0  0  0  0  0  0999 V2000
   15.6060   20.1255   20.1223 C   0  0  0  0  0  0  0  0  0  0  0  0
   13.0541   20.0861   24.3345 C   0  0  0  0  0  0  0  0  0  0  0  0
   12.7940   22.0086   22.9153 C   0  0  0  0  0  0  0  0  0  0  0  0
   13.5700   19.2859   23.1853 C   0  0  0  0  0  0  0  0  0  0  0  0
   13.4640   21.2274   21.7769 C   0  0  0  0  0  0  0  0  0  0  0  0
   16.4260   19.4641   19.2216 C   0  0  0  0  0  0  0  0  0  0  0  0
   15.1470   19.5084   21.2992 C   0  0  0  0  0  0  0  0  0  0  0  0
   16.6676   16.4530   20.8764 C   0  0  0  0  0  0  0  0  0  0  0  0
    9.9009   21.8634   23.7386 O   0  0  0  0  0  0  0  0  0  0  0  0
   10.9222   21.6350   24.6956 S   0  0  1  0  0  0  0  0  0  0  0  0
   11.5788   22.6496   25.3920 O   0  0  0  0  0  0  0  0  0  0  0  0
   10.2753   20.3238   25.7296 C   0  0  0  0  0  0  0  0  0  0  0  0
   12.0509   21.0396   23.7473 N   0  0  0  0  0  0  0  0  0  0  0  0
   14.2970   20.0942   22.2443 N   0  0  0  0  0  0  0  0  0  0  0  0
   15.4555   18.1982   21.6267 N   0  0  0  0  0  0  0  0  0  0  0  0
   16.6803   18.1820   19.6248 C   0  0  0  0  0  0  0  0  0  0  0  0
   17.3833   17.2988   18.9442 N   0  0  0  0  0  0  0  0  0  0  0  0
   17.4073   16.2728   19.7591 N   0  0  0  0  0  0  0  0  0  0  0  0
   16.1690   17.6783   20.7278 N   0  0  0  0  0  0  0  0  0  0  0  0
   15.3059   21.1624   19.9103 H   0  0  0  0  0  0  0  0  0  0  0  0
   12.5721   19.4293   25.0737 H   0  0  0  0  0  0  0  0  0  0  0  0
   13.8638   20.6181   24.8554 H   0  0  0  0  0  0  0  0  0  0  0  0
   13.5584   22.5154   23.5226 H   0  0  0  0  0  0  0  0  0  0  0  0
   12.1128   22.7716   22.5106 H   0  0  0  0  0  0  0  0  0  0  0  0
   14.2393   18.5027   23.5710 H   0  0  0  0  0  0  0  0  0  0  0  0
   12.7061   18.8514   22.6611 H   0  0  0  0  0  0  0  0  0  0  0  0
   12.6779   20.8320   21.1169 H   0  0  0  0  0  0  0  0  0  0  0  0
   14.1346   21.9273   21.2568 H   0  0  0  0  0  0  0  0  0  0  0  0
   16.8222   19.9135   18.2991 H   0  0  0  0  0  0  0  0  0  0  0  0
   16.5140   15.7527   21.7108 H   0  0  0  0  0  0  0  0  0  0  0  0
   10.4078   20.5923   26.7881 H   0  0  0  0  0  0  0  0  0  0  0  0
    9.2049   20.1842   25.5180 H   0  0  0  0  0  0  0  0  0  0  0  0
   10.8159   19.3894   25.5180 H   0  0  0  0  0  0  0  0  0  0  0  0
  1  6  2  0
  1  7  1  0
  2  4  1  0
  2 13  1  0
  3  5  1  0
  3 13  1  0
  4 14  1  0
  5 14  1  0
  6 16  1  0
  7 14  1  0
  7 15  2  0
  8 18  2  0
  8 19  1  0
  9 10  2  0
 10 11  2  0
 10 12  1  1
 10 13  1  0
 15 19  1  0
 16 17  2  0
 16 19  1  0
 17 18  1  0
  1 20  1  0
  2 21  1  0
  2 22  1  0
  3 23  1  0
  3 24  1  0
  4 25  1  0
  4 26  1  0
  5 27  1  0
  5 28  1  0
  6 29  1  0
  8 30  1  0
 12 31  1  0
 12 32  1  0
 12 33  1  0
M  END
>  <filename_input>  (5) 
6YYO_Q1K_docked.sdf

>  <pdb_id>  (5) 
6YYO_Q1K

>  <pose_rank>  (5) 
4

>  <num_atoms_heavy>  (5) 
19

>  <num_torsions>  (5) 
1

>  <pose>  (5) 
[15.60600546720635, 20.125538477481964, 20.12228299938437, -2.1574511828442486, 1.4992085448802799, 1.94856455607118, 4.565828354550194]

>  <energy>  (5) 
-667.0840549874731

>  <inter_energy>  (5) 
-663.4216031345849

>  <intra_energy>  (5) 
0.0

>  <rmsd>  (5) 
1.94306

>  <sdf_rank>  (5) 
0

$$$$

     RDKit          3D

 33 35  0  0  0  0  0  0  0  0999 V2000
   14.6537   17.2084   21.7021 C   0  0  0  0  0  0  0  0  0  0  0  0
   12.1029   21.2398   22.9258 C   0  0  0  0  0  0  0  0  0  0  0  0
   11.7699   19.2813   24.2790 C   0  0  0  0  0  0  0  0  0  0  0  0
   13.3955   20.6917   22.4199 C   0  0  0  0  0  0  0  0  0  0  0  0
   13.0204   18.6598   23.6426 C   0  0  0  0  0  0  0  0  0  0  0  0
   15.6338   16.6106   20.9255 C   0  0  0  0  0  0  0  0  0  0  0  0
   14.3335   18.5712   21.5729 C   0  0  0  0  0  0  0  0  0  0  0  0
   16.5733   19.3684   19.0880 C   0  0  0  0  0  0  0  0  0  0  0  0
   11.5320   21.0333   26.5795 O   0  0  0  0  0  0  0  0  0  0  0  0
   11.0525   21.5512   25.3495 S   0  0  1  0  0  0  0  0  0  0  0  0
    9.7638   21.3344   24.8620 O   0  0  0  0  0  0  0  0  0  0  0  0
   11.5619   23.2679   25.3629 C   0  0  0  0  0  0  0  0  0  0  0  0
   11.9768   20.7431   24.3392 N   0  0  0  0  0  0  0  0  0  0  0  0
   13.3799   19.2565   22.3345 N   0  0  0  0  0  0  0  0  0  0  0  0
   14.9873   19.4132   20.6882 N   0  0  0  0  0  0  0  0  0  0  0  0
   16.2227   17.5121   20.0819 C   0  0  0  0  0  0  0  0  0  0  0  0
   17.2222   17.2449   19.2651 N   0  0  0  0  0  0  0  0  0  0  0  0
   17.3757   18.3810   18.6303 N   0  0  0  0  0  0  0  0  0  0  0  0
   15.8810   18.7828   20.0627 N   0  0  0  0  0  0  0  0  0  0  0  0
   14.1111   16.5994   22.4402 H   0  0  0  0  0  0  0  0  0  0  0  0
   12.1182   22.3395   22.9055 H   0  0  0  0  0  0  0  0  0  0  0  0
   11.2541   20.9177   22.3047 H   0  0  0  0  0  0  0  0  0  0  0  0
   10.8849   19.0529   23.6669 H   0  0  0  0  0  0  0  0  0  0  0  0
   11.6069   18.8730   25.2873 H   0  0  0  0  0  0  0  0  0  0  0  0
   13.5875   21.1042   21.4185 H   0  0  0  0  0  0  0  0  0  0  0  0
   14.1853   20.9795   23.1294 H   0  0  0  0  0  0  0  0  0  0  0  0
   13.8664   18.7977   24.3319 H   0  0  0  0  0  0  0  0  0  0  0  0
   12.7963   17.5981   23.4619 H   0  0  0  0  0  0  0  0  0  0  0  0
   15.9040   15.5457   20.9806 H   0  0  0  0  0  0  0  0  0  0  0  0
   16.5080   20.4091   18.7379 H   0  0  0  0  0  0  0  0  0  0  0  0
   11.6639   23.6120   26.4027 H   0  0  0  0  0  0  0  0  0  0  0  0
   12.5283   23.3677   24.8471 H   0  0  0  0  0  0  0  0  0  0  0  0
   10.8062   23.8786   24.8471 H   0  0  0  0  0  0  0  0  0  0  0  0
  1  6  2  0
  1  7  1  0
  2  4  1  0
  2 13  1  0
  3  5  1  0
  3 13  1  0
  4 14  1  0
  5 14  1  0
  6 16  1  0
  7 14  1  0
  7 15  2  0
  8 18  2  0
  8 19  1  0
  9 10  2  0
 10 11  2  0
 10 12  1  1
 10 13  1  0
 15 19  1  0
 16 17  2  0
 16 19  1  0
 17 18  1  0
  1 20  1  0
  2 21  1  0
  2 22  1  0
  3 23  1  0
  3 24  1  0
  4 25  1  0
  4 26  1  0
  5 27  1  0
  5 28  1  0
  6 29  1  0
  8 30  1  0
 12 31  1  0
 12 32  1  0
 12 33  1  0
M  END
>  <filename_input>  (6) 
6YYO_Q1K_docked.sdf

>  <pdb_id>  (6) 
6YYO_Q1K

>  <pose_rank>  (6) 
5

>  <num_atoms_heavy>  (6) 
19

>  <num_torsions>  (6) 
1

>  <pose>  (6) 
[14.653689248661262, 17.208360924724193, 21.702062570421123, 0.07828884841420958, -0.00810965902906345, -0.03949482702874544, -1.9030813498804713]

>  <energy>  (6) 
-568.1919269424933

>  <inter_energy>  (6) 
-564.8372501005724

>  <intra_energy>  (6) 
0.0

>  <rmsd>  (6) 
0.939586

>  <sdf_rank>  (6) 
0

$$$$

     RDKit          3D

 33 35  0  0  0  0  0  0  0  0999 V2000
   13.1574   20.1965   19.7577 C   0  0  0  0  0  0  0  0  0  0  0  0
   13.1651   21.0831   24.6023 C   0  0  0  0  0  0  0  0  0  0  0  0
   11.1853   21.6902   23.3818 C   0  0  0  0  0  0  0  0  0  0  0  0
   13.5780   20.1580   23.5065 C   0  0  0  0  0  0  0  0  0  0  0  0
   11.6897   20.8546   22.1976 C   0  0  0  0  0  0  0  0  0  0  0  0
   13.7726   19.6352   18.6497 C   0  0  0  0  0  0  0  0  0  0  0  0
   13.7215   20.1106   21.0426 C   0  0  0  0  0  0  0  0  0  0  0  0
   16.5458   18.3289   20.2205 C   0  0  0  0  0  0  0  0  0  0  0  0
   10.1517   22.5440   25.4990 O   0  0  0  0  0  0  0  0  0  0  0  0
   10.9089   21.4392   25.9651 S   0  0  1  0  0  0  0  0  0  0  0  0
   11.9372   21.5390   26.9022 O   0  0  0  0  0  0  0  0  0  0  0  0
    9.6834   20.1880   26.3385 C   0  0  0  0  0  0  0  0  0  0  0  0
   11.6623   21.0439   24.6220 N   0  0  0  0  0  0  0  0  0  0  0  0
   13.1536   20.6240   22.2142 N   0  0  0  0  0  0  0  0  0  0  0  0
   14.9076   19.4412   21.2961 N   0  0  0  0  0  0  0  0  0  0  0  0
   14.9345   18.9992   18.9913 C   0  0  0  0  0  0  0  0  0  0  0  0
   15.7048   18.3288   18.1579 N   0  0  0  0  0  0  0  0  0  0  0  0
   16.7094   17.9810   18.9242 N   0  0  0  0  0  0  0  0  0  0  0  0
   15.3618   18.9371   20.2345 N   0  0  0  0  0  0  0  0  0  0  0  0
   12.2009   20.7241   19.6280 H   0  0  0  0  0  0  0  0  0  0  0  0
   13.5705   20.7414   25.5661 H   0  0  0  0  0  0  0  0  0  0  0  0
   13.5428   22.1029   24.4371 H   0  0  0  0  0  0  0  0  0  0  0  0
   11.5837   22.7133   23.3152 H   0  0  0  0  0  0  0  0  0  0  0  0
   10.0868   21.7462   23.3740 H   0  0  0  0  0  0  0  0  0  0  0  0
   14.6746   20.0722   23.5097 H   0  0  0  0  0  0  0  0  0  0  0  0
   13.1000   19.1842   23.6884 H   0  0  0  0  0  0  0  0  0  0  0  0
   11.1837   19.8781   22.2205 H   0  0  0  0  0  0  0  0  0  0  0  0
   11.4632   21.4221   21.2829 H   0  0  0  0  0  0  0  0  0  0  0  0
   13.3765   19.6938   17.6252 H   0  0  0  0  0  0  0  0  0  0  0  0
   17.2293   18.1513   21.0639 H   0  0  0  0  0  0  0  0  0  0  0  0
    9.5838   20.0863   27.4292 H   0  0  0  0  0  0  0  0  0  0  0  0
    8.7152   20.4831   25.9078 H   0  0  0  0  0  0  0  0  0  0  0  0
    9.9984   19.2261   25.9078 H   0  0  0  0  0  0  0  0  0  0  0  0
  1  6  2  0
  1  7  1  0
  2  4  1  0
  2 13  1  0
  3  5  1  0
  3 13  1  0
  4 14  1  0
  5 14  1  0
  6 16  1  0
  7 14  1  0
  7 15  2  0
  8 18  2  0
  8 19  1  0
  9 10  2  0
 10 11  2  0
 10 12  1  1
 10 13  1  0
 15 19  1  0
 16 17  2  0
 16 19  1  0
 17 18  1  0
  1 20  1  0
  2 21  1  0
  2 22  1  0
  3 23  1  0
  3 24  1  0
  4 25  1  0
  4 26  1  0
  5 27  1  0
  5 28  1  0
  6 29  1  0
  8 30  1  0
 12 31  1  0
 12 32  1  0
 12 33  1  0
M  END
>  <filename_input>  (7) 
6YYO_Q1K_docked.sdf

>  <pdb_id>  (7) 
6YYO_Q1K

>  <pose_rank>  (7) 
6

>  <num_atoms_heavy>  (7) 
19

>  <num_torsions>  (7) 
1

>  <pose>  (7) 
[13.157368931602957, 20.196545093335043, 19.757680998301513, 1.3366523744748766, -0.7039082012343025, -1.4868936728464288, 9.309807565849384]

>  <energy>  (7) 
-501.6382105409102

>  <inter_energy>  (7) 
-497.9141602055119

>  <intra_energy>  (7) 
0.0

>  <rmsd>  (7) 
1.94613

>  <sdf_rank>  (7) 
0

$$$$

     RDKit          3D

 33 35  0  0  0  0  0  0  0  0999 V2000
   14.6081   17.5128   22.1628 C   0  0  0  0  0  0  0  0  0  0  0  0
   11.8881   21.5171   23.0705 C   0  0  0  0  0  0  0  0  0  0  0  0
   11.6441   19.6630   24.5806 C   0  0  0  0  0  0  0  0  0  0  0  0
   13.2018   20.9858   22.6028 C   0  0  0  0  0  0  0  0  0  0  0  0
   12.9187   19.0461   23.9890 C   0  0  0  0  0  0  0  0  0  0  0  0
   15.6111   16.8964   21.4313 C   0  0  0  0  0  0  0  0  0  0  0  0
   14.2287   18.8456   21.9252 C   0  0  0  0  0  0  0  0  0  0  0  0
   16.4249   19.5330   19.3697 C   0  0  0  0  0  0  0  0  0  0  0  0
   10.2563   22.8518   24.5086 O   0  0  0  0  0  0  0  0  0  0  0  0
   10.8319   21.9797   25.4673 S   0  0  1  0  0  0  0  0  0  0  0  0
   11.6755   22.3996   26.4957 O   0  0  0  0  0  0  0  0  0  0  0  0
    9.4701   20.9460   26.0001 C   0  0  0  0  0  0  0  0  0  0  0  0
   11.7876   21.1324   24.5204 N   0  0  0  0  0  0  0  0  0  0  0  0
   13.2484   19.5490   22.6345 N   0  0  0  0  0  0  0  0  0  0  0  0
   14.8429   19.6399   20.9708 N   0  0  0  0  0  0  0  0  0  0  0  0
   16.1579   17.7506   20.5135 C   0  0  0  0  0  0  0  0  0  0  0  0
   17.1659   17.4610   19.7149 N   0  0  0  0  0  0  0  0  0  0  0  0
   17.2681   18.5471   18.9888 N   0  0  0  0  0  0  0  0  0  0  0  0
   15.7614   18.9997   20.3931 N   0  0  0  0  0  0  0  0  0  0  0  0
   14.0945   16.9433   22.9514 H   0  0  0  0  0  0  0  0  0  0  0  0
   11.8556   22.6111   22.9607 H   0  0  0  0  0  0  0  0  0  0  0  0
   11.0524   21.1092   22.4829 H   0  0  0  0  0  0  0  0  0  0  0  0
   10.7682   19.3476   23.9947 H   0  0  0  0  0  0  0  0  0  0  0  0
   11.5018   19.3317   25.6198 H   0  0  0  0  0  0  0  0  0  0  0  0
   13.3731   21.3231   21.5699 H   0  0  0  0  0  0  0  0  0  0  0  0
   13.9804   21.3642   23.2815 H   0  0  0  0  0  0  0  0  0  0  0  0
   13.7598   19.2760   24.6596 H   0  0  0  0  0  0  0  0  0  0  0  0
   12.7404   17.9646   23.8967 H   0  0  0  0  0  0  0  0  0  0  0  0
   15.9274   15.8522   21.5712 H   0  0  0  0  0  0  0  0  0  0  0  0
   16.3135   20.5380   18.9364 H   0  0  0  0  0  0  0  0  0  0  0  0
    9.4370   20.9209   27.0993 H   0  0  0  0  0  0  0  0  0  0  0  0
    8.5253   21.3565   25.6141 H   0  0  0  0  0  0  0  0  0  0  0  0
    9.6114   19.9257   25.6141 H   0  0  0  0  0  0  0  0  0  0  0  0
  1  6  2  0
  1  7  1  0
  2  4  1  0
  2 13  1  0
  3  5  1  0
  3 13  1  0
  4 14  1  0
  5 14  1  0
  6 16  1  0
  7 14  1  0
  7 15  2  0
  8 18  2  0
  8 19  1  0
  9 10  2  0
 10 11  2  0
 10 12  1  1
 10 13  1  0
 15 19  1  0
 16 17  2  0
 16 19  1  0
 17 18  1  0
  1 20  1  0
  2 21  1  0
  2 22  1  0
  3 23  1  0
  3 24  1  0
  4 25  1  0
  4 26  1  0
  5 27  1  0
  5 28  1  0
  6 29  1  0
  8 30  1  0
 12 31  1  0
 12 32  1  0
 12 33  1  0
M  END
>  <filename_input>  (8) 
6YYO_Q1K_docked.sdf

>  <pdb_id>  (8) 
6YYO_Q1K

>  <pose_rank>  (8) 
7

>  <num_atoms_heavy>  (8) 
19

>  <num_torsions>  (8) 
1

>  <pose>  (8) 
[14.608093338423727, 17.512833520818653, 22.162821361469064, -3.2746205040002967, -3.562461743598559, 4.01766875311777, 7.298467764513471]

>  <energy>  (8) 
-602.4999278444358

>  <inter_energy>  (8) 
-602.677511514678

>  <intra_energy>  (8) 
0.0

>  <rmsd>  (8) 
0.582995

>  <sdf_rank>  (8) 
0

$$$$

     RDKit          3D

 33 35  0  0  0  0  0  0  0  0999 V2000
   14.5192   17.0856   21.8203 C   0  0  0  0  0  0  0  0  0  0  0  0
   12.0312   21.1946   22.9076 C   0  0  0  0  0  0  0  0  0  0  0  0
   11.4668   19.2133   24.1461 C   0  0  0  0  0  0  0  0  0  0  0  0
   13.3456   20.6012   22.5238 C   0  0  0  0  0  0  0  0  0  0  0  0
   12.7504   18.5527   23.6254 C   0  0  0  0  0  0  0  0  0  0  0  0
   15.5506   16.4659   21.1322 C   0  0  0  0  0  0  0  0  0  0  0  0
   14.2755   18.4655   21.7066 C   0  0  0  0  0  0  0  0  0  0  0  0
   16.8051   19.2311   19.5063 C   0  0  0  0  0  0  0  0  0  0  0  0
    9.8978   22.0538   24.2264 O   0  0  0  0  0  0  0  0  0  0  0  0
   10.7384   21.4807   25.2144 S   0  0  1  0  0  0  0  0  0  0  0  0
   11.5922   22.2183   26.0345 O   0  0  0  0  0  0  0  0  0  0  0  0
    9.6764   20.3342   26.0888 C   0  0  0  0  0  0  0  0  0  0  0  0
   11.7303   20.6610   24.2806 N   0  0  0  0  0  0  0  0  0  0  0  0
   13.2760   19.1717   22.3858 N   0  0  0  0  0  0  0  0  0  0  0  0
   15.0581   19.3022   20.9278 N   0  0  0  0  0  0  0  0  0  0  0  0
   16.2669   17.3639   20.3895 C   0  0  0  0  0  0  0  0  0  0  0  0
   17.3365   17.0746   19.6755 N   0  0  0  0  0  0  0  0  0  0  0  0
   17.6081   18.2212   19.1020 N   0  0  0  0  0  0  0  0  0  0  0  0
   15.9859   18.6495   20.3795 N   0  0  0  0  0  0  0  0  0  0  0  0
   13.8733   16.4807   22.4736 H   0  0  0  0  0  0  0  0  0  0  0  0
   12.0972   22.2924   22.9286 H   0  0  0  0  0  0  0  0  0  0  0  0
   11.2415   20.9328   22.1879 H   0  0  0  0  0  0  0  0  0  0  0  0
   10.6444   19.0465   23.4348 H   0  0  0  0  0  0  0  0  0  0  0  0
   11.1773   18.7823   25.1158 H   0  0  0  0  0  0  0  0  0  0  0  0
   13.6634   21.0349   21.5642 H   0  0  0  0  0  0  0  0  0  0  0  0
   14.0656   20.8289   23.3237 H   0  0  0  0  0  0  0  0  0  0  0  0
   13.5217   18.6287   24.4060 H   0  0  0  0  0  0  0  0  0  0  0  0
   12.5006   17.5091   23.3838 H   0  0  0  0  0  0  0  0  0  0  0  0
   15.7658   15.3881   21.1777 H   0  0  0  0  0  0  0  0  0  0  0  0
   16.8243   20.2841   19.1887 H   0  0  0  0  0  0  0  0  0  0  0  0
    9.8032   20.4710   27.1729 H   0  0  0  0  0  0  0  0  0  0  0  0
    8.6280   20.5240   25.8154 H   0  0  0  0  0  0  0  0  0  0  0  0
    9.9459   19.3034   25.8154 H   0  0  0  0  0  0  0  0  0  0  0  0
  1  6  2  0
  1  7  1  0
  2  4  1  0
  2 13  1  0
  3  5  1  0
  3 13  1  0
  4 14  1  0
  5 14  1  0
  6 16  1  0
  7 14  1  0
  7 15  2  0
  8 18  2  0
  8 19  1  0
  9 10  2  0
 10 11  2  0
 10 12  1  1
 10 13  1  0
 15 19  1  0
 16 17  2  0
 16 19  1  0
 17 18  1  0
  1 20  1  0
  2 21  1  0
  2 22  1  0
  3 23  1  0
  3 24  1  0
  4 25  1  0
  4 26  1  0
  5 27  1  0
  5 28  1  0
  6 29  1  0
  8 30  1  0
 12 31  1  0
 12 32  1  0
 12 33  1  0
M  END
>  <filename_input>  (9) 
6YYO_Q1K_docked.sdf

>  <pdb_id>  (9) 
6YYO_Q1K

>  <pose_rank>  (9) 
8

>  <num_atoms_heavy>  (9) 
19

>  <num_torsions>  (9) 
1

>  <pose>  (9) 
[14.51920587306356, 17.08556136737582, 21.82028557505945, -3.797316620020808, 3.9229832137375187, 2.7216791796421558, 7.762803392745755]

>  <energy>  (9) 
-553.080044709429

>  <inter_energy>  (9) 
-553.3117787685142

>  <intra_energy>  (9) 
0.0

>  <rmsd>  (9) 
0.86308

>  <sdf_rank>  (9) 
0

$$$$

     RDKit          3D

 33 35  0  0  0  0  0  0  0  0999 V2000
   14.6335   18.1737   22.0277 C   0  0  0  0  0  0  0  0  0  0  0  0
   11.4449   21.7747   23.0868 C   0  0  0  0  0  0  0  0  0  0  0  0
   11.7152   20.0357   24.7240 C   0  0  0  0  0  0  0  0  0  0  0  0
   12.7517   21.4144   22.4628 C   0  0  0  0  0  0  0  0  0  0  0  0
   12.9808   19.5749   23.9886 C   0  0  0  0  0  0  0  0  0  0  0  0
   15.6146   17.6602   21.1942 C   0  0  0  0  0  0  0  0  0  0  0  0
   14.0125   19.4085   21.7698 C   0  0  0  0  0  0  0  0  0  0  0  0
   15.6982   20.2117   18.8818 C   0  0  0  0  0  0  0  0  0  0  0  0
   11.6164   23.1213   26.1905 O   0  0  0  0  0  0  0  0  0  0  0  0
   10.6636   22.2656   25.5814 S   0  0  1  0  0  0  0  0  0  0  0  0
   10.0002   21.2367   26.2499 O   0  0  0  0  0  0  0  0  0  0  0  0
    9.5896   23.3737   24.6729 C   0  0  0  0  0  0  0  0  0  0  0  0
   11.6069   21.4997   24.5559 N   0  0  0  0  0  0  0  0  0  0  0  0
   13.0363   20.0093   22.5728 N   0  0  0  0  0  0  0  0  0  0  0  0
   14.3529   20.2063   20.6896 N   0  0  0  0  0  0  0  0  0  0  0  0
   15.8844   18.5097   20.1565 C   0  0  0  0  0  0  0  0  0  0  0  0
   16.8078   18.3133   19.2367 N   0  0  0  0  0  0  0  0  0  0  0  0
   16.6314   19.3388   18.4401 N   0  0  0  0  0  0  0  0  0  0  0  0
   15.2764   19.6691   20.0218 N   0  0  0  0  0  0  0  0  0  0  0  0
   14.3321   17.5990   22.9159 H   0  0  0  0  0  0  0  0  0  0  0  0
   11.2194   22.8381   22.9180 H   0  0  0  0  0  0  0  0  0  0  0  0
   10.6149   21.1967   22.6543 H   0  0  0  0  0  0  0  0  0  0  0  0
   10.8311   19.5427   24.2935 H   0  0  0  0  0  0  0  0  0  0  0  0
   11.7718   19.7732   25.7907 H   0  0  0  0  0  0  0  0  0  0  0  0
   12.7232   21.6878   21.3977 H   0  0  0  0  0  0  0  0  0  0  0  0
   13.5430   21.9622   22.9955 H   0  0  0  0  0  0  0  0  0  0  0  0
   13.8564   19.9854   24.5128 H   0  0  0  0  0  0  0  0  0  0  0  0
   12.9708   18.4749   23.9882 H   0  0  0  0  0  0  0  0  0  0  0  0
   16.1134   16.6919   21.3477 H   0  0  0  0  0  0  0  0  0  0  0  0
   15.3661   21.1486   18.4107 H   0  0  0  0  0  0  0  0  0  0  0  0
    9.0036   23.9784   25.3806 H   0  0  0  0  0  0  0  0  0  0  0  0
   10.1978   24.0368   24.0400 H   0  0  0  0  0  0  0  0  0  0  0  0
    8.9079   22.7867   24.0400 H   0  0  0  0  0  0  0  0  0  0  0  0
  1  6  2  0
  1  7  1  0
  2  4  1  0
  2 13  1  0
  3  5  1  0
  3 13  1  0
  4 14  1  0
  5 14  1  0
  6 16  1  0
  7 14  1  0
  7 15  2  0
  8 18  2  0
  8 19  1  0
  9 10  2  0
 10 11  2  0
 10 12  1  6
 10 13  1  0
 15 19  1  0
 16 17  2  0
 16 19  1  0
 17 18  1  0
  1 20  1  0
  2 21  1  0
  2 22  1  0
  3 23  1  0
  3 24  1  0
  4 25  1  0
  4 26  1  0
  5 27  1  0
  5 28  1  0
  6 29  1  0
  8 30  1  0
 12 31  1  0
 12 32  1  0
 12 33  1  0
M  END
>  <filename_input>  (10) 
6YYO_Q1K_docked.sdf

>  <pdb_id>  (10) 
6YYO_Q1K

>  <pose_rank>  (10) 
9

>  <num_atoms_heavy>  (10) 
19

>  <num_torsions>  (10) 
1

>  <pose>  (10) 
[14.633467818616902, 18.17370641169262, 22.02767747425911, -0.07413653684319811, 0.13947825764702357, 0.16398800575968073, 5.295637369624197]

>  <energy>  (10) 
-608.5001849247511

>  <inter_energy>  (10) 
-597.5825729597678

>  <intra_energy>  (10) 
0.0

>  <rmsd>  (10) 
0.886356

>  <sdf_rank>  (10) 
0

$$$$

     RDKit          3D

 33 35  0  0  0  0  0  0  0  0999 V2000
   12.8663   19.1474   24.2027 C   0  0  0  0  0  0  0  0  0  0  0  0
   16.0176   20.2135   20.5710 C   0  0  0  0  0  0  0  0  0  0  0  0
   16.1816   18.0269   21.5556 C   0  0  0  0  0  0  0  0  0  0  0  0
   14.6298   20.3659   21.0983 C   0  0  0  0  0  0  0  0  0  0  0  0
   14.8161   18.2509   22.2192 C   0  0  0  0  0  0  0  0  0  0  0  0
   11.7610   19.5004   24.9610 C   0  0  0  0  0  0  0  0  0  0  0  0
   13.3565   19.9739   23.1764 C   0  0  0  0  0  0  0  0  0  0  0  0
   11.0700   22.5262   23.4672 C   0  0  0  0  0  0  0  0  0  0  0  0
   18.3707   19.0873   19.6514 O   0  0  0  0  0  0  0  0  0  0  0  0
   17.2731   18.3101   19.2016 S   0  0  1  0  0  0  0  0  0  0  0  0
   16.6346   18.4990   17.9760 O   0  0  0  0  0  0  0  0  0  0  0  0
   17.7631   16.6193   19.5302 C   0  0  0  0  0  0  0  0  0  0  0  0
   16.1779   18.7499   20.2670 N   0  0  0  0  0  0  0  0  0  0  0  0
   14.4461   19.6801   22.3486 N   0  0  0  0  0  0  0  0  0  0  0  0
   12.7594   21.1761   22.8339 N   0  0  0  0  0  0  0  0  0  0  0  0
   11.2391   20.6985   24.5569 C   0  0  0  0  0  0  0  0  0  0  0  0
   10.1562   21.2604   25.0560 N   0  0  0  0  0  0  0  0  0  0  0  0
   10.1112   22.4010   24.4123 N   0  0  0  0  0  0  0  0  0  0  0  0
   11.7461   21.3828   23.5536 N   0  0  0  0  0  0  0  0  0  0  0  0
   13.3741   18.1939   24.4097 H   0  0  0  0  0  0  0  0  0  0  0  0
   16.1487   20.8118   19.6573 H   0  0  0  0  0  0  0  0  0  0  0  0
   16.7681   20.5627   21.2954 H   0  0  0  0  0  0  0  0  0  0  0  0
   16.9811   18.4175   22.2023 H   0  0  0  0  0  0  0  0  0  0  0  0
   16.3608   16.9535   21.3951 H   0  0  0  0  0  0  0  0  0  0  0  0
   14.4229   21.4359   21.2472 H   0  0  0  0  0  0  0  0  0  0  0  0
   13.9393   19.9231   20.3653 H   0  0  0  0  0  0  0  0  0  0  0  0
   14.0485   17.7465   21.6139 H   0  0  0  0  0  0  0  0  0  0  0  0
   14.8818   17.8414   23.2380 H   0  0  0  0  0  0  0  0  0  0  0  0
   11.3549   18.8937   25.7838 H   0  0  0  0  0  0  0  0  0  0  0  0
   11.2490   23.3726   22.7879 H   0  0  0  0  0  0  0  0  0  0  0  0
   17.8105   16.4559   20.6170 H   0  0  0  0  0  0  0  0  0  0  0  0
   17.0273   15.9317   19.0877 H   0  0  0  0  0  0  0  0  0  0  0  0
   18.7526   16.4318   19.0877 H   0  0  0  0  0  0  0  0  0  0  0  0
  1  6  2  0
  1  7  1  0
  2  4  1  0
  2 13  1  0
  3  5  1  0
  3 13  1  0
  4 14  1  0
  5 14  1  0
  6 16  1  0
  7 14  1  0
  7 15  2  0
  8 18  2  0
  8 19  1  0
  9 10  2  0
 10 11  2  0
 10 12  1  1
 10 13  1  0
 15 19  1  0
 16 17  2  0
 16 19  1  0
 17 18  1  0
  1 20  1  0
  2 21  1  0
  2 22  1  0
  3 23  1  0
  3 24  1  0
  4 25  1  0
  4 26  1  0
  5 27  1  0
  5 28  1  0
  6 29  1  0
  8 30  1  0
 12 31  1  0
 12 32  1  0
 12 33  1  0
M  END
>  <filename_input>  (11) 
6YYO_Q1K_docked.sdf

>  <pdb_id>  (11) 
6YYO_Q1K

>  <pose_rank>  (11) 
10

>  <num_atoms_heavy>  (11) 
19

>  <num_torsions>  (11) 
1

>  <pose>  (11) 
[12.866268161109344, 19.147436501517063, 24.202700775471563, 0.07457758760927206, 2.585592224812994, -1.5740916940046215, -4.533461863923796]

>  <energy>  (11) 
-528.3380078002585

>  <inter_energy>  (11) 
-521.701879144749

>  <intra_energy>  (11) 
0.0

>  <rmsd>  (11) 
6.99952

>  <sdf_rank>  (11) 
0

$$$$

     RDKit          3D

 33 35  0  0  0  0  0  0  0  0999 V2000
   15.3207   17.4058   21.8518 C   0  0  0  0  0  0  0  0  0  0  0  0
   12.0707   21.0717   22.3568 C   0  0  0  0  0  0  0  0  0  0  0  0
   12.3413   19.5839   24.2252 C   0  0  0  0  0  0  0  0  0  0  0  0
   13.3906   20.6469   21.8051 C   0  0  0  0  0  0  0  0  0  0  0  0
   13.6229   19.0434   23.5768 C   0  0  0  0  0  0  0  0  0  0  0  0
   16.3199   16.7951   21.1103 C   0  0  0  0  0  0  0  0  0  0  0  0
   14.6872   18.5827   21.4156 C   0  0  0  0  0  0  0  0  0  0  0  0
   16.4016   18.9979   18.4635 C   0  0  0  0  0  0  0  0  0  0  0  0
   10.1170   21.0431   24.7970 O   0  0  0  0  0  0  0  0  0  0  0  0
   11.2489   21.8961   24.7483 S   0  0  1  0  0  0  0  0  0  0  0  0
   11.2617   23.1388   24.1151 O   0  0  0  0  0  0  0  0  0  0  0  0
   11.8628   21.9140   26.4305 C   0  0  0  0  0  0  0  0  0  0  0  0
   12.2162   21.0081   23.8518 N   0  0  0  0  0  0  0  0  0  0  0  0
   13.6922   19.2756   22.1148 N   0  0  0  0  0  0  0  0  0  0  0  0
   15.0318   19.2261   20.2382 N   0  0  0  0  0  0  0  0  0  0  0  0
   16.5926   17.4945   19.9668 C   0  0  0  0  0  0  0  0  0  0  0  0
   17.5312   17.1848   19.0946 N   0  0  0  0  0  0  0  0  0  0  0  0
   17.3522   18.0856   18.1598 N   0  0  0  0  0  0  0  0  0  0  0  0
   15.9714   18.6143   19.6634 N   0  0  0  0  0  0  0  0  0  0  0  0
   15.0147   16.9570   22.8083 H   0  0  0  0  0  0  0  0  0  0  0  0
   11.8336   22.0974   22.0377 H   0  0  0  0  0  0  0  0  0  0  0  0
   11.2545   20.4264   22.0001 H   0  0  0  0  0  0  0  0  0  0  0  0
   11.4698   19.0222   23.8579 H   0  0  0  0  0  0  0  0  0  0  0  0
   12.3867   19.4745   25.3188 H   0  0  0  0  0  0  0  0  0  0  0  0
   13.3732   20.7678   20.7119 H   0  0  0  0  0  0  0  0  0  0  0  0
   14.1673   21.2759   22.2647 H   0  0  0  0  0  0  0  0  0  0  0  0
   14.4857   19.5365   24.0484 H   0  0  0  0  0  0  0  0  0  0  0  0
   13.6274   17.9543   23.7308 H   0  0  0  0  0  0  0  0  0  0  0  0
   16.8292   15.8655   21.4042 H   0  0  0  0  0  0  0  0  0  0  0  0
   16.0637   19.8543   17.8615 H   0  0  0  0  0  0  0  0  0  0  0  0
   11.0148   21.8892   27.1306 H   0  0  0  0  0  0  0  0  0  0  0  0
   12.5017   21.0342   26.5970 H   0  0  0  0  0  0  0  0  0  0  0  0
   12.4492   22.8297   26.5970 H   0  0  0  0  0  0  0  0  0  0  0  0
  1  6  2  0
  1  7  1  0
  2  4  1  0
  2 13  1  0
  3  5  1  0
  3 13  1  0
  4 14  1  0
  5 14  1  0
  6 16  1  0
  7 14  1  0
  7 15  2  0
  8 18  2  0
  8 19  1  0
  9 10  2  0
 10 11  2  0
 10 12  1  1
 10 13  1  0
 15 19  1  0
 16 17  2  0
 16 19  1  0
 17 18  1  0
  1 20  1  0
  2 21  1  0
  2 22  1  0
  3 23  1  0
  3 24  1  0
  4 25  1  0
  4 26  1  0
  5 27  1  0
  5 28  1  0
  6 29  1  0
  8 30  1  0
 12 31  1  0
 12 32  1  0
 12 33  1  0
M  END
>  <filename_input>  (12) 
6YYO_Q1K_docked.sdf

>  <pdb_id>  (12) 
6YYO_Q1K

>  <pose_rank>  (12) 
11

>  <num_atoms_heavy>  (12) 
19

>  <num_torsions>  (12) 
1

>  <pose>  (12) 
[15.320658114112362, 17.405768430462267, 21.851768969460313, -0.2165290749211845, 0.13766109751842742, 0.16759547237248773, -3.888081756359267]

>  <energy>  (12) 
-605.1875825665544

>  <inter_energy>  (12) 
-605.9378622717521

>  <intra_energy>  (12) 
0.0

>  <rmsd>  (12) 
1.14158

>  <sdf_rank>  (12) 
0

$$$$

     RDKit          3D

 33 35  0  0  0  0  0  0  0  0999 V2000
   12.4468   19.2082   24.2730 C   0  0  0  0  0  0  0  0  0  0  0  0
   15.4908   20.6789   20.6914 C   0  0  0  0  0  0  0  0  0  0  0  0
   15.6236   18.3748   21.3632 C   0  0  0  0  0  0  0  0  0  0  0  0
   14.1293   20.7934   21.2916 C   0  0  0  0  0  0  0  0  0  0  0  0
   14.2918   18.5411   22.1071 C   0  0  0  0  0  0  0  0  0  0  0  0
   11.3824   19.4826   25.1173 C   0  0  0  0  0  0  0  0  0  0  0  0
   12.9235   20.1542   23.3486 C   0  0  0  0  0  0  0  0  0  0  0  0
   10.7301   22.7008   24.0771 C   0  0  0  0  0  0  0  0  0  0  0  0
   17.7778   18.6436   19.8069 O   0  0  0  0  0  0  0  0  0  0  0  0
   16.6341   18.9487   19.0260 S   0  0  1  0  0  0  0  0  0  0  0  0
   16.5379   20.0569   18.1844 O   0  0  0  0  0  0  0  0  0  0  0  0
   16.1947   17.3924   18.2567 C   0  0  0  0  0  0  0  0  0  0  0  0
   15.5939   19.2669   20.1856 N   0  0  0  0  0  0  0  0  0  0  0  0
   13.9715   19.9483   22.4441 N   0  0  0  0  0  0  0  0  0  0  0  0
   12.3516   21.4069   23.1972 N   0  0  0  0  0  0  0  0  0  0  0  0
   10.8831   20.7376   24.9012 C   0  0  0  0  0  0  0  0  0  0  0  0
    9.8378   21.2538   25.5163 N   0  0  0  0  0  0  0  0  0  0  0  0
    9.8041   22.4723   25.0355 N   0  0  0  0  0  0  0  0  0  0  0  0
   11.3730   21.5393   23.9796 N   0  0  0  0  0  0  0  0  0  0  0  0
   12.9321   18.2226   24.3276 H   0  0  0  0  0  0  0  0  0  0  0  0
   15.6060   21.3928   19.8625 H   0  0  0  0  0  0  0  0  0  0  0  0
   16.2786   20.9064   21.4247 H   0  0  0  0  0  0  0  0  0  0  0  0
   16.4587   18.6528   22.0230 H   0  0  0  0  0  0  0  0  0  0  0  0
   15.7633   17.3292   21.0515 H   0  0  0  0  0  0  0  0  0  0  0  0
   13.9615   21.8381   21.5926 H   0  0  0  0  0  0  0  0  0  0  0  0
   13.3983   20.4728   20.5348 H   0  0  0  0  0  0  0  0  0  0  0  0
   13.4866   18.1440   21.4714 H   0  0  0  0  0  0  0  0  0  0  0  0
   14.3829   17.9948   23.0574 H   0  0  0  0  0  0  0  0  0  0  0  0
   10.9888   18.7798   25.8665 H   0  0  0  0  0  0  0  0  0  0  0  0
   10.9097   23.6272   23.5118 H   0  0  0  0  0  0  0  0  0  0  0  0
   15.9837   16.6451   19.0358 H   0  0  0  0  0  0  0  0  0  0  0  0
   15.3009   17.5322   17.6310 H   0  0  0  0  0  0  0  0  0  0  0  0
   17.0296   17.0441   17.6310 H   0  0  0  0  0  0  0  0  0  0  0  0
  1  6  2  0
  1  7  1  0
  2  4  1  0
  2 13  1  0
  3  5  1  0
  3 13  1  0
  4 14  1  0
  5 14  1  0
  6 16  1  0
  7 14  1  0
  7 15  2  0
  8 18  2  0
  8 19  1  0
  9 10  2  0
 10 11  2  0
 10 12  1  6
 10 13  1  0
 15 19  1  0
 16 17  2  0
 16 19  1  0
 17 18  1  0
  1 20  1  0
  2 21  1  0
  2 22  1  0
  3 23  1  0
  3 24  1  0
  4 25  1  0
  4 26  1  0
  5 27  1  0
  5 28  1  0
  6 29  1  0
  8 30  1  0
 12 31  1  0
 12 32  1  0
 12 33  1  0
M  END
>  <filename_input>  (13) 
6YYO_Q1K_docked.sdf

>  <pdb_id>  (13) 
6YYO_Q1K

>  <pose_rank>  (13) 
12

>  <num_atoms_heavy>  (13) 
19

>  <num_torsions>  (13) 
1

>  <pose>  (13) 
[12.44677374162483, 19.20818073468072, 24.27297611697597, 0.09319150848345284, 2.7317994831513626, -1.4201168521087497, 2.499081452190469]

>  <energy>  (13) 
-548.0608772152932

>  <inter_energy>  (13) 
-530.3397480921426

>  <intra_energy>  (13) 
0.0

>  <rmsd>  (13) 
6.95038

>  <sdf_rank>  (13) 
0

$$$$

     RDKit          3D

 33 35  0  0  0  0  0  0  0  0999 V2000
   13.2737   19.5033   24.3378 C   0  0  0  0  0  0  0  0  0  0  0  0
   15.0240   20.1480   19.7797 C   0  0  0  0  0  0  0  0  0  0  0  0
   15.7543   18.1889   20.9655 C   0  0  0  0  0  0  0  0  0  0  0  0
   13.8515   20.2848   20.6926 C   0  0  0  0  0  0  0  0  0  0  0  0
   14.6347   18.4218   21.9888 C   0  0  0  0  0  0  0  0  0  0  0  0
   12.4120   19.8993   25.3487 C   0  0  0  0  0  0  0  0  0  0  0  0
   13.3229   20.1703   23.1012 C   0  0  0  0  0  0  0  0  0  0  0  0
   10.9234   22.5517   23.7321 C   0  0  0  0  0  0  0  0  0  0  0  0
   14.9717   17.4897   17.7009 O   0  0  0  0  0  0  0  0  0  0  0  0
   16.0420   18.1340   18.3718 S   0  0  1  0  0  0  0  0  0  0  0  0
   17.1432   17.4645   18.9054 O   0  0  0  0  0  0  0  0  0  0  0  0
   16.4562   19.5202   17.3164 C   0  0  0  0  0  0  0  0  0  0  0  0
   15.2711   18.6703   19.6548 N   0  0  0  0  0  0  0  0  0  0  0  0
   14.1414   19.8189   22.0216 N   0  0  0  0  0  0  0  0  0  0  0  0
   12.5021   21.2439   22.7965 N   0  0  0  0  0  0  0  0  0  0  0  0
   11.6442   20.9637   24.9630 C   0  0  0  0  0  0  0  0  0  0  0  0
   10.6990   21.5206   25.6937 N   0  0  0  0  0  0  0  0  0  0  0  0
   10.3173   22.5227   24.9404 N   0  0  0  0  0  0  0  0  0  0  0  0
   11.7343   21.4965   23.7631 N   0  0  0  0  0  0  0  0  0  0  0  0
   13.9377   18.6430   24.5080 H   0  0  0  0  0  0  0  0  0  0  0  0
   14.7969   20.5836   18.7955 H   0  0  0  0  0  0  0  0  0  0  0  0
   15.9066   20.6760   20.1699 H   0  0  0  0  0  0  0  0  0  0  0  0
   16.6545   18.7476   21.2613 H   0  0  0  0  0  0  0  0  0  0  0  0
   16.0126   17.1209   20.9128 H   0  0  0  0  0  0  0  0  0  0  0  0
   13.5640   21.3453   20.7437 H   0  0  0  0  0  0  0  0  0  0  0  0
   13.0351   19.6680   20.2889 H   0  0  0  0  0  0  0  0  0  0  0  0
   13.7916   17.7612   21.7380 H   0  0  0  0  0  0  0  0  0  0  0  0
   15.0553   18.2051   22.9818 H   0  0  0  0  0  0  0  0  0  0  0  0
   12.3530   19.4185   26.3362 H   0  0  0  0  0  0  0  0  0  0  0  0
   10.7802   23.2758   22.9165 H   0  0  0  0  0  0  0  0  0  0  0  0
   16.7160   20.3896   17.9381 H   0  0  0  0  0  0  0  0  0  0  0  0
   17.3141   19.2540   16.6814 H   0  0  0  0  0  0  0  0  0  0  0  0
   15.5930   19.7683   16.6814 H   0  0  0  0  0  0  0  0  0  0  0  0
  1  6  2  0
  1  7  1  0
  2  4  1  0
  2 13  1  0
  3  5  1  0
  3 13  1  0
  4 14  1  0
  5 14  1  0
  6 16  1  0
  7 14  1  0
  7 15  2  0
  8 18  2  0
  8 19  1  0
  9 10  2  0
 10 11  2  0
 10 12  1  6
 10 13  1  0
 15 19  1  0
 16 17  2  0
 16 19  1  0
 17 18  1  0
  1 20  1  0
  2 21  1  0
  2 22  1  0
  3 23  1  0
  3 24  1  0
  4 25  1  0
  4 26  1  0
  5 27  1  0
  5 28  1  0
  6 29  1  0
  8 30  1  0
 12 31  1  0
 12 32  1  0
 12 33  1  0
M  END
>  <filename_input>  (14) 
6YYO_Q1K_docked.sdf

>  <pdb_id>  (14) 
6YYO_Q1K

>  <pose_rank>  (14) 
13

>  <num_atoms_heavy>  (14) 
19

>  <num_torsions>  (14) 
1

>  <pose>  (14) 
[13.273671575751733, 19.50331480016359, 24.337847892216587, 0.32398601054225473, -2.454671109127612, 1.7688554465497839, -0.9631856226612218]

>  <energy>  (14) 
-514.6837103332181

>  <inter_energy>  (14) 
-505.88072842125496

>  <intra_energy>  (14) 
0.0

>  <rmsd>  (14) 
7.00024

>  <sdf_rank>  (14) 
0

$$$$

     RDKit          3D

 33 35  0  0  0  0  0  0  0  0999 V2000
   14.8306   18.2851   21.8136 C   0  0  0  0  0  0  0  0  0  0  0  0
   11.1750   21.3347   23.0758 C   0  0  0  0  0  0  0  0  0  0  0  0
   11.9415   19.7921   24.7523 C   0  0  0  0  0  0  0  0  0  0  0  0
   12.4473   21.1664   22.3144 C   0  0  0  0  0  0  0  0  0  0  0  0
   13.1795   19.5099   23.8906 C   0  0  0  0  0  0  0  0  0  0  0  0
   15.7895   17.8942   20.8923 C   0  0  0  0  0  0  0  0  0  0  0  0
   13.9688   19.3695   21.5726 C   0  0  0  0  0  0  0  0  0  0  0  0
   15.1438   20.2485   18.4624 C   0  0  0  0  0  0  0  0  0  0  0  0
    9.8775   20.7101   26.0326 O   0  0  0  0  0  0  0  0  0  0  0  0
   10.6018   21.8574   25.6199 S   0  0  1  0  0  0  0  0  0  0  0  0
   10.0312   22.9408   24.9521 O   0  0  0  0  0  0  0  0  0  0  0  0
   11.5824   22.3008   27.0512 C   0  0  0  0  0  0  0  0  0  0  0  0
   11.5485   21.1983   24.5257 N   0  0  0  0  0  0  0  0  0  0  0  0
   12.9953   19.8449   22.4587 N   0  0  0  0  0  0  0  0  0  0  0  0
   14.0338   20.1355   20.4202 N   0  0  0  0  0  0  0  0  0  0  0  0
   15.7808   18.7015   19.7881 C   0  0  0  0  0  0  0  0  0  0  0  0
   16.6155   18.6055   18.7724 N   0  0  0  0  0  0  0  0  0  0  0  0
   16.1657   19.5242   17.9533 N   0  0  0  0  0  0  0  0  0  0  0  0
   14.9593   19.7230   19.6714 N   0  0  0  0  0  0  0  0  0  0  0  0
   14.7413   17.7314   22.7599 H   0  0  0  0  0  0  0  0  0  0  0  0
   10.7408   22.3268   22.8831 H   0  0  0  0  0  0  0  0  0  0  0  0
   10.4219   20.5900   22.7784 H   0  0  0  0  0  0  0  0  0  0  0  0
   11.1202   19.1215   24.4593 H   0  0  0  0  0  0  0  0  0  0  0  0
   12.1645   19.6205   25.8157 H   0  0  0  0  0  0  0  0  0  0  0  0
   12.2499   21.3537   21.2486 H   0  0  0  0  0  0  0  0  0  0  0  0
   13.1794   21.8817   22.7174 H   0  0  0  0  0  0  0  0  0  0  0  0
   14.0182   20.1047   24.2817 H   0  0  0  0  0  0  0  0  0  0  0  0
   13.3714   18.4283   23.9464 H   0  0  0  0  0  0  0  0  0  0  0  0
   16.4714   17.0424   21.0316 H   0  0  0  0  0  0  0  0  0  0  0  0
   14.5949   21.0761   17.9895 H   0  0  0  0  0  0  0  0  0  0  0  0
   11.0278   22.0501   27.9676 H   0  0  0  0  0  0  0  0  0  0  0  0
   12.5308   21.7440   27.0327 H   0  0  0  0  0  0  0  0  0  0  0  0
   11.7907   23.3807   27.0327 H   0  0  0  0  0  0  0  0  0  0  0  0
  1  6  2  0
  1  7  1  0
  2  4  1  0
  2 13  1  0
  3  5  1  0
  3 13  1  0
  4 14  1  0
  5 14  1  0
  6 16  1  0
  7 14  1  0
  7 15  2  0
  8 18  2  0
  8 19  1  0
  9 10  2  0
 10 11  2  0
 10 12  1  1
 10 13  1  0
 15 19  1  0
 16 17  2  0
 16 19  1  0
 17 18  1  0
  1 20  1  0
  2 21  1  0
  2 22  1  0
  3 23  1  0
  3 24  1  0
  4 25  1  0
  4 26  1  0
  5 27  1  0
  5 28  1  0
  6 29  1  0
  8 30  1  0
 12 31  1  0
 12 32  1  0
 12 33  1  0
M  END
>  <filename_input>  (15) 
6YYO_Q1K_docked.sdf

>  <pdb_id>  (15) 
6YYO_Q1K

>  <pose_rank>  (15) 
14

>  <num_atoms_heavy>  (15) 
19

>  <num_torsions>  (15) 
1

>  <pose>  (15) 
[14.830582371106438, 18.285122138296174, 21.813596857057963, -0.13838522823899418, 0.2564686298264467, 0.3453747311884486, -3.604289222501622]

>  <energy>  (15) 
-581.354636106829

>  <inter_energy>  (15) 
-570.4406170272957

>  <intra_energy>  (15) 
0.0

>  <rmsd>  (15) 
1.34024

>  <sdf_rank>  (15) 
0

$$$$

     RDKit          3D

 33 35  0  0  0  0  0  0  0  0999 V2000
   12.6692   21.4375   23.3622 C   0  0  0  0  0  0  0  0  0  0  0  0
   14.1492   17.1640   21.4119 C   0  0  0  0  0  0  0  0  0  0  0  0
   15.2249   19.1609   20.6164 C   0  0  0  0  0  0  0  0  0  0  0  0
   13.6916   17.8787   22.6394 C   0  0  0  0  0  0  0  0  0  0  0  0
   14.6258   19.9264   21.8038 C   0  0  0  0  0  0  0  0  0  0  0  0
   11.9115   22.1170   24.3030 C   0  0  0  0  0  0  0  0  0  0  0  0
   12.6781   20.0334   23.2905 C   0  0  0  0  0  0  0  0  0  0  0  0
   10.5036   19.3962   25.8776 C   0  0  0  0  0  0  0  0  0  0  0  0
   16.5202   15.7244   20.9418 O   0  0  0  0  0  0  0  0  0  0  0  0
   16.4960   16.9226   20.1835 S   0  0  1  0  0  0  0  0  0  0  0  0
   17.5917   17.7726   20.0340 O   0  0  0  0  0  0  0  0  0  0  0  0
   15.7017   16.4586   18.6471 C   0  0  0  0  0  0  0  0  0  0  0  0
   15.4772   17.7738   21.0585 N   0  0  0  0  0  0  0  0  0  0  0  0
   13.4336   19.2714   22.3920 N   0  0  0  0  0  0  0  0  0  0  0  0
   11.9588   19.2347   24.1646 N   0  0  0  0  0  0  0  0  0  0  0  0
   11.2346   21.2528   25.1191 C   0  0  0  0  0  0  0  0  0  0  0  0
   10.4786   21.6082   26.1387 N   0  0  0  0  0  0  0  0  0  0  0  0
    9.9998   20.4582   26.5457 N   0  0  0  0  0  0  0  0  0  0  0  0
   11.3394   19.9464   24.9996 N   0  0  0  0  0  0  0  0  0  0  0  0
   13.2807   22.0128   22.6515 H   0  0  0  0  0  0  0  0  0  0  0  0
   14.2624   16.0886   21.6138 H   0  0  0  0  0  0  0  0  0  0  0  0
   13.4249   17.2632   20.5901 H   0  0  0  0  0  0  0  0  0  0  0  0
   14.5177   19.1630   19.7738 H   0  0  0  0  0  0  0  0  0  0  0  0
   16.1597   19.6357   20.2836 H   0  0  0  0  0  0  0  0  0  0  0  0
   12.7665   17.4057   23.0008 H   0  0  0  0  0  0  0  0  0  0  0  0
   14.4942   17.8116   23.3886 H   0  0  0  0  0  0  0  0  0  0  0  0
   15.3953   20.0139   22.5849 H   0  0  0  0  0  0  0  0  0  0  0  0
   14.3009   20.9065   21.4245 H   0  0  0  0  0  0  0  0  0  0  0  0
   11.8610   23.2129   24.3833 H   0  0  0  0  0  0  0  0  0  0  0  0
   10.2766   18.3300   26.0246 H   0  0  0  0  0  0  0  0  0  0  0  0
   14.7707   15.9148   18.8652 H   0  0  0  0  0  0  0  0  0  0  0  0
   15.4702   17.3635   18.0661 H   0  0  0  0  0  0  0  0  0  0  0  0
   16.3762   15.8125   18.0661 H   0  0  0  0  0  0  0  0  0  0  0  0
  1  6  2  0
  1  7  1  0
  2  4  1  0
  2 13  1  0
  3  5  1  0
  3 13  1  0
  4 14  1  0
  5 14  1  0
  6 16  1  0
  7 14  1  0
  7 15  2  0
  8 18  2  0
  8 19  1  0
  9 10  2  0
 10 11  2  0
 10 12  1  6
 10 13  1  0
 15 19  1  0
 16 17  2  0
 16 19  1  0
 17 18  1  0
  1 20  1  0
  2 21  1  0
  2 22  1  0
  3 23  1  0
  3 24  1  0
  4 25  1  0
  4 26  1  0
  5 27  1  0
  5 28  1  0
  6 29  1  0
  8 30  1  0
 12 31  1  0
 12 32  1  0
 12 33  1  0
M  END
>  <filename_input>  (16) 
6YYO_Q1K_docked.sdf

>  <pdb_id>  (16) 
6YYO_Q1K

>  <pose_rank>  (16) 
15

>  <num_atoms_heavy>  (16) 
19

>  <num_torsions>  (16) 
1

>  <pose>  (16) 
[12.669199858604706, 21.437464665832024, 23.362158831774593, -2.3244060862846734, -0.44787587010201957, -2.085807834124535, 0.03246362435223679]

>  <energy>  (16) 
-466.80064577514884

>  <inter_energy>  (16) 
-459.96080877377244

>  <intra_energy>  (16) 
0.0

>  <rmsd>  (16) 
7.12938

>  <sdf_rank>  (16) 
0

$$$$

     RDKit          3D

 33 35  0  0  0  0  0  0  0  0999 V2000
   14.9360   17.9063   22.1119 C   0  0  0  0  0  0  0  0  0  0  0  0
   12.3100   21.9579   23.0840 C   0  0  0  0  0  0  0  0  0  0  0  0
   12.0309   20.0899   24.5707 C   0  0  0  0  0  0  0  0  0  0  0  0
   13.6096   21.4036   22.6035 C   0  0  0  0  0  0  0  0  0  0  0  0
   13.2888   19.4526   23.9655 C   0  0  0  0  0  0  0  0  0  0  0  0
   15.9219   17.2773   21.3679 C   0  0  0  0  0  0  0  0  0  0  0  0
   14.5855   19.2502   21.8935 C   0  0  0  0  0  0  0  0  0  0  0  0
   16.7860   19.9221   19.3375 C   0  0  0  0  0  0  0  0  0  0  0  0
   10.7763   23.3602   24.5615 O   0  0  0  0  0  0  0  0  0  0  0  0
   11.2743   22.4123   25.4913 S   0  0  1  0  0  0  0  0  0  0  0  0
   12.1110   22.7340   26.5600 O   0  0  0  0  0  0  0  0  0  0  0  0
    9.8417   21.4353   25.9385 C   0  0  0  0  0  0  0  0  0  0  0  0
   12.2069   21.5564   24.5291 N   0  0  0  0  0  0  0  0  0  0  0  0
   13.6241   19.9659   22.6163 N   0  0  0  0  0  0  0  0  0  0  0  0
   15.2134   20.0432   20.9468 N   0  0  0  0  0  0  0  0  0  0  0  0
   16.4839   18.1312   20.4590 C   0  0  0  0  0  0  0  0  0  0  0  0
   17.4818   17.8297   19.6523 N   0  0  0  0  0  0  0  0  0  0  0  0
   17.6054   18.9227   18.9400 N   0  0  0  0  0  0  0  0  0  0  0  0
   16.1150   19.3903   20.3567 N   0  0  0  0  0  0  0  0  0  0  0  0
   14.4131   17.3380   22.8952 H   0  0  0  0  0  0  0  0  0  0  0  0
   12.3016   23.0537   22.9886 H   0  0  0  0  0  0  0  0  0  0  0  0
   11.4630   21.5766   22.4948 H   0  0  0  0  0  0  0  0  0  0  0  0
   11.1457   19.8019   23.9846 H   0  0  0  0  0  0  0  0  0  0  0  0
   11.8855   19.7482   25.6061 H   0  0  0  0  0  0  0  0  0  0  0  0
   13.7841   21.7506   21.5744 H   0  0  0  0  0  0  0  0  0  0  0  0
   14.3992   21.7556   23.2837 H   0  0  0  0  0  0  0  0  0  0  0  0
   14.1376   19.6549   24.6353 H   0  0  0  0  0  0  0  0  0  0  0  0
   13.0861   18.3766   23.8598 H   0  0  0  0  0  0  0  0  0  0  0  0
   16.2154   16.2246   21.4927 H   0  0  0  0  0  0  0  0  0  0  0  0
   16.6953   20.9349   18.9179 H   0  0  0  0  0  0  0  0  0  0  0  0
    9.7623   21.3812   27.0343 H   0  0  0  0  0  0  0  0  0  0  0  0
    8.9354   21.9043   25.5279 H   0  0  0  0  0  0  0  0  0  0  0  0
    9.9474   20.4203   25.5279 H   0  0  0  0  0  0  0  0  0  0  0  0
  1  6  2  0
  1  7  1  0
  2  4  1  0
  2 13  1  0
  3  5  1  0
  3 13  1  0
  4 14  1  0
  5 14  1  0
  6 16  1  0
  7 14  1  0
  7 15  2  0
  8 18  2  0
  8 19  1  0
  9 10  2  0
 10 11  2  0
 10 12  1  1
 10 13  1  0
 15 19  1  0
 16 17  2  0
 16 19  1  0
 17 18  1  0
  1 20  1  0
  2 21  1  0
  2 22  1  0
  3 23  1  0
  3 24  1  0
  4 25  1  0
  4 26  1  0
  5 27  1  0
  5 28  1  0
  6 29  1  0
  8 30  1  0
 12 31  1  0
 12 32  1  0
 12 33  1  0
M  END
>  <filename_input>  (17) 
6YYO_Q1K_docked.sdf

>  <pdb_id>  (17) 
6YYO_Q1K

>  <pose_rank>  (17) 
16

>  <num_atoms_heavy>  (17) 
19

>  <num_torsions>  (17) 
1

>  <pose>  (17) 
[14.935994238810109, 17.906272902937047, 22.111911168606415, -2.96423008901896, -0.2362743948199788, 5.511199724970279, 7.240275584110584]

>  <energy>  (17) 
-590.3023491421759

>  <inter_energy>  (17) 
-586.9458619569773

>  <intra_energy>  (17) 
0.0

>  <rmsd>  (17) 
0.753103

>  <sdf_rank>  (17) 
0

$$$$

     RDKit          3D

 33 35  0  0  0  0  0  0  0  0999 V2000
   13.6061   21.9355   23.6459 C   0  0  0  0  0  0  0  0  0  0  0  0
   13.4110   19.7831   19.2203 C   0  0  0  0  0  0  0  0  0  0  0  0
   15.5892   20.3361   20.0733 C   0  0  0  0  0  0  0  0  0  0  0  0
   12.8354   19.8540   20.5953 C   0  0  0  0  0  0  0  0  0  0  0  0
   14.9639   20.5542   21.4577 C   0  0  0  0  0  0  0  0  0  0  0  0
   12.9552   22.3496   24.7974 C   0  0  0  0  0  0  0  0  0  0  0  0
   12.9225   21.2976   22.5959 C   0  0  0  0  0  0  0  0  0  0  0  0
    9.7739   21.3132   23.9790 C   0  0  0  0  0  0  0  0  0  0  0  0
   15.8184   19.6895   17.3629 O   0  0  0  0  0  0  0  0  0  0  0  0
   15.5221   18.5575   18.1641 S   0  0  1  0  0  0  0  0  0  0  0  0
   14.6165   17.5609   17.8006 O   0  0  0  0  0  0  0  0  0  0  0  0
   17.1249   17.9503   18.6832 C   0  0  0  0  0  0  0  0  0  0  0  0
   14.8157   19.2762   19.3939 N   0  0  0  0  0  0  0  0  0  0  0  0
   13.5075   20.8252   21.4154 N   0  0  0  0  0  0  0  0  0  0  0  0
   11.5674   21.0147   22.6477 N   0  0  0  0  0  0  0  0  0  0  0  0
   11.6249   22.0331   24.7614 C   0  0  0  0  0  0  0  0  0  0  0  0
   10.7667   22.2534   25.7373 N   0  0  0  0  0  0  0  0  0  0  0  0
    9.6348   21.8574   25.2089 N   0  0  0  0  0  0  0  0  0  0  0  0
   11.0821   21.3950   23.7465 N   0  0  0  0  0  0  0  0  0  0  0  0
   14.6878   22.1109   23.5508 H   0  0  0  0  0  0  0  0  0  0  0  0
   12.8278   19.0908   18.5954 H   0  0  0  0  0  0  0  0  0  0  0  0
   13.3915   20.7629   18.7206 H   0  0  0  0  0  0  0  0  0  0  0  0
   15.5417   21.2673   19.4897 H   0  0  0  0  0  0  0  0  0  0  0  0
   16.6448   20.0421   20.1690 H   0  0  0  0  0  0  0  0  0  0  0  0
   11.7726   20.1278   20.5209 H   0  0  0  0  0  0  0  0  0  0  0  0
   12.9626   18.8681   21.0661 H   0  0  0  0  0  0  0  0  0  0  0  0
   15.1319   19.6501   22.0613 H   0  0  0  0  0  0  0  0  0  0  0  0
   15.4447   21.4430   21.8921 H   0  0  0  0  0  0  0  0  0  0  0  0
   13.4463   22.8674   25.6344 H   0  0  0  0  0  0  0  0  0  0  0  0
    8.9914   20.9006   23.3253 H   0  0  0  0  0  0  0  0  0  0  0  0
   17.1719   17.9325   19.7820 H   0  0  0  0  0  0  0  0  0  0  0  0
   17.2754   16.9329   18.2932 H   0  0  0  0  0  0  0  0  0  0  0  0
   17.9118   18.6126   18.2932 H   0  0  0  0  0  0  0  0  0  0  0  0
  1  6  2  0
  1  7  1  0
  2  4  1  0
  2 13  1  0
  3  5  1  0
  3 13  1  0
  4 14  1  0
  5 14  1  0
  6 16  1  0
  7 14  1  0
  7 15  2  0
  8 18  2  0
  8 19  1  0
  9 10  2  0
 10 11  2  0
 10 12  1  1
 10 13  1  0
 15 19  1  0
 16 17  2  0
 16 19  1  0
 17 18  1  0
  1 20  1  0
  2 21  1  0
  2 22  1  0
  3 23  1  0
  3 24  1  0
  4 25  1  0
  4 26  1  0
  5 27  1  0
  5 28  1  0
  6 29  1  0
  8 30  1  0
 12 31  1  0
 12 32  1  0
 12 33  1  0
M  END
>  <filename_input>  (18) 
6YYO_Q1K_docked.sdf

>  <pdb_id>  (18) 
6YYO_Q1K

>  <pose_rank>  (18) 
17

>  <num_atoms_heavy>  (18) 
19

>  <num_torsions>  (18) 
1

>  <pose>  (18) 
[13.606065620676414, 21.935537997622177, 23.645854051966314, -1.828402400077709, 1.2255525919333692, -2.2661958620531277, 2.2521005195285744]

>  <energy>  (18) 
-514.0338539589344

>  <inter_energy>  (18) 
-513.6819864200814

>  <intra_energy>  (18) 
0.0

>  <rmsd>  (18) 
7.21729

>  <sdf_rank>  (18) 
0

$$$$

     RDKit          3D

 33 35  0  0  0  0  0  0  0  0999 V2000
   14.9151   17.3407   22.2747 C   0  0  0  0  0  0  0  0  0  0  0  0
   12.0269   21.2787   22.9124 C   0  0  0  0  0  0  0  0  0  0  0  0
   12.1288   19.6927   24.7157 C   0  0  0  0  0  0  0  0  0  0  0  0
   13.3068   20.7523   22.3541 C   0  0  0  0  0  0  0  0  0  0  0  0
   13.3606   19.0591   24.0554 C   0  0  0  0  0  0  0  0  0  0  0  0
   15.8604   16.6687   21.5158 C   0  0  0  0  0  0  0  0  0  0  0  0
   14.4035   18.5910   21.8854 C   0  0  0  0  0  0  0  0  0  0  0  0
   16.1882   18.9650   18.9696 C   0  0  0  0  0  0  0  0  0  0  0  0
    9.9846   21.4875   25.1157 O   0  0  0  0  0  0  0  0  0  0  0  0
   11.2573   22.0750   25.3307 S   0  0  1  0  0  0  0  0  0  0  0  0
   11.6003   23.3632   24.9205 O   0  0  0  0  0  0  0  0  0  0  0  0
   11.6250   21.7201   27.0470 C   0  0  0  0  0  0  0  0  0  0  0  0
   12.1462   21.1370   24.4044 N   0  0  0  0  0  0  0  0  0  0  0  0
   13.4709   19.3462   22.6056 N   0  0  0  0  0  0  0  0  0  0  0  0
   14.8238   19.2481   20.7405 N   0  0  0  0  0  0  0  0  0  0  0  0
   16.2141   17.3870   20.4067 C   0  0  0  0  0  0  0  0  0  0  0  0
   17.1296   17.0257   19.5300 N   0  0  0  0  0  0  0  0  0  0  0  0
   17.0504   17.9790   18.6343 N   0  0  0  0  0  0  0  0  0  0  0  0
   15.7075   18.5736   20.1476 N   0  0  0  0  0  0  0  0  0  0  0  0
   14.5550   16.8828   23.2079 H   0  0  0  0  0  0  0  0  0  0  0  0
   11.8938   22.3353   22.6368 H   0  0  0  0  0  0  0  0  0  0  0  0
   11.1570   20.7313   22.5205 H   0  0  0  0  0  0  0  0  0  0  0  0
   11.2121   19.2342   24.3164 H   0  0  0  0  0  0  0  0  0  0  0  0
   12.1492   19.5324   25.8038 H   0  0  0  0  0  0  0  0  0  0  0  0
   13.3153   20.9212   21.2672 H   0  0  0  0  0  0  0  0  0  0  0  0
   14.1344   21.2828   22.8478 H   0  0  0  0  0  0  0  0  0  0  0  0
   14.2607   19.4457   24.5558 H   0  0  0  0  0  0  0  0  0  0  0  0
   13.2583   17.9690   24.1612 H   0  0  0  0  0  0  0  0  0  0  0  0
   16.2740   15.6824   21.7730 H   0  0  0  0  0  0  0  0  0  0  0  0
   15.9422   19.8753   18.4030 H   0  0  0  0  0  0  0  0  0  0  0  0
   10.9850   22.3377   27.6943 H   0  0  0  0  0  0  0  0  0  0  0  0
   11.4341   20.6561   27.2504 H   0  0  0  0  0  0  0  0  0  0  0  0
   12.6816   21.9486   27.2504 H   0  0  0  0  0  0  0  0  0  0  0  0
  1  6  2  0
  1  7  1  0
  2  4  1  0
  2 13  1  0
  3  5  1  0
  3 13  1  0
  4 14  1  0
  5 14  1  0
  6 16  1  0
  7 14  1  0
  7 15  2  0
  8 18  2  0
  8 19  1  0
  9 10  2  0
 10 11  2  0
 10 12  1  1
 10 13  1  0
 15 19  1  0
 16 17  2  0
 16 19  1  0
 17 18  1  0
  1 20  1  0
  2 21  1  0
  2 22  1  0
  3 23  1  0
  3 24  1  0
  4 25  1  0
  4 26  1  0
  5 27  1  0
  5 28  1  0
  6 29  1  0
  8 30  1  0
 12 31  1  0
 12 32  1  0
 12 33  1  0
M  END
>  <filename_input>  (19) 
6YYO_Q1K_docked.sdf

>  <pdb_id>  (19) 
6YYO_Q1K

>  <pose_rank>  (19) 
18

>  <num_atoms_heavy>  (19) 
19

>  <num_torsions>  (19) 
1

>  <pose>  (19) 
[14.915098203463561, 17.34066014942239, 22.27474836536231, -0.1669020875754632, 0.1332348698724728, 0.07316183254645145, -4.083257848849613]

>  <energy>  (19) 
-568.2843036109052

>  <inter_energy>  (19) 
-566.1841944205723

>  <intra_energy>  (19) 
0.0

>  <rmsd>  (19) 
0.948249

>  <sdf_rank>  (19) 
0

$$$$

     RDKit          3D

 33 35  0  0  0  0  0  0  0  0999 V2000
   11.9709   18.7993   24.9527 C   0  0  0  0  0  0  0  0  0  0  0  0
   15.0205   19.2676   21.1138 C   0  0  0  0  0  0  0  0  0  0  0  0
   14.9174   17.1123   22.1731 C   0  0  0  0  0  0  0  0  0  0  0  0
   13.7051   19.6430   21.7103 C   0  0  0  0  0  0  0  0  0  0  0  0
   13.6428   17.5594   22.9015 C   0  0  0  0  0  0  0  0  0  0  0  0
   10.9781   19.3375   25.7562 C   0  0  0  0  0  0  0  0  0  0  0  0
   12.5155   19.5108   23.8693 C   0  0  0  0  0  0  0  0  0  0  0  0
   10.6548   22.3857   24.1851 C   0  0  0  0  0  0  0  0  0  0  0  0
   15.1606   17.4893   18.5866 O   0  0  0  0  0  0  0  0  0  0  0  0
   15.8948   17.1560   19.7532 S   0  0  1  0  0  0  0  0  0  0  0  0
   16.0973   15.8504   20.2001 O   0  0  0  0  0  0  0  0  0  0  0  0
   17.3866   18.1394   19.6339 C   0  0  0  0  0  0  0  0  0  0  0  0
   14.9432   17.7879   20.8592 N   0  0  0  0  0  0  0  0  0  0  0  0
   13.4975   19.0313   22.9949 N   0  0  0  0  0  0  0  0  0  0  0  0
   12.0838   20.7781   23.5132 N   0  0  0  0  0  0  0  0  0  0  0  0
   10.6162   20.5875   25.3348 C   0  0  0  0  0  0  0  0  0  0  0  0
    9.6608   21.3209   25.8703 N   0  0  0  0  0  0  0  0  0  0  0  0
    9.7468   22.4350   25.1858 N   0  0  0  0  0  0  0  0  0  0  0  0
   11.1576   21.1567   24.2789 N   0  0  0  0  0  0  0  0  0  0  0  0
   12.3432   17.7870   25.1687 H   0  0  0  0  0  0  0  0  0  0  0  0
   15.1836   19.8111   20.1715 H   0  0  0  0  0  0  0  0  0  0  0  0
   15.8569   19.5219   21.7815 H   0  0  0  0  0  0  0  0  0  0  0  0
   15.8036   17.3979   22.7588 H   0  0  0  0  0  0  0  0  0  0  0  0
   14.9254   16.0198   22.0452 H   0  0  0  0  0  0  0  0  0  0  0  0
   13.6686   20.7360   21.8283 H   0  0  0  0  0  0  0  0  0  0  0  0
   12.9136   19.2869   21.0345 H   0  0  0  0  0  0  0  0  0  0  0  0
   12.7738   17.1579   22.3597 H   0  0  0  0  0  0  0  0  0  0  0  0
   13.7084   17.1760   23.9305 H   0  0  0  0  0  0  0  0  0  0  0  0
   10.5368   18.8243   26.6234 H   0  0  0  0  0  0  0  0  0  0  0  0
   10.9160   23.1743   23.4642 H   0  0  0  0  0  0  0  0  0  0  0  0
   17.7497   18.3788   20.6442 H   0  0  0  0  0  0  0  0  0  0  0  0
   18.1575   17.5718   19.0921 H   0  0  0  0  0  0  0  0  0  0  0  0
   17.1689   19.0716   19.0921 H   0  0  0  0  0  0  0  0  0  0  0  0
  1  6  2  0
  1  7  1  0
  2  4  1  0
  2 13  1  0
  3  5  1  0
  3 13  1  0
  4 14  1  0
  5 14  1  0
  6 16  1  0
  7 14  1  0
  7 15  2  0
  8 18  2  0
  8 19  1  0
  9 10  2  0
 10 11  2  0
 10 12  1  6
 10 13  1  0
 15 19  1  0
 16 17  2  0
 16 19  1  0
 17 18  1  0
  1 20  1  0
  2 21  1  0
  2 22  1  0
  3 23  1  0
  3 24  1  0
  4 25  1  0
  4 26  1  0
  5 27  1  0
  5 28  1  0
  6 29  1  0
  8 30  1  0
 12 31  1  0
 12 32  1  0
 12 33  1  0
M  END
>  <filename_input>  (20) 
6YYO_Q1K_docked.sdf

>  <pdb_id>  (20) 
6YYO_Q1K

>  <pose_rank>  (20) 
19

>  <num_atoms_heavy>  (20) 
19

>  <num_torsions>  (20) 
1

>  <pose>  (20) 
[11.970882229881862, 18.799261782651097, 24.952693784342884, 0.2283346735809156, 2.651098174644974, -1.6946509782015293, -6.745967816905239]

>  <energy>  (20) 
-510.11394260103964

>  <inter_energy>  (20) 
-503.0026562731736

>  <intra_energy>  (20) 
0.0

>  <rmsd>  (20) 
7.02369

>  <sdf_rank>  (20) 
0

$$$$

     RDKit          3D

 33 35  0  0  0  0  0  0  0  0999 V2000
   13.4277   21.8628   22.2919 C   0  0  0  0  0  0  0  0  0  0  0  0
   14.8480   17.4451   20.6417 C   0  0  0  0  0  0  0  0  0  0  0  0
   15.6677   19.3705   19.4590 C   0  0  0  0  0  0  0  0  0  0  0  0
   14.5405   18.2872   21.8347 C   0  0  0  0  0  0  0  0  0  0  0  0
   15.2115   20.2521   20.6293 C   0  0  0  0  0  0  0  0  0  0  0  0
   12.7827   22.6221   23.2555 C   0  0  0  0  0  0  0  0  0  0  0  0
   13.5101   20.4623   22.3834 C   0  0  0  0  0  0  0  0  0  0  0  0
   11.7975   20.0620   25.3387 C   0  0  0  0  0  0  0  0  0  0  0  0
   17.5699   16.3174   20.0841 O   0  0  0  0  0  0  0  0  0  0  0  0
   16.9904   17.1502   19.0933 S   0  0  1  0  0  0  0  0  0  0  0  0
   17.7089   18.0726   18.3327 O   0  0  0  0  0  0  0  0  0  0  0  0
   15.9548   16.0460   18.1367 C   0  0  0  0  0  0  0  0  0  0  0  0
   16.0675   18.0606   20.0137 N   0  0  0  0  0  0  0  0  0  0  0  0
   14.1645   19.6265   21.4711 N   0  0  0  0  0  0  0  0  0  0  0  0
   12.9818   19.7493   23.4472 N   0  0  0  0  0  0  0  0  0  0  0  0
   12.2913   21.8386   24.2634 C   0  0  0  0  0  0  0  0  0  0  0  0
   11.6794   22.2863   25.3417 N   0  0  0  0  0  0  0  0  0  0  0  0
   11.3383   21.1770   25.9503 N   0  0  0  0  0  0  0  0  0  0  0  0
   12.4552   20.5330   24.2815 N   0  0  0  0  0  0  0  0  0  0  0  0
   13.8881   22.3703   21.4313 H   0  0  0  0  0  0  0  0  0  0  0  0
   15.0551   16.4087   20.9467 H   0  0  0  0  0  0  0  0  0  0  0  0
   14.0022   17.4115   19.9391 H   0  0  0  0  0  0  0  0  0  0  0  0
   14.8415   19.2387   18.7448 H   0  0  0  0  0  0  0  0  0  0  0  0
   16.5106   19.8385   18.9294 H   0  0  0  0  0  0  0  0  0  0  0  0
   13.7115   17.8249   22.3906 H   0  0  0  0  0  0  0  0  0  0  0  0
   15.4505   18.3469   22.4498 H   0  0  0  0  0  0  0  0  0  0  0  0
   16.0843   20.4677   21.2631 H   0  0  0  0  0  0  0  0  0  0  0  0
   14.7741   21.1633   20.1951 H   0  0  0  0  0  0  0  0  0  0  0  0
   12.6791   23.7165   23.2149 H   0  0  0  0  0  0  0  0  0  0  0  0
   11.6602   19.0139   25.6427 H   0  0  0  0  0  0  0  0  0  0  0  0
   15.3638   15.4158   18.8175 H   0  0  0  0  0  0  0  0  0  0  0  0
   15.2771   16.6363   17.5024 H   0  0  0  0  0  0  0  0  0  0  0  0
   16.5874   15.4076   17.5024 H   0  0  0  0  0  0  0  0  0  0  0  0
  1  6  2  0
  1  7  1  0
  2  4  1  0
  2 13  1  0
  3  5  1  0
  3 13  1  0
  4 14  1  0
  5 14  1  0
  6 16  1  0
  7 14  1  0
  7 15  2  0
  8 18  2  0
  8 19  1  0
  9 10  2  0
 10 11  2  0
 10 12  1  6
 10 13  1  0
 15 19  1  0
 16 17  2  0
 16 19  1  0
 17 18  1  0
  1 20  1  0
  2 21  1  0
  2 22  1  0
  3 23  1  0
  3 24  1  0
  4 25  1  0
  4 26  1  0
  5 27  1  0
  5 28  1  0
  6 29  1  0
  8 30  1  0
 12 31  1  0
 12 32  1  0
 12 33  1  0
M  END
>  <filename_input>  (21) 
6YYO_Q1K_docked.sdf

>  <pdb_id>  (21) 
6YYO_Q1K

>  <pose_rank>  (21) 
20

>  <num_atoms_heavy>  (21) 
19

>  <num_torsions>  (21) 
1

>  <pose>  (21) 
[13.427741903901525, 21.86284032083208, 22.291852852073784, -2.4889219809616576, -0.6392951111307751, -1.886830405716406, -0.3011759484634028]

>  <energy>  (21) 
-545.7955120882656

>  <inter_energy>  (21) 
-534.3126556528262

>  <intra_energy>  (21) 
0.0

>  <rmsd>  (21) 
7.13285

>  <sdf_rank>  (21) 
0

$$$$

     RDKit          3D

 33 35  0  0  0  0  0  0  0  0999 V2000
   15.2871   17.2227   21.7646 C   0  0  0  0  0  0  0  0  0  0  0  0
   12.5244   21.2297   22.5179 C   0  0  0  0  0  0  0  0  0  0  0  0
   12.2727   19.4178   24.0773 C   0  0  0  0  0  0  0  0  0  0  0  0
   13.8486   20.6956   22.0843 C   0  0  0  0  0  0  0  0  0  0  0  0
   13.5602   18.7943   23.5218 C   0  0  0  0  0  0  0  0  0  0  0  0
   16.3051   16.5935   21.0653 C   0  0  0  0  0  0  0  0  0  0  0  0
   14.9011   18.5450   21.4833 C   0  0  0  0  0  0  0  0  0  0  0  0
   17.1285   19.1762   18.9402 C   0  0  0  0  0  0  0  0  0  0  0  0
   12.3841   22.3986   25.7125 O   0  0  0  0  0  0  0  0  0  0  0  0
   11.4305   21.7525   24.8853 S   0  0  1  0  0  0  0  0  0  0  0  0
   10.4995   20.8229   25.3485 O   0  0  0  0  0  0  0  0  0  0  0  0
   10.7320   23.0739   23.8989 C   0  0  0  0  0  0  0  0  0  0  0  0
   12.4059   20.8860   23.9767 N   0  0  0  0  0  0  0  0  0  0  0  0
   13.9055   19.2608   22.1581 N   0  0  0  0  0  0  0  0  0  0  0  0
   15.5229   19.3165   20.5152 N   0  0  0  0  0  0  0  0  0  0  0  0
   16.8586   17.4253   20.1311 C   0  0  0  0  0  0  0  0  0  0  0  0
   17.8800   17.1209   19.3555 N   0  0  0  0  0  0  0  0  0  0  0  0
   17.9845   18.1864   18.5999 N   0  0  0  0  0  0  0  0  0  0  0  0
   16.4545   18.6672   19.9691 N   0  0  0  0  0  0  0  0  0  0  0  0
   14.7666   16.6720   22.5619 H   0  0  0  0  0  0  0  0  0  0  0  0
   12.4852   22.3198   22.3762 H   0  0  0  0  0  0  0  0  0  0  0  0
   11.7002   20.7985   21.9306 H   0  0  0  0  0  0  0  0  0  0  0  0
   11.4077   19.0788   23.4884 H   0  0  0  0  0  0  0  0  0  0  0  0
   12.1180   19.1154   25.1235 H   0  0  0  0  0  0  0  0  0  0  0  0
   14.0321   21.0045   21.0446 H   0  0  0  0  0  0  0  0  0  0  0  0
   14.6145   21.0995   22.7627 H   0  0  0  0  0  0  0  0  0  0  0  0
   14.3899   19.0501   24.1972 H   0  0  0  0  0  0  0  0  0  0  0  0
   13.3914   17.7092   23.4582 H   0  0  0  0  0  0  0  0  0  0  0  0
   16.6272   15.5563   21.2397 H   0  0  0  0  0  0  0  0  0  0  0  0
   17.0158   20.1673   18.4767 H   0  0  0  0  0  0  0  0  0  0  0  0
   10.3221   23.8495   24.5625 H   0  0  0  0  0  0  0  0  0  0  0  0
   11.5165   23.5116   23.2641 H   0  0  0  0  0  0  0  0  0  0  0  0
    9.9284   22.6722   23.2641 H   0  0  0  0  0  0  0  0  0  0  0  0
  1  6  2  0
  1  7  1  0
  2  4  1  0
  2 13  1  0
  3  5  1  0
  3 13  1  0
  4 14  1  0
  5 14  1  0
  6 16  1  0
  7 14  1  0
  7 15  2  0
  8 18  2  0
  8 19  1  0
  9 10  2  0
 10 11  2  0
 10 12  1  6
 10 13  1  0
 15 19  1  0
 16 17  2  0
 16 19  1  0
 17 18  1  0
  1 20  1  0
  2 21  1  0
  2 22  1  0
  3 23  1  0
  3 24  1  0
  4 25  1  0
  4 26  1  0
  5 27  1  0
  5 28  1  0
  6 29  1  0
  8 30  1  0
 12 31  1  0
 12 32  1  0
 12 33  1  0
M  END
>  <filename_input>  (22) 
6YYO_Q1K_docked.sdf

>  <pdb_id>  (22) 
6YYO_Q1K

>  <pose_rank>  (22) 
21

>  <num_atoms_heavy>  (22) 
19

>  <num_torsions>  (22) 
1

>  <pose>  (22) 
[15.287124412390723, 17.222714536544224, 21.764563231441354, -0.03200937629917028, -0.017674017612573617, 0.011694098349082003, 5.2620056946415]

>  <energy>  (22) 
-632.7620329905631

>  <inter_energy>  (22) 
-630.3055100188329

>  <intra_energy>  (22) 
0.0

>  <rmsd>  (22) 
0.976213

>  <sdf_rank>  (22) 
0

$$$$

     RDKit          3D

 33 35  0  0  0  0  0  0  0  0999 V2000
   12.5193   21.6086   23.0876 C   0  0  0  0  0  0  0  0  0  0  0  0
   14.2523   17.5802   20.8459 C   0  0  0  0  0  0  0  0  0  0  0  0
   14.8696   19.7056   19.9082 C   0  0  0  0  0  0  0  0  0  0  0  0
   13.9132   18.2321   22.1448 C   0  0  0  0  0  0  0  0  0  0  0  0
   14.3783   20.3865   21.1927 C   0  0  0  0  0  0  0  0  0  0  0  0
   11.8437   22.1787   24.1551 C   0  0  0  0  0  0  0  0  0  0  0  0
   12.7218   20.2205   22.9938 C   0  0  0  0  0  0  0  0  0  0  0  0
   11.1434   19.2963   25.9060 C   0  0  0  0  0  0  0  0  0  0  0  0
   17.1738   16.9224   20.1150 O   0  0  0  0  0  0  0  0  0  0  0  0
   16.3617   17.6747   19.2286 S   0  0  1  0  0  0  0  0  0  0  0  0
   16.8297   18.7354   18.4531 O   0  0  0  0  0  0  0  0  0  0  0  0
   15.4387   16.4399   18.3174 C   0  0  0  0  0  0  0  0  0  0  0  0
   15.3953   18.3753   20.2788 N   0  0  0  0  0  0  0  0  0  0  0  0
   13.4147   19.5690   21.9670 N   0  0  0  0  0  0  0  0  0  0  0  0
   12.2891   19.3335   23.9660 N   0  0  0  0  0  0  0  0  0  0  0  0
   11.4520   21.2325   25.0620 C   0  0  0  0  0  0  0  0  0  0  0  0
   10.8391   21.4829   26.2018 N   0  0  0  0  0  0  0  0  0  0  0  0
   10.6118   20.2792   26.6673 N   0  0  0  0  0  0  0  0  0  0  0  0
   11.7253   19.9546   24.9061 N   0  0  0  0  0  0  0  0  0  0  0  0
   12.9079   22.2605   22.2914 H   0  0  0  0  0  0  0  0  0  0  0  0
   14.5552   16.5353   21.0087 H   0  0  0  0  0  0  0  0  0  0  0  0
   13.3905   17.5632   20.1625 H   0  0  0  0  0  0  0  0  0  0  0  0
   14.0352   19.5948   19.2000 H   0  0  0  0  0  0  0  0  0  0  0  0
   15.6530   20.3095   19.4270 H   0  0  0  0  0  0  0  0  0  0  0  0
   13.1439   17.6317   22.6524 H   0  0  0  0  0  0  0  0  0  0  0  0
   14.8340   18.2916   22.7436 H   0  0  0  0  0  0  0  0  0  0  0  0
   15.2496   20.5944   21.8311 H   0  0  0  0  0  0  0  0  0  0  0  0
   13.8525   21.3041   20.8902 H   0  0  0  0  0  0  0  0  0  0  0  0
   11.6473   23.2559   24.2599 H   0  0  0  0  0  0  0  0  0  0  0  0
   11.1042   18.2098   26.0734 H   0  0  0  0  0  0  0  0  0  0  0  0
   14.9338   15.7644   19.0236 H   0  0  0  0  0  0  0  0  0  0  0  0
   14.6884   16.9362   17.6844 H   0  0  0  0  0  0  0  0  0  0  0  0
   16.1271   15.8607   17.6844 H   0  0  0  0  0  0  0  0  0  0  0  0
  1  6  2  0
  1  7  1  0
  2  4  1  0
  2 13  1  0
  3  5  1  0
  3 13  1  0
  4 14  1  0
  5 14  1  0
  6 16  1  0
  7 14  1  0
  7 15  2  0
  8 18  2  0
  8 19  1  0
  9 10  2  0
 10 11  2  0
 10 12  1  6
 10 13  1  0
 15 19  1  0
 16 17  2  0
 16 19  1  0
 17 18  1  0
  1 20  1  0
  2 21  1  0
  2 22  1  0
  3 23  1  0
  3 24  1  0
  4 25  1  0
  4 26  1  0
  5 27  1  0
  5 28  1  0
  6 29  1  0
  8 30  1  0
 12 31  1  0
 12 32  1  0
 12 33  1  0
M  END
>  <filename_input>  (23) 
6YYO_Q1K_docked.sdf

>  <pdb_id>  (23) 
6YYO_Q1K

>  <pose_rank>  (23) 
22

>  <num_atoms_heavy>  (23) 
19

>  <num_torsions>  (23) 
1

>  <pose>  (23) 
[12.519251977076388, 21.608584461875907, 23.087571741203455, -2.3634489112479384, -0.5926572116517319, -1.801722227093169, 5.838693981665369]

>  <energy>  (23) 
-483.87344453465795

>  <inter_energy>  (23) 
-486.58863957681916

>  <intra_energy>  (23) 
0.0

>  <rmsd>  (23) 
7.08363

>  <sdf_rank>  (23) 
0

$$$$

     RDKit          3D

 33 35  0  0  0  0  0  0  0  0999 V2000
   13.2324   21.7140   22.3466 C   0  0  0  0  0  0  0  0  0  0  0  0
   14.1455   17.1424   20.7583 C   0  0  0  0  0  0  0  0  0  0  0  0
   15.4767   18.9121   19.8235 C   0  0  0  0  0  0  0  0  0  0  0  0
   13.7814   18.0061   21.9195 C   0  0  0  0  0  0  0  0  0  0  0  0
   14.9791   19.8413   20.9388 C   0  0  0  0  0  0  0  0  0  0  0  0
   12.5672   22.5594   23.2206 C   0  0  0  0  0  0  0  0  0  0  0  0
   13.0571   20.3196   22.3854 C   0  0  0  0  0  0  0  0  0  0  0  0
   10.8089   20.1797   24.9840 C   0  0  0  0  0  0  0  0  0  0  0  0
   15.5966   16.2416   18.4783 O   0  0  0  0  0  0  0  0  0  0  0  0
   16.4445   16.4997   19.5853 S   0  0  1  0  0  0  0  0  0  0  0  0
   16.7745   15.5501   20.5523 O   0  0  0  0  0  0  0  0  0  0  0  0
   17.8484   17.3571   18.8777 C   0  0  0  0  0  0  0  0  0  0  0  0
   15.5433   17.5435   20.3766 N   0  0  0  0  0  0  0  0  0  0  0  0
   13.7093   19.3964   21.5600 N   0  0  0  0  0  0  0  0  0  0  0  0
   12.2362   19.6938   23.3093 N   0  0  0  0  0  0  0  0  0  0  0  0
   11.7799   21.8586   24.0925 C   0  0  0  0  0  0  0  0  0  0  0  0
   11.0735   22.3897   25.0705 N   0  0  0  0  0  0  0  0  0  0  0  0
   10.4464   21.3482   25.5597 N   0  0  0  0  0  0  0  0  0  0  0  0
   11.7127   20.5444   24.0773 N   0  0  0  0  0  0  0  0  0  0  0  0
   13.9166   22.1462   21.6016 H   0  0  0  0  0  0  0  0  0  0  0  0
   14.1158   16.0809   21.0454 H   0  0  0  0  0  0  0  0  0  0  0  0
   13.4433   17.2696   19.9212 H   0  0  0  0  0  0  0  0  0  0  0  0
   14.7788   18.9394   18.9737 H   0  0  0  0  0  0  0  0  0  0  0  0
   16.4669   19.2327   19.4676 H   0  0  0  0  0  0  0  0  0  0  0  0
   12.8010   17.6882   22.3039 H   0  0  0  0  0  0  0  0  0  0  0  0
   14.5656   17.8946   22.6827 H   0  0  0  0  0  0  0  0  0  0  0  0
   15.7508   19.8895   21.7213 H   0  0  0  0  0  0  0  0  0  0  0  0
   14.7870   20.8221   20.4794 H   0  0  0  0  0  0  0  0  0  0  0  0
   12.6607   23.6554   23.2140 H   0  0  0  0  0  0  0  0  0  0  0  0
   10.4434   19.1674   25.2110 H   0  0  0  0  0  0  0  0  0  0  0  0
   18.4856   17.7463   19.6855 H   0  0  0  0  0  0  0  0  0  0  0  0
   18.4291   16.6594   18.2564 H   0  0  0  0  0  0  0  0  0  0  0  0
   17.4928   18.1924   18.2564 H   0  0  0  0  0  0  0  0  0  0  0  0
  1  6  2  0
  1  7  1  0
  2  4  1  0
  2 13  1  0
  3  5  1  0
  3 13  1  0
  4 14  1  0
  5 14  1  0
  6 16  1  0
  7 14  1  0
  7 15  2  0
  8 18  2  0
  8 19  1  0
  9 10  2  0
 10 11  2  0
 10 12  1  6
 10 13  1  0
 15 19  1  0
 16 17  2  0
 16 19  1  0
 17 18  1  0
  1 20  1  0
  2 21  1  0
  2 22  1  0
  3 23  1  0
  3 24  1  0
  4 25  1  0
  4 26  1  0
  5 27  1  0
  5 28  1  0
  6 29  1  0
  8 30  1  0
 12 31  1  0
 12 32  1  0
 12 33  1  0
M  END
>  <filename_input>  (24) 
6YYO_Q1K_docked.sdf

>  <pdb_id>  (24) 
6YYO_Q1K

>  <pose_rank>  (24) 
23

>  <num_atoms_heavy>  (24) 
19

>  <num_torsions>  (24) 
1

>  <pose>  (24) 
[13.232401260114614, 21.714035249601096, 22.346571166277663, -2.4533538757682165, -0.3952371400674173, -2.1737205911674664, 1.9114445240028552]

>  <energy>  (24) 
-496.07584997480353

>  <inter_energy>  (24) 
-487.82392562116945

>  <intra_energy>  (24) 
0.0

>  <rmsd>  (24) 
7.15812

>  <sdf_rank>  (24) 
0

$$$$

     RDKit          3D

 33 35  0  0  0  0  0  0  0  0999 V2000
   14.7306   17.2431   22.1867 C   0  0  0  0  0  0  0  0  0  0  0  0
   11.7949   21.1148   22.9915 C   0  0  0  0  0  0  0  0  0  0  0  0
   11.6985   19.3182   24.5855 C   0  0  0  0  0  0  0  0  0  0  0  0
   13.1272   20.6423   22.5134 C   0  0  0  0  0  0  0  0  0  0  0  0
   12.9941   18.7526   23.9883 C   0  0  0  0  0  0  0  0  0  0  0  0
   15.7519   16.6556   21.4567 C   0  0  0  0  0  0  0  0  0  0  0  0
   14.2658   18.5391   21.9020 C   0  0  0  0  0  0  0  0  0  0  0  0
   16.3568   19.2420   19.2637 C   0  0  0  0  0  0  0  0  0  0  0  0
   10.3634   20.5947   26.2854 O   0  0  0  0  0  0  0  0  0  0  0  0
   10.7683   21.6195   25.3927 S   0  0  1  0  0  0  0  0  0  0  0  0
    9.9118   22.2507   24.4907 O   0  0  0  0  0  0  0  0  0  0  0  0
   11.7308   22.7371   26.4083 C   0  0  0  0  0  0  0  0  0  0  0  0
   11.7513   20.7894   24.4587 N   0  0  0  0  0  0  0  0  0  0  0  0
   13.2614   19.2137   22.6055 N   0  0  0  0  0  0  0  0  0  0  0  0
   14.8086   19.3255   20.8989 N   0  0  0  0  0  0  0  0  0  0  0  0
   16.2247   17.4993   20.4893 C   0  0  0  0  0  0  0  0  0  0  0  0
   17.2296   17.2350   19.6783 N   0  0  0  0  0  0  0  0  0  0  0  0
   17.2491   18.2920   18.9039 N   0  0  0  0  0  0  0  0  0  0  0  0
   15.7506   18.7160   20.3257 N   0  0  0  0  0  0  0  0  0  0  0  0
   14.2708   16.6796   23.0119 H   0  0  0  0  0  0  0  0  0  0  0  0
   11.6937   22.1990   22.8358 H   0  0  0  0  0  0  0  0  0  0  0  0
   10.9720   20.6323   22.4437 H   0  0  0  0  0  0  0  0  0  0  0  0
   10.8300   18.9256   24.0363 H   0  0  0  0  0  0  0  0  0  0  0  0
   11.6006   19.0254   25.6412 H   0  0  0  0  0  0  0  0  0  0  0  0
   13.2538   20.9432   21.4629 H   0  0  0  0  0  0  0  0  0  0  0  0
   13.8969   21.0961   23.1550 H   0  0  0  0  0  0  0  0  0  0  0  0
   13.8350   19.0617   24.6265 H   0  0  0  0  0  0  0  0  0  0  0  0
   12.8795   17.6594   23.9470 H   0  0  0  0  0  0  0  0  0  0  0  0
   16.1340   15.6393   21.6330 H   0  0  0  0  0  0  0  0  0  0  0  0
   16.1748   20.2183   18.7908 H   0  0  0  0  0  0  0  0  0  0  0  0
   11.5440   22.5202   27.4705 H   0  0  0  0  0  0  0  0  0  0  0  0
   12.8003   22.6026   26.1892 H   0  0  0  0  0  0  0  0  0  0  0  0
   11.4392   23.7749   26.1892 H   0  0  0  0  0  0  0  0  0  0  0  0
  1  6  2  0
  1  7  1  0
  2  4  1  0
  2 13  1  0
  3  5  1  0
  3 13  1  0
  4 14  1  0
  5 14  1  0
  6 16  1  0
  7 14  1  0
  7 15  2  0
  8 18  2  0
  8 19  1  0
  9 10  2  0
 10 11  2  0
 10 12  1  1
 10 13  1  0
 15 19  1  0
 16 17  2  0
 16 19  1  0
 17 18  1  0
  1 20  1  0
  2 21  1  0
  2 22  1  0
  3 23  1  0
  3 24  1  0
  4 25  1  0
  4 26  1  0
  5 27  1  0
  5 28  1  0
  6 29  1  0
  8 30  1  0
 12 31  1  0
 12 32  1  0
 12 33  1  0
M  END
>  <filename_input>  (25) 
6YYO_Q1K_docked.sdf

>  <pdb_id>  (25) 
6YYO_Q1K

>  <pose_rank>  (25) 
24

>  <num_atoms_heavy>  (25) 
19

>  <num_torsions>  (25) 
1

>  <pose>  (25) 
[14.730589488223067, 17.24310054407602, 22.186656824600057, -0.04668867720095605, 0.02092638601135841, 0.06411286850156633, -2.8358347995738677]

>  <energy>  (25) 
-583.9980370675186

>  <inter_energy>  (25) 
-578.4635956976784

>  <intra_energy>  (25) 
0.0

>  <rmsd>  (25) 
0.902256

>  <sdf_rank>  (25) 
0

$$$$

     RDKit          3D

 33 35  0  0  0  0  0  0  0  0999 V2000
   14.6780   17.4620   22.1400 C   0  0  0  0  0  0  0  0  0  0  0  0
   11.9770   21.4740   23.0700 C   0  0  0  0  0  0  0  0  0  0  0  0
   11.7310   19.6160   24.5750 C   0  0  0  0  0  0  0  0  0  0  0  0
   13.2870   20.9390   22.5960 C   0  0  0  0  0  0  0  0  0  0  0  0
   13.0010   18.9960   23.9770 C   0  0  0  0  0  0  0  0  0  0  0  0
   15.6760   16.8440   21.4030 C   0  0  0  0  0  0  0  0  0  0  0  0
   14.3030   18.7970   21.9080 C   0  0  0  0  0  0  0  0  0  0  0  0
   16.4930   19.4840   19.3470 C   0  0  0  0  0  0  0  0  0  0  0  0
   11.4390   23.2330   25.2210 O   0  0  0  0  0  0  0  0  0  0  0  0
   10.9310   21.9330   25.4720 S   0  0  1  0  0  0  0  0  0  0  0  0
   11.0310   21.2810   26.7010 O   0  0  0  0  0  0  0  0  0  0  0  0
    9.2800   21.9610   24.7790 C   0  0  0  0  0  0  0  0  0  0  0  0
   11.8800   21.0850   24.5190 N   0  0  0  0  0  0  0  0  0  0  0  0
   13.3280   19.5020   22.6230 N   0  0  0  0  0  0  0  0  0  0  0  0
   14.9170   19.5920   20.9540 N   0  0  0  0  0  0  0  0  0  0  0  0
   16.2230   17.6990   20.4860 C   0  0  0  0  0  0  0  0  0  0  0  0
   17.2270   17.4080   19.6830 N   0  0  0  0  0  0  0  0  0  0  0  0
   17.3310   18.4960   18.9600 N   0  0  0  0  0  0  0  0  0  0  0  0
   15.8310   18.9500   20.3710 N   0  0  0  0  0  0  0  0  0  0  0  0
   14.1649   16.8920   22.9286 H   0  0  0  0  0  0  0  0  0  0  0  0
   11.9485   22.5685   22.9638 H   0  0  0  0  0  0  0  0  0  0  0  0
   11.1376   21.0713   22.4841 H   0  0  0  0  0  0  0  0  0  0  0  0
   10.8518   19.3059   23.9911 H   0  0  0  0  0  0  0  0  0  0  0  0
   11.5910   19.2819   25.6136 H   0  0  0  0  0  0  0  0  0  0  0  0
   13.4560   21.2790   21.5636 H   0  0  0  0  0  0  0  0  0  0  0  0
   14.0694   21.3122   23.2732 H   0  0  0  0  0  0  0  0  0  0  0  0
   13.8454   19.2205   24.6453 H   0  0  0  0  0  0  0  0  0  0  0  0
   12.8182   17.9155   23.8819 H   0  0  0  0  0  0  0  0  0  0  0  0
   15.9887   15.7981   21.5384 H   0  0  0  0  0  0  0  0  0  0  0  0
   16.3841   20.4908   18.9174 H   0  0  0  0  0  0  0  0  0  0  0  0
    8.5407   21.9735   25.5934 H   0  0  0  0  0  0  0  0  0  0  0  0
    9.1578   22.8613   24.1590 H   0  0  0  0  0  0  0  0  0  0  0  0
    9.1274   21.0653   24.1590 H   0  0  0  0  0  0  0  0  0  0  0  0
  1  6  2  0
  1  7  1  0
  2  4  1  0
  2 13  1  0
  3  5  1  0
  3 13  1  0
  4 14  1  0
  5 14  1  0
  6 16  1  0
  7 14  1  0
  7 15  2  0
  8 18  2  0
  8 19  1  0
  9 10  2  0
 10 11  2  0
 10 12  1  6
 10 13  1  0
 15 19  1  0
 16 17  2  0
 16 19  1  0
 17 18  1  0
  1 20  1  0
  2 21  1  0
  2 22  1  0
  3 23  1  0
  3 24  1  0
  4 25  1  0
  4 26  1  0
  5 27  1  0
  5 28  1  0
  6 29  1  0
  8 30  1  0
 12 31  1  0
 12 32  1  0
 12 33  1  0
M  END
>  <filename_input>  (26) 
6YYO_Q1K_docked.sdf

>  <pdb_id>  (26) 
6YYO_Q1K

>  <pose_rank>  (26) 
25

>  <num_atoms_heavy>  (26) 
19

>  <num_torsions>  (26) 
1

>  <pose>  (26) 
[14.678, 17.462, 22.14, 1e-06, 1e-06, 1e-06, 0.0]

>  <energy>  (26) 
-622.4568748320229

>  <inter_energy>  (26) 
-620.1097462125721

>  <intra_energy>  (26) 
0.0

>  <rmsd>  (26) 
0.0

>  <sdf_rank>  (26) 
0

$$$$
