
     RDKit          3D

 13 13  0  0  0  0  0  0  0  0999 V2000
   36.0188   11.0152   55.6682 N   0  0  0  0  0  0  0  0  0  0  0  0
   35.5013   11.9616   55.3261 C   0  0  0  0  0  0  0  0  0  0  0  0
   34.8028   13.2196   54.8783 C   0  0  0  0  0  0  0  0  0  0  0  0
   34.7237   14.2873   55.7529 C   0  0  0  0  0  0  0  0  0  0  0  0
   34.0975   15.4033   55.3630 N   0  0  0  0  0  0  0  0  0  0  0  0
   33.5501   15.5114   54.1477 C   0  0  0  0  0  0  0  0  0  0  0  0
   33.6149   14.4852   53.2871 N   0  0  0  0  0  0  0  0  0  0  0  0
   34.2285   13.3411   53.6128 C   0  0  0  0  0  0  0  0  0  0  0  0
   34.2799   12.2979   52.6586 N   0  0  0  0  0  0  0  0  0  0  0  0
   35.1697   14.2201   56.7562 H   0  0  0  0  0  0  0  0  0  0  0  0
   33.0459   16.4438   53.8536 H   0  0  0  0  0  0  0  0  0  0  0  0
   33.8442   12.4240   51.7338 H   0  0  0  0  0  0  0  0  0  0  0  0
   34.7529   11.4124   52.8887 H   0  0  0  0  0  0  0  0  0  0  0  0
  1  2  3  0
  2  3  1  0
  3  4  2  0
  3  8  1  0
  4  5  1  0
  5  6  2  0
  6  7  1  0
  7  8  2  0
  8  9  1  0
  4 10  1  0
  6 11  1  0
  9 12  1  0
  9 13  1  0
M  END
>  <filename_input>  (1) 
6Z0R_Q4H_docked.sdf

>  <pdb_id>  (1) 
6Z0R_Q4H

>  <pose_rank>  (1) 
0

>  <num_atoms_heavy>  (1) 
9

>  <num_torsions>  (1) 
1

>  <pose>  (1) 
[34.802843602565936, 13.21961683241062, 54.87827320228902, -2.451869565657317, -2.6303433357830364, -4.930155411878947, 1.792407804647609]

>  <energy>  (1) 
-506.5905586068736

>  <inter_energy>  (1) 
-486.4913500015189

>  <intra_energy>  (1) 
0.0

>  <rmsd>  (1) 
0.414459

>  <sdf_rank>  (1) 
0

$$$$

     RDKit          3D

 13 13  0  0  0  0  0  0  0  0999 V2000
   35.8070   12.5404   57.4209 N   0  0  0  0  0  0  0  0  0  0  0  0
   35.3947   12.7863   56.3962 C   0  0  0  0  0  0  0  0  0  0  0  0
   34.8564   13.1189   55.0285 C   0  0  0  0  0  0  0  0  0  0  0  0
   34.9571   12.1751   54.0233 C   0  0  0  0  0  0  0  0  0  0  0  0
   34.4881   12.4687   52.8053 N   0  0  0  0  0  0  0  0  0  0  0  0
   33.9220   13.6505   52.5385 C   0  0  0  0  0  0  0  0  0  0  0  0
   33.8181   14.5789   53.5004 N   0  0  0  0  0  0  0  0  0  0  0  0
   34.2650   14.3492   54.7410 C   0  0  0  0  0  0  0  0  0  0  0  0
   34.1141   15.3597   55.7194 N   0  0  0  0  0  0  0  0  0  0  0  0
   35.4167   11.1957   54.2224 H   0  0  0  0  0  0  0  0  0  0  0  0
   33.5410   13.8613   51.5284 H   0  0  0  0  0  0  0  0  0  0  0  0
   33.6722   16.2561   55.4700 H   0  0  0  0  0  0  0  0  0  0  0  0
   34.4462   15.1992   56.6811 H   0  0  0  0  0  0  0  0  0  0  0  0
  1  2  3  0
  2  3  1  0
  3  4  2  0
  3  8  1  0
  4  5  1  0
  5  6  2  0
  6  7  1  0
  7  8  2  0
  8  9  1  0
  4 10  1  0
  6 11  1  0
  9 12  1  0
  9 13  1  0
M  END
>  <filename_input>  (2) 
6Z0R_Q4H_docked.sdf

>  <pdb_id>  (2) 
6Z0R_Q4H

>  <pose_rank>  (2) 
1

>  <num_atoms_heavy>  (2) 
9

>  <num_torsions>  (2) 
1

>  <pose>  (2) 
[34.85638478728924, 13.118868946979278, 55.028479268021485, 1.3265576565025712, -1.948715929455559, 2.313681543188443, 2.1693257112897637]

>  <energy>  (2) 
-480.6535075590011

>  <inter_energy>  (2) 
-462.1043978590303

>  <intra_energy>  (2) 
0.0

>  <rmsd>  (2) 
2.51756

>  <sdf_rank>  (2) 
0

$$$$

     RDKit          3D

 13 13  0  0  0  0  0  0  0  0999 V2000
   35.5207   11.2093   55.7442 N   0  0  0  0  0  0  0  0  0  0  0  0
   35.2085   12.2667   55.4895 C   0  0  0  0  0  0  0  0  0  0  0  0
   34.7817   13.6707   55.1465 C   0  0  0  0  0  0  0  0  0  0  0  0
   34.6913   14.6077   56.1590 C   0  0  0  0  0  0  0  0  0  0  0  0
   34.3049   15.8532   55.8607 N   0  0  0  0  0  0  0  0  0  0  0  0
   34.0079   16.2136   54.6077 C   0  0  0  0  0  0  0  0  0  0  0  0
   34.0874   15.3175   53.6133 N   0  0  0  0  0  0  0  0  0  0  0  0
   34.4693   14.0553   53.8424 C   0  0  0  0  0  0  0  0  0  0  0  0
   34.5505   13.1577   52.7521 N   0  0  0  0  0  0  0  0  0  0  0  0
   34.9339   14.3327   57.1961 H   0  0  0  0  0  0  0  0  0  0  0  0
   33.6977   17.2468   54.3923 H   0  0  0  0  0  0  0  0  0  0  0  0
   34.3118   13.4778   51.8026 H   0  0  0  0  0  0  0  0  0  0  0  0
   34.8483   12.1840   52.9076 H   0  0  0  0  0  0  0  0  0  0  0  0
  1  2  3  0
  2  3  1  0
  3  4  2  0
  3  8  1  0
  4  5  1  0
  5  6  2  0
  6  7  1  0
  7  8  2  0
  8  9  1  0
  4 10  1  0
  6 11  1  0
  9 12  1  0
  9 13  1  0
M  END
>  <filename_input>  (3) 
6Z0R_Q4H_docked.sdf

>  <pdb_id>  (3) 
6Z0R_Q4H

>  <pose_rank>  (3) 
2

>  <num_atoms_heavy>  (3) 
9

>  <num_torsions>  (3) 
1

>  <pose>  (3) 
[34.78171176437286, 13.670710262536286, 55.14647953768092, 5.800778589731474, -2.9852267957035186, 0.17184529948870206, 2.621620406576508]

>  <energy>  (3) 
-395.0379341110009

>  <inter_energy>  (3) 
-389.44270248946

>  <intra_energy>  (3) 
0.0

>  <rmsd>  (3) 
0.540658

>  <sdf_rank>  (3) 
0

$$$$

     RDKit          3D

 13 13  0  0  0  0  0  0  0  0999 V2000
   35.6901   11.5770   55.9161 N   0  0  0  0  0  0  0  0  0  0  0  0
   35.3275   12.5593   55.4872 C   0  0  0  0  0  0  0  0  0  0  0  0
   34.8330   13.8629   54.9151 C   0  0  0  0  0  0  0  0  0  0  0  0
   34.9245   15.0077   55.6847 C   0  0  0  0  0  0  0  0  0  0  0  0
   34.4794   16.1658   55.1843 N   0  0  0  0  0  0  0  0  0  0  0  0
   33.9519   16.2426   53.9579 C   0  0  0  0  0  0  0  0  0  0  0  0
   33.8528   15.1421   53.1982 N   0  0  0  0  0  0  0  0  0  0  0  0
   34.2808   13.9522   53.6371 C   0  0  0  0  0  0  0  0  0  0  0  0
   34.1655   12.8284   52.7857 N   0  0  0  0  0  0  0  0  0  0  0  0
   35.3577   14.9669   56.6950 H   0  0  0  0  0  0  0  0  0  0  0  0
   33.5988   17.2102   53.5716 H   0  0  0  0  0  0  0  0  0  0  0  0
   33.7520   12.9329   51.8481 H   0  0  0  0  0  0  0  0  0  0  0  0
   34.4949   11.9057   53.1034 H   0  0  0  0  0  0  0  0  0  0  0  0
  1  2  3  0
  2  3  1  0
  3  4  2  0
  3  8  1  0
  4  5  1  0
  5  6  2  0
  6  7  1  0
  7  8  2  0
  8  9  1  0
  4 10  1  0
  6 11  1  0
  9 12  1  0
  9 13  1  0
M  END
>  <filename_input>  (4) 
6Z0R_Q4H_docked.sdf

>  <pdb_id>  (4) 
6Z0R_Q4H

>  <pose_rank>  (4) 
3

>  <num_atoms_heavy>  (4) 
9

>  <num_torsions>  (4) 
1

>  <pose>  (4) 
[34.83300871752174, 13.862888546918072, 54.91506430253451, 1.2898558224740309, -5.960378046765496, 1.1489965800522661, 2.6267572630273697]

>  <energy>  (4) 
-431.58158686567845

>  <inter_energy>  (4) 
-421.9817136827982

>  <intra_energy>  (4) 
0.0

>  <rmsd>  (4) 
0.374895

>  <sdf_rank>  (4) 
0

$$$$

     RDKit          3D

 13 13  0  0  0  0  0  0  0  0999 V2000
   34.9500   11.4605   57.0402 N   0  0  0  0  0  0  0  0  0  0  0  0
   34.8774   12.3190   56.3067 C   0  0  0  0  0  0  0  0  0  0  0  0
   34.7684   13.4624   55.3310 C   0  0  0  0  0  0  0  0  0  0  0  0
   35.1242   14.7319   55.7470 C   0  0  0  0  0  0  0  0  0  0  0  0
   35.0213   15.7515   54.8871 N   0  0  0  0  0  0  0  0  0  0  0  0
   34.5864   15.5713   53.6354 C   0  0  0  0  0  0  0  0  0  0  0  0
   34.2345   14.3475   53.2153 N   0  0  0  0  0  0  0  0  0  0  0  0
   34.3152   13.2838   54.0238 C   0  0  0  0  0  0  0  0  0  0  0  0
   33.9455   12.0142   53.5212 N   0  0  0  0  0  0  0  0  0  0  0  0
   35.4870   14.9014   56.7715 H   0  0  0  0  0  0  0  0  0  0  0  0
   34.5172   16.4284   52.9494 H   0  0  0  0  0  0  0  0  0  0  0  0
   33.6153   11.9210   52.5500 H   0  0  0  0  0  0  0  0  0  0  0  0
   34.0067   11.1830   54.1263 H   0  0  0  0  0  0  0  0  0  0  0  0
  1  2  3  0
  2  3  1  0
  3  4  2  0
  3  8  1  0
  4  5  1  0
  5  6  2  0
  6  7  1  0
  7  8  2  0
  8  9  1  0
  4 10  1  0
  6 11  1  0
  9 12  1  0
  9 13  1  0
M  END
>  <filename_input>  (5) 
6Z0R_Q4H_docked.sdf

>  <pdb_id>  (5) 
6Z0R_Q4H

>  <pose_rank>  (5) 
4

>  <num_atoms_heavy>  (5) 
9

>  <num_torsions>  (5) 
1

>  <pose>  (5) 
[34.768401020489186, 13.462401258545622, 55.331006297454195, -4.946558839418218, -0.17584993907552374, -4.520634435012224, 2.411406243813195]

>  <energy>  (5) 
-383.39225651129163

>  <inter_energy>  (5) 
-385.3151082160943

>  <intra_energy>  (5) 
0.0

>  <rmsd>  (5) 
0.770217

>  <sdf_rank>  (5) 
0

$$$$

     RDKit          3D

 13 13  0  0  0  0  0  0  0  0999 V2000
   35.4184   11.1197   55.7907 N   0  0  0  0  0  0  0  0  0  0  0  0
   35.0474   12.1126   55.3946 C   0  0  0  0  0  0  0  0  0  0  0  0
   34.5418   13.4311   54.8683 C   0  0  0  0  0  0  0  0  0  0  0  0
   34.5355   14.5281   55.7095 C   0  0  0  0  0  0  0  0  0  0  0  0
   34.0798   15.6987   55.2494 N   0  0  0  0  0  0  0  0  0  0  0  0
   33.6342   15.8333   53.9958 C   0  0  0  0  0  0  0  0  0  0  0  0
   33.6304   14.7796   53.1665 N   0  0  0  0  0  0  0  0  0  0  0  0
   34.0745   13.5805   53.5624 C   0  0  0  0  0  0  0  0  0  0  0  0
   34.0617   12.5086   52.6393 N   0  0  0  0  0  0  0  0  0  0  0  0
   34.9003   14.4396   56.7435 H   0  0  0  0  0  0  0  0  0  0  0  0
   33.2701   16.8100   53.6443 H   0  0  0  0  0  0  0  0  0  0  0  0
   33.7090   12.6568   51.6829 H   0  0  0  0  0  0  0  0  0  0  0  0
   34.4051   11.5801   52.9235 H   0  0  0  0  0  0  0  0  0  0  0  0
  1  2  3  0
  2  3  1  0
  3  4  2  0
  3  8  1  0
  4  5  1  0
  5  6  2  0
  6  7  1  0
  7  8  2  0
  8  9  1  0
  4 10  1  0
  6 11  1  0
  9 12  1  0
  9 13  1  0
M  END
>  <filename_input>  (6) 
6Z0R_Q4H_docked.sdf

>  <pdb_id>  (6) 
6Z0R_Q4H

>  <pose_rank>  (6) 
5

>  <num_atoms_heavy>  (6) 
9

>  <num_torsions>  (6) 
1

>  <pose>  (6) 
[34.541757500204284, 13.431085815855873, 54.86827958302369, -5.3998358840667295, -0.6679012472307448, -3.03904721274606, 2.3644625066828993]

>  <energy>  (6) 
-442.2396257458432

>  <inter_energy>  (6) 
-440.59593084006264

>  <intra_energy>  (6) 
0.0

>  <rmsd>  (6) 
0.290933

>  <sdf_rank>  (6) 
0

$$$$

     RDKit          3D

 13 13  0  0  0  0  0  0  0  0999 V2000
   36.1506   11.1794   55.4723 N   0  0  0  0  0  0  0  0  0  0  0  0
   35.7062   12.1520   55.1021 C   0  0  0  0  0  0  0  0  0  0  0  0
   35.1030   13.4432   54.6121 C   0  0  0  0  0  0  0  0  0  0  0  0
   35.4686   14.6267   55.2260 C   0  0  0  0  0  0  0  0  0  0  0  0
   34.9297   15.7746   54.8000 N   0  0  0  0  0  0  0  0  0  0  0  0
   34.0496   15.8045   53.7936 C   0  0  0  0  0  0  0  0  0  0  0  0
   33.6813   14.6662   53.1881 N   0  0  0  0  0  0  0  0  0  0  0  0
   34.1838   13.4837   53.5635 C   0  0  0  0  0  0  0  0  0  0  0  0
   33.7708   12.3174   52.8778 N   0  0  0  0  0  0  0  0  0  0  0  0
   36.1931   14.6245   56.0537 H   0  0  0  0  0  0  0  0  0  0  0  0
   33.6270   16.7645   53.4620 H   0  0  0  0  0  0  0  0  0  0  0  0
   33.0898   12.3864   52.1081 H   0  0  0  0  0  0  0  0  0  0  0  0
   34.1510   11.3991   53.1482 H   0  0  0  0  0  0  0  0  0  0  0  0
  1  2  3  0
  2  3  1  0
  3  4  2  0
  3  8  1  0
  4  5  1  0
  5  6  2  0
  6  7  1  0
  7  8  2  0
  8  9  1  0
  4 10  1  0
  6 11  1  0
  9 12  1  0
  9 13  1  0
M  END
>  <filename_input>  (7) 
6Z0R_Q4H_docked.sdf

>  <pdb_id>  (7) 
6Z0R_Q4H

>  <pose_rank>  (7) 
6

>  <num_atoms_heavy>  (7) 
9

>  <num_torsions>  (7) 
1

>  <pose>  (7) 
[35.10300797332021, 13.443157843233868, 54.61206907211436, 1.2712320285645788, -5.672443013289119, 0.879845839179036, 2.6256245773864366]

>  <energy>  (7) 
-449.14392539093836

>  <inter_energy>  (7) 
-450.1347438673442

>  <intra_energy>  (7) 
0.0

>  <rmsd>  (7) 
0.548253

>  <sdf_rank>  (7) 
0

$$$$

     RDKit          3D

 13 13  0  0  0  0  0  0  0  0999 V2000
   36.2069   11.1534   55.3465 N   0  0  0  0  0  0  0  0  0  0  0  0
   35.6094   12.0985   55.1730 C   0  0  0  0  0  0  0  0  0  0  0  0
   34.8032   13.3506   54.9419 C   0  0  0  0  0  0  0  0  0  0  0  0
   34.6200   14.2306   55.9923 C   0  0  0  0  0  0  0  0  0  0  0  0
   33.8982   15.3394   55.7943 N   0  0  0  0  0  0  0  0  0  0  0  0
   33.3534   15.6178   54.6052 C   0  0  0  0  0  0  0  0  0  0  0  0
   33.5184   14.7746   53.5758 N   0  0  0  0  0  0  0  0  0  0  0  0
   34.2307   13.6487   53.7052 C   0  0  0  0  0  0  0  0  0  0  0  0
   34.3847   12.8048   52.5804 N   0  0  0  0  0  0  0  0  0  0  0  0
   35.0619   14.0219   56.9778 H   0  0  0  0  0  0  0  0  0  0  0  0
   32.7689   16.5400   54.4714 H   0  0  0  0  0  0  0  0  0  0  0  0
   33.9471   13.0578   51.6830 H   0  0  0  0  0  0  0  0  0  0  0  0
   34.9344   11.9373   52.6589 H   0  0  0  0  0  0  0  0  0  0  0  0
  1  2  3  0
  2  3  1  0
  3  4  2  0
  3  8  1  0
  4  5  1  0
  5  6  2  0
  6  7  1  0
  7  8  2  0
  8  9  1  0
  4 10  1  0
  6 11  1  0
  9 12  1  0
  9 13  1  0
M  END
>  <filename_input>  (8) 
6Z0R_Q4H_docked.sdf

>  <pdb_id>  (8) 
6Z0R_Q4H

>  <pose_rank>  (8) 
7

>  <num_atoms_heavy>  (8) 
9

>  <num_torsions>  (8) 
1

>  <pose>  (8) 
[34.803183122893124, 13.350584528419507, 54.94194943474982, -4.199687393337003, -0.8617360723616511, -4.0975744208322515, 2.4141101181524047]

>  <energy>  (8) 
-437.1230509385165

>  <inter_energy>  (8) 
-434.9583614021838

>  <intra_energy>  (8) 
0.0

>  <rmsd>  (8) 
0.613848

>  <sdf_rank>  (8) 
0

$$$$

     RDKit          3D

 13 13  0  0  0  0  0  0  0  0999 V2000
   35.9575   11.4727   56.2526 N   0  0  0  0  0  0  0  0  0  0  0  0
   35.4820   12.3464   55.7133 C   0  0  0  0  0  0  0  0  0  0  0  0
   34.8378   13.5042   54.9950 C   0  0  0  0  0  0  0  0  0  0  0  0
   34.8103   14.7411   55.6119 C   0  0  0  0  0  0  0  0  0  0  0  0
   34.2323   15.7700   54.9819 N   0  0  0  0  0  0  0  0  0  0  0  0
   33.6845   15.6312   53.7699 C   0  0  0  0  0  0  0  0  0  0  0  0
   33.6996   14.4384   53.1575 N   0  0  0  0  0  0  0  0  0  0  0  0
   34.2634   13.3684   53.7311 C   0  0  0  0  0  0  0  0  0  0  0  0
   34.2640   12.1391   53.0311 N   0  0  0  0  0  0  0  0  0  0  0  0
   35.2576   14.8775   56.6075 H   0  0  0  0  0  0  0  0  0  0  0  0
   33.2206   16.4970   53.2745 H   0  0  0  0  0  0  0  0  0  0  0  0
   33.8300   12.0770   52.0991 H   0  0  0  0  0  0  0  0  0  0  0  0
   34.6984   11.3062   53.4535 H   0  0  0  0  0  0  0  0  0  0  0  0
  1  2  3  0
  2  3  1  0
  3  4  2  0
  3  8  1  0
  4  5  1  0
  5  6  2  0
  6  7  1  0
  7  8  2  0
  8  9  1  0
  4 10  1  0
  6 11  1  0
  9 12  1  0
  9 13  1  0
M  END
>  <filename_input>  (9) 
6Z0R_Q4H_docked.sdf

>  <pdb_id>  (9) 
6Z0R_Q4H

>  <pose_rank>  (9) 
8

>  <num_atoms_heavy>  (9) 
9

>  <num_torsions>  (9) 
1

>  <pose>  (9) 
[34.83784024937637, 13.504194638260914, 54.995048039864095, 4.566196845675818, -2.8420874332741053, -2.8486598063230275, 2.626655228468354]

>  <energy>  (9) 
-464.45233515083754

>  <inter_energy>  (9) 
-459.2332616561154

>  <intra_energy>  (9) 
0.0

>  <rmsd>  (9) 
0.348663

>  <sdf_rank>  (9) 
0

$$$$

     RDKit          3D

 13 13  0  0  0  0  0  0  0  0999 V2000
   35.5882   11.2566   55.6928 N   0  0  0  0  0  0  0  0  0  0  0  0
   35.1594   12.2415   55.3373 C   0  0  0  0  0  0  0  0  0  0  0  0
   34.5770   13.5495   54.8670 C   0  0  0  0  0  0  0  0  0  0  0  0
   34.5712   14.6278   55.7322 C   0  0  0  0  0  0  0  0  0  0  0  0
   34.0478   15.7886   55.3222 N   0  0  0  0  0  0  0  0  0  0  0  0
   33.5340   15.9313   54.0959 C   0  0  0  0  0  0  0  0  0  0  0  0
   33.5286   14.8956   53.2441 N   0  0  0  0  0  0  0  0  0  0  0  0
   34.0383   13.7072   53.5899 C   0  0  0  0  0  0  0  0  0  0  0  0
   34.0199   12.6550   52.6446 N   0  0  0  0  0  0  0  0  0  0  0  0
   34.9915   14.5325   56.7443 H   0  0  0  0  0  0  0  0  0  0  0  0
   33.1150   16.8998   53.7853 H   0  0  0  0  0  0  0  0  0  0  0  0
   33.6135   12.8087   51.7107 H   0  0  0  0  0  0  0  0  0  0  0  0
   34.4129   11.7351   52.8901 H   0  0  0  0  0  0  0  0  0  0  0  0
  1  2  3  0
  2  3  1  0
  3  4  2  0
  3  8  1  0
  4  5  1  0
  5  6  2  0
  6  7  1  0
  7  8  2  0
  8  9  1  0
  4 10  1  0
  6 11  1  0
  9 12  1  0
  9 13  1  0
M  END
>  <filename_input>  (10) 
6Z0R_Q4H_docked.sdf

>  <pdb_id>  (10) 
6Z0R_Q4H

>  <pose_rank>  (10) 
9

>  <num_atoms_heavy>  (10) 
9

>  <num_torsions>  (10) 
1

>  <pose>  (10) 
[34.57697741637602, 13.549479952697396, 54.86704817861101, -3.808353003057168, -3.2504900067588247, -3.6149601900638286, 2.234349676160328]

>  <energy>  (10) 
-439.6638232065739

>  <inter_energy>  (10) 
-446.4281267622773

>  <intra_energy>  (10) 
0.0

>  <rmsd>  (10) 
0.329234

>  <sdf_rank>  (10) 
0

$$$$

     RDKit          3D

 13 13  0  0  0  0  0  0  0  0999 V2000
   35.8144   11.7314   56.3046 N   0  0  0  0  0  0  0  0  0  0  0  0
   35.4520   12.7159   55.8804 C   0  0  0  0  0  0  0  0  0  0  0  0
   34.9577   14.0230   55.3162 C   0  0  0  0  0  0  0  0  0  0  0  0
   34.9593   15.1434   56.1261 C   0  0  0  0  0  0  0  0  0  0  0  0
   34.5137   16.3041   55.6324 N   0  0  0  0  0  0  0  0  0  0  0  0
   34.0707   16.4068   54.3748 C   0  0  0  0  0  0  0  0  0  0  0  0
   34.0595   15.3300   53.5756 N   0  0  0  0  0  0  0  0  0  0  0  0
   34.4933   14.1391   54.0059 C   0  0  0  0  0  0  0  0  0  0  0  0
   34.4731   13.0417   53.1135 N   0  0  0  0  0  0  0  0  0  0  0  0
   35.3220   15.0813   57.1627 H   0  0  0  0  0  0  0  0  0  0  0  0
   33.7150   17.3760   53.9952 H   0  0  0  0  0  0  0  0  0  0  0  0
   34.1228   13.1655   52.1528 H   0  0  0  0  0  0  0  0  0  0  0  0
   34.8085   12.1188   53.4244 H   0  0  0  0  0  0  0  0  0  0  0  0
  1  2  3  0
  2  3  1  0
  3  4  2  0
  3  8  1  0
  4  5  1  0
  5  6  2  0
  6  7  1  0
  7  8  2  0
  8  9  1  0
  4 10  1  0
  6 11  1  0
  9 12  1  0
  9 13  1  0
M  END
>  <filename_input>  (11) 
6Z0R_Q4H_docked.sdf

>  <pdb_id>  (11) 
6Z0R_Q4H

>  <pose_rank>  (11) 
10

>  <num_atoms_heavy>  (11) 
9

>  <num_torsions>  (11) 
1

>  <pose>  (11) 
[34.95772213510148, 14.022951333841783, 55.316245460788856, -4.237991496061851, -1.1305850804190585, -4.466020790002266, 2.4126191826328984]

>  <energy>  (11) 
-361.31608833038194

>  <inter_energy>  (11) 
-362.47858487663535

>  <intra_energy>  (11) 
0.0

>  <rmsd>  (11) 
0.676677

>  <sdf_rank>  (11) 
0

$$$$

     RDKit          3D

 13 13  0  0  0  0  0  0  0  0999 V2000
   35.5541   11.0083   55.7956 N   0  0  0  0  0  0  0  0  0  0  0  0
   35.2028   11.9778   55.3298 C   0  0  0  0  0  0  0  0  0  0  0  0
   34.7237   13.2643   54.7081 C   0  0  0  0  0  0  0  0  0  0  0  0
   34.7565   14.4231   55.4612 C   0  0  0  0  0  0  0  0  0  0  0  0
   34.3246   15.5660   54.9165 N   0  0  0  0  0  0  0  0  0  0  0  0
   33.8656   15.6146   53.6613 C   0  0  0  0  0  0  0  0  0  0  0  0
   33.8240   14.5000   52.9169 N   0  0  0  0  0  0  0  0  0  0  0  0
   34.2428   13.3241   53.3999 C   0  0  0  0  0  0  0  0  0  0  0  0
   34.1905   12.1845   52.5634 N   0  0  0  0  0  0  0  0  0  0  0  0
   35.1329   14.4056   56.4947 H   0  0  0  0  0  0  0  0  0  0  0  0
   33.5217   16.5702   53.2389 H   0  0  0  0  0  0  0  0  0  0  0  0
   33.8289   12.2671   51.6025 H   0  0  0  0  0  0  0  0  0  0  0  0
   34.5140   11.2721   52.9152 H   0  0  0  0  0  0  0  0  0  0  0  0
  1  2  3  0
  2  3  1  0
  3  4  2  0
  3  8  1  0
  4  5  1  0
  5  6  2  0
  6  7  1  0
  7  8  2  0
  8  9  1  0
  4 10  1  0
  6 11  1  0
  9 12  1  0
  9 13  1  0
M  END
>  <filename_input>  (12) 
6Z0R_Q4H_docked.sdf

>  <pdb_id>  (12) 
6Z0R_Q4H

>  <pose_rank>  (12) 
11

>  <num_atoms_heavy>  (12) 
9

>  <num_torsions>  (12) 
1

>  <pose>  (12) 
[34.72368133023119, 13.264287383446536, 54.70805814966727, 5.476433507409795, -2.99151489844716, 0.2436870679848031, 2.625061611580379]

>  <energy>  (12) 
-461.90550690717373

>  <inter_energy>  (12) 
-463.2155674835524

>  <intra_energy>  (12) 
0.0

>  <rmsd>  (12) 
0.350543

>  <sdf_rank>  (12) 
0

$$$$

     RDKit          3D

 13 13  0  0  0  0  0  0  0  0999 V2000
   36.3083   11.1972   55.5011 N   0  0  0  0  0  0  0  0  0  0  0  0
   35.7590   12.1048   55.1076 C   0  0  0  0  0  0  0  0  0  0  0  0
   35.0169   13.3093   54.5884 C   0  0  0  0  0  0  0  0  0  0  0  0
   35.3779   14.5638   55.0435 C   0  0  0  0  0  0  0  0  0  0  0  0
   34.7166   15.6354   54.5918 N   0  0  0  0  0  0  0  0  0  0  0  0
   33.7184   15.5222   53.7091 C   0  0  0  0  0  0  0  0  0  0  0  0
   33.3529   14.3132   53.2586 N   0  0  0  0  0  0  0  0  0  0  0  0
   33.9741   13.2005   53.6681 C   0  0  0  0  0  0  0  0  0  0  0  0
   33.5561   11.9537   53.1467 N   0  0  0  0  0  0  0  0  0  0  0  0
   36.1979   14.6793   55.7675 H   0  0  0  0  0  0  0  0  0  0  0  0
   33.1964   16.4221   53.3521 H   0  0  0  0  0  0  0  0  0  0  0  0
   32.7820   11.9125   52.4685 H   0  0  0  0  0  0  0  0  0  0  0  0
   34.0260   11.0871   53.4452 H   0  0  0  0  0  0  0  0  0  0  0  0
  1  2  3  0
  2  3  1  0
  3  4  2  0
  3  8  1  0
  4  5  1  0
  5  6  2  0
  6  7  1  0
  7  8  2  0
  8  9  1  0
  4 10  1  0
  6 11  1  0
  9 12  1  0
  9 13  1  0
M  END
>  <filename_input>  (13) 
6Z0R_Q4H_docked.sdf

>  <pdb_id>  (13) 
6Z0R_Q4H

>  <pose_rank>  (13) 
12

>  <num_atoms_heavy>  (13) 
9

>  <num_torsions>  (13) 
1

>  <pose>  (13) 
[35.0168580163657, 13.309313521112342, 54.58837284336964, 2.036186778102039, -5.360636866584865, 0.1459744582786491, 2.6277879918672773]

>  <energy>  (13) 
-451.0407028926142

>  <inter_energy>  (13) 
-444.2902048667471

>  <intra_energy>  (13) 
0.0

>  <rmsd>  (13) 
0.722663

>  <sdf_rank>  (13) 
0

$$$$

     RDKit          3D

 13 13  0  0  0  0  0  0  0  0999 V2000
   35.2967   12.2628   57.0704 N   0  0  0  0  0  0  0  0  0  0  0  0
   35.0481   13.2993   56.6907 C   0  0  0  0  0  0  0  0  0  0  0  0
   34.7264   14.6844   56.1915 C   0  0  0  0  0  0  0  0  0  0  0  0
   34.5348   14.8783   54.8362 C   0  0  0  0  0  0  0  0  0  0  0  0
   34.2572   16.1075   54.3872 N   0  0  0  0  0  0  0  0  0  0  0  0
   34.1575   17.1509   55.2177 C   0  0  0  0  0  0  0  0  0  0  0  0
   34.3427   16.9821   56.5350 N   0  0  0  0  0  0  0  0  0  0  0  0
   34.6211   15.7786   57.0504 C   0  0  0  0  0  0  0  0  0  0  0  0
   34.7906   15.6574   58.4496 N   0  0  0  0  0  0  0  0  0  0  0  0
   34.6096   14.0330   54.1362 H   0  0  0  0  0  0  0  0  0  0  0  0
   33.9231   18.1492   54.8196 H   0  0  0  0  0  0  0  0  0  0  0  0
   34.7054   16.4881   59.0526 H   0  0  0  0  0  0  0  0  0  0  0  0
   34.9992   14.7384   58.8654 H   0  0  0  0  0  0  0  0  0  0  0  0
  1  2  3  0
  2  3  1  0
  3  4  2  0
  3  8  1  0
  4  5  1  0
  5  6  2  0
  6  7  1  0
  7  8  2  0
  8  9  1  0
  4 10  1  0
  6 11  1  0
  9 12  1  0
  9 13  1  0
M  END
>  <filename_input>  (14) 
6Z0R_Q4H_docked.sdf

>  <pdb_id>  (14) 
6Z0R_Q4H

>  <pose_rank>  (14) 
13

>  <num_atoms_heavy>  (14) 
9

>  <num_torsions>  (14) 
1

>  <pose>  (14) 
[34.726409497449694, 14.68439940813727, 56.19150928061525, 0.8625911420006227, -2.964611675846022, 1.2127286744037264, 2.845365891255862]

>  <energy>  (14) 
-238.5623244264603

>  <inter_energy>  (14) 
-235.70922943859307

>  <intra_energy>  (14) 
0.0

>  <rmsd>  (14) 
3.14301

>  <sdf_rank>  (14) 
0

$$$$

     RDKit          3D

 13 13  0  0  0  0  0  0  0  0999 V2000
   35.4152   11.0280   55.8071 N   0  0  0  0  0  0  0  0  0  0  0  0
   35.0749   12.0128   55.3657 C   0  0  0  0  0  0  0  0  0  0  0  0
   34.6105   13.3195   54.7759 C   0  0  0  0  0  0  0  0  0  0  0  0
   34.6119   14.4498   55.5720 C   0  0  0  0  0  0  0  0  0  0  0  0
   34.1927   15.6104   55.0554 N   0  0  0  0  0  0  0  0  0  0  0  0
   33.7764   15.7036   53.7880 C   0  0  0  0  0  0  0  0  0  0  0  0
   33.7657   14.6173   53.0020 N   0  0  0  0  0  0  0  0  0  0  0  0
   34.1740   13.4259   53.4553 C   0  0  0  0  0  0  0  0  0  0  0  0
   34.1559   12.3179   52.5760 N   0  0  0  0  0  0  0  0  0  0  0  0
   34.9530   14.3955   56.6164 H   0  0  0  0  0  0  0  0  0  0  0  0
   33.4421   16.6730   53.3897 H   0  0  0  0  0  0  0  0  0  0  0  0
   33.8266   12.4347   51.6070 H   0  0  0  0  0  0  0  0  0  0  0  0
   34.4719   11.3943   52.9047 H   0  0  0  0  0  0  0  0  0  0  0  0
  1  2  3  0
  2  3  1  0
  3  4  2  0
  3  8  1  0
  4  5  1  0
  5  6  2  0
  6  7  1  0
  7  8  2  0
  8  9  1  0
  4 10  1  0
  6 11  1  0
  9 12  1  0
  9 13  1  0
M  END
>  <filename_input>  (15) 
6Z0R_Q4H_docked.sdf

>  <pdb_id>  (15) 
6Z0R_Q4H

>  <pose_rank>  (15) 
14

>  <num_atoms_heavy>  (15) 
9

>  <num_torsions>  (15) 
1

>  <pose>  (15) 
[34.6105113467612, 13.31952967418325, 54.77592071649714, 1.3429640026670344, -6.060271326696522, 1.074169313351198, 2.6290629290382816]

>  <energy>  (15) 
-454.9460619121462

>  <inter_energy>  (15) 
-460.12941402299936

>  <intra_energy>  (15) 
0.0

>  <rmsd>  (15) 
0.299722

>  <sdf_rank>  (15) 
0

$$$$

     RDKit          3D

 13 13  0  0  0  0  0  0  0  0999 V2000
   35.6959   11.2180   56.0304 N   0  0  0  0  0  0  0  0  0  0  0  0
   35.3230   12.1780   55.5616 C   0  0  0  0  0  0  0  0  0  0  0  0
   34.8150   13.4516   54.9364 C   0  0  0  0  0  0  0  0  0  0  0  0
   34.8821   14.6257   55.6633 C   0  0  0  0  0  0  0  0  0  0  0  0
   34.4249   15.7574   55.1158 N   0  0  0  0  0  0  0  0  0  0  0  0
   33.9083   15.7803   53.8825 C   0  0  0  0  0  0  0  0  0  0  0  0
   33.8328   14.6508   53.1638 N   0  0  0  0  0  0  0  0  0  0  0  0
   34.2740   13.4848   53.6510 C   0  0  0  0  0  0  0  0  0  0  0  0
   34.1835   12.3282   52.8414 N   0  0  0  0  0  0  0  0  0  0  0  0
   35.3060   14.6292   56.6783 H   0  0  0  0  0  0  0  0  0  0  0  0
   33.5448   16.7273   53.4570 H   0  0  0  0  0  0  0  0  0  0  0  0
   33.7777   12.3913   51.8968 H   0  0  0  0  0  0  0  0  0  0  0  0
   34.5233   11.4231   53.1965 H   0  0  0  0  0  0  0  0  0  0  0  0
  1  2  3  0
  2  3  1  0
  3  4  2  0
  3  8  1  0
  4  5  1  0
  5  6  2  0
  6  7  1  0
  7  8  2  0
  8  9  1  0
  4 10  1  0
  6 11  1  0
  9 12  1  0
  9 13  1  0
M  END
>  <filename_input>  (16) 
6Z0R_Q4H_docked.sdf

>  <pdb_id>  (16) 
6Z0R_Q4H

>  <pose_rank>  (16) 
15

>  <num_atoms_heavy>  (16) 
9

>  <num_torsions>  (16) 
1

>  <pose>  (16) 
[34.814969813120946, 13.451619536480884, 54.93639916300569, 3.9778941864849213, -4.753771620602104, 0.06816393208850101, 2.6251635804530244]

>  <energy>  (16) 
-459.3891153093906

>  <inter_energy>  (16) 
-457.11532651821716

>  <intra_energy>  (16) 
0.0

>  <rmsd>  (16) 
0.127799

>  <sdf_rank>  (16) 
0

$$$$

     RDKit          3D

 13 13  0  0  0  0  0  0  0  0999 V2000
   35.8564   11.1102   55.3747 N   0  0  0  0  0  0  0  0  0  0  0  0
   35.4778   12.1211   55.0354 C   0  0  0  0  0  0  0  0  0  0  0  0
   34.9626   13.4624   54.5808 C   0  0  0  0  0  0  0  0  0  0  0  0
   34.9013   14.4988   55.4937 C   0  0  0  0  0  0  0  0  0  0  0  0
   34.4370   15.6890   55.0970 N   0  0  0  0  0  0  0  0  0  0  0  0
   34.0346   15.9005   53.8394 C   0  0  0  0  0  0  0  0  0  0  0  0
   34.0845   14.9063   52.9410 N   0  0  0  0  0  0  0  0  0  0  0  0
   34.5402   13.6918   53.2712 C   0  0  0  0  0  0  0  0  0  0  0  0
   34.5850   12.6857   52.2778 N   0  0  0  0  0  0  0  0  0  0  0  0
   35.2300   14.3467   56.5324 H   0  0  0  0  0  0  0  0  0  0  0  0
   33.6621   16.8917   53.5414 H   0  0  0  0  0  0  0  0  0  0  0  0
   34.2644   12.8922   51.3210 H   0  0  0  0  0  0  0  0  0  0  0  0
   34.9382   11.7468   52.5112 H   0  0  0  0  0  0  0  0  0  0  0  0
  1  2  3  0
  2  3  1  0
  3  4  2  0
  3  8  1  0
  4  5  1  0
  5  6  2  0
  6  7  1  0
  7  8  2  0
  8  9  1  0
  4 10  1  0
  6 11  1  0
  9 12  1  0
  9 13  1  0
M  END
>  <filename_input>  (17) 
6Z0R_Q4H_docked.sdf

>  <pdb_id>  (17) 
6Z0R_Q4H

>  <pose_rank>  (17) 
16

>  <num_atoms_heavy>  (17) 
9

>  <num_torsions>  (17) 
1

>  <pose>  (17) 
[34.962646317159084, 13.462356649831895, 54.58082156265794, 5.714776332734412, -1.6471909122814519, 2.3874063127152687, 2.6232584415581015]

>  <energy>  (17) 
-397.87981583187525

>  <inter_energy>  (17) 
-396.4961349036261

>  <intra_energy>  (17) 
0.0

>  <rmsd>  (17) 
0.416049

>  <sdf_rank>  (17) 
0

$$$$

     RDKit          3D

 13 13  0  0  0  0  0  0  0  0999 V2000
   35.1873   11.3243   55.9971 N   0  0  0  0  0  0  0  0  0  0  0  0
   34.9197   12.3173   55.5252 C   0  0  0  0  0  0  0  0  0  0  0  0
   34.5518   13.6355   54.8943 C   0  0  0  0  0  0  0  0  0  0  0  0
   34.6581   14.7896   55.6479 C   0  0  0  0  0  0  0  0  0  0  0  0
   34.3249   15.9612   55.0949 N   0  0  0  0  0  0  0  0  0  0  0  0
   33.8952   16.0426   53.8312 C   0  0  0  0  0  0  0  0  0  0  0  0
   33.7834   14.9334   53.0860 N   0  0  0  0  0  0  0  0  0  0  0  0
   34.1022   13.7297   53.5771 C   0  0  0  0  0  0  0  0  0  0  0  0
   33.9795   12.5962   52.7398 N   0  0  0  0  0  0  0  0  0  0  0  0
   35.0120   14.7451   56.6885 H   0  0  0  0  0  0  0  0  0  0  0  0
   33.6332   17.0211   53.4022 H   0  0  0  0  0  0  0  0  0  0  0  0
   33.6438   12.7046   51.7721 H   0  0  0  0  0  0  0  0  0  0  0  0
   34.2258   11.6623   53.0978 H   0  0  0  0  0  0  0  0  0  0  0  0
  1  2  3  0
  2  3  1  0
  3  4  2  0
  3  8  1  0
  4  5  1  0
  5  6  2  0
  6  7  1  0
  7  8  2  0
  8  9  1  0
  4 10  1  0
  6 11  1  0
  9 12  1  0
  9 13  1  0
M  END
>  <filename_input>  (18) 
6Z0R_Q4H_docked.sdf

>  <pdb_id>  (18) 
6Z0R_Q4H

>  <pose_rank>  (18) 
17

>  <num_atoms_heavy>  (18) 
9

>  <num_torsions>  (18) 
1

>  <pose>  (18) 
[34.551786089066965, 13.63550918615187, 54.89429654745617, -12.449247675774993, 0.08803119688246648, -28.936218523559365, 2.704835303617643]

>  <energy>  (18) 
-417.9374328192082

>  <inter_energy>  (18) 
-422.25093420002923

>  <intra_energy>  (18) 
0.0

>  <rmsd>  (18) 
0.301986

>  <sdf_rank>  (18) 
0

$$$$

     RDKit          3D

 13 13  0  0  0  0  0  0  0  0999 V2000
   35.6153   11.6940   56.1917 N   0  0  0  0  0  0  0  0  0  0  0  0
   35.2691   12.6027   55.6132 C   0  0  0  0  0  0  0  0  0  0  0  0
   34.7980   13.8067   54.8389 C   0  0  0  0  0  0  0  0  0  0  0  0
   34.5085   14.9712   55.5255 C   0  0  0  0  0  0  0  0  0  0  0  0
   34.0821   16.0401   54.8435 N   0  0  0  0  0  0  0  0  0  0  0  0
   33.9328   16.0099   53.5149 C   0  0  0  0  0  0  0  0  0  0  0  0
   34.2065   14.8884   52.8327 N   0  0  0  0  0  0  0  0  0  0  0  0
   34.6389   13.7840   53.4532 C   0  0  0  0  0  0  0  0  0  0  0  0
   34.9272   12.6349   52.6802 N   0  0  0  0  0  0  0  0  0  0  0  0
   34.6271   15.0181   56.6181 H   0  0  0  0  0  0  0  0  0  0  0  0
   33.5851   16.9065   52.9809 H   0  0  0  0  0  0  0  0  0  0  0  0
   34.7975   12.6556   51.6586 H   0  0  0  0  0  0  0  0  0  0  0  0
   35.2668   11.7775   53.1390 H   0  0  0  0  0  0  0  0  0  0  0  0
  1  2  3  0
  2  3  1  0
  3  4  2  0
  3  8  1  0
  4  5  1  0
  5  6  2  0
  6  7  1  0
  7  8  2  0
  8  9  1  0
  4 10  1  0
  6 11  1  0
  9 12  1  0
  9 13  1  0
M  END
>  <filename_input>  (19) 
6Z0R_Q4H_docked.sdf

>  <pdb_id>  (19) 
6Z0R_Q4H

>  <pose_rank>  (19) 
18

>  <num_atoms_heavy>  (19) 
9

>  <num_torsions>  (19) 
1

>  <pose>  (19) 
[34.79802867882611, 13.806707210351659, 54.838881201040465, -1.6164121769330577, -5.566617349846062, 3.040170178822139, 2.6282319549166036]

>  <energy>  (19) 
-386.37904533591814

>  <inter_energy>  (19) 
-382.6027106744766

>  <intra_energy>  (19) 
0.0

>  <rmsd>  (19) 
0.481328

>  <sdf_rank>  (19) 
0

$$$$

     RDKit          3D

 13 13  0  0  0  0  0  0  0  0999 V2000
   43.6833    4.2678   61.4428 N   0  0  0  0  0  0  0  0  0  0  0  0
   43.4030    4.6458   60.4138 C   0  0  0  0  0  0  0  0  0  0  0  0
   43.0362    5.1596   59.0453 C   0  0  0  0  0  0  0  0  0  0  0  0
   43.9267    5.9809   58.3793 C   0  0  0  0  0  0  0  0  0  0  0  0
   43.6021    6.4462   57.1678 N   0  0  0  0  0  0  0  0  0  0  0  0
   42.4398    6.1333   56.5853 C   0  0  0  0  0  0  0  0  0  0  0  0
   41.5627    5.3400   57.2175 N   0  0  0  0  0  0  0  0  0  0  0  0
   41.8258    4.8389   58.4304 C   0  0  0  0  0  0  0  0  0  0  0  0
   40.8700    3.9946   59.0426 N   0  0  0  0  0  0  0  0  0  0  0  0
   44.8895    6.2483   58.8394 H   0  0  0  0  0  0  0  0  0  0  0  0
   42.2027    6.5272   55.5859 H   0  0  0  0  0  0  0  0  0  0  0  0
   39.9869    3.7800   58.5579 H   0  0  0  0  0  0  0  0  0  0  0  0
   41.0572    3.5944   59.9730 H   0  0  0  0  0  0  0  0  0  0  0  0
  1  2  3  0
  2  3  1  0
  3  4  2  0
  3  8  1  0
  4  5  1  0
  5  6  2  0
  6  7  1  0
  7  8  2  0
  8  9  1  0
  4 10  1  0
  6 11  1  0
  9 12  1  0
  9 13  1  0
M  END
>  <filename_input>  (20) 
6Z0R_Q4H_docked.sdf

>  <pdb_id>  (20) 
6Z0R_Q4H

>  <pose_rank>  (20) 
19

>  <num_atoms_heavy>  (20) 
9

>  <num_torsions>  (20) 
1

>  <pose>  (20) 
[43.0362286704778, 5.159598860545095, 59.04531870493894, 3.611610021991906, -2.1081925589457273, 2.6143491446645637, 1.1093426239518305]

>  <energy>  (20) 
-128.02928953545955

>  <inter_energy>  (20) 
-109.47342833478918

>  <intra_energy>  (20) 
0.0

>  <rmsd>  (20) 
12.6216

>  <sdf_rank>  (20) 
0

$$$$

     RDKit          3D

 13 13  0  0  0  0  0  0  0  0999 V2000
   43.8972   16.0714   45.3481 N   0  0  0  0  0  0  0  0  0  0  0  0
   43.8991   15.0669   45.8690 C   0  0  0  0  0  0  0  0  0  0  0  0
   43.9051   13.7236   46.5522 C   0  0  0  0  0  0  0  0  0  0  0  0
   44.8090   13.4975   47.5735 C   0  0  0  0  0  0  0  0  0  0  0  0
   44.8236   12.3039   48.1774 N   0  0  0  0  0  0  0  0  0  0  0  0
   43.9835   11.3270   47.8194 C   0  0  0  0  0  0  0  0  0  0  0  0
   43.1018   11.5275   46.8292 N   0  0  0  0  0  0  0  0  0  0  0  0
   43.0329   12.6987   46.1848 C   0  0  0  0  0  0  0  0  0  0  0  0
   42.0719   12.8583   45.1590 N   0  0  0  0  0  0  0  0  0  0  0  0
   45.5068   14.2885   47.8854 H   0  0  0  0  0  0  0  0  0  0  0  0
   44.0159   10.3574   48.3379 H   0  0  0  0  0  0  0  0  0  0  0  0
   41.4445   12.0787   44.9152 H   0  0  0  0  0  0  0  0  0  0  0  0
   41.9996   13.7542   44.6560 H   0  0  0  0  0  0  0  0  0  0  0  0
  1  2  3  0
  2  3  1  0
  3  4  2  0
  3  8  1  0
  4  5  1  0
  5  6  2  0
  6  7  1  0
  7  8  2  0
  8  9  1  0
  4 10  1  0
  6 11  1  0
  9 12  1  0
  9 13  1  0
M  END
>  <filename_input>  (21) 
6Z0R_Q4H_docked.sdf

>  <pdb_id>  (21) 
6Z0R_Q4H

>  <pose_rank>  (21) 
20

>  <num_atoms_heavy>  (21) 
9

>  <num_torsions>  (21) 
1

>  <pose>  (21) 
[43.90505379013663, 13.723582225284328, 46.55215806617093, 1.3982205896033493, 1.2714657746155589, 2.1281090866448196, 2.5973732409545764]

>  <energy>  (21) 
-119.93121789850737

>  <inter_energy>  (21) 
-109.15796831244977

>  <intra_energy>  (21) 
0.0

>  <rmsd>  (21) 
12.5398

>  <sdf_rank>  (21) 
0

$$$$

     RDKit          3D

 13 13  0  0  0  0  0  0  0  0999 V2000
   44.7289   12.3505   48.1157 N   0  0  0  0  0  0  0  0  0  0  0  0
   44.3391   13.2825   47.6060 C   0  0  0  0  0  0  0  0  0  0  0  0
   43.8190   14.5174   46.9165 C   0  0  0  0  0  0  0  0  0  0  0  0
   43.7678   15.7052   47.6222 C   0  0  0  0  0  0  0  0  0  0  0  0
   43.2991   16.8023   47.0170 N   0  0  0  0  0  0  0  0  0  0  0  0
   42.8828   16.7780   45.7464 C   0  0  0  0  0  0  0  0  0  0  0  0
   42.9227   15.6344   45.0473 N   0  0  0  0  0  0  0  0  0  0  0  0
   43.3820   14.5012   45.5918 C   0  0  0  0  0  0  0  0  0  0  0  0
   43.4157   13.3284   44.8014 N   0  0  0  0  0  0  0  0  0  0  0  0
   44.1080   15.7475   48.6674 H   0  0  0  0  0  0  0  0  0  0  0  0
   42.5070   17.6976   45.2740 H   0  0  0  0  0  0  0  0  0  0  0  0
   43.0845   13.3547   43.8265 H   0  0  0  0  0  0  0  0  0  0  0  0
   43.7715   12.4482   45.2009 H   0  0  0  0  0  0  0  0  0  0  0  0
  1  2  3  0
  2  3  1  0
  3  4  2  0
  3  8  1  0
  4  5  1  0
  5  6  2  0
  6  7  1  0
  7  8  2  0
  8  9  1  0
  4 10  1  0
  6 11  1  0
  9 12  1  0
  9 13  1  0
M  END
>  <filename_input>  (22) 
6Z0R_Q4H_docked.sdf

>  <pdb_id>  (22) 
6Z0R_Q4H

>  <pose_rank>  (22) 
21

>  <num_atoms_heavy>  (22) 
9

>  <num_torsions>  (22) 
1

>  <pose>  (22) 
[43.818957805670536, 14.517448090678965, 46.91647908784803, 5.110693857112144, 1.1570770564673645, -3.301526339140264, -2.4933898554168676]

>  <energy>  (22) 
-105.48707269364894

>  <inter_energy>  (22) 
-87.2360138026813

>  <intra_energy>  (22) 
0.0

>  <rmsd>  (22) 
12.1201

>  <sdf_rank>  (22) 
0

$$$$

     RDKit          3D

 13 13  0  0  0  0  0  0  0  0999 V2000
   42.4397   16.5017   48.6527 N   0  0  0  0  0  0  0  0  0  0  0  0
   42.8519   15.8290   47.8415 C   0  0  0  0  0  0  0  0  0  0  0  0
   43.4068   14.9427   46.7564 C   0  0  0  0  0  0  0  0  0  0  0  0
   44.3349   15.4662   45.8755 C   0  0  0  0  0  0  0  0  0  0  0  0
   44.8242   14.6858   44.9055 N   0  0  0  0  0  0  0  0  0  0  0  0
   44.4401   13.4120   44.7701 C   0  0  0  0  0  0  0  0  0  0  0  0
   43.5390   12.8880   45.6137 N   0  0  0  0  0  0  0  0  0  0  0  0
   43.0114   13.6132   46.6073 C   0  0  0  0  0  0  0  0  0  0  0  0
   42.0770   13.0029   47.4766 N   0  0  0  0  0  0  0  0  0  0  0  0
   44.6664   16.5107   45.9710 H   0  0  0  0  0  0  0  0  0  0  0  0
   44.8639   12.7932   43.9655 H   0  0  0  0  0  0  0  0  0  0  0  0
   41.8089   12.0185   47.3354 H   0  0  0  0  0  0  0  0  0  0  0  0
   41.6647   13.5430   48.2507 H   0  0  0  0  0  0  0  0  0  0  0  0
  1  2  3  0
  2  3  1  0
  3  4  2  0
  3  8  1  0
  4  5  1  0
  5  6  2  0
  6  7  1  0
  7  8  2  0
  8  9  1  0
  4 10  1  0
  6 11  1  0
  9 12  1  0
  9 13  1  0
M  END
>  <filename_input>  (23) 
6Z0R_Q4H_docked.sdf

>  <pdb_id>  (23) 
6Z0R_Q4H

>  <pose_rank>  (23) 
22

>  <num_atoms_heavy>  (23) 
9

>  <num_torsions>  (23) 
1

>  <pose>  (23) 
[43.40682493122061, 14.942674213307015, 46.75638581128849, 3.7938834017083067, 1.4219774317444067, 1.5480959802607155, 0.6669334690674912]

>  <energy>  (23) 
-73.78281681619804

>  <inter_energy>  (23) 
-53.614585497668934

>  <intra_energy>  (23) 
0.0

>  <rmsd>  (23) 
12.3432

>  <sdf_rank>  (23) 
0

$$$$

     RDKit          3D

 13 13  0  0  0  0  0  0  0  0999 V2000
   43.9610    4.5530   60.2552 N   0  0  0  0  0  0  0  0  0  0  0  0
   43.7820    4.8681   59.1833 C   0  0  0  0  0  0  0  0  0  0  0  0
   43.5496    5.2983   57.7578 C   0  0  0  0  0  0  0  0  0  0  0  0
   44.4893    6.1034   57.1413 C   0  0  0  0  0  0  0  0  0  0  0  0
   44.2834    6.4947   55.8787 N   0  0  0  0  0  0  0  0  0  0  0  0
   43.1935    6.1231   55.1988 C   0  0  0  0  0  0  0  0  0  0  0  0
   42.2702    5.3445   55.7814 N   0  0  0  0  0  0  0  0  0  0  0  0
   42.4154    4.9160   57.0412 C   0  0  0  0  0  0  0  0  0  0  0  0
   41.4168    4.0835   57.5987 N   0  0  0  0  0  0  0  0  0  0  0  0
   45.3942    6.4182   57.6818 H   0  0  0  0  0  0  0  0  0  0  0  0
   43.0541    6.4567   54.1599 H   0  0  0  0  0  0  0  0  0  0  0  0
   40.5927    3.8220   57.0390 H   0  0  0  0  0  0  0  0  0  0  0  0
   41.5139    3.7388   58.5645 H   0  0  0  0  0  0  0  0  0  0  0  0
  1  2  3  0
  2  3  1  0
  3  4  2  0
  3  8  1  0
  4  5  1  0
  5  6  2  0
  6  7  1  0
  7  8  2  0
  8  9  1  0
  4 10  1  0
  6 11  1  0
  9 12  1  0
  9 13  1  0
M  END
>  <filename_input>  (24) 
6Z0R_Q4H_docked.sdf

>  <pdb_id>  (24) 
6Z0R_Q4H

>  <pose_rank>  (24) 
23

>  <num_atoms_heavy>  (24) 
9

>  <num_torsions>  (24) 
1

>  <pose>  (24) 
[43.549626066351095, 5.2983020582605285, 57.7577665611758, 3.6942927631169606, -1.6915438101234628, 2.813703827982095, 1.1092810001402336]

>  <energy>  (24) 
-104.01191243650787

>  <inter_energy>  (24) 
-104.16027004706848

>  <intra_energy>  (24) 
0.0

>  <rmsd>  (24) 
12.5654

>  <sdf_rank>  (24) 
0

$$$$

     RDKit          3D

 13 13  0  0  0  0  0  0  0  0999 V2000
   43.0892    5.4183   60.8328 N   0  0  0  0  0  0  0  0  0  0  0  0
   42.7861    5.5116   59.7467 C   0  0  0  0  0  0  0  0  0  0  0  0
   42.3862    5.6476   58.3000 C   0  0  0  0  0  0  0  0  0  0  0  0
   43.1014    6.5072   57.4872 C   0  0  0  0  0  0  0  0  0  0  0  0
   42.7450    6.6376   56.2044 N   0  0  0  0  0  0  0  0  0  0  0  0
   41.7170    5.9544   55.6897 C   0  0  0  0  0  0  0  0  0  0  0  0
   41.0103    5.1181   56.4639 N   0  0  0  0  0  0  0  0  0  0  0  0
   41.3149    4.9395   57.7550 C   0  0  0  0  0  0  0  0  0  0  0  0
   40.5443    4.0322   58.5193 N   0  0  0  0  0  0  0  0  0  0  0  0
   43.9522    7.0764   57.8899 H   0  0  0  0  0  0  0  0  0  0  0  0
   41.4507    6.0788   54.6297 H   0  0  0  0  0  0  0  0  0  0  0  0
   39.7603    3.5270   58.0823 H   0  0  0  0  0  0  0  0  0  0  0  0
   40.7673    3.8768   59.5128 H   0  0  0  0  0  0  0  0  0  0  0  0
  1  2  3  0
  2  3  1  0
  3  4  2  0
  3  8  1  0
  4  5  1  0
  5  6  2  0
  6  7  1  0
  7  8  2  0
  8  9  1  0
  4 10  1  0
  6 11  1  0
  9 12  1  0
  9 13  1  0
M  END
>  <filename_input>  (25) 
6Z0R_Q4H_docked.sdf

>  <pdb_id>  (25) 
6Z0R_Q4H

>  <pose_rank>  (25) 
24

>  <num_atoms_heavy>  (25) 
9

>  <num_torsions>  (25) 
1

>  <pose>  (25) 
[42.3861624929783, 5.647592089348136, 58.300046127581105, 4.250714221033972, -1.2620168921415127, 2.0642571019111378, 1.1137858889563395]

>  <energy>  (25) 
-97.28171925668696

>  <inter_energy>  (25) 
-93.91707163957393

>  <intra_energy>  (25) 
0.0

>  <rmsd>  (25) 
11.8101

>  <sdf_rank>  (25) 
0

$$$$

     RDKit          3D

 13 13  0  0  0  0  0  0  0  0999 V2000
   35.6270   11.2120   55.9650 N   0  0  0  0  0  0  0  0  0  0  0  0
   35.2680   12.1880   55.5190 C   0  0  0  0  0  0  0  0  0  0  0  0
   34.7980   13.4940   54.9320 C   0  0  0  0  0  0  0  0  0  0  0  0
   34.8150   14.6270   55.7240 C   0  0  0  0  0  0  0  0  0  0  0  0
   34.3910   15.7870   55.2100 N   0  0  0  0  0  0  0  0  0  0  0  0
   33.9550   15.8770   53.9490 C   0  0  0  0  0  0  0  0  0  0  0  0
   33.9290   14.7880   53.1670 N   0  0  0  0  0  0  0  0  0  0  0  0
   34.3410   13.5970   53.6180 C   0  0  0  0  0  0  0  0  0  0  0  0
   34.3060   12.4860   52.7430 N   0  0  0  0  0  0  0  0  0  0  0  0
   35.1724   14.5753   56.7630 H   0  0  0  0  0  0  0  0  0  0  0  0
   33.6172   16.8459   53.5526 H   0  0  0  0  0  0  0  0  0  0  0  0
   33.9619   12.6004   51.7790 H   0  0  0  0  0  0  0  0  0  0  0  0
   34.6247   11.5627   53.0700 H   0  0  0  0  0  0  0  0  0  0  0  0
  1  2  3  0
  2  3  1  0
  3  4  2  0
  3  8  1  0
  4  5  1  0
  5  6  2  0
  6  7  1  0
  7  8  2  0
  8  9  1  0
  4 10  1  0
  6 11  1  0
  9 12  1  0
  9 13  1  0
M  END
>  <filename_input>  (26) 
6Z0R_Q4H_docked.sdf

>  <pdb_id>  (26) 
6Z0R_Q4H

>  <pose_rank>  (26) 
25

>  <num_atoms_heavy>  (26) 
9

>  <num_torsions>  (26) 
1

>  <pose>  (26) 
[34.798, 13.494, 54.932, 1e-06, 1e-06, 1e-06, 0.0]

>  <energy>  (26) 
-449.70388257112404

>  <inter_energy>  (26) 
-442.8888270483781

>  <intra_energy>  (26) 
0.0

>  <rmsd>  (26) 
0.0

>  <sdf_rank>  (26) 
0

$$$$
