
     RDKit          3D

 31 32  0  0  0  0  0  0  0  0999 V2000
   13.0707   10.3601   13.6428 O   0  0  0  0  0  0  0  0  0  0  0  0
   13.6837   12.4387   12.7049 O   0  0  0  0  0  0  0  0  0  0  0  0
   14.1023   11.3708   13.5467 S   0  0  1  0  0  0  0  0  0  0  0  0
   14.6317   11.7380   14.8393 O   0  0  0  0  0  0  0  0  0  0  0  0
   17.5450    7.9439   11.1385 C   0  0  1  0  0  0  0  0  0  0  0  0
   17.8517    7.8320    9.6973 C   0  0  1  0  0  0  0  0  0  0  0  0
   17.9909    9.2112    9.0657 C   0  0  2  0  0  0  0  0  0  0  0  0
   16.8116   10.0779    9.4642 C   0  0  1  0  0  0  0  0  0  0  0  0
   16.7542   10.2358   10.9797 C   0  0  1  0  0  0  0  0  0  0  0  0
   15.5350   11.0141   11.4141 C   0  0  0  0  0  0  0  0  0  0  0  0
   19.7970    7.3888   10.9062 C   0  0  0  0  0  0  0  0  0  0  0  0
   21.1979    7.0394   11.2623 C   0  0  0  0  0  0  0  0  0  0  0  0
   19.1924    7.1903    9.6754 N   0  0  0  0  0  0  0  0  0  0  0  0
   18.8604    7.9774   11.7862 O   0  0  0  0  0  0  0  0  0  0  0  0
   18.0218    9.0924    7.6555 O   0  0  0  0  0  0  0  0  0  0  0  0
   17.0303   11.3675    8.8994 O   0  0  0  0  0  0  0  0  0  0  0  0
   16.7169    8.9664   11.6702 O   0  0  0  0  0  0  0  0  0  0  0  0
   15.3211   10.6981   12.8105 O   0  0  0  0  0  0  0  0  0  0  0  0
   16.8799    7.0916   11.3415 H   0  0  0  0  0  0  0  0  0  0  0  0
   17.0683    7.2843    9.1530 H   0  0  0  0  0  0  0  0  0  0  0  0
   18.9256    9.6723    9.4175 H   0  0  0  0  0  0  0  0  0  0  0  0
   15.8752    9.6196    9.1133 H   0  0  0  0  0  0  0  0  0  0  0  0
   17.6753   10.7758   11.2445 H   0  0  0  0  0  0  0  0  0  0  0  0
   15.7095   12.0932   11.2912 H   0  0  0  0  0  0  0  0  0  0  0  0
   14.6568   10.7486   10.8073 H   0  0  0  0  0  0  0  0  0  0  0  0
   21.3023    7.0134   12.3570 H   0  0  0  0  0  0  0  0  0  0  0  0
   21.4464    6.0518   10.8466 H   0  0  0  0  0  0  0  0  0  0  0  0
   21.8811    7.7947   10.8466 H   0  0  0  0  0  0  0  0  0  0  0  0
   19.6031    6.6829    8.8787 H   0  0  0  0  0  0  0  0  0  0  0  0
   18.2625    8.1646    7.4077 H   0  0  0  0  0  0  0  0  0  0  0  0
   17.1428   12.0310    9.6255 H   0  0  0  0  0  0  0  0  0  0  0  0
  1  3  2  0
  2  3  2  0
  3  4  1  1
  3 18  1  0
  5  6  1  0
  5 14  1  0
  5 17  1  0
  6  7  1  0
  6 13  1  0
  7  8  1  0
  7 15  1  0
  8  9  1  0
  8 16  1  0
  9 10  1  0
  9 17  1  0
 10 18  1  0
 11 12  1  0
 11 13  2  0
 11 14  1  0
  5 19  1  1
  6 20  1  6
  7 21  1  1
  8 22  1  6
  9 23  1  1
 10 24  1  0
 10 25  1  0
 12 26  1  0
 12 27  1  0
 12 28  1  0
 13 29  1  0
 15 30  1  0
 16 31  1  0
M  CHG  2   4  -1  13   1
M  END
>  <filename_input>  (1) 
6Z14_Q4Z_docked.sdf

>  <pdb_id>  (1) 
6Z14_Q4Z

>  <pose_rank>  (1) 
0

>  <num_atoms_heavy>  (1) 
18

>  <num_torsions>  (1) 
3

>  <pose>  (1) 
[17.54502625551982, 7.94393349779664, 11.138500490688424, -5.951844936049108, -1.0077340602683702, 1.5397520761665995, -0.3874731798864322, -0.3883981675535375, 0.4369470622877469]

>  <energy>  (1) 
-800.826504238517

>  <inter_energy>  (1) 
-779.4887967065987

>  <intra_energy>  (1) 
0.0

>  <rmsd>  (1) 
0.392489

>  <sdf_rank>  (1) 
0

$$$$

     RDKit          3D

 31 32  0  0  0  0  0  0  0  0999 V2000
   19.6553    4.7276    9.4729 O   0  0  0  0  0  0  0  0  0  0  0  0
   20.3211    6.7331   10.5269 O   0  0  0  0  0  0  0  0  0  0  0  0
   19.3874    6.1411    9.6311 S   0  0  1  0  0  0  0  0  0  0  0  0
   19.1974    6.8080    8.3642 O   0  0  0  0  0  0  0  0  0  0  0  0
   15.6449    8.9284   11.7813 C   0  0  1  0  0  0  0  0  0  0  0  0
   16.1174   10.1816   11.1569 C   0  0  1  0  0  0  0  0  0  0  0  0
   16.1220   10.0605    9.6383 C   0  0  2  0  0  0  0  0  0  0  0  0
   16.8114    8.7727    9.2298 C   0  0  1  0  0  0  0  0  0  0  0  0
   16.0822    7.5686    9.8159 C   0  0  1  0  0  0  0  0  0  0  0  0
   16.8002    6.2764    9.5067 C   0  0  0  0  0  0  0  0  0  0  0  0
   13.9117   10.4855   11.8530 C   0  0  0  0  0  0  0  0  0  0  0  0
   12.5843   11.0923   12.1376 C   0  0  0  0  0  0  0  0  0  0  0  0
   15.0707   11.1706   11.5257 N   0  0  0  0  0  0  0  0  0  0  0  0
   14.1919    9.1003   11.8816 O   0  0  0  0  0  0  0  0  0  0  0  0
   16.8159   11.1564    9.0715 O   0  0  0  0  0  0  0  0  0  0  0  0
   16.7271    8.6850    7.8103 O   0  0  0  0  0  0  0  0  0  0  0  0
   15.9458    7.6462   11.2529 O   0  0  0  0  0  0  0  0  0  0  0  0
   17.9849    6.2547   10.3382 O   0  0  0  0  0  0  0  0  0  0  0  0
   16.2309    8.8496   12.7089 H   0  0  0  0  0  0  0  0  0  0  0  0
   17.1352   10.4430   11.4820 H   0  0  0  0  0  0  0  0  0  0  0  0
   15.0829   10.0554    9.2775 H   0  0  0  0  0  0  0  0  0  0  0  0
   17.8512    8.7749    9.5890 H   0  0  0  0  0  0  0  0  0  0  0  0
   15.0873    7.5828    9.3470 H   0  0  0  0  0  0  0  0  0  0  0  0
   16.1548    5.4174    9.7425 H   0  0  0  0  0  0  0  0  0  0  0  0
   17.0617    6.2122    8.4402 H   0  0  0  0  0  0  0  0  0  0  0  0
   12.4375   11.1594   13.2257 H   0  0  0  0  0  0  0  0  0  0  0  0
   12.5401   12.1000   11.6988 H   0  0  0  0  0  0  0  0  0  0  0  0
   11.7933   10.4664   11.6988 H   0  0  0  0  0  0  0  0  0  0  0  0
   15.1875   12.1939   11.5362 H   0  0  0  0  0  0  0  0  0  0  0  0
   17.1776   11.7276    9.7947 H   0  0  0  0  0  0  0  0  0  0  0  0
   16.0631    7.9942    7.5612 H   0  0  0  0  0  0  0  0  0  0  0  0
  1  3  2  0
  2  3  2  0
  3  4  1  6
  3 18  1  0
  5  6  1  0
  5 14  1  0
  5 17  1  0
  6  7  1  0
  6 13  1  0
  7  8  1  0
  7 15  1  0
  8  9  1  0
  8 16  1  0
  9 10  1  0
  9 17  1  0
 10 18  1  0
 11 12  1  0
 11 13  2  0
 11 14  1  0
  5 19  1  1
  6 20  1  1
  7 21  1  6
  8 22  1  6
  9 23  1  6
 10 24  1  0
 10 25  1  0
 12 26  1  0
 12 27  1  0
 12 28  1  0
 13 29  1  0
 15 30  1  0
 16 31  1  0
M  CHG  2   4  -1  13   1
M  END
>  <filename_input>  (2) 
6Z14_Q4Z_docked.sdf

>  <pdb_id>  (2) 
6Z14_Q4Z

>  <pose_rank>  (2) 
1

>  <num_atoms_heavy>  (2) 
18

>  <num_torsions>  (2) 
3

>  <pose>  (2) 
[15.64488895883425, 8.928435940621338, 11.781297649884701, -0.515595454766544, -1.2735345047107673, 2.361331472596896, -1.9083155674775887, 6.913086964466638, 3.3913777608247426]

>  <energy>  (2) 
-404.76548125356567

>  <inter_energy>  (2) 
-422.7035223315393

>  <intra_energy>  (2) 
7.762419673026469

>  <rmsd>  (2) 
5.89151

>  <sdf_rank>  (2) 
0

$$$$

     RDKit          3D

 31 32  0  0  0  0  0  0  0  0999 V2000
   21.3618    7.7471   11.0665 O   0  0  0  0  0  0  0  0  0  0  0  0
   20.0936    7.9354    9.0834 O   0  0  0  0  0  0  0  0  0  0  0  0
   20.1936    7.2873   10.3461 S   0  0  1  0  0  0  0  0  0  0  0  0
   20.0838    5.8472   10.3424 O   0  0  0  0  0  0  0  0  0  0  0  0
   16.2905   10.3510   11.7558 C   0  0  1  0  0  0  0  0  0  0  0  0
   15.0229   10.3893   10.9973 C   0  0  1  0  0  0  0  0  0  0  0  0
   14.3986    9.0021   10.9176 C   0  0  2  0  0  0  0  0  0  0  0  0
   15.4447    7.9945   10.4803 C   0  0  1  0  0  0  0  0  0  0  0  0
   16.5981    7.9571   11.4770 C   0  0  1  0  0  0  0  0  0  0  0  0
   17.7016    7.0331   11.0193 C   0  0  0  0  0  0  0  0  0  0  0  0
   14.6338   11.2374   13.1354 C   0  0  0  0  0  0  0  0  0  0  0  0
   13.9740   11.8348   14.3266 C   0  0  0  0  0  0  0  0  0  0  0  0
   14.1371   11.2329   11.8419 N   0  0  0  0  0  0  0  0  0  0  0  0
   15.8864   10.5826   13.1464 O   0  0  0  0  0  0  0  0  0  0  0  0
   13.3392    9.0057    9.9787 O   0  0  0  0  0  0  0  0  0  0  0  0
   14.8208    6.7137   10.4871 O   0  0  0  0  0  0  0  0  0  0  0  0
   17.1926    9.2576   11.6890 O   0  0  0  0  0  0  0  0  0  0  0  0
   18.9411    7.7650   11.1726 O   0  0  0  0  0  0  0  0  0  0  0  0
   16.9258   11.1001   11.2606 H   0  0  0  0  0  0  0  0  0  0  0  0
   15.1703   10.7573    9.9712 H   0  0  0  0  0  0  0  0  0  0  0  0
   14.0111    8.7274   11.9098 H   0  0  0  0  0  0  0  0  0  0  0  0
   15.8339    8.2663    9.4879 H   0  0  0  0  0  0  0  0  0  0  0  0
   16.1517    7.5953   12.4150 H   0  0  0  0  0  0  0  0  0  0  0  0
   17.7178    6.1245   11.6391 H   0  0  0  0  0  0  0  0  0  0  0  0
   17.5510    6.7204    9.9755 H   0  0  0  0  0  0  0  0  0  0  0  0
   14.4272   11.4244   15.2411 H   0  0  0  0  0  0  0  0  0  0  0  0
   14.1062   12.9267   14.3100 H   0  0  0  0  0  0  0  0  0  0  0  0
   12.9006   11.5951   14.3100 H   0  0  0  0  0  0  0  0  0  0  0  0
   13.2950   11.7308   11.5195 H   0  0  0  0  0  0  0  0  0  0  0  0
   12.4732    9.0086   10.4583 H   0  0  0  0  0  0  0  0  0  0  0  0
   14.6782    6.4211   11.4220 H   0  0  0  0  0  0  0  0  0  0  0  0
  1  3  2  0
  2  3  2  0
  3  4  1  6
  3 18  1  0
  5  6  1  0
  5 14  1  0
  5 17  1  0
  6  7  1  0
  6 13  1  0
  7  8  1  0
  7 15  1  0
  8  9  1  0
  8 16  1  0
  9 10  1  0
  9 17  1  0
 10 18  1  0
 11 12  1  0
 11 13  2  0
 11 14  1  0
  5 19  1  6
  6 20  1  6
  7 21  1  1
  8 22  1  6
  9 23  1  1
 10 24  1  0
 10 25  1  0
 12 26  1  0
 12 27  1  0
 12 28  1  0
 13 29  1  0
 15 30  1  0
 16 31  1  0
M  CHG  2   4  -1  13   1
M  END
>  <filename_input>  (3) 
6Z14_Q4Z_docked.sdf

>  <pdb_id>  (3) 
6Z14_Q4Z

>  <pose_rank>  (3) 
2

>  <num_atoms_heavy>  (3) 
18

>  <num_torsions>  (3) 
3

>  <pose>  (3) 
[16.29045657303126, 10.35100193256649, 11.755778911051467, 1.213093464467223, 0.2949502347756071, 2.769420673735413, -0.869581581689698, -0.031240065544699984, -4.074732416340067]

>  <energy>  (3) 
-556.6220182374644

>  <inter_energy>  (3) 
-533.237675547418

>  <intra_energy>  (3) 
0.0

>  <rmsd>  (3) 
5.95965

>  <sdf_rank>  (3) 
0

$$$$

     RDKit          3D

 31 32  0  0  0  0  0  0  0  0999 V2000
   12.5272   10.0901   11.8607 O   0  0  0  0  0  0  0  0  0  0  0  0
   13.6704    8.1124   11.2619 O   0  0  0  0  0  0  0  0  0  0  0  0
   13.7133    9.5345   11.2446 S   0  0  1  0  0  0  0  0  0  0  0  0
   14.0134   10.1553    9.9755 O   0  0  0  0  0  0  0  0  0  0  0  0
   17.8359    7.9378   11.0366 C   0  0  1  0  0  0  0  0  0  0  0  0
   18.2674    8.0777    9.6303 C   0  0  1  0  0  0  0  0  0  0  0  0
   18.4736    9.5437    9.2714 C   0  0  2  0  0  0  0  0  0  0  0  0
   17.2713   10.3537    9.7176 C   0  0  1  0  0  0  0  0  0  0  0  0
   17.0820   10.2398   11.2263 C   0  0  1  0  0  0  0  0  0  0  0  0
   15.8361   10.9574   11.6884 C   0  0  0  0  0  0  0  0  0  0  0  0
   20.0947    7.3785   10.9008 C   0  0  0  0  0  0  0  0  0  0  0  0
   21.4556    6.9371   11.3060 C   0  0  0  0  0  0  0  0  0  0  0  0
   19.5991    7.4177    9.6074 N   0  0  0  0  0  0  0  0  0  0  0  0
   19.0893    7.8231   11.7893 O   0  0  0  0  0  0  0  0  0  0  0  0
   18.6276    9.6779    7.8707 O   0  0  0  0  0  0  0  0  0  0  0  0
   17.5501   11.7178    9.4149 O   0  0  0  0  0  0  0  0  0  0  0  0
   16.9730    8.8688   11.6713 O   0  0  0  0  0  0  0  0  0  0  0  0
   14.9263    9.9372   12.1646 O   0  0  0  0  0  0  0  0  0  0  0  0
   17.1481    7.0794   11.0255 H   0  0  0  0  0  0  0  0  0  0  0  0
   17.5302    7.6551    8.9316 H   0  0  0  0  0  0  0  0  0  0  0  0
   19.3776    9.9117    9.7788 H   0  0  0  0  0  0  0  0  0  0  0  0
   16.3656    9.9884    9.2115 H   0  0  0  0  0  0  0  0  0  0  0  0
   17.9808   10.7012   11.6614 H   0  0  0  0  0  0  0  0  0  0  0  0
   16.0802   11.6579   12.5006 H   0  0  0  0  0  0  0  0  0  0  0  0
   15.3869   11.5405   10.8709 H   0  0  0  0  0  0  0  0  0  0  0  0
   21.5224    6.9155   12.4038 H   0  0  0  0  0  0  0  0  0  0  0  0
   21.6486    5.9304   10.9070 H   0  0  0  0  0  0  0  0  0  0  0  0
   22.2027    7.6391   10.9070 H   0  0  0  0  0  0  0  0  0  0  0  0
   20.0740    7.0509    8.7703 H   0  0  0  0  0  0  0  0  0  0  0  0
   19.3596   10.3162    7.6788 H   0  0  0  0  0  0  0  0  0  0  0  0
   17.6543   12.2280   10.2569 H   0  0  0  0  0  0  0  0  0  0  0  0
  1  3  2  0
  2  3  2  0
  3  4  1  6
  3 18  1  0
  5  6  1  0
  5 14  1  0
  5 17  1  0
  6  7  1  0
  6 13  1  0
  7  8  1  0
  7 15  1  0
  8  9  1  0
  8 16  1  0
  9 10  1  0
  9 17  1  0
 10 18  1  0
 11 12  1  0
 11 13  2  0
 11 14  1  0
  5 19  1  6
  6 20  1  6
  7 21  1  1
  8 22  1  6
  9 23  1  1
 10 24  1  0
 10 25  1  0
 12 26  1  0
 12 27  1  0
 12 28  1  0
 13 29  1  0
 15 30  1  0
 16 31  1  0
M  CHG  2   4  -1  13   1
M  END
>  <filename_input>  (4) 
6Z14_Q4Z_docked.sdf

>  <pdb_id>  (4) 
6Z14_Q4Z

>  <pose_rank>  (4) 
3

>  <num_atoms_heavy>  (4) 
18

>  <num_torsions>  (4) 
3

>  <pose>  (4) 
[17.835869135388666, 7.937849770034304, 11.03664694231892, -5.689443485089765, 1.9089537163069659, 0.6561788719653799, -7.4855731992959536, -5.341901816011522, -3.229212523741747]

>  <energy>  (4) 
-614.1802589104847

>  <inter_energy>  (4) 
-598.821119799942

>  <intra_energy>  (4) 
9.212791996180762

>  <rmsd>  (4) 
1.8252

>  <sdf_rank>  (4) 
0

$$$$

     RDKit          3D

 31 32  0  0  0  0  0  0  0  0999 V2000
   14.1682   12.3565   14.2563 O   0  0  0  0  0  0  0  0  0  0  0  0
   12.3213   11.4465   13.0997 O   0  0  0  0  0  0  0  0  0  0  0  0
   13.6116   12.0299   12.9607 S   0  0  1  0  0  0  0  0  0  0  0  0
   13.7278   13.1224   12.0233 O   0  0  0  0  0  0  0  0  0  0  0  0
   17.8471    9.5216    9.6599 C   0  0  1  0  0  0  0  0  0  0  0  0
   18.3863    8.7261   10.7823 C   0  0  1  0  0  0  0  0  0  0  0  0
   17.2589    8.0819   11.5789 C   0  0  2  0  0  0  0  0  0  0  0  0
   16.2026    9.1213   11.9027 C   0  0  1  0  0  0  0  0  0  0  0  0
   15.6235    9.7100   10.6208 C   0  0  1  0  0  0  0  0  0  0  0  0
   14.6377   10.8168   10.9105 C   0  0  0  0  0  0  0  0  0  0  0  0
   18.6662    7.5114    8.8104 C   0  0  0  0  0  0  0  0  0  0  0  0
   19.0401    6.4497    7.8387 C   0  0  0  0  0  0  0  0  0  0  0  0
   19.1388    7.6365   10.1069 N   0  0  0  0  0  0  0  0  0  0  0  0
   17.7655    8.5687    8.5481 O   0  0  0  0  0  0  0  0  0  0  0  0
   17.7686    7.5488   12.7871 O   0  0  0  0  0  0  0  0  0  0  0  0
   15.1500    8.4487   12.5879 O   0  0  0  0  0  0  0  0  0  0  0  0
   16.6399   10.2617    9.7534 O   0  0  0  0  0  0  0  0  0  0  0  0
   14.5273   10.9029   12.3512 O   0  0  0  0  0  0  0  0  0  0  0  0
   18.5385   10.3729    9.5738 H   0  0  0  0  0  0  0  0  0  0  0  0
   18.9833    9.3416   11.4713 H   0  0  0  0  0  0  0  0  0  0  0  0
   16.8134    7.2750   10.9786 H   0  0  0  0  0  0  0  0  0  0  0  0
   16.6450    9.9295   12.5035 H   0  0  0  0  0  0  0  0  0  0  0  0
   15.1256    8.8666   10.1201 H   0  0  0  0  0  0  0  0  0  0  0  0
   15.0043   11.7692   10.4999 H   0  0  0  0  0  0  0  0  0  0  0  0
   13.6610   10.6103   10.4485 H   0  0  0  0  0  0  0  0  0  0  0  0
   19.3574    5.5487    8.3841 H   0  0  0  0  0  0  0  0  0  0  0  0
   18.1726    6.2092    7.2066 H   0  0  0  0  0  0  0  0  0  0  0  0
   19.8669    6.8058    7.2066 H   0  0  0  0  0  0  0  0  0  0  0  0
   19.8864    7.0694   10.5316 H   0  0  0  0  0  0  0  0  0  0  0  0
   17.3369    8.0004   13.5551 H   0  0  0  0  0  0  0  0  0  0  0  0
   15.2845    8.5346   13.5650 H   0  0  0  0  0  0  0  0  0  0  0  0
  1  3  2  0
  2  3  2  0
  3  4  1  6
  3 18  1  0
  5  6  1  0
  5 14  1  0
  5 17  1  0
  6  7  1  0
  6 13  1  0
  7  8  1  0
  7 15  1  0
  8  9  1  0
  8 16  1  0
  9 10  1  0
  9 17  1  0
 10 18  1  0
 11 12  1  0
 11 13  2  0
 11 14  1  0
  5 19  1  6
  6 20  1  1
  7 21  1  6
  8 22  1  1
  9 23  1  6
 10 24  1  0
 10 25  1  0
 12 26  1  0
 12 27  1  0
 12 28  1  0
 13 29  1  0
 15 30  1  0
 16 31  1  0
M  CHG  2   4  -1  13   1
M  END
>  <filename_input>  (5) 
6Z14_Q4Z_docked.sdf

>  <pdb_id>  (5) 
6Z14_Q4Z

>  <pose_rank>  (5) 
4

>  <num_atoms_heavy>  (5) 
18

>  <num_torsions>  (5) 
3

>  <pose>  (5) 
[17.84713031395635, 9.521646679136678, 9.659874368560242, -2.2328055052206697, 1.8924886858847447, 0.646302006228893, 3.057888074537937, -0.4409732571628085, -3.9970707893302158]

>  <energy>  (5) 
-430.0122652181519

>  <inter_energy>  (5) 
-454.67539852916445

>  <intra_energy>  (5) 
22.031483712958845

>  <rmsd>  (5) 
2.60264

>  <sdf_rank>  (5) 
0

$$$$

     RDKit          3D

 31 32  0  0  0  0  0  0  0  0999 V2000
   14.2427   11.5962   14.8123 O   0  0  0  0  0  0  0  0  0  0  0  0
   12.6013   11.0071   13.2201 O   0  0  0  0  0  0  0  0  0  0  0  0
   13.9866   11.2560   13.4290 S   0  0  1  0  0  0  0  0  0  0  0  0
   14.6224   12.1733   12.5123 O   0  0  0  0  0  0  0  0  0  0  0  0
   15.5704    9.7309    8.9954 C   0  0  1  0  0  0  0  0  0  0  0  0
   16.8064    9.0995    8.4882 C   0  0  1  0  0  0  0  0  0  0  0  0
   17.3612    8.1066    9.5015 C   0  0  2  0  0  0  0  0  0  0  0  0
   17.4182    8.7527   10.8727 C   0  0  1  0  0  0  0  0  0  0  0  0
   16.0243    9.1814   11.3182 C   0  0  1  0  0  0  0  0  0  0  0  0
   16.0610    9.9149   12.6379 C   0  0  0  0  0  0  0  0  0  0  0  0
   14.9791    8.1093    7.4288 C   0  0  0  0  0  0  0  0  0  0  0  0
   14.1436    7.2548    6.5439 C   0  0  0  0  0  0  0  0  0  0  0  0
   16.3424    8.3248    7.3075 N   0  0  0  0  0  0  0  0  0  0  0  0
   14.4969    8.8435    8.5362 O   0  0  0  0  0  0  0  0  0  0  0  0
   18.6665    7.7120    9.1218 O   0  0  0  0  0  0  0  0  0  0  0  0
   17.8813    7.7603   11.7840 O   0  0  0  0  0  0  0  0  0  0  0  0
   15.3793   10.0547   10.3638 O   0  0  0  0  0  0  0  0  0  0  0  0
   14.7126    9.8840   13.1634 O   0  0  0  0  0  0  0  0  0  0  0  0
   15.6090   10.7575    8.6024 H   0  0  0  0  0  0  0  0  0  0  0  0
   17.5885    9.8431    8.2748 H   0  0  0  0  0  0  0  0  0  0  0  0
   16.7042    7.2250    9.5341 H   0  0  0  0  0  0  0  0  0  0  0  0
   18.0750    9.6346   10.8435 H   0  0  0  0  0  0  0  0  0  0  0  0
   15.4543    8.2450   11.4092 H   0  0  0  0  0  0  0  0  0  0  0  0
   16.7510    9.4132   13.3323 H   0  0  0  0  0  0  0  0  0  0  0  0
   16.4137   10.9487   12.5085 H   0  0  0  0  0  0  0  0  0  0  0  0
   13.5061    6.6029    7.1592 H   0  0  0  0  0  0  0  0  0  0  0  0
   13.5111    7.8926    5.9090 H   0  0  0  0  0  0  0  0  0  0  0  0
   14.7955    6.6368    5.9090 H   0  0  0  0  0  0  0  0  0  0  0  0
   16.9352    8.0022    6.5294 H   0  0  0  0  0  0  0  0  0  0  0  0
   19.2105    7.5475    9.9324 H   0  0  0  0  0  0  0  0  0  0  0  0
   17.7361    8.0714   12.7126 H   0  0  0  0  0  0  0  0  0  0  0  0
  1  3  2  0
  2  3  2  0
  3  4  1  6
  3 18  1  0
  5  6  1  0
  5 14  1  0
  5 17  1  0
  6  7  1  0
  6 13  1  0
  7  8  1  0
  7 15  1  0
  8  9  1  0
  8 16  1  0
  9 10  1  0
  9 17  1  0
 10 18  1  0
 11 12  1  0
 11 13  2  0
 11 14  1  0
  5 19  1  6
  6 20  1  6
  7 21  1  1
  8 22  1  6
  9 23  1  1
 10 24  1  0
 10 25  1  0
 12 26  1  0
 12 27  1  0
 12 28  1  0
 13 29  1  0
 15 30  1  0
 16 31  1  0
M  CHG  2   4  -1  13   1
M  END
>  <filename_input>  (6) 
6Z14_Q4Z_docked.sdf

>  <pdb_id>  (6) 
6Z14_Q4Z

>  <pose_rank>  (6) 
5

>  <num_atoms_heavy>  (6) 
18

>  <num_torsions>  (6) 
3

>  <pose>  (6) 
[15.570415391071649, 9.730876610249583, 8.995442588632457, 1.3509966467545502, -1.1395369872535075, -1.8936680790645075, 0.27997301692116355, 0.6544593649004795, 3.3039546379640408]

>  <energy>  (6) 
-484.9346077305867

>  <inter_energy>  (6) 
-471.339198524277

>  <intra_energy>  (6) 
3.2063300073184138

>  <rmsd>  (6) 
3.38936

>  <sdf_rank>  (6) 
0

$$$$

     RDKit          3D

 31 32  0  0  0  0  0  0  0  0999 V2000
   19.8084    8.0055    9.5443 O   0  0  0  0  0  0  0  0  0  0  0  0
   18.8550    5.8477    9.6504 O   0  0  0  0  0  0  0  0  0  0  0  0
   18.9834    7.0995   10.3146 S   0  0  1  0  0  0  0  0  0  0  0  0
   19.3700    7.0548   11.7055 O   0  0  0  0  0  0  0  0  0  0  0  0
   14.4704    9.0180   12.2712 C   0  0  1  0  0  0  0  0  0  0  0  0
   14.1641   10.4366   12.5494 C   0  0  1  0  0  0  0  0  0  0  0  0
   14.5068   11.3091   11.3487 C   0  0  2  0  0  0  0  0  0  0  0  0
   15.9037   10.9788   10.8582 C   0  0  1  0  0  0  0  0  0  0  0  0
   15.9898    9.5146   10.4414 C   0  0  1  0  0  0  0  0  0  0  0  0
   17.3939    9.1305   10.0389 C   0  0  0  0  0  0  0  0  0  0  0  0
   12.1666    9.3228   12.0893 C   0  0  0  0  0  0  0  0  0  0  0  0
   10.7252    9.0203   11.8842 C   0  0  0  0  0  0  0  0  0  0  0  0
   12.6860   10.4491   12.7068 N   0  0  0  0  0  0  0  0  0  0  0  0
   13.2345    8.4899   11.6843 O   0  0  0  0  0  0  0  0  0  0  0  0
   14.4573   12.6747   11.7180 O   0  0  0  0  0  0  0  0  0  0  0  0
   16.1405   11.7762    9.7015 O   0  0  0  0  0  0  0  0  0  0  0  0
   15.5873    8.6114   11.4958 O   0  0  0  0  0  0  0  0  0  0  0  0
   17.5369    7.7215   10.3386 O   0  0  0  0  0  0  0  0  0  0  0  0
   14.8063    8.6179   13.2392 H   0  0  0  0  0  0  0  0  0  0  0  0
   14.7244   10.8142   13.4174 H   0  0  0  0  0  0  0  0  0  0  0  0
   13.7776   11.1169   10.5479 H   0  0  0  0  0  0  0  0  0  0  0  0
   16.6355   11.1704   11.6568 H   0  0  0  0  0  0  0  0  0  0  0  0
   15.3012    9.4207    9.5888 H   0  0  0  0  0  0  0  0  0  0  0  0
   17.5426    9.3072    8.9634 H   0  0  0  0  0  0  0  0  0  0  0  0
   18.1407    9.7299   10.5802 H   0  0  0  0  0  0  0  0  0  0  0  0
   10.2298    8.9164   12.8609 H   0  0  0  0  0  0  0  0  0  0  0  0
   10.2553    9.8395   11.3201 H   0  0  0  0  0  0  0  0  0  0  0  0
   10.6242    8.0815   11.3201 H   0  0  0  0  0  0  0  0  0  0  0  0
   12.1394   11.1739   13.1935 H   0  0  0  0  0  0  0  0  0  0  0  0
   14.4546   12.7497   12.7052 H   0  0  0  0  0  0  0  0  0  0  0  0
   16.4111   12.6873    9.9785 H   0  0  0  0  0  0  0  0  0  0  0  0
  1  3  2  0
  2  3  2  0
  3  4  1  1
  3 18  1  0
  5  6  1  0
  5 14  1  0
  5 17  1  0
  6  7  1  0
  6 13  1  0
  7  8  1  0
  7 15  1  0
  8  9  1  0
  8 16  1  0
  9 10  1  0
  9 17  1  0
 10 18  1  0
 11 12  1  0
 11 13  2  0
 11 14  1  0
  5 19  1  1
  6 20  1  1
  7 21  1  6
  8 22  1  1
  9 23  1  6
 10 24  1  0
 10 25  1  0
 12 26  1  0
 12 27  1  0
 12 28  1  0
 13 29  1  0
 15 30  1  0
 16 31  1  0
M  CHG  2   4  -1  13   1
M  END
>  <filename_input>  (7) 
6Z14_Q4Z_docked.sdf

>  <pdb_id>  (7) 
6Z14_Q4Z

>  <pose_rank>  (7) 
6

>  <num_atoms_heavy>  (7) 
18

>  <num_torsions>  (7) 
3

>  <pose>  (7) 
[14.47044787634959, 9.018019563593079, 12.271166011334627, -0.456799654864528, -2.4882455494408173, 2.160884933658269, 5.738844254913758, -0.1665664954682414, -1.6953901330510324]

>  <energy>  (7) 
-450.77311141089837

>  <inter_energy>  (7) 
-450.1323434705354

>  <intra_energy>  (7) 
0.0

>  <rmsd>  (7) 
5.98246

>  <sdf_rank>  (7) 
0

$$$$

     RDKit          3D

 31 32  0  0  0  0  0  0  0  0999 V2000
   18.9606    9.9522    7.0686 O   0  0  0  0  0  0  0  0  0  0  0  0
   17.4804    8.3360    7.9480 O   0  0  0  0  0  0  0  0  0  0  0  0
   18.8028    8.8583    8.0032 S   0  0  1  0  0  0  0  0  0  0  0  0
   19.8791    7.8997    7.9114 O   0  0  0  0  0  0  0  0  0  0  0  0
   15.7971   11.0318   10.6025 C   0  0  1  0  0  0  0  0  0  0  0  0
   14.5995   10.1878   10.7950 C   0  0  1  0  0  0  0  0  0  0  0  0
   14.9255    8.9759   11.6585 C   0  0  2  0  0  0  0  0  0  0  0  0
   16.1806    8.3005   11.1394 C   0  0  1  0  0  0  0  0  0  0  0  0
   17.3610    9.2648   11.1815 C   0  0  1  0  0  0  0  0  0  0  0  0
   18.6040    8.6521   10.5811 C   0  0  0  0  0  0  0  0  0  0  0  0
   14.4282   12.0481   12.1921 C   0  0  0  0  0  0  0  0  0  0  0  0
   13.9257   13.0392   13.1802 C   0  0  0  0  0  0  0  0  0  0  0  0
   13.6805   11.0597   11.5728 N   0  0  0  0  0  0  0  0  0  0  0  0
   15.7610   11.9720   11.7275 O   0  0  0  0  0  0  0  0  0  0  0  0
   13.8526    8.0535   11.6156 O   0  0  0  0  0  0  0  0  0  0  0  0
   16.4691    7.2193   12.0212 O   0  0  0  0  0  0  0  0  0  0  0  0
   17.1023   10.4924   10.4634 O   0  0  0  0  0  0  0  0  0  0  0  0
   18.9599    9.4742    9.4440 O   0  0  0  0  0  0  0  0  0  0  0  0
   15.6889   11.4277    9.5820 H   0  0  0  0  0  0  0  0  0  0  0  0
   14.1945    9.8268    9.8381 H   0  0  0  0  0  0  0  0  0  0  0  0
   15.0848    9.3084   12.6948 H   0  0  0  0  0  0  0  0  0  0  0  0
   16.0241    7.9664   10.1031 H   0  0  0  0  0  0  0  0  0  0  0  0
   17.5116    9.4835   12.2490 H   0  0  0  0  0  0  0  0  0  0  0  0
   19.4204    8.6494   11.3184 H   0  0  0  0  0  0  0  0  0  0  0  0
   18.4268    7.6096   10.2782 H   0  0  0  0  0  0  0  0  0  0  0  0
   14.1134   12.6690   14.1989 H   0  0  0  0  0  0  0  0  0  0  0  0
   14.4470   13.9971   13.0364 H   0  0  0  0  0  0  0  0  0  0  0  0
   12.8449   13.1848   13.0364 H   0  0  0  0  0  0  0  0  0  0  0  0
   12.6588   10.9477   11.6400 H   0  0  0  0  0  0  0  0  0  0  0  0
   13.5811    7.8200   12.5386 H   0  0  0  0  0  0  0  0  0  0  0  0
   16.3870    7.5270   12.9586 H   0  0  0  0  0  0  0  0  0  0  0  0
  1  3  2  0
  2  3  2  0
  3  4  1  6
  3 18  1  0
  5  6  1  0
  5 14  1  0
  5 17  1  0
  6  7  1  0
  6 13  1  0
  7  8  1  0
  7 15  1  0
  8  9  1  0
  8 16  1  0
  9 10  1  0
  9 17  1  0
 10 18  1  0
 11 12  1  0
 11 13  2  0
 11 14  1  0
  5 19  1  6
  6 20  1  6
  7 21  1  1
  8 22  1  6
  9 23  1  1
 10 24  1  0
 10 25  1  0
 12 26  1  0
 12 27  1  0
 12 28  1  0
 13 29  1  0
 15 30  1  0
 16 31  1  0
M  CHG  2   4  -1  13   1
M  END
>  <filename_input>  (8) 
6Z14_Q4Z_docked.sdf

>  <pdb_id>  (8) 
6Z14_Q4Z

>  <pose_rank>  (8) 
7

>  <num_atoms_heavy>  (8) 
18

>  <num_torsions>  (8) 
3

>  <pose>  (8) 
[15.797072219392758, 11.031780515706052, 10.602514502153712, 1.7975913874785105, 1.5551302494146748, 2.316493912431861, 11.45320425292874, 7.0940138620234015, 14.154255548574502]

>  <energy>  (8) 
-453.7315284879097

>  <inter_energy>  (8) 
-445.14874777783353

>  <intra_energy>  (8) 
5.033330663487899

>  <rmsd>  (8) 
5.9714

>  <sdf_rank>  (8) 
0

$$$$

     RDKit          3D

 31 32  0  0  0  0  0  0  0  0999 V2000
   14.2339   11.5898   14.9579 O   0  0  0  0  0  0  0  0  0  0  0  0
   13.0979   10.3101   13.3305 O   0  0  0  0  0  0  0  0  0  0  0  0
   14.1926   11.1874   13.5681 S   0  0  1  0  0  0  0  0  0  0  0  0
   14.3269   12.3094   12.6687 O   0  0  0  0  0  0  0  0  0  0  0  0
   14.6544    7.2564   10.2828 C   0  0  1  0  0  0  0  0  0  0  0  0
   15.7981    6.7186    9.5171 C   0  0  1  0  0  0  0  0  0  0  0  0
   17.1096    6.9884   10.2435 C   0  0  2  0  0  0  0  0  0  0  0  0
   17.1720    8.4448   10.6630 C   0  0  1  0  0  0  0  0  0  0  0  0
   16.0151    8.7802   11.5980 C   0  0  1  0  0  0  0  0  0  0  0  0
   15.9945   10.2470   11.9567 C   0  0  0  0  0  0  0  0  0  0  0  0
   14.7259    4.9469   10.5911 C   0  0  0  0  0  0  0  0  0  0  0  0
   14.3581    3.5836   11.0571 C   0  0  0  0  0  0  0  0  0  0  0  0
   15.5689    5.2500    9.5340 N   0  0  0  0  0  0  0  0  0  0  0  0
   14.2573    6.1520   11.1623 O   0  0  0  0  0  0  0  0  0  0  0  0
   18.2001    6.7072    9.3859 O   0  0  0  0  0  0  0  0  0  0  0  0
   18.3848    8.6193   11.3899 O   0  0  0  0  0  0  0  0  0  0  0  0
   14.7265    8.4643   11.0241 O   0  0  0  0  0  0  0  0  0  0  0  0
   15.4898   10.3325   13.3108 O   0  0  0  0  0  0  0  0  0  0  0  0
   13.9470    7.5956    9.5118 H   0  0  0  0  0  0  0  0  0  0  0  0
   15.8652    7.1643    8.5136 H   0  0  0  0  0  0  0  0  0  0  0  0
   17.1642    6.3437   11.1331 H   0  0  0  0  0  0  0  0  0  0  0  0
   17.1181    9.0923    9.7754 H   0  0  0  0  0  0  0  0  0  0  0  0
   16.1846    8.1631   12.4928 H   0  0  0  0  0  0  0  0  0  0  0  0
   17.0103   10.6657   11.9028 H   0  0  0  0  0  0  0  0  0  0  0  0
   15.3628   10.8178   11.2602 H   0  0  0  0  0  0  0  0  0  0  0  0
   14.3521    3.5612   12.1569 H   0  0  0  0  0  0  0  0  0  0  0  0
   13.3579    3.3245   10.6796 H   0  0  0  0  0  0  0  0  0  0  0  0
   15.0922    2.8566   10.6796 H   0  0  0  0  0  0  0  0  0  0  0  0
   15.9696    4.5713    8.8710 H   0  0  0  0  0  0  0  0  0  0  0  0
   19.0019    6.5005    9.9284 H   0  0  0  0  0  0  0  0  0  0  0  0
   18.1944    8.5919   12.3611 H   0  0  0  0  0  0  0  0  0  0  0  0
  1  3  2  0
  2  3  2  0
  3  4  1  6
  3 18  1  0
  5  6  1  0
  5 14  1  0
  5 17  1  0
  6  7  1  0
  6 13  1  0
  7  8  1  0
  7 15  1  0
  8  9  1  0
  8 16  1  0
  9 10  1  0
  9 17  1  0
 10 18  1  0
 11 12  1  0
 11 13  2  0
 11 14  1  0
  5 19  1  6
  6 20  1  6
  7 21  1  1
  8 22  1  6
  9 23  1  1
 10 24  1  0
 10 25  1  0
 12 26  1  0
 12 27  1  0
 12 28  1  0
 13 29  1  0
 15 30  1  0
 16 31  1  0
M  CHG  2   4  -1  13   1
M  END
>  <filename_input>  (9) 
6Z14_Q4Z_docked.sdf

>  <pdb_id>  (9) 
6Z14_Q4Z

>  <pose_rank>  (9) 
8

>  <num_atoms_heavy>  (9) 
18

>  <num_torsions>  (9) 
3

>  <pose>  (9) 
[14.654416461747918, 7.256367108713546, 10.282803185981388, -1.5282637256393266, 2.835440147390491, 3.4102787957622733, 0.5414673846788761, 0.6294328849528781, 2.207837750241556]

>  <energy>  (9) 
-490.23826938485087

>  <inter_energy>  (9) 
-473.32802394564624

>  <intra_energy>  (9) 
0.02144092608265321

>  <rmsd>  (9) 
3.19287

>  <sdf_rank>  (9) 
0

$$$$

     RDKit          3D

 31 32  0  0  0  0  0  0  0  0999 V2000
   17.9191    7.8646    7.8453 O   0  0  0  0  0  0  0  0  0  0  0  0
   19.9646    8.0190    9.0151 O   0  0  0  0  0  0  0  0  0  0  0  0
   18.8469    8.7471    8.5200 S   0  0  1  0  0  0  0  0  0  0  0  0
   19.1399    9.9301    7.7450 O   0  0  0  0  0  0  0  0  0  0  0  0
   14.3230   11.2940   11.9525 C   0  0  1  0  0  0  0  0  0  0  0  0
   13.9322   10.1512   12.8038 C   0  0  1  0  0  0  0  0  0  0  0  0
   15.1021    9.1945   12.9948 C   0  0  2  0  0  0  0  0  0  0  0  0
   15.7320    8.8818   11.6508 C   0  0  1  0  0  0  0  0  0  0  0  0
   16.2443   10.1582   10.9924 C   0  0  1  0  0  0  0  0  0  0  0  0
   16.7906    9.8925    9.6097 C   0  0  0  0  0  0  0  0  0  0  0  0
   14.2840   12.0084   14.1710 C   0  0  0  0  0  0  0  0  0  0  0  0
   14.3808   12.8986   15.3582 C   0  0  0  0  0  0  0  0  0  0  0  0
   13.6459   10.7796   14.1202 N   0  0  0  0  0  0  0  0  0  0  0  0
   14.8312   12.2924   12.8990 O   0  0  0  0  0  0  0  0  0  0  0  0
   14.6464    7.9904   13.5832 O   0  0  0  0  0  0  0  0  0  0  0  0
   16.8536    8.0394   11.9002 O   0  0  0  0  0  0  0  0  0  0  0  0
   15.2164   11.1656   10.8574 O   0  0  0  0  0  0  0  0  0  0  0  0
   18.0977    9.2975    9.7911 O   0  0  0  0  0  0  0  0  0  0  0  0
   13.4145   11.5279   11.3781 H   0  0  0  0  0  0  0  0  0  0  0  0
   13.0947    9.5849   12.3703 H   0  0  0  0  0  0  0  0  0  0  0  0
   15.8465    9.6676   13.6521 H   0  0  0  0  0  0  0  0  0  0  0  0
   14.9900    8.4081   10.9913 H   0  0  0  0  0  0  0  0  0  0  0  0
   17.0377   10.5242   11.6606 H   0  0  0  0  0  0  0  0  0  0  0  0
   16.1301    9.2004    9.0667 H   0  0  0  0  0  0  0  0  0  0  0  0
   16.8542   10.8203    9.0223 H   0  0  0  0  0  0  0  0  0  0  0  0
   14.3152   12.2950   16.2754 H   0  0  0  0  0  0  0  0  0  0  0  0
   15.3422   13.4326   15.3387 H   0  0  0  0  0  0  0  0  0  0  0  0
   13.5565   13.6267   15.3387 H   0  0  0  0  0  0  0  0  0  0  0  0
   13.0697   10.3700   14.8693 H   0  0  0  0  0  0  0  0  0  0  0  0
   14.6775    8.0726   14.5693 H   0  0  0  0  0  0  0  0  0  0  0  0
   16.9828    7.9424   12.8770 H   0  0  0  0  0  0  0  0  0  0  0  0
  1  3  2  0
  2  3  2  0
  3  4  1  6
  3 18  1  0
  5  6  1  0
  5 14  1  0
  5 17  1  0
  6  7  1  0
  6 13  1  0
  7  8  1  0
  7 15  1  0
  8  9  1  0
  8 16  1  0
  9 10  1  0
  9 17  1  0
 10 18  1  0
 11 12  1  0
 11 13  2  0
 11 14  1  0
  5 19  1  6
  6 20  1  6
  7 21  1  1
  8 22  1  6
  9 23  1  1
 10 24  1  0
 10 25  1  0
 12 26  1  0
 12 27  1  0
 12 28  1  0
 13 29  1  0
 15 30  1  0
 16 31  1  0
M  CHG  2   4  -1  13   1
M  END
>  <filename_input>  (10) 
6Z14_Q4Z_docked.sdf

>  <pdb_id>  (10) 
6Z14_Q4Z

>  <pose_rank>  (10) 
9

>  <num_atoms_heavy>  (10) 
18

>  <num_torsions>  (10) 
3

>  <pose>  (10) 
[14.323008434926399, 11.294042426921814, 11.95248571337653, 2.901813974386632, 1.9877571218124088, 1.7427187052515818, 1.7603162352647406, -6.79954360949849, -2.2644901001933673]

>  <energy>  (10) 
-472.1994882842869

>  <inter_energy>  (10) 
-461.8030461858231

>  <intra_energy>  (10) 
12.559142269020459

>  <rmsd>  (10) 
6.15806

>  <sdf_rank>  (10) 
0

$$$$

     RDKit          3D

 31 32  0  0  0  0  0  0  0  0999 V2000
   17.0747    7.3738    8.8776 O   0  0  0  0  0  0  0  0  0  0  0  0
   18.3175    8.2788   10.6701 O   0  0  0  0  0  0  0  0  0  0  0  0
   17.9362    8.4534    9.3104 S   0  0  1  0  0  0  0  0  0  0  0  0
   19.0011    8.7149    8.3705 O   0  0  0  0  0  0  0  0  0  0  0  0
   13.1493    8.9574   10.9074 C   0  0  1  0  0  0  0  0  0  0  0  0
   12.4167   10.0225   11.6233 C   0  0  1  0  0  0  0  0  0  0  0  0
   12.9476   11.3971   11.2371 C   0  0  2  0  0  0  0  0  0  0  0  0
   14.4615   11.4057   11.3306 C   0  0  1  0  0  0  0  0  0  0  0  0
   15.0596   10.3663   10.3888 C   0  0  1  0  0  0  0  0  0  0  0  0
   16.5610   10.2838   10.5295 C   0  0  0  0  0  0  0  0  0  0  0  0
   11.0780    9.2459    9.8778 C   0  0  0  0  0  0  0  0  0  0  0  0
    9.9394    9.0504    8.9415 C   0  0  0  0  0  0  0  0  0  0  0  0
   11.0326    9.9100   11.0930 N   0  0  0  0  0  0  0  0  0  0  0  0
   12.3920    8.7702    9.6655 O   0  0  0  0  0  0  0  0  0  0  0  0
   12.4246   12.3774   12.1142 O   0  0  0  0  0  0  0  0  0  0  0  0
   14.9002   12.6902   10.8976 O   0  0  0  0  0  0  0  0  0  0  0  0
   14.5368    9.0388   10.6213 O   0  0  0  0  0  0  0  0  0  0  0  0
   17.0638    9.7640    9.2756 O   0  0  0  0  0  0  0  0  0  0  0  0
   13.1931    8.1270   11.6274 H   0  0  0  0  0  0  0  0  0  0  0  0
   12.5033    9.9169   12.7148 H   0  0  0  0  0  0  0  0  0  0  0  0
   12.6385   11.6224   10.2058 H   0  0  0  0  0  0  0  0  0  0  0  0
   14.7738   11.1811   12.3612 H   0  0  0  0  0  0  0  0  0  0  0  0
   14.7813   10.7036    9.3794 H   0  0  0  0  0  0  0  0  0  0  0  0
   16.9800   11.2824   10.7221 H   0  0  0  0  0  0  0  0  0  0  0  0
   16.8464    9.6360   11.3715 H   0  0  0  0  0  0  0  0  0  0  0  0
    9.0151    8.8916    9.5164 H   0  0  0  0  0  0  0  0  0  0  0  0
    9.8283    9.9426    8.3078 H   0  0  0  0  0  0  0  0  0  0  0  0
   10.1324    8.1722    8.3078 H   0  0  0  0  0  0  0  0  0  0  0  0
   10.1821   10.2661   11.5521 H   0  0  0  0  0  0  0  0  0  0  0  0
   12.5749   12.0957   13.0513 H   0  0  0  0  0  0  0  0  0  0  0  0
   15.0935   13.2561   11.6865 H   0  0  0  0  0  0  0  0  0  0  0  0
  1  3  2  0
  2  3  2  0
  3  4  1  6
  3 18  1  0
  5  6  1  0
  5 14  1  0
  5 17  1  0
  6  7  1  0
  6 13  1  0
  7  8  1  0
  7 15  1  0
  8  9  1  0
  8 16  1  0
  9 10  1  0
  9 17  1  0
 10 18  1  0
 11 12  1  0
 11 13  2  0
 11 14  1  0
  5 19  1  1
  6 20  1  1
  7 21  1  6
  8 22  1  1
  9 23  1  6
 10 24  1  0
 10 25  1  0
 12 26  1  0
 12 27  1  0
 12 28  1  0
 13 29  1  0
 15 30  1  0
 16 31  1  0
M  CHG  2   4  -1  13   1
M  END
>  <filename_input>  (11) 
6Z14_Q4Z_docked.sdf

>  <pdb_id>  (11) 
6Z14_Q4Z

>  <pose_rank>  (11) 
10

>  <num_atoms_heavy>  (11) 
18

>  <num_torsions>  (11) 
3

>  <pose>  (11) 
[13.149257650542253, 8.957409775212396, 10.907405623273112, 0.6410361166406798, 2.3143791559055655, -1.0286830675138252, -12.176553397970201, 0.6001453935703555, -12.131614187313385]

>  <energy>  (11) 
-414.72715624432556

>  <inter_energy>  (11) 
-418.3804855121727

>  <intra_energy>  (11) 
0.0029318803009762647

>  <rmsd>  (11) 
6.27661

>  <sdf_rank>  (11) 
0

$$$$

     RDKit          3D

 31 32  0  0  0  0  0  0  0  0999 V2000
   19.0454    5.9459   10.0854 O   0  0  0  0  0  0  0  0  0  0  0  0
   20.6989    7.4769   10.7914 O   0  0  0  0  0  0  0  0  0  0  0  0
   19.4621    7.3319   10.1031 S   0  0  1  0  0  0  0  0  0  0  0  0
   19.3735    7.9473    8.7995 O   0  0  0  0  0  0  0  0  0  0  0  0
   14.6761   10.6060   10.2123 C   0  0  1  0  0  0  0  0  0  0  0  0
   13.6662   10.4629   11.2816 C   0  0  1  0  0  0  0  0  0  0  0  0
   14.2923    9.8793   12.5417 C   0  0  2  0  0  0  0  0  0  0  0  0
   15.1116    8.6535   12.1854 C   0  0  1  0  0  0  0  0  0  0  0  0
   16.2242    9.0212   11.2097 C   0  0  1  0  0  0  0  0  0  0  0  0
   16.9980    7.8043   10.7611 C   0  0  0  0  0  0  0  0  0  0  0  0
   14.2827   12.7083   11.1392 C   0  0  0  0  0  0  0  0  0  0  0  0
   14.3649   14.1748   11.3715 C   0  0  0  0  0  0  0  0  0  0  0  0
   13.2760   11.8655   11.5818 N   0  0  0  0  0  0  0  0  0  0  0  0
   15.2303   11.9485   10.4161 O   0  0  0  0  0  0  0  0  0  0  0  0
   13.2762    9.5070   13.4543 O   0  0  0  0  0  0  0  0  0  0  0  0
   15.7209    8.1933   13.3883 O   0  0  0  0  0  0  0  0  0  0  0  0
   15.7270    9.6722   10.0187 O   0  0  0  0  0  0  0  0  0  0  0  0
   18.3983    8.1083   10.9665 O   0  0  0  0  0  0  0  0  0  0  0  0
   14.1207   10.4010    9.2852 H   0  0  0  0  0  0  0  0  0  0  0  0
   12.8369    9.8077   10.9768 H   0  0  0  0  0  0  0  0  0  0  0  0
   14.9417   10.6383   13.0022 H   0  0  0  0  0  0  0  0  0  0  0  0
   14.4647    7.8922   11.7250 H   0  0  0  0  0  0  0  0  0  0  0  0
   16.8742    9.7120   11.7669 H   0  0  0  0  0  0  0  0  0  0  0  0
   16.7078    6.9278   11.3590 H   0  0  0  0  0  0  0  0  0  0  0  0
   16.7928    7.5693    9.7063 H   0  0  0  0  0  0  0  0  0  0  0  0
   14.3761   14.3746   12.4531 H   0  0  0  0  0  0  0  0  0  0  0  0
   15.2865   14.5670   10.9166 H   0  0  0  0  0  0  0  0  0  0  0  0
   13.4930   14.6675   10.9166 H   0  0  0  0  0  0  0  0  0  0  0  0
   12.4032   12.1613   12.0419 H   0  0  0  0  0  0  0  0  0  0  0  0
   13.6044    9.6273   14.3805 H   0  0  0  0  0  0  0  0  0  0  0  0
   15.2332    8.5616   14.1671 H   0  0  0  0  0  0  0  0  0  0  0  0
  1  3  2  0
  2  3  2  0
  3  4  1  6
  3 18  1  0
  5  6  1  0
  5 14  1  0
  5 17  1  0
  6  7  1  0
  6 13  1  0
  7  8  1  0
  7 15  1  0
  8  9  1  0
  8 16  1  0
  9 10  1  0
  9 17  1  0
 10 18  1  0
 11 12  1  0
 11 13  2  0
 11 14  1  0
  5 19  1  6
  6 20  1  6
  7 21  1  1
  8 22  1  6
  9 23  1  1
 10 24  1  0
 10 25  1  0
 12 26  1  0
 12 27  1  0
 12 28  1  0
 13 29  1  0
 15 30  1  0
 16 31  1  0
M  CHG  2   4  -1  13   1
M  END
>  <filename_input>  (12) 
6Z14_Q4Z_docked.sdf

>  <pdb_id>  (12) 
6Z14_Q4Z

>  <pose_rank>  (12) 
11

>  <num_atoms_heavy>  (12) 
18

>  <num_torsions>  (12) 
3

>  <pose>  (12) 
[14.67610690488091, 10.606009972963854, 10.212317826810702, 6.763755274440287, 5.321608241122703, 3.5195835212331072, 0.8533364814170686, -6.253478588444763, -2.1126223759046727]

>  <energy>  (12) 
-432.1117879803202

>  <inter_energy>  (12) 
-420.88318323459555

>  <intra_energy>  (12) 
0.0

>  <rmsd>  (12) 
6.27761

>  <sdf_rank>  (12) 
0

$$$$

     RDKit          3D

 31 32  0  0  0  0  0  0  0  0999 V2000
   17.3375    9.2065   12.3137 O   0  0  0  0  0  0  0  0  0  0  0  0
   17.3688    9.9602   10.0759 O   0  0  0  0  0  0  0  0  0  0  0  0
   17.0758    8.8624   10.9323 S   0  0  1  0  0  0  0  0  0  0  0  0
   17.6496    7.5884   10.5669 O   0  0  0  0  0  0  0  0  0  0  0  0
   11.6188    8.7985   11.0158 C   0  0  1  0  0  0  0  0  0  0  0  0
   10.6911    8.8393    9.8663 C   0  0  1  0  0  0  0  0  0  0  0  0
   11.2168    7.9887    8.7171 C   0  0  2  0  0  0  0  0  0  0  0  0
   12.6717    8.3275    8.4536 C   0  0  1  0  0  0  0  0  0  0  0  0
   13.5158    8.0529    9.6934 C   0  0  1  0  0  0  0  0  0  0  0  0
   14.9532    8.4711    9.4938 C   0  0  0  0  0  0  0  0  0  0  0  0
    9.8074    7.4077   11.4823 C   0  0  0  0  0  0  0  0  0  0  0  0
    8.9113    6.4710   12.2110 C   0  0  0  0  0  0  0  0  0  0  0  0
    9.4632    8.1826   10.3865 N   0  0  0  0  0  0  0  0  0  0  0  0
   11.1602    7.6538   11.8097 O   0  0  0  0  0  0  0  0  0  0  0  0
   10.4631    8.2448    7.5466 O   0  0  0  0  0  0  0  0  0  0  0  0
   13.1226    7.4591    7.4180 O   0  0  0  0  0  0  0  0  0  0  0  0
   13.0288    8.7486   10.8632 O   0  0  0  0  0  0  0  0  0  0  0  0
   15.5225    8.6309   10.8151 O   0  0  0  0  0  0  0  0  0  0  0  0
   11.5511    9.8047   11.4551 H   0  0  0  0  0  0  0  0  0  0  0  0
   10.5448    9.8640    9.4941 H   0  0  0  0  0  0  0  0  0  0  0  0
   11.1267    6.9266    8.9887 H   0  0  0  0  0  0  0  0  0  0  0  0
   12.7650    9.3891    8.1812 H   0  0  0  0  0  0  0  0  0  0  0  0
   13.4449    6.9666    9.8509 H   0  0  0  0  0  0  0  0  0  0  0  0
   15.5001    7.6969    8.9356 H   0  0  0  0  0  0  0  0  0  0  0  0
   15.0191    9.4053    8.9168 H   0  0  0  0  0  0  0  0  0  0  0  0
    9.0416    6.6072   13.2947 H   0  0  0  0  0  0  0  0  0  0  0  0
    7.8657    6.6773   11.9386 H   0  0  0  0  0  0  0  0  0  0  0  0
    9.1636    5.4356   11.9386 H   0  0  0  0  0  0  0  0  0  0  0  0
    8.5152    8.2862    9.9974 H   0  0  0  0  0  0  0  0  0  0  0  0
    9.5566    8.5529    7.7986 H   0  0  0  0  0  0  0  0  0  0  0  0
   13.5397    6.6559    7.8191 H   0  0  0  0  0  0  0  0  0  0  0  0
  1  3  2  0
  2  3  2  0
  3  4  1  6
  3 18  1  0
  5  6  1  0
  5 14  1  0
  5 17  1  0
  6  7  1  0
  6 13  1  0
  7  8  1  0
  7 15  1  0
  8  9  1  0
  8 16  1  0
  9 10  1  0
  9 17  1  0
 10 18  1  0
 11 12  1  0
 11 13  2  0
 11 14  1  0
  5 19  1  1
  6 20  1  6
  7 21  1  1
  8 22  1  6
  9 23  1  1
 10 24  1  0
 10 25  1  0
 12 26  1  0
 12 27  1  0
 12 28  1  0
 13 29  1  0
 15 30  1  0
 16 31  1  0
M  CHG  2   4  -1  13   1
M  END
>  <filename_input>  (13) 
6Z14_Q4Z_docked.sdf

>  <pdb_id>  (13) 
6Z14_Q4Z

>  <pose_rank>  (13) 
12

>  <num_atoms_heavy>  (13) 
18

>  <num_torsions>  (13) 
3

>  <pose>  (13) 
[11.618846820062663, 8.798517702894687, 11.015786670302981, 0.7535510405678765, -0.6514355514748829, 3.855352982891538, -0.39307416047085264, -0.5414778766431539, 1.6228472706470298]

>  <energy>  (13) 
-184.90296206545491

>  <inter_energy>  (13) 
-184.31751277922083

>  <intra_energy>  (13) 
0.0

>  <rmsd>  (13) 
6.52987

>  <sdf_rank>  (13) 
0

$$$$

     RDKit          3D

 31 32  0  0  0  0  0  0  0  0999 V2000
   13.9786   10.7130   13.6000 O   0  0  0  0  0  0  0  0  0  0  0  0
   13.4775   12.4495   12.0803 O   0  0  0  0  0  0  0  0  0  0  0  0
   13.9199   11.1032   12.2075 S   0  0  1  0  0  0  0  0  0  0  0  0
   15.1209   10.7483   11.4879 O   0  0  0  0  0  0  0  0  0  0  0  0
   11.0293   10.8845    8.1522 C   0  0  1  0  0  0  0  0  0  0  0  0
   10.7587    9.5082    7.6872 C   0  0  1  0  0  0  0  0  0  0  0  0
    9.9811    8.7259    8.7378 C   0  0  2  0  0  0  0  0  0  0  0  0
   10.6448    8.8884   10.0921 C   0  0  1  0  0  0  0  0  0  0  0  0
   10.6755   10.3580   10.4976 C   0  0  1  0  0  0  0  0  0  0  0  0
   11.4163   10.5630   11.7976 C   0  0  0  0  0  0  0  0  0  0  0  0
    9.2759   10.9574    6.6180 C   0  0  0  0  0  0  0  0  0  0  0  0
    8.2043   11.4971    5.7396 C   0  0  0  0  0  0  0  0  0  0  0  0
    9.8616    9.7056    6.5185 N   0  0  0  0  0  0  0  0  0  0  0  0
    9.8681   11.6550    7.6953 O   0  0  0  0  0  0  0  0  0  0  0  0
    9.9596    7.3526    8.3953 O   0  0  0  0  0  0  0  0  0  0  0  0
    9.8399    8.1915   11.0389 O   0  0  0  0  0  0  0  0  0  0  0  0
   11.3143   11.1951    9.5073 O   0  0  0  0  0  0  0  0  0  0  0  0
   12.7991   10.2197   11.5417 O   0  0  0  0  0  0  0  0  0  0  0  0
   12.0177   11.1234    7.7326 H   0  0  0  0  0  0  0  0  0  0  0  0
   11.6868    8.9593    7.4698 H   0  0  0  0  0  0  0  0  0  0  0  0
    8.9517    9.1114    8.7807 H   0  0  0  0  0  0  0  0  0  0  0  0
   11.6744    8.5033   10.0525 H   0  0  0  0  0  0  0  0  0  0  0  0
    9.6191   10.6463   10.6021 H   0  0  0  0  0  0  0  0  0  0  0  0
   11.3384   11.6124   12.1179 H   0  0  0  0  0  0  0  0  0  0  0  0
   10.9935    9.9391   12.5988 H   0  0  0  0  0  0  0  0  0  0  0  0
    7.3930   11.9058    6.3598 H   0  0  0  0  0  0  0  0  0  0  0  0
    8.6177   12.2946    5.1046 H   0  0  0  0  0  0  0  0  0  0  0  0
    7.8096   10.6903    5.1046 H   0  0  0  0  0  0  0  0  0  0  0  0
    9.7020    9.0257    5.7615 H   0  0  0  0  0  0  0  0  0  0  0  0
    9.9511    6.8066    9.2211 H   0  0  0  0  0  0  0  0  0  0  0  0
   10.1224    8.4362   11.9556 H   0  0  0  0  0  0  0  0  0  0  0  0
  1  3  2  0
  2  3  2  0
  3  4  1  6
  3 18  1  0
  5  6  1  0
  5 14  1  0
  5 17  1  0
  6  7  1  0
  6 13  1  0
  7  8  1  0
  7 15  1  0
  8  9  1  0
  8 16  1  0
  9 10  1  0
  9 17  1  0
 10 18  1  0
 11 12  1  0
 11 13  2  0
 11 14  1  0
  5 19  1  6
  6 20  1  6
  7 21  1  1
  8 22  1  6
  9 23  1  1
 10 24  1  0
 10 25  1  0
 12 26  1  0
 12 27  1  0
 12 28  1  0
 13 29  1  0
 15 30  1  0
 16 31  1  0
M  CHG  2   4  -1  13   1
M  END
>  <filename_input>  (14) 
6Z14_Q4Z_docked.sdf

>  <pdb_id>  (14) 
6Z14_Q4Z

>  <pose_rank>  (14) 
13

>  <num_atoms_heavy>  (14) 
18

>  <num_torsions>  (14) 
3

>  <pose>  (14) 
[11.029339723024647, 10.884488180518769, 8.152195997028084, 0.5147992351139019, -2.349839399709411, -2.592184639047893, -2.0253099497126463, -1.073556091569071, -0.027801367403933158]

>  <energy>  (14) 
-256.8056530260054

>  <inter_energy>  (14) 
-255.46323380678857

>  <intra_energy>  (14) 
0.0

>  <rmsd>  (14) 
7.37866

>  <sdf_rank>  (14) 
0

$$$$

     RDKit          3D

 31 32  0  0  0  0  0  0  0  0999 V2000
   18.2434    7.1399   10.0788 O   0  0  0  0  0  0  0  0  0  0  0  0
   18.2623    9.3322    9.2014 O   0  0  0  0  0  0  0  0  0  0  0  0
   17.4386    8.2732    9.6753 S   0  0  1  0  0  0  0  0  0  0  0  0
   16.3339    7.8871    8.8288 O   0  0  0  0  0  0  0  0  0  0  0  0
   13.3084    9.7321   12.7821 C   0  0  1  0  0  0  0  0  0  0  0  0
   12.7894   11.0968   13.0096 C   0  0  1  0  0  0  0  0  0  0  0  0
   13.2271   12.0348   11.8920 C   0  0  2  0  0  0  0  0  0  0  0  0
   14.7173   11.8847   11.6522 C   0  0  1  0  0  0  0  0  0  0  0  0
   15.0507   10.4523   11.2494 C   0  0  1  0  0  0  0  0  0  0  0  0
   16.5392   10.2473   11.0973 C   0  0  0  0  0  0  0  0  0  0  0  0
   11.0513    9.7674   12.2010 C   0  0  0  0  0  0  0  0  0  0  0  0
    9.7145    9.3024   11.7450 C   0  0  0  0  0  0  0  0  0  0  0  0
   11.3159   10.9307   12.9057 N   0  0  0  0  0  0  0  0  0  0  0  0
   12.2659    9.0773   11.9852 O   0  0  0  0  0  0  0  0  0  0  0  0
   12.9497   13.3749   12.2539 O   0  0  0  0  0  0  0  0  0  0  0  0
   15.0529   12.7344   10.5589 O   0  0  0  0  0  0  0  0  0  0  0  0
   14.5836    9.4807   12.2124 O   0  0  0  0  0  0  0  0  0  0  0  0
   16.7481    8.8196   10.9810 O   0  0  0  0  0  0  0  0  0  0  0  0
   13.5173    9.3493   13.7920 H   0  0  0  0  0  0  0  0  0  0  0  0
   13.1410   11.5151   13.9643 H   0  0  0  0  0  0  0  0  0  0  0  0
   12.6763   11.7789   10.9749 H   0  0  0  0  0  0  0  0  0  0  0  0
   15.2710   12.1404   12.5676 H   0  0  0  0  0  0  0  0  0  0  0  0
   14.5367   10.3000   10.2889 H   0  0  0  0  0  0  0  0  0  0  0  0
   16.9028   10.7593   10.1942 H   0  0  0  0  0  0  0  0  0  0  0  0
   17.0874   10.6606   11.9567 H   0  0  0  0  0  0  0  0  0  0  0  0
    9.0845    9.0832   12.6197 H   0  0  0  0  0  0  0  0  0  0  0  0
    9.2400   10.0882   11.1390 H   0  0  0  0  0  0  0  0  0  0  0  0
    9.8301    8.3917   11.1390 H   0  0  0  0  0  0  0  0  0  0  0  0
   10.6097   11.5729   13.2927 H   0  0  0  0  0  0  0  0  0  0  0  0
   12.9334   13.4537   13.2406 H   0  0  0  0  0  0  0  0  0  0  0  0
   15.3938   13.5973   10.9042 H   0  0  0  0  0  0  0  0  0  0  0  0
  1  3  2  0
  2  3  2  0
  3  4  1  6
  3 18  1  0
  5  6  1  0
  5 14  1  0
  5 17  1  0
  6  7  1  0
  6 13  1  0
  7  8  1  0
  7 15  1  0
  8  9  1  0
  8 16  1  0
  9 10  1  0
  9 17  1  0
 10 18  1  0
 11 12  1  0
 11 13  2  0
 11 14  1  0
  5 19  1  1
  6 20  1  1
  7 21  1  6
  8 22  1  1
  9 23  1  6
 10 24  1  0
 10 25  1  0
 12 26  1  0
 12 27  1  0
 12 28  1  0
 13 29  1  0
 15 30  1  0
 16 31  1  0
M  CHG  2   4  -1  13   1
M  END
>  <filename_input>  (15) 
6Z14_Q4Z_docked.sdf

>  <pdb_id>  (15) 
6Z14_Q4Z

>  <pose_rank>  (15) 
14

>  <num_atoms_heavy>  (15) 
18

>  <num_torsions>  (15) 
3

>  <pose>  (15) 
[13.308438978916913, 9.732138664536137, 12.782148161436485, -0.5355022953392174, -2.686825167664566, 2.2328648225538332, -0.23055096002596062, -1.42842863234646, 1.1804465138503752]

>  <energy>  (15) 
-461.05641798080336

>  <inter_energy>  (15) 
-451.7497572184427

>  <intra_energy>  (15) 
0.0

>  <rmsd>  (15) 
6.30186

>  <sdf_rank>  (15) 
0

$$$$

     RDKit          3D

 31 32  0  0  0  0  0  0  0  0999 V2000
    7.2857   13.3462    1.4615 O   0  0  0  0  0  0  0  0  0  0  0  0
    9.5264   13.3049    2.2057 O   0  0  0  0  0  0  0  0  0  0  0  0
    8.1870   13.6320    2.5573 S   0  0  1  0  0  0  0  0  0  0  0  0
    7.9697   14.9455    3.1172 O   0  0  0  0  0  0  0  0  0  0  0  0
    7.5653    9.3960    6.6380 C   0  0  1  0  0  0  0  0  0  0  0  0
    8.4682    8.2383    6.4710 C   0  0  1  0  0  0  0  0  0  0  0  0
    9.6545    8.6012    5.5870 C   0  0  2  0  0  0  0  0  0  0  0  0
    9.1629    9.2915    4.3289 C   0  0  1  0  0  0  0  0  0  0  0  0
    8.4058   10.5671    4.6821 C   0  0  1  0  0  0  0  0  0  0  0  0
    7.8207   11.2266    3.4559 C   0  0  0  0  0  0  0  0  0  0  0  0
    8.8288    9.1615    8.5828 C   0  0  0  0  0  0  0  0  0  0  0  0
    9.3459    9.4051    9.9555 C   0  0  0  0  0  0  0  0  0  0  0  0
    8.9868    8.0003    7.8436 N   0  0  0  0  0  0  0  0  0  0  0  0
    8.0832   10.0902    7.8215 O   0  0  0  0  0  0  0  0  0  0  0  0
   10.3601    7.4285    5.2253 O   0  0  0  0  0  0  0  0  0  0  0  0
   10.3153    9.6623    3.5776 O   0  0  0  0  0  0  0  0  0  0  0  0
    7.3141   10.3300    5.5995 O   0  0  0  0  0  0  0  0  0  0  0  0
    7.7988   12.6488    3.7246 O   0  0  0  0  0  0  0  0  0  0  0  0
    6.5602    8.9516    6.6863 H   0  0  0  0  0  0  0  0  0  0  0  0
    7.9532    7.3792    6.0162 H   0  0  0  0  0  0  0  0  0  0  0  0
   10.3215    9.2759    6.1437 H   0  0  0  0  0  0  0  0  0  0  0  0
    8.4960    8.6189    3.7696 H   0  0  0  0  0  0  0  0  0  0  0  0
    9.1538   11.2199    5.1556 H   0  0  0  0  0  0  0  0  0  0  0  0
    8.4464   11.0158    2.5761 H   0  0  0  0  0  0  0  0  0  0  0  0
    6.8106   10.8464    3.2437 H   0  0  0  0  0  0  0  0  0  0  0  0
    8.6073    9.0572   10.6927 H   0  0  0  0  0  0  0  0  0  0  0  0
   10.2892    8.8568   10.0947 H   0  0  0  0  0  0  0  0  0  0  0  0
    9.5237   10.4817   10.0947 H   0  0  0  0  0  0  0  0  0  0  0  0
    9.3952    7.1195    8.1877 H   0  0  0  0  0  0  0  0  0  0  0  0
   10.6475    6.9508    6.0433 H   0  0  0  0  0  0  0  0  0  0  0  0
   11.0507    9.8989    4.1965 H   0  0  0  0  0  0  0  0  0  0  0  0
  1  3  2  0
  2  3  2  0
  3  4  1  1
  3 18  1  0
  5  6  1  0
  5 14  1  0
  5 17  1  0
  6  7  1  0
  6 13  1  0
  7  8  1  0
  7 15  1  0
  8  9  1  0
  8 16  1  0
  9 10  1  0
  9 17  1  0
 10 18  1  0
 11 12  1  0
 11 13  2  0
 11 14  1  0
  5 19  1  1
  6 20  1  6
  7 21  1  1
  8 22  1  6
  9 23  1  1
 10 24  1  0
 10 25  1  0
 12 26  1  0
 12 27  1  0
 12 28  1  0
 13 29  1  0
 15 30  1  0
 16 31  1  0
M  CHG  2   4  -1  13   1
M  END
>  <filename_input>  (16) 
6Z14_Q4Z_docked.sdf

>  <pdb_id>  (16) 
6Z14_Q4Z

>  <pose_rank>  (16) 
15

>  <num_atoms_heavy>  (16) 
18

>  <num_torsions>  (16) 
3

>  <pose>  (16) 
[7.565289212165053, 9.395995279476763, 6.638002217677333, 3.448220646874818, 3.502567135963586, 1.119042635110604, -5.78716791248917, -1.0924410888836689, -0.36146298355947426]

>  <energy>  (16) 
-67.45380759458126

>  <inter_energy>  (16) 
-67.89716332210693

>  <intra_energy>  (16) 
0.0

>  <rmsd>  (16) 
10.8409

>  <sdf_rank>  (16) 
0

$$$$

     RDKit          3D

 31 32  0  0  0  0  0  0  0  0999 V2000
   25.4979   15.3170    7.9860 O   0  0  0  0  0  0  0  0  0  0  0  0
   24.2141   16.9132    9.1608 O   0  0  0  0  0  0  0  0  0  0  0  0
   25.4900   16.6279    8.5995 S   0  0  1  0  0  0  0  0  0  0  0  0
   26.6333   16.8386    9.4566 O   0  0  0  0  0  0  0  0  0  0  0  0
   23.1104   15.9252    4.0135 C   0  0  1  0  0  0  0  0  0  0  0  0
   23.3919   16.6567    2.7608 C   0  0  1  0  0  0  0  0  0  0  0  0
   24.7013   17.4277    2.8676 C   0  0  2  0  0  0  0  0  0  0  0  0
   24.7242   18.2207    4.1605 C   0  0  1  0  0  0  0  0  0  0  0  0
   24.6049   17.2874    5.3604 C   0  0  1  0  0  0  0  0  0  0  0  0
   24.5277   18.0547    6.6589 C   0  0  0  0  0  0  0  0  0  0  0  0
   23.9018   14.4038    2.4347 C   0  0  0  0  0  0  0  0  0  0  0  0
   24.3184   13.1186    1.8133 C   0  0  0  0  0  0  0  0  0  0  0  0
   23.5882   15.5736    1.7617 N   0  0  0  0  0  0  0  0  0  0  0  0
   23.7559   14.6220    3.8236 O   0  0  0  0  0  0  0  0  0  0  0  0
   24.8234   18.3201    1.7757 O   0  0  0  0  0  0  0  0  0  0  0  0
   25.9927   18.8651    4.2338 O   0  0  0  0  0  0  0  0  0  0  0  0
   23.4330   16.4436    5.2945 O   0  0  0  0  0  0  0  0  0  0  0  0
   25.6875   17.6688    7.4344 O   0  0  0  0  0  0  0  0  0  0  0  0
   22.0151   15.9612    4.1086 H   0  0  0  0  0  0  0  0  0  0  0  0
   22.5930   17.3721    2.5157 H   0  0  0  0  0  0  0  0  0  0  0  0
   25.5380   16.7136    2.8558 H   0  0  0  0  0  0  0  0  0  0  0  0
   23.8887   18.9361    4.1752 H   0  0  0  0  0  0  0  0  0  0  0  0
   25.5121   16.6662    5.3288 H   0  0  0  0  0  0  0  0  0  0  0  0
   24.5450   19.1369    6.4623 H   0  0  0  0  0  0  0  0  0  0  0  0
   23.5959   17.8302    7.1986 H   0  0  0  0  0  0  0  0  0  0  0  0
   24.5547   12.3895    2.6023 H   0  0  0  0  0  0  0  0  0  0  0  0
   23.4999   12.7309    1.1890 H   0  0  0  0  0  0  0  0  0  0  0  0
   25.2087   13.2848    1.1890 H   0  0  0  0  0  0  0  0  0  0  0  0
   23.5051   15.6758    0.7402 H   0  0  0  0  0  0  0  0  0  0  0  0
   24.9495   19.2415    2.1150 H   0  0  0  0  0  0  0  0  0  0  0  0
   26.2438   18.9927    5.1829 H   0  0  0  0  0  0  0  0  0  0  0  0
  1  3  2  0
  2  3  2  0
  3  4  1  1
  3 18  1  0
  5  6  1  0
  5 14  1  0
  5 17  1  0
  6  7  1  0
  6 13  1  0
  7  8  1  0
  7 15  1  0
  8  9  1  0
  8 16  1  0
  9 10  1  0
  9 17  1  0
 10 18  1  0
 11 12  1  0
 11 13  2  0
 11 14  1  0
  5 19  1  1
  6 20  1  6
  7 21  1  1
  8 22  1  6
  9 23  1  1
 10 24  1  0
 10 25  1  0
 12 26  1  0
 12 27  1  0
 12 28  1  0
 13 29  1  0
 15 30  1  0
 16 31  1  0
M  CHG  2   4  -1  13   1
M  END
>  <filename_input>  (17) 
6Z14_Q4Z_docked.sdf

>  <pdb_id>  (17) 
6Z14_Q4Z

>  <pose_rank>  (17) 
16

>  <num_atoms_heavy>  (17) 
18

>  <num_torsions>  (17) 
3

>  <pose>  (17) 
[23.11043046023957, 15.925173621994468, 4.013483241524603, 0.8066387270004411, 0.23340403336162613, -1.0155241546967633, -5.23632466769417, 0.9758747336161515, 0.07595322489908496]

>  <energy>  (17) 
-176.24783691117327

>  <inter_energy>  (17) 
-139.82018184933122

>  <intra_energy>  (17) 
1.176174788222867

>  <rmsd>  (17) 
12.7045

>  <sdf_rank>  (17) 
0

$$$$

     RDKit          3D

 31 32  0  0  0  0  0  0  0  0999 V2000
   16.2111    4.5127   19.0671 O   0  0  0  0  0  0  0  0  0  0  0  0
   16.1964    2.6762   20.5515 O   0  0  0  0  0  0  0  0  0  0  0  0
   15.6698    3.9731   20.2963 S   0  0  1  0  0  0  0  0  0  0  0  0
   15.7325    4.9203   21.3848 O   0  0  0  0  0  0  0  0  0  0  0  0
   12.2519    3.1392   16.9179 C   0  0  1  0  0  0  0  0  0  0  0  0
   12.7604    2.0261   16.0897 C   0  0  1  0  0  0  0  0  0  0  0  0
   12.8675    0.7470   16.9101 C   0  0  2  0  0  0  0  0  0  0  0  0
   13.5878    1.0341   18.2138 C   0  0  1  0  0  0  0  0  0  0  0  0
   12.8255    2.0756   19.0258 C   0  0  1  0  0  0  0  0  0  0  0  0
   13.5676    2.4538   20.2856 C   0  0  0  0  0  0  0  0  0  0  0  0
   10.5117    2.3688   15.5718 C   0  0  0  0  0  0  0  0  0  0  0  0
    9.1659    2.2570   14.9494 C   0  0  0  0  0  0  0  0  0  0  0  0
   11.6875    1.8244   15.0808 N   0  0  0  0  0  0  0  0  0  0  0  0
   10.7947    3.0630   16.7701 O   0  0  0  0  0  0  0  0  0  0  0  0
   13.5937   -0.2285   16.1857 O   0  0  0  0  0  0  0  0  0  0  0  0
   13.5994   -0.1787   18.9614 O   0  0  0  0  0  0  0  0  0  0  0  0
   12.5926    3.2958   18.2866 O   0  0  0  0  0  0  0  0  0  0  0  0
   14.1272    3.7687   20.0545 O   0  0  0  0  0  0  0  0  0  0  0  0
   12.7745    4.0263   16.5308 H   0  0  0  0  0  0  0  0  0  0  0  0
   13.7530    2.2475   15.6706 H   0  0  0  0  0  0  0  0  0  0  0  0
   11.8550    0.3721   17.1207 H   0  0  0  0  0  0  0  0  0  0  0  0
   14.6010    1.4089   18.0065 H   0  0  0  0  0  0  0  0  0  0  0  0
   11.8643    1.5991   19.2686 H   0  0  0  0  0  0  0  0  0  0  0  0
   12.8760    2.4801   21.1405 H   0  0  0  0  0  0  0  0  0  0  0  0
   14.3551    1.7218   20.5181 H   0  0  0  0  0  0  0  0  0  0  0  0
    8.4014    2.1935   15.7378 H   0  0  0  0  0  0  0  0  0  0  0  0
    8.9760    3.1424   14.3250 H   0  0  0  0  0  0  0  0  0  0  0  0
    9.1247    1.3523   14.3250 H   0  0  0  0  0  0  0  0  0  0  0  0
   11.7993    1.3580   14.1693 H   0  0  0  0  0  0  0  0  0  0  0  0
   14.0482   -0.8390   16.8188 H   0  0  0  0  0  0  0  0  0  0  0  0
   13.5974    0.0302   19.9291 H   0  0  0  0  0  0  0  0  0  0  0  0
  1  3  2  0
  2  3  2  0
  3  4  1  1
  3 18  1  0
  5  6  1  0
  5 14  1  0
  5 17  1  0
  6  7  1  0
  6 13  1  0
  7  8  1  0
  7 15  1  0
  8  9  1  0
  8 16  1  0
  9 10  1  0
  9 17  1  0
 10 18  1  0
 11 12  1  0
 11 13  2  0
 11 14  1  0
  5 19  1  6
  6 20  1  6
  7 21  1  1
  8 22  1  6
  9 23  1  1
 10 24  1  0
 10 25  1  0
 12 26  1  0
 12 27  1  0
 12 28  1  0
 13 29  1  0
 15 30  1  0
 16 31  1  0
M  CHG  2   4  -1  13   1
M  END
>  <filename_input>  (18) 
6Z14_Q4Z_docked.sdf

>  <pdb_id>  (18) 
6Z14_Q4Z

>  <pose_rank>  (18) 
17

>  <num_atoms_heavy>  (18) 
18

>  <num_torsions>  (18) 
3

>  <pose>  (18) 
[12.25186449107454, 3.139187179889781, 16.917934272192127, -0.8945887993360362, 1.6040896707311316, 2.758849665238126, -1.338229775659448, 0.5370091375771332, 0.823580178861065]

>  <energy>  (18) 
-155.79891174875812

>  <inter_energy>  (18) 
-134.31233947350177

>  <intra_energy>  (18) 
0.0

>  <rmsd>  (18) 
11.5196

>  <sdf_rank>  (18) 
0

$$$$

     RDKit          3D

 31 32  0  0  0  0  0  0  0  0999 V2000
   24.7004   13.6859    9.0461 O   0  0  0  0  0  0  0  0  0  0  0  0
   26.5689   15.0388    9.5511 O   0  0  0  0  0  0  0  0  0  0  0  0
   25.9173   14.2820    8.5375 S   0  0  1  0  0  0  0  0  0  0  0  0
   26.7328   13.3326    7.8169 O   0  0  0  0  0  0  0  0  0  0  0  0
   24.1464   17.0701    4.1500 C   0  0  1  0  0  0  0  0  0  0  0  0
   23.2707   18.0798    4.7803 C   0  0  1  0  0  0  0  0  0  0  0  0
   24.0411   18.8956    5.8107 C   0  0  2  0  0  0  0  0  0  0  0  0
   24.8092   17.9649    6.7298 C   0  0  1  0  0  0  0  0  0  0  0  0
   25.7986   17.1237    5.9306 C   0  0  1  0  0  0  0  0  0  0  0  0
   26.5105   16.1188    6.8048 C   0  0  0  0  0  0  0  0  0  0  0  0
   23.8712   18.8399    2.6581 C   0  0  0  0  0  0  0  0  0  0  0  0
   23.9840   19.6635    1.4252 C   0  0  0  0  0  0  0  0  0  0  0  0
   22.9224   18.9887    3.6568 N   0  0  0  0  0  0  0  0  0  0  0  0
   24.7240   17.7640    2.9943 O   0  0  0  0  0  0  0  0  0  0  0  0
   23.1401   19.6678    6.5826 O   0  0  0  0  0  0  0  0  0  0  0  0
   25.5564   18.7836    7.6250 O   0  0  0  0  0  0  0  0  0  0  0  0
   25.1645   16.3846    4.8623 O   0  0  0  0  0  0  0  0  0  0  0  0
   25.4811   15.3235    7.4398 O   0  0  0  0  0  0  0  0  0  0  0  0
   23.4840   16.2104    3.9707 H   0  0  0  0  0  0  0  0  0  0  0  0
   22.4095   17.6176    5.2849 H   0  0  0  0  0  0  0  0  0  0  0  0
   24.7425   19.5616    5.2868 H   0  0  0  0  0  0  0  0  0  0  0  0
   24.1103   17.2978    7.2555 H   0  0  0  0  0  0  0  0  0  0  0  0
   26.5119   17.8473    5.5093 H   0  0  0  0  0  0  0  0  0  0  0  0
   27.1626   15.4779    6.1933 H   0  0  0  0  0  0  0  0  0  0  0  0
   27.1435   16.6197    7.5520 H   0  0  0  0  0  0  0  0  0  0  0  0
   24.1285   20.7185    1.7009 H   0  0  0  0  0  0  0  0  0  0  0  0
   24.8433   19.3187    0.8313 H   0  0  0  0  0  0  0  0  0  0  0  0
   23.0636   19.5624    0.8313 H   0  0  0  0  0  0  0  0  0  0  0  0
   22.1113   19.6228    3.6259 H   0  0  0  0  0  0  0  0  0  0  0  0
   23.3165   19.5166    7.5449 H   0  0  0  0  0  0  0  0  0  0  0  0
   25.3341   18.5400    8.5584 H   0  0  0  0  0  0  0  0  0  0  0  0
  1  3  2  0
  2  3  2  0
  3  4  1  6
  3 18  1  0
  5  6  1  0
  5 14  1  0
  5 17  1  0
  6  7  1  0
  6 13  1  0
  7  8  1  0
  7 15  1  0
  8  9  1  0
  8 16  1  0
  9 10  1  0
  9 17  1  0
 10 18  1  0
 11 12  1  0
 11 13  2  0
 11 14  1  0
  5 19  1  6
  6 20  1  1
  7 21  1  6
  8 22  1  1
  9 23  1  6
 10 24  1  0
 10 25  1  0
 12 26  1  0
 12 27  1  0
 12 28  1  0
 13 29  1  0
 15 30  1  0
 16 31  1  0
M  CHG  2   4  -1  13   1
M  END
>  <filename_input>  (19) 
6Z14_Q4Z_docked.sdf

>  <pdb_id>  (19) 
6Z14_Q4Z

>  <pose_rank>  (19) 
18

>  <num_atoms_heavy>  (19) 
18

>  <num_torsions>  (19) 
3

>  <pose>  (19) 
[24.14637614750192, 17.070124773059266, 4.150004553604529, 1.5388764588039, 1.6565814927022304, -0.06356678347884177, 4.0887972377570705, -0.2777318321058155, 1.733440550003345]

>  <energy>  (19) 
-115.12873632390705

>  <inter_energy>  (19) 
-111.37616222025076

>  <intra_energy>  (19) 
0.0

>  <rmsd>  (19) 
13.2979

>  <sdf_rank>  (19) 
0

$$$$

     RDKit          3D

 31 32  0  0  0  0  0  0  0  0999 V2000
   24.6660   18.5457   11.6035 O   0  0  0  0  0  0  0  0  0  0  0  0
   26.3858   19.7371   10.5084 O   0  0  0  0  0  0  0  0  0  0  0  0
   25.8094   18.4537   10.7209 S   0  0  1  0  0  0  0  0  0  0  0  0
   26.7146   17.3959   11.1053 O   0  0  0  0  0  0  0  0  0  0  0  0
   25.8481   16.7118    5.8843 C   0  0  1  0  0  0  0  0  0  0  0  0
   26.5903   15.4347    5.8415 C   0  0  1  0  0  0  0  0  0  0  0  0
   25.9034   14.3813    6.7011 C   0  0  2  0  0  0  0  0  0  0  0  0
   25.5884   14.9612    8.0668 C   0  0  1  0  0  0  0  0  0  0  0  0
   24.6629   16.1658    7.9338 C   0  0  1  0  0  0  0  0  0  0  0  0
   24.4080   16.8240    9.2689 C   0  0  0  0  0  0  0  0  0  0  0  0
   25.3790   15.6555    3.8600 C   0  0  0  0  0  0  0  0  0  0  0  0
   24.8130   15.4068    2.5076 C   0  0  0  0  0  0  0  0  0  0  0  0
   26.4667   15.0076    4.4230 N   0  0  0  0  0  0  0  0  0  0  0  0
   24.8874   16.6084    4.7810 O   0  0  0  0  0  0  0  0  0  0  0  0
   26.7546   13.2614    6.8595 O   0  0  0  0  0  0  0  0  0  0  0  0
   24.8929   13.9556    8.7982 O   0  0  0  0  0  0  0  0  0  0  0  0
   25.1947   17.1813    7.0533 O   0  0  0  0  0  0  0  0  0  0  0  0
   25.2574   17.9951    9.3191 O   0  0  0  0  0  0  0  0  0  0  0  0
   26.6309   17.4826    5.8302 H   0  0  0  0  0  0  0  0  0  0  0  0
   27.6234   15.5490    6.2013 H   0  0  0  0  0  0  0  0  0  0  0  0
   24.9715   14.0693    6.2068 H   0  0  0  0  0  0  0  0  0  0  0  0
   26.5185   15.2738    8.5639 H   0  0  0  0  0  0  0  0  0  0  0  0
   23.7294   15.7622    7.5145 H   0  0  0  0  0  0  0  0  0  0  0  0
   23.3512   17.1174    9.3523 H   0  0  0  0  0  0  0  0  0  0  0  0
   24.6284   16.1372   10.0994 H   0  0  0  0  0  0  0  0  0  0  0  0
   23.8100   14.9659    2.6053 H   0  0  0  0  0  0  0  0  0  0  0  0
   24.7438   16.3574    1.9585 H   0  0  0  0  0  0  0  0  0  0  0  0
   25.4666   14.7129    1.9585 H   0  0  0  0  0  0  0  0  0  0  0  0
   27.0860   14.3416    3.9396 H   0  0  0  0  0  0  0  0  0  0  0  0
   26.8898   13.0835    7.8239 H   0  0  0  0  0  0  0  0  0  0  0  0
   25.0043   14.1168    9.7686 H   0  0  0  0  0  0  0  0  0  0  0  0
  1  3  2  0
  2  3  2  0
  3  4  1  1
  3 18  1  0
  5  6  1  0
  5 14  1  0
  5 17  1  0
  6  7  1  0
  6 13  1  0
  7  8  1  0
  7 15  1  0
  8  9  1  0
  8 16  1  0
  9 10  1  0
  9 17  1  0
 10 18  1  0
 11 12  1  0
 11 13  2  0
 11 14  1  0
  5 19  1  6
  6 20  1  1
  7 21  1  6
  8 22  1  1
  9 23  1  6
 10 24  1  0
 10 25  1  0
 12 26  1  0
 12 27  1  0
 12 28  1  0
 13 29  1  0
 15 30  1  0
 16 31  1  0
M  CHG  2   4  -1  13   1
M  END
>  <filename_input>  (20) 
6Z14_Q4Z_docked.sdf

>  <pdb_id>  (20) 
6Z14_Q4Z

>  <pose_rank>  (20) 
19

>  <num_atoms_heavy>  (20) 
18

>  <num_torsions>  (20) 
3

>  <pose>  (20) 
[25.848061864592285, 16.711757624101665, 5.884319960475569, -1.5436121283229696, 1.6996096609547553, 1.8103695758772482, -1.4100317778753262, 0.16071248713275718, -2.257870491677482]

>  <energy>  (20) 
-120.938273833622

>  <inter_energy>  (20) 
-106.86259929149078

>  <intra_energy>  (20) 
0.0

>  <rmsd>  (20) 
12.2983

>  <sdf_rank>  (20) 
0

$$$$

     RDKit          3D

 31 32  0  0  0  0  0  0  0  0999 V2000
   24.2565   19.3298    3.2631 O   0  0  0  0  0  0  0  0  0  0  0  0
   22.7690   19.4617    5.0923 O   0  0  0  0  0  0  0  0  0  0  0  0
   23.8296   18.7181    4.5035 S   0  0  1  0  0  0  0  0  0  0  0  0
   23.6229   17.2950    4.3699 O   0  0  0  0  0  0  0  0  0  0  0  0
   23.8260   17.3950    9.8126 C   0  0  1  0  0  0  0  0  0  0  0  0
   24.8647   17.9327   10.7157 C   0  0  1  0  0  0  0  0  0  0  0  0
   25.6333   19.0629   10.0431 C   0  0  2  0  0  0  0  0  0  0  0  0
   26.0686   18.6309    8.6557 C   0  0  1  0  0  0  0  0  0  0  0  0
   24.8549   18.2854    7.7997 C   0  0  1  0  0  0  0  0  0  0  0  0
   25.2600   17.7595    6.4432 C   0  0  0  0  0  0  0  0  0  0  0  0
   22.7925   18.7660   11.3893 C   0  0  0  0  0  0  0  0  0  0  0  0
   21.7271   19.4836   12.1383 C   0  0  0  0  0  0  0  0  0  0  0  0
   24.0826   18.5238   11.8330 N   0  0  0  0  0  0  0  0  0  0  0  0
   22.6415   18.2113   10.0980 O   0  0  0  0  0  0  0  0  0  0  0  0
   26.7800   19.3852   10.8080 O   0  0  0  0  0  0  0  0  0  0  0  0
   26.7221   19.7459    8.0560 O   0  0  0  0  0  0  0  0  0  0  0  0
   24.0109   17.2831    8.4100 O   0  0  0  0  0  0  0  0  0  0  0  0
   25.0415   18.8373    5.5020 O   0  0  0  0  0  0  0  0  0  0  0  0
   23.7933   16.3205   10.0457 H   0  0  0  0  0  0  0  0  0  0  0  0
   25.5870   17.1592   11.0157 H   0  0  0  0  0  0  0  0  0  0  0  0
   24.9797   19.9445    9.9689 H   0  0  0  0  0  0  0  0  0  0  0  0
   26.7230   17.7495    8.7266 H   0  0  0  0  0  0  0  0  0  0  0  0
   24.2988   19.2293    7.7009 H   0  0  0  0  0  0  0  0  0  0  0  0
   26.3212   17.4698    6.4494 H   0  0  0  0  0  0  0  0  0  0  0  0
   24.6744   16.8690    6.1709 H   0  0  0  0  0  0  0  0  0  0  0  0
   21.8977   19.3687   13.2189 H   0  0  0  0  0  0  0  0  0  0  0  0
   21.7494   20.5514   11.8751 H   0  0  0  0  0  0  0  0  0  0  0  0
   20.7460   19.0615   11.8751 H   0  0  0  0  0  0  0  0  0  0  0  0
   24.4398   18.7204   12.7788 H   0  0  0  0  0  0  0  0  0  0  0  0
   26.5617   19.3238   11.7717 H   0  0  0  0  0  0  0  0  0  0  0  0
   27.0721   20.3431    8.7638 H   0  0  0  0  0  0  0  0  0  0  0  0
  1  3  2  0
  2  3  2  0
  3  4  1  6
  3 18  1  0
  5  6  1  0
  5 14  1  0
  5 17  1  0
  6  7  1  0
  6 13  1  0
  7  8  1  0
  7 15  1  0
  8  9  1  0
  8 16  1  0
  9 10  1  0
  9 17  1  0
 10 18  1  0
 11 12  1  0
 11 13  2  0
 11 14  1  0
  5 19  1  1
  6 20  1  1
  7 21  1  6
  8 22  1  1
  9 23  1  6
 10 24  1  0
 10 25  1  0
 12 26  1  0
 12 27  1  0
 12 28  1  0
 13 29  1  0
 15 30  1  0
 16 31  1  0
M  CHG  2   4  -1  13   1
M  END
>  <filename_input>  (21) 
6Z14_Q4Z_docked.sdf

>  <pdb_id>  (21) 
6Z14_Q4Z

>  <pose_rank>  (21) 
20

>  <num_atoms_heavy>  (21) 
18

>  <num_torsions>  (21) 
3

>  <pose>  (21) 
[23.82597684006674, 17.394998574870773, 9.812570578108428, -0.7092971253772149, -1.9940495559634113, 0.832063468378257, 1.2943366014299855, 0.8746348260965668, 2.393097745549977]

>  <energy>  (21) 
-109.38472788372125

>  <inter_energy>  (21) 
-113.91899704905299

>  <intra_energy>  (21) 
1.32900507962054

>  <rmsd>  (21) 
13.2654

>  <sdf_rank>  (21) 
0

$$$$

     RDKit          3D

 31 32  0  0  0  0  0  0  0  0999 V2000
   23.9726   17.8996   13.3386 O   0  0  0  0  0  0  0  0  0  0  0  0
   26.1827   18.6271   13.7420 O   0  0  0  0  0  0  0  0  0  0  0  0
   25.3737   17.5375   13.3142 S   0  0  1  0  0  0  0  0  0  0  0  0
   25.6213   16.2631   13.9469 O   0  0  0  0  0  0  0  0  0  0  0  0
   26.5075   16.4516    7.9068 C   0  0  1  0  0  0  0  0  0  0  0  0
   25.2747   15.6648    7.6958 C   0  0  1  0  0  0  0  0  0  0  0  0
   24.0499   16.4456    8.1549 C   0  0  2  0  0  0  0  0  0  0  0  0
   24.2918   17.0071    9.5431 C   0  0  1  0  0  0  0  0  0  0  0  0
   25.4962   17.9422    9.5374 C   0  0  1  0  0  0  0  0  0  0  0  0
   25.8213   18.4422   10.9249 C   0  0  0  0  0  0  0  0  0  0  0  0
   25.9604   16.5339    5.6424 C   0  0  0  0  0  0  0  0  0  0  0  0
   26.0396   16.8552    4.1927 C   0  0  0  0  0  0  0  0  0  0  0  0
   25.1950   15.5323    6.2174 N   0  0  0  0  0  0  0  0  0  0  0  0
   26.6703   17.2089    6.6615 O   0  0  0  0  0  0  0  0  0  0  0  0
   22.9220   15.5911    8.1919 O   0  0  0  0  0  0  0  0  0  0  0  0
   23.1439   17.7767    9.8892 O   0  0  0  0  0  0  0  0  0  0  0  0
   26.6895   17.3092    9.0228 O   0  0  0  0  0  0  0  0  0  0  0  0
   25.7472   17.2944   11.8037 O   0  0  0  0  0  0  0  0  0  0  0  0
   27.2672   15.7007    8.1693 H   0  0  0  0  0  0  0  0  0  0  0  0
   25.2979   14.7117    8.2445 H   0  0  0  0  0  0  0  0  0  0  0  0
   23.8660   17.2688    7.4489 H   0  0  0  0  0  0  0  0  0  0  0  0
   24.4757   16.1861   10.2517 H   0  0  0  0  0  0  0  0  0  0  0  0
   25.2057   18.7761    8.8814 H   0  0  0  0  0  0  0  0  0  0  0  0
   26.8335   18.8724   10.9462 H   0  0  0  0  0  0  0  0  0  0  0  0
   25.1196   19.2291   11.2385 H   0  0  0  0  0  0  0  0  0  0  0  0
   26.3010   17.9161    4.0660 H   0  0  0  0  0  0  0  0  0  0  0  0
   26.8102   16.2287    3.7198 H   0  0  0  0  0  0  0  0  0  0  0  0
   25.0661   16.6584    3.7198 H   0  0  0  0  0  0  0  0  0  0  0  0
   24.6602   14.8158    5.7059 H   0  0  0  0  0  0  0  0  0  0  0  0
   22.6785   15.4066    9.1336 H   0  0  0  0  0  0  0  0  0  0  0  0
   23.0663   17.8287   10.8748 H   0  0  0  0  0  0  0  0  0  0  0  0
  1  3  2  0
  2  3  2  0
  3  4  1  1
  3 18  1  0
  5  6  1  0
  5 14  1  0
  5 17  1  0
  6  7  1  0
  6 13  1  0
  7  8  1  0
  7 15  1  0
  8  9  1  0
  8 16  1  0
  9 10  1  0
  9 17  1  0
 10 18  1  0
 11 12  1  0
 11 13  2  0
 11 14  1  0
  5 19  1  1
  6 20  1  1
  7 21  1  6
  8 22  1  1
  9 23  1  6
 10 24  1  0
 10 25  1  0
 12 26  1  0
 12 27  1  0
 12 28  1  0
 13 29  1  0
 15 30  1  0
 16 31  1  0
M  CHG  2   4  -1  13   1
M  END
>  <filename_input>  (22) 
6Z14_Q4Z_docked.sdf

>  <pdb_id>  (22) 
6Z14_Q4Z

>  <pose_rank>  (22) 
21

>  <num_atoms_heavy>  (22) 
18

>  <num_torsions>  (22) 
3

>  <pose>  (22) 
[26.507501051030417, 16.451623393037053, 7.906824859235773, 0.3112967297058912, -4.0995299536420715, -1.639367759750377, 3.8835454804145098, 0.09731945457185981, -0.11558204205276122]

>  <energy>  (22) 
-67.72024036281707

>  <inter_energy>  (22) 
-71.55102226119254

>  <intra_energy>  (22) 
0.5280487739477323

>  <rmsd>  (22) 
12.0218

>  <sdf_rank>  (22) 
0

$$$$

     RDKit          3D

 31 32  0  0  0  0  0  0  0  0999 V2000
   25.2896   17.2462   17.1659 O   0  0  0  0  0  0  0  0  0  0  0  0
   23.2450   16.3409   16.4065 O   0  0  0  0  0  0  0  0  0  0  0  0
   24.1168   17.4638   16.3460 S   0  0  1  0  0  0  0  0  0  0  0  0
   23.5187   18.7578   16.5778 O   0  0  0  0  0  0  0  0  0  0  0  0
   23.3701   17.7543   10.7088 C   0  0  1  0  0  0  0  0  0  0  0  0
   24.2690   18.9084   10.4999 C   0  0  1  0  0  0  0  0  0  0  0  0
   25.6272   18.6590   11.1431 C   0  0  2  0  0  0  0  0  0  0  0  0
   25.4372   18.1694   12.5661 C   0  0  1  0  0  0  0  0  0  0  0  0
   24.6411   16.8690   12.5806 C   0  0  1  0  0  0  0  0  0  0  0  0
   24.3526   16.4068   13.9891 C   0  0  0  0  0  0  0  0  0  0  0  0
   24.1680   17.6790    8.5199 C   0  0  0  0  0  0  0  0  0  0  0  0
   24.3723   17.2276    7.1179 C   0  0  0  0  0  0  0  0  0  0  0  0
   24.4671   18.9333    9.0269 N   0  0  0  0  0  0  0  0  0  0  0  0
   23.6243   16.8850    9.5553 O   0  0  0  0  0  0  0  0  0  0  0  0
   26.3765   19.8597   11.1633 O   0  0  0  0  0  0  0  0  0  0  0  0
   26.7330   17.8933   13.0901 O   0  0  0  0  0  0  0  0  0  0  0  0
   23.3699   16.9874   11.9028 O   0  0  0  0  0  0  0  0  0  0  0  0
   24.6195   17.5354   14.8553 O   0  0  0  0  0  0  0  0  0  0  0  0
   22.3723   18.2040   10.8192 H   0  0  0  0  0  0  0  0  0  0  0  0
   23.8537   19.8336   10.9259 H   0  0  0  0  0  0  0  0  0  0  0  0
   26.1650   17.8984   10.5580 H   0  0  0  0  0  0  0  0  0  0  0  0
   24.8999   18.9281   13.1540 H   0  0  0  0  0  0  0  0  0  0  0  0
   25.2761   16.1409   12.0546 H   0  0  0  0  0  0  0  0  0  0  0  0
   23.3005   16.0987   14.0799 H   0  0  0  0  0  0  0  0  0  0  0  0
   24.9762   15.5419   14.2594 H   0  0  0  0  0  0  0  0  0  0  0  0
   24.8258   16.2254    7.1177 H   0  0  0  0  0  0  0  0  0  0  0  0
   23.4028   17.1914    6.5994 H   0  0  0  0  0  0  0  0  0  0  0  0
   25.0393   17.9320    6.5994 H   0  0  0  0  0  0  0  0  0  0  0  0
   24.7751   19.7468    8.4753 H   0  0  0  0  0  0  0  0  0  0  0  0
   26.5441   20.1283   12.1014 H   0  0  0  0  0  0  0  0  0  0  0  0
   26.6974   17.9009   14.0795 H   0  0  0  0  0  0  0  0  0  0  0  0
  1  3  2  0
  2  3  2  0
  3  4  1  1
  3 18  1  0
  5  6  1  0
  5 14  1  0
  5 17  1  0
  6  7  1  0
  6 13  1  0
  7  8  1  0
  7 15  1  0
  8  9  1  0
  8 16  1  0
  9 10  1  0
  9 17  1  0
 10 18  1  0
 11 12  1  0
 11 13  2  0
 11 14  1  0
  5 19  1  6
  6 20  1  1
  7 21  1  6
  8 22  1  1
  9 23  1  6
 10 24  1  0
 10 25  1  0
 12 26  1  0
 12 27  1  0
 12 28  1  0
 13 29  1  0
 15 30  1  0
 16 31  1  0
M  CHG  2   4  -1  13   1
M  END
>  <filename_input>  (23) 
6Z14_Q4Z_docked.sdf

>  <pdb_id>  (23) 
6Z14_Q4Z

>  <pose_rank>  (23) 
22

>  <num_atoms_heavy>  (23) 
18

>  <num_torsions>  (23) 
3

>  <pose>  (23) 
[23.370069254145204, 17.754347581132222, 10.708782936025113, -3.301165341603917, -0.6421643862352259, 2.262631735053813, 3.366159318739988, -0.6160891718588261, 0.4971922068894521]

>  <energy>  (23) 
-95.44753100634485

>  <inter_energy>  (23) 
-89.7159034395832

>  <intra_energy>  (23) 
11.648116114374892

>  <rmsd>  (23) 
12.036

>  <sdf_rank>  (23) 
0

$$$$

     RDKit          3D

 31 32  0  0  0  0  0  0  0  0999 V2000
   13.9798    1.0255    3.0882 O   0  0  0  0  0  0  0  0  0  0  0  0
   15.2556    2.7308    2.0679 O   0  0  0  0  0  0  0  0  0  0  0  0
   14.9674    2.0640    3.2913 S   0  0  1  0  0  0  0  0  0  0  0  0
   14.6554    2.9027    4.4250 O   0  0  0  0  0  0  0  0  0  0  0  0
   20.0743   -0.2155    4.9684 C   0  0  1  0  0  0  0  0  0  0  0  0
   20.5510   -0.2514    3.5702 C   0  0  1  0  0  0  0  0  0  0  0  0
   20.2213    1.0516    2.8531 C   0  0  2  0  0  0  0  0  0  0  0  0
   18.7660    1.4099    3.0865 C   0  0  1  0  0  0  0  0  0  0  0  0
   18.4929    1.5869    4.5762 C   0  0  1  0  0  0  0  0  0  0  0  0
   17.0309    1.8497    4.8483 C   0  0  0  0  0  0  0  0  0  0  0  0
   22.3791    0.1329    4.9675 C   0  0  0  0  0  0  0  0  0  0  0  0
   23.7614    0.3636    5.4647 C   0  0  0  0  0  0  0  0  0  0  0  0
   22.0292   -0.3268    3.7081 N   0  0  0  0  0  0  0  0  0  0  0  0
   21.2017    0.3455    5.7201 O   0  0  0  0  0  0  0  0  0  0  0  0
   20.4440    0.9040    1.4630 O   0  0  0  0  0  0  0  0  0  0  0  0
   18.5363    2.6633    2.4491 O   0  0  0  0  0  0  0  0  0  0  0  0
   18.8684    0.4266    5.3522 O   0  0  0  0  0  0  0  0  0  0  0  0
   16.3015    1.3380    3.7075 O   0  0  0  0  0  0  0  0  0  0  0  0
   19.7658   -1.2506    5.1766 H   0  0  0  0  0  0  0  0  0  0  0  0
   20.0971   -1.0778    3.0035 H   0  0  0  0  0  0  0  0  0  0  0  0
   20.8675    1.8496    3.2475 H   0  0  0  0  0  0  0  0  0  0  0  0
   18.1170    0.6138    2.6926 H   0  0  0  0  0  0  0  0  0  0  0  0
   19.1059    2.4493    4.8771 H   0  0  0  0  0  0  0  0  0  0  0  0
   16.7156    1.3299    5.7651 H   0  0  0  0  0  0  0  0  0  0  0  0
   16.8401    2.9233    4.9932 H   0  0  0  0  0  0  0  0  0  0  0  0
   23.7602    0.3634    6.5647 H   0  0  0  0  0  0  0  0  0  0  0  0
   24.4211   -0.4368    5.0986 H   0  0  0  0  0  0  0  0  0  0  0  0
   24.1254    1.3350    5.0986 H   0  0  0  0  0  0  0  0  0  0  0  0
   22.6838   -0.6644    2.9881 H   0  0  0  0  0  0  0  0  0  0  0  0
   21.2600    0.3634    1.3150 H   0  0  0  0  0  0  0  0  0  0  0  0
   18.4078    3.3643    3.1362 H   0  0  0  0  0  0  0  0  0  0  0  0
  1  3  2  0
  2  3  2  0
  3  4  1  1
  3 18  1  0
  5  6  1  0
  5 14  1  0
  5 17  1  0
  6  7  1  0
  6 13  1  0
  7  8  1  0
  7 15  1  0
  8  9  1  0
  8 16  1  0
  9 10  1  0
  9 17  1  0
 10 18  1  0
 11 12  1  0
 11 13  2  0
 11 14  1  0
  5 19  1  1
  6 20  1  6
  7 21  1  1
  8 22  1  6
  9 23  1  1
 10 24  1  0
 10 25  1  0
 12 26  1  0
 12 27  1  0
 12 28  1  0
 13 29  1  0
 15 30  1  0
 16 31  1  0
M  CHG  2   4  -1  13   1
M  END
>  <filename_input>  (24) 
6Z14_Q4Z_docked.sdf

>  <pdb_id>  (24) 
6Z14_Q4Z

>  <pose_rank>  (24) 
23

>  <num_atoms_heavy>  (24) 
18

>  <num_torsions>  (24) 
3

>  <pose>  (24) 
[20.074272544411627, -0.21550076554524447, 4.968358909937734, 0.10015443921963284, 1.196188937302801, -5.768677641696946, -2.79404505349788, 0.16511163972813298, 2.6084114165257493]

>  <energy>  (24) 
-71.93406481975836

>  <inter_energy>  (24) 
-70.67522918390601

>  <intra_energy>  (24) 
8.226837680922209

>  <rmsd>  (24) 
11.633

>  <sdf_rank>  (24) 
0

$$$$

     RDKit          3D

 31 32  0  0  0  0  0  0  0  0999 V2000
    7.6182   15.9921    2.9892 O   0  0  0  0  0  0  0  0  0  0  0  0
    6.7811   16.4991    5.1383 O   0  0  0  0  0  0  0  0  0  0  0  0
    7.8188   15.8472    4.4153 S   0  0  1  0  0  0  0  0  0  0  0  0
    8.1087   14.4834    4.7920 O   0  0  0  0  0  0  0  0  0  0  0  0
   12.7506   17.6671    4.5509 C   0  0  1  0  0  0  0  0  0  0  0  0
   13.0741   17.9415    3.1354 C   0  0  1  0  0  0  0  0  0  0  0  0
   12.1230   18.9805    2.5554 C   0  0  2  0  0  0  0  0  0  0  0  0
   10.6910   18.6039    2.8850 C   0  0  1  0  0  0  0  0  0  0  0  0
   10.4900   18.5435    4.3953 C   0  0  1  0  0  0  0  0  0  0  0  0
    9.0993   18.0771    4.7550 C   0  0  0  0  0  0  0  0  0  0  0  0
   14.6259   19.0498    4.4792 C   0  0  0  0  0  0  0  0  0  0  0  0
   15.7813   19.8684    4.9333 C   0  0  0  0  0  0  0  0  0  0  0  0
   14.4260   18.5562    3.2000 N   0  0  0  0  0  0  0  0  0  0  0  0
   13.5492   18.6430    5.2997 O   0  0  0  0  0  0  0  0  0  0  0  0
   12.2741   19.0374    1.1491 O   0  0  0  0  0  0  0  0  0  0  0  0
    9.8577   19.6410    2.3752 O   0  0  0  0  0  0  0  0  0  0  0  0
   11.4204   17.6482    5.0450 O   0  0  0  0  0  0  0  0  0  0  0  0
    9.1400   16.6302    4.7636 O   0  0  0  0  0  0  0  0  0  0  0  0
   12.9728   16.5972    4.6776 H   0  0  0  0  0  0  0  0  0  0  0  0
   13.0080   17.0344    2.5167 H   0  0  0  0  0  0  0  0  0  0  0  0
   12.3579   19.9626    2.9916 H   0  0  0  0  0  0  0  0  0  0  0  0
   10.4529   17.6222    2.4496 H   0  0  0  0  0  0  0  0  0  0  0  0
   10.6581   19.5725    4.7459 H   0  0  0  0  0  0  0  0  0  0  0  0
    8.8170   18.4551    5.7487 H   0  0  0  0  0  0  0  0  0  0  0  0
    8.3562   18.4497    4.0347 H   0  0  0  0  0  0  0  0  0  0  0  0
   15.8077   19.8871    6.0328 H   0  0  0  0  0  0  0  0  0  0  0  0
   16.7146   19.4290    4.5515 H   0  0  0  0  0  0  0  0  0  0  0  0
   15.6761   20.8946    4.5515 H   0  0  0  0  0  0  0  0  0  0  0  0
   15.1011   18.6068    2.4238 H   0  0  0  0  0  0  0  0  0  0  0  0
   13.1770   19.3777    0.9277 H   0  0  0  0  0  0  0  0  0  0  0  0
    9.4555   20.1415    3.1287 H   0  0  0  0  0  0  0  0  0  0  0  0
  1  3  2  0
  2  3  2  0
  3  4  1  6
  3 18  1  0
  5  6  1  0
  5 14  1  0
  5 17  1  0
  6  7  1  0
  6 13  1  0
  7  8  1  0
  7 15  1  0
  8  9  1  0
  8 16  1  0
  9 10  1  0
  9 17  1  0
 10 18  1  0
 11 12  1  0
 11 13  2  0
 11 14  1  0
  5 19  1  1
  6 20  1  6
  7 21  1  1
  8 22  1  6
  9 23  1  1
 10 24  1  0
 10 25  1  0
 12 26  1  0
 12 27  1  0
 12 28  1  0
 13 29  1  0
 15 30  1  0
 16 31  1  0
M  CHG  2   4  -1  13   1
M  END
>  <filename_input>  (25) 
6Z14_Q4Z_docked.sdf

>  <pdb_id>  (25) 
6Z14_Q4Z

>  <pose_rank>  (25) 
24

>  <num_atoms_heavy>  (25) 
18

>  <num_torsions>  (25) 
3

>  <pose>  (25) 
[12.750642282251526, 17.667054439016933, 4.550934821193171, -0.6507978389649999, 0.18629772733421118, -5.37174272846218, -1.678787303786803, 0.11673527314956855, -0.07981119469637021]

>  <energy>  (25) 
37.84987632755537

>  <inter_energy>  (25) 
36.625338030436914

>  <intra_energy>  (25) 
0.0

>  <rmsd>  (25) 
12.6216

>  <sdf_rank>  (25) 
0

$$$$

     RDKit          3D

 31 32  0  0  0  0  0  0  0  0999 V2000
   13.2050   10.3170   13.6250 O   0  0  0  0  0  0  0  0  0  0  0  0
   13.1380   12.4640   12.6440 O   0  0  0  0  0  0  0  0  0  0  0  0
   13.8840   11.5870   13.4800 S   0  0  1  0  0  0  0  0  0  0  0  0
   14.3220   12.1220   14.7480 O   0  0  0  0  0  0  0  0  0  0  0  0
   17.2060    8.0400   11.1710 C   0  0  1  0  0  0  0  0  0  0  0  0
   17.5270    7.8590    9.7400 C   0  0  1  0  0  0  0  0  0  0  0  0
   17.6540    9.2060    9.0400 C   0  0  2  0  0  0  0  0  0  0  0  0
   16.4600   10.0760    9.3840 C   0  0  1  0  0  0  0  0  0  0  0  0
   16.3870   10.3100   10.8890 C   0  0  1  0  0  0  0  0  0  0  0  0
   15.1540   11.0930   11.2730 C   0  0  0  0  0  0  0  0  0  0  0  0
   19.4670    7.5040   10.9860 C   0  0  0  0  0  0  0  0  0  0  0  0
   20.8690    7.1920   11.3710 C   0  0  0  0  0  0  0  0  0  0  0  0
   18.8760    7.2350    9.7620 N   0  0  0  0  0  0  0  0  0  0  0  0
   18.5150    8.1240   11.8270 O   0  0  0  0  0  0  0  0  0  0  0  0
   17.6990    9.0160    7.6380 O   0  0  0  0  0  0  0  0  0  0  0  0
   16.6670   11.3380    8.7560 O   0  0  0  0  0  0  0  0  0  0  0  0
   16.3600    9.0770   11.6430 O   0  0  0  0  0  0  0  0  0  0  0  0
   15.2230   11.2930   12.7050 O   0  0  0  0  0  0  0  0  0  0  0  0
   16.5502    7.1903   11.4117 H   0  0  0  0  0  0  0  0  0  0  0  0
   16.7557    7.2738    9.2179 H   0  0  0  0  0  0  0  0  0  0  0  0
   18.5794    9.6969    9.3756 H   0  0  0  0  0  0  0  0  0  0  0  0
   15.5328    9.5879    9.0492 H   0  0  0  0  0  0  0  0  0  0  0  0
   17.2986   10.8751   11.1335 H   0  0  0  0  0  0  0  0  0  0  0  0
   15.1429   12.0628   10.7540 H   0  0  0  0  0  0  0  0  0  0  0  0
   14.2372   10.5548   10.9904 H   0  0  0  0  0  0  0  0  0  0  0  0
   20.9526    7.1734   12.4677 H   0  0  0  0  0  0  0  0  0  0  0  0
   21.1507    6.2092   10.9651 H   0  0  0  0  0  0  0  0  0  0  0  0
   21.5409    7.9626   10.9651 H   0  0  0  0  0  0  0  0  0  0  0  0
   19.3004    6.6933    8.9956 H   0  0  0  0  0  0  0  0  0  0  0  0
   17.9225    8.0721    7.4399 H   0  0  0  0  0  0  0  0  0  0  0  0
   16.7815   12.0363    9.4484 H   0  0  0  0  0  0  0  0  0  0  0  0
  1  3  2  0
  2  3  2  0
  3  4  1  1
  3 18  1  0
  5  6  1  0
  5 14  1  0
  5 17  1  0
  6  7  1  0
  6 13  1  0
  7  8  1  0
  7 15  1  0
  8  9  1  0
  8 16  1  0
  9 10  1  0
  9 17  1  0
 10 18  1  0
 11 12  1  0
 11 13  2  0
 11 14  1  0
  5 19  1  1
  6 20  1  6
  7 21  1  1
  8 22  1  6
  9 23  1  1
 10 24  1  0
 10 25  1  0
 12 26  1  0
 12 27  1  0
 12 28  1  0
 13 29  1  0
 15 30  1  0
 16 31  1  0
M  CHG  2   4  -1  13   1
M  END
>  <filename_input>  (26) 
6Z14_Q4Z_docked.sdf

>  <pdb_id>  (26) 
6Z14_Q4Z

>  <pose_rank>  (26) 
25

>  <num_atoms_heavy>  (26) 
18

>  <num_torsions>  (26) 
3

>  <pose>  (26) 
[17.206, 8.04, 11.171, 1e-06, 1e-06, 1e-06, 0.0, 0.0, 0.0]

>  <energy>  (26) 
-682.4909908345757

>  <inter_energy>  (26) 
-670.8821029701088

>  <intra_energy>  (26) 
0.0

>  <rmsd>  (26) 
0.0

>  <sdf_rank>  (26) 
0

$$$$
