
     RDKit          3D

 35 37  0  0  0  0  0  0  0  0999 V2000
    6.3811   -3.1165   20.9641 C   0  0  0  0  0  0  0  0  0  0  0  0
    6.9245   -4.0503   21.8599 C   0  0  0  0  0  0  0  0  0  0  0  0
    6.2014   -5.0576   22.3795 C   0  0  0  0  0  0  0  0  0  0  0  0
    4.9049   -5.1570   22.0561 N   0  0  0  0  0  0  0  0  0  0  0  0
    5.1083   -3.2284   20.6231 N   0  0  0  0  0  0  0  0  0  0  0  0
    4.3736   -8.3706   24.4577 O   0  0  0  0  0  0  0  0  0  0  0  0
    5.3476   -8.9888   23.9499 C   0  0  0  0  0  0  0  0  0  0  0  0
    5.9600   -9.8684   24.6117 O   0  0  0  0  0  0  0  0  0  0  0  0
    5.7445   -8.6351   22.5188 C   0  0  0  0  0  0  0  0  0  0  0  0
    7.0193   -7.7982   22.4255 C   0  0  0  0  0  0  0  0  0  0  0  0
    6.8517   -6.3369   23.4839 S   0  0  0  0  0  0  0  0  0  0  0  0
    4.3619   -4.2469   21.1627 C   0  0  0  0  0  0  0  0  0  0  0  0
    7.5440   -2.1335   20.5370 S   0  0  0  0  0  0  0  0  0  0  0  0
    8.8095   -2.5671   21.3411 C   0  0  0  0  0  0  0  0  0  0  0  0
    8.4657   -3.7418   22.1076 C   0  0  0  0  0  0  0  0  0  0  0  0
    9.5765   -4.3194   22.9684 C   0  0  0  0  0  0  0  0  0  0  0  0
   10.6105   -3.6050   23.5279 C   0  0  0  0  0  0  0  0  0  0  0  0
   11.5608   -4.2811   24.2720 C   0  0  0  0  0  0  0  0  0  0  0  0
   11.5041   -5.6518   24.4420 C   0  0  0  0  0  0  0  0  0  0  0  0
   12.5709   -6.3585   25.2726 C   0  0  0  0  0  0  0  0  0  0  0  0
   10.4715   -6.3700   23.8739 C   0  0  0  0  0  0  0  0  0  0  0  0
    9.5241   -5.6975   23.1363 C   0  0  0  0  0  0  0  0  0  0  0  0
    5.9007   -9.5698   21.9603 H   0  0  0  0  0  0  0  0  0  0  0  0
    4.9290   -8.0276   22.0992 H   0  0  0  0  0  0  0  0  0  0  0  0
    7.8785   -8.3981   22.7599 H   0  0  0  0  0  0  0  0  0  0  0  0
    7.1794   -7.4835   21.3837 H   0  0  0  0  0  0  0  0  0  0  0  0
    3.3037   -4.3431   20.8781 H   0  0  0  0  0  0  0  0  0  0  0  0
    9.7891   -2.0670   21.3266 H   0  0  0  0  0  0  0  0  0  0  0  0
   10.6803   -2.5164   23.3863 H   0  0  0  0  0  0  0  0  0  0  0  0
   12.3802   -3.7150   24.7390 H   0  0  0  0  0  0  0  0  0  0  0  0
   12.3566   -6.2165   26.3422 H   0  0  0  0  0  0  0  0  0  0  0  0
   12.5666   -7.4330   25.0373 H   0  0  0  0  0  0  0  0  0  0  0  0
   13.5587   -5.9355   25.0373 H   0  0  0  0  0  0  0  0  0  0  0  0
   10.4071   -7.4599   24.0082 H   0  0  0  0  0  0  0  0  0  0  0  0
    8.7058   -6.2646   22.6685 H   0  0  0  0  0  0  0  0  0  0  0  0
  1  2  1  0
  1  5  2  0
  1 13  1  0
  2  3  2  0
  2 15  1  0
  3  4  1  0
  3 11  1  0
  4 12  2  0
  5 12  1  0
  6  7  2  0
  7  8  1  0
  7  9  1  0
  9 10  1  0
 10 11  1  0
 13 14  1  0
 14 15  2  0
 15 16  1  0
 16 17  2  0
 16 22  1  0
 17 18  1  0
 18 19  2  0
 19 20  1  0
 19 21  1  0
 21 22  2  0
  9 23  1  0
  9 24  1  0
 10 25  1  0
 10 26  1  0
 12 27  1  0
 14 28  1  0
 17 29  1  0
 18 30  1  0
 20 31  1  0
 20 32  1  0
 20 33  1  0
 21 34  1  0
 22 35  1  0
M  CHG  1   8  -1
M  END
>  <filename_input>  (1) 
6Z1C_7EY_docked.sdf

>  <pdb_id>  (1) 
6Z1C_7EY

>  <pose_rank>  (1) 
0

>  <num_atoms_heavy>  (1) 
22

>  <num_torsions>  (1) 
5

>  <pose>  (1) 
[6.381053239772033, -3.1165204375318125, 20.964074049758842, -2.4452157731466255, 1.6475617710733892, -2.012485361724925, 1.523283216108027, 0.9750556636749642, -0.11478330799018235, 0.640728974872258, -1.4347563495841846]

>  <energy>  (1) 
-761.0247108839718

>  <inter_energy>  (1) 
-816.549086783818

>  <intra_energy>  (1) 
53.78267749293268

>  <rmsd>  (1) 
5.32586

>  <sdf_rank>  (1) 
0

$$$$

     RDKit          3D

 35 37  0  0  0  0  0  0  0  0999 V2000
    5.5708   -3.7726   20.8626 C   0  0  0  0  0  0  0  0  0  0  0  0
    6.9472   -3.6961   21.1262 C   0  0  0  0  0  0  0  0  0  0  0  0
    7.7284   -2.7312   20.6103 C   0  0  0  0  0  0  0  0  0  0  0  0
    7.1805   -1.8260   19.7881 N   0  0  0  0  0  0  0  0  0  0  0  0
    5.0231   -2.8647   20.0724 N   0  0  0  0  0  0  0  0  0  0  0  0
   12.7369   -0.8447   21.9261 O   0  0  0  0  0  0  0  0  0  0  0  0
   12.0119   -1.7305   22.4536 C   0  0  0  0  0  0  0  0  0  0  0  0
   12.3813   -2.9347   22.4637 O   0  0  0  0  0  0  0  0  0  0  0  0
   10.6892   -1.2881   23.0746 C   0  0  0  0  0  0  0  0  0  0  0  0
    9.5702   -1.0865   22.0541 C   0  0  0  0  0  0  0  0  0  0  0  0
    9.4935   -2.5298   20.9610 S   0  0  0  0  0  0  0  0  0  0  0  0
    5.8197   -1.8858   19.5313 C   0  0  0  0  0  0  0  0  0  0  0  0
    4.9956   -4.9947   21.6852 S   0  0  0  0  0  0  0  0  0  0  0  0
    6.2118   -5.6576   22.4045 C   0  0  0  0  0  0  0  0  0  0  0  0
    7.3836   -4.8653   22.1132 C   0  0  0  0  0  0  0  0  0  0  0  0
    8.6839   -5.3555   22.7275 C   0  0  0  0  0  0  0  0  0  0  0  0
    9.4522   -4.6637   23.6352 C   0  0  0  0  0  0  0  0  0  0  0  0
   10.6268   -5.2377   24.0875 C   0  0  0  0  0  0  0  0  0  0  0  0
   11.0508   -6.4715   23.6303 C   0  0  0  0  0  0  0  0  0  0  0  0
   12.3514   -7.0703   24.1568 C   0  0  0  0  0  0  0  0  0  0  0  0
   10.2845   -7.1621   22.7133 C   0  0  0  0  0  0  0  0  0  0  0  0
    9.1142   -6.5930   22.2655 C   0  0  0  0  0  0  0  0  0  0  0  0
   10.3691   -2.0559   23.7943 H   0  0  0  0  0  0  0  0  0  0  0  0
   10.8680   -0.3139   23.5532 H   0  0  0  0  0  0  0  0  0  0  0  0
    8.6103   -0.9709   22.5787 H   0  0  0  0  0  0  0  0  0  0  0  0
    9.7705   -0.1829   21.4596 H   0  0  0  0  0  0  0  0  0  0  0  0
    5.3653   -1.1281   18.8760 H   0  0  0  0  0  0  0  0  0  0  0  0
    6.1819   -6.5665   23.0233 H   0  0  0  0  0  0  0  0  0  0  0  0
    9.1382   -3.6727   23.9947 H   0  0  0  0  0  0  0  0  0  0  0  0
   11.2374   -4.7001   24.8278 H   0  0  0  0  0  0  0  0  0  0  0  0
   12.3388   -7.0645   25.2567 H   0  0  0  0  0  0  0  0  0  0  0  0
   12.4509   -8.1049   23.7967 H   0  0  0  0  0  0  0  0  0  0  0  0
   13.2021   -6.4732   23.7967 H   0  0  0  0  0  0  0  0  0  0  0  0
   10.6034   -8.1492   22.3472 H   0  0  0  0  0  0  0  0  0  0  0  0
    8.5050   -7.1308   21.5241 H   0  0  0  0  0  0  0  0  0  0  0  0
  1  2  1  0
  1  5  2  0
  1 13  1  0
  2  3  2  0
  2 15  1  0
  3  4  1  0
  3 11  1  0
  4 12  2  0
  5 12  1  0
  6  7  2  0
  7  8  1  0
  7  9  1  0
  9 10  1  0
 10 11  1  0
 13 14  1  0
 14 15  2  0
 15 16  1  0
 16 17  2  0
 16 22  1  0
 17 18  1  0
 18 19  2  0
 19 20  1  0
 19 21  1  0
 21 22  2  0
  9 23  1  0
  9 24  1  0
 10 25  1  0
 10 26  1  0
 12 27  1  0
 14 28  1  0
 17 29  1  0
 18 30  1  0
 20 31  1  0
 20 32  1  0
 20 33  1  0
 21 34  1  0
 22 35  1  0
M  CHG  1   8  -1
M  END
>  <filename_input>  (2) 
6Z1C_7EY_docked.sdf

>  <pdb_id>  (2) 
6Z1C_7EY

>  <pose_rank>  (2) 
1

>  <num_atoms_heavy>  (2) 
22

>  <num_torsions>  (2) 
5

>  <pose>  (2) 
[5.570751932383001, -3.772579846254272, 20.862639691825297, -0.4148450509229141, 0.39166249779840706, 0.026945158603702238, -1.041518631830369, -5.355164742145104, -2.253063554445326, -3.86237153839392, -1.8723775569076633]

>  <energy>  (2) 
-944.9272450117061

>  <inter_energy>  (2) 
-972.3088275827796

>  <intra_energy>  (2) 
15.289094047113544

>  <rmsd>  (2) 
1.60425

>  <sdf_rank>  (2) 
0

$$$$

     RDKit          3D

 35 37  0  0  0  0  0  0  0  0999 V2000
    5.3896   -4.3645   20.8033 C   0  0  0  0  0  0  0  0  0  0  0  0
    6.5611   -4.5608   21.5508 C   0  0  0  0  0  0  0  0  0  0  0  0
    7.4613   -3.5827   21.7522 C   0  0  0  0  0  0  0  0  0  0  0  0
    7.2495   -2.3836   21.1928 N   0  0  0  0  0  0  0  0  0  0  0  0
    5.1658   -3.1743   20.2722 N   0  0  0  0  0  0  0  0  0  0  0  0
   12.5484   -0.1842   22.1969 O   0  0  0  0  0  0  0  0  0  0  0  0
   11.4578   -0.7252   21.8704 C   0  0  0  0  0  0  0  0  0  0  0  0
   10.7485   -0.2293   20.9551 O   0  0  0  0  0  0  0  0  0  0  0  0
   11.0416   -1.9904   22.6165 C   0  0  0  0  0  0  0  0  0  0  0  0
   10.2573   -2.9795   21.7557 C   0  0  0  0  0  0  0  0  0  0  0  0
    8.9568   -3.7431   22.7604 S   0  0  0  0  0  0  0  0  0  0  0  0
    6.0895   -2.1763   20.4629 C   0  0  0  0  0  0  0  0  0  0  0  0
    4.5684   -5.7156   20.8413 S   0  0  0  0  0  0  0  0  0  0  0  0
    5.4329   -6.7380   21.6435 C   0  0  0  0  0  0  0  0  0  0  0  0
    6.6122   -6.0488   22.1120 C   0  0  0  0  0  0  0  0  0  0  0  0
    7.5909   -6.8847   22.9194 C   0  0  0  0  0  0  0  0  0  0  0  0
    7.4154   -7.2875   24.2231 C   0  0  0  0  0  0  0  0  0  0  0  0
    8.4123   -8.0300   24.8304 C   0  0  0  0  0  0  0  0  0  0  0  0
    9.5807   -8.3512   24.1653 C   0  0  0  0  0  0  0  0  0  0  0  0
   10.6541   -9.1744   24.8707 C   0  0  0  0  0  0  0  0  0  0  0  0
    9.7608   -7.9403   22.8601 C   0  0  0  0  0  0  0  0  0  0  0  0
    8.7680   -7.2043   22.2543 C   0  0  0  0  0  0  0  0  0  0  0  0
   11.9493   -2.4923   22.9829 H   0  0  0  0  0  0  0  0  0  0  0  0
   10.3765   -1.6776   23.4349 H   0  0  0  0  0  0  0  0  0  0  0  0
    9.8022   -2.4481   20.9069 H   0  0  0  0  0  0  0  0  0  0  0  0
   10.9357   -3.7576   21.3758 H   0  0  0  0  0  0  0  0  0  0  0  0
    5.9037   -1.1848   20.0242 H   0  0  0  0  0  0  0  0  0  0  0  0
    5.1874   -7.7956   21.8204 H   0  0  0  0  0  0  0  0  0  0  0  0
    6.4995   -7.0240   24.7724 H   0  0  0  0  0  0  0  0  0  0  0  0
    8.2719   -8.3725   25.8662 H   0  0  0  0  0  0  0  0  0  0  0  0
   10.5315   -9.0805   25.9598 H   0  0  0  0  0  0  0  0  0  0  0  0
   10.5557  -10.2309   24.5805 H   0  0  0  0  0  0  0  0  0  0  0  0
   11.6489   -8.8056   24.5805 H   0  0  0  0  0  0  0  0  0  0  0  0
   10.6808   -8.1962   22.3140 H   0  0  0  0  0  0  0  0  0  0  0  0
    8.9099   -6.8610   21.2190 H   0  0  0  0  0  0  0  0  0  0  0  0
  1  2  1  0
  1  5  2  0
  1 13  1  0
  2  3  2  0
  2 15  1  0
  3  4  1  0
  3 11  1  0
  4 12  2  0
  5 12  1  0
  6  7  2  0
  7  8  1  0
  7  9  1  0
  9 10  1  0
 10 11  1  0
 13 14  1  0
 14 15  2  0
 15 16  1  0
 16 17  2  0
 16 22  1  0
 17 18  1  0
 18 19  2  0
 19 20  1  0
 19 21  1  0
 21 22  2  0
  9 23  1  0
  9 24  1  0
 10 25  1  0
 10 26  1  0
 12 27  1  0
 14 28  1  0
 17 29  1  0
 18 30  1  0
 20 31  1  0
 20 32  1  0
 20 33  1  0
 21 34  1  0
 22 35  1  0
M  CHG  1   8  -1
M  END
>  <filename_input>  (3) 
6Z1C_7EY_docked.sdf

>  <pdb_id>  (3) 
6Z1C_7EY

>  <pose_rank>  (3) 
2

>  <num_atoms_heavy>  (3) 
22

>  <num_torsions>  (3) 
5

>  <pose>  (3) 
[5.389569799504028, -4.3645198848452855, 20.803282731227288, -3.6702406994509, 1.5296488891305822, -4.919965174166217, -0.2919723094184042, -1.1414840341317964, 3.7881611032316878, -0.9110763735232068, 0.44160249503201604]

>  <energy>  (3) 
-848.890204108071

>  <inter_energy>  (3) 
-853.0783179946178

>  <intra_energy>  (3) 
4.725674384691289

>  <rmsd>  (3) 
0.879507

>  <sdf_rank>  (3) 
0

$$$$

     RDKit          3D

 35 37  0  0  0  0  0  0  0  0999 V2000
    5.6913   -6.3272   20.8734 C   0  0  0  0  0  0  0  0  0  0  0  0
    6.7983   -5.8559   21.5961 C   0  0  0  0  0  0  0  0  0  0  0  0
    6.8980   -4.5822   22.0147 C   0  0  0  0  0  0  0  0  0  0  0  0
    5.9197   -3.7208   21.7040 N   0  0  0  0  0  0  0  0  0  0  0  0
    4.7124   -5.4850   20.5884 N   0  0  0  0  0  0  0  0  0  0  0  0
   10.4897   -0.3561   20.9327 O   0  0  0  0  0  0  0  0  0  0  0  0
   11.0378   -1.1071   21.7837 C   0  0  0  0  0  0  0  0  0  0  0  0
   12.2919   -1.1323   21.8986 O   0  0  0  0  0  0  0  0  0  0  0  0
   10.1307   -1.9680   22.6594 C   0  0  0  0  0  0  0  0  0  0  0  0
    9.1699   -2.8508   21.8645 C   0  0  0  0  0  0  0  0  0  0  0  0
    8.2604   -3.9223   23.0084 S   0  0  0  0  0  0  0  0  0  0  0  0
    4.8166   -4.1794   21.0011 C   0  0  0  0  0  0  0  0  0  0  0  0
    5.9131   -7.8717   20.6159 S   0  0  0  0  0  0  0  0  0  0  0  0
    7.3092   -8.2260   21.2169 C   0  0  0  0  0  0  0  0  0  0  0  0
    7.8348   -7.0370   21.8459 C   0  0  0  0  0  0  0  0  0  0  0  0
    9.2022   -7.1793   22.4928 C   0  0  0  0  0  0  0  0  0  0  0  0
   10.3735   -7.4740   21.8341 C   0  0  0  0  0  0  0  0  0  0  0  0
   11.5393   -7.5920   22.5695 C   0  0  0  0  0  0  0  0  0  0  0  0
   11.5445   -7.4442   23.9439 C   0  0  0  0  0  0  0  0  0  0  0  0
   12.8527   -7.5796   24.7170 C   0  0  0  0  0  0  0  0  0  0  0  0
   10.3682   -7.1568   24.6061 C   0  0  0  0  0  0  0  0  0  0  0  0
    9.2087   -7.0360   23.8746 C   0  0  0  0  0  0  0  0  0  0  0  0
   10.7635   -2.6167   23.2829 H   0  0  0  0  0  0  0  0  0  0  0  0
    9.5156   -1.2811   23.2591 H   0  0  0  0  0  0  0  0  0  0  0  0
    8.4609   -2.2175   21.3111 H   0  0  0  0  0  0  0  0  0  0  0  0
    9.7380   -3.4678   21.1527 H   0  0  0  0  0  0  0  0  0  0  0  0
    4.0020   -3.4781   20.7673 H   0  0  0  0  0  0  0  0  0  0  0  0
    7.8048   -9.2069   21.1698 H   0  0  0  0  0  0  0  0  0  0  0  0
   10.3828   -7.6132   20.7430 H   0  0  0  0  0  0  0  0  0  0  0  0
   12.4837   -7.8084   22.0486 H   0  0  0  0  0  0  0  0  0  0  0  0
   12.6443   -7.5580   25.7969 H   0  0  0  0  0  0  0  0  0  0  0  0
   13.3361   -8.5325   24.4558 H   0  0  0  0  0  0  0  0  0  0  0  0
   13.5209   -6.7458   24.4558 H   0  0  0  0  0  0  0  0  0  0  0  0
   10.3576   -7.0266   25.6983 H   0  0  0  0  0  0  0  0  0  0  0  0
    8.2645   -6.8210   24.3965 H   0  0  0  0  0  0  0  0  0  0  0  0
  1  2  1  0
  1  5  2  0
  1 13  1  0
  2  3  2  0
  2 15  1  0
  3  4  1  0
  3 11  1  0
  4 12  2  0
  5 12  1  0
  6  7  2  0
  7  8  1  0
  7  9  1  0
  9 10  1  0
 10 11  1  0
 13 14  1  0
 14 15  2  0
 15 16  1  0
 16 17  2  0
 16 22  1  0
 17 18  1  0
 18 19  2  0
 19 20  1  0
 19 21  1  0
 21 22  2  0
  9 23  1  0
  9 24  1  0
 10 25  1  0
 10 26  1  0
 12 27  1  0
 14 28  1  0
 17 29  1  0
 18 30  1  0
 20 31  1  0
 20 32  1  0
 20 33  1  0
 21 34  1  0
 22 35  1  0
M  CHG  1   8  -1
M  END
>  <filename_input>  (4) 
6Z1C_7EY_docked.sdf

>  <pdb_id>  (4) 
6Z1C_7EY

>  <pose_rank>  (4) 
3

>  <num_atoms_heavy>  (4) 
22

>  <num_torsions>  (4) 
5

>  <pose>  (4) 
[5.691262912272759, -6.327163640053527, 20.87339486096394, 0.17614128195564954, 0.050051326926431675, 0.6603929515357093, -16.729409547961275, 4.687817434377725, -8.165229020438899, 4.6259749178132745, 3.9674850337591336]

>  <energy>  (4) 
-822.6462137662393

>  <inter_energy>  (4) 
-801.9918199623726

>  <intra_energy>  (4) 
8.484254992579276

>  <rmsd>  (4) 
1.9275

>  <sdf_rank>  (4) 
0

$$$$

     RDKit          3D

 35 37  0  0  0  0  0  0  0  0999 V2000
   10.3540   -1.9562   22.2721 C   0  0  0  0  0  0  0  0  0  0  0  0
    9.6770   -3.1748   22.4354 C   0  0  0  0  0  0  0  0  0  0  0  0
   10.2373   -4.2363   23.0409 C   0  0  0  0  0  0  0  0  0  0  0  0
   11.5004   -4.1397   23.4776 N   0  0  0  0  0  0  0  0  0  0  0  0
   11.5915   -1.8504   22.7258 N   0  0  0  0  0  0  0  0  0  0  0  0
   13.4071   -6.7944   23.9081 O   0  0  0  0  0  0  0  0  0  0  0  0
   12.8370   -7.8000   23.4058 C   0  0  0  0  0  0  0  0  0  0  0  0
   13.5098   -8.8044   23.0521 O   0  0  0  0  0  0  0  0  0  0  0  0
   11.3189   -7.7516   23.2511 C   0  0  0  0  0  0  0  0  0  0  0  0
   10.6325   -6.8054   24.2349 C   0  0  0  0  0  0  0  0  0  0  0  0
    9.4023   -5.8135   23.3480 S   0  0  0  0  0  0  0  0  0  0  0  0
   12.1733   -2.9366   23.3319 C   0  0  0  0  0  0  0  0  0  0  0  0
    9.3560   -0.9467   21.5750 S   0  0  0  0  0  0  0  0  0  0  0  0
    8.0433   -1.7429   21.2939 C   0  0  0  0  0  0  0  0  0  0  0  0
    8.2044   -3.0692   21.8420 C   0  0  0  0  0  0  0  0  0  0  0  0
    7.0224   -4.0072   21.6645 C   0  0  0  0  0  0  0  0  0  0  0  0
    6.6428   -4.9936   22.5453 C   0  0  0  0  0  0  0  0  0  0  0  0
    5.5517   -5.7835   22.2303 C   0  0  0  0  0  0  0  0  0  0  0  0
    4.8569   -5.6171   21.0469 C   0  0  0  0  0  0  0  0  0  0  0  0
    3.6572   -6.5078   20.7391 C   0  0  0  0  0  0  0  0  0  0  0  0
    5.2425   -4.6331   20.1591 C   0  0  0  0  0  0  0  0  0  0  0  0
    6.3260   -3.8449   20.4734 C   0  0  0  0  0  0  0  0  0  0  0  0
   11.0842   -7.4202   22.2288 H   0  0  0  0  0  0  0  0  0  0  0  0
   10.9414   -8.7633   23.4606 H   0  0  0  0  0  0  0  0  0  0  0  0
   10.1350   -7.3908   25.0221 H   0  0  0  0  0  0  0  0  0  0  0  0
   11.3810   -6.1423   24.6932 H   0  0  0  0  0  0  0  0  0  0  0  0
   13.2017   -2.8495   23.7124 H   0  0  0  0  0  0  0  0  0  0  0  0
    7.1537   -1.3616   20.7713 H   0  0  0  0  0  0  0  0  0  0  0  0
    7.1967   -5.1512   23.4825 H   0  0  0  0  0  0  0  0  0  0  0  0
    5.2295   -6.5618   22.9378 H   0  0  0  0  0  0  0  0  0  0  0  0
    3.2009   -6.8465   21.6810 H   0  0  0  0  0  0  0  0  0  0  0  0
    2.9174   -5.9384   20.1573 H   0  0  0  0  0  0  0  0  0  0  0  0
    3.9882   -7.3806   20.1573 H   0  0  0  0  0  0  0  0  0  0  0  0
    4.6940   -4.4818   19.2177 H   0  0  0  0  0  0  0  0  0  0  0  0
    6.6482   -3.0678   19.7647 H   0  0  0  0  0  0  0  0  0  0  0  0
  1  2  1  0
  1  5  2  0
  1 13  1  0
  2  3  2  0
  2 15  1  0
  3  4  1  0
  3 11  1  0
  4 12  2  0
  5 12  1  0
  6  7  2  0
  7  8  1  0
  7  9  1  0
  9 10  1  0
 10 11  1  0
 13 14  1  0
 14 15  2  0
 15 16  1  0
 16 17  2  0
 16 22  1  0
 17 18  1  0
 18 19  2  0
 19 20  1  0
 19 21  1  0
 21 22  2  0
  9 23  1  0
  9 24  1  0
 10 25  1  0
 10 26  1  0
 12 27  1  0
 14 28  1  0
 17 29  1  0
 18 30  1  0
 20 31  1  0
 20 32  1  0
 20 33  1  0
 21 34  1  0
 22 35  1  0
M  CHG  1   8  -1
M  END
>  <filename_input>  (5) 
6Z1C_7EY_docked.sdf

>  <pdb_id>  (5) 
6Z1C_7EY

>  <pose_rank>  (5) 
4

>  <num_atoms_heavy>  (5) 
22

>  <num_torsions>  (5) 
5

>  <pose>  (5) 
[10.35395881870511, -1.9562034651844702, 22.272086426170514, -1.8204991530718049, 0.9793902414839208, 3.9568853759357823, -7.841239644494037, -6.605481056589221, -0.2230084387589156, 3.925042813760129, 2.5708784224805403]

>  <energy>  (5) 
-786.2894374582055

>  <inter_energy>  (5) 
-754.9621297218497

>  <intra_energy>  (5) 
26.600333738932108

>  <rmsd>  (5) 
5.5648

>  <sdf_rank>  (5) 
0

$$$$

     RDKit          3D

 35 37  0  0  0  0  0  0  0  0999 V2000
    6.9314   -8.0233   22.0057 C   0  0  0  0  0  0  0  0  0  0  0  0
    8.1703   -7.4722   22.3679 C   0  0  0  0  0  0  0  0  0  0  0  0
    9.2509   -8.2304   22.6224 C   0  0  0  0  0  0  0  0  0  0  0  0
    9.1349   -9.5639   22.5594 N   0  0  0  0  0  0  0  0  0  0  0  0
    6.8216   -9.3382   21.9173 N   0  0  0  0  0  0  0  0  0  0  0  0
   12.4765  -10.6237   23.0020 O   0  0  0  0  0  0  0  0  0  0  0  0
   13.3018   -9.7368   23.3497 C   0  0  0  0  0  0  0  0  0  0  0  0
   14.4256   -9.6551   22.7865 O   0  0  0  0  0  0  0  0  0  0  0  0
   12.8860   -8.7772   24.4619 C   0  0  0  0  0  0  0  0  0  0  0  0
   11.3827   -8.5084   24.5092 C   0  0  0  0  0  0  0  0  0  0  0  0
   10.8950   -7.5879   23.0265 S   0  0  0  0  0  0  0  0  0  0  0  0
    7.9187  -10.1174   22.1907 C   0  0  0  0  0  0  0  0  0  0  0  0
    5.9370   -6.8236   21.7359 S   0  0  0  0  0  0  0  0  0  0  0  0
    6.7264   -5.5138   22.0481 C   0  0  0  0  0  0  0  0  0  0  0  0
    8.0804   -5.8837   22.3879 C   0  0  0  0  0  0  0  0  0  0  0  0
    9.0143   -4.7354   22.7310 C   0  0  0  0  0  0  0  0  0  0  0  0
    9.8851   -4.7015   23.7956 C   0  0  0  0  0  0  0  0  0  0  0  0
   10.6574   -3.5700   23.9881 C   0  0  0  0  0  0  0  0  0  0  0  0
   10.5540   -2.4739   23.1521 C   0  0  0  0  0  0  0  0  0  0  0  0
   11.4263   -1.2467   23.3978 C   0  0  0  0  0  0  0  0  0  0  0  0
    9.6745   -2.5043   22.0888 C   0  0  0  0  0  0  0  0  0  0  0  0
    8.9082   -3.6310   21.8950 C   0  0  0  0  0  0  0  0  0  0  0  0
   13.1923   -9.2091   25.4261 H   0  0  0  0  0  0  0  0  0  0  0  0
   13.3789   -7.8152   24.2583 H   0  0  0  0  0  0  0  0  0  0  0  0
   10.8391   -9.4641   24.5444 H   0  0  0  0  0  0  0  0  0  0  0  0
   11.1407   -7.9194   25.4062 H   0  0  0  0  0  0  0  0  0  0  0  0
    7.8300  -11.2112   22.1150 H   0  0  0  0  0  0  0  0  0  0  0  0
    6.3232   -4.4909   22.0152 H   0  0  0  0  0  0  0  0  0  0  0  0
    9.9656   -5.5580   24.4810 H   0  0  0  0  0  0  0  0  0  0  0  0
   11.3702   -3.5419   24.8254 H   0  0  0  0  0  0  0  0  0  0  0  0
   11.5392   -1.0879   24.4804 H   0  0  0  0  0  0  0  0  0  0  0  0
   12.4164   -1.4040   22.9451 H   0  0  0  0  0  0  0  0  0  0  0  0
   10.9523   -0.3633   22.9451 H   0  0  0  0  0  0  0  0  0  0  0  0
    9.5876   -1.6440   21.4089 H   0  0  0  0  0  0  0  0  0  0  0  0
    8.1948   -3.6576   21.0582 H   0  0  0  0  0  0  0  0  0  0  0  0
  1  2  1  0
  1  5  2  0
  1 13  1  0
  2  3  2  0
  2 15  1  0
  3  4  1  0
  3 11  1  0
  4 12  2  0
  5 12  1  0
  6  7  2  0
  7  8  1  0
  7  9  1  0
  9 10  1  0
 10 11  1  0
 13 14  1  0
 14 15  2  0
 15 16  1  0
 16 17  2  0
 16 22  1  0
 17 18  1  0
 18 19  2  0
 19 20  1  0
 19 21  1  0
 21 22  2  0
  9 23  1  0
  9 24  1  0
 10 25  1  0
 10 26  1  0
 12 27  1  0
 14 28  1  0
 17 29  1  0
 18 30  1  0
 20 31  1  0
 20 32  1  0
 20 33  1  0
 21 34  1  0
 22 35  1  0
M  CHG  1   8  -1
M  END
>  <filename_input>  (6) 
6Z1C_7EY_docked.sdf

>  <pdb_id>  (6) 
6Z1C_7EY

>  <pose_rank>  (6) 
5

>  <num_atoms_heavy>  (6) 
22

>  <num_torsions>  (6) 
5

>  <pose>  (6) 
[6.931373114655509, -8.023349644902755, 22.005705648109338, -2.59189452175672, -0.3293360484242155, -1.0644677381443708, 9.65120583972227, 5.062322150521741, 4.021392946324782, -18.450695114701556, -10.089446633282636]

>  <energy>  (6) 
-495.23136411700415

>  <inter_energy>  (6) 
-517.4751468192699

>  <intra_energy>  (6) 
19.051217459940357

>  <rmsd>  (6) 
6.02822

>  <sdf_rank>  (6) 
0

$$$$

     RDKit          3D

 35 37  0  0  0  0  0  0  0  0999 V2000
    6.8978   -8.5079   22.5902 C   0  0  0  0  0  0  0  0  0  0  0  0
    8.0297   -7.7267   22.8700 C   0  0  0  0  0  0  0  0  0  0  0  0
    8.0092   -6.3833   22.8229 C   0  0  0  0  0  0  0  0  0  0  0  0
    6.8752   -5.7658   22.4649 N   0  0  0  0  0  0  0  0  0  0  0  0
    5.7704   -7.8996   22.2622 N   0  0  0  0  0  0  0  0  0  0  0  0
   11.6590   -3.7164   24.1792 O   0  0  0  0  0  0  0  0  0  0  0  0
   11.6279   -3.3774   22.9656 C   0  0  0  0  0  0  0  0  0  0  0  0
   12.6631   -3.4616   22.2530 O   0  0  0  0  0  0  0  0  0  0  0  0
   10.3013   -2.8726   22.4034 C   0  0  0  0  0  0  0  0  0  0  0  0
    9.3425   -3.9908   21.9979 C   0  0  0  0  0  0  0  0  0  0  0  0
    9.4083   -5.3110   23.2375 S   0  0  0  0  0  0  0  0  0  0  0  0
    5.7485   -6.5280   22.1985 C   0  0  0  0  0  0  0  0  0  0  0  0
    7.2993  -10.0224   22.8052 S   0  0  0  0  0  0  0  0  0  0  0  0
    8.8147  -10.0312   23.1786 C   0  0  0  0  0  0  0  0  0  0  0  0
    9.2576   -8.6592   23.2629 C   0  0  0  0  0  0  0  0  0  0  0  0
   10.7214   -8.4564   23.6160 C   0  0  0  0  0  0  0  0  0  0  0  0
   11.3883   -9.0692   24.6515 C   0  0  0  0  0  0  0  0  0  0  0  0
   12.7212   -8.7627   24.8590 C   0  0  0  0  0  0  0  0  0  0  0  0
   13.3827   -7.8427   24.0671 C   0  0  0  0  0  0  0  0  0  0  0  0
   14.8540   -7.5354   24.3279 C   0  0  0  0  0  0  0  0  0  0  0  0
   12.7117   -7.2214   23.0333 C   0  0  0  0  0  0  0  0  0  0  0  0
   11.3865   -7.5284   22.8245 C   0  0  0  0  0  0  0  0  0  0  0  0
    9.8110   -2.2555   23.1708 H   0  0  0  0  0  0  0  0  0  0  0  0
   10.5340   -2.3017   21.4924 H   0  0  0  0  0  0  0  0  0  0  0  0
    8.3185   -3.5935   21.9376 H   0  0  0  0  0  0  0  0  0  0  0  0
    9.6354   -4.3909   21.0161 H   0  0  0  0  0  0  0  0  0  0  0  0
    4.8108   -6.0201   21.9285 H   0  0  0  0  0  0  0  0  0  0  0  0
    9.4351  -10.9237   23.3475 H   0  0  0  0  0  0  0  0  0  0  0  0
   10.8712   -9.7896   25.3025 H   0  0  0  0  0  0  0  0  0  0  0  0
   13.2673   -9.2625   25.6727 H   0  0  0  0  0  0  0  0  0  0  0  0
   15.0341   -7.4978   25.4124 H   0  0  0  0  0  0  0  0  0  0  0  0
   15.4781   -8.3225   23.8797 H   0  0  0  0  0  0  0  0  0  0  0  0
   15.1108   -6.5642   23.8797 H   0  0  0  0  0  0  0  0  0  0  0  0
   13.2267   -6.4943   22.3883 H   0  0  0  0  0  0  0  0  0  0  0  0
   10.8409   -7.0271   22.0114 H   0  0  0  0  0  0  0  0  0  0  0  0
  1  2  1  0
  1  5  2  0
  1 13  1  0
  2  3  2  0
  2 15  1  0
  3  4  1  0
  3 11  1  0
  4 12  2  0
  5 12  1  0
  6  7  2  0
  7  8  1  0
  7  9  1  0
  9 10  1  0
 10 11  1  0
 13 14  1  0
 14 15  2  0
 15 16  1  0
 16 17  2  0
 16 22  1  0
 17 18  1  0
 18 19  2  0
 19 20  1  0
 19 21  1  0
 21 22  2  0
  9 23  1  0
  9 24  1  0
 10 25  1  0
 10 26  1  0
 12 27  1  0
 14 28  1  0
 17 29  1  0
 18 30  1  0
 20 31  1  0
 20 32  1  0
 20 33  1  0
 21 34  1  0
 22 35  1  0
M  CHG  1   8  -1
M  END
>  <filename_input>  (7) 
6Z1C_7EY_docked.sdf

>  <pdb_id>  (7) 
6Z1C_7EY

>  <pose_rank>  (7) 
6

>  <num_atoms_heavy>  (7) 
22

>  <num_torsions>  (7) 
5

>  <pose>  (7) 
[6.897775930096575, -8.507892316775763, 22.590174784620743, -0.09557663910695804, 0.36373776666618735, 0.7403274011584815, 0.16873672834249967, -1.0508787536330984, -1.8325991004246658, -4.0020638278531955, -4.70480530900695]

>  <energy>  (7) 
-427.0392921820345

>  <inter_energy>  (7) 
-458.9627652166426

>  <intra_energy>  (7) 
44.62307667418156

>  <rmsd>  (7) 
3.83095

>  <sdf_rank>  (7) 
0

$$$$

     RDKit          3D

 35 37  0  0  0  0  0  0  0  0999 V2000
   12.0962   -3.8098   23.6695 C   0  0  0  0  0  0  0  0  0  0  0  0
   10.9813   -4.5985   23.3457 C   0  0  0  0  0  0  0  0  0  0  0  0
   10.9418   -5.9222   23.5772 C   0  0  0  0  0  0  0  0  0  0  0  0
   12.0181   -6.5185   24.1079 N   0  0  0  0  0  0  0  0  0  0  0  0
   13.1496   -4.3919   24.2174 N   0  0  0  0  0  0  0  0  0  0  0  0
    7.8014   -9.4848   22.0140 O   0  0  0  0  0  0  0  0  0  0  0  0
    7.6393   -9.2114   23.2337 C   0  0  0  0  0  0  0  0  0  0  0  0
    6.5389   -8.7566   23.6448 O   0  0  0  0  0  0  0  0  0  0  0  0
    8.8137   -9.4557   24.1780 C   0  0  0  0  0  0  0  0  0  0  0  0
    9.5215   -8.1756   24.6196 C   0  0  0  0  0  0  0  0  0  0  0  0
    9.5153   -6.9886   23.2503 S   0  0  0  0  0  0  0  0  0  0  0  0
   13.1196   -5.7462   24.4423 C   0  0  0  0  0  0  0  0  0  0  0  0
   11.7428   -2.3124   23.3034 S   0  0  0  0  0  0  0  0  0  0  0  0
   10.3172   -2.3352   22.6685 C   0  0  0  0  0  0  0  0  0  0  0  0
    9.8293   -3.6933   22.7251 C   0  0  0  0  0  0  0  0  0  0  0  0
    8.4436   -3.9238   22.1462 C   0  0  0  0  0  0  0  0  0  0  0  0
    7.9067   -3.2635   21.0653 C   0  0  0  0  0  0  0  0  0  0  0  0
    6.6172   -3.5716   20.6702 C   0  0  0  0  0  0  0  0  0  0  0  0
    5.8570   -4.5049   21.3499 C   0  0  0  0  0  0  0  0  0  0  0  0
    4.4398   -4.8175   20.8795 C   0  0  0  0  0  0  0  0  0  0  0  0
    6.3922   -5.1616   22.4394 C   0  0  0  0  0  0  0  0  0  0  0  0
    7.6762   -4.8578   22.8309 C   0  0  0  0  0  0  0  0  0  0  0  0
    8.4378   -9.9717   25.0738 H   0  0  0  0  0  0  0  0  0  0  0  0
    9.5509  -10.0574   23.6263 H   0  0  0  0  0  0  0  0  0  0  0  0
    8.9952   -7.7435   25.4835 H   0  0  0  0  0  0  0  0  0  0  0  0
   10.5587   -8.4062   24.9041 H   0  0  0  0  0  0  0  0  0  0  0  0
   13.9938   -6.2317   24.9006 H   0  0  0  0  0  0  0  0  0  0  0  0
    9.7796   -1.4706   22.2519 H   0  0  0  0  0  0  0  0  0  0  0  0
    8.4919   -2.5047   20.5252 H   0  0  0  0  0  0  0  0  0  0  0  0
    6.1870   -3.0624   19.7952 H   0  0  0  0  0  0  0  0  0  0  0  0
    3.7869   -4.9615   21.7531 H   0  0  0  0  0  0  0  0  0  0  0  0
    4.0618   -3.9811   20.2732 H   0  0  0  0  0  0  0  0  0  0  0  0
    4.4487   -5.7352   20.2732 H   0  0  0  0  0  0  0  0  0  0  0  0
    5.8035   -5.9139   22.9849 H   0  0  0  0  0  0  0  0  0  0  0  0
    8.1050   -5.3666   23.7068 H   0  0  0  0  0  0  0  0  0  0  0  0
  1  2  1  0
  1  5  2  0
  1 13  1  0
  2  3  2  0
  2 15  1  0
  3  4  1  0
  3 11  1  0
  4 12  2  0
  5 12  1  0
  6  7  2  0
  7  8  1  0
  7  9  1  0
  9 10  1  0
 10 11  1  0
 13 14  1  0
 14 15  2  0
 15 16  1  0
 16 17  2  0
 16 22  1  0
 17 18  1  0
 18 19  2  0
 19 20  1  0
 19 21  1  0
 21 22  2  0
  9 23  1  0
  9 24  1  0
 10 25  1  0
 10 26  1  0
 12 27  1  0
 14 28  1  0
 17 29  1  0
 18 30  1  0
 20 31  1  0
 20 32  1  0
 20 33  1  0
 21 34  1  0
 22 35  1  0
M  CHG  1   8  -1
M  END
>  <filename_input>  (8) 
6Z1C_7EY_docked.sdf

>  <pdb_id>  (8) 
6Z1C_7EY

>  <pose_rank>  (8) 
7

>  <num_atoms_heavy>  (8) 
22

>  <num_torsions>  (8) 
5

>  <pose>  (8) 
[12.096231870741116, -3.8098025036491805, 23.669454265648046, 1.090939609236724, -0.42118401282443896, -2.0714155409040176, 1.6147814214047296, -24.842479634480448, -20.05101605882946, 7.239929218354319, 4.849796740948412]

>  <energy>  (8) 
-573.3516744698285

>  <inter_energy>  (8) 
-600.3171191700352

>  <intra_energy>  (8) 
43.81301413206638

>  <rmsd>  (8) 
6.77367

>  <sdf_rank>  (8) 
0

$$$$

     RDKit          3D

 35 37  0  0  0  0  0  0  0  0999 V2000
   11.3526   -7.7189   23.2526 C   0  0  0  0  0  0  0  0  0  0  0  0
   10.7009   -6.4803   23.3582 C   0  0  0  0  0  0  0  0  0  0  0  0
   11.1378   -5.5017   24.1699 C   0  0  0  0  0  0  0  0  0  0  0  0
   12.2174   -5.7264   24.9311 N   0  0  0  0  0  0  0  0  0  0  0  0
   12.4336   -7.9332   23.9834 N   0  0  0  0  0  0  0  0  0  0  0  0
   10.4913   -0.6372   21.5827 O   0  0  0  0  0  0  0  0  0  0  0  0
   11.5739   -1.1171   22.0142 C   0  0  0  0  0  0  0  0  0  0  0  0
   12.5511   -0.3628   22.2649 O   0  0  0  0  0  0  0  0  0  0  0  0
   11.6479   -2.6278   22.2217 C   0  0  0  0  0  0  0  0  0  0  0  0
   10.3091   -3.2611   22.5968 C   0  0  0  0  0  0  0  0  0  0  0  0
   10.3902   -3.8580   24.3059 S   0  0  0  0  0  0  0  0  0  0  0  0
   12.8752   -6.9419   24.8250 C   0  0  0  0  0  0  0  0  0  0  0  0
   10.5810   -8.5720   22.1673 S   0  0  0  0  0  0  0  0  0  0  0  0
    9.3667   -7.7076   21.7042 C   0  0  0  0  0  0  0  0  0  0  0  0
    9.4483   -6.4331   22.3782 C   0  0  0  0  0  0  0  0  0  0  0  0
    8.3413   -5.4427   22.0584 C   0  0  0  0  0  0  0  0  0  0  0  0
    7.1009   -5.4079   22.6525 C   0  0  0  0  0  0  0  0  0  0  0  0
    6.1893   -4.4548   22.2351 C   0  0  0  0  0  0  0  0  0  0  0  0
    6.4906   -3.5605   21.2250 C   0  0  0  0  0  0  0  0  0  0  0  0
    5.4575   -2.5230   20.7965 C   0  0  0  0  0  0  0  0  0  0  0  0
    7.7319   -3.6004   20.6229 C   0  0  0  0  0  0  0  0  0  0  0  0
    8.6403   -4.5464   21.0400 C   0  0  0  0  0  0  0  0  0  0  0  0
   12.0016   -3.0899   21.2883 H   0  0  0  0  0  0  0  0  0  0  0  0
   12.3345   -2.8041   23.0629 H   0  0  0  0  0  0  0  0  0  0  0  0
    9.5093   -2.5113   22.5065 H   0  0  0  0  0  0  0  0  0  0  0  0
   10.0962   -4.1026   21.9211 H   0  0  0  0  0  0  0  0  0  0  0  0
   13.7758   -7.1174   25.4316 H   0  0  0  0  0  0  0  0  0  0  0  0
    8.5874   -8.0147   20.9912 H   0  0  0  0  0  0  0  0  0  0  0  0
    6.8389   -6.1247   23.4447 H   0  0  0  0  0  0  0  0  0  0  0  0
    5.2021   -4.4075   22.7181 H   0  0  0  0  0  0  0  0  0  0  0  0
    5.0036   -2.0672   21.6888 H   0  0  0  0  0  0  0  0  0  0  0  0
    5.9484   -1.7431   20.1958 H   0  0  0  0  0  0  0  0  0  0  0  0
    4.6755   -3.0106   20.1958 H   0  0  0  0  0  0  0  0  0  0  0  0
    7.9903   -2.8893   19.8244 H   0  0  0  0  0  0  0  0  0  0  0  0
    9.6267   -4.5938   20.5555 H   0  0  0  0  0  0  0  0  0  0  0  0
  1  2  1  0
  1  5  2  0
  1 13  1  0
  2  3  2  0
  2 15  1  0
  3  4  1  0
  3 11  1  0
  4 12  2  0
  5 12  1  0
  6  7  2  0
  7  8  1  0
  7  9  1  0
  9 10  1  0
 10 11  1  0
 13 14  1  0
 14 15  2  0
 15 16  1  0
 16 17  2  0
 16 22  1  0
 17 18  1  0
 18 19  2  0
 19 20  1  0
 19 21  1  0
 21 22  2  0
  9 23  1  0
  9 24  1  0
 10 25  1  0
 10 26  1  0
 12 27  1  0
 14 28  1  0
 17 29  1  0
 18 30  1  0
 20 31  1  0
 20 32  1  0
 20 33  1  0
 21 34  1  0
 22 35  1  0
M  CHG  1   8  -1
M  END
>  <filename_input>  (9) 
6Z1C_7EY_docked.sdf

>  <pdb_id>  (9) 
6Z1C_7EY

>  <pose_rank>  (9) 
8

>  <num_atoms_heavy>  (9) 
22

>  <num_torsions>  (9) 
5

>  <pose>  (9) 
[11.352597980211204, -7.7188748039225885, 23.252596699274832, 1.6365146307081233, 2.7157781656874405, 1.324892352916321, 2.4757002050729917, -4.413386832361992, 0.025829063296760022, -0.38369818722404314, 2.4743140274539424]

>  <energy>  (9) 
-538.4089439148403

>  <inter_energy>  (9) 
-616.4153861129806

>  <intra_energy>  (9) 
78.53823365034268

>  <rmsd>  (9) 
5.28481

>  <sdf_rank>  (9) 
0

$$$$

     RDKit          3D

 35 37  0  0  0  0  0  0  0  0999 V2000
   12.0445   -7.3439   24.4294 C   0  0  0  0  0  0  0  0  0  0  0  0
   10.9086   -6.7261   23.8835 C   0  0  0  0  0  0  0  0  0  0  0  0
    9.7494   -7.3813   23.6984 C   0  0  0  0  0  0  0  0  0  0  0  0
    9.6830   -8.6812   24.0169 N   0  0  0  0  0  0  0  0  0  0  0  0
   11.9733   -8.6200   24.7688 N   0  0  0  0  0  0  0  0  0  0  0  0
    6.6568   -7.2080   21.0461 O   0  0  0  0  0  0  0  0  0  0  0  0
    5.7739   -6.7315   21.8090 C   0  0  0  0  0  0  0  0  0  0  0  0
    5.0617   -5.7627   21.4336 O   0  0  0  0  0  0  0  0  0  0  0  0
    5.6036   -7.3716   23.1845 C   0  0  0  0  0  0  0  0  0  0  0  0
    6.9043   -7.4692   23.9802 C   0  0  0  0  0  0  0  0  0  0  0  0
    8.2266   -6.6332   23.0656 S   0  0  0  0  0  0  0  0  0  0  0  0
   10.7958   -9.2973   24.5680 C   0  0  0  0  0  0  0  0  0  0  0  0
   13.1768   -6.2454   24.5410 S   0  0  0  0  0  0  0  0  0  0  0  0
   12.5849   -4.9346   23.9348 C   0  0  0  0  0  0  0  0  0  0  0  0
   11.2109   -5.1949   23.5743 C   0  0  0  0  0  0  0  0  0  0  0  0
   10.4559   -4.0295   22.9576 C   0  0  0  0  0  0  0  0  0  0  0  0
   10.9774   -2.7825   22.7014 C   0  0  0  0  0  0  0  0  0  0  0  0
   10.1530   -1.8157   22.1543 C   0  0  0  0  0  0  0  0  0  0  0  0
    8.8212   -2.0700   21.8850 C   0  0  0  0  0  0  0  0  0  0  0  0
    7.9469   -0.9766   21.2788 C   0  0  0  0  0  0  0  0  0  0  0  0
    8.2954   -3.3184   22.1496 C   0  0  0  0  0  0  0  0  0  0  0  0
    9.1160   -4.2816   22.6909 C   0  0  0  0  0  0  0  0  0  0  0  0
    4.8873   -6.7689   23.7620 H   0  0  0  0  0  0  0  0  0  0  0  0
    5.2490   -8.3997   23.0196 H   0  0  0  0  0  0  0  0  0  0  0  0
    6.7731   -6.9870   24.9602 H   0  0  0  0  0  0  0  0  0  0  0  0
    7.1686   -8.5267   24.1280 H   0  0  0  0  0  0  0  0  0  0  0  0
   10.7339  -10.3581   24.8523 H   0  0  0  0  0  0  0  0  0  0  0  0
   13.1192   -3.9819   23.8052 H   0  0  0  0  0  0  0  0  0  0  0  0
   12.0303   -2.5583   22.9275 H   0  0  0  0  0  0  0  0  0  0  0  0
   10.5666   -0.8218   21.9284 H   0  0  0  0  0  0  0  0  0  0  0  0
    7.4794   -0.3920   22.0848 H   0  0  0  0  0  0  0  0  0  0  0  0
    8.5669   -0.3139   20.6572 H   0  0  0  0  0  0  0  0  0  0  0  0
    7.1640   -1.4356   20.6572 H   0  0  0  0  0  0  0  0  0  0  0  0
    7.2401   -3.5395   21.9319 H   0  0  0  0  0  0  0  0  0  0  0  0
    8.7010   -5.2748   22.9177 H   0  0  0  0  0  0  0  0  0  0  0  0
  1  2  1  0
  1  5  2  0
  1 13  1  0
  2  3  2  0
  2 15  1  0
  3  4  1  0
  3 11  1  0
  4 12  2  0
  5 12  1  0
  6  7  2  0
  7  8  1  0
  7  9  1  0
  9 10  1  0
 10 11  1  0
 13 14  1  0
 14 15  2  0
 15 16  1  0
 16 17  2  0
 16 22  1  0
 17 18  1  0
 18 19  2  0
 19 20  1  0
 19 21  1  0
 21 22  2  0
  9 23  1  0
  9 24  1  0
 10 25  1  0
 10 26  1  0
 12 27  1  0
 14 28  1  0
 17 29  1  0
 18 30  1  0
 20 31  1  0
 20 32  1  0
 20 33  1  0
 21 34  1  0
 22 35  1  0
M  CHG  1   8  -1
M  END
>  <filename_input>  (10) 
6Z1C_7EY_docked.sdf

>  <pdb_id>  (10) 
6Z1C_7EY

>  <pose_rank>  (10) 
9

>  <num_atoms_heavy>  (10) 
22

>  <num_torsions>  (10) 
5

>  <pose>  (10) 
[12.044547195261575, -7.34390062466283, 24.42935765454899, 1.3758443676293557, -0.9200234804969629, -3.000182954018476, 1.0366533847701713, -12.29628695203189, 11.327795154929868, 7.946758066146465, 3.9296535824738887]

>  <energy>  (10) 
-460.9563246525386

>  <inter_energy>  (10) 
-569.0624659446955

>  <intra_energy>  (10) 
103.51844051609665

>  <rmsd>  (10) 
7.04218

>  <sdf_rank>  (10) 
0

$$$$

     RDKit          3D

 35 37  0  0  0  0  0  0  0  0999 V2000
    6.7768   -9.8504   22.6324 C   0  0  0  0  0  0  0  0  0  0  0  0
    7.5777   -8.7045   22.7567 C   0  0  0  0  0  0  0  0  0  0  0  0
    8.7693   -8.7207   23.3791 C   0  0  0  0  0  0  0  0  0  0  0  0
    9.1959   -9.8655   23.9296 N   0  0  0  0  0  0  0  0  0  0  0  0
    7.2080  -10.9872   23.1522 N   0  0  0  0  0  0  0  0  0  0  0  0
   13.1824   -4.7735   23.7869 O   0  0  0  0  0  0  0  0  0  0  0  0
   12.2746   -5.6413   23.6807 C   0  0  0  0  0  0  0  0  0  0  0  0
   11.3388   -5.4875   22.8516 O   0  0  0  0  0  0  0  0  0  0  0  0
   12.3586   -6.8705   24.5823 C   0  0  0  0  0  0  0  0  0  0  0  0
   11.4261   -8.0048   24.1605 C   0  0  0  0  0  0  0  0  0  0  0  0
    9.8851   -7.3012   23.5169 S   0  0  0  0  0  0  0  0  0  0  0  0
    8.4178  -11.0054   23.8017 C   0  0  0  0  0  0  0  0  0  0  0  0
    5.4953   -9.4474   21.7978 S   0  0  0  0  0  0  0  0  0  0  0  0
    5.6159   -7.9182   21.5096 C   0  0  0  0  0  0  0  0  0  0  0  0
    6.8800   -7.4661   22.0417 C   0  0  0  0  0  0  0  0  0  0  0  0
    7.1839   -5.9884   21.8614 C   0  0  0  0  0  0  0  0  0  0  0  0
    6.5337   -5.1360   20.9992 C   0  0  0  0  0  0  0  0  0  0  0  0
    6.9428   -3.8161   20.9334 C   0  0  0  0  0  0  0  0  0  0  0  0
    7.9985   -3.3482   21.6934 C   0  0  0  0  0  0  0  0  0  0  0  0
    8.4161   -1.8843   21.5929 C   0  0  0  0  0  0  0  0  0  0  0  0
    8.6564   -4.2050   22.5524 C   0  0  0  0  0  0  0  0  0  0  0  0
    8.2477   -5.5174   22.6207 C   0  0  0  0  0  0  0  0  0  0  0  0
   13.3926   -7.2453   24.5633 H   0  0  0  0  0  0  0  0  0  0  0  0
   12.0461   -6.5539   25.5883 H   0  0  0  0  0  0  0  0  0  0  0  0
   11.9104   -8.6075   23.3780 H   0  0  0  0  0  0  0  0  0  0  0  0
   11.2063   -8.6444   25.0279 H   0  0  0  0  0  0  0  0  0  0  0  0
    8.7794  -11.9509   24.2323 H   0  0  0  0  0  0  0  0  0  0  0  0
    4.8707   -7.2956   20.9929 H   0  0  0  0  0  0  0  0  0  0  0  0
    5.7040   -5.4972   20.3738 H   0  0  0  0  0  0  0  0  0  0  0  0
    6.4160   -3.1231   20.2609 H   0  0  0  0  0  0  0  0  0  0  0  0
    8.5352   -1.4668   22.6036 H   0  0  0  0  0  0  0  0  0  0  0  0
    9.3708   -1.8117   21.0514 H   0  0  0  0  0  0  0  0  0  0  0  0
    7.6434   -1.3189   21.0514 H   0  0  0  0  0  0  0  0  0  0  0  0
    9.4920   -3.8456   23.1709 H   0  0  0  0  0  0  0  0  0  0  0  0
    8.7760   -6.2100   23.2924 H   0  0  0  0  0  0  0  0  0  0  0  0
  1  2  1  0
  1  5  2  0
  1 13  1  0
  2  3  2  0
  2 15  1  0
  3  4  1  0
  3 11  1  0
  4 12  2  0
  5 12  1  0
  6  7  2  0
  7  8  1  0
  7  9  1  0
  9 10  1  0
 10 11  1  0
 13 14  1  0
 14 15  2  0
 15 16  1  0
 16 17  2  0
 16 22  1  0
 17 18  1  0
 18 19  2  0
 19 20  1  0
 19 21  1  0
 21 22  2  0
  9 23  1  0
  9 24  1  0
 10 25  1  0
 10 26  1  0
 12 27  1  0
 14 28  1  0
 17 29  1  0
 18 30  1  0
 20 31  1  0
 20 32  1  0
 20 33  1  0
 21 34  1  0
 22 35  1  0
M  CHG  1   8  -1
M  END
>  <filename_input>  (11) 
6Z1C_7EY_docked.sdf

>  <pdb_id>  (11) 
6Z1C_7EY

>  <pose_rank>  (11) 
10

>  <num_atoms_heavy>  (11) 
22

>  <num_torsions>  (11) 
5

>  <pose>  (11) 
[6.7767652131242455, -9.850354847898677, 22.632415493784894, 2.6730506634176945, 1.293893080960374, 1.1475746739342287, -5.540557074021393, 31.241194712465013, -1.443878085877463, -17.90410184298369, 0.10938910697377432]

>  <energy>  (11) 
-365.1553336480605

>  <inter_energy>  (11) 
-487.27937748379264

>  <intra_energy>  (11) 
132.33378762707645

>  <rmsd>  (11) 
5.56721

>  <sdf_rank>  (11) 
0

$$$$

     RDKit          3D

 35 37  0  0  0  0  0  0  0  0999 V2000
   13.2699   -7.1372   24.3096 C   0  0  0  0  0  0  0  0  0  0  0  0
   12.1654   -6.2902   24.1289 C   0  0  0  0  0  0  0  0  0  0  0  0
   12.2337   -4.9624   24.3286 C   0  0  0  0  0  0  0  0  0  0  0  0
   13.3901   -4.4298   24.7463 N   0  0  0  0  0  0  0  0  0  0  0  0
   14.4192   -6.6099   24.6966 N   0  0  0  0  0  0  0  0  0  0  0  0
   10.7963   -0.3874   20.9375 O   0  0  0  0  0  0  0  0  0  0  0  0
   10.1124   -0.7015   21.9485 C   0  0  0  0  0  0  0  0  0  0  0  0
    8.8577   -0.5916   21.9293 O   0  0  0  0  0  0  0  0  0  0  0  0
   10.8575   -1.2175   23.1770 C   0  0  0  0  0  0  0  0  0  0  0  0
   11.5737   -2.5472   22.9456 C   0  0  0  0  0  0  0  0  0  0  0  0
   10.8721   -3.8018   24.0491 S   0  0  0  0  0  0  0  0  0  0  0  0
   14.4899   -5.2562   24.9160 C   0  0  0  0  0  0  0  0  0  0  0  0
   12.8142   -8.6023   23.9263 S   0  0  0  0  0  0  0  0  0  0  0  0
   11.2982   -8.5156   23.5655 C   0  0  0  0  0  0  0  0  0  0  0  0
   10.9040   -7.1284   23.6413 C   0  0  0  0  0  0  0  0  0  0  0  0
    9.4472   -6.8357   23.3242 C   0  0  0  0  0  0  0  0  0  0  0  0
    8.4047   -6.8946   24.2201 C   0  0  0  0  0  0  0  0  0  0  0  0
    7.1252   -6.6201   23.7715 C   0  0  0  0  0  0  0  0  0  0  0  0
    6.8741   -6.3141   22.4470 C   0  0  0  0  0  0  0  0  0  0  0  0
    5.4483   -6.0151   21.9940 C   0  0  0  0  0  0  0  0  0  0  0  0
    7.9185   -6.2631   21.5462 C   0  0  0  0  0  0  0  0  0  0  0  0
    9.1921   -6.5329   21.9926 C   0  0  0  0  0  0  0  0  0  0  0  0
   11.6055   -0.4664   23.4707 H   0  0  0  0  0  0  0  0  0  0  0  0
   10.1056   -1.3890   23.9613 H   0  0  0  0  0  0  0  0  0  0  0  0
   11.4392   -2.8604   21.8998 H   0  0  0  0  0  0  0  0  0  0  0  0
   12.6473   -2.4299   23.1547 H   0  0  0  0  0  0  0  0  0  0  0  0
   15.4459   -4.8154   25.2352 H   0  0  0  0  0  0  0  0  0  0  0  0
   10.6460   -9.3609   23.3005 H   0  0  0  0  0  0  0  0  0  0  0  0
    8.5853   -7.1550   25.2734 H   0  0  0  0  0  0  0  0  0  0  0  0
    6.2884   -6.6460   24.4850 H   0  0  0  0  0  0  0  0  0  0  0  0
    4.8043   -5.8800   22.8754 H   0  0  0  0  0  0  0  0  0  0  0  0
    5.4407   -5.0958   21.3900 H   0  0  0  0  0  0  0  0  0  0  0  0
    5.0720   -6.8538   21.3900 H   0  0  0  0  0  0  0  0  0  0  0  0
    7.7364   -6.0115   20.4910 H   0  0  0  0  0  0  0  0  0  0  0  0
   10.0280   -6.5081   21.2780 H   0  0  0  0  0  0  0  0  0  0  0  0
  1  2  1  0
  1  5  2  0
  1 13  1  0
  2  3  2  0
  2 15  1  0
  3  4  1  0
  3 11  1  0
  4 12  2  0
  5 12  1  0
  6  7  2  0
  7  8  1  0
  7  9  1  0
  9 10  1  0
 10 11  1  0
 13 14  1  0
 14 15  2  0
 15 16  1  0
 16 17  2  0
 16 22  1  0
 17 18  1  0
 18 19  2  0
 19 20  1  0
 19 21  1  0
 21 22  2  0
  9 23  1  0
  9 24  1  0
 10 25  1  0
 10 26  1  0
 12 27  1  0
 14 28  1  0
 17 29  1  0
 18 30  1  0
 20 31  1  0
 20 32  1  0
 20 33  1  0
 21 34  1  0
 22 35  1  0
M  CHG  1   8  -1
M  END
>  <filename_input>  (12) 
6Z1C_7EY_docked.sdf

>  <pdb_id>  (12) 
6Z1C_7EY

>  <pose_rank>  (12) 
11

>  <num_atoms_heavy>  (12) 
22

>  <num_torsions>  (12) 
5

>  <pose>  (12) 
[13.269890135522047, -7.137182961509846, 24.309637129536174, -1.0214322007123073, -2.528885245570359, -0.28191067853645474, 2.5127520158971435, 0.577675765706191, -1.1439520382303197, -0.48407468916220814, 1.8793978308889594]

>  <energy>  (12) 
-632.7419649164534

>  <inter_energy>  (12) 
-581.6351312694536

>  <intra_energy>  (12) 
0.24739767056850295

>  <rmsd>  (12) 
5.61878

>  <sdf_rank>  (12) 
0

$$$$

     RDKit          3D

 35 37  0  0  0  0  0  0  0  0999 V2000
    4.7775   -7.1344   22.1059 C   0  0  0  0  0  0  0  0  0  0  0  0
    6.1019   -6.7192   21.8973 C   0  0  0  0  0  0  0  0  0  0  0  0
    6.4100   -5.6134   21.1974 C   0  0  0  0  0  0  0  0  0  0  0  0
    5.4185   -4.8967   20.6508 N   0  0  0  0  0  0  0  0  0  0  0  0
    3.7962   -6.4139   21.5894 N   0  0  0  0  0  0  0  0  0  0  0  0
   11.3325   -2.0425   22.3388 O   0  0  0  0  0  0  0  0  0  0  0  0
   10.0829   -1.9021   22.2531 C   0  0  0  0  0  0  0  0  0  0  0  0
    9.5875   -0.7988   21.9009 O   0  0  0  0  0  0  0  0  0  0  0  0
    9.2085   -3.1089   22.5845 C   0  0  0  0  0  0  0  0  0  0  0  0
    8.0370   -3.2995   21.6226 C   0  0  0  0  0  0  0  0  0  0  0  0
    8.0879   -4.9803   20.9470 S   0  0  0  0  0  0  0  0  0  0  0  0
    4.1066   -5.2917   20.8613 C   0  0  0  0  0  0  0  0  0  0  0  0
    4.8215   -8.4291   23.0130 S   0  0  0  0  0  0  0  0  0  0  0  0
    6.3296   -8.7533   23.2510 C   0  0  0  0  0  0  0  0  0  0  0  0
    7.1102   -7.7129   22.6235 C   0  0  0  0  0  0  0  0  0  0  0  0
    8.6184   -7.8532   22.7430 C   0  0  0  0  0  0  0  0  0  0  0  0
    9.4785   -6.8864   23.2101 C   0  0  0  0  0  0  0  0  0  0  0  0
   10.8346   -7.1589   23.2377 C   0  0  0  0  0  0  0  0  0  0  0  0
   11.3385   -8.3644   22.7864 C   0  0  0  0  0  0  0  0  0  0  0  0
   12.8407   -8.6258   22.8368 C   0  0  0  0  0  0  0  0  0  0  0  0
   10.4767   -9.3314   22.3100 C   0  0  0  0  0  0  0  0  0  0  0  0
    9.1272   -9.0622   22.2854 C   0  0  0  0  0  0  0  0  0  0  0  0
    9.8357   -4.0120   22.5516 H   0  0  0  0  0  0  0  0  0  0  0  0
    8.7805   -2.9323   23.5823 H   0  0  0  0  0  0  0  0  0  0  0  0
    7.0900   -3.1482   22.1615 H   0  0  0  0  0  0  0  0  0  0  0  0
    8.1093   -2.5695   20.8029 H   0  0  0  0  0  0  0  0  0  0  0  0
    3.2915   -4.6897   20.4333 H   0  0  0  0  0  0  0  0  0  0  0  0
    6.7272   -9.6201   23.7993 H   0  0  0  0  0  0  0  0  0  0  0  0
    9.0952   -5.9149   23.5553 H   0  0  0  0  0  0  0  0  0  0  0  0
   11.5276   -6.3988   23.6276 H   0  0  0  0  0  0  0  0  0  0  0  0
   13.1680   -8.6828   23.8854 H   0  0  0  0  0  0  0  0  0  0  0  0
   13.0646   -9.5764   22.3306 H   0  0  0  0  0  0  0  0  0  0  0  0
   13.3725   -7.8068   22.3306 H   0  0  0  0  0  0  0  0  0  0  0  0
   10.8612  -10.2995   21.9564 H   0  0  0  0  0  0  0  0  0  0  0  0
    8.4351   -9.8223   21.8940 H   0  0  0  0  0  0  0  0  0  0  0  0
  1  2  1  0
  1  5  2  0
  1 13  1  0
  2  3  2  0
  2 15  1  0
  3  4  1  0
  3 11  1  0
  4 12  2  0
  5 12  1  0
  6  7  2  0
  7  8  1  0
  7  9  1  0
  9 10  1  0
 10 11  1  0
 13 14  1  0
 14 15  2  0
 15 16  1  0
 16 17  2  0
 16 22  1  0
 17 18  1  0
 18 19  2  0
 19 20  1  0
 19 21  1  0
 21 22  2  0
  9 23  1  0
  9 24  1  0
 10 25  1  0
 10 26  1  0
 12 27  1  0
 14 28  1  0
 17 29  1  0
 18 30  1  0
 20 31  1  0
 20 32  1  0
 20 33  1  0
 21 34  1  0
 22 35  1  0
M  CHG  1   8  -1
M  END
>  <filename_input>  (13) 
6Z1C_7EY_docked.sdf

>  <pdb_id>  (13) 
6Z1C_7EY

>  <pose_rank>  (13) 
12

>  <num_atoms_heavy>  (13) 
22

>  <num_torsions>  (13) 
5

>  <pose>  (13) 
[4.777481316356424, -7.134364526193944, 22.10586228452618, -0.4510096178313715, 0.6783160225094251, 0.34393343539133114, 5.077979079302439, 0.6547522015545489, -2.51396998360367, -2.518594858316468, -5.681495288673402]

>  <energy>  (13) 
-548.8751131864406

>  <inter_energy>  (13) 
-548.3111113354242

>  <intra_energy>  (13) 
11.930717608503597

>  <rmsd>  (13) 
2.70246

>  <sdf_rank>  (13) 
0

$$$$

     RDKit          3D

 35 37  0  0  0  0  0  0  0  0999 V2000
    9.6805   -8.7670   23.2293 C   0  0  0  0  0  0  0  0  0  0  0  0
    9.4366   -7.4560   22.7913 C   0  0  0  0  0  0  0  0  0  0  0  0
    8.3634   -7.1305   22.0499 C   0  0  0  0  0  0  0  0  0  0  0  0
    7.5099   -8.0979   21.6877 N   0  0  0  0  0  0  0  0  0  0  0  0
    8.8254   -9.7186   22.8950 N   0  0  0  0  0  0  0  0  0  0  0  0
    4.2094   -7.1044   21.1459 O   0  0  0  0  0  0  0  0  0  0  0  0
    4.4713   -6.3339   22.1083 C   0  0  0  0  0  0  0  0  0  0  0  0
    4.0876   -6.6163   23.2744 O   0  0  0  0  0  0  0  0  0  0  0  0
    5.2653   -5.0654   21.8062 C   0  0  0  0  0  0  0  0  0  0  0  0
    6.5757   -4.9627   22.5851 C   0  0  0  0  0  0  0  0  0  0  0  0
    7.9487   -5.4529   21.5088 S   0  0  0  0  0  0  0  0  0  0  0  0
    7.7355   -9.3937   22.1254 C   0  0  0  0  0  0  0  0  0  0  0  0
   10.9922   -8.7379   24.1123 S   0  0  0  0  0  0  0  0  0  0  0  0
   11.5163   -7.2681   24.0803 C   0  0  0  0  0  0  0  0  0  0  0  0
   10.5714   -6.4777   23.3268 C   0  0  0  0  0  0  0  0  0  0  0  0
   10.9103   -5.0040   23.1785 C   0  0  0  0  0  0  0  0  0  0  0  0
   11.7949   -4.4729   22.2685 C   0  0  0  0  0  0  0  0  0  0  0  0
   12.0137   -3.1069   22.2720 C   0  0  0  0  0  0  0  0  0  0  0  0
   11.3838   -2.2767   23.1803 C   0  0  0  0  0  0  0  0  0  0  0  0
   11.6510   -0.7750   23.1484 C   0  0  0  0  0  0  0  0  0  0  0  0
   10.5026   -2.8102   24.0989 C   0  0  0  0  0  0  0  0  0  0  0  0
   10.2821   -4.1686   24.0937 C   0  0  0  0  0  0  0  0  0  0  0  0
    5.4978   -5.0486   20.7312 H   0  0  0  0  0  0  0  0  0  0  0  0
    4.6406   -4.2136   22.1131 H   0  0  0  0  0  0  0  0  0  0  0  0
    6.7237   -3.9257   22.9210 H   0  0  0  0  0  0  0  0  0  0  0  0
    6.5378   -5.6266   23.4614 H   0  0  0  0  0  0  0  0  0  0  0  0
    7.0216  -10.1835   21.8487 H   0  0  0  0  0  0  0  0  0  0  0  0
   12.4411   -6.8998   24.5485 H   0  0  0  0  0  0  0  0  0  0  0  0
   12.3184   -5.1223   21.5514 H   0  0  0  0  0  0  0  0  0  0  0  0
   12.7047   -2.6714   21.5352 H   0  0  0  0  0  0  0  0  0  0  0  0
   11.7190   -0.3928   24.1776 H   0  0  0  0  0  0  0  0  0  0  0  0
   12.5975   -0.5821   22.6223 H   0  0  0  0  0  0  0  0  0  0  0  0
   10.8290   -0.2675   22.6223 H   0  0  0  0  0  0  0  0  0  0  0  0
    9.9862   -2.1616   24.8218 H   0  0  0  0  0  0  0  0  0  0  0  0
    9.5920   -4.6034   24.8318 H   0  0  0  0  0  0  0  0  0  0  0  0
  1  2  1  0
  1  5  2  0
  1 13  1  0
  2  3  2  0
  2 15  1  0
  3  4  1  0
  3 11  1  0
  4 12  2  0
  5 12  1  0
  6  7  2  0
  7  8  1  0
  7  9  1  0
  9 10  1  0
 10 11  1  0
 13 14  1  0
 14 15  2  0
 15 16  1  0
 16 17  2  0
 16 22  1  0
 17 18  1  0
 18 19  2  0
 19 20  1  0
 19 21  1  0
 21 22  2  0
  9 23  1  0
  9 24  1  0
 10 25  1  0
 10 26  1  0
 12 27  1  0
 14 28  1  0
 17 29  1  0
 18 30  1  0
 20 31  1  0
 20 32  1  0
 20 33  1  0
 21 34  1  0
 22 35  1  0
M  CHG  1   8  -1
M  END
>  <filename_input>  (14) 
6Z1C_7EY_docked.sdf

>  <pdb_id>  (14) 
6Z1C_7EY

>  <pose_rank>  (14) 
13

>  <num_atoms_heavy>  (14) 
22

>  <num_torsions>  (14) 
5

>  <pose>  (14) 
[9.680462605144657, -8.766974924747933, 23.229260026288184, 2.118652810701706, -0.87390157312095, -3.600221722561915, 2.4243250480521197, 44.93897634130405, -0.29353692331544484, 3.322320375311401, 0.8920611000280386]

>  <energy>  (14) 
-581.2942141354564

>  <inter_energy>  (14) 
-547.3942967946048

>  <intra_energy>  (14) 
1.8498426611641297

>  <rmsd>  (14) 
6.42278

>  <sdf_rank>  (14) 
0

$$$$

     RDKit          3D

 35 37  0  0  0  0  0  0  0  0999 V2000
    6.6660  -11.6542   20.0998 C   0  0  0  0  0  0  0  0  0  0  0  0
    7.5252  -10.7151   20.6912 C   0  0  0  0  0  0  0  0  0  0  0  0
    8.7300  -11.0496   21.1851 C   0  0  0  0  0  0  0  0  0  0  0  0
    9.1138  -12.3326   21.1405 N   0  0  0  0  0  0  0  0  0  0  0  0
    7.0540  -12.9165   20.0312 N   0  0  0  0  0  0  0  0  0  0  0  0
   13.0367   -9.7662   23.1048 O   0  0  0  0  0  0  0  0  0  0  0  0
   12.4914   -9.2922   24.1375 C   0  0  0  0  0  0  0  0  0  0  0  0
   13.1493   -8.5692   24.9318 O   0  0  0  0  0  0  0  0  0  0  0  0
   11.0205   -9.6226   24.3786 C   0  0  0  0  0  0  0  0  0  0  0  0
   10.4668  -10.6829   23.4281 C   0  0  0  0  0  0  0  0  0  0  0  0
    9.9174   -9.8828   21.8977 S   0  0  0  0  0  0  0  0  0  0  0  0
    8.2776  -13.2656   20.5475 C   0  0  0  0  0  0  0  0  0  0  0  0
    5.3850  -10.8762   19.5951 S   0  0  0  0  0  0  0  0  0  0  0  0
    5.5732   -9.3868   20.0222 C   0  0  0  0  0  0  0  0  0  0  0  0
    6.8711   -9.2654   20.6436 C   0  0  0  0  0  0  0  0  0  0  0  0
    7.2426   -7.8766   21.1354 C   0  0  0  0  0  0  0  0  0  0  0  0
    8.4640   -7.5092   21.6510 C   0  0  0  0  0  0  0  0  0  0  0  0
    8.6413   -6.2055   22.0784 C   0  0  0  0  0  0  0  0  0  0  0  0
    7.6160   -5.2802   22.0195 C   0  0  0  0  0  0  0  0  0  0  0  0
    7.8542   -3.8516   22.4987 C   0  0  0  0  0  0  0  0  0  0  0  0
    6.3879   -5.6506   21.5100 C   0  0  0  0  0  0  0  0  0  0  0  0
    6.2120   -6.9466   21.0817 C   0  0  0  0  0  0  0  0  0  0  0  0
   10.9112   -9.9892   25.4099 H   0  0  0  0  0  0  0  0  0  0  0  0
   10.4495   -8.6996   24.1993 H   0  0  0  0  0  0  0  0  0  0  0  0
   11.2529  -11.4170   23.1977 H   0  0  0  0  0  0  0  0  0  0  0  0
    9.6174  -11.1967   23.9020 H   0  0  0  0  0  0  0  0  0  0  0  0
    8.6032  -14.3147   20.4888 H   0  0  0  0  0  0  0  0  0  0  0  0
    4.8465   -8.5741   19.8758 H   0  0  0  0  0  0  0  0  0  0  0  0
    9.2843   -8.2386   21.7222 H   0  0  0  0  0  0  0  0  0  0  0  0
    9.6206   -5.8982   22.4742 H   0  0  0  0  0  0  0  0  0  0  0  0
    7.8579   -3.8295   23.5985 H   0  0  0  0  0  0  0  0  0  0  0  0
    8.8242   -3.4952   22.1216 H   0  0  0  0  0  0  0  0  0  0  0  0
    7.0523   -3.1998   22.1216 H   0  0  0  0  0  0  0  0  0  0  0  0
    5.5650   -4.9233   21.4474 H   0  0  0  0  0  0  0  0  0  0  0  0
    5.2320   -7.2534   20.6874 H   0  0  0  0  0  0  0  0  0  0  0  0
  1  2  1  0
  1  5  2  0
  1 13  1  0
  2  3  2  0
  2 15  1  0
  3  4  1  0
  3 11  1  0
  4 12  2  0
  5 12  1  0
  6  7  2  0
  7  8  1  0
  7  9  1  0
  9 10  1  0
 10 11  1  0
 13 14  1  0
 14 15  2  0
 15 16  1  0
 16 17  2  0
 16 22  1  0
 17 18  1  0
 18 19  2  0
 19 20  1  0
 19 21  1  0
 21 22  2  0
  9 23  1  0
  9 24  1  0
 10 25  1  0
 10 26  1  0
 12 27  1  0
 14 28  1  0
 17 29  1  0
 18 30  1  0
 20 31  1  0
 20 32  1  0
 20 33  1  0
 21 34  1  0
 22 35  1  0
M  CHG  1   8  -1
M  END
>  <filename_input>  (15) 
6Z1C_7EY_docked.sdf

>  <pdb_id>  (15) 
6Z1C_7EY

>  <pose_rank>  (15) 
14

>  <num_atoms_heavy>  (15) 
22

>  <num_torsions>  (15) 
5

>  <pose>  (15) 
[6.666024617332291, -11.654194975490284, 20.099765630649845, -2.2909403487832853, -0.8134644180237787, -1.1921380604213931, 4.259262956215588, -1.1630844083017167, -7.5371212350323, 0.08022768602191752, -3.11072632024747]

>  <energy>  (15) 
-288.19303205872706

>  <inter_energy>  (15) 
-329.99121780863345

>  <intra_energy>  (15) 
41.875275325585996

>  <rmsd>  (15) 
6.94249

>  <sdf_rank>  (15) 
0

$$$$

     RDKit          3D

 35 37  0  0  0  0  0  0  0  0999 V2000
   11.0549   -4.3029   22.9430 C   0  0  0  0  0  0  0  0  0  0  0  0
    9.9323   -5.0816   22.6218 C   0  0  0  0  0  0  0  0  0  0  0  0
    8.7597   -4.5390   22.2502 C   0  0  0  0  0  0  0  0  0  0  0  0
    8.6470   -3.2042   22.2150 N   0  0  0  0  0  0  0  0  0  0  0  0
   10.9535   -2.9858   22.8835 N   0  0  0  0  0  0  0  0  0  0  0  0
    7.8478   -2.0566   19.6198 O   0  0  0  0  0  0  0  0  0  0  0  0
    6.6248   -2.2944   19.8105 C   0  0  0  0  0  0  0  0  0  0  0  0
    5.7941   -1.3498   19.8774 O   0  0  0  0  0  0  0  0  0  0  0  0
    6.1987   -3.7537   19.9500 C   0  0  0  0  0  0  0  0  0  0  0  0
    6.0484   -4.2123   21.3996 C   0  0  0  0  0  0  0  0  0  0  0  0
    7.2936   -5.4797   21.7559 S   0  0  0  0  0  0  0  0  0  0  0  0
    9.7536   -2.4266   22.5187 C   0  0  0  0  0  0  0  0  0  0  0  0
   12.2436   -5.2933   23.2705 S   0  0  0  0  0  0  0  0  0  0  0  0
   11.6602   -6.7372   23.1654 C   0  0  0  0  0  0  0  0  0  0  0  0
   10.2857   -6.6288   22.7360 C   0  0  0  0  0  0  0  0  0  0  0  0
    9.5363   -7.9409   22.5767 C   0  0  0  0  0  0  0  0  0  0  0  0
    8.4751   -8.3562   23.3474 C   0  0  0  0  0  0  0  0  0  0  0  0
    7.9102   -9.5928   23.0916 C   0  0  0  0  0  0  0  0  0  0  0  0
    8.4031  -10.4211   22.1006 C   0  0  0  0  0  0  0  0  0  0  0  0
    7.7492  -11.7763   21.8490 C   0  0  0  0  0  0  0  0  0  0  0  0
    9.4730  -10.0083   21.3327 C   0  0  0  0  0  0  0  0  0  0  0  0
   10.0333   -8.7768   21.5846 C   0  0  0  0  0  0  0  0  0  0  0  0
    5.2315   -3.8834   19.4424 H   0  0  0  0  0  0  0  0  0  0  0  0
    6.9938   -4.3659   19.4994 H   0  0  0  0  0  0  0  0  0  0  0  0
    6.1927   -3.3550   22.0736 H   0  0  0  0  0  0  0  0  0  0  0  0
    5.0421   -4.6295   21.5528 H   0  0  0  0  0  0  0  0  0  0  0  0
    9.6682   -1.3311   22.4660 H   0  0  0  0  0  0  0  0  0  0  0  0
   12.2001   -7.6712   23.3803 H   0  0  0  0  0  0  0  0  0  0  0  0
    8.0831   -7.7169   24.1522 H   0  0  0  0  0  0  0  0  0  0  0  0
    7.0492   -9.9246   23.6903 H   0  0  0  0  0  0  0  0  0  0  0  0
    7.5177  -12.2560   22.8114 H   0  0  0  0  0  0  0  0  0  0  0  0
    6.8203  -11.6346   21.2771 H   0  0  0  0  0  0  0  0  0  0  0  0
    8.4381  -12.4153   21.2771 H   0  0  0  0  0  0  0  0  0  0  0  0
    9.8706  -10.6518   20.5340 H   0  0  0  0  0  0  0  0  0  0  0  0
   10.8952   -8.4465   20.9863 H   0  0  0  0  0  0  0  0  0  0  0  0
  1  2  1  0
  1  5  2  0
  1 13  1  0
  2  3  2  0
  2 15  1  0
  3  4  1  0
  3 11  1  0
  4 12  2  0
  5 12  1  0
  6  7  2  0
  7  8  1  0
  7  9  1  0
  9 10  1  0
 10 11  1  0
 13 14  1  0
 14 15  2  0
 15 16  1  0
 16 17  2  0
 16 22  1  0
 17 18  1  0
 18 19  2  0
 19 20  1  0
 19 21  1  0
 21 22  2  0
  9 23  1  0
  9 24  1  0
 10 25  1  0
 10 26  1  0
 12 27  1  0
 14 28  1  0
 17 29  1  0
 18 30  1  0
 20 31  1  0
 20 32  1  0
 20 33  1  0
 21 34  1  0
 22 35  1  0
M  CHG  1   8  -1
M  END
>  <filename_input>  (16) 
6Z1C_7EY_docked.sdf

>  <pdb_id>  (16) 
6Z1C_7EY

>  <pose_rank>  (16) 
15

>  <num_atoms_heavy>  (16) 
22

>  <num_torsions>  (16) 
5

>  <pose>  (16) 
[11.054947799148197, -4.302913847642778, 22.942984782059533, 0.45729888563005977, -2.849607177477113, 0.6217137873399726, -3.287506199327708, -0.3714668253280762, -3.2719646629839634, -0.4321138775972992, -1.5671167389197378]

>  <energy>  (16) 
-457.1484896428463

>  <inter_energy>  (16) 
-469.693600253284

>  <intra_energy>  (16) 
23.065594549008306

>  <rmsd>  (16) 
4.6257

>  <sdf_rank>  (16) 
0

$$$$

     RDKit          3D

 35 37  0  0  0  0  0  0  0  0999 V2000
    9.8100   -8.8335   23.4283 C   0  0  0  0  0  0  0  0  0  0  0  0
   10.7861   -7.8461   23.6334 C   0  0  0  0  0  0  0  0  0  0  0  0
   10.5847   -6.5552   23.3166 C   0  0  0  0  0  0  0  0  0  0  0  0
    9.4210   -6.2010   22.7547 N   0  0  0  0  0  0  0  0  0  0  0  0
    8.6509   -8.4816   22.8980 N   0  0  0  0  0  0  0  0  0  0  0  0
   10.1784   -1.1698   22.1676 O   0  0  0  0  0  0  0  0  0  0  0  0
   11.4033   -1.3508   22.4031 C   0  0  0  0  0  0  0  0  0  0  0  0
   12.2700   -0.5931   21.8919 O   0  0  0  0  0  0  0  0  0  0  0  0
   11.7858   -2.5067   23.3242 C   0  0  0  0  0  0  0  0  0  0  0  0
   10.8482   -3.7086   23.2209 C   0  0  0  0  0  0  0  0  0  0  0  0
   11.7690   -5.2185   23.6160 S   0  0  0  0  0  0  0  0  0  0  0  0
    8.4460   -7.1667   22.5592 C   0  0  0  0  0  0  0  0  0  0  0  0
   10.3923  -10.1993   23.9732 S   0  0  0  0  0  0  0  0  0  0  0  0
   11.8454   -9.9004   24.4580 C   0  0  0  0  0  0  0  0  0  0  0  0
   12.0822   -8.4846   24.3000 C   0  0  0  0  0  0  0  0  0  0  0  0
   13.4573   -7.9924   24.7185 C   0  0  0  0  0  0  0  0  0  0  0  0
   13.7312   -6.7727   25.2929 C   0  0  0  0  0  0  0  0  0  0  0  0
   15.0438   -6.4605   25.5987 C   0  0  0  0  0  0  0  0  0  0  0  0
   16.0782   -7.3337   25.3184 C   0  0  0  0  0  0  0  0  0  0  0  0
   17.5116   -6.9518   25.6743 C   0  0  0  0  0  0  0  0  0  0  0  0
   15.8047   -8.5540   24.7344 C   0  0  0  0  0  0  0  0  0  0  0  0
   14.4987   -8.8664   24.4330 C   0  0  0  0  0  0  0  0  0  0  0  0
   12.8027   -2.8359   23.0646 H   0  0  0  0  0  0  0  0  0  0  0  0
   11.7171   -2.1324   24.3562 H   0  0  0  0  0  0  0  0  0  0  0  0
   10.0165   -3.5885   23.9308 H   0  0  0  0  0  0  0  0  0  0  0  0
   10.4467   -3.7773   22.1991 H   0  0  0  0  0  0  0  0  0  0  0  0
    7.4813   -6.8716   22.1205 H   0  0  0  0  0  0  0  0  0  0  0  0
   12.5619  -10.6372   24.8503 H   0  0  0  0  0  0  0  0  0  0  0  0
   12.9216   -6.0589   25.5052 H   0  0  0  0  0  0  0  0  0  0  0  0
   15.2696   -5.4954   26.0758 H   0  0  0  0  0  0  0  0  0  0  0  0
   17.6223   -6.9223   26.7683 H   0  0  0  0  0  0  0  0  0  0  0  0
   18.2043   -7.6968   25.2556 H   0  0  0  0  0  0  0  0  0  0  0  0
   17.7419   -5.9610   25.2556 H   0  0  0  0  0  0  0  0  0  0  0  0
   16.6157   -9.2638   24.5140 H   0  0  0  0  0  0  0  0  0  0  0  0
   14.2741   -9.8312   23.9547 H   0  0  0  0  0  0  0  0  0  0  0  0
  1  2  1  0
  1  5  2  0
  1 13  1  0
  2  3  2  0
  2 15  1  0
  3  4  1  0
  3 11  1  0
  4 12  2  0
  5 12  1  0
  6  7  2  0
  7  8  1  0
  7  9  1  0
  9 10  1  0
 10 11  1  0
 13 14  1  0
 14 15  2  0
 15 16  1  0
 16 17  2  0
 16 22  1  0
 17 18  1  0
 18 19  2  0
 19 20  1  0
 19 21  1  0
 21 22  2  0
  9 23  1  0
  9 24  1  0
 10 25  1  0
 10 26  1  0
 12 27  1  0
 14 28  1  0
 17 29  1  0
 18 30  1  0
 20 31  1  0
 20 32  1  0
 20 33  1  0
 21 34  1  0
 22 35  1  0
M  CHG  1   8  -1
M  END
>  <filename_input>  (17) 
6Z1C_7EY_docked.sdf

>  <pdb_id>  (17) 
6Z1C_7EY

>  <pose_rank>  (17) 
16

>  <num_atoms_heavy>  (17) 
22

>  <num_torsions>  (17) 
5

>  <pose>  (17) 
[9.81000905118802, -8.833544918695427, 23.428312018122103, 1.877701023486336, -1.863413890016325, -4.604641392159539, -1.5221589240393785, -0.21139048678628083, 4.727194624180942, -2.0733789168519428, 3.58082971726617]

>  <energy>  (17) 
-441.2349716392067

>  <inter_energy>  (17) 
-467.12860910805597

>  <intra_energy>  (17) 
23.787183478720852

>  <rmsd>  (17) 
5.69814

>  <sdf_rank>  (17) 
0

$$$$

     RDKit          3D

 35 37  0  0  0  0  0  0  0  0999 V2000
   11.9610   -5.6163   23.9174 C   0  0  0  0  0  0  0  0  0  0  0  0
   10.6702   -5.7059   23.3738 C   0  0  0  0  0  0  0  0  0  0  0  0
    9.8724   -4.6337   23.2276 C   0  0  0  0  0  0  0  0  0  0  0  0
   10.3121   -3.4387   23.6449 N   0  0  0  0  0  0  0  0  0  0  0  0
   12.4069   -4.4335   24.3058 N   0  0  0  0  0  0  0  0  0  0  0  0
    7.3211   -2.5317   18.7055 O   0  0  0  0  0  0  0  0  0  0  0  0
    7.7187   -2.0854   19.8151 C   0  0  0  0  0  0  0  0  0  0  0  0
    7.2023   -1.0472   20.3073 O   0  0  0  0  0  0  0  0  0  0  0  0
    8.8324   -2.8476   20.5288 C   0  0  0  0  0  0  0  0  0  0  0  0
    8.5343   -4.3342   20.7173 C   0  0  0  0  0  0  0  0  0  0  0  0
    8.2267   -4.6625   22.4727 S   0  0  0  0  0  0  0  0  0  0  0  0
   11.5901   -3.3377   24.1720 C   0  0  0  0  0  0  0  0  0  0  0  0
   12.5987   -7.0628   23.8714 S   0  0  0  0  0  0  0  0  0  0  0  0
   11.5017   -8.0135   23.2980 C   0  0  0  0  0  0  0  0  0  0  0  0
   10.3533   -7.2079   22.9550 C   0  0  0  0  0  0  0  0  0  0  0  0
    9.1657   -7.9595   22.3778 C   0  0  0  0  0  0  0  0  0  0  0  0
    7.8475   -7.5812   22.4881 C   0  0  0  0  0  0  0  0  0  0  0  0
    6.8744   -8.3867   21.9242 C   0  0  0  0  0  0  0  0  0  0  0  0
    7.1973   -9.5657   21.2787 C   0  0  0  0  0  0  0  0  0  0  0  0
    6.0936  -10.4237   20.6679 C   0  0  0  0  0  0  0  0  0  0  0  0
    8.5189   -9.9497   21.1750 C   0  0  0  0  0  0  0  0  0  0  0  0
    9.4877   -9.1472   21.7330 C   0  0  0  0  0  0  0  0  0  0  0  0
    9.7546   -2.7504   19.9371 H   0  0  0  0  0  0  0  0  0  0  0  0
    8.9307   -2.4091   21.5328 H   0  0  0  0  0  0  0  0  0  0  0  0
    7.6453   -4.6084   20.1304 H   0  0  0  0  0  0  0  0  0  0  0  0
    9.3935   -4.9297   20.3750 H   0  0  0  0  0  0  0  0  0  0  0  0
   11.9603   -2.3525   24.4920 H   0  0  0  0  0  0  0  0  0  0  0  0
   11.5880   -9.1034   23.1766 H   0  0  0  0  0  0  0  0  0  0  0  0
    7.5725   -6.6556   23.0149 H   0  0  0  0  0  0  0  0  0  0  0  0
    5.8195   -8.0820   21.9910 H   0  0  0  0  0  0  0  0  0  0  0  0
    5.5005  -10.8847   21.4715 H   0  0  0  0  0  0  0  0  0  0  0  0
    5.4410   -9.7934   20.0459 H   0  0  0  0  0  0  0  0  0  0  0  0
    6.5435  -11.2116   20.0459 H   0  0  0  0  0  0  0  0  0  0  0  0
    8.7928  -10.8801   20.6560 H   0  0  0  0  0  0  0  0  0  0  0  0
   10.5422   -9.4534   21.6669 H   0  0  0  0  0  0  0  0  0  0  0  0
  1  2  1  0
  1  5  2  0
  1 13  1  0
  2  3  2  0
  2 15  1  0
  3  4  1  0
  3 11  1  0
  4 12  2  0
  5 12  1  0
  6  7  2  0
  7  8  1  0
  7  9  1  0
  9 10  1  0
 10 11  1  0
 13 14  1  0
 14 15  2  0
 15 16  1  0
 16 17  2  0
 16 22  1  0
 17 18  1  0
 18 19  2  0
 19 20  1  0
 19 21  1  0
 21 22  2  0
  9 23  1  0
  9 24  1  0
 10 25  1  0
 10 26  1  0
 12 27  1  0
 14 28  1  0
 17 29  1  0
 18 30  1  0
 20 31  1  0
 20 32  1  0
 20 33  1  0
 21 34  1  0
 22 35  1  0
M  CHG  1   8  -1
M  END
>  <filename_input>  (18) 
6Z1C_7EY_docked.sdf

>  <pdb_id>  (18) 
6Z1C_7EY

>  <pose_rank>  (18) 
17

>  <num_atoms_heavy>  (18) 
22

>  <num_torsions>  (18) 
5

>  <pose>  (18) 
[11.961009203703396, -5.616275964810146, 23.917446805060713, -0.14185267382405634, -2.9713943636017555, 0.07121881968796659, 3.658320025772599, 7.486286621565135, 0.17837483006818658, -0.33817982114183553, -4.204209761846478]

>  <energy>  (18) 
-468.96815434703046

>  <inter_energy>  (18) 
-491.5640459028554

>  <intra_energy>  (18) 
29.36477742212693

>  <rmsd>  (18) 
5.07951

>  <sdf_rank>  (18) 
0

$$$$

     RDKit          3D

 35 37  0  0  0  0  0  0  0  0999 V2000
   12.2199   -3.9207   23.3435 C   0  0  0  0  0  0  0  0  0  0  0  0
   10.8238   -3.9481   23.2015 C   0  0  0  0  0  0  0  0  0  0  0  0
   10.0970   -2.8356   22.9976 C   0  0  0  0  0  0  0  0  0  0  0  0
   10.7233   -1.6516   22.9598 N   0  0  0  0  0  0  0  0  0  0  0  0
   12.8428   -2.7560   23.2803 N   0  0  0  0  0  0  0  0  0  0  0  0
    6.0885   -3.3091   19.0384 O   0  0  0  0  0  0  0  0  0  0  0  0
    6.6413   -2.2193   19.3472 C   0  0  0  0  0  0  0  0  0  0  0  0
    6.0940   -1.1221   19.0586 O   0  0  0  0  0  0  0  0  0  0  0  0
    7.9795   -2.2845   20.0791 C   0  0  0  0  0  0  0  0  0  0  0  0
    8.0855   -3.4515   21.0595 C   0  0  0  0  0  0  0  0  0  0  0  0
    8.3053   -2.8024   22.7370 S   0  0  0  0  0  0  0  0  0  0  0  0
   12.1032   -1.6153   23.0869 C   0  0  0  0  0  0  0  0  0  0  0  0
   12.7113   -5.4148   23.5080 S   0  0  0  0  0  0  0  0  0  0  0  0
   11.4299   -6.3059   23.5105 C   0  0  0  0  0  0  0  0  0  0  0  0
   10.2922   -5.4454   23.2853 C   0  0  0  0  0  0  0  0  0  0  0  0
    8.9374   -6.1327   23.2566 C   0  0  0  0  0  0  0  0  0  0  0  0
    7.7494   -5.5798   23.6755 C   0  0  0  0  0  0  0  0  0  0  0  0
    6.5983   -6.3441   23.6062 C   0  0  0  0  0  0  0  0  0  0  0  0
    6.6239   -7.6489   23.1503 C   0  0  0  0  0  0  0  0  0  0  0  0
    5.3312   -8.4565   23.0872 C   0  0  0  0  0  0  0  0  0  0  0  0
    7.8170   -8.2068   22.7378 C   0  0  0  0  0  0  0  0  0  0  0  0
    8.9619   -7.4458   22.8036 C   0  0  0  0  0  0  0  0  0  0  0  0
    8.7800   -2.3850   19.3313 H   0  0  0  0  0  0  0  0  0  0  0  0
    8.0699   -1.3599   20.6680 H   0  0  0  0  0  0  0  0  0  0  0  0
    7.1660   -4.0537   21.0155 H   0  0  0  0  0  0  0  0  0  0  0  0
    8.9460   -4.0822   20.7916 H   0  0  0  0  0  0  0  0  0  0  0  0
   12.6200   -0.6458   23.0312 H   0  0  0  0  0  0  0  0  0  0  0  0
   11.3989   -7.3956   23.6577 H   0  0  0  0  0  0  0  0  0  0  0  0
    7.7153   -4.5492   24.0584 H   0  0  0  0  0  0  0  0  0  0  0  0
    5.6409   -5.9034   23.9209 H   0  0  0  0  0  0  0  0  0  0  0  0
    4.9840   -8.6733   24.1082 H   0  0  0  0  0  0  0  0  0  0  0  0
    4.5628   -7.8774   22.5539 H   0  0  0  0  0  0  0  0  0  0  0  0
    5.5145   -9.4009   22.5539 H   0  0  0  0  0  0  0  0  0  0  0  0
    7.8522   -9.2405   22.3635 H   0  0  0  0  0  0  0  0  0  0  0  0
    9.9191   -7.8878   22.4899 H   0  0  0  0  0  0  0  0  0  0  0  0
  1  2  1  0
  1  5  2  0
  1 13  1  0
  2  3  2  0
  2 15  1  0
  3  4  1  0
  3 11  1  0
  4 12  2  0
  5 12  1  0
  6  7  2  0
  7  8  1  0
  7  9  1  0
  9 10  1  0
 10 11  1  0
 13 14  1  0
 14 15  2  0
 15 16  1  0
 16 17  2  0
 16 22  1  0
 17 18  1  0
 18 19  2  0
 19 20  1  0
 19 21  1  0
 21 22  2  0
  9 23  1  0
  9 24  1  0
 10 25  1  0
 10 26  1  0
 12 27  1  0
 14 28  1  0
 17 29  1  0
 18 30  1  0
 20 31  1  0
 20 32  1  0
 20 33  1  0
 21 34  1  0
 22 35  1  0
M  CHG  1   8  -1
M  END
>  <filename_input>  (19) 
6Z1C_7EY_docked.sdf

>  <pdb_id>  (19) 
6Z1C_7EY

>  <pose_rank>  (19) 
18

>  <num_atoms_heavy>  (19) 
22

>  <num_torsions>  (19) 
5

>  <pose>  (19) 
[12.219856667156943, -3.920657989404575, 23.343539634251485, -0.298353445650267, -2.655253860181631, 0.4137274916429576, 3.593775633712936, 7.79193809321324, -0.17003148947352117, -0.4837495396839676, -3.8946070765945957]

>  <energy>  (19) 
-509.1705264415508

>  <inter_energy>  (19) 
-529.6293565129171

>  <intra_energy>  (19) 
32.52501770310314

>  <rmsd>  (19) 
5.03619

>  <sdf_rank>  (19) 
0

$$$$

     RDKit          3D

 35 37  0  0  0  0  0  0  0  0999 V2000
   11.4649   -9.2666   23.4249 C   0  0  0  0  0  0  0  0  0  0  0  0
   10.8796   -8.0819   22.9518 C   0  0  0  0  0  0  0  0  0  0  0  0
    9.7930   -8.0798   22.1601 C   0  0  0  0  0  0  0  0  0  0  0  0
    9.2663   -9.2523   21.7815 N   0  0  0  0  0  0  0  0  0  0  0  0
   10.9309  -10.4242   23.0738 N   0  0  0  0  0  0  0  0  0  0  0  0
    5.9760   -5.9614   24.2025 O   0  0  0  0  0  0  0  0  0  0  0  0
    5.4714   -6.2259   23.0783 C   0  0  0  0  0  0  0  0  0  0  0  0
    4.3112   -6.7097   22.9976 O   0  0  0  0  0  0  0  0  0  0  0  0
    6.3113   -5.9350   21.8371 C   0  0  0  0  0  0  0  0  0  0  0  0
    7.2107   -7.0973   21.4195 C   0  0  0  0  0  0  0  0  0  0  0  0
    8.9448   -6.5929   21.5697 S   0  0  0  0  0  0  0  0  0  0  0  0
    9.8298  -10.4275   22.2533 C   0  0  0  0  0  0  0  0  0  0  0  0
   12.6729   -8.8600   24.3612 S   0  0  0  0  0  0  0  0  0  0  0  0
   12.7597   -7.3021   24.3227 C   0  0  0  0  0  0  0  0  0  0  0  0
   11.6647   -6.8179   23.5152 C   0  0  0  0  0  0  0  0  0  0  0  0
   11.5783   -5.3097   23.3526 C   0  0  0  0  0  0  0  0  0  0  0  0
   10.4383   -4.6001   23.0531 C   0  0  0  0  0  0  0  0  0  0  0  0
   10.5261   -3.2263   22.9158 C   0  0  0  0  0  0  0  0  0  0  0  0
   11.7313   -2.5625   23.0492 C   0  0  0  0  0  0  0  0  0  0  0  0
   11.7842   -1.0459   22.8927 C   0  0  0  0  0  0  0  0  0  0  0  0
   12.8767   -3.2750   23.3413 C   0  0  0  0  0  0  0  0  0  0  0  0
   12.7894   -4.6414   23.4813 C   0  0  0  0  0  0  0  0  0  0  0  0
    5.6315   -5.7048   21.0035 H   0  0  0  0  0  0  0  0  0  0  0  0
    6.9709   -5.0904   22.0852 H   0  0  0  0  0  0  0  0  0  0  0  0
    7.0213   -7.9621   22.0725 H   0  0  0  0  0  0  0  0  0  0  0  0
    6.9956   -7.3751   20.3771 H   0  0  0  0  0  0  0  0  0  0  0  0
    9.3826  -11.3895   21.9623 H   0  0  0  0  0  0  0  0  0  0  0  0
   13.5197   -6.6831   24.8218 H   0  0  0  0  0  0  0  0  0  0  0  0
    9.4750   -5.1155   22.9253 H   0  0  0  0  0  0  0  0  0  0  0  0
    9.6161   -2.6490   22.6955 H   0  0  0  0  0  0  0  0  0  0  0  0
   11.8005   -0.5751   23.8867 H   0  0  0  0  0  0  0  0  0  0  0  0
   12.6926   -0.7658   22.3393 H   0  0  0  0  0  0  0  0  0  0  0  0
   10.8974   -0.7033   22.3393 H   0  0  0  0  0  0  0  0  0  0  0  0
   13.8416   -2.7603   23.4602 H   0  0  0  0  0  0  0  0  0  0  0  0
   13.7002   -5.2180   23.7003 H   0  0  0  0  0  0  0  0  0  0  0  0
  1  2  1  0
  1  5  2  0
  1 13  1  0
  2  3  2  0
  2 15  1  0
  3  4  1  0
  3 11  1  0
  4 12  2  0
  5 12  1  0
  6  7  2  0
  7  8  1  0
  7  9  1  0
  9 10  1  0
 10 11  1  0
 13 14  1  0
 14 15  2  0
 15 16  1  0
 16 17  2  0
 16 22  1  0
 17 18  1  0
 18 19  2  0
 19 20  1  0
 19 21  1  0
 21 22  2  0
  9 23  1  0
  9 24  1  0
 10 25  1  0
 10 26  1  0
 12 27  1  0
 14 28  1  0
 17 29  1  0
 18 30  1  0
 20 31  1  0
 20 32  1  0
 20 33  1  0
 21 34  1  0
 22 35  1  0
M  CHG  1   8  -1
M  END
>  <filename_input>  (20) 
6Z1C_7EY_docked.sdf

>  <pdb_id>  (20) 
6Z1C_7EY

>  <pose_rank>  (20) 
19

>  <num_atoms_heavy>  (20) 
22

>  <num_torsions>  (20) 
5

>  <pose>  (20) 
[11.46491250450071, -9.26659102516396, 23.424949521979936, 2.044171593008255, -0.46291223360003014, -3.4346466305840964, -1.709441577138596, 0.18538694197521566, -2.2850158523755635, -0.4543653994974048, -1.725206212922574]

>  <energy>  (20) 
-451.0266039888728

>  <inter_energy>  (20) 
-476.6517741015858

>  <intra_energy>  (20) 
30.753296215584708

>  <rmsd>  (20) 
6.98056

>  <sdf_rank>  (20) 
0

$$$$

     RDKit          3D

 35 37  0  0  0  0  0  0  0  0999 V2000
   10.1716   -8.2807   22.8088 C   0  0  0  0  0  0  0  0  0  0  0  0
    9.3684   -9.4278   22.7137 C   0  0  0  0  0  0  0  0  0  0  0  0
    9.8314  -10.6584   22.9942 C   0  0  0  0  0  0  0  0  0  0  0  0
   11.1161  -10.8013   23.3475 N   0  0  0  0  0  0  0  0  0  0  0  0
   11.4327   -8.4165   23.1826 N   0  0  0  0  0  0  0  0  0  0  0  0
    6.9514  -13.9713   26.0081 O   0  0  0  0  0  0  0  0  0  0  0  0
    8.2074  -14.0074   25.9088 C   0  0  0  0  0  0  0  0  0  0  0  0
    8.9339  -13.7425   26.9032 O   0  0  0  0  0  0  0  0  0  0  0  0
    8.8018  -14.3848   24.5542 C   0  0  0  0  0  0  0  0  0  0  0  0
    9.7629  -13.3377   23.9936 C   0  0  0  0  0  0  0  0  0  0  0  0
    8.8372  -12.1715   22.9606 S   0  0  0  0  0  0  0  0  0  0  0  0
   11.9142   -9.6731   23.4560 C   0  0  0  0  0  0  0  0  0  0  0  0
    9.2641   -7.0336   22.4591 S   0  0  0  0  0  0  0  0  0  0  0  0
    7.8578   -7.5986   22.0862 C   0  0  0  0  0  0  0  0  0  0  0  0
    7.8918   -9.0299   22.2747 C   0  0  0  0  0  0  0  0  0  0  0  0
    6.6037   -9.7705   21.9570 C   0  0  0  0  0  0  0  0  0  0  0  0
    6.0389  -10.7619   22.7257 C   0  0  0  0  0  0  0  0  0  0  0  0
    4.8694  -11.3581   22.2891 C   0  0  0  0  0  0  0  0  0  0  0  0
    4.2764  -10.9958   21.0941 C   0  0  0  0  0  0  0  0  0  0  0  0
    2.9851  -11.6764   20.6504 C   0  0  0  0  0  0  0  0  0  0  0  0
    4.8471  -10.0071   20.3185 C   0  0  0  0  0  0  0  0  0  0  0  0
    6.0089   -9.4114   20.7540 C   0  0  0  0  0  0  0  0  0  0  0  0
    9.3478  -15.3331   24.6662 H   0  0  0  0  0  0  0  0  0  0  0  0
    7.9639  -14.4649   23.8459 H   0  0  0  0  0  0  0  0  0  0  0  0
   10.2407  -12.7955   24.8229 H   0  0  0  0  0  0  0  0  0  0  0  0
   10.5371  -13.8328   23.3891 H   0  0  0  0  0  0  0  0  0  0  0  0
   12.9623   -9.7877   23.7697 H   0  0  0  0  0  0  0  0  0  0  0  0
    6.9943   -7.0110   21.7411 H   0  0  0  0  0  0  0  0  0  0  0  0
    6.5086  -11.0747   23.6699 H   0  0  0  0  0  0  0  0  0  0  0  0
    4.4007  -12.1381   22.9070 H   0  0  0  0  0  0  0  0  0  0  0  0
    2.4079  -11.9806   21.5361 H   0  0  0  0  0  0  0  0  0  0  0  0
    2.3894  -10.9751   20.0477 H   0  0  0  0  0  0  0  0  0  0  0  0
    3.2269  -12.5642   20.0477 H   0  0  0  0  0  0  0  0  0  0  0  0
    4.3821   -9.7009   19.3699 H   0  0  0  0  0  0  0  0  0  0  0  0
    6.4776   -8.6324   20.1348 H   0  0  0  0  0  0  0  0  0  0  0  0
  1  2  1  0
  1  5  2  0
  1 13  1  0
  2  3  2  0
  2 15  1  0
  3  4  1  0
  3 11  1  0
  4 12  2  0
  5 12  1  0
  6  7  2  0
  7  8  1  0
  7  9  1  0
  9 10  1  0
 10 11  1  0
 13 14  1  0
 14 15  2  0
 15 16  1  0
 16 17  2  0
 16 22  1  0
 17 18  1  0
 18 19  2  0
 19 20  1  0
 19 21  1  0
 21 22  2  0
  9 23  1  0
  9 24  1  0
 10 25  1  0
 10 26  1  0
 12 27  1  0
 14 28  1  0
 17 29  1  0
 18 30  1  0
 20 31  1  0
 20 32  1  0
 20 33  1  0
 21 34  1  0
 22 35  1  0
M  CHG  1   8  -1
M  END
>  <filename_input>  (21) 
6Z1C_7EY_docked.sdf

>  <pdb_id>  (21) 
6Z1C_7EY

>  <pose_rank>  (21) 
20

>  <num_atoms_heavy>  (21) 
22

>  <num_torsions>  (21) 
5

>  <pose>  (21) 
[10.171613869150429, -8.280738782982311, 22.808782416763144, 0.8724000110418275, -0.19383629256864493, -1.8036163554568756, -1.3527973967810205, 0.006663089400860708, -2.072709806721068, -0.017751407943075174, -1.1144782095308012]

>  <energy>  (21) 
-216.2722945951693

>  <inter_energy>  (21) 
-233.60858978083866

>  <intra_energy>  (21) 
17.234921036700364

>  <rmsd>  (21) 
8.75729

>  <sdf_rank>  (21) 
0

$$$$

     RDKit          3D

 35 37  0  0  0  0  0  0  0  0999 V2000
   10.1850   -8.9565   22.5126 C   0  0  0  0  0  0  0  0  0  0  0  0
    9.0244   -8.4405   21.9154 C   0  0  0  0  0  0  0  0  0  0  0  0
    8.1804   -9.2039   21.1997 C   0  0  0  0  0  0  0  0  0  0  0  0
    8.4725  -10.4995   21.0221 N   0  0  0  0  0  0  0  0  0  0  0  0
   10.4616  -10.2406   22.3605 N   0  0  0  0  0  0  0  0  0  0  0  0
    4.0035   -8.8380   23.4894 O   0  0  0  0  0  0  0  0  0  0  0  0
    4.2637   -9.8373   22.7667 C   0  0  0  0  0  0  0  0  0  0  0  0
    4.5355  -10.9501   23.2906 O   0  0  0  0  0  0  0  0  0  0  0  0
    4.2312   -9.6458   21.2524 C   0  0  0  0  0  0  0  0  0  0  0  0
    5.5271  -10.0561   20.5549 C   0  0  0  0  0  0  0  0  0  0  0  0
    6.6326   -8.6233   20.4606 S   0  0  0  0  0  0  0  0  0  0  0  0
    9.6101  -11.0213   21.6180 C   0  0  0  0  0  0  0  0  0  0  0  0
   10.8770   -7.7767   23.3065 S   0  0  0  0  0  0  0  0  0  0  0  0
   10.0166   -6.5010   23.0451 C   0  0  0  0  0  0  0  0  0  0  0  0
    8.8781   -6.8912   22.2469 C   0  0  0  0  0  0  0  0  0  0  0  0
    7.9129   -5.7764   21.8805 C   0  0  0  0  0  0  0  0  0  0  0  0
    6.6172   -5.6591   22.3277 C   0  0  0  0  0  0  0  0  0  0  0  0
    5.8538   -4.5940   21.8844 C   0  0  0  0  0  0  0  0  0  0  0  0
    6.3566   -3.6675   20.9902 C   0  0  0  0  0  0  0  0  0  0  0  0
    5.4821   -2.5058   20.5285 C   0  0  0  0  0  0  0  0  0  0  0  0
    7.6538   -3.7894   20.5348 C   0  0  0  0  0  0  0  0  0  0  0  0
    8.4148   -4.8470   20.9780 C   0  0  0  0  0  0  0  0  0  0  0  0
    3.4093  -10.2516   20.8431 H   0  0  0  0  0  0  0  0  0  0  0  0
    4.0919   -8.5706   21.0666 H   0  0  0  0  0  0  0  0  0  0  0  0
    6.0143  -10.8596   21.1269 H   0  0  0  0  0  0  0  0  0  0  0  0
    5.3025  -10.4170   19.5404 H   0  0  0  0  0  0  0  0  0  0  0  0
    9.8370  -12.0903   21.4926 H   0  0  0  0  0  0  0  0  0  0  0  0
   10.2380   -5.4853   23.4048 H   0  0  0  0  0  0  0  0  0  0  0  0
    6.1961   -6.3985   23.0248 H   0  0  0  0  0  0  0  0  0  0  0  0
    4.8231   -4.4819   22.2519 H   0  0  0  0  0  0  0  0  0  0  0  0
    5.0831   -1.9759   21.4060 H   0  0  0  0  0  0  0  0  0  0  0  0
    6.0838   -1.8118   19.9234 H   0  0  0  0  0  0  0  0  0  0  0  0
    4.6487   -2.8922   19.9234 H   0  0  0  0  0  0  0  0  0  0  0  0
    8.0716   -3.0549   19.8307 H   0  0  0  0  0  0  0  0  0  0  0  0
    9.4449   -4.9591   20.6089 H   0  0  0  0  0  0  0  0  0  0  0  0
  1  2  1  0
  1  5  2  0
  1 13  1  0
  2  3  2  0
  2 15  1  0
  3  4  1  0
  3 11  1  0
  4 12  2  0
  5 12  1  0
  6  7  2  0
  7  8  1  0
  7  9  1  0
  9 10  1  0
 10 11  1  0
 13 14  1  0
 14 15  2  0
 15 16  1  0
 16 17  2  0
 16 22  1  0
 17 18  1  0
 18 19  2  0
 19 20  1  0
 19 21  1  0
 21 22  2  0
  9 23  1  0
  9 24  1  0
 10 25  1  0
 10 26  1  0
 12 27  1  0
 14 28  1  0
 17 29  1  0
 18 30  1  0
 20 31  1  0
 20 32  1  0
 20 33  1  0
 21 34  1  0
 22 35  1  0
M  CHG  1   8  -1
M  END
>  <filename_input>  (22) 
6Z1C_7EY_docked.sdf

>  <pdb_id>  (22) 
6Z1C_7EY

>  <pose_rank>  (22) 
21

>  <num_atoms_heavy>  (22) 
22

>  <num_torsions>  (22) 
5

>  <pose>  (22) 
[10.185044092376287, -8.9565011180599, 22.512603657467512, 1.6898329877836678, -0.05287938496688161, -2.9396140888743303, -0.9566022103249198, 0.22657051055861718, -2.5727986491131993, -0.00613142475853385, -1.0940450825599224]

>  <energy>  (22) 
-432.5243003523191

>  <inter_energy>  (22) 
-449.0892729977902

>  <intra_energy>  (22) 
4.72170756469991

>  <rmsd>  (22) 
7.61407

>  <sdf_rank>  (22) 
0

$$$$

     RDKit          3D

 35 37  0  0  0  0  0  0  0  0999 V2000
    8.1261  -10.2572   20.2103 C   0  0  0  0  0  0  0  0  0  0  0  0
    7.6066   -9.4620   21.2436 C   0  0  0  0  0  0  0  0  0  0  0  0
    8.3760   -8.9619   22.2261 C   0  0  0  0  0  0  0  0  0  0  0  0
    9.6827   -9.2585   22.2389 N   0  0  0  0  0  0  0  0  0  0  0  0
    9.4201  -10.5295   20.2066 N   0  0  0  0  0  0  0  0  0  0  0  0
   11.2805   -5.7922   24.1672 O   0  0  0  0  0  0  0  0  0  0  0  0
   10.2926   -5.2282   23.6244 C   0  0  0  0  0  0  0  0  0  0  0  0
    9.9676   -4.0562   23.9524 O   0  0  0  0  0  0  0  0  0  0  0  0
    9.5214   -6.0119   22.5654 C   0  0  0  0  0  0  0  0  0  0  0  0
    8.0427   -6.2019   22.8995 C   0  0  0  0  0  0  0  0  0  0  0  0
    7.7887   -7.8743   23.5495 S   0  0  0  0  0  0  0  0  0  0  0  0
   10.2076  -10.0330   21.2161 C   0  0  0  0  0  0  0  0  0  0  0  0
    6.9348  -10.6003   19.2285 S   0  0  0  0  0  0  0  0  0  0  0  0
    5.6511   -9.9657   19.8492 C   0  0  0  0  0  0  0  0  0  0  0  0
    6.0442   -9.2434   21.0363 C   0  0  0  0  0  0  0  0  0  0  0  0
    4.9226   -8.5511   21.7922 C   0  0  0  0  0  0  0  0  0  0  0  0
    4.4856   -7.2647   21.5761 C   0  0  0  0  0  0  0  0  0  0  0  0
    3.4638   -6.7674   22.3651 C   0  0  0  0  0  0  0  0  0  0  0  0
    2.8956   -7.5240   23.3728 C   0  0  0  0  0  0  0  0  0  0  0  0
    1.7688   -6.9386   24.2184 C   0  0  0  0  0  0  0  0  0  0  0  0
    3.3395   -8.8118   23.5955 C   0  0  0  0  0  0  0  0  0  0  0  0
    4.3537   -9.3082   22.8087 C   0  0  0  0  0  0  0  0  0  0  0  0
    9.5952   -5.4711   21.6104 H   0  0  0  0  0  0  0  0  0  0  0  0
    9.9716   -7.0143   22.5150 H   0  0  0  0  0  0  0  0  0  0  0  0
    7.7385   -5.4632   23.6556 H   0  0  0  0  0  0  0  0  0  0  0  0
    7.4378   -6.0626   21.9914 H   0  0  0  0  0  0  0  0  0  0  0  0
   11.2847  -10.2562   21.2131 H   0  0  0  0  0  0  0  0  0  0  0  0
    4.6287  -10.0529   19.4528 H   0  0  0  0  0  0  0  0  0  0  0  0
    4.9401   -6.6431   20.7906 H   0  0  0  0  0  0  0  0  0  0  0  0
    3.0951   -5.7465   22.1864 H   0  0  0  0  0  0  0  0  0  0  0  0
    2.0081   -7.0629   25.2849 H   0  0  0  0  0  0  0  0  0  0  0  0
    1.6570   -5.8684   23.9901 H   0  0  0  0  0  0  0  0  0  0  0  0
    0.8289   -7.4624   23.9901 H   0  0  0  0  0  0  0  0  0  0  0  0
    2.8909   -9.4299   24.3871 H   0  0  0  0  0  0  0  0  0  0  0  0
    4.7227  -10.3286   22.9890 H   0  0  0  0  0  0  0  0  0  0  0  0
  1  2  1  0
  1  5  2  0
  1 13  1  0
  2  3  2  0
  2 15  1  0
  3  4  1  0
  3 11  1  0
  4 12  2  0
  5 12  1  0
  6  7  2  0
  7  8  1  0
  7  9  1  0
  9 10  1  0
 10 11  1  0
 13 14  1  0
 14 15  2  0
 15 16  1  0
 16 17  2  0
 16 22  1  0
 17 18  1  0
 18 19  2  0
 19 20  1  0
 19 21  1  0
 21 22  2  0
  9 23  1  0
  9 24  1  0
 10 25  1  0
 10 26  1  0
 12 27  1  0
 14 28  1  0
 17 29  1  0
 18 30  1  0
 20 31  1  0
 20 32  1  0
 20 33  1  0
 21 34  1  0
 22 35  1  0
M  CHG  1   8  -1
M  END
>  <filename_input>  (23) 
6Z1C_7EY_docked.sdf

>  <pdb_id>  (23) 
6Z1C_7EY

>  <pose_rank>  (23) 
22

>  <num_atoms_heavy>  (23) 
22

>  <num_torsions>  (23) 
5

>  <pose>  (23) 
[8.126126841310525, -10.257201437258294, 20.210335838388296, 2.012540817143429, 2.874499672925472, 2.1872302859159745, -0.552596613183636, 1.1876603326392152, 0.4850415873101347, -0.18987210881849312, -1.1544999139473624]

>  <energy>  (23) 
-417.9861914298698

>  <inter_energy>  (23) 
-385.47121767091943

>  <intra_energy>  (23) 
5.956933849206639

>  <rmsd>  (23) 
5.89226

>  <sdf_rank>  (23) 
0

$$$$

     RDKit          3D

 35 37  0  0  0  0  0  0  0  0999 V2000
    4.4209    3.6144   30.0338 C   0  0  0  0  0  0  0  0  0  0  0  0
    3.5054    2.6088   29.6866 C   0  0  0  0  0  0  0  0  0  0  0  0
    3.0972    2.4099   28.4213 C   0  0  0  0  0  0  0  0  0  0  0  0
    3.5559    3.2211   27.4585 N   0  0  0  0  0  0  0  0  0  0  0  0
    4.8950    4.3994   29.0811 N   0  0  0  0  0  0  0  0  0  0  0  0
   -0.3416    4.3840   28.7119 O   0  0  0  0  0  0  0  0  0  0  0  0
   -0.2766    4.1200   27.4812 C   0  0  0  0  0  0  0  0  0  0  0  0
   -0.3483    5.0422   26.6261 O   0  0  0  0  0  0  0  0  0  0  0  0
   -0.1048    2.6578   27.0770 C   0  0  0  0  0  0  0  0  0  0  0  0
    0.3207    1.7494   28.2295 C   0  0  0  0  0  0  0  0  0  0  0  0
    1.9749    1.0917   27.8903 S   0  0  0  0  0  0  0  0  0  0  0  0
    4.4697    4.2095   27.7893 C   0  0  0  0  0  0  0  0  0  0  0  0
    4.6925    3.4955   31.5873 S   0  0  0  0  0  0  0  0  0  0  0  0
    3.7770    2.3452   32.1113 C   0  0  0  0  0  0  0  0  0  0  0  0
    3.0897    1.7749   30.9764 C   0  0  0  0  0  0  0  0  0  0  0  0
    2.1387    0.6308   31.2846 C   0  0  0  0  0  0  0  0  0  0  0  0
    2.4535   -0.7076   31.2379 C   0  0  0  0  0  0  0  0  0  0  0  0
    1.4672   -1.6340   31.5258 C   0  0  0  0  0  0  0  0  0  0  0  0
    0.1772   -1.2438   31.8333 C   0  0  0  0  0  0  0  0  0  0  0  0
   -0.8802   -2.2977   32.1473 C   0  0  0  0  0  0  0  0  0  0  0  0
   -0.1412    0.0986   31.8720 C   0  0  0  0  0  0  0  0  0  0  0  0
    0.8404    1.0207   31.5889 C   0  0  0  0  0  0  0  0  0  0  0  0
   -1.0638    2.2916   26.6817 H   0  0  0  0  0  0  0  0  0  0  0  0
    0.6984    2.6233   26.3263 H   0  0  0  0  0  0  0  0  0  0  0  0
    0.3392    2.3268   29.1655 H   0  0  0  0  0  0  0  0  0  0  0  0
   -0.3939    0.9191   28.3287 H   0  0  0  0  0  0  0  0  0  0  0  0
    4.8651    4.8598   26.9951 H   0  0  0  0  0  0  0  0  0  0  0  0
    3.6736    2.0257   33.1588 H   0  0  0  0  0  0  0  0  0  0  0  0
    3.4706   -1.0351   30.9766 H   0  0  0  0  0  0  0  0  0  0  0  0
    1.7152   -2.7056   31.5097 H   0  0  0  0  0  0  0  0  0  0  0  0
   -0.9832   -2.4003   33.2376 H   0  0  0  0  0  0  0  0  0  0  0  0
   -1.8440   -1.9901   31.7153 H   0  0  0  0  0  0  0  0  0  0  0  0
   -0.5760   -3.2625   31.7153 H   0  0  0  0  0  0  0  0  0  0  0  0
   -1.1607    0.4254   32.1245 H   0  0  0  0  0  0  0  0  0  0  0  0
    0.5912    2.0920   31.6039 H   0  0  0  0  0  0  0  0  0  0  0  0
  1  2  1  0
  1  5  2  0
  1 13  1  0
  2  3  2  0
  2 15  1  0
  3  4  1  0
  3 11  1  0
  4 12  2  0
  5 12  1  0
  6  7  2  0
  7  8  1  0
  7  9  1  0
  9 10  1  0
 10 11  1  0
 13 14  1  0
 14 15  2  0
 15 16  1  0
 16 17  2  0
 16 22  1  0
 17 18  1  0
 18 19  2  0
 19 20  1  0
 19 21  1  0
 21 22  2  0
  9 23  1  0
  9 24  1  0
 10 25  1  0
 10 26  1  0
 12 27  1  0
 14 28  1  0
 17 29  1  0
 18 30  1  0
 20 31  1  0
 20 32  1  0
 20 33  1  0
 21 34  1  0
 22 35  1  0
M  CHG  1   8  -1
M  END
>  <filename_input>  (24) 
6Z1C_7EY_docked.sdf

>  <pdb_id>  (24) 
6Z1C_7EY

>  <pose_rank>  (24) 
23

>  <num_atoms_heavy>  (24) 
22

>  <num_torsions>  (24) 
5

>  <pose>  (24) 
[4.420904212648777, 3.6143950227921393, 30.033817968297, 0.0951493556532827, 2.081791786750606, -1.7470243247293893, -0.6208006192663753, -2.0465069814325854, 2.9426940421448835, -0.43857935991970115, 2.751729219476529]

>  <energy>  (24) 
-145.83198223553663

>  <inter_energy>  (24) 
-167.10348808600497

>  <intra_energy>  (24) 
3.470024633375053

>  <rmsd>  (24) 
12.6339

>  <sdf_rank>  (24) 
0

$$$$

     RDKit          3D

 35 37  0  0  0  0  0  0  0  0999 V2000
   -0.2172    4.1600   25.6652 C   0  0  0  0  0  0  0  0  0  0  0  0
    0.3186    3.5317   26.8002 C   0  0  0  0  0  0  0  0  0  0  0  0
    1.4095    3.9954   27.4345 C   0  0  0  0  0  0  0  0  0  0  0  0
    2.0285    5.0798   26.9481 N   0  0  0  0  0  0  0  0  0  0  0  0
    0.3770    5.2454   25.1990 N   0  0  0  0  0  0  0  0  0  0  0  0
    5.0817    4.4365   32.4337 O   0  0  0  0  0  0  0  0  0  0  0  0
    4.4414    3.7609   31.5839 C   0  0  0  0  0  0  0  0  0  0  0  0
    3.9353    2.6518   31.9006 O   0  0  0  0  0  0  0  0  0  0  0  0
    4.3032    4.3375   30.1770 C   0  0  0  0  0  0  0  0  0  0  0  0
    2.8656    4.6884   29.7970 C   0  0  0  0  0  0  0  0  0  0  0  0
    2.1145    3.2789   28.9407 S   0  0  0  0  0  0  0  0  0  0  0  0
    1.5001    5.7144   25.8348 C   0  0  0  0  0  0  0  0  0  0  0  0
   -1.5161    3.3606   25.2470 S   0  0  0  0  0  0  0  0  0  0  0  0
   -1.6333    2.1567   26.2334 C   0  0  0  0  0  0  0  0  0  0  0  0
   -0.5640    2.2688   27.1974 C   0  0  0  0  0  0  0  0  0  0  0  0
   -0.5052    1.1760   28.2514 C   0  0  0  0  0  0  0  0  0  0  0  0
    0.2772    0.0460   28.1912 C   0  0  0  0  0  0  0  0  0  0  0  0
    0.2029   -0.8710   29.2243 C   0  0  0  0  0  0  0  0  0  0  0  0
   -0.6527   -0.6860   30.2943 C   0  0  0  0  0  0  0  0  0  0  0  0
   -0.7021   -1.7204   31.4145 C   0  0  0  0  0  0  0  0  0  0  0  0
   -1.4440    0.4434   30.3509 C   0  0  0  0  0  0  0  0  0  0  0  0
   -1.3680    1.3576   29.3250 C   0  0  0  0  0  0  0  0  0  0  0  0
    4.9121    5.2514   30.1146 H   0  0  0  0  0  0  0  0  0  0  0  0
    4.6411    3.5602   29.4758 H   0  0  0  0  0  0  0  0  0  0  0  0
    2.2898    4.9157   30.7063 H   0  0  0  0  0  0  0  0  0  0  0  0
    2.8622    5.5672   29.1355 H   0  0  0  0  0  0  0  0  0  0  0  0
    1.9941    6.6188   25.4501 H   0  0  0  0  0  0  0  0  0  0  0  0
   -2.3950    1.3637   26.2001 H   0  0  0  0  0  0  0  0  0  0  0  0
    0.9494   -0.1252   27.3375 H   0  0  0  0  0  0  0  0  0  0  0  0
    0.8391   -1.7678   29.1938 H   0  0  0  0  0  0  0  0  0  0  0  0
   -0.6776   -1.2084   32.3878 H   0  0  0  0  0  0  0  0  0  0  0  0
   -1.6292   -2.3066   31.3318 H   0  0  0  0  0  0  0  0  0  0  0  0
    0.1650   -2.3922   31.3318 H   0  0  0  0  0  0  0  0  0  0  0  0
   -2.1227    0.6098   31.2004 H   0  0  0  0  0  0  0  0  0  0  0  0
   -2.0056    2.2534   29.3558 H   0  0  0  0  0  0  0  0  0  0  0  0
  1  2  1  0
  1  5  2  0
  1 13  1  0
  2  3  2  0
  2 15  1  0
  3  4  1  0
  3 11  1  0
  4 12  2  0
  5 12  1  0
  6  7  2  0
  7  8  1  0
  7  9  1  0
  9 10  1  0
 10 11  1  0
 13 14  1  0
 14 15  2  0
 15 16  1  0
 16 17  2  0
 16 22  1  0
 17 18  1  0
 18 19  2  0
 19 20  1  0
 19 21  1  0
 21 22  2  0
  9 23  1  0
  9 24  1  0
 10 25  1  0
 10 26  1  0
 12 27  1  0
 14 28  1  0
 17 29  1  0
 18 30  1  0
 20 31  1  0
 20 32  1  0
 20 33  1  0
 21 34  1  0
 22 35  1  0
M  CHG  1   8  -1
M  END
>  <filename_input>  (25) 
6Z1C_7EY_docked.sdf

>  <pdb_id>  (25) 
6Z1C_7EY

>  <pose_rank>  (25) 
24

>  <num_atoms_heavy>  (25) 
22

>  <num_torsions>  (25) 
5

>  <pose>  (25) 
[-0.2172079290457174, 4.159956548677765, 25.665224144023686, 0.2398111068888625, 3.398360074525322, 4.445110063721356, 2.688205024826204, 0.171086024796258, -0.7578532154152032, -0.054108498658679796, 1.0121721380072706]

>  <energy>  (25) 
-166.5098556564745

>  <inter_energy>  (25) 
-147.54456630448672

>  <intra_energy>  (25) 
1.1952681351101968

>  <rmsd>  (25) 
12.3468

>  <sdf_rank>  (25) 
0

$$$$

     RDKit          3D

 35 37  0  0  0  0  0  0  0  0999 V2000
    5.4150   -4.1320   20.7270 C   0  0  0  0  0  0  0  0  0  0  0  0
    6.5850   -4.3080   21.4820 C   0  0  0  0  0  0  0  0  0  0  0  0
    7.4500   -3.3060   21.7170 C   0  0  0  0  0  0  0  0  0  0  0  0
    7.2040   -2.1010   21.1850 N   0  0  0  0  0  0  0  0  0  0  0  0
    5.1570   -2.9370   20.2230 N   0  0  0  0  0  0  0  0  0  0  0  0
   12.4570   -0.6720   21.5070 O   0  0  0  0  0  0  0  0  0  0  0  0
   11.6810   -1.2830   22.2900 C   0  0  0  0  0  0  0  0  0  0  0  0
   12.1440   -2.0120   23.2070 O   0  0  0  0  0  0  0  0  0  0  0  0
   10.1790   -1.1010   22.0860 C   0  0  0  0  0  0  0  0  0  0  0  0
    9.3300   -1.7310   23.1890 C   0  0  0  0  0  0  0  0  0  0  0  0
    8.9400   -3.4420   22.7370 S   0  0  0  0  0  0  0  0  0  0  0  0
    6.0450   -1.9140   20.4480 C   0  0  0  0  0  0  0  0  0  0  0  0
    4.6390   -5.5100   20.7230 S   0  0  0  0  0  0  0  0  0  0  0  0
    5.5290   -6.5230   21.5090 C   0  0  0  0  0  0  0  0  0  0  0  0
    6.6800   -5.8070   22.0070 C   0  0  0  0  0  0  0  0  0  0  0  0
    7.6780   -6.6300   22.8040 C   0  0  0  0  0  0  0  0  0  0  0  0
    7.3980   -7.3410   23.9480 C   0  0  0  0  0  0  0  0  0  0  0  0
    8.4240   -8.0260   24.5740 C   0  0  0  0  0  0  0  0  0  0  0  0
    9.7180   -7.9900   24.0890 C   0  0  0  0  0  0  0  0  0  0  0  0
   10.8200   -8.7620   24.8080 C   0  0  0  0  0  0  0  0  0  0  0  0
   10.0010   -7.2700   22.9460 C   0  0  0  0  0  0  0  0  0  0  0  0
    8.9800   -6.5910   22.3210 C   0  0  0  0  0  0  0  0  0  0  0  0
    9.9609   -0.0234   22.0522 H   0  0  0  0  0  0  0  0  0  0  0  0
    9.9173   -1.6110   21.1472 H   0  0  0  0  0  0  0  0  0  0  0  0
    9.8894   -1.7190   24.1360 H   0  0  0  0  0  0  0  0  0  0  0  0
    8.3981   -1.1592   23.3102 H   0  0  0  0  0  0  0  0  0  0  0  0
    5.8306   -0.9186   20.0319 H   0  0  0  0  0  0  0  0  0  0  0  0
    5.3172   -7.5922   21.6572 H   0  0  0  0  0  0  0  0  0  0  0  0
    6.3773   -7.3644   24.3573 H   0  0  0  0  0  0  0  0  0  0  0  0
    8.2052   -8.6127   25.4783 H   0  0  0  0  0  0  0  0  0  0  0  0
   10.6845   -8.6671   25.8955 H   0  0  0  0  0  0  0  0  0  0  0  0
   10.7697   -9.8234   24.5235 H   0  0  0  0  0  0  0  0  0  0  0  0
   11.8004   -8.3522   24.5235 H   0  0  0  0  0  0  0  0  0  0  0  0
   11.0237   -7.2394   22.5420 H   0  0  0  0  0  0  0  0  0  0  0  0
    9.2001   -6.0034   21.4175 H   0  0  0  0  0  0  0  0  0  0  0  0
  1  2  1  0
  1  5  2  0
  1 13  1  0
  2  3  2  0
  2 15  1  0
  3  4  1  0
  3 11  1  0
  4 12  2  0
  5 12  1  0
  6  7  2  0
  7  8  1  0
  7  9  1  0
  9 10  1  0
 10 11  1  0
 13 14  1  0
 14 15  2  0
 15 16  1  0
 16 17  2  0
 16 22  1  0
 17 18  1  0
 18 19  2  0
 19 20  1  0
 19 21  1  0
 21 22  2  0
  9 23  1  0
  9 24  1  0
 10 25  1  0
 10 26  1  0
 12 27  1  0
 14 28  1  0
 17 29  1  0
 18 30  1  0
 20 31  1  0
 20 32  1  0
 20 33  1  0
 21 34  1  0
 22 35  1  0
M  CHG  1   8  -1
M  END
>  <filename_input>  (26) 
6Z1C_7EY_docked.sdf

>  <pdb_id>  (26) 
6Z1C_7EY

>  <pose_rank>  (26) 
25

>  <num_atoms_heavy>  (26) 
22

>  <num_torsions>  (26) 
5

>  <pose>  (26) 
[5.415, -4.132, 20.727, 1e-06, 1e-06, 1e-06, 0.0, 0.0, 0.0, 0.0, 0.0]

>  <energy>  (26) 
-819.0824752313758

>  <inter_energy>  (26) 
-830.9758267382273

>  <intra_energy>  (26) 
22.612613403808993

>  <rmsd>  (26) 
0.0

>  <sdf_rank>  (26) 
0

$$$$
