
     RDKit          3D

 38 40  0  0  0  0  0  0  0  0999 V2000
  -17.8097    4.4748  -10.0230 O   0  0  0  0  0  0  0  0  0  0  0  0
  -18.7416    4.2324  -10.8051 C   0  0  0  0  0  0  0  0  0  0  0  0
  -20.0618    4.1106  -10.3398 C   0  0  1  0  0  0  0  0  0  0  0  0
  -20.7514    5.4452   -9.8904 C   0  0  1  0  0  0  0  0  0  0  0  0
  -22.2236    5.1345  -10.1678 C   0  0  1  0  0  0  0  0  0  0  0  0
  -22.9854    3.7037   -9.1724 Cl  0  0  0  0  0  0  0  0  0  0  0  0
  -23.3545    6.5508   -9.7829 Cl  0  0  0  0  0  0  0  0  0  0  0  0
  -20.3939    5.9228   -8.1790 Cl  0  0  0  0  0  0  0  0  0  0  0  0
  -20.5327    6.4455  -10.8513 C   0  0  0  0  0  0  0  0  0  0  0  0
  -19.4335    7.7867  -10.5744 Cl  0  0  0  0  0  0  0  0  0  0  0  0
  -21.2637    6.1628  -11.9279 C   0  0  0  0  0  0  0  0  0  0  0  0
  -21.3238    7.0760  -13.3858 Cl  0  0  0  0  0  0  0  0  0  0  0  0
  -21.9348    4.9311  -11.6408 C   0  0  2  0  0  0  0  0  0  0  0  0
  -23.4180    4.5656  -12.5626 Cl  0  0  0  0  0  0  0  0  0  0  0  0
  -20.8666    3.7730  -11.5536 C   0  0  1  0  0  0  0  0  0  0  0  0
  -19.9315    3.7611  -12.5744 C   0  0  0  0  0  0  0  0  0  0  0  0
  -20.2279    3.4999  -13.7363 O   0  0  0  0  0  0  0  0  0  0  0  0
  -18.6695    3.9970  -12.1300 N   0  0  0  0  0  0  0  0  0  0  0  0
  -17.5479    4.0032  -13.0894 C   0  0  0  0  0  0  0  0  0  0  0  0
  -17.4338    5.3255  -13.8515 C   0  0  0  0  0  0  0  0  0  0  0  0
  -16.7515    6.3676  -12.9987 C   0  0  0  0  0  0  0  0  0  0  0  0
  -16.3553    7.5533  -13.8598 C   0  0  0  0  0  0  0  0  0  0  0  0
  -17.5187    8.5409  -13.9288 C   0  0  0  0  0  0  0  0  0  0  0  0
  -17.5117    9.2156  -15.2893 C   0  0  0  0  0  0  0  0  0  0  0  0
  -18.2113   10.2341  -15.3987 O   0  0  0  0  0  0  0  0  0  0  0  0
  -16.8014    8.7032  -16.1855 O   0  0  0  0  0  0  0  0  0  0  0  0
  -20.0236    3.4079   -9.4944 H   0  0  0  0  0  0  0  0  0  0  0  0
  -21.4071    2.8151  -11.5729 H   0  0  0  0  0  0  0  0  0  0  0  0
  -16.6115    3.8323  -12.5380 H   0  0  0  0  0  0  0  0  0  0  0  0
  -17.7349    3.2084  -13.8265 H   0  0  0  0  0  0  0  0  0  0  0  0
  -16.8467    5.1661  -14.7679 H   0  0  0  0  0  0  0  0  0  0  0  0
  -18.4439    5.6787  -14.1062 H   0  0  0  0  0  0  0  0  0  0  0  0
  -17.4406    6.7027  -12.2095 H   0  0  0  0  0  0  0  0  0  0  0  0
  -15.8508    5.9318  -12.5418 H   0  0  0  0  0  0  0  0  0  0  0  0
  -15.4780    8.0498  -13.4195 H   0  0  0  0  0  0  0  0  0  0  0  0
  -16.1080    7.2052  -14.8735 H   0  0  0  0  0  0  0  0  0  0  0  0
  -18.4680    8.0034  -13.7882 H   0  0  0  0  0  0  0  0  0  0  0  0
  -17.4125    9.2974  -13.1373 H   0  0  0  0  0  0  0  0  0  0  0  0
  1  2  2  0
  3  2  1  0
  2 18  1  0
  3  4  1  0
  3 15  1  0
  4  5  1  0
  4  8  1  1
  4  9  1  0
  5  6  1  1
  5  7  1  0
  5 13  1  0
  9 10  1  0
  9 11  2  0
 11 12  1  0
 11 13  1  0
 13 14  1  6
 13 15  1  0
 15 16  1  0
 16 17  2  0
 16 18  1  0
 18 19  1  0
 19 20  1  0
 20 21  1  0
 21 22  1  0
 22 23  1  0
 23 24  1  0
 24 25  1  0
 24 26  2  0
  3 27  1  1
 15 28  1  1
 19 29  1  0
 19 30  1  0
 20 31  1  0
 20 32  1  0
 21 33  1  0
 21 34  1  0
 22 35  1  0
 22 36  1  0
 23 37  1  0
 23 38  1  0
M  CHG  1  25  -1
M  END
>  <filename_input>  (1) 
6Z2C_Q5E_docked.sdf

>  <pdb_id>  (1) 
6Z2C_Q5E

>  <pose_rank>  (1) 
0

>  <num_atoms_heavy>  (1) 
26

>  <num_torsions>  (1) 
6

>  <pose>  (1) 
[-17.80965086238372, 4.474755425550365, -10.022968269558602, -0.4054368659692731, 1.7799545338584113, -5.96377064126834, -0.7400063063738377, -2.9464441570214785, 0.39190400066986125, -1.829093538010257, -4.839348204409085, 2.7859601053675416]

>  <energy>  (1) 
-712.7810651953004

>  <inter_energy>  (1) 
-704.430349950116

>  <intra_energy>  (1) 
2.698160611940175

>  <rmsd>  (1) 
0.823426

>  <sdf_rank>  (1) 
0

$$$$

     RDKit          3D

 38 40  0  0  0  0  0  0  0  0999 V2000
  -17.8139    4.1174  -10.3552 O   0  0  0  0  0  0  0  0  0  0  0  0
  -18.8266    4.0211  -11.0652 C   0  0  0  0  0  0  0  0  0  0  0  0
  -20.1030    3.9007  -10.4902 C   0  0  1  0  0  0  0  0  0  0  0  0
  -20.6696    5.1961   -9.8122 C   0  0  1  0  0  0  0  0  0  0  0  0
  -22.1766    4.9917   -9.9789 C   0  0  1  0  0  0  0  0  0  0  0  0
  -22.9249    3.4805   -9.0987 Cl  0  0  0  0  0  0  0  0  0  0  0  0
  -23.1831    6.3965   -9.3108 Cl  0  0  0  0  0  0  0  0  0  0  0  0
  -20.1283    5.4315   -8.0986 Cl  0  0  0  0  0  0  0  0  0  0  0  0
  -20.4829    6.3012  -10.6582 C   0  0  0  0  0  0  0  0  0  0  0  0
  -19.2869    7.5436  -10.3269 Cl  0  0  0  0  0  0  0  0  0  0  0  0
  -21.3255    6.1940  -11.6839 C   0  0  0  0  0  0  0  0  0  0  0  0
  -21.4670    7.2899  -13.0037 Cl  0  0  0  0  0  0  0  0  0  0  0  0
  -22.0375    4.9675  -11.4871 C   0  0  2  0  0  0  0  0  0  0  0  0
  -23.6182    4.7926  -12.2957 Cl  0  0  0  0  0  0  0  0  0  0  0  0
  -21.0348    3.7602  -11.6508 C   0  0  1  0  0  0  0  0  0  0  0  0
  -20.2003    3.8377  -12.7528 C   0  0  0  0  0  0  0  0  0  0  0  0
  -20.6175    3.7428  -13.9030 O   0  0  0  0  0  0  0  0  0  0  0  0
  -18.8911    3.9560  -12.4097 N   0  0  0  0  0  0  0  0  0  0  0  0
  -17.8645    4.0350  -13.4672 C   0  0  0  0  0  0  0  0  0  0  0  0
  -17.5615    5.4756  -13.8857 C   0  0  0  0  0  0  0  0  0  0  0  0
  -16.3588    5.9991  -13.1385 C   0  0  0  0  0  0  0  0  0  0  0  0
  -15.2121    6.2221  -14.1079 C   0  0  0  0  0  0  0  0  0  0  0  0
  -14.6512    4.8714  -14.5490 C   0  0  0  0  0  0  0  0  0  0  0  0
  -13.8829    4.2559  -13.3928 C   0  0  0  0  0  0  0  0  0  0  0  0
  -12.8874    4.8840  -13.0011 O   0  0  0  0  0  0  0  0  0  0  0  0
  -14.3124    3.1770  -12.9219 O   0  0  0  0  0  0  0  0  0  0  0  0
  -20.0277    3.0935   -9.7467 H   0  0  0  0  0  0  0  0  0  0  0  0
  -21.6294    2.8386  -11.7355 H   0  0  0  0  0  0  0  0  0  0  0  0
  -16.9380    3.5741  -13.0941 H   0  0  0  0  0  0  0  0  0  0  0  0
  -18.2533    3.5060  -14.3498 H   0  0  0  0  0  0  0  0  0  0  0  0
  -17.3573    5.5038  -14.9662 H   0  0  0  0  0  0  0  0  0  0  0  0
  -18.4310    6.1063  -13.6485 H   0  0  0  0  0  0  0  0  0  0  0  0
  -16.6166    6.9512  -12.6517 H   0  0  0  0  0  0  0  0  0  0  0  0
  -16.0551    5.2655  -12.3772 H   0  0  0  0  0  0  0  0  0  0  0  0
  -15.5767    6.7731  -14.9873 H   0  0  0  0  0  0  0  0  0  0  0  0
  -14.4209    6.8049  -13.6135 H   0  0  0  0  0  0  0  0  0  0  0  0
  -15.4774    4.2057  -14.8392 H   0  0  0  0  0  0  0  0  0  0  0  0
  -13.9808    5.0098  -15.4101 H   0  0  0  0  0  0  0  0  0  0  0  0
  1  2  2  0
  3  2  1  0
  2 18  1  0
  3  4  1  0
  3 15  1  0
  4  5  1  0
  4  8  1  1
  4  9  1  0
  5  6  1  1
  5  7  1  0
  5 13  1  0
  9 10  1  0
  9 11  2  0
 11 12  1  0
 11 13  1  0
 13 14  1  6
 13 15  1  0
 15 16  1  0
 16 17  2  0
 16 18  1  0
 18 19  1  0
 19 20  1  0
 20 21  1  0
 21 22  1  0
 22 23  1  0
 23 24  1  0
 24 25  1  0
 24 26  2  0
  3 27  1  1
 15 28  1  1
 19 29  1  0
 19 30  1  0
 20 31  1  0
 20 32  1  0
 21 33  1  0
 21 34  1  0
 22 35  1  0
 22 36  1  0
 23 37  1  0
 23 38  1  0
M  CHG  1  25  -1
M  END
>  <filename_input>  (2) 
6Z2C_Q5E_docked.sdf

>  <pdb_id>  (2) 
6Z2C_Q5E

>  <pose_rank>  (2) 
1

>  <num_atoms_heavy>  (2) 
26

>  <num_torsions>  (2) 
6

>  <pose>  (2) 
[-17.813935035342197, 4.117358683252853, -10.355184259607995, -5.23280932680349, -3.1699211213883927, 0.3552667664432229, 12.010740294327801, -21.518803935991762, 56.00089869572517, 14.225977026504777, -22.3845354882239, 4.5745846162927]

>  <energy>  (2) 
-706.2346555949762

>  <inter_energy>  (2) 
-690.0123438781857

>  <intra_energy>  (2) 
3.42572697907793

>  <rmsd>  (2) 
2.76885

>  <sdf_rank>  (2) 
0

$$$$

     RDKit          3D

 38 40  0  0  0  0  0  0  0  0999 V2000
  -21.7219    7.1438  -13.9512 O   0  0  0  0  0  0  0  0  0  0  0  0
  -21.3922    7.3739  -12.7777 C   0  0  0  0  0  0  0  0  0  0  0  0
  -22.1657    6.9011  -11.7042 C   0  0  1  0  0  0  0  0  0  0  0  0
  -22.1012    5.3557  -11.4467 C   0  0  1  0  0  0  0  0  0  0  0  0
  -22.3649    5.2875   -9.9412 C   0  0  1  0  0  0  0  0  0  0  0  0
  -24.0590    5.9211   -9.3524 Cl  0  0  0  0  0  0  0  0  0  0  0  0
  -22.3146    3.5620   -9.2679 Cl  0  0  0  0  0  0  0  0  0  0  0  0
  -23.2550    4.3888  -12.4561 Cl  0  0  0  0  0  0  0  0  0  0  0  0
  -20.7667    4.9198  -11.4761 C   0  0  0  0  0  0  0  0  0  0  0  0
  -20.1180    3.9768  -12.8079 Cl  0  0  0  0  0  0  0  0  0  0  0  0
  -20.1555    5.3592  -10.3776 C   0  0  0  0  0  0  0  0  0  0  0  0
  -18.5046    5.1061   -9.9611 Cl  0  0  0  0  0  0  0  0  0  0  0  0
  -21.1313    6.1193   -9.6566 C   0  0  2  0  0  0  0  0  0  0  0  0
  -20.8729    6.3435   -7.9056 Cl  0  0  0  0  0  0  0  0  0  0  0  0
  -21.4806    7.4189  -10.4805 C   0  0  1  0  0  0  0  0  0  0  0  0
  -20.3879    8.1054  -10.9818 C   0  0  0  0  0  0  0  0  0  0  0  0
  -19.5886    8.6906  -10.2576 O   0  0  0  0  0  0  0  0  0  0  0  0
  -20.3523    8.1110  -12.3399 N   0  0  0  0  0  0  0  0  0  0  0  0
  -19.2585    8.8145  -13.0379 C   0  0  0  0  0  0  0  0  0  0  0  0
  -17.9970    7.9576  -13.1673 C   0  0  0  0  0  0  0  0  0  0  0  0
  -18.2863    6.7128  -13.9707 C   0  0  0  0  0  0  0  0  0  0  0  0
  -17.0400    6.2925  -14.7287 C   0  0  0  0  0  0  0  0  0  0  0  0
  -16.0227    5.7109  -13.7487 C   0  0  0  0  0  0  0  0  0  0  0  0
  -16.6236    4.4841  -13.0854 C   0  0  0  0  0  0  0  0  0  0  0  0
  -16.6987    3.4640  -13.7870 O   0  0  0  0  0  0  0  0  0  0  0  0
  -16.9863    4.5917  -11.8907 O   0  0  0  0  0  0  0  0  0  0  0  0
  -23.2021    7.1999  -11.9201 H   0  0  0  0  0  0  0  0  0  0  0  0
  -22.0369    8.0978   -9.8173 H   0  0  0  0  0  0  0  0  0  0  0  0
  -19.6029    9.0894  -14.0457 H   0  0  0  0  0  0  0  0  0  0  0  0
  -18.9992    9.7021  -12.4421 H   0  0  0  0  0  0  0  0  0  0  0  0
  -17.2130    8.5408  -13.6724 H   0  0  0  0  0  0  0  0  0  0  0  0
  -17.6610    7.6633  -12.1621 H   0  0  0  0  0  0  0  0  0  0  0  0
  -18.5925    5.9027  -13.2925 H   0  0  0  0  0  0  0  0  0  0  0  0
  -19.0954    6.9207  -14.6864 H   0  0  0  0  0  0  0  0  0  0  0  0
  -17.3049    5.5315  -15.4775 H   0  0  0  0  0  0  0  0  0  0  0  0
  -16.6048    7.1670  -15.2344 H   0  0  0  0  0  0  0  0  0  0  0  0
  -15.1086    5.4270  -14.2907 H   0  0  0  0  0  0  0  0  0  0  0  0
  -15.7701    6.4612  -12.9851 H   0  0  0  0  0  0  0  0  0  0  0  0
  1  2  2  0
  3  2  1  0
  2 18  1  0
  3  4  1  0
  3 15  1  0
  4  5  1  0
  4  8  1  6
  4  9  1  0
  5  6  1  6
  5  7  1  0
  5 13  1  0
  9 10  1  0
  9 11  2  0
 11 12  1  0
 11 13  1  0
 13 14  1  1
 13 15  1  0
 15 16  1  0
 16 17  2  0
 16 18  1  0
 18 19  1  0
 19 20  1  0
 20 21  1  0
 21 22  1  0
 22 23  1  0
 23 24  1  0
 24 25  1  0
 24 26  2  0
  3 27  1  6
 15 28  1  1
 19 29  1  0
 19 30  1  0
 20 31  1  0
 20 32  1  0
 21 33  1  0
 21 34  1  0
 22 35  1  0
 22 36  1  0
 23 37  1  0
 23 38  1  0
M  CHG  1  25  -1
M  END
>  <filename_input>  (3) 
6Z2C_Q5E_docked.sdf

>  <pdb_id>  (3) 
6Z2C_Q5E

>  <pose_rank>  (3) 
2

>  <num_atoms_heavy>  (3) 
26

>  <num_torsions>  (3) 
6

>  <pose>  (3) 
[-21.721895653988387, 7.143764103684745, -13.951208708139559, -2.61090380658642, -0.745203150275368, 1.8888926749626724, -0.6801971634864503, -3.2699299151629124, 0.08053665747156102, -2.094551711226812, -1.200947152233851, 0.68105837674975]

>  <energy>  (3) 
-632.1373306542799

>  <inter_energy>  (3) 
-674.3996282217388

>  <intra_energy>  (3) 
43.2502795280894

>  <rmsd>  (3) 
3.39361

>  <sdf_rank>  (3) 
0

$$$$

     RDKit          3D

 38 40  0  0  0  0  0  0  0  0999 V2000
  -21.8001    4.7485  -12.4515 O   0  0  0  0  0  0  0  0  0  0  0  0
  -20.8785    5.4904  -12.0785 C   0  0  0  0  0  0  0  0  0  0  0  0
  -21.1464    6.7613  -11.5426 C   0  0  1  0  0  0  0  0  0  0  0  0
  -21.7746    6.7762  -10.1060 C   0  0  1  0  0  0  0  0  0  0  0  0
  -21.2641    8.1132   -9.5651 C   0  0  1  0  0  0  0  0  0  0  0  0
  -21.8445    9.6725  -10.4871 Cl  0  0  0  0  0  0  0  0  0  0  0  0
  -21.7934    8.4460   -7.8210 Cl  0  0  0  0  0  0  0  0  0  0  0  0
  -23.5780    6.5966  -10.0853 Cl  0  0  0  0  0  0  0  0  0  0  0  0
  -21.0737    5.8951   -9.2668 C   0  0  0  0  0  0  0  0  0  0  0  0
  -21.7510    4.3622   -8.7423 Cl  0  0  0  0  0  0  0  0  0  0  0  0
  -19.8819    6.4260   -8.9996 C   0  0  0  0  0  0  0  0  0  0  0  0
  -18.6469    5.7191   -8.0311 Cl  0  0  0  0  0  0  0  0  0  0  0  0
  -19.8265    7.6618   -9.7203 C   0  0  2  0  0  0  0  0  0  0  0  0
  -18.6775    8.9003   -9.1464 Cl  0  0  0  0  0  0  0  0  0  0  0  0
  -19.8012    7.3529  -11.2674 C   0  0  1  0  0  0  0  0  0  0  0  0
  -18.9199    6.3565  -11.6510 C   0  0  0  0  0  0  0  0  0  0  0  0
  -17.7021    6.4924  -11.5838 O   0  0  0  0  0  0  0  0  0  0  0  0
  -19.5519    5.2687  -12.1639 N   0  0  0  0  0  0  0  0  0  0  0  0
  -18.7565    4.1189  -12.6370 C   0  0  0  0  0  0  0  0  0  0  0  0
  -18.7507    3.9964  -14.1626 C   0  0  0  0  0  0  0  0  0  0  0  0
  -18.4222    5.3264  -14.7964 C   0  0  0  0  0  0  0  0  0  0  0  0
  -17.0430    5.7780  -14.3513 C   0  0  0  0  0  0  0  0  0  0  0  0
  -16.5562    6.8988  -15.2679 C   0  0  0  0  0  0  0  0  0  0  0  0
  -17.3396    8.1626  -14.9593 C   0  0  0  0  0  0  0  0  0  0  0  0
  -17.1346    8.6763  -13.8490 O   0  0  0  0  0  0  0  0  0  0  0  0
  -18.1187    8.5905  -15.8427 O   0  0  0  0  0  0  0  0  0  0  0  0
  -21.8273    7.2543  -12.2521 H   0  0  0  0  0  0  0  0  0  0  0  0
  -19.5202    8.2789  -11.7904 H   0  0  0  0  0  0  0  0  0  0  0  0
  -17.7201    4.2404  -12.2892 H   0  0  0  0  0  0  0  0  0  0  0  0
  -19.2160    3.2058  -12.2308 H   0  0  0  0  0  0  0  0  0  0  0  0
  -17.9958    3.2551  -14.4637 H   0  0  0  0  0  0  0  0  0  0  0  0
  -19.7485    3.6778  -14.4987 H   0  0  0  0  0  0  0  0  0  0  0  0
  -18.4376    5.2234  -15.8915 H   0  0  0  0  0  0  0  0  0  0  0  0
  -19.1681    6.0726  -14.4852 H   0  0  0  0  0  0  0  0  0  0  0  0
  -17.0937    6.1464  -13.3160 H   0  0  0  0  0  0  0  0  0  0  0  0
  -16.3438    4.9304  -14.4038 H   0  0  0  0  0  0  0  0  0  0  0  0
  -15.4846    7.0775  -15.0956 H   0  0  0  0  0  0  0  0  0  0  0  0
  -16.7091    6.6131  -16.3191 H   0  0  0  0  0  0  0  0  0  0  0  0
  1  2  2  0
  3  2  1  0
  2 18  1  0
  3  4  1  0
  3 15  1  0
  4  5  1  0
  4  8  1  6
  4  9  1  0
  5  6  1  6
  5  7  1  0
  5 13  1  0
  9 10  1  0
  9 11  2  0
 11 12  1  0
 11 13  1  0
 13 14  1  1
 13 15  1  0
 15 16  1  0
 16 17  2  0
 16 18  1  0
 18 19  1  0
 19 20  1  0
 20 21  1  0
 21 22  1  0
 22 23  1  0
 23 24  1  0
 24 25  1  0
 24 26  2  0
  3 27  1  6
 15 28  1  6
 19 29  1  0
 19 30  1  0
 20 31  1  0
 20 32  1  0
 21 33  1  0
 21 34  1  0
 22 35  1  0
 22 36  1  0
 23 37  1  0
 23 38  1  0
M  CHG  1  25  -1
M  END
>  <filename_input>  (4) 
6Z2C_Q5E_docked.sdf

>  <pdb_id>  (4) 
6Z2C_Q5E

>  <pose_rank>  (4) 
3

>  <num_atoms_heavy>  (4) 
26

>  <num_torsions>  (4) 
6

>  <pose>  (4) 
[-21.80005223164482, 4.748492282959858, -12.451456972256384, -2.2855366044651677, 1.7077322839476954, 2.336767278478093, -35.445975236671266, 2.7998457739420703, -14.02489639623874, -19.338204814112597, -19.8580424871683, -5.715108585590639]

>  <energy>  (4) 
-561.2758616688961

>  <inter_energy>  (4) 
-588.2872117340958

>  <intra_energy>  (4) 
32.07182429708393

>  <rmsd>  (4) 
2.71358

>  <sdf_rank>  (4) 
0

$$$$

     RDKit          3D

 38 40  0  0  0  0  0  0  0  0999 V2000
  -17.9359    4.2103  -10.9996 O   0  0  0  0  0  0  0  0  0  0  0  0
  -19.1014    4.2542  -11.4220 C   0  0  0  0  0  0  0  0  0  0  0  0
  -20.1716    3.7911  -10.6381 C   0  0  1  0  0  0  0  0  0  0  0  0
  -20.5551    4.6883   -9.4106 C   0  0  1  0  0  0  0  0  0  0  0  0
  -22.0471    4.3824   -9.2653 C   0  0  1  0  0  0  0  0  0  0  0  0
  -22.5024    2.5818   -8.8545 Cl  0  0  0  0  0  0  0  0  0  0  0  0
  -22.8583    5.3337   -7.8978 Cl  0  0  0  0  0  0  0  0  0  0  0  0
  -19.5732    4.3644   -7.9221 Cl  0  0  0  0  0  0  0  0  0  0  0  0
  -20.6239    6.0347   -9.8035 C   0  0  0  0  0  0  0  0  0  0  0  0
  -19.4043    7.2099   -9.3395 Cl  0  0  0  0  0  0  0  0  0  0  0  0
  -21.7112    6.1996  -10.5545 C   0  0  0  0  0  0  0  0  0  0  0  0
  -22.2243    7.6667  -11.2943 Cl  0  0  0  0  0  0  0  0  0  0  0  0
  -22.3220    4.9089  -10.6588 C   0  0  2  0  0  0  0  0  0  0  0  0
  -24.0596    4.8486  -11.0590 Cl  0  0  0  0  0  0  0  0  0  0  0  0
  -21.3808    3.9624  -11.5003 C   0  0  1  0  0  0  0  0  0  0  0  0
  -20.8782    4.5204  -12.6633 C   0  0  0  0  0  0  0  0  0  0  0  0
  -21.5901    4.7902  -13.6258 O   0  0  0  0  0  0  0  0  0  0  0  0
  -19.5272    4.6612  -12.6341 N   0  0  0  0  0  0  0  0  0  0  0  0
  -18.8276    5.2272  -13.8039 C   0  0  0  0  0  0  0  0  0  0  0  0
  -17.3235    5.3856  -13.5692 C   0  0  0  0  0  0  0  0  0  0  0  0
  -16.9020    6.8161  -13.8024 C   0  0  0  0  0  0  0  0  0  0  0  0
  -17.7208    7.4124  -14.9332 C   0  0  0  0  0  0  0  0  0  0  0  0
  -17.9327    8.9028  -14.6743 C   0  0  0  0  0  0  0  0  0  0  0  0
  -18.9614    9.0694  -13.5697 C   0  0  0  0  0  0  0  0  0  0  0  0
  -18.5290    9.4547  -12.4728 O   0  0  0  0  0  0  0  0  0  0  0  0
  -20.1564    8.8160  -13.8490 O   0  0  0  0  0  0  0  0  0  0  0  0
  -19.8836    2.7879  -10.2908 H   0  0  0  0  0  0  0  0  0  0  0  0
  -21.9603    3.0678  -11.7722 H   0  0  0  0  0  0  0  0  0  0  0  0
  -18.9816    4.5590  -14.6641 H   0  0  0  0  0  0  0  0  0  0  0  0
  -19.2435    6.2285  -13.9891 H   0  0  0  0  0  0  0  0  0  0  0  0
  -17.0867    5.1024  -12.5330 H   0  0  0  0  0  0  0  0  0  0  0  0
  -16.7823    4.7351  -14.2720 H   0  0  0  0  0  0  0  0  0  0  0  0
  -17.0660    7.4000  -12.8848 H   0  0  0  0  0  0  0  0  0  0  0  0
  -15.8357    6.8427  -14.0713 H   0  0  0  0  0  0  0  0  0  0  0  0
  -17.1856    7.2775  -15.8847 H   0  0  0  0  0  0  0  0  0  0  0  0
  -18.6960    6.9064  -14.9874 H   0  0  0  0  0  0  0  0  0  0  0  0
  -16.9822    9.3628  -14.3661 H   0  0  0  0  0  0  0  0  0  0  0  0
  -18.2891    9.3933  -15.5922 H   0  0  0  0  0  0  0  0  0  0  0  0
  1  2  2  0
  3  2  1  0
  2 18  1  0
  3  4  1  0
  3 15  1  0
  4  5  1  0
  4  8  1  1
  4  9  1  0
  5  6  1  6
  5  7  1  0
  5 13  1  0
  9 10  1  0
  9 11  2  0
 11 12  1  0
 11 13  1  0
 13 14  1  6
 13 15  1  0
 15 16  1  0
 16 17  2  0
 16 18  1  0
 18 19  1  0
 19 20  1  0
 20 21  1  0
 21 22  1  0
 22 23  1  0
 23 24  1  0
 24 25  1  0
 24 26  2  0
  3 27  1  1
 15 28  1  6
 19 29  1  0
 19 30  1  0
 20 31  1  0
 20 32  1  0
 21 33  1  0
 21 34  1  0
 22 35  1  0
 22 36  1  0
 23 37  1  0
 23 38  1  0
M  CHG  1  25  -1
M  END
>  <filename_input>  (5) 
6Z2C_Q5E_docked.sdf

>  <pdb_id>  (5) 
6Z2C_Q5E

>  <pose_rank>  (5) 
4

>  <num_atoms_heavy>  (5) 
26

>  <num_torsions>  (5) 
6

>  <pose>  (5) 
[-17.935873447667642, 4.210293275039091, -10.999557057455974, 0.5038592505591444, 0.3546825369450074, 0.057805049079822694, 7.225023405167897, -0.219176165911837, -3.134519019294478, -7.07135899073515, 2.7129571049180505, 1.2723615801280654]

>  <energy>  (5) 
-661.9651738442677

>  <inter_energy>  (5) 
-676.7235793802278

>  <intra_energy>  (5) 
16.62646946999984

>  <rmsd>  (5) 
1.41927

>  <sdf_rank>  (5) 
0

$$$$

     RDKit          3D

 38 40  0  0  0  0  0  0  0  0999 V2000
  -22.4758    6.2264  -13.4602 O   0  0  0  0  0  0  0  0  0  0  0  0
  -21.4158    5.5822  -13.4820 C   0  0  0  0  0  0  0  0  0  0  0  0
  -20.2532    6.1238  -14.0560 C   0  0  1  0  0  0  0  0  0  0  0  0
  -19.5665    7.2766  -13.2447 C   0  0  1  0  0  0  0  0  0  0  0  0
  -18.1042    7.1135  -13.6641 C   0  0  1  0  0  0  0  0  0  0  0  0
  -17.7224    7.3721  -15.5095 Cl  0  0  0  0  0  0  0  0  0  0  0  0
  -16.9675    8.3200  -12.8362 Cl  0  0  0  0  0  0  0  0  0  0  0  0
  -20.2605    8.9203  -13.5631 Cl  0  0  0  0  0  0  0  0  0  0  0  0
  -19.4686    6.9180  -11.8906 C   0  0  0  0  0  0  0  0  0  0  0  0
  -20.4760    7.6496  -10.6522 Cl  0  0  0  0  0  0  0  0  0  0  0  0
  -18.5399    5.9711  -11.7714 C   0  0  0  0  0  0  0  0  0  0  0  0
  -18.0662    5.1878  -10.3136 Cl  0  0  0  0  0  0  0  0  0  0  0  0
  -18.0664    5.7093  -13.0970 C   0  0  2  0  0  0  0  0  0  0  0  0
  -16.4512    4.9702  -13.2649 Cl  0  0  0  0  0  0  0  0  0  0  0  0
  -19.2266    5.0439  -13.9342 C   0  0  1  0  0  0  0  0  0  0  0  0
  -19.9010    4.0211  -13.2897 C   0  0  0  0  0  0  0  0  0  0  0  0
  -19.3722    2.9447  -13.0293 O   0  0  0  0  0  0  0  0  0  0  0  0
  -21.2045    4.3223  -13.0530 N   0  0  0  0  0  0  0  0  0  0  0  0
  -22.0723    3.3321  -12.3860 C   0  0  0  0  0  0  0  0  0  0  0  0
  -23.0082    3.9698  -11.3566 C   0  0  0  0  0  0  0  0  0  0  0  0
  -22.2380    4.8968  -10.4478 C   0  0  0  0  0  0  0  0  0  0  0  0
  -22.7064    4.7142   -9.0154 C   0  0  0  0  0  0  0  0  0  0  0  0
  -21.6236    3.9915   -8.2162 C   0  0  0  0  0  0  0  0  0  0  0  0
  -20.5548    4.9936   -7.8168 C   0  0  0  0  0  0  0  0  0  0  0  0
  -20.9146    6.1787   -7.7462 O   0  0  0  0  0  0  0  0  0  0  0  0
  -19.4057    4.5517   -7.5835 O   0  0  0  0  0  0  0  0  0  0  0  0
  -20.5468    6.4916  -15.0503 H   0  0  0  0  0  0  0  0  0  0  0  0
  -18.7848    4.6359  -14.8553 H   0  0  0  0  0  0  0  0  0  0  0  0
  -22.6809    2.8256  -13.1496 H   0  0  0  0  0  0  0  0  0  0  0  0
  -21.4214    2.6244  -11.8517 H   0  0  0  0  0  0  0  0  0  0  0  0
  -23.7879    4.5417  -11.8810 H   0  0  0  0  0  0  0  0  0  0  0  0
  -23.4660    3.1746  -10.7499 H   0  0  0  0  0  0  0  0  0  0  0  0
  -21.1647    4.6653  -10.5139 H   0  0  0  0  0  0  0  0  0  0  0  0
  -22.4109    5.9380  -10.7579 H   0  0  0  0  0  0  0  0  0  0  0  0
  -22.9003    5.6985   -8.5643 H   0  0  0  0  0  0  0  0  0  0  0  0
  -23.6310    4.1184   -9.0041 H   0  0  0  0  0  0  0  0  0  0  0  0
  -22.0668    3.5452   -7.3138 H   0  0  0  0  0  0  0  0  0  0  0  0
  -21.1770    3.1951   -8.8296 H   0  0  0  0  0  0  0  0  0  0  0  0
  1  2  2  0
  3  2  1  0
  2 18  1  0
  3  4  1  0
  3 15  1  0
  4  5  1  0
  4  8  1  1
  4  9  1  0
  5  6  1  6
  5  7  1  0
  5 13  1  0
  9 10  1  0
  9 11  2  0
 11 12  1  0
 11 13  1  0
 13 14  1  1
 13 15  1  0
 15 16  1  0
 16 17  2  0
 16 18  1  0
 18 19  1  0
 19 20  1  0
 20 21  1  0
 21 22  1  0
 22 23  1  0
 23 24  1  0
 24 25  1  0
 24 26  2  0
  3 27  1  6
 15 28  1  6
 19 29  1  0
 19 30  1  0
 20 31  1  0
 20 32  1  0
 21 33  1  0
 21 34  1  0
 22 35  1  0
 22 36  1  0
 23 37  1  0
 23 38  1  0
M  CHG  1  25  -1
M  END
>  <filename_input>  (6) 
6Z2C_Q5E_docked.sdf

>  <pdb_id>  (6) 
6Z2C_Q5E

>  <pose_rank>  (6) 
5

>  <num_atoms_heavy>  (6) 
26

>  <num_torsions>  (6) 
6

>  <pose>  (6) 
[-22.47575126400687, 6.226356933482427, -13.460248788018655, 0.011240584639590228, 2.9390530450353345, 1.7046432207792304, 0.28348433082294955, 1.0998990508171862, 1.354499357553721, -1.4753696496913664, -0.8778437575263249, -0.17944225146436224]

>  <energy>  (6) 
-659.4254460247945

>  <inter_energy>  (6) 
-665.8810760679869

>  <intra_energy>  (6) 
35.223491539702636

>  <rmsd>  (6) 
5.69359

>  <sdf_rank>  (6) 
0

$$$$

     RDKit          3D

 38 40  0  0  0  0  0  0  0  0999 V2000
  -20.8938    7.3580   -7.7600 O   0  0  0  0  0  0  0  0  0  0  0  0
  -20.3905    6.5578   -8.5633 C   0  0  0  0  0  0  0  0  0  0  0  0
  -21.0213    5.3373   -8.8579 C   0  0  1  0  0  0  0  0  0  0  0  0
  -22.3210    5.4352   -9.7296 C   0  0  1  0  0  0  0  0  0  0  0  0
  -22.3080    4.0840  -10.4470 C   0  0  1  0  0  0  0  0  0  0  0  0
  -22.4443    2.5415   -9.3422 Cl  0  0  0  0  0  0  0  0  0  0  0  0
  -23.7196    3.8698  -11.6279 Cl  0  0  0  0  0  0  0  0  0  0  0  0
  -23.8273    5.7657   -8.7772 Cl  0  0  0  0  0  0  0  0  0  0  0  0
  -22.1023    6.2888  -10.8228 C   0  0  0  0  0  0  0  0  0  0  0  0
  -22.8093    7.8937  -10.9149 Cl  0  0  0  0  0  0  0  0  0  0  0  0
  -21.2962    5.6718  -11.6847 C   0  0  0  0  0  0  0  0  0  0  0  0
  -20.7153    6.3128  -13.1729 Cl  0  0  0  0  0  0  0  0  0  0  0  0
  -20.9775    4.4066  -11.0953 C   0  0  2  0  0  0  0  0  0  0  0  0
  -20.4378    3.1014  -12.1854 Cl  0  0  0  0  0  0  0  0  0  0  0  0
  -20.0965    4.6473   -9.8085 C   0  0  1  0  0  0  0  0  0  0  0  0
  -19.0589    5.5495   -9.9700 C   0  0  0  0  0  0  0  0  0  0  0  0
  -18.0868    5.3152  -10.6814 O   0  0  0  0  0  0  0  0  0  0  0  0
  -19.2120    6.6640   -9.2082 N   0  0  0  0  0  0  0  0  0  0  0  0
  -18.1841    7.7223   -9.2495 C   0  0  0  0  0  0  0  0  0  0  0  0
  -18.7755    9.1051   -9.5333 C   0  0  0  0  0  0  0  0  0  0  0  0
  -18.8144    9.3662  -11.0196 C   0  0  0  0  0  0  0  0  0  0  0  0
  -17.6661    8.6396  -11.6964 C   0  0  0  0  0  0  0  0  0  0  0  0
  -17.9883    8.4512  -13.1777 C   0  0  0  0  0  0  0  0  0  0  0  0
  -16.8381    7.7151  -13.8420 C   0  0  0  0  0  0  0  0  0  0  0  0
  -15.9708    7.2562  -13.0831 O   0  0  0  0  0  0  0  0  0  0  0  0
  -16.8563    7.6209  -15.0915 O   0  0  0  0  0  0  0  0  0  0  0  0
  -21.2568    4.8738   -7.8885 H   0  0  0  0  0  0  0  0  0  0  0  0
  -19.6660    3.6800   -9.5102 H   0  0  0  0  0  0  0  0  0  0  0  0
  -17.6693    7.7518   -8.2779 H   0  0  0  0  0  0  0  0  0  0  0  0
  -17.4903    7.4818  -10.0685 H   0  0  0  0  0  0  0  0  0  0  0  0
  -19.7980    9.1516   -9.1303 H   0  0  0  0  0  0  0  0  0  0  0  0
  -18.1449    9.8681   -9.0536 H   0  0  0  0  0  0  0  0  0  0  0  0
  -19.7687    9.0041  -11.4296 H   0  0  0  0  0  0  0  0  0  0  0  0
  -18.7203   10.4468  -11.2024 H   0  0  0  0  0  0  0  0  0  0  0  0
  -16.7452    9.2323  -11.5936 H   0  0  0  0  0  0  0  0  0  0  0  0
  -17.5232    7.6568  -11.2234 H   0  0  0  0  0  0  0  0  0  0  0  0
  -18.9123    7.8637  -13.2827 H   0  0  0  0  0  0  0  0  0  0  0  0
  -18.1288    9.4318  -13.6559 H   0  0  0  0  0  0  0  0  0  0  0  0
  1  2  2  0
  3  2  1  0
  2 18  1  0
  3  4  1  0
  3 15  1  0
  4  5  1  0
  4  8  1  1
  4  9  1  0
  5  6  1  1
  5  7  1  0
  5 13  1  0
  9 10  1  0
  9 11  2  0
 11 12  1  0
 11 13  1  0
 13 14  1  6
 13 15  1  0
 15 16  1  0
 16 17  2  0
 16 18  1  0
 18 19  1  0
 19 20  1  0
 20 21  1  0
 21 22  1  0
 22 23  1  0
 23 24  1  0
 24 25  1  0
 24 26  2  0
  3 27  1  1
 15 28  1  1
 19 29  1  0
 19 30  1  0
 20 31  1  0
 20 32  1  0
 21 33  1  0
 21 34  1  0
 22 35  1  0
 22 36  1  0
 23 37  1  0
 23 38  1  0
M  CHG  1  25  -1
M  END
>  <filename_input>  (7) 
6Z2C_Q5E_docked.sdf

>  <pdb_id>  (7) 
6Z2C_Q5E

>  <pose_rank>  (7) 
6

>  <num_atoms_heavy>  (7) 
26

>  <num_torsions>  (7) 
6

>  <pose>  (7) 
[-20.893754356288632, 7.357989325802309, -7.7599894428904, -0.3402767858612201, -0.8879476311380442, 1.0221811472980544, 6.368153212468476, 12.94161043628247, 15.795063815803122, 24.54099203448315, 0.875727407834047, -0.4522604589766353]

>  <energy>  (7) 
-578.8214691340337

>  <inter_energy>  (7) 
-578.3994933868917

>  <intra_energy>  (7) 
6.069587369930986

>  <rmsd>  (7) 
3.25856

>  <sdf_rank>  (7) 
0

$$$$

     RDKit          3D

 38 40  0  0  0  0  0  0  0  0999 V2000
  -17.5517    6.5775  -12.0246 O   0  0  0  0  0  0  0  0  0  0  0  0
  -18.7787    6.6739  -12.1800 C   0  0  0  0  0  0  0  0  0  0  0  0
  -19.6677    5.9270  -11.3887 C   0  0  1  0  0  0  0  0  0  0  0  0
  -19.7951    6.3815   -9.8934 C   0  0  1  0  0  0  0  0  0  0  0  0
  -21.2266    5.9517   -9.5664 C   0  0  1  0  0  0  0  0  0  0  0  0
  -21.5884    4.0865   -9.6569 Cl  0  0  0  0  0  0  0  0  0  0  0  0
  -21.7447    6.3878   -7.8417 Cl  0  0  0  0  0  0  0  0  0  0  0  0
  -18.5320    5.6825   -8.7976 Cl  0  0  0  0  0  0  0  0  0  0  0  0
  -19.9428    7.7763   -9.8268 C   0  0  0  0  0  0  0  0  0  0  0  0
  -18.6551    8.8292   -9.2639 Cl  0  0  0  0  0  0  0  0  0  0  0  0
  -21.1597    8.0927  -10.2654 C   0  0  0  0  0  0  0  0  0  0  0  0
  -21.8127    9.6798  -10.3988 Cl  0  0  0  0  0  0  0  0  0  0  0  0
  -21.7783    6.8591  -10.6467 C   0  0  2  0  0  0  0  0  0  0  0  0
  -23.5609    6.8134  -10.7038 Cl  0  0  0  0  0  0  0  0  0  0  0  0
  -21.0266    6.2757  -11.9054 C   0  0  1  0  0  0  0  0  0  0  0  0
  -20.7701    7.1922  -12.9108 C   0  0  0  0  0  0  0  0  0  0  0  0
  -21.6623    7.6966  -13.5857 O   0  0  0  0  0  0  0  0  0  0  0  0
  -19.4413    7.4028  -13.0996 N   0  0  0  0  0  0  0  0  0  0  0  0
  -18.9933    8.3415  -14.1468 C   0  0  0  0  0  0  0  0  0  0  0  0
  -18.0463    7.6878  -15.1558 C   0  0  0  0  0  0  0  0  0  0  0  0
  -16.6620    7.5546  -14.5688 C   0  0  0  0  0  0  0  0  0  0  0  0
  -16.1311    6.1555  -14.8239 C   0  0  0  0  0  0  0  0  0  0  0  0
  -17.3035    5.1880  -14.9746 C   0  0  0  0  0  0  0  0  0  0  0  0
  -17.1157    4.0323  -14.0075 C   0  0  0  0  0  0  0  0  0  0  0  0
  -18.1110    3.3201  -13.8057 O   0  0  0  0  0  0  0  0  0  0  0  0
  -15.9803    3.8823  -13.4989 O   0  0  0  0  0  0  0  0  0  0  0  0
  -19.3149    4.8861  -11.4330 H   0  0  0  0  0  0  0  0  0  0  0  0
  -21.6487    5.4716  -12.3254 H   0  0  0  0  0  0  0  0  0  0  0  0
  -19.8763    8.7174  -14.6844 H   0  0  0  0  0  0  0  0  0  0  0  0
  -18.4433    9.1556  -13.6519 H   0  0  0  0  0  0  0  0  0  0  0  0
  -18.4272    6.6893  -15.4161 H   0  0  0  0  0  0  0  0  0  0  0  0
  -17.9930    8.3186  -16.0555 H   0  0  0  0  0  0  0  0  0  0  0  0
  -15.9932    8.2909  -15.0385 H   0  0  0  0  0  0  0  0  0  0  0  0
  -16.7069    7.7353  -13.4847 H   0  0  0  0  0  0  0  0  0  0  0  0
  -15.5320    6.1527  -15.7465 H   0  0  0  0  0  0  0  0  0  0  0  0
  -15.5015    5.8413  -13.9784 H   0  0  0  0  0  0  0  0  0  0  0  0
  -18.2446    5.7102  -14.7473 H   0  0  0  0  0  0  0  0  0  0  0  0
  -17.3426    4.8079  -16.0061 H   0  0  0  0  0  0  0  0  0  0  0  0
  1  2  2  0
  3  2  1  0
  2 18  1  0
  3  4  1  0
  3 15  1  0
  4  5  1  0
  4  8  1  1
  4  9  1  0
  5  6  1  6
  5  7  1  0
  5 13  1  0
  9 10  1  0
  9 11  2  0
 11 12  1  0
 11 13  1  0
 13 14  1  6
 13 15  1  0
 15 16  1  0
 16 17  2  0
 16 18  1  0
 18 19  1  0
 19 20  1  0
 20 21  1  0
 21 22  1  0
 22 23  1  0
 23 24  1  0
 24 25  1  0
 24 26  2  0
  3 27  1  1
 15 28  1  6
 19 29  1  0
 19 30  1  0
 20 31  1  0
 20 32  1  0
 21 33  1  0
 21 34  1  0
 22 35  1  0
 22 36  1  0
 23 37  1  0
 23 38  1  0
M  CHG  1  25  -1
M  END
>  <filename_input>  (8) 
6Z2C_Q5E_docked.sdf

>  <pdb_id>  (8) 
6Z2C_Q5E

>  <pose_rank>  (8) 
7

>  <num_atoms_heavy>  (8) 
26

>  <num_torsions>  (8) 
6

>  <pose>  (8) 
[-17.55171368744763, 6.57746984768233, -12.024622842158971, 0.8190279067598999, 0.5560913271061242, 0.09568672440468201, -4.296201685762223, 0.5934402019625851, -6.479656704223249, -16.381066210832966, -10.762847968838509, 2.270318411856735]

>  <energy>  (8) 
-534.2464818251897

>  <inter_energy>  (8) 
-584.6390592617757

>  <intra_energy>  (8) 
42.1010083779682

>  <rmsd>  (8) 
3.30858

>  <sdf_rank>  (8) 
0

$$$$

     RDKit          3D

 38 40  0  0  0  0  0  0  0  0999 V2000
  -19.7718    5.7348  -10.5178 O   0  0  0  0  0  0  0  0  0  0  0  0
  -19.3082    6.8827  -10.5971 C   0  0  0  0  0  0  0  0  0  0  0  0
  -18.3359    7.2040  -11.5593 C   0  0  1  0  0  0  0  0  0  0  0  0
  -18.8426    7.2782  -13.0413 C   0  0  1  0  0  0  0  0  0  0  0  0
  -17.8697    8.2934  -13.6443 C   0  0  1  0  0  0  0  0  0  0  0  0
  -16.0346    7.7931  -13.6647 Cl  0  0  0  0  0  0  0  0  0  0  0  0
  -18.2139    8.6661  -15.4263 Cl  0  0  0  0  0  0  0  0  0  0  0  0
  -18.8810    5.6778  -13.8910 Cl  0  0  0  0  0  0  0  0  0  0  0  0
  -20.0329    8.0206  -13.1047 C   0  0  0  0  0  0  0  0  0  0  0  0
  -21.5933    7.2670  -13.3891 Cl  0  0  0  0  0  0  0  0  0  0  0  0
  -19.7410    9.3035  -12.8994 C   0  0  0  0  0  0  0  0  0  0  0  0
  -20.8625   10.6087  -12.8588 Cl  0  0  0  0  0  0  0  0  0  0  0  0
  -18.3288    9.3582  -12.6698 C   0  0  2  0  0  0  0  0  0  0  0  0
  -17.5067   10.9158  -12.9545 Cl  0  0  0  0  0  0  0  0  0  0  0  0
  -18.0029    8.6389  -11.3037 C   0  0  1  0  0  0  0  0  0  0  0  0
  -18.8296    8.9846  -10.2484 C   0  0  0  0  0  0  0  0  0  0  0  0
  -18.8223   10.1039   -9.7451 O   0  0  0  0  0  0  0  0  0  0  0  0
  -19.5763    7.9397   -9.8052 N   0  0  0  0  0  0  0  0  0  0  0  0
  -20.5017    8.1335   -8.6719 C   0  0  0  0  0  0  0  0  0  0  0  0
  -21.8693    7.4904   -8.9133 C   0  0  0  0  0  0  0  0  0  0  0  0
  -22.5013    8.0512  -10.1642 C   0  0  0  0  0  0  0  0  0  0  0  0
  -23.4954    7.0514  -10.7270 C   0  0  0  0  0  0  0  0  0  0  0  0
  -23.5911    5.8491   -9.7896 C   0  0  0  0  0  0  0  0  0  0  0  0
  -23.6653    4.5808  -10.6215 C   0  0  0  0  0  0  0  0  0  0  0  0
  -24.5226    3.7518  -10.2802 O   0  0  0  0  0  0  0  0  0  0  0  0
  -22.8697    4.4726  -11.5836 O   0  0  0  0  0  0  0  0  0  0  0  0
  -17.5538    6.4356  -11.4710 H   0  0  0  0  0  0  0  0  0  0  0  0
  -16.9694    8.8948  -11.0274 H   0  0  0  0  0  0  0  0  0  0  0  0
  -20.0554    7.6854   -7.7718 H   0  0  0  0  0  0  0  0  0  0  0  0
  -20.6586    9.2155   -8.5506 H   0  0  0  0  0  0  0  0  0  0  0  0
  -21.7438    6.4035   -9.0267 H   0  0  0  0  0  0  0  0  0  0  0  0
  -22.5224    7.7081   -8.0553 H   0  0  0  0  0  0  0  0  0  0  0  0
  -23.0230    8.9887   -9.9216 H   0  0  0  0  0  0  0  0  0  0  0  0
  -21.7185    8.2470  -10.9117 H   0  0  0  0  0  0  0  0  0  0  0  0
  -24.4834    7.5267  -10.8164 H   0  0  0  0  0  0  0  0  0  0  0  0
  -23.1591    6.7177  -11.7198 H   0  0  0  0  0  0  0  0  0  0  0  0
  -22.7027    5.8143   -9.1420 H   0  0  0  0  0  0  0  0  0  0  0  0
  -24.4906    5.9364   -9.1626 H   0  0  0  0  0  0  0  0  0  0  0  0
  1  2  2  0
  3  2  1  0
  2 18  1  0
  3  4  1  0
  3 15  1  0
  4  5  1  0
  4  8  1  6
  4  9  1  0
  5  6  1  6
  5  7  1  0
  5 13  1  0
  9 10  1  0
  9 11  2  0
 11 12  1  0
 11 13  1  0
 13 14  1  6
 13 15  1  0
 15 16  1  0
 16 17  2  0
 16 18  1  0
 18 19  1  0
 19 20  1  0
 20 21  1  0
 21 22  1  0
 22 23  1  0
 23 24  1  0
 24 25  1  0
 24 26  2  0
  3 27  1  6
 15 28  1  1
 19 29  1  0
 19 30  1  0
 20 31  1  0
 20 32  1  0
 21 33  1  0
 21 34  1  0
 22 35  1  0
 22 36  1  0
 23 37  1  0
 23 38  1  0
M  CHG  1  25  -1
M  END
>  <filename_input>  (9) 
6Z2C_Q5E_docked.sdf

>  <pdb_id>  (9) 
6Z2C_Q5E

>  <pose_rank>  (9) 
8

>  <num_atoms_heavy>  (9) 
26

>  <num_torsions>  (9) 
6

>  <pose>  (9) 
[-19.771835055509566, 5.734845633477621, -10.517814211727023, -1.489452722733515, 2.436133637559479, -1.714401810747033, 0.22201881024604478, 7.217092013844624, 0.1936166526077444, 9.269694290208092, 1.5773497962826903, -2.959132035194778]

>  <energy>  (9) 
-489.85161075131174

>  <inter_energy>  (9) 
-506.2430131827638

>  <intra_energy>  (9) 
17.01773061050523

>  <rmsd>  (9) 
6.13306

>  <sdf_rank>  (9) 
0

$$$$

     RDKit          3D

 38 40  0  0  0  0  0  0  0  0999 V2000
  -20.4937    8.6615   -9.6036 O   0  0  0  0  0  0  0  0  0  0  0  0
  -19.9997    7.9254  -10.4714 C   0  0  0  0  0  0  0  0  0  0  0  0
  -20.1931    8.1893  -11.8378 C   0  0  1  0  0  0  0  0  0  0  0  0
  -19.4175    9.4267  -12.4089 C   0  0  1  0  0  0  0  0  0  0  0  0
  -19.2266    9.0171  -13.8706 C   0  0  1  0  0  0  0  0  0  0  0  0
  -20.8126    8.7816  -14.8942 Cl  0  0  0  0  0  0  0  0  0  0  0  0
  -18.2795   10.2639  -14.8612 Cl  0  0  0  0  0  0  0  0  0  0  0  0
  -20.2734   11.0075  -12.1772 Cl  0  0  0  0  0  0  0  0  0  0  0  0
  -18.0821    9.3976  -11.9758 C   0  0  0  0  0  0  0  0  0  0  0  0
  -17.4664   10.5066  -10.7614 Cl  0  0  0  0  0  0  0  0  0  0  0  0
  -17.4516    8.4169  -12.6193 C   0  0  0  0  0  0  0  0  0  0  0  0
  -15.8028    7.9643  -12.4203 Cl  0  0  0  0  0  0  0  0  0  0  0  0
  -18.4328    7.7953  -13.4565 C   0  0  2  0  0  0  0  0  0  0  0  0
  -17.8482    6.8749  -14.8687 Cl  0  0  0  0  0  0  0  0  0  0  0  0
  -19.4990    7.0708  -12.5465 C   0  0  1  0  0  0  0  0  0  0  0  0
  -18.9701    6.3091  -11.5185 C   0  0  0  0  0  0  0  0  0  0  0  0
  -18.3350    5.2789  -11.7213 O   0  0  0  0  0  0  0  0  0  0  0  0
  -19.2943    6.7914  -10.2904 N   0  0  0  0  0  0  0  0  0  0  0  0
  -18.8228    6.0866   -9.0824 C   0  0  0  0  0  0  0  0  0  0  0  0
  -19.8367    5.0630   -8.5659 C   0  0  0  0  0  0  0  0  0  0  0  0
  -21.1348    5.7437   -8.2051 C   0  0  0  0  0  0  0  0  0  0  0  0
  -22.2820    4.7578   -8.3341 C   0  0  0  0  0  0  0  0  0  0  0  0
  -22.4541    4.3695   -9.8014 C   0  0  0  0  0  0  0  0  0  0  0  0
  -23.3999    5.3556  -10.4640 C   0  0  0  0  0  0  0  0  0  0  0  0
  -23.8280    6.2712   -9.7449 O   0  0  0  0  0  0  0  0  0  0  0  0
  -23.6668    5.1765  -11.6752 O   0  0  0  0  0  0  0  0  0  0  0  0
  -21.2754    8.3343  -11.9704 H   0  0  0  0  0  0  0  0  0  0  0  0
  -20.0965    6.4091  -13.1908 H   0  0  0  0  0  0  0  0  0  0  0  0
  -17.8853    5.5638   -9.3227 H   0  0  0  0  0  0  0  0  0  0  0  0
  -18.6765    6.8387   -8.2931 H   0  0  0  0  0  0  0  0  0  0  0  0
  -20.0258    4.3136   -9.3486 H   0  0  0  0  0  0  0  0  0  0  0  0
  -19.4271    4.5771   -7.6681 H   0  0  0  0  0  0  0  0  0  0  0  0
  -21.0808    6.1084   -7.1687 H   0  0  0  0  0  0  0  0  0  0  0  0
  -21.3038    6.5907   -8.8862 H   0  0  0  0  0  0  0  0  0  0  0  0
  -22.0619    3.8587   -7.7398 H   0  0  0  0  0  0  0  0  0  0  0  0
  -23.2087    5.2219   -7.9655 H   0  0  0  0  0  0  0  0  0  0  0  0
  -21.4779    4.3973  -10.3076 H   0  0  0  0  0  0  0  0  0  0  0  0
  -22.8672    3.3525   -9.8715 H   0  0  0  0  0  0  0  0  0  0  0  0
  1  2  2  0
  3  2  1  0
  2 18  1  0
  3  4  1  0
  3 15  1  0
  4  5  1  0
  4  8  1  6
  4  9  1  0
  5  6  1  6
  5  7  1  0
  5 13  1  0
  9 10  1  0
  9 11  2  0
 11 12  1  0
 11 13  1  0
 13 14  1  6
 13 15  1  0
 15 16  1  0
 16 17  2  0
 16 18  1  0
 18 19  1  0
 19 20  1  0
 20 21  1  0
 21 22  1  0
 22 23  1  0
 23 24  1  0
 24 25  1  0
 24 26  2  0
  3 27  1  1
 15 28  1  6
 19 29  1  0
 19 30  1  0
 20 31  1  0
 20 32  1  0
 21 33  1  0
 21 34  1  0
 22 35  1  0
 22 36  1  0
 23 37  1  0
 23 38  1  0
M  CHG  1  25  -1
M  END
>  <filename_input>  (10) 
6Z2C_Q5E_docked.sdf

>  <pdb_id>  (10) 
6Z2C_Q5E

>  <pose_rank>  (10) 
9

>  <num_atoms_heavy>  (10) 
26

>  <num_torsions>  (10) 
6

>  <pose>  (10) 
[-20.493710590130263, 8.661494818321918, -9.603637405763266, -0.6401929987129067, -1.6116669264428478, -0.6733565020041877, -3.7595248557119256, 0.8927079473355481, 0.1564454731993945, 1.7683464547862038, 2.463630844088642, -0.5907946419476277]

>  <energy>  (10) 
-530.409839050915

>  <inter_energy>  (10) 
-545.7486278799038

>  <intra_energy>  (10) 
15.410599468358807

>  <rmsd>  (10) 
5.84012

>  <sdf_rank>  (10) 
0

$$$$

     RDKit          3D

 38 40  0  0  0  0  0  0  0  0999 V2000
  -16.5424    4.2505  -11.7011 O   0  0  0  0  0  0  0  0  0  0  0  0
  -17.3471    5.1704  -11.4887 C   0  0  0  0  0  0  0  0  0  0  0  0
  -17.1309    6.4550  -12.0153 C   0  0  1  0  0  0  0  0  0  0  0  0
  -17.3341    6.5997  -13.5634 C   0  0  1  0  0  0  0  0  0  0  0  0
  -17.7567    8.0656  -13.6784 C   0  0  1  0  0  0  0  0  0  0  0  0
  -16.4775    9.3581  -13.1203 Cl  0  0  0  0  0  0  0  0  0  0  0  0
  -18.1327    8.5835  -15.4172 Cl  0  0  0  0  0  0  0  0  0  0  0  0
  -15.8758    6.1589  -14.5453 Cl  0  0  0  0  0  0  0  0  0  0  0  0
  -18.5303    5.9745  -13.9507 C   0  0  0  0  0  0  0  0  0  0  0  0
  -18.5513    4.4584  -14.8365 Cl  0  0  0  0  0  0  0  0  0  0  0  0
  -19.5509    6.7121  -13.5172 C   0  0  0  0  0  0  0  0  0  0  0  0
  -21.2227    6.3567  -13.7218 Cl  0  0  0  0  0  0  0  0  0  0  0  0
  -18.9727    7.8149  -12.8106 C   0  0  2  0  0  0  0  0  0  0  0  0
  -19.9659    9.2848  -12.6210 Cl  0  0  0  0  0  0  0  0  0  0  0  0
  -18.2710    7.2759  -11.5041 C   0  0  1  0  0  0  0  0  0  0  0  0
  -19.0197    6.3745  -10.7669 C   0  0  0  0  0  0  0  0  0  0  0  0
  -20.0427    6.6991  -10.1718 O   0  0  0  0  0  0  0  0  0  0  0  0
  -18.4578    5.1382  -10.7262 N   0  0  0  0  0  0  0  0  0  0  0  0
  -19.1213    4.0603   -9.9671 C   0  0  0  0  0  0  0  0  0  0  0  0
  -19.0878    4.2995   -8.4558 C   0  0  0  0  0  0  0  0  0  0  0  0
  -20.4726    4.6089   -7.9408 C   0  0  0  0  0  0  0  0  0  0  0  0
  -21.5056    4.2035   -8.9767 C   0  0  0  0  0  0  0  0  0  0  0  0
  -22.7577    5.0619   -8.8070 C   0  0  0  0  0  0  0  0  0  0  0  0
  -23.1942    5.5709  -10.1695 C   0  0  0  0  0  0  0  0  0  0  0  0
  -23.6325    6.7308  -10.2058 O   0  0  0  0  0  0  0  0  0  0  0  0
  -23.0722    4.7927  -11.1440 O   0  0  0  0  0  0  0  0  0  0  0  0
  -16.0984    6.7243  -11.7483 H   0  0  0  0  0  0  0  0  0  0  0  0
  -18.0464    8.1406  -10.8622 H   0  0  0  0  0  0  0  0  0  0  0  0
  -20.1707    3.9958  -10.2905 H   0  0  0  0  0  0  0  0  0  0  0  0
  -18.5768    3.1261  -10.1691 H   0  0  0  0  0  0  0  0  0  0  0  0
  -18.7080    3.3970   -7.9544 H   0  0  0  0  0  0  0  0  0  0  0  0
  -18.4293    5.1549   -8.2445 H   0  0  0  0  0  0  0  0  0  0  0  0
  -20.6497    4.0507   -7.0097 H   0  0  0  0  0  0  0  0  0  0  0  0
  -20.5562    5.6882   -7.7458 H   0  0  0  0  0  0  0  0  0  0  0  0
  -21.0923    4.3526   -9.9852 H   0  0  0  0  0  0  0  0  0  0  0  0
  -21.7656    3.1433   -8.8412 H   0  0  0  0  0  0  0  0  0  0  0  0
  -23.5625    4.4571   -8.3636 H   0  0  0  0  0  0  0  0  0  0  0  0
  -22.5393    5.9121   -8.1441 H   0  0  0  0  0  0  0  0  0  0  0  0
  1  2  2  0
  3  2  1  0
  2 18  1  0
  3  4  1  0
  3 15  1  0
  4  5  1  0
  4  8  1  6
  4  9  1  0
  5  6  1  1
  5  7  1  0
  5 13  1  0
  9 10  1  0
  9 11  2  0
 11 12  1  0
 11 13  1  0
 13 14  1  1
 13 15  1  0
 15 16  1  0
 16 17  2  0
 16 18  1  0
 18 19  1  0
 19 20  1  0
 20 21  1  0
 21 22  1  0
 22 23  1  0
 23 24  1  0
 24 25  1  0
 24 26  2  0
  3 27  1  6
 15 28  1  1
 19 29  1  0
 19 30  1  0
 20 31  1  0
 20 32  1  0
 21 33  1  0
 21 34  1  0
 22 35  1  0
 22 36  1  0
 23 37  1  0
 23 38  1  0
M  CHG  1  25  -1
M  END
>  <filename_input>  (11) 
6Z2C_Q5E_docked.sdf

>  <pdb_id>  (11) 
6Z2C_Q5E

>  <pose_rank>  (11) 
10

>  <num_atoms_heavy>  (11) 
26

>  <num_torsions>  (11) 
6

>  <pose>  (11) 
[-16.54242999300865, 4.250470990501602, -11.701121998557584, 2.8136649215851595, -1.8959273969065709, 1.7470124139963448, -3.340713018474738, -2.407486097739781, -2.2394224268496163, 0.2478797871111398, 0.05166019908690007, 3.19368714113596]

>  <energy>  (11) 
-581.4427409581091

>  <inter_energy>  (11) 
-591.1945823935672

>  <intra_energy>  (11) 
25.563152307788556

>  <rmsd>  (11) 
5.71731

>  <sdf_rank>  (11) 
0

$$$$

     RDKit          3D

 38 40  0  0  0  0  0  0  0  0999 V2000
  -18.1923    7.5391  -11.5576 O   0  0  0  0  0  0  0  0  0  0  0  0
  -18.8843    6.5168  -11.6793 C   0  0  0  0  0  0  0  0  0  0  0  0
  -19.3051    5.7911  -10.5522 C   0  0  1  0  0  0  0  0  0  0  0  0
  -20.4168    6.4712   -9.6802 C   0  0  1  0  0  0  0  0  0  0  0  0
  -21.1249    5.2520   -9.0862 C   0  0  1  0  0  0  0  0  0  0  0  0
  -20.0779    4.1366   -7.9558 Cl  0  0  0  0  0  0  0  0  0  0  0  0
  -22.5637    5.6966   -8.0066 Cl  0  0  0  0  0  0  0  0  0  0  0  0
  -19.7804    7.6426   -8.4523 Cl  0  0  0  0  0  0  0  0  0  0  0  0
  -21.4401    6.9636  -10.5061 C   0  0  0  0  0  0  0  0  0  0  0  0
  -21.6615    8.6804  -10.8015 Cl  0  0  0  0  0  0  0  0  0  0  0  0
  -22.1283    5.9296  -10.9864 C   0  0  0  0  0  0  0  0  0  0  0  0
  -23.4680    6.0112  -12.0642 Cl  0  0  0  0  0  0  0  0  0  0  0  0
  -21.4945    4.7549  -10.4686 C   0  0  2  0  0  0  0  0  0  0  0  0
  -22.4632    3.2584  -10.3976 Cl  0  0  0  0  0  0  0  0  0  0  0  0
  -20.0572    4.6239  -11.1063 C   0  0  1  0  0  0  0  0  0  0  0  0
  -20.0044    4.8198  -12.4758 C   0  0  0  0  0  0  0  0  0  0  0  0
  -20.5101    4.0362  -13.2734 O   0  0  0  0  0  0  0  0  0  0  0  0
  -19.2819    5.9179  -12.8192 N   0  0  0  0  0  0  0  0  0  0  0  0
  -19.1124    6.2629  -14.2443 C   0  0  0  0  0  0  0  0  0  0  0  0
  -18.0757    7.3675  -14.4622 C   0  0  0  0  0  0  0  0  0  0  0  0
  -16.9254    6.8535  -15.2935 C   0  0  0  0  0  0  0  0  0  0  0  0
  -15.7418    6.5461  -14.3940 C   0  0  0  0  0  0  0  0  0  0  0  0
  -15.8486    5.1084  -13.8892 C   0  0  0  0  0  0  0  0  0  0  0  0
  -14.4810    4.6506  -13.4137 C   0  0  0  0  0  0  0  0  0  0  0  0
  -14.3796    3.4518  -13.1116 O   0  0  0  0  0  0  0  0  0  0  0  0
  -13.5670    5.5067  -13.3709 O   0  0  0  0  0  0  0  0  0  0  0  0
  -18.4043    5.6238   -9.9433 H   0  0  0  0  0  0  0  0  0  0  0  0
  -19.6848    3.6116  -10.8905 H   0  0  0  0  0  0  0  0  0  0  0  0
  -18.7888    5.3635  -14.7886 H   0  0  0  0  0  0  0  0  0  0  0  0
  -20.0791    6.6349  -14.6147 H   0  0  0  0  0  0  0  0  0  0  0  0
  -18.5502    8.2122  -14.9831 H   0  0  0  0  0  0  0  0  0  0  0  0
  -17.6914    7.6939  -13.4846 H   0  0  0  0  0  0  0  0  0  0  0  0
  -17.2340    5.9370  -15.8179 H   0  0  0  0  0  0  0  0  0  0  0  0
  -16.6358    7.6193  -16.0281 H   0  0  0  0  0  0  0  0  0  0  0  0
  -14.8078    6.6672  -14.9622 H   0  0  0  0  0  0  0  0  0  0  0  0
  -15.7413    7.2372  -13.5382 H   0  0  0  0  0  0  0  0  0  0  0  0
  -16.5641    5.0622  -13.0549 H   0  0  0  0  0  0  0  0  0  0  0  0
  -16.1992    4.4538  -14.7007 H   0  0  0  0  0  0  0  0  0  0  0  0
  1  2  2  0
  3  2  1  0
  2 18  1  0
  3  4  1  0
  3 15  1  0
  4  5  1  0
  4  8  1  1
  4  9  1  0
  5  6  1  1
  5  7  1  0
  5 13  1  0
  9 10  1  0
  9 11  2  0
 11 12  1  0
 11 13  1  0
 13 14  1  1
 13 15  1  0
 15 16  1  0
 16 17  2  0
 16 18  1  0
 18 19  1  0
 19 20  1  0
 20 21  1  0
 21 22  1  0
 22 23  1  0
 23 24  1  0
 24 25  1  0
 24 26  2  0
  3 27  1  1
 15 28  1  6
 19 29  1  0
 19 30  1  0
 20 31  1  0
 20 32  1  0
 21 33  1  0
 21 34  1  0
 22 35  1  0
 22 36  1  0
 23 37  1  0
 23 38  1  0
M  CHG  1  25  -1
M  END
>  <filename_input>  (12) 
6Z2C_Q5E_docked.sdf

>  <pdb_id>  (12) 
6Z2C_Q5E

>  <pose_rank>  (12) 
11

>  <num_atoms_heavy>  (12) 
26

>  <num_torsions>  (12) 
6

>  <pose>  (12) 
[-18.192303308214694, 7.539144037895746, -11.557568790328236, -0.14444865416096525, 0.6078906129992245, 0.8275435437100316, 1.177233219491046, -2.278709810487723, -4.296610820820244, -1.8192552977854406, 0.5282959244756977, 2.663749084807628]

>  <energy>  (12) 
-584.5668056092162

>  <inter_energy>  (12) 
-602.7695686750297

>  <intra_energy>  (12) 
17.27536333742475

>  <rmsd>  (12) 
3.12926

>  <sdf_rank>  (12) 
0

$$$$

     RDKit          3D

 38 40  0  0  0  0  0  0  0  0999 V2000
  -22.3987    6.5793  -13.7556 O   0  0  0  0  0  0  0  0  0  0  0  0
  -22.0422    6.7807  -12.5846 C   0  0  0  0  0  0  0  0  0  0  0  0
  -22.7360    6.2016  -11.5088 C   0  0  1  0  0  0  0  0  0  0  0  0
  -22.5456    4.6557  -11.3284 C   0  0  1  0  0  0  0  0  0  0  0  0
  -22.7451    4.4992   -9.8196 C   0  0  1  0  0  0  0  0  0  0  0  0
  -24.4582    4.9733   -9.1421 Cl  0  0  0  0  0  0  0  0  0  0  0  0
  -22.5394    2.7540   -9.2323 Cl  0  0  0  0  0  0  0  0  0  0  0  0
  -23.6614    3.6496  -12.3421 Cl  0  0  0  0  0  0  0  0  0  0  0  0
  -21.1842    4.3255  -11.4253 C   0  0  0  0  0  0  0  0  0  0  0  0
  -20.5182    3.4965  -12.8228 Cl  0  0  0  0  0  0  0  0  0  0  0  0
  -20.5659    4.7605  -10.3290 C   0  0  0  0  0  0  0  0  0  0  0  0
  -18.8858    4.6164   -9.9832 Cl  0  0  0  0  0  0  0  0  0  0  0  0
  -21.5676    5.4097   -9.5386 C   0  0  2  0  0  0  0  0  0  0  0  0
  -21.2595    5.5736   -7.7889 Cl  0  0  0  0  0  0  0  0  0  0  0  0
  -22.0452    6.7147  -10.2862 C   0  0  1  0  0  0  0  0  0  0  0  0
  -21.0274    7.5052  -10.7919 C   0  0  0  0  0  0  0  0  0  0  0  0
  -20.2470    8.1167  -10.0687 O   0  0  0  0  0  0  0  0  0  0  0  0
  -21.0446    7.5750  -12.1486 N   0  0  0  0  0  0  0  0  0  0  0  0
  -20.0346    8.3915  -12.8497 C   0  0  0  0  0  0  0  0  0  0  0  0
  -18.9451    7.5412  -13.5073 C   0  0  0  0  0  0  0  0  0  0  0  0
  -18.5676    8.1164  -14.8509 C   0  0  0  0  0  0  0  0  0  0  0  0
  -17.3853    9.0551  -14.6912 C   0  0  0  0  0  0  0  0  0  0  0  0
  -16.8279    9.4074  -16.0691 C   0  0  0  0  0  0  0  0  0  0  0  0
  -17.7340   10.4390  -16.7178 C   0  0  0  0  0  0  0  0  0  0  0  0
  -18.0023   11.4388  -16.0343 O   0  0  0  0  0  0  0  0  0  0  0  0
  -18.1308   10.2088  -17.8839 O   0  0  0  0  0  0  0  0  0  0  0  0
  -23.7995    6.4293  -11.6737 H   0  0  0  0  0  0  0  0  0  0  0  0
  -22.6250    7.3179   -9.5721 H   0  0  0  0  0  0  0  0  0  0  0  0
  -20.5382    8.9830  -13.6284 H   0  0  0  0  0  0  0  0  0  0  0  0
  -19.5490    9.0358  -12.1019 H   0  0  0  0  0  0  0  0  0  0  0  0
  -18.0573    7.5243  -12.8580 H   0  0  0  0  0  0  0  0  0  0  0  0
  -19.3278    6.5201  -13.6513 H   0  0  0  0  0  0  0  0  0  0  0  0
  -18.2959    7.2993  -15.5353 H   0  0  0  0  0  0  0  0  0  0  0  0
  -19.4223    8.6736  -15.2620 H   0  0  0  0  0  0  0  0  0  0  0  0
  -17.7120    9.9736  -14.1816 H   0  0  0  0  0  0  0  0  0  0  0  0
  -16.6037    8.5635  -14.0932 H   0  0  0  0  0  0  0  0  0  0  0  0
  -15.8143    9.8213  -15.9625 H   0  0  0  0  0  0  0  0  0  0  0  0
  -16.7840    8.5040  -16.6952 H   0  0  0  0  0  0  0  0  0  0  0  0
  1  2  2  0
  3  2  1  0
  2 18  1  0
  3  4  1  0
  3 15  1  0
  4  5  1  0
  4  8  1  6
  4  9  1  0
  5  6  1  1
  5  7  1  0
  5 13  1  0
  9 10  1  0
  9 11  2  0
 11 12  1  0
 11 13  1  0
 13 14  1  1
 13 15  1  0
 15 16  1  0
 16 17  2  0
 16 18  1  0
 18 19  1  0
 19 20  1  0
 20 21  1  0
 21 22  1  0
 22 23  1  0
 23 24  1  0
 24 25  1  0
 24 26  2  0
  3 27  1  1
 15 28  1  1
 19 29  1  0
 19 30  1  0
 20 31  1  0
 20 32  1  0
 21 33  1  0
 21 34  1  0
 22 35  1  0
 22 36  1  0
 23 37  1  0
 23 38  1  0
M  CHG  1  25  -1
M  END
>  <filename_input>  (13) 
6Z2C_Q5E_docked.sdf

>  <pdb_id>  (13) 
6Z2C_Q5E

>  <pose_rank>  (13) 
12

>  <num_atoms_heavy>  (13) 
26

>  <num_torsions>  (13) 
6

>  <pose>  (13) 
[-22.398653439540286, 6.579297031756106, -13.755628042792436, -2.5494728288953015, -0.8924142834597804, 1.9055730957665795, -0.31902186706764724, 10.686669848440047, 17.954861065403524, 5.863092191147528, -0.9249173348387651, 0.2802123664406474]

>  <energy>  (13) 
-587.5146424018973

>  <inter_energy>  (13) 
-580.3713736146693

>  <intra_energy>  (13) 
0.02497279658335027

>  <rmsd>  (13) 
2.91726

>  <sdf_rank>  (13) 
0

$$$$

     RDKit          3D

 38 40  0  0  0  0  0  0  0  0999 V2000
  -20.9361    6.8273  -14.0294 O   0  0  0  0  0  0  0  0  0  0  0  0
  -20.6903    7.0323  -12.8309 C   0  0  0  0  0  0  0  0  0  0  0  0
  -21.6749    6.8364  -11.8479 C   0  0  1  0  0  0  0  0  0  0  0  0
  -22.0460    5.3437  -11.5434 C   0  0  1  0  0  0  0  0  0  0  0  0
  -22.4840    5.4322  -10.0801 C   0  0  1  0  0  0  0  0  0  0  0  0
  -24.0079    6.5121   -9.7200 Cl  0  0  0  0  0  0  0  0  0  0  0  0
  -22.9621    3.7933   -9.3600 Cl  0  0  0  0  0  0  0  0  0  0  0  0
  -23.2930    4.6488  -12.6602 Cl  0  0  0  0  0  0  0  0  0  0  0  0
  -20.8774    4.5790  -11.3976 C   0  0  0  0  0  0  0  0  0  0  0  0
  -20.3540    3.4260  -12.6145 Cl  0  0  0  0  0  0  0  0  0  0  0  0
  -20.2985    4.9093  -10.2448 C   0  0  0  0  0  0  0  0  0  0  0  0
  -18.8282    4.2654   -9.6228 Cl  0  0  0  0  0  0  0  0  0  0  0  0
  -21.1154    5.9346   -9.6690 C   0  0  2  0  0  0  0  0  0  0  0  0
  -21.0036    6.1854   -7.9061 Cl  0  0  0  0  0  0  0  0  0  0  0  0
  -21.0187    7.2307  -10.5638 C   0  0  1  0  0  0  0  0  0  0  0  0
  -19.7357    7.5837  -10.9458 C   0  0  0  0  0  0  0  0  0  0  0  0
  -18.8968    7.9849  -10.1451 O   0  0  0  0  0  0  0  0  0  0  0  0
  -19.5492    7.5018  -12.2891 N   0  0  0  0  0  0  0  0  0  0  0  0
  -18.2388    7.8597  -12.8665 C   0  0  0  0  0  0  0  0  0  0  0  0
  -18.3517    8.9108  -13.9732 C   0  0  0  0  0  0  0  0  0  0  0  0
  -17.7305    8.3994  -15.2503 C   0  0  0  0  0  0  0  0  0  0  0  0
  -17.9646    9.3989  -16.3687 C   0  0  0  0  0  0  0  0  0  0  0  0
  -16.7263    9.4603  -17.2611 C   0  0  0  0  0  0  0  0  0  0  0  0
  -17.1307    9.9805  -18.6293 C   0  0  0  0  0  0  0  0  0  0  0  0
  -17.5723   11.1392  -18.6657 O   0  0  0  0  0  0  0  0  0  0  0  0
  -16.9817    9.2119  -19.6076 O   0  0  0  0  0  0  0  0  0  0  0  0
  -22.5664    7.3782  -12.1969 H   0  0  0  0  0  0  0  0  0  0  0  0
  -21.4481    8.0665   -9.9920 H   0  0  0  0  0  0  0  0  0  0  0  0
  -17.5979    8.2581  -12.0661 H   0  0  0  0  0  0  0  0  0  0  0  0
  -17.8113    6.9498  -13.3129 H   0  0  0  0  0  0  0  0  0  0  0  0
  -19.4134    9.1365  -14.1517 H   0  0  0  0  0  0  0  0  0  0  0  0
  -17.8198    9.8202  -13.6571 H   0  0  0  0  0  0  0  0  0  0  0  0
  -16.6491    8.2631  -15.1020 H   0  0  0  0  0  0  0  0  0  0  0  0
  -18.1903    7.4370  -15.5194 H   0  0  0  0  0  0  0  0  0  0  0  0
  -18.8326    9.0842  -16.9665 H   0  0  0  0  0  0  0  0  0  0  0  0
  -18.1577   10.3929  -15.9389 H   0  0  0  0  0  0  0  0  0  0  0  0
  -15.9824   10.1363  -16.8142 H   0  0  0  0  0  0  0  0  0  0  0  0
  -16.2876    8.4564  -17.3590 H   0  0  0  0  0  0  0  0  0  0  0  0
  1  2  2  0
  3  2  1  0
  2 18  1  0
  3  4  1  0
  3 15  1  0
  4  5  1  0
  4  8  1  6
  4  9  1  0
  5  6  1  6
  5  7  1  0
  5 13  1  0
  9 10  1  0
  9 11  2  0
 11 12  1  0
 11 13  1  0
 13 14  1  1
 13 15  1  0
 15 16  1  0
 16 17  2  0
 16 18  1  0
 18 19  1  0
 19 20  1  0
 20 21  1  0
 21 22  1  0
 22 23  1  0
 23 24  1  0
 24 25  1  0
 24 26  2  0
  3 27  1  6
 15 28  1  1
 19 29  1  0
 19 30  1  0
 20 31  1  0
 20 32  1  0
 21 33  1  0
 21 34  1  0
 22 35  1  0
 22 36  1  0
 23 37  1  0
 23 38  1  0
M  CHG  1  25  -1
M  END
>  <filename_input>  (14) 
6Z2C_Q5E_docked.sdf

>  <pdb_id>  (14) 
6Z2C_Q5E

>  <pose_rank>  (14) 
13

>  <num_atoms_heavy>  (14) 
26

>  <num_torsions>  (14) 
6

>  <pose>  (14) 
[-20.936128305651483, 6.827322284934619, -14.029396011781673, 2.576323625883042, 0.3134467468845334, -1.633531083969043, -4.345857165956293, -0.2134634533181349, 0.5304458906663931, -0.8771372038044244, 0.47106971452580443, 0.4992360437233815]

>  <energy>  (14) 
-616.4643796244724

>  <inter_energy>  (14) 
-599.5187220658174

>  <intra_energy>  (14) 
2.3500308600680273

>  <rmsd>  (14) 
3.06256

>  <sdf_rank>  (14) 
0

$$$$

     RDKit          3D

 38 40  0  0  0  0  0  0  0  0999 V2000
  -21.1867    4.2285  -10.9344 O   0  0  0  0  0  0  0  0  0  0  0  0
  -20.4475    5.2092  -10.7591 C   0  0  0  0  0  0  0  0  0  0  0  0
  -19.1251    5.2108  -11.2339 C   0  0  1  0  0  0  0  0  0  0  0  0
  -18.9596    5.3311  -12.7885 C   0  0  1  0  0  0  0  0  0  0  0  0
  -17.5985    6.0214  -12.8964 C   0  0  1  0  0  0  0  0  0  0  0  0
  -16.1083    5.0592  -12.2097 Cl  0  0  0  0  0  0  0  0  0  0  0  0
  -17.0925    6.3702  -14.6444 Cl  0  0  0  0  0  0  0  0  0  0  0  0
  -19.0725    3.7509  -13.6689 Cl  0  0  0  0  0  0  0  0  0  0  0  0
  -19.7863    6.3536  -13.2813 C   0  0  0  0  0  0  0  0  0  0  0  0
  -21.2413    6.0187  -14.2058 Cl  0  0  0  0  0  0  0  0  0  0  0  0
  -19.2763    7.5254  -12.9067 C   0  0  0  0  0  0  0  0  0  0  0  0
  -19.9371    9.0782  -13.2460 Cl  0  0  0  0  0  0  0  0  0  0  0  0
  -18.1126    7.2224  -12.1296 C   0  0  2  0  0  0  0  0  0  0  0  0
  -16.8693    8.4928  -11.9768 Cl  0  0  0  0  0  0  0  0  0  0  0  0
  -18.5593    6.5211  -10.7886 C   0  0  1  0  0  0  0  0  0  0  0  0
  -19.6166    7.1295  -10.1340 C   0  0  0  0  0  0  0  0  0  0  0  0
  -19.5185    8.2346   -9.6094 O   0  0  0  0  0  0  0  0  0  0  0  0
  -20.7229    6.3424  -10.0837 N   0  0  0  0  0  0  0  0  0  0  0  0
  -21.9378    6.8346   -9.4053 C   0  0  0  0  0  0  0  0  0  0  0  0
  -22.9182    7.5060  -10.3699 C   0  0  0  0  0  0  0  0  0  0  0  0
  -22.2103    8.5515  -11.1971 C   0  0  0  0  0  0  0  0  0  0  0  0
  -23.1062    9.7660  -11.3617 C   0  0  0  0  0  0  0  0  0  0  0  0
  -22.7142   10.5165  -12.6331 C   0  0  0  0  0  0  0  0  0  0  0  0
  -22.8302   12.0092  -12.3793 C   0  0  0  0  0  0  0  0  0  0  0  0
  -23.4575   12.3445  -11.3630 O   0  0  0  0  0  0  0  0  0  0  0  0
  -22.2828   12.7801  -13.2016 O   0  0  0  0  0  0  0  0  0  0  0  0
  -18.6737    4.2712  -10.8827 H   0  0  0  0  0  0  0  0  0  0  0  0
  -17.6944    6.5135  -10.1091 H   0  0  0  0  0  0  0  0  0  0  0  0
  -22.4428    5.9834   -8.9252 H   0  0  0  0  0  0  0  0  0  0  0  0
  -21.6258    7.5890   -8.6681 H   0  0  0  0  0  0  0  0  0  0  0  0
  -23.3477    6.7450  -11.0380 H   0  0  0  0  0  0  0  0  0  0  0  0
  -23.7154    7.9914   -9.7878 H   0  0  0  0  0  0  0  0  0  0  0  0
  -21.2797    8.8493  -10.6918 H   0  0  0  0  0  0  0  0  0  0  0  0
  -21.9755    8.1349  -12.1877 H   0  0  0  0  0  0  0  0  0  0  0  0
  -24.1546    9.4414  -11.4354 H   0  0  0  0  0  0  0  0  0  0  0  0
  -22.9892   10.4296  -10.4922 H   0  0  0  0  0  0  0  0  0  0  0  0
  -21.6776   10.2676  -12.9040 H   0  0  0  0  0  0  0  0  0  0  0  0
  -23.3816   10.2259  -13.4578 H   0  0  0  0  0  0  0  0  0  0  0  0
  1  2  2  0
  3  2  1  0
  2 18  1  0
  3  4  1  0
  3 15  1  0
  4  5  1  0
  4  8  1  6
  4  9  1  0
  5  6  1  1
  5  7  1  0
  5 13  1  0
  9 10  1  0
  9 11  2  0
 11 12  1  0
 11 13  1  0
 13 14  1  1
 13 15  1  0
 15 16  1  0
 16 17  2  0
 16 18  1  0
 18 19  1  0
 19 20  1  0
 20 21  1  0
 21 22  1  0
 22 23  1  0
 23 24  1  0
 24 25  1  0
 24 26  2  0
  3 27  1  1
 15 28  1  1
 19 29  1  0
 19 30  1  0
 20 31  1  0
 20 32  1  0
 21 33  1  0
 21 34  1  0
 22 35  1  0
 22 36  1  0
 23 37  1  0
 23 38  1  0
M  CHG  1  25  -1
M  END
>  <filename_input>  (15) 
6Z2C_Q5E_docked.sdf

>  <pdb_id>  (15) 
6Z2C_Q5E

>  <pose_rank>  (15) 
14

>  <num_atoms_heavy>  (15) 
26

>  <num_torsions>  (15) 
6

>  <pose>  (15) 
[-21.186702659466864, 4.228542613953686, -10.934395204546911, 0.7109160511764141, -2.449433894757906, 1.7972778942967857, -38.204364894636925, -17.799565247694296, -42.66952202642432, -18.631836625346775, -4.755898730887475, -7.147485516114896]

>  <energy>  (15) 
-472.17917530506776

>  <inter_energy>  (15) 
-513.2433792839875

>  <intra_energy>  (15) 
39.72840189281268

>  <rmsd>  (15) 
4.98892

>  <sdf_rank>  (15) 
0

$$$$

     RDKit          3D

 38 40  0  0  0  0  0  0  0  0999 V2000
  -20.1976    9.2713  -12.2052 O   0  0  0  0  0  0  0  0  0  0  0  0
  -20.0931    8.5711  -11.1865 C   0  0  0  0  0  0  0  0  0  0  0  0
  -21.1411    7.7290  -10.7784 C   0  0  1  0  0  0  0  0  0  0  0  0
  -21.3746    6.4548  -11.6619 C   0  0  1  0  0  0  0  0  0  0  0  0
  -21.9595    5.4790  -10.6390 C   0  0  1  0  0  0  0  0  0  0  0  0
  -23.6201    5.9747   -9.8548 Cl  0  0  0  0  0  0  0  0  0  0  0  0
  -22.3231    3.8067  -11.3490 Cl  0  0  0  0  0  0  0  0  0  0  0  0
  -22.4237    6.7419  -13.1117 Cl  0  0  0  0  0  0  0  0  0  0  0  0
  -20.1490    5.8213  -11.9235 C   0  0  0  0  0  0  0  0  0  0  0  0
  -19.3871    5.8708  -13.5049 Cl  0  0  0  0  0  0  0  0  0  0  0  0
  -19.7243    5.2450  -10.8006 C   0  0  0  0  0  0  0  0  0  0  0  0
  -18.2598    4.3629  -10.6001 Cl  0  0  0  0  0  0  0  0  0  0  0  0
  -20.7004    5.5557   -9.8003 C   0  0  2  0  0  0  0  0  0  0  0  0
  -20.7883    4.4878   -8.3738 Cl  0  0  0  0  0  0  0  0  0  0  0  0
  -20.6597    7.1057   -9.5076 C   0  0  1  0  0  0  0  0  0  0  0  0
  -19.3920    7.6369   -9.3414 C   0  0  0  0  0  0  0  0  0  0  0  0
  -18.6836    7.3619   -8.3778 O   0  0  0  0  0  0  0  0  0  0  0  0
  -19.0681    8.5302  -10.3125 N   0  0  0  0  0  0  0  0  0  0  0  0
  -17.7550    9.2031  -10.2757 C   0  0  0  0  0  0  0  0  0  0  0  0
  -17.5690   10.1921  -11.4288 C   0  0  0  0  0  0  0  0  0  0  0  0
  -16.5825    9.6492  -12.4341 C   0  0  0  0  0  0  0  0  0  0  0  0
  -17.3280    9.1053  -13.6395 C   0  0  0  0  0  0  0  0  0  0  0  0
  -17.4131   10.1878  -14.7139 C   0  0  0  0  0  0  0  0  0  0  0  0
  -18.4995    9.8125  -15.7062 C   0  0  0  0  0  0  0  0  0  0  0  0
  -18.1139    9.3572  -16.7938 O   0  0  0  0  0  0  0  0  0  0  0  0
  -19.6897    9.9813  -15.3523 O   0  0  0  0  0  0  0  0  0  0  0  0
  -22.0484    8.3510  -10.7745 H   0  0  0  0  0  0  0  0  0  0  0  0
  -21.2314    7.2888   -8.5859 H   0  0  0  0  0  0  0  0  0  0  0  0
  -17.6652    9.7491   -9.3250 H   0  0  0  0  0  0  0  0  0  0  0  0
  -16.9803    8.4282  -10.3727 H   0  0  0  0  0  0  0  0  0  0  0  0
  -18.5372   10.3575  -11.9241 H   0  0  0  0  0  0  0  0  0  0  0  0
  -17.1831   11.1404  -11.0266 H   0  0  0  0  0  0  0  0  0  0  0  0
  -15.9066   10.4554  -12.7554 H   0  0  0  0  0  0  0  0  0  0  0  0
  -15.9984    8.8402  -11.9713 H   0  0  0  0  0  0  0  0  0  0  0  0
  -16.7915    8.2323  -14.0397 H   0  0  0  0  0  0  0  0  0  0  0  0
  -18.3427    8.8048  -13.3393 H   0  0  0  0  0  0  0  0  0  0  0  0
  -17.6574   11.1532  -14.2466 H   0  0  0  0  0  0  0  0  0  0  0  0
  -16.4474   10.2735  -15.2335 H   0  0  0  0  0  0  0  0  0  0  0  0
  1  2  2  0
  3  2  1  0
  2 18  1  0
  3  4  1  0
  3 15  1  0
  4  5  1  0
  4  8  1  6
  4  9  1  0
  5  6  1  1
  5  7  1  0
  5 13  1  0
  9 10  1  0
  9 11  2  0
 11 12  1  0
 11 13  1  0
 13 14  1  1
 13 15  1  0
 15 16  1  0
 16 17  2  0
 16 18  1  0
 18 19  1  0
 19 20  1  0
 20 21  1  0
 21 22  1  0
 22 23  1  0
 23 24  1  0
 24 25  1  0
 24 26  2  0
  3 27  1  1
 15 28  1  1
 19 29  1  0
 19 30  1  0
 20 31  1  0
 20 32  1  0
 21 33  1  0
 21 34  1  0
 22 35  1  0
 22 36  1  0
 23 37  1  0
 23 38  1  0
M  CHG  1  25  -1
M  END
>  <filename_input>  (16) 
6Z2C_Q5E_docked.sdf

>  <pdb_id>  (16) 
6Z2C_Q5E

>  <pose_rank>  (16) 
15

>  <num_atoms_heavy>  (16) 
26

>  <num_torsions>  (16) 
6

>  <pose>  (16) 
[-20.197577636549813, 9.271346763477748, -12.205182027063836, 3.118342626787646, 1.2230933845260574, -1.5027850076930966, -5.267675915105386, -6.221923950045367, -0.7329133427277723, -1.7157034095147252, 1.1736980864924993, -2.415471112501591]

>  <energy>  (16) 
-516.0048803428659

>  <inter_energy>  (16) 
-534.7589622053026

>  <intra_energy>  (16) 
20.241854785577438

>  <rmsd>  (16) 
3.21445

>  <sdf_rank>  (16) 
0

$$$$

     RDKit          3D

 38 40  0  0  0  0  0  0  0  0999 V2000
  -17.9895    9.9159   -9.5969 O   0  0  0  0  0  0  0  0  0  0  0  0
  -18.9931    9.8706  -10.3247 C   0  0  0  0  0  0  0  0  0  0  0  0
  -18.9302   10.2788  -11.6677 C   0  0  1  0  0  0  0  0  0  0  0  0
  -18.1532    9.3203  -12.6353 C   0  0  1  0  0  0  0  0  0  0  0  0
  -18.8596    9.5930  -13.9647 C   0  0  1  0  0  0  0  0  0  0  0  0
  -18.7246   11.3649  -14.6433 Cl  0  0  0  0  0  0  0  0  0  0  0  0
  -18.2077    8.5667  -15.3628 Cl  0  0  0  0  0  0  0  0  0  0  0  0
  -16.3618    9.5939  -12.6665 Cl  0  0  0  0  0  0  0  0  0  0  0  0
  -18.5543    7.9921  -12.4191 C   0  0  0  0  0  0  0  0  0  0  0  0
  -17.5197    6.8188  -11.6211 Cl  0  0  0  0  0  0  0  0  0  0  0  0
  -19.7895    7.8422  -12.8937 C   0  0  0  0  0  0  0  0  0  0  0  0
  -20.7299    6.4013  -12.8468 Cl  0  0  0  0  0  0  0  0  0  0  0  0
  -20.1821    9.1254  -13.3929 C   0  0  2  0  0  0  0  0  0  0  0  0
  -21.4847    9.1730  -14.6112 Cl  0  0  0  0  0  0  0  0  0  0  0  0
  -20.3260   10.1254  -12.1809 C   0  0  1  0  0  0  0  0  0  0  0  0
  -21.0231    9.6295  -11.0925 C   0  0  0  0  0  0  0  0  0  0  0  0
  -22.2262    9.3910  -11.1337 O   0  0  0  0  0  0  0  0  0  0  0  0
  -20.2465    9.5114   -9.9840 N   0  0  0  0  0  0  0  0  0  0  0  0
  -20.8392    9.0113   -8.7282 C   0  0  0  0  0  0  0  0  0  0  0  0
  -20.3895    7.5875   -8.3923 C   0  0  0  0  0  0  0  0  0  0  0  0
  -21.5636    6.7605   -7.9272 C   0  0  0  0  0  0  0  0  0  0  0  0
  -21.6064    5.4541   -8.6992 C   0  0  0  0  0  0  0  0  0  0  0  0
  -23.0518    5.1358   -9.0771 C   0  0  0  0  0  0  0  0  0  0  0  0
  -23.0929    3.7874   -9.7746 C   0  0  0  0  0  0  0  0  0  0  0  0
  -23.8871    2.9552   -9.3105 O   0  0  0  0  0  0  0  0  0  0  0  0
  -22.3363    3.6225  -10.7598 O   0  0  0  0  0  0  0  0  0  0  0  0
  -18.4536   11.2702  -11.6633 H   0  0  0  0  0  0  0  0  0  0  0  0
  -20.8509   11.0210  -12.5447 H   0  0  0  0  0  0  0  0  0  0  0  0
  -20.5395    9.6787   -7.9067 H   0  0  0  0  0  0  0  0  0  0  0  0
  -21.9313    8.9943   -8.8585 H   0  0  0  0  0  0  0  0  0  0  0  0
  -19.9527    7.1243   -9.2893 H   0  0  0  0  0  0  0  0  0  0  0  0
  -19.6419    7.6303   -7.5866 H   0  0  0  0  0  0  0  0  0  0  0  0
  -21.4582    6.5474   -6.8532 H   0  0  0  0  0  0  0  0  0  0  0  0
  -22.4950    7.3186   -8.1032 H   0  0  0  0  0  0  0  0  0  0  0  0
  -21.0002    5.5473   -9.6124 H   0  0  0  0  0  0  0  0  0  0  0  0
  -21.2031    4.6441   -8.0737 H   0  0  0  0  0  0  0  0  0  0  0  0
  -23.6717    5.1007   -8.1691 H   0  0  0  0  0  0  0  0  0  0  0  0
  -23.4413    5.9147   -9.7491 H   0  0  0  0  0  0  0  0  0  0  0  0
  1  2  2  0
  3  2  1  0
  2 18  1  0
  3  4  1  0
  3 15  1  0
  4  5  1  0
  4  8  1  6
  4  9  1  0
  5  6  1  6
  5  7  1  0
  5 13  1  0
  9 10  1  0
  9 11  2  0
 11 12  1  0
 11 13  1  0
 13 14  1  6
 13 15  1  0
 15 16  1  0
 16 17  2  0
 16 18  1  0
 18 19  1  0
 19 20  1  0
 20 21  1  0
 21 22  1  0
 22 23  1  0
 23 24  1  0
 24 25  1  0
 24 26  2  0
  3 27  1  1
 15 28  1  6
 19 29  1  0
 19 30  1  0
 20 31  1  0
 20 32  1  0
 21 33  1  0
 21 34  1  0
 22 35  1  0
 22 36  1  0
 23 37  1  0
 23 38  1  0
M  CHG  1  25  -1
M  END
>  <filename_input>  (17) 
6Z2C_Q5E_docked.sdf

>  <pdb_id>  (17) 
6Z2C_Q5E

>  <pose_rank>  (17) 
16

>  <num_atoms_heavy>  (17) 
26

>  <num_torsions>  (17) 
6

>  <pose>  (17) 
[-17.989504254566235, 9.915875282114866, -9.596901605994995, 2.786084326135709, 0.33769171599302833, 2.193818229738141, -6.555087067287422, -6.717341834167167, 6.026052547161507, 0.5109644938037444, 0.9277342421502195, 1.6036867586413388]

>  <energy>  (17) 
-504.07173735869384

>  <inter_energy>  (17) 
-504.7464764791573

>  <intra_energy>  (17) 
0.06281963515894419

>  <rmsd>  (17) 
6.62478

>  <sdf_rank>  (17) 
0

$$$$

     RDKit          3D

 38 40  0  0  0  0  0  0  0  0999 V2000
  -18.1577    6.2808  -15.0272 O   0  0  0  0  0  0  0  0  0  0  0  0
  -18.3034    6.4618  -13.8086 C   0  0  0  0  0  0  0  0  0  0  0  0
  -18.0180    7.7073  -13.2242 C   0  0  1  0  0  0  0  0  0  0  0  0
  -19.0342    8.8581  -13.5430 C   0  0  1  0  0  0  0  0  0  0  0  0
  -18.9085    9.7294  -12.2917 C   0  0  1  0  0  0  0  0  0  0  0  0
  -17.2026   10.5092  -11.9752 Cl  0  0  0  0  0  0  0  0  0  0  0  0
  -20.0358   11.1997  -12.3086 Cl  0  0  0  0  0  0  0  0  0  0  0  0
  -18.7041    9.7264  -15.0993 Cl  0  0  0  0  0  0  0  0  0  0  0  0
  -20.3498    8.3950  -13.3810 C   0  0  0  0  0  0  0  0  0  0  0  0
  -21.4094    8.0858  -14.7469 Cl  0  0  0  0  0  0  0  0  0  0  0  0
  -20.5843    8.2383  -12.0795 C   0  0  0  0  0  0  0  0  0  0  0  0
  -22.0460    7.6700  -11.3699 Cl  0  0  0  0  0  0  0  0  0  0  0  0
  -19.3663    8.5848  -11.4115 C   0  0  2  0  0  0  0  0  0  0  0  0
  -19.4746    9.0690   -9.6977 Cl  0  0  0  0  0  0  0  0  0  0  0  0
  -18.2649    7.5108  -11.7629 C   0  0  1  0  0  0  0  0  0  0  0  0
  -18.6825    6.1938  -11.6748 C   0  0  0  0  0  0  0  0  0  0  0  0
  -18.9644    5.6622  -10.6052 O   0  0  0  0  0  0  0  0  0  0  0  0
  -18.6722    5.5607  -12.8768 N   0  0  0  0  0  0  0  0  0  0  0  0
  -19.0750    4.1431  -12.9578 C   0  0  0  0  0  0  0  0  0  0  0  0
  -20.5822    3.9711  -13.1603 C   0  0  0  0  0  0  0  0  0  0  0  0
  -21.2665    3.7248  -11.8376 C   0  0  0  0  0  0  0  0  0  0  0  0
  -22.7619    3.5795  -12.0548 C   0  0  0  0  0  0  0  0  0  0  0  0
  -23.4791    3.6517  -10.7081 C   0  0  0  0  0  0  0  0  0  0  0  0
  -23.1967    5.0011  -10.0714 C   0  0  0  0  0  0  0  0  0  0  0  0
  -22.3092    5.0225   -9.2050 O   0  0  0  0  0  0  0  0  0  0  0  0
  -23.8679    5.9810  -10.4707 O   0  0  0  0  0  0  0  0  0  0  0  0
  -17.0148    7.9875  -13.5778 H   0  0  0  0  0  0  0  0  0  0  0  0
  -17.4247    7.6511  -11.0669 H   0  0  0  0  0  0  0  0  0  0  0  0
  -18.5500    3.6753  -13.8037 H   0  0  0  0  0  0  0  0  0  0  0  0
  -18.8102    3.6660  -12.0026 H   0  0  0  0  0  0  0  0  0  0  0  0
  -20.9931    4.8839  -13.6164 H   0  0  0  0  0  0  0  0  0  0  0  0
  -20.7574    3.1076  -13.8188 H   0  0  0  0  0  0  0  0  0  0  0  0
  -20.8710    2.8023  -11.3874 H   0  0  0  0  0  0  0  0  0  0  0  0
  -21.0767    4.5744  -11.1652 H   0  0  0  0  0  0  0  0  0  0  0  0
  -23.1190    4.3919  -12.7049 H   0  0  0  0  0  0  0  0  0  0  0  0
  -22.9717    2.6107  -12.5316 H   0  0  0  0  0  0  0  0  0  0  0  0
  -24.5623    3.5346  -10.8600 H   0  0  0  0  0  0  0  0  0  0  0  0
  -23.1187    2.8468  -10.0505 H   0  0  0  0  0  0  0  0  0  0  0  0
  1  2  2  0
  3  2  1  0
  2 18  1  0
  3  4  1  0
  3 15  1  0
  4  5  1  0
  4  8  1  6
  4  9  1  0
  5  6  1  1
  5  7  1  0
  5 13  1  0
  9 10  1  0
  9 11  2  0
 11 12  1  0
 11 13  1  0
 13 14  1  1
 13 15  1  0
 15 16  1  0
 16 17  2  0
 16 18  1  0
 18 19  1  0
 19 20  1  0
 20 21  1  0
 21 22  1  0
 22 23  1  0
 23 24  1  0
 24 25  1  0
 24 26  2  0
  3 27  1  1
 15 28  1  1
 19 29  1  0
 19 30  1  0
 20 31  1  0
 20 32  1  0
 21 33  1  0
 21 34  1  0
 22 35  1  0
 22 36  1  0
 23 37  1  0
 23 38  1  0
M  CHG  1  25  -1
M  END
>  <filename_input>  (18) 
6Z2C_Q5E_docked.sdf

>  <pdb_id>  (18) 
6Z2C_Q5E

>  <pose_rank>  (18) 
17

>  <num_atoms_heavy>  (18) 
26

>  <num_torsions>  (18) 
6

>  <pose>  (18) 
[-18.1577092327479, 6.280838349376417, -15.027165288627362, 2.5009003612754794, -3.0336672487364655, -0.4285250983012704, -0.6076561344845458, -6.022335417591625, 0.6052400032461737, 0.005811463011731473, -1.2123711684105893, 3.9380490964819796]

>  <energy>  (18) 
-490.21444809877556

>  <inter_energy>  (18) 
-530.6718401027101

>  <intra_energy>  (18) 
42.97727279434919

>  <rmsd>  (18) 
5.30778

>  <sdf_rank>  (18) 
0

$$$$

     RDKit          3D

 38 40  0  0  0  0  0  0  0  0999 V2000
  -17.8563    8.2610   -9.0742 O   0  0  0  0  0  0  0  0  0  0  0  0
  -18.7836    8.1838   -9.8946 C   0  0  0  0  0  0  0  0  0  0  0  0
  -18.8043    8.9977  -11.0398 C   0  0  1  0  0  0  0  0  0  0  0  0
  -17.7572    8.6380  -12.1502 C   0  0  1  0  0  0  0  0  0  0  0  0
  -18.4754    9.1198  -13.4122 C   0  0  1  0  0  0  0  0  0  0  0  0
  -18.8392   10.9840  -13.5155 Cl  0  0  0  0  0  0  0  0  0  0  0  0
  -17.5165    8.8015  -14.9653 Cl  0  0  0  0  0  0  0  0  0  0  0  0
  -16.1210    9.3728  -11.8899 Cl  0  0  0  0  0  0  0  0  0  0  0  0
  -17.7634    7.2536  -12.3850 C   0  0  0  0  0  0  0  0  0  0  0  0
  -16.4565    6.2073  -11.8549 Cl  0  0  0  0  0  0  0  0  0  0  0  0
  -18.8891    6.9394  -13.0233 C   0  0  0  0  0  0  0  0  0  0  0  0
  -19.3743    5.3627  -13.5148 Cl  0  0  0  0  0  0  0  0  0  0  0  0
  -19.6217    8.1616  -13.1627 C   0  0  2  0  0  0  0  0  0  0  0  0
  -20.8484    8.2449  -14.4555 Cl  0  0  0  0  0  0  0  0  0  0  0  0
  -20.0816    8.6499  -11.7345 C   0  0  1  0  0  0  0  0  0  0  0  0
  -20.6356    7.6683  -10.9306 C   0  0  0  0  0  0  0  0  0  0  0  0
  -21.7169    7.1446  -11.1805 O   0  0  0  0  0  0  0  0  0  0  0  0
  -19.8888    7.4159   -9.8240 N   0  0  0  0  0  0  0  0  0  0  0  0
  -20.3462    6.4052   -8.8505 C   0  0  0  0  0  0  0  0  0  0  0  0
  -21.6109    6.8376   -8.1049 C   0  0  0  0  0  0  0  0  0  0  0  0
  -22.7081    5.8183   -8.2940 C   0  0  0  0  0  0  0  0  0  0  0  0
  -22.0981    4.4569   -8.5752 C   0  0  0  0  0  0  0  0  0  0  0  0
  -23.1227    3.5810   -9.2938 C   0  0  0  0  0  0  0  0  0  0  0  0
  -23.0503    3.8607  -10.7847 C   0  0  0  0  0  0  0  0  0  0  0  0
  -24.0550    4.3810  -11.2933 O   0  0  0  0  0  0  0  0  0  0  0  0
  -21.9905    3.5559  -11.3797 O   0  0  0  0  0  0  0  0  0  0  0  0
  -18.6347   10.0256  -10.6866 H   0  0  0  0  0  0  0  0  0  0  0  0
  -20.8326    9.4412  -11.8756 H   0  0  0  0  0  0  0  0  0  0  0  0
  -20.5565    5.4685   -9.3875 H   0  0  0  0  0  0  0  0  0  0  0  0
  -19.5478    6.2746   -8.1052 H   0  0  0  0  0  0  0  0  0  0  0  0
  -21.3849    6.9322   -7.0326 H   0  0  0  0  0  0  0  0  0  0  0  0
  -21.9490    7.8042   -8.5068 H   0  0  0  0  0  0  0  0  0  0  0  0
  -23.3182    5.7640   -7.3803 H   0  0  0  0  0  0  0  0  0  0  0  0
  -23.3405    6.1168   -9.1430 H   0  0  0  0  0  0  0  0  0  0  0  0
  -21.2083    4.5776   -9.2107 H   0  0  0  0  0  0  0  0  0  0  0  0
  -21.8082    3.9809   -7.6269 H   0  0  0  0  0  0  0  0  0  0  0  0
  -22.8984    2.5206   -9.1058 H   0  0  0  0  0  0  0  0  0  0  0  0
  -24.1326    3.8070   -8.9210 H   0  0  0  0  0  0  0  0  0  0  0  0
  1  2  2  0
  3  2  1  0
  2 18  1  0
  3  4  1  0
  3 15  1  0
  4  5  1  0
  4  8  1  1
  4  9  1  0
  5  6  1  1
  5  7  1  0
  5 13  1  0
  9 10  1  0
  9 11  2  0
 11 12  1  0
 11 13  1  0
 13 14  1  6
 13 15  1  0
 15 16  1  0
 16 17  2  0
 16 18  1  0
 18 19  1  0
 19 20  1  0
 20 21  1  0
 21 22  1  0
 22 23  1  0
 23 24  1  0
 24 25  1  0
 24 26  2  0
  3 27  1  1
 15 28  1  6
 19 29  1  0
 19 30  1  0
 20 31  1  0
 20 32  1  0
 21 33  1  0
 21 34  1  0
 22 35  1  0
 22 36  1  0
 23 37  1  0
 23 38  1  0
M  CHG  1  25  -1
M  END
>  <filename_input>  (19) 
6Z2C_Q5E_docked.sdf

>  <pdb_id>  (19) 
6Z2C_Q5E

>  <pose_rank>  (19) 
18

>  <num_atoms_heavy>  (19) 
26

>  <num_torsions>  (19) 
6

>  <pose>  (19) 
[-17.85634843860803, 8.261046567822307, -9.074193812244692, -1.7128305857135064, -0.28342200105695287, -1.5172092724863253, 2.9509369652092796, 4.092253665726916, -2.066381910276189, 0.17026162341828674, -0.7825485289782783, 3.6725995853536646]

>  <energy>  (19) 
-558.3206680810855

>  <inter_energy>  (19) 
-565.3372093417506

>  <intra_energy>  (19) 
9.982549031111539

>  <rmsd>  (19) 
6.07463

>  <sdf_rank>  (19) 
0

$$$$

     RDKit          3D

 38 40  0  0  0  0  0  0  0  0999 V2000
  -20.2123    6.0400  -13.6849 O   0  0  0  0  0  0  0  0  0  0  0  0
  -20.1123    6.8326  -12.7358 C   0  0  0  0  0  0  0  0  0  0  0  0
  -18.9238    7.5487  -12.5151 C   0  0  1  0  0  0  0  0  0  0  0  0
  -18.6198    8.6963  -13.5394 C   0  0  1  0  0  0  0  0  0  0  0  0
  -17.8035    9.6628  -12.6790 C   0  0  1  0  0  0  0  0  0  0  0  0
  -16.1487    9.0048  -12.0105 Cl  0  0  0  0  0  0  0  0  0  0  0  0
  -17.2996   11.1993  -13.5836 Cl  0  0  0  0  0  0  0  0  0  0  0  0
  -17.7805    8.1397  -15.0463 Cl  0  0  0  0  0  0  0  0  0  0  0  0
  -19.7713    9.4731  -13.7453 C   0  0  0  0  0  0  0  0  0  0  0  0
  -20.6990    9.3973  -15.2343 Cl  0  0  0  0  0  0  0  0  0  0  0  0
  -19.9920   10.1980  -12.6502 C   0  0  0  0  0  0  0  0  0  0  0  0
  -21.2961   11.2935  -12.4005 Cl  0  0  0  0  0  0  0  0  0  0  0  0
  -18.9638    9.8383  -11.7211 C   0  0  2  0  0  0  0  0  0  0  0  0
  -18.5814   11.0010  -10.4231 Cl  0  0  0  0  0  0  0  0  0  0  0  0
  -19.1783    8.3406  -11.2729 C   0  0  1  0  0  0  0  0  0  0  0  0
  -20.4799    8.0116  -10.9349 C   0  0  0  0  0  0  0  0  0  0  0  0
  -21.0374    8.4661   -9.9406 O   0  0  0  0  0  0  0  0  0  0  0  0
  -21.0225    7.0937  -11.7769 N   0  0  0  0  0  0  0  0  0  0  0  0
  -22.4017    6.6203  -11.5487 C   0  0  0  0  0  0  0  0  0  0  0  0
  -22.5177    5.0955  -11.6125 C   0  0  0  0  0  0  0  0  0  0  0  0
  -22.4727    4.5055  -10.2239 C   0  0  0  0  0  0  0  0  0  0  0  0
  -21.0382    4.1706   -9.8570 C   0  0  0  0  0  0  0  0  0  0  0  0
  -20.6208    4.9940   -8.6400 C   0  0  0  0  0  0  0  0  0  0  0  0
  -19.1508    5.3525   -8.7687 C   0  0  0  0  0  0  0  0  0  0  0  0
  -18.4219    4.4951   -9.2904 O   0  0  0  0  0  0  0  0  0  0  0  0
  -18.7910    6.4777   -8.3505 O   0  0  0  0  0  0  0  0  0  0  0  0
  -18.1122    6.8065  -12.5353 H   0  0  0  0  0  0  0  0  0  0  0  0
  -18.5400    8.1577  -10.3959 H   0  0  0  0  0  0  0  0  0  0  0  0
  -22.7301    6.9574  -10.5545 H   0  0  0  0  0  0  0  0  0  0  0  0
  -23.0336    7.0366  -12.3470 H   0  0  0  0  0  0  0  0  0  0  0  0
  -23.4704    4.8243  -12.0908 H   0  0  0  0  0  0  0  0  0  0  0  0
  -21.6747    4.6978  -12.1966 H   0  0  0  0  0  0  0  0  0  0  0  0
  -22.8738    5.2339   -9.5038 H   0  0  0  0  0  0  0  0  0  0  0  0
  -23.0792    3.5881  -10.1978 H   0  0  0  0  0  0  0  0  0  0  0  0
  -20.9605    3.0993   -9.6196 H   0  0  0  0  0  0  0  0  0  0  0  0
  -20.3775    4.4061  -10.7043 H   0  0  0  0  0  0  0  0  0  0  0  0
  -21.2223    5.9137   -8.5926 H   0  0  0  0  0  0  0  0  0  0  0  0
  -20.7828    4.4101   -7.7219 H   0  0  0  0  0  0  0  0  0  0  0  0
  1  2  2  0
  3  2  1  0
  2 18  1  0
  3  4  1  0
  3 15  1  0
  4  5  1  0
  4  8  1  6
  4  9  1  0
  5  6  1  1
  5  7  1  0
  5 13  1  0
  9 10  1  0
  9 11  2  0
 11 12  1  0
 11 13  1  0
 13 14  1  1
 13 15  1  0
 15 16  1  0
 16 17  2  0
 16 18  1  0
 18 19  1  0
 19 20  1  0
 20 21  1  0
 21 22  1  0
 22 23  1  0
 23 24  1  0
 24 25  1  0
 24 26  2  0
  3 27  1  1
 15 28  1  1
 19 29  1  0
 19 30  1  0
 20 31  1  0
 20 32  1  0
 21 33  1  0
 21 34  1  0
 22 35  1  0
 22 36  1  0
 23 37  1  0
 23 38  1  0
M  CHG  1  25  -1
M  END
>  <filename_input>  (20) 
6Z2C_Q5E_docked.sdf

>  <pdb_id>  (20) 
6Z2C_Q5E

>  <pose_rank>  (20) 
19

>  <num_atoms_heavy>  (20) 
26

>  <num_torsions>  (20) 
6

>  <pose>  (20) 
[-20.212252016245586, 6.039960724953094, -13.684894675649781, 1.1794223779858688, -3.381986592606605, 1.2377034390931103, 1.831449840915243, -2.64410261578719, 2.1688531424003554, -1.298614019559068, 1.4725528026016583, 5.050242045884357]

>  <energy>  (20) 
-492.5296073631248

>  <inter_energy>  (20) 
-490.8304462482927

>  <intra_energy>  (20) 
6.6478289966851705

>  <rmsd>  (20) 
5.86463

>  <sdf_rank>  (20) 
0

$$$$

     RDKit          3D

 38 40  0  0  0  0  0  0  0  0999 V2000
  -21.8044    8.0041  -12.6939 O   0  0  0  0  0  0  0  0  0  0  0  0
  -20.8425    7.6163  -12.0134 C   0  0  0  0  0  0  0  0  0  0  0  0
  -21.0056    7.2773  -10.6596 C   0  0  1  0  0  0  0  0  0  0  0  0
  -21.7758    5.9403  -10.3802 C   0  0  1  0  0  0  0  0  0  0  0  0
  -21.1632    5.5103   -9.0458 C   0  0  1  0  0  0  0  0  0  0  0  0
  -21.4442    6.6807   -7.5729 Cl  0  0  0  0  0  0  0  0  0  0  0  0
  -21.8288    3.8975   -8.4221 Cl  0  0  0  0  0  0  0  0  0  0  0  0
  -23.5795    6.1167  -10.3568 Cl  0  0  0  0  0  0  0  0  0  0  0  0
  -21.2827    4.9203  -11.2098 C   0  0  0  0  0  0  0  0  0  0  0  0
  -22.1971    4.2973  -12.5734 Cl  0  0  0  0  0  0  0  0  0  0  0  0
  -20.0693    4.5779  -10.7811 C   0  0  0  0  0  0  0  0  0  0  0  0
  -19.0414    3.3872  -11.4800 Cl  0  0  0  0  0  0  0  0  0  0  0  0
  -19.7845    5.4331   -9.6687 C   0  0  2  0  0  0  0  0  0  0  0  0
  -18.5579    4.8810   -8.4967 Cl  0  0  0  0  0  0  0  0  0  0  0  0
  -19.6341    6.9159  -10.1868 C   0  0  1  0  0  0  0  0  0  0  0  0
  -18.8479    7.0642  -11.3166 C   0  0  0  0  0  0  0  0  0  0  0  0
  -17.6367    6.8670  -11.3069 O   0  0  0  0  0  0  0  0  0  0  0  0
  -19.5523    7.5122  -12.3885 N   0  0  0  0  0  0  0  0  0  0  0  0
  -18.8604    7.7402  -13.6721 C   0  0  0  0  0  0  0  0  0  0  0  0
  -18.1544    9.0971  -13.7262 C   0  0  0  0  0  0  0  0  0  0  0  0
  -19.1540   10.2014  -13.9706 C   0  0  0  0  0  0  0  0  0  0  0  0
  -18.4246   11.4736  -14.3630 C   0  0  0  0  0  0  0  0  0  0  0  0
  -18.8919   11.9195  -15.7473 C   0  0  0  0  0  0  0  0  0  0  0  0
  -17.7686   11.6915  -16.7434 C   0  0  0  0  0  0  0  0  0  0  0  0
  -17.2554   10.5621  -16.7407 O   0  0  0  0  0  0  0  0  0  0  0  0
  -17.4542   12.6478  -17.4897 O   0  0  0  0  0  0  0  0  0  0  0  0
  -21.5409    8.1194  -10.1966 H   0  0  0  0  0  0  0  0  0  0  0  0
  -19.1863    7.5109   -9.3772 H   0  0  0  0  0  0  0  0  0  0  0  0
  -18.1115    6.9473  -13.8146 H   0  0  0  0  0  0  0  0  0  0  0  0
  -19.6202    7.7277  -14.4675 H   0  0  0  0  0  0  0  0  0  0  0  0
  -17.6419    9.2773  -12.7697 H   0  0  0  0  0  0  0  0  0  0  0  0
  -17.4253    9.0872  -14.5499 H   0  0  0  0  0  0  0  0  0  0  0  0
  -19.8351    9.9052  -14.7821 H   0  0  0  0  0  0  0  0  0  0  0  0
  -19.7309   10.3808  -13.0514 H   0  0  0  0  0  0  0  0  0  0  0  0
  -18.6438   12.2635  -13.6296 H   0  0  0  0  0  0  0  0  0  0  0  0
  -17.3412   11.2846  -14.3840 H   0  0  0  0  0  0  0  0  0  0  0  0
  -19.7741   11.3339  -16.0454 H   0  0  0  0  0  0  0  0  0  0  0  0
  -19.1588   12.9864  -15.7246 H   0  0  0  0  0  0  0  0  0  0  0  0
  1  2  2  0
  3  2  1  0
  2 18  1  0
  3  4  1  0
  3 15  1  0
  4  5  1  0
  4  8  1  1
  4  9  1  0
  5  6  1  1
  5  7  1  0
  5 13  1  0
  9 10  1  0
  9 11  2  0
 11 12  1  0
 11 13  1  0
 13 14  1  1
 13 15  1  0
 15 16  1  0
 16 17  2  0
 16 18  1  0
 18 19  1  0
 19 20  1  0
 20 21  1  0
 21 22  1  0
 22 23  1  0
 23 24  1  0
 24 25  1  0
 24 26  2  0
  3 27  1  1
 15 28  1  1
 19 29  1  0
 19 30  1  0
 20 31  1  0
 20 32  1  0
 21 33  1  0
 21 34  1  0
 22 35  1  0
 22 36  1  0
 23 37  1  0
 23 38  1  0
M  CHG  1  25  -1
M  END
>  <filename_input>  (21) 
6Z2C_Q5E_docked.sdf

>  <pdb_id>  (21) 
6Z2C_Q5E

>  <pose_rank>  (21) 
20

>  <num_atoms_heavy>  (21) 
26

>  <num_torsions>  (21) 
6

>  <pose>  (21) 
[-21.804427736825005, 8.00411756672023, -12.693940536988716, -1.60752461802976, -0.04977525808977, 2.1161701502055346, -3.5789336307515063, 0.5968792505265614, 0.865552351032931, -1.2566896387462367, 2.106661687637258, 0.2738061492087906]

>  <energy>  (21) 
-574.5042650546795

>  <inter_energy>  (21) 
-569.3807007140466

>  <intra_energy>  (21) 
4.789352523911292

>  <rmsd>  (21) 
3.28334

>  <sdf_rank>  (21) 
0

$$$$

     RDKit          3D

 38 40  0  0  0  0  0  0  0  0999 V2000
  -22.0925    9.1766  -11.9923 O   0  0  0  0  0  0  0  0  0  0  0  0
  -20.9181    8.8557  -11.7542 C   0  0  0  0  0  0  0  0  0  0  0  0
  -20.0097    8.6136  -12.7984 C   0  0  1  0  0  0  0  0  0  0  0  0
  -19.5306    9.8786  -13.5915 C   0  0  1  0  0  0  0  0  0  0  0  0
  -18.1401    9.4386  -14.0537 C   0  0  1  0  0  0  0  0  0  0  0  0
  -18.0755    7.9402  -15.2236 Cl  0  0  0  0  0  0  0  0  0  0  0  0
  -17.2403   10.7458  -15.0100 Cl  0  0  0  0  0  0  0  0  0  0  0  0
  -20.6448   10.3776  -14.9312 Cl  0  0  0  0  0  0  0  0  0  0  0  0
  -19.1734   10.8994  -12.6959 C   0  0  0  0  0  0  0  0  0  0  0  0
  -20.1620   12.3323  -12.4654 Cl  0  0  0  0  0  0  0  0  0  0  0  0
  -18.0319   10.5579  -12.1012 C   0  0  0  0  0  0  0  0  0  0  0  0
  -17.1952   11.4696  -10.9045 Cl  0  0  0  0  0  0  0  0  0  0  0  0
  -17.6834    9.2695  -12.6194 C   0  0  2  0  0  0  0  0  0  0  0  0
  -15.9712    8.7773  -12.5228 Cl  0  0  0  0  0  0  0  0  0  0  0  0
  -18.7409    8.2114  -12.1175 C   0  0  1  0  0  0  0  0  0  0  0  0
  -19.0525    8.2887  -10.7709 C   0  0  0  0  0  0  0  0  0  0  0  0
  -18.2449    8.0080   -9.8906 O   0  0  0  0  0  0  0  0  0  0  0  0
  -20.3482    8.6345  -10.5532 N   0  0  0  0  0  0  0  0  0  0  0  0
  -20.8506    8.7462   -9.1698 C   0  0  0  0  0  0  0  0  0  0  0  0
  -20.6132    7.4734   -8.3538 C   0  0  0  0  0  0  0  0  0  0  0  0
  -21.9289    6.8628   -7.9360 C   0  0  0  0  0  0  0  0  0  0  0  0
  -22.4756    6.0056   -9.0633 C   0  0  0  0  0  0  0  0  0  0  0  0
  -21.6458    4.7281   -9.1769 C   0  0  0  0  0  0  0  0  0  0  0  0
  -22.3790    3.7425  -10.0697 C   0  0  0  0  0  0  0  0  0  0  0  0
  -23.4398    3.2818   -9.6210 O   0  0  0  0  0  0  0  0  0  0  0  0
  -21.8672    3.4785  -11.1826 O   0  0  0  0  0  0  0  0  0  0  0  0
  -20.5107    7.9127  -13.4824 H   0  0  0  0  0  0  0  0  0  0  0  0
  -18.3346    7.2091  -12.3182 H   0  0  0  0  0  0  0  0  0  0  0  0
  -20.3367    9.5833   -8.6747 H   0  0  0  0  0  0  0  0  0  0  0  0
  -21.9369    8.9114   -9.2218 H   0  0  0  0  0  0  0  0  0  0  0  0
  -20.0557    6.7492   -8.9660 H   0  0  0  0  0  0  0  0  0  0  0  0
  -20.0367    7.7297   -7.4527 H   0  0  0  0  0  0  0  0  0  0  0  0
  -21.7753    6.2386   -7.0433 H   0  0  0  0  0  0  0  0  0  0  0  0
  -22.6463    7.6645   -7.7069 H   0  0  0  0  0  0  0  0  0  0  0  0
  -23.5232    5.7452   -8.8515 H   0  0  0  0  0  0  0  0  0  0  0  0
  -22.4218    6.5643  -10.0093 H   0  0  0  0  0  0  0  0  0  0  0  0
  -20.6644    4.9632   -9.6146 H   0  0  0  0  0  0  0  0  0  0  0  0
  -21.4993    4.2891   -8.1790 H   0  0  0  0  0  0  0  0  0  0  0  0
  1  2  2  0
  3  2  1  0
  2 18  1  0
  3  4  1  0
  3 15  1  0
  4  5  1  0
  4  8  1  6
  4  9  1  0
  5  6  1  6
  5  7  1  0
  5 13  1  0
  9 10  1  0
  9 11  2  0
 11 12  1  0
 11 13  1  0
 13 14  1  6
 13 15  1  0
 15 16  1  0
 16 17  2  0
 16 18  1  0
 18 19  1  0
 19 20  1  0
 20 21  1  0
 21 22  1  0
 22 23  1  0
 23 24  1  0
 24 25  1  0
 24 26  2  0
  3 27  1  6
 15 28  1  6
 19 29  1  0
 19 30  1  0
 20 31  1  0
 20 32  1  0
 21 33  1  0
 21 34  1  0
 22 35  1  0
 22 36  1  0
 23 37  1  0
 23 38  1  0
M  CHG  1  25  -1
M  END
>  <filename_input>  (22) 
6Z2C_Q5E_docked.sdf

>  <pdb_id>  (22) 
6Z2C_Q5E

>  <pose_rank>  (22) 
21

>  <num_atoms_heavy>  (22) 
26

>  <num_torsions>  (22) 
6

>  <pose>  (22) 
[-22.092485505949067, 9.17656484731634, -11.99230241691329, 0.23904356836967983, 3.631218043720963, -0.07968465620120685, -3.0986625533725585, -0.09468951839756651, -1.0625418763943109, -2.0954087505457117, 0.6410805635143115, -1.7907792285045356]

>  <energy>  (22) 
-431.2160631983318

>  <inter_energy>  (22) 
-452.4645692149886

>  <intra_energy>  (22) 
15.839345836842194

>  <rmsd>  (22) 
6.57891

>  <sdf_rank>  (22) 
0

$$$$

     RDKit          3D

 38 40  0  0  0  0  0  0  0  0999 V2000
  -16.8448    9.2192  -11.1812 O   0  0  0  0  0  0  0  0  0  0  0  0
  -18.0617    9.4600  -11.1831 C   0  0  0  0  0  0  0  0  0  0  0  0
  -18.5938   10.4848  -11.9837 C   0  0  1  0  0  0  0  0  0  0  0  0
  -18.6213   10.2000  -13.5254 C   0  0  1  0  0  0  0  0  0  0  0  0
  -19.8221   11.0385  -13.9677 C   0  0  1  0  0  0  0  0  0  0  0  0
  -19.6792   12.9177  -13.7096 Cl  0  0  0  0  0  0  0  0  0  0  0  0
  -20.1836   10.8987  -15.7795 Cl  0  0  0  0  0  0  0  0  0  0  0  0
  -17.0724   10.5973  -14.3787 Cl  0  0  0  0  0  0  0  0  0  0  0  0
  -19.1266    8.9123  -13.7665 C   0  0  0  0  0  0  0  0  0  0  0  0
  -18.1014    7.5861  -14.2898 Cl  0  0  0  0  0  0  0  0  0  0  0  0
  -20.4339    8.9182  -13.5128 C   0  0  0  0  0  0  0  0  0  0  0  0
  -21.5010    7.5733  -13.6378 Cl  0  0  0  0  0  0  0  0  0  0  0  0
  -20.7470   10.2431  -13.0696 C   0  0  2  0  0  0  0  0  0  0  0  0
  -22.4408   10.7835  -13.2177 Cl  0  0  0  0  0  0  0  0  0  0  0  0
  -20.0562   10.4938  -11.6733 C   0  0  1  0  0  0  0  0  0  0  0  0
  -20.2030    9.4681  -10.7551 C   0  0  0  0  0  0  0  0  0  0  0  0
  -21.2856    9.1849  -10.2513 O   0  0  0  0  0  0  0  0  0  0  0  0
  -19.0212    8.8787  -10.4364 N   0  0  0  0  0  0  0  0  0  0  0  0
  -18.9976    7.7748   -9.4569 C   0  0  0  0  0  0  0  0  0  0  0  0
  -19.3408    6.4228  -10.0869 C   0  0  0  0  0  0  0  0  0  0  0  0
  -19.3548    5.3403   -9.0350 C   0  0  0  0  0  0  0  0  0  0  0  0
  -20.6049    4.4930   -9.1900 C   0  0  0  0  0  0  0  0  0  0  0  0
  -21.7839    5.2030   -8.5274 C   0  0  0  0  0  0  0  0  0  0  0  0
  -22.9414    5.2564   -9.5089 C   0  0  0  0  0  0  0  0  0  0  0  0
  -23.6047    4.2151   -9.6302 O   0  0  0  0  0  0  0  0  0  0  0  0
  -23.1417    6.3381  -10.1089 O   0  0  0  0  0  0  0  0  0  0  0  0
  -17.9848   11.3780  -11.7806 H   0  0  0  0  0  0  0  0  0  0  0  0
  -20.4935   11.4058  -11.2410 H   0  0  0  0  0  0  0  0  0  0  0  0
  -17.9905    7.7139   -9.0187 H   0  0  0  0  0  0  0  0  0  0  0  0
  -19.7595    7.9901   -8.6933 H   0  0  0  0  0  0  0  0  0  0  0  0
  -20.3332    6.4838  -10.5574 H   0  0  0  0  0  0  0  0  0  0  0  0
  -18.5790    6.1772  -10.8414 H   0  0  0  0  0  0  0  0  0  0  0  0
  -18.4650    4.7044   -9.1528 H   0  0  0  0  0  0  0  0  0  0  0  0
  -19.3490    5.8021   -8.0366 H   0  0  0  0  0  0  0  0  0  0  0  0
  -20.8185    4.3462  -10.2591 H   0  0  0  0  0  0  0  0  0  0  0  0
  -20.4480    3.5153   -8.7109 H   0  0  0  0  0  0  0  0  0  0  0  0
  -22.0889    4.6501   -7.6267 H   0  0  0  0  0  0  0  0  0  0  0  0
  -21.4909    6.2239   -8.2412 H   0  0  0  0  0  0  0  0  0  0  0  0
  1  2  2  0
  3  2  1  0
  2 18  1  0
  3  4  1  0
  3 15  1  0
  4  5  1  0
  4  8  1  6
  4  9  1  0
  5  6  1  1
  5  7  1  0
  5 13  1  0
  9 10  1  0
  9 11  2  0
 11 12  1  0
 11 13  1  0
 13 14  1  1
 13 15  1  0
 15 16  1  0
 16 17  2  0
 16 18  1  0
 18 19  1  0
 19 20  1  0
 20 21  1  0
 21 22  1  0
 22 23  1  0
 23 24  1  0
 24 25  1  0
 24 26  2  0
  3 27  1  6
 15 28  1  1
 19 29  1  0
 19 30  1  0
 20 31  1  0
 20 32  1  0
 21 33  1  0
 21 34  1  0
 22 35  1  0
 22 36  1  0
 23 37  1  0
 23 38  1  0
M  CHG  1  25  -1
M  END
>  <filename_input>  (23) 
6Z2C_Q5E_docked.sdf

>  <pdb_id>  (23) 
6Z2C_Q5E

>  <pose_rank>  (23) 
22

>  <num_atoms_heavy>  (23) 
26

>  <num_torsions>  (23) 
6

>  <pose>  (23) 
[-16.84476080533924, 9.219180856072532, -11.181179274753143, 3.5508707857027244, -0.664922335033696, 1.611051361859816, 74.70260798454424, -107.97188886735165, 175.73097551034527, 240.26650012184783, 106.7997826488748, -5.517051324762958]

>  <energy>  (23) 
-478.3997653630911

>  <inter_energy>  (23) 
-484.2432022572395

>  <intra_energy>  (23) 
1.4256486875857168

>  <rmsd>  (23) 
6.47699

>  <sdf_rank>  (23) 
0

$$$$

     RDKit          3D

 38 40  0  0  0  0  0  0  0  0999 V2000
  -18.6848    8.8129  -14.4205 O   0  0  0  0  0  0  0  0  0  0  0  0
  -19.4811    7.9046  -14.1381 C   0  0  0  0  0  0  0  0  0  0  0  0
  -19.0390    6.5803  -13.9790 C   0  0  1  0  0  0  0  0  0  0  0  0
  -18.2081    6.2909  -12.6811 C   0  0  1  0  0  0  0  0  0  0  0  0
  -18.5279    4.8145  -12.4389 C   0  0  1  0  0  0  0  0  0  0  0  0
  -17.9686    3.5980  -13.7901 Cl  0  0  0  0  0  0  0  0  0  0  0  0
  -17.7246    4.1333  -10.9145 Cl  0  0  0  0  0  0  0  0  0  0  0  0
  -16.4407    6.6612  -12.8364 Cl  0  0  0  0  0  0  0  0  0  0  0  0
  -18.8453    6.8599  -11.5667 C   0  0  0  0  0  0  0  0  0  0  0  0
  -18.2204    8.2876  -10.7575 Cl  0  0  0  0  0  0  0  0  0  0  0  0
  -19.9399    6.1502  -11.2992 C   0  0  0  0  0  0  0  0  0  0  0  0
  -21.0713    6.4602  -10.0395 Cl  0  0  0  0  0  0  0  0  0  0  0  0
  -20.0035    5.1258  -12.2974 C   0  0  2  0  0  0  0  0  0  0  0  0
  -20.9557    3.6648  -11.9204 Cl  0  0  0  0  0  0  0  0  0  0  0  0
  -20.2790    5.7930  -13.7005 C   0  0  1  0  0  0  0  0  0  0  0  0
  -21.2822    6.7471  -13.7081 C   0  0  0  0  0  0  0  0  0  0  0  0
  -22.4626    6.4634  -13.5290 O   0  0  0  0  0  0  0  0  0  0  0  0
  -20.8190    7.9901  -14.0016 N   0  0  0  0  0  0  0  0  0  0  0  0
  -21.7625    9.1233  -14.0666 C   0  0  0  0  0  0  0  0  0  0  0  0
  -21.3720   10.2677  -13.1284 C   0  0  0  0  0  0  0  0  0  0  0  0
  -21.9990   11.5619  -13.5872 C   0  0  0  0  0  0  0  0  0  0  0  0
  -20.9194   12.5022  -14.0920 C   0  0  0  0  0  0  0  0  0  0  0  0
  -19.5566   12.0223  -13.5960 C   0  0  0  0  0  0  0  0  0  0  0  0
  -18.4689   12.7114  -14.4010 C   0  0  0  0  0  0  0  0  0  0  0  0
  -17.9784   13.7329  -13.8963 O   0  0  0  0  0  0  0  0  0  0  0  0
  -18.1471   12.1973  -15.4975 O   0  0  0  0  0  0  0  0  0  0  0  0
  -18.4329    6.3521  -14.8681 H   0  0  0  0  0  0  0  0  0  0  0  0
  -20.5604    4.9945  -14.4028 H   0  0  0  0  0  0  0  0  0  0  0  0
  -21.7844    9.5049  -15.0981 H   0  0  0  0  0  0  0  0  0  0  0  0
  -22.7493    8.7543  -13.7500 H   0  0  0  0  0  0  0  0  0  0  0  0
  -21.7203   10.0370  -12.1109 H   0  0  0  0  0  0  0  0  0  0  0  0
  -20.2776   10.3786  -13.1374 H   0  0  0  0  0  0  0  0  0  0  0  0
  -22.7125   11.3552  -14.3985 H   0  0  0  0  0  0  0  0  0  0  0  0
  -22.5255   12.0311  -12.7431 H   0  0  0  0  0  0  0  0  0  0  0  0
  -20.9267   12.5128  -15.1919 H   0  0  0  0  0  0  0  0  0  0  0  0
  -21.1109   13.5178  -13.7153 H   0  0  0  0  0  0  0  0  0  0  0  0
  -19.4424   12.2726  -12.5309 H   0  0  0  0  0  0  0  0  0  0  0  0
  -19.4778   10.9322  -13.7201 H   0  0  0  0  0  0  0  0  0  0  0  0
  1  2  2  0
  3  2  1  0
  2 18  1  0
  3  4  1  0
  3 15  1  0
  4  5  1  0
  4  8  1  6
  4  9  1  0
  5  6  1  6
  5  7  1  0
  5 13  1  0
  9 10  1  0
  9 11  2  0
 11 12  1  0
 11 13  1  0
 13 14  1  1
 13 15  1  0
 15 16  1  0
 16 17  2  0
 16 18  1  0
 18 19  1  0
 19 20  1  0
 20 21  1  0
 21 22  1  0
 22 23  1  0
 23 24  1  0
 24 25  1  0
 24 26  2  0
  3 27  1  6
 15 28  1  6
 19 29  1  0
 19 30  1  0
 20 31  1  0
 20 32  1  0
 21 33  1  0
 21 34  1  0
 22 35  1  0
 22 36  1  0
 23 37  1  0
 23 38  1  0
M  CHG  1  25  -1
M  END
>  <filename_input>  (24) 
6Z2C_Q5E_docked.sdf

>  <pdb_id>  (24) 
6Z2C_Q5E

>  <pose_rank>  (24) 
23

>  <num_atoms_heavy>  (24) 
26

>  <num_torsions>  (24) 
6

>  <pose>  (24) 
[-18.684830087204595, 8.81294187404358, -14.420538021685473, 1.2286399414938443, 1.5014256647674742, 0.8252573059899745, 0.02039360009866073, 4.706031038272812, 1.817036139734343, -3.6533082362617018, 0.5950061579450555, 1.0572772062870217]

>  <energy>  (24) 
-473.3558571754579

>  <inter_energy>  (24) 
-478.94809397178375

>  <intra_energy>  (24) 
3.779633544170414

>  <rmsd>  (24) 
4.7402

>  <sdf_rank>  (24) 
0

$$$$

     RDKit          3D

 38 40  0  0  0  0  0  0  0  0999 V2000
  -21.9800    8.1175  -11.6926 O   0  0  0  0  0  0  0  0  0  0  0  0
  -20.7653    8.2742  -11.4956 C   0  0  0  0  0  0  0  0  0  0  0  0
  -19.8253    7.9536  -12.4895 C   0  0  1  0  0  0  0  0  0  0  0  0
  -19.7774    8.9240  -13.7203 C   0  0  1  0  0  0  0  0  0  0  0  0
  -18.3184    8.7858  -14.1594 C   0  0  1  0  0  0  0  0  0  0  0  0
  -17.7725    7.0583  -14.7390 Cl  0  0  0  0  0  0  0  0  0  0  0  0
  -17.8854    9.8604  -15.6053 Cl  0  0  0  0  0  0  0  0  0  0  0  0
  -20.9902    8.5413  -15.0116 Cl  0  0  0  0  0  0  0  0  0  0  0  0
  -19.7696   10.2574  -13.2799 C   0  0  0  0  0  0  0  0  0  0  0  0
  -21.1674   11.3074  -13.4458 Cl  0  0  0  0  0  0  0  0  0  0  0  0
  -18.5801   10.5159  -12.7398 C   0  0  0  0  0  0  0  0  0  0  0  0
  -18.0839   12.0067  -12.0367 Cl  0  0  0  0  0  0  0  0  0  0  0  0
  -17.8344    9.2962  -12.8178 C   0  0  2  0  0  0  0  0  0  0  0  0
  -16.0551    9.4120  -12.7557 Cl  0  0  0  0  0  0  0  0  0  0  0  0
  -18.4960    8.2283  -11.8630 C   0  0  1  0  0  0  0  0  0  0  0  0
  -18.8185    8.6931  -10.5994 C   0  0  0  0  0  0  0  0  0  0  0  0
  -17.9652    9.0088   -9.7759 O   0  0  0  0  0  0  0  0  0  0  0  0
  -20.1570    8.6878  -10.3665 N   0  0  0  0  0  0  0  0  0  0  0  0
  -20.6713    9.1389   -9.0586 C   0  0  0  0  0  0  0  0  0  0  0  0
  -20.4029    8.1281   -7.9412 C   0  0  0  0  0  0  0  0  0  0  0  0
  -21.5091    7.1027   -7.8820 C   0  0  0  0  0  0  0  0  0  0  0  0
  -21.7777    6.5596   -9.2739 C   0  0  0  0  0  0  0  0  0  0  0  0
  -21.3413    5.0973   -9.3404 C   0  0  0  0  0  0  0  0  0  0  0  0
  -22.5713    4.2115   -9.2466 C   0  0  0  0  0  0  0  0  0  0  0  0
  -23.6578    4.7957   -9.1169 O   0  0  0  0  0  0  0  0  0  0  0  0
  -22.3983    2.9723   -9.3149 O   0  0  0  0  0  0  0  0  0  0  0  0
  -20.0727    6.9362  -12.8266 H   0  0  0  0  0  0  0  0  0  0  0  0
  -17.7882    7.3938  -11.7507 H   0  0  0  0  0  0  0  0  0  0  0  0
  -20.1847   10.0903   -8.7977 H   0  0  0  0  0  0  0  0  0  0  0  0
  -21.7615    9.2531   -9.1503 H   0  0  0  0  0  0  0  0  0  0  0  0
  -19.4471    7.6193   -8.1347 H   0  0  0  0  0  0  0  0  0  0  0  0
  -20.3595    8.6618   -6.9803 H   0  0  0  0  0  0  0  0  0  0  0  0
  -21.2081    6.2779   -7.2194 H   0  0  0  0  0  0  0  0  0  0  0  0
  -22.4231    7.5746   -7.4922 H   0  0  0  0  0  0  0  0  0  0  0  0
  -22.8528    6.6322   -9.4950 H   0  0  0  0  0  0  0  0  0  0  0  0
  -21.2120    7.1461  -10.0128 H   0  0  0  0  0  0  0  0  0  0  0  0
  -20.8230    4.9096  -10.2923 H   0  0  0  0  0  0  0  0  0  0  0  0
  -20.6575    4.8744   -8.5081 H   0  0  0  0  0  0  0  0  0  0  0  0
  1  2  2  0
  3  2  1  0
  2 18  1  0
  3  4  1  0
  3 15  1  0
  4  5  1  0
  4  8  1  6
  4  9  1  0
  5  6  1  6
  5  7  1  0
  5 13  1  0
  9 10  1  0
  9 11  2  0
 11 12  1  0
 11 13  1  0
 13 14  1  6
 13 15  1  0
 15 16  1  0
 16 17  2  0
 16 18  1  0
 18 19  1  0
 19 20  1  0
 20 21  1  0
 21 22  1  0
 22 23  1  0
 23 24  1  0
 24 25  1  0
 24 26  2  0
  3 27  1  6
 15 28  1  1
 19 29  1  0
 19 30  1  0
 20 31  1  0
 20 32  1  0
 21 33  1  0
 21 34  1  0
 22 35  1  0
 22 36  1  0
 23 37  1  0
 23 38  1  0
M  CHG  1  25  -1
M  END
>  <filename_input>  (25) 
6Z2C_Q5E_docked.sdf

>  <pdb_id>  (25) 
6Z2C_Q5E

>  <pose_rank>  (25) 
24

>  <num_atoms_heavy>  (25) 
26

>  <num_torsions>  (25) 
6

>  <pose>  (25) 
[-21.980035711142573, 8.117462669256367, -11.692578725036885, -0.18489966708770328, 3.5339257577650014, -0.9014379058597344, -3.418077474164854, 0.4343620827298239, -1.6690302935023278, -1.4118202195833502, -0.49006712487928056, -0.6305959062809628]

>  <energy>  (25) 
-402.2777738602281

>  <inter_energy>  (25) 
-464.2766638475612

>  <intra_energy>  (25) 
61.86078968469603

>  <rmsd>  (25) 
6.41608

>  <sdf_rank>  (25) 
0

$$$$

     RDKit          3D

 38 40  0  0  0  0  0  0  0  0999 V2000
  -17.6490    4.4260   -9.9240 O   0  0  0  0  0  0  0  0  0  0  0  0
  -18.6010    4.2230  -10.6930 C   0  0  0  0  0  0  0  0  0  0  0  0
  -19.9190    4.1610  -10.2100 C   0  0  1  0  0  0  0  0  0  0  0  0
  -20.5430    5.5260   -9.7560 C   0  0  1  0  0  0  0  0  0  0  0  0
  -22.0310    5.2800  -10.0130 C   0  0  1  0  0  0  0  0  0  0  0  0
  -22.8420    3.8870   -9.0030 Cl  0  0  0  0  0  0  0  0  0  0  0  0
  -23.0930    6.7460   -9.6180 Cl  0  0  0  0  0  0  0  0  0  0  0  0
  -20.1420    5.9920   -8.0510 Cl  0  0  0  0  0  0  0  0  0  0  0  0
  -20.2930    6.5130  -10.7230 C   0  0  0  0  0  0  0  0  0  0  0  0
  -19.1320    7.8050  -10.4650 Cl  0  0  0  0  0  0  0  0  0  0  0  0
  -21.0500    6.2600  -11.7890 C   0  0  0  0  0  0  0  0  0  0  0  0
  -21.0890    7.1710  -13.2490 Cl  0  0  0  0  0  0  0  0  0  0  0  0
  -21.7710    5.0600  -11.4890 C   0  0  2  0  0  0  0  0  0  0  0  0
  -23.2810    4.7580  -12.3900 Cl  0  0  0  0  0  0  0  0  0  0  0  0
  -20.7540    3.8560  -11.4120 C   0  0  1  0  0  0  0  0  0  0  0  0
  -19.8340    3.8000  -12.4450 C   0  0  0  0  0  0  0  0  0  0  0  0
  -20.1570    3.5490  -13.6020 O   0  0  0  0  0  0  0  0  0  0  0  0
  -18.5570    3.9810  -12.0180 N   0  0  0  0  0  0  0  0  0  0  0  0
  -17.4490    3.9350  -12.9920 C   0  0  0  0  0  0  0  0  0  0  0  0
  -16.6130    5.2170  -12.9920 C   0  0  0  0  0  0  0  0  0  0  0  0
  -16.8100    5.9740  -14.2830 C   0  0  0  0  0  0  0  0  0  0  0  0
  -16.7790    7.4670  -14.0100 C   0  0  0  0  0  0  0  0  0  0  0  0
  -17.2830    8.2180  -15.2410 C   0  0  0  0  0  0  0  0  0  0  0  0
  -18.3420    9.2170  -14.8090 C   0  0  0  0  0  0  0  0  0  0  0  0
  -18.1710    9.7520  -13.7030 O   0  0  0  0  0  0  0  0  0  0  0  0
  -19.2930    9.4290  -15.5970 O   0  0  0  0  0  0  0  0  0  0  0  0
  -19.9008    3.4595   -9.3629 H   0  0  0  0  0  0  0  0  0  0  0  0
  -21.3366    2.9230  -11.4211 H   0  0  0  0  0  0  0  0  0  0  0  0
  -16.7943    3.0873  -12.7414 H   0  0  0  0  0  0  0  0  0  0  0  0
  -17.8898    3.8242  -13.9937 H   0  0  0  0  0  0  0  0  0  0  0  0
  -16.9229    5.8518  -12.1488 H   0  0  0  0  0  0  0  0  0  0  0  0
  -15.5505    4.9499  -12.8937 H   0  0  0  0  0  0  0  0  0  0  0  0
  -16.0049    5.7140  -14.9860 H   0  0  0  0  0  0  0  0  0  0  0  0
  -17.7828    5.7034  -14.7194 H   0  0  0  0  0  0  0  0  0  0  0  0
  -17.4253    7.6964  -13.1499 H   0  0  0  0  0  0  0  0  0  0  0  0
  -15.7481    7.7784  -13.7859 H   0  0  0  0  0  0  0  0  0  0  0  0
  -16.4462    8.7499  -15.7172 H   0  0  0  0  0  0  0  0  0  0  0  0
  -17.7137    7.5065  -15.9609 H   0  0  0  0  0  0  0  0  0  0  0  0
  1  2  2  0
  3  2  1  0
  2 18  1  0
  3  4  1  0
  3 15  1  0
  4  5  1  0
  4  8  1  1
  4  9  1  0
  5  6  1  1
  5  7  1  0
  5 13  1  0
  9 10  1  0
  9 11  2  0
 11 12  1  0
 11 13  1  0
 13 14  1  6
 13 15  1  0
 15 16  1  0
 16 17  2  0
 16 18  1  0
 18 19  1  0
 19 20  1  0
 20 21  1  0
 21 22  1  0
 22 23  1  0
 23 24  1  0
 24 25  1  0
 24 26  2  0
  3 27  1  1
 15 28  1  1
 19 29  1  0
 19 30  1  0
 20 31  1  0
 20 32  1  0
 21 33  1  0
 21 34  1  0
 22 35  1  0
 22 36  1  0
 23 37  1  0
 23 38  1  0
M  CHG  1  25  -1
M  END
>  <filename_input>  (26) 
6Z2C_Q5E_docked.sdf

>  <pdb_id>  (26) 
6Z2C_Q5E

>  <pose_rank>  (26) 
25

>  <num_atoms_heavy>  (26) 
26

>  <num_torsions>  (26) 
6

>  <pose>  (26) 
[-17.649, 4.426, -9.924, 1e-06, 1e-06, 1e-06, 0.0, 0.0, 0.0, 0.0, 0.0, 0.0]

>  <energy>  (26) 
-671.2435980559771

>  <inter_energy>  (26) 
-668.4471873981738

>  <intra_energy>  (26) 
2.1321579149193233

>  <rmsd>  (26) 
0.0

>  <sdf_rank>  (26) 
0

$$$$
