
     RDKit          3D

 37 39  0  0  0  0  0  0  0  0999 V2000
   22.0219   13.0186   61.6876 C   0  0  0  0  0  0  0  0  0  0  0  0
   20.7552   13.5185   61.4347 C   0  0  0  0  0  0  0  0  0  0  0  0
   19.8812   13.7516   62.4626 C   0  0  0  0  0  0  0  0  0  0  0  0
   18.6075   14.2877   62.1914 C   0  0  0  0  0  0  0  0  0  0  0  0
   20.2996   13.5305   63.7571 C   0  0  0  0  0  0  0  0  0  0  0  0
   21.5655   12.9873   64.0283 C   0  0  0  0  0  0  0  0  0  0  0  0
   22.4662   12.7352   62.9898 C   0  0  0  0  0  0  0  0  0  0  0  0
   23.8217   12.2203   63.2053 C   0  0  0  0  0  0  0  0  0  0  0  0
   23.9177   11.1626   64.3079 C   0  0  1  0  0  0  0  0  0  0  0  0
   22.9315   10.0078   64.1453 C   0  0  0  0  0  0  0  0  0  0  0  0
   22.4264    9.5119   65.1741 O   0  0  0  0  0  0  0  0  0  0  0  0
   22.7544    9.5595   62.9762 O   0  0  0  0  0  0  0  0  0  0  0  0
   25.2913   10.8166   64.7130 C   0  0  0  0  0  0  0  0  0  0  0  0
   24.3790   11.5295   65.7094 C   0  0  1  0  0  0  0  0  0  0  0  0
   24.5486   12.9175   66.1158 C   0  0  0  0  0  0  0  0  0  0  0  0
   23.4073   13.6882   66.3964 C   0  0  0  0  0  0  0  0  0  0  0  0
   23.4788   14.9861   66.7731 C   0  0  0  0  0  0  0  0  0  0  0  0
   24.6891   15.5945   66.9389 C   0  0  0  0  0  0  0  0  0  0  0  0
   25.8205   14.8493   66.6723 C   0  0  0  0  0  0  0  0  0  0  0  0
   25.7762   13.5486   66.2947 C   0  0  0  0  0  0  0  0  0  0  0  0
   22.7017   12.8378   60.8419 H   0  0  0  0  0  0  0  0  0  0  0  0
   20.4489   13.7300   60.3996 H   0  0  0  0  0  0  0  0  0  0  0  0
   18.0918   14.5047   63.1385 H   0  0  0  0  0  0  0  0  0  0  0  0
   18.7162   15.2163   61.6120 H   0  0  0  0  0  0  0  0  0  0  0  0
   18.0195   13.5607   61.6120 H   0  0  0  0  0  0  0  0  0  0  0  0
   19.6300   13.7841   64.5923 H   0  0  0  0  0  0  0  0  0  0  0  0
   21.8504   12.7583   65.0658 H   0  0  0  0  0  0  0  0  0  0  0  0
   24.1753   11.7726   62.2648 H   0  0  0  0  0  0  0  0  0  0  0  0
   24.4386   13.0724   63.5269 H   0  0  0  0  0  0  0  0  0  0  0  0
   25.5650    9.7639   64.8772 H   0  0  0  0  0  0  0  0  0  0  0  0
   26.2917   11.0160   64.3015 H   0  0  0  0  0  0  0  0  0  0  0  0
   24.0522   11.3342   66.7414 H   0  0  0  0  0  0  0  0  0  0  0  0
   22.4170   13.2179   66.3063 H   0  0  0  0  0  0  0  0  0  0  0  0
   22.5537   15.5553   66.9470 H   0  0  0  0  0  0  0  0  0  0  0  0
   24.7607   16.6401   67.2728 H   0  0  0  0  0  0  0  0  0  0  0  0
   26.8032   15.3337   66.7710 H   0  0  0  0  0  0  0  0  0  0  0  0
   26.7103   12.9916   66.1296 H   0  0  0  0  0  0  0  0  0  0  0  0
  1  2  2  0
  1  7  1  0
  2  3  1  0
  3  4  1  0
  3  5  2  0
  5  6  1  0
  6  7  2  0
  7  8  1  0
  9  8  1  6
  9 10  1  0
  9 13  1  0
  9 14  1  0
 10 11  1  0
 10 12  2  0
 13 14  1  0
 14 15  1  0
 15 16  2  0
 15 20  1  0
 16 17  1  0
 17 18  2  0
 18 19  1  0
 19 20  2  0
  1 21  1  0
  2 22  1  0
  4 23  1  0
  4 24  1  0
  4 25  1  0
  5 26  1  0
  6 27  1  0
  8 28  1  0
  8 29  1  0
 13 30  1  0
 13 31  1  0
 14 32  1  1
 16 33  1  0
 17 34  1  0
 18 35  1  0
 19 36  1  0
 20 37  1  0
M  CHG  1  11  -1
M  END
>  <filename_input>  (1) 
6Z4N_Q7B_docked.sdf

>  <pdb_id>  (1) 
6Z4N_Q7B

>  <pose_rank>  (1) 
0

>  <num_atoms_heavy>  (1) 
20

>  <num_torsions>  (1) 
4

>  <pose>  (1) 
[23.917736843807997, 11.162646377286732, 64.30793587072927, 3.220914015730249, 2.5330912566616095, 4.681520762086403, -0.6485750484477306, 0.288872855567837, -0.1123350180967154, 0.1770705733845673]

>  <energy>  (1) 
-734.9474194611018

>  <inter_energy>  (1) 
-751.9071033837047

>  <intra_energy>  (1) 
33.53147403145214

>  <rmsd>  (1) 
0.730897

>  <sdf_rank>  (1) 
0

$$$$

     RDKit          3D

 37 39  0  0  0  0  0  0  0  0999 V2000
   25.4135   12.5930   65.2042 C   0  0  0  0  0  0  0  0  0  0  0  0
   26.3888   12.9395   66.1247 C   0  0  0  0  0  0  0  0  0  0  0  0
   26.2504   14.0625   66.8955 C   0  0  0  0  0  0  0  0  0  0  0  0
   27.2369   14.3851   67.8474 C   0  0  0  0  0  0  0  0  0  0  0  0
   25.1013   14.8145   66.7786 C   0  0  0  0  0  0  0  0  0  0  0  0
   24.1215   14.4997   65.8236 C   0  0  0  0  0  0  0  0  0  0  0  0
   24.2518   13.3617   65.0227 C   0  0  0  0  0  0  0  0  0  0  0  0
   23.2428   12.9442   64.0447 C   0  0  0  0  0  0  0  0  0  0  0  0
   22.3487   11.7975   64.5238 C   0  0  1  0  0  0  0  0  0  0  0  0
   22.6645   10.4528   63.8719 C   0  0  0  0  0  0  0  0  0  0  0  0
   23.1492   10.4526   62.7211 O   0  0  0  0  0  0  0  0  0  0  0  0
   22.3286    9.4109   64.5048 O   0  0  0  0  0  0  0  0  0  0  0  0
   22.0765   11.7909   65.9716 C   0  0  0  0  0  0  0  0  0  0  0  0
   20.9281   12.0561   64.9997 C   0  0  1  0  0  0  0  0  0  0  0  0
   20.2930   13.3552   64.8289 C   0  0  0  0  0  0  0  0  0  0  0  0
   19.1878   13.4638   63.9675 C   0  0  0  0  0  0  0  0  0  0  0  0
   18.5463   14.6353   63.7491 C   0  0  0  0  0  0  0  0  0  0  0  0
   18.9308   15.7692   64.4040 C   0  0  0  0  0  0  0  0  0  0  0  0
   20.0118   15.6781   65.2581 C   0  0  0  0  0  0  0  0  0  0  0  0
   20.6705   14.5178   65.4947 C   0  0  0  0  0  0  0  0  0  0  0  0
   25.5531   11.6871   64.5961 H   0  0  0  0  0  0  0  0  0  0  0  0
   27.2818   12.3072   66.2373 H   0  0  0  0  0  0  0  0  0  0  0  0
   26.8275   14.2512   68.8596 H   0  0  0  0  0  0  0  0  0  0  0  0
   28.1060   13.7243   67.7131 H   0  0  0  0  0  0  0  0  0  0  0  0
   27.5478   15.4316   67.7131 H   0  0  0  0  0  0  0  0  0  0  0  0
   24.9491   15.6763   67.4451 H   0  0  0  0  0  0  0  0  0  0  0  0
   23.2449   15.1534   65.7048 H   0  0  0  0  0  0  0  0  0  0  0  0
   22.6031   13.8095   63.8167 H   0  0  0  0  0  0  0  0  0  0  0  0
   23.7874   12.5761   63.1627 H   0  0  0  0  0  0  0  0  0  0  0  0
   22.1127   10.8447   66.5314 H   0  0  0  0  0  0  0  0  0  0  0  0
   22.4936   12.3238   66.8388 H   0  0  0  0  0  0  0  0  0  0  0  0
   19.9321   11.6190   64.8357 H   0  0  0  0  0  0  0  0  0  0  0  0
   18.8302   12.5612   63.4505 H   0  0  0  0  0  0  0  0  0  0  0  0
   17.7081   14.6738   63.0378 H   0  0  0  0  0  0  0  0  0  0  0  0
   18.3989   16.7208   64.2569 H   0  0  0  0  0  0  0  0  0  0  0  0
   20.3542   16.5895   65.7702 H   0  0  0  0  0  0  0  0  0  0  0  0
   21.5035   14.4946   66.2127 H   0  0  0  0  0  0  0  0  0  0  0  0
  1  2  2  0
  1  7  1  0
  2  3  1  0
  3  4  1  0
  3  5  2  0
  5  6  1  0
  6  7  2  0
  7  8  1  0
  9  8  1  1
  9 10  1  0
  9 13  1  0
  9 14  1  0
 10 11  1  0
 10 12  2  0
 13 14  1  0
 14 15  1  0
 15 16  2  0
 15 20  1  0
 16 17  1  0
 17 18  2  0
 18 19  1  0
 19 20  2  0
  1 21  1  0
  2 22  1  0
  4 23  1  0
  4 24  1  0
  4 25  1  0
  5 26  1  0
  6 27  1  0
  8 28  1  0
  8 29  1  0
 13 30  1  0
 13 31  1  0
 14 32  1  6
 16 33  1  0
 17 34  1  0
 18 35  1  0
 19 36  1  0
 20 37  1  0
M  CHG  1  11  -1
M  END
>  <filename_input>  (2) 
6Z4N_Q7B_docked.sdf

>  <pdb_id>  (2) 
6Z4N_Q7B

>  <pose_rank>  (2) 
1

>  <num_atoms_heavy>  (2) 
20

>  <num_torsions>  (2) 
4

>  <pose>  (2) 
[22.348740843100295, 11.79750022171431, 64.52375878411513, 0.2226860301366332, 4.65129014002941, -0.886985878815592, -6.2657460724302645, 8.583947825778047, -2.871308139725181, -2.273877780049001]

>  <energy>  (2) 
-509.0667118725209

>  <inter_energy>  (2) 
-527.4224420764001

>  <intra_energy>  (2) 
16.939934624074294

>  <rmsd>  (2) 
5.00645

>  <sdf_rank>  (2) 
0

$$$$

     RDKit          3D

 37 39  0  0  0  0  0  0  0  0999 V2000
   20.1564   12.8003   64.3510 C   0  0  0  0  0  0  0  0  0  0  0  0
   19.3885   13.8721   63.9268 C   0  0  0  0  0  0  0  0  0  0  0  0
   19.6479   15.1371   64.3819 C   0  0  0  0  0  0  0  0  0  0  0  0
   18.8767   16.2205   63.9184 C   0  0  0  0  0  0  0  0  0  0  0  0
   20.7177   15.3355   65.2281 C   0  0  0  0  0  0  0  0  0  0  0  0
   21.4813   14.2553   65.6984 C   0  0  0  0  0  0  0  0  0  0  0  0
   21.2240   12.9566   65.2506 C   0  0  0  0  0  0  0  0  0  0  0  0
   22.0151   11.7917   65.6579 C   0  0  0  0  0  0  0  0  0  0  0  0
   23.0535   11.3517   64.6227 C   0  0  1  0  0  0  0  0  0  0  0  0
   22.9541    9.8779   64.2343 C   0  0  0  0  0  0  0  0  0  0  0  0
   22.7631    9.5943   63.0333 O   0  0  0  0  0  0  0  0  0  0  0  0
   22.9796    9.0302   65.1723 O   0  0  0  0  0  0  0  0  0  0  0  0
   23.2855   12.3158   63.5332 C   0  0  0  0  0  0  0  0  0  0  0  0
   24.4082   12.0355   64.5304 C   0  0  1  0  0  0  0  0  0  0  0  0
   24.8518   12.9851   65.5413 C   0  0  0  0  0  0  0  0  0  0  0  0
   24.5976   14.3536   65.3469 C   0  0  0  0  0  0  0  0  0  0  0  0
   24.9828   15.2997   66.2346 C   0  0  0  0  0  0  0  0  0  0  0  0
   25.6076   14.9479   67.3959 C   0  0  0  0  0  0  0  0  0  0  0  0
   25.8600   13.6066   67.6045 C   0  0  0  0  0  0  0  0  0  0  0  0
   25.4842   12.6400   66.7322 C   0  0  0  0  0  0  0  0  0  0  0  0
   19.9228   11.7946   63.9714 H   0  0  0  0  0  0  0  0  0  0  0  0
   18.5636   13.7057   63.2185 H   0  0  0  0  0  0  0  0  0  0  0  0
   18.4779   16.7807   64.7770 H   0  0  0  0  0  0  0  0  0  0  0  0
   19.5066   16.8844   63.3080 H   0  0  0  0  0  0  0  0  0  0  0  0
   18.0432   15.8427   63.3080 H   0  0  0  0  0  0  0  0  0  0  0  0
   20.9776   16.3577   65.5403 H   0  0  0  0  0  0  0  0  0  0  0  0
   22.2882   14.4325   66.4248 H   0  0  0  0  0  0  0  0  0  0  0  0
   22.5410   12.0399   66.5916 H   0  0  0  0  0  0  0  0  0  0  0  0
   21.3110   10.9550   65.7780 H   0  0  0  0  0  0  0  0  0  0  0  0
   23.3726   11.9597   62.4961 H   0  0  0  0  0  0  0  0  0  0  0  0
   22.7725   13.2233   63.1821 H   0  0  0  0  0  0  0  0  0  0  0  0
   25.4613   11.7281   64.4490 H   0  0  0  0  0  0  0  0  0  0  0  0
   24.0646   14.6680   64.4375 H   0  0  0  0  0  0  0  0  0  0  0  0
   24.7907   16.3610   66.0184 H   0  0  0  0  0  0  0  0  0  0  0  0
   25.8993   15.7052   68.1384 H   0  0  0  0  0  0  0  0  0  0  0  0
   26.3905   13.3089   68.5209 H   0  0  0  0  0  0  0  0  0  0  0  0
   25.6789   11.5827   66.9653 H   0  0  0  0  0  0  0  0  0  0  0  0
  1  2  2  0
  1  7  1  0
  2  3  1  0
  3  4  1  0
  3  5  2  0
  5  6  1  0
  6  7  2  0
  7  8  1  0
  9  8  1  1
  9 10  1  0
  9 13  1  0
  9 14  1  0
 10 11  1  0
 10 12  2  0
 13 14  1  0
 14 15  1  0
 15 16  2  0
 15 20  1  0
 16 17  1  0
 17 18  2  0
 18 19  1  0
 19 20  2  0
  1 21  1  0
  2 22  1  0
  4 23  1  0
  4 24  1  0
  4 25  1  0
  5 26  1  0
  6 27  1  0
  8 28  1  0
  8 29  1  0
 13 30  1  0
 13 31  1  0
 14 32  1  6
 16 33  1  0
 17 34  1  0
 18 35  1  0
 19 36  1  0
 20 37  1  0
M  CHG  1  11  -1
M  END
>  <filename_input>  (3) 
6Z4N_Q7B_docked.sdf

>  <pdb_id>  (3) 
6Z4N_Q7B

>  <pose_rank>  (3) 
2

>  <num_atoms_heavy>  (3) 
20

>  <num_torsions>  (3) 
4

>  <pose>  (3) 
[23.053495673319567, 11.351675150117002, 64.62271158344784, 0.7049769442861384, 1.5302963579447926, 0.7612268490227685, 2.697284682448822, -1.3635518890861915, 3.052564749282766, -2.2508152417479312]

>  <energy>  (3) 
-629.0994147170653

>  <inter_energy>  (3) 
-657.6509803746935

>  <intra_energy>  (3) 
29.603281617927866

>  <rmsd>  (3) 
1.82965

>  <sdf_rank>  (3) 
0

$$$$

     RDKit          3D

 37 39  0  0  0  0  0  0  0  0999 V2000
   23.3614   11.0917   67.8103 C   0  0  0  0  0  0  0  0  0  0  0  0
   23.6435   10.4062   68.9803 C   0  0  0  0  0  0  0  0  0  0  0  0
   22.8111    9.4133   69.4229 C   0  0  0  0  0  0  0  0  0  0  0  0
   23.1274    8.7058   70.5988 C   0  0  0  0  0  0  0  0  0  0  0  0
   21.7161    9.0708   68.6590 C   0  0  0  0  0  0  0  0  0  0  0  0
   21.3943    9.7814   67.4917 C   0  0  0  0  0  0  0  0  0  0  0  0
   22.2287   10.8036   67.0310 C   0  0  0  0  0  0  0  0  0  0  0  0
   21.9825   11.5492   65.7931 C   0  0  0  0  0  0  0  0  0  0  0  0
   22.9844   11.2481   64.6754 C   0  0  1  0  0  0  0  0  0  0  0  0
   23.0043    9.7843   64.2399 C   0  0  0  0  0  0  0  0  0  0  0  0
   23.7380    8.9909   64.8656 O   0  0  0  0  0  0  0  0  0  0  0  0
   22.3419    9.4799   63.2066 O   0  0  0  0  0  0  0  0  0  0  0  0
   23.0433   12.2635   63.6096 C   0  0  0  0  0  0  0  0  0  0  0  0
   24.2552   12.0680   64.5188 C   0  0  1  0  0  0  0  0  0  0  0  0
   24.6724   13.0264   65.5326 C   0  0  0  0  0  0  0  0  0  0  0  0
   25.9155   12.8504   66.1641 C   0  0  0  0  0  0  0  0  0  0  0  0
   26.3728   13.6918   67.1204 C   0  0  0  0  0  0  0  0  0  0  0  0
   25.6470   14.7890   67.4836 C   0  0  0  0  0  0  0  0  0  0  0  0
   24.4255   14.9792   66.8685 C   0  0  0  0  0  0  0  0  0  0  0  0
   23.9455   14.1523   65.9082 C   0  0  0  0  0  0  0  0  0  0  0  0
   24.0462   11.8870   67.4809 H   0  0  0  0  0  0  0  0  0  0  0  0
   24.5436   10.6615   69.5587 H   0  0  0  0  0  0  0  0  0  0  0  0
   22.8563    9.3122   71.4756 H   0  0  0  0  0  0  0  0  0  0  0  0
   22.5666    7.7598   70.6196 H   0  0  0  0  0  0  0  0  0  0  0  0
   24.2064    8.4930   70.6196 H   0  0  0  0  0  0  0  0  0  0  0  0
   21.0834    8.2262   68.9693 H   0  0  0  0  0  0  0  0  0  0  0  0
   20.4786    9.5318   66.9355 H   0  0  0  0  0  0  0  0  0  0  0  0
   20.9748   11.2964   65.4316 H   0  0  0  0  0  0  0  0  0  0  0  0
   22.0894   12.6163   66.0375 H   0  0  0  0  0  0  0  0  0  0  0  0
   23.0925   11.9497   62.5564 H   0  0  0  0  0  0  0  0  0  0  0  0
   22.4199   13.1247   63.3274 H   0  0  0  0  0  0  0  0  0  0  0  0
   25.3252   11.8712   64.3561 H   0  0  0  0  0  0  0  0  0  0  0  0
   26.5414   11.9951   65.8695 H   0  0  0  0  0  0  0  0  0  0  0  0
   27.3374   13.4897   67.6089 H   0  0  0  0  0  0  0  0  0  0  0  0
   26.0214   15.4960   68.2386 H   0  0  0  0  0  0  0  0  0  0  0  0
   23.8139   15.8416   67.1721 H   0  0  0  0  0  0  0  0  0  0  0  0
   22.9815   14.3710   65.4256 H   0  0  0  0  0  0  0  0  0  0  0  0
  1  2  2  0
  1  7  1  0
  2  3  1  0
  3  4  1  0
  3  5  2  0
  5  6  1  0
  6  7  2  0
  7  8  1  0
  9  8  1  1
  9 10  1  0
  9 13  1  0
  9 14  1  0
 10 11  1  0
 10 12  2  0
 13 14  1  0
 14 15  1  0
 15 16  2  0
 15 20  1  0
 16 17  1  0
 17 18  2  0
 18 19  1  0
 19 20  2  0
  1 21  1  0
  2 22  1  0
  4 23  1  0
  4 24  1  0
  4 25  1  0
  5 26  1  0
  6 27  1  0
  8 28  1  0
  8 29  1  0
 13 30  1  0
 13 31  1  0
 14 32  1  6
 16 33  1  0
 17 34  1  0
 18 35  1  0
 19 36  1  0
 20 37  1  0
M  CHG  1  11  -1
M  END
>  <filename_input>  (4) 
6Z4N_Q7B_docked.sdf

>  <pdb_id>  (4) 
6Z4N_Q7B

>  <pose_rank>  (4) 
3

>  <num_atoms_heavy>  (4) 
20

>  <num_torsions>  (4) 
4

>  <pose>  (4) 
[22.984436233939253, 11.248104638342143, 64.67544928986098, 0.6894404582080272, 1.6277489337530568, 0.8472427345221771, 6.405169301749092, 1.2891989581291354, -6.253824761803757, -2.425871341693853]

>  <energy>  (4) 
-660.7504085559026

>  <inter_energy>  (4) 
-666.0176603435074

>  <intra_energy>  (4) 
28.928540939294983

>  <rmsd>  (4) 
4.33583

>  <sdf_rank>  (4) 
0

$$$$

     RDKit          3D

 37 39  0  0  0  0  0  0  0  0999 V2000
   22.3980   14.1602   64.3270 C   0  0  0  0  0  0  0  0  0  0  0  0
   21.2887   14.9887   64.3672 C   0  0  0  0  0  0  0  0  0  0  0  0
   20.2373   14.7855   63.5142 C   0  0  0  0  0  0  0  0  0  0  0  0
   19.1042   15.6186   63.5876 C   0  0  0  0  0  0  0  0  0  0  0  0
   20.2768   13.7122   62.6503 C   0  0  0  0  0  0  0  0  0  0  0  0
   21.4095   12.8867   62.5694 C   0  0  0  0  0  0  0  0  0  0  0  0
   22.4950   13.0860   63.4269 C   0  0  0  0  0  0  0  0  0  0  0  0
   23.6849   12.2299   63.4339 C   0  0  0  0  0  0  0  0  0  0  0  0
   23.6829   11.1703   64.5387 C   0  0  1  0  0  0  0  0  0  0  0  0
   22.4440   10.2772   64.5373 C   0  0  0  0  0  0  0  0  0  0  0  0
   21.6228   10.4033   65.4696 O   0  0  0  0  0  0  0  0  0  0  0  0
   22.3696    9.3938   63.6355 O   0  0  0  0  0  0  0  0  0  0  0  0
   24.9814   10.5118   64.7644 C   0  0  0  0  0  0  0  0  0  0  0  0
   24.4024   11.4092   65.8566 C   0  0  1  0  0  0  0  0  0  0  0  0
   24.9414   12.7168   66.2032 C   0  0  0  0  0  0  0  0  0  0  0  0
   24.1571   13.5935   66.9722 C   0  0  0  0  0  0  0  0  0  0  0  0
   24.5818   14.8276   67.3305 C   0  0  0  0  0  0  0  0  0  0  0  0
   25.8304   15.2582   66.9869 C   0  0  0  0  0  0  0  0  0  0  0  0
   26.6157   14.4064   66.2357 C   0  0  0  0  0  0  0  0  0  0  0  0
   26.2145   13.1663   65.8649 C   0  0  0  0  0  0  0  0  0  0  0  0
   23.2294   14.3494   65.0220 H   0  0  0  0  0  0  0  0  0  0  0  0
   21.2523   15.8167   65.0905 H   0  0  0  0  0  0  0  0  0  0  0  0
   18.8527   15.8035   64.6424 H   0  0  0  0  0  0  0  0  0  0  0  0
   19.3194   16.5752   63.0889 H   0  0  0  0  0  0  0  0  0  0  0  0
   18.2554   15.1280   63.0889 H   0  0  0  0  0  0  0  0  0  0  0  0
   19.4058   13.4988   62.0133 H   0  0  0  0  0  0  0  0  0  0  0  0
   21.4429   12.0770   61.8255 H   0  0  0  0  0  0  0  0  0  0  0  0
   23.7478   11.7171   62.4628 H   0  0  0  0  0  0  0  0  0  0  0  0
   24.5477   12.8856   63.6231 H   0  0  0  0  0  0  0  0  0  0  0  0
   25.0243    9.4231   64.9157 H   0  0  0  0  0  0  0  0  0  0  0  0
   25.9354   10.4769   64.2180 H   0  0  0  0  0  0  0  0  0  0  0  0
   24.1825   11.2870   66.9275 H   0  0  0  0  0  0  0  0  0  0  0  0
   23.1588   13.2637   67.2956 H   0  0  0  0  0  0  0  0  0  0  0  0
   23.9151   15.4889   67.9033 H   0  0  0  0  0  0  0  0  0  0  0  0
   26.1978   16.2476   67.2969 H   0  0  0  0  0  0  0  0  0  0  0  0
   27.6130   14.7503   65.9239 H   0  0  0  0  0  0  0  0  0  0  0  0
   26.8949   12.5150   65.2967 H   0  0  0  0  0  0  0  0  0  0  0  0
  1  2  2  0
  1  7  1  0
  2  3  1  0
  3  4  1  0
  3  5  2  0
  5  6  1  0
  6  7  2  0
  7  8  1  0
  9  8  1  6
  9 10  1  0
  9 13  1  0
  9 14  1  0
 10 11  1  0
 10 12  2  0
 13 14  1  0
 14 15  1  0
 15 16  2  0
 15 20  1  0
 16 17  1  0
 17 18  2  0
 18 19  1  0
 19 20  2  0
  1 21  1  0
  2 22  1  0
  4 23  1  0
  4 24  1  0
  4 25  1  0
  5 26  1  0
  6 27  1  0
  8 28  1  0
  8 29  1  0
 13 30  1  0
 13 31  1  0
 14 32  1  1
 16 33  1  0
 17 34  1  0
 18 35  1  0
 19 36  1  0
 20 37  1  0
M  CHG  1  11  -1
M  END
>  <filename_input>  (5) 
6Z4N_Q7B_docked.sdf

>  <pdb_id>  (5) 
6Z4N_Q7B

>  <pose_rank>  (5) 
4

>  <num_atoms_heavy>  (5) 
20

>  <num_torsions>  (5) 
4

>  <pose>  (5) 
[23.682947176752773, 11.1703063393822, 64.53871656233713, -0.046040288167865664, 0.11512187297848296, -0.2782658510498522, -6.609864348452341, 0.8770386968765856, 25.065330024130304, 10.336468483753483]

>  <energy>  (5) 
-646.87158770407

>  <inter_energy>  (5) 
-670.046191059676

>  <intra_energy>  (5) 
18.803430873608608

>  <rmsd>  (5) 
1.05693

>  <sdf_rank>  (5) 
0

$$$$

     RDKit          3D

 37 39  0  0  0  0  0  0  0  0999 V2000
   25.2819   12.7762   66.1186 C   0  0  0  0  0  0  0  0  0  0  0  0
   26.4121   13.4638   66.5286 C   0  0  0  0  0  0  0  0  0  0  0  0
   26.3318   14.7821   66.8894 C   0  0  0  0  0  0  0  0  0  0  0  0
   27.4848   15.4590   67.3320 C   0  0  0  0  0  0  0  0  0  0  0  0
   25.0999   15.4002   66.8884 C   0  0  0  0  0  0  0  0  0  0  0  0
   23.9514   14.7296   66.4385 C   0  0  0  0  0  0  0  0  0  0  0  0
   24.0179   13.3863   66.0582 C   0  0  0  0  0  0  0  0  0  0  0  0
   22.8499   12.6106   65.6306 C   0  0  0  0  0  0  0  0  0  0  0  0
   23.1874   11.2069   65.1214 C   0  0  1  0  0  0  0  0  0  0  0  0
   22.8110   10.9717   63.6600 C   0  0  0  0  0  0  0  0  0  0  0  0
   23.2111    9.9259   63.1071 O   0  0  0  0  0  0  0  0  0  0  0  0
   22.1901   11.8999   63.0667 O   0  0  0  0  0  0  0  0  0  0  0  0
   24.4907   10.6853   65.5683 C   0  0  0  0  0  0  0  0  0  0  0  0
   23.2111   10.0146   66.0644 C   0  0  1  0  0  0  0  0  0  0  0  0
   22.7193   10.1155   67.4313 C   0  0  0  0  0  0  0  0  0  0  0  0
   23.5366   10.7136   68.4057 C   0  0  0  0  0  0  0  0  0  0  0  0
   23.1564   10.8397   69.6984 C   0  0  0  0  0  0  0  0  0  0  0  0
   21.9222   10.4201   70.1025 C   0  0  0  0  0  0  0  0  0  0  0  0
   21.1049    9.8349   69.1559 C   0  0  0  0  0  0  0  0  0  0  0  0
   21.4613    9.6976   67.8557 C   0  0  0  0  0  0  0  0  0  0  0  0
   25.3769   11.7187   65.8312 H   0  0  0  0  0  0  0  0  0  0  0  0
   27.3822   12.9465   66.5645 H   0  0  0  0  0  0  0  0  0  0  0  0
   27.5039   15.4703   68.4317 H   0  0  0  0  0  0  0  0  0  0  0  0
   28.3802   14.9432   66.9549 H   0  0  0  0  0  0  0  0  0  0  0  0
   27.4708   16.4923   66.9549 H   0  0  0  0  0  0  0  0  0  0  0  0
   25.0150   16.4369   67.2464 H   0  0  0  0  0  0  0  0  0  0  0  0
   22.9922   15.2653   66.3849 H   0  0  0  0  0  0  0  0  0  0  0  0
   22.1670   12.5129   66.4874 H   0  0  0  0  0  0  0  0  0  0  0  0
   22.3975   13.1546   64.7883 H   0  0  0  0  0  0  0  0  0  0  0  0
   25.1437   10.1598   64.8559 H   0  0  0  0  0  0  0  0  0  0  0  0
   25.3725   11.1249   66.0574 H   0  0  0  0  0  0  0  0  0  0  0  0
   22.8252    8.9845   66.0696 H   0  0  0  0  0  0  0  0  0  0  0  0
   24.5241   11.0943   68.1058 H   0  0  0  0  0  0  0  0  0  0  0  0
   23.8479   11.2840   70.4295 H   0  0  0  0  0  0  0  0  0  0  0  0
   21.5908   10.5436   71.1441 H   0  0  0  0  0  0  0  0  0  0  0  0
   20.1190    9.4631   69.4718 H   0  0  0  0  0  0  0  0  0  0  0  0
   20.7565    9.2559   67.1359 H   0  0  0  0  0  0  0  0  0  0  0  0
  1  2  2  0
  1  7  1  0
  2  3  1  0
  3  4  1  0
  3  5  2  0
  5  6  1  0
  6  7  2  0
  7  8  1  0
  9  8  1  1
  9 10  1  0
  9 13  1  0
  9 14  1  0
 10 11  1  0
 10 12  2  0
 13 14  1  0
 14 15  1  0
 15 16  2  0
 15 20  1  0
 16 17  1  0
 17 18  2  0
 18 19  1  0
 19 20  2  0
  1 21  1  0
  2 22  1  0
  4 23  1  0
  4 24  1  0
  4 25  1  0
  5 26  1  0
  6 27  1  0
  8 28  1  0
  8 29  1  0
 13 30  1  0
 13 31  1  0
 14 32  1  6
 16 33  1  0
 17 34  1  0
 18 35  1  0
 19 36  1  0
 20 37  1  0
M  CHG  1  11  -1
M  END
>  <filename_input>  (6) 
6Z4N_Q7B_docked.sdf

>  <pdb_id>  (6) 
6Z4N_Q7B

>  <pose_rank>  (6) 
5

>  <num_atoms_heavy>  (6) 
20

>  <num_torsions>  (6) 
4

>  <pose>  (6) 
[23.187399055454442, 11.206917694012906, 65.1214214868174, -4.6766010535363645, 1.632785880123853, -0.8182229122100936, 2.939668098151141, -0.5092070135882949, -15.649487934453198, -3.750670645962719]

>  <energy>  (6) 
-500.7554970458183

>  <inter_energy>  (6) 
-563.6418514990518

>  <intra_energy>  (6) 
80.87267325302629

>  <rmsd>  (6) 
4.76827

>  <sdf_rank>  (6) 
0

$$$$

     RDKit          3D

 37 39  0  0  0  0  0  0  0  0999 V2000
   23.8533   13.4454   67.4457 C   0  0  0  0  0  0  0  0  0  0  0  0
   24.1238   14.5885   68.1796 C   0  0  0  0  0  0  0  0  0  0  0  0
   23.6465   15.8056   67.7729 C   0  0  0  0  0  0  0  0  0  0  0  0
   23.9056   16.9539   68.5460 C   0  0  0  0  0  0  0  0  0  0  0  0
   22.8490   15.8683   66.6505 C   0  0  0  0  0  0  0  0  0  0  0  0
   22.5978   14.7262   65.8736 C   0  0  0  0  0  0  0  0  0  0  0  0
   23.0851   13.4777   66.2700 C   0  0  0  0  0  0  0  0  0  0  0  0
   22.8158   12.2371   65.5369 C   0  0  0  0  0  0  0  0  0  0  0  0
   23.8368   11.9290   64.4387 C   0  0  1  0  0  0  0  0  0  0  0  0
   25.2858   12.1750   64.8542 C   0  0  0  0  0  0  0  0  0  0  0  0
   25.8354   11.3423   65.6051 O   0  0  0  0  0  0  0  0  0  0  0  0
   25.8162   13.2619   64.4848 O   0  0  0  0  0  0  0  0  0  0  0  0
   23.5617   10.7050   63.6663 C   0  0  0  0  0  0  0  0  0  0  0  0
   23.4723   12.0610   62.9686 C   0  0  1  0  0  0  0  0  0  0  0  0
   22.2215   12.6760   62.5470 C   0  0  0  0  0  0  0  0  0  0  0  0
   21.0886   12.5451   63.3684 C   0  0  0  0  0  0  0  0  0  0  0  0
   19.8884   13.0805   63.0453 C   0  0  0  0  0  0  0  0  0  0  0  0
   19.7421   13.8188   61.9069 C   0  0  0  0  0  0  0  0  0  0  0  0
   20.8473   13.9614   61.0915 C   0  0  0  0  0  0  0  0  0  0  0  0
   22.0597   13.4363   61.3924 C   0  0  0  0  0  0  0  0  0  0  0  0
   24.2528   12.4817   67.7945 H   0  0  0  0  0  0  0  0  0  0  0  0
   24.7270   14.5179   69.0968 H   0  0  0  0  0  0  0  0  0  0  0  0
   23.8477   16.6975   69.6142 H   0  0  0  0  0  0  0  0  0  0  0  0
   24.9118   17.3329   68.3139 H   0  0  0  0  0  0  0  0  0  0  0  0
   23.1596   17.7282   68.3139 H   0  0  0  0  0  0  0  0  0  0  0  0
   22.4017   16.8298   66.3583 H   0  0  0  0  0  0  0  0  0  0  0  0
   22.0132   14.8146   64.9460 H   0  0  0  0  0  0  0  0  0  0  0  0
   22.8177   11.4037   66.2548 H   0  0  0  0  0  0  0  0  0  0  0  0
   21.8429   12.3658   65.0400 H   0  0  0  0  0  0  0  0  0  0  0  0
   24.3833   10.0160   63.4209 H   0  0  0  0  0  0  0  0  0  0  0  0
   22.8780    9.8519   63.7877 H   0  0  0  0  0  0  0  0  0  0  0  0
   23.9191   12.5010   62.0649 H   0  0  0  0  0  0  0  0  0  0  0  0
   21.1811   11.9855   64.3109 H   0  0  0  0  0  0  0  0  0  0  0  0
   19.0236   12.9193   63.7058 H   0  0  0  0  0  0  0  0  0  0  0  0
   18.7791   14.2833   61.6483 H   0  0  0  0  0  0  0  0  0  0  0  0
   20.7385   14.5273   60.1546 H   0  0  0  0  0  0  0  0  0  0  0  0
   22.9160   13.6108   60.7243 H   0  0  0  0  0  0  0  0  0  0  0  0
  1  2  2  0
  1  7  1  0
  2  3  1  0
  3  4  1  0
  3  5  2  0
  5  6  1  0
  6  7  2  0
  7  8  1  0
  9  8  1  1
  9 10  1  0
  9 13  1  0
  9 14  1  0
 10 11  1  0
 10 12  2  0
 13 14  1  0
 14 15  1  0
 15 16  2  0
 15 20  1  0
 16 17  1  0
 17 18  2  0
 18 19  1  0
 19 20  2  0
  1 21  1  0
  2 22  1  0
  4 23  1  0
  4 24  1  0
  4 25  1  0
  5 26  1  0
  6 27  1  0
  8 28  1  0
  8 29  1  0
 13 30  1  0
 13 31  1  0
 14 32  1  6
 16 33  1  0
 17 34  1  0
 18 35  1  0
 19 36  1  0
 20 37  1  0
M  CHG  1  11  -1
M  END
>  <filename_input>  (7) 
6Z4N_Q7B_docked.sdf

>  <pdb_id>  (7) 
6Z4N_Q7B

>  <pose_rank>  (7) 
6

>  <num_atoms_heavy>  (7) 
20

>  <num_torsions>  (7) 
4

>  <pose>  (7) 
[23.83684855862511, 11.928955003059043, 64.43871986233327, 1.7991897123147087, -2.8487166047567145, -0.3189534266628752, -2.530280823303861, 4.125695058077693, -0.2739626710264649, 1.0495934047349746]

>  <energy>  (7) 
-446.82720964826353

>  <inter_energy>  (7) 
-480.93125217720876

>  <intra_energy>  (7) 
46.40654140597224

>  <rmsd>  (7) 
5.01193

>  <sdf_rank>  (7) 
0

$$$$

     RDKit          3D

 37 39  0  0  0  0  0  0  0  0999 V2000
   22.3145   14.5329   65.8116 C   0  0  0  0  0  0  0  0  0  0  0  0
   23.5841   14.7179   66.3333 C   0  0  0  0  0  0  0  0  0  0  0  0
   24.4350   13.6561   66.4863 C   0  0  0  0  0  0  0  0  0  0  0  0
   25.7330   13.8654   66.9909 C   0  0  0  0  0  0  0  0  0  0  0  0
   24.0277   12.4087   66.0648 C   0  0  0  0  0  0  0  0  0  0  0  0
   22.7307   12.1969   65.5706 C   0  0  0  0  0  0  0  0  0  0  0  0
   21.8469   13.2685   65.4164 C   0  0  0  0  0  0  0  0  0  0  0  0
   20.4992   13.1281   64.8569 C   0  0  0  0  0  0  0  0  0  0  0  0
   20.2878   13.8877   63.5447 C   0  0  1  0  0  0  0  0  0  0  0  0
   21.3763   13.6379   62.5028 C   0  0  0  0  0  0  0  0  0  0  0  0
   22.2682   12.8049   62.7672 O   0  0  0  0  0  0  0  0  0  0  0  0
   21.3605   14.3614   61.4658 O   0  0  0  0  0  0  0  0  0  0  0  0
   18.8955   13.9131   63.0639 C   0  0  0  0  0  0  0  0  0  0  0  0
   19.5499   15.2167   63.5173 C   0  0  1  0  0  0  0  0  0  0  0  0
   19.1985   15.9175   64.7444 C   0  0  0  0  0  0  0  0  0  0  0  0
   18.1019   15.4630   65.4968 C   0  0  0  0  0  0  0  0  0  0  0  0
   17.7065   16.0624   66.6439 C   0  0  0  0  0  0  0  0  0  0  0  0
   18.3989   17.1265   67.1449 C   0  0  0  0  0  0  0  0  0  0  0  0
   19.4823   17.5820   66.4201 C   0  0  0  0  0  0  0  0  0  0  0  0
   19.8990   16.9994   65.2698 C   0  0  0  0  0  0  0  0  0  0  0  0
   21.6512   15.4037   65.7032 H   0  0  0  0  0  0  0  0  0  0  0  0
   23.9116   15.7261   66.6270 H   0  0  0  0  0  0  0  0  0  0  0  0
   25.7042   13.8607   68.0905 H   0  0  0  0  0  0  0  0  0  0  0  0
   26.3973   13.0627   66.6381 H   0  0  0  0  0  0  0  0  0  0  0  0
   26.1115   14.8361   66.6381 H   0  0  0  0  0  0  0  0  0  0  0  0
   24.7309   11.5644   66.1165 H   0  0  0  0  0  0  0  0  0  0  0  0
   22.4078   11.1800   65.3028 H   0  0  0  0  0  0  0  0  0  0  0  0
   20.3107   12.0602   64.6726 H   0  0  0  0  0  0  0  0  0  0  0  0
   19.8032   13.5605   65.5907 H   0  0  0  0  0  0  0  0  0  0  0  0
   18.6813   13.7498   61.9973 H   0  0  0  0  0  0  0  0  0  0  0  0
   17.9746   13.3758   63.3345 H   0  0  0  0  0  0  0  0  0  0  0  0
   19.6969   16.2099   63.0678 H   0  0  0  0  0  0  0  0  0  0  0  0
   17.5431   14.5856   65.1392 H   0  0  0  0  0  0  0  0  0  0  0  0
   16.8198   15.6888   67.1770 H   0  0  0  0  0  0  0  0  0  0  0  0
   18.1047   17.6037   68.0913 H   0  0  0  0  0  0  0  0  0  0  0  0
   20.0325   18.4581   66.7938 H   0  0  0  0  0  0  0  0  0  0  0  0
   20.7907   17.3816   64.7512 H   0  0  0  0  0  0  0  0  0  0  0  0
  1  2  2  0
  1  7  1  0
  2  3  1  0
  3  4  1  0
  3  5  2  0
  5  6  1  0
  6  7  2  0
  7  8  1  0
  9  8  1  1
  9 10  1  0
  9 13  1  0
  9 14  1  0
 10 11  1  0
 10 12  2  0
 13 14  1  0
 14 15  1  0
 15 16  2  0
 15 20  1  0
 16 17  1  0
 17 18  2  0
 18 19  1  0
 19 20  2  0
  1 21  1  0
  2 22  1  0
  4 23  1  0
  4 24  1  0
  4 25  1  0
  5 26  1  0
  6 27  1  0
  8 28  1  0
  8 29  1  0
 13 30  1  0
 13 31  1  0
 14 32  1  6
 16 33  1  0
 17 34  1  0
 18 35  1  0
 19 36  1  0
 20 37  1  0
M  CHG  1  11  -1
M  END
>  <filename_input>  (8) 
6Z4N_Q7B_docked.sdf

>  <pdb_id>  (8) 
6Z4N_Q7B

>  <pose_rank>  (8) 
7

>  <num_atoms_heavy>  (8) 
20

>  <num_torsions>  (8) 
4

>  <pose>  (8) 
[20.287816201151255, 13.887702271213026, 63.544683306830876, 0.3020798971401342, -2.4048945815235974, -1.9159494141879332, 2.9657125061987184, -3.410665827993974, -0.1617389297035192, -2.532703068734379]

>  <energy>  (8) 
-375.82892373371396

>  <inter_energy>  (8) 
-423.8979555842942

>  <intra_energy>  (8) 
49.95771460638926

>  <rmsd>  (8) 
5.58582

>  <sdf_rank>  (8) 
0

$$$$

     RDKit          3D

 37 39  0  0  0  0  0  0  0  0999 V2000
   21.9435    9.8300   67.6198 C   0  0  0  0  0  0  0  0  0  0  0  0
   22.2510    9.4217   68.9071 C   0  0  0  0  0  0  0  0  0  0  0  0
   23.0336   10.2012   69.7160 C   0  0  0  0  0  0  0  0  0  0  0  0
   23.3129    9.7858   71.0323 C   0  0  0  0  0  0  0  0  0  0  0  0
   23.4677   11.4228   69.2480 C   0  0  0  0  0  0  0  0  0  0  0  0
   23.1981   11.8340   67.9329 C   0  0  0  0  0  0  0  0  0  0  0  0
   22.4082   11.0458   67.0914 C   0  0  0  0  0  0  0  0  0  0  0  0
   22.0428   11.4387   65.7272 C   0  0  0  0  0  0  0  0  0  0  0  0
   23.1616   11.2399   64.7014 C   0  0  1  0  0  0  0  0  0  0  0  0
   23.3834    9.7824   64.3024 C   0  0  0  0  0  0  0  0  0  0  0  0
   22.6940    9.3119   63.3735 O   0  0  0  0  0  0  0  0  0  0  0  0
   24.1926    9.1084   65.0024 O   0  0  0  0  0  0  0  0  0  0  0  0
   23.1931   12.2409   63.6209 C   0  0  0  0  0  0  0  0  0  0  0  0
   24.3397   12.1981   64.6293 C   0  0  1  0  0  0  0  0  0  0  0  0
   24.5600   13.2116   65.6514 C   0  0  0  0  0  0  0  0  0  0  0  0
   23.5055   14.0772   65.9891 C   0  0  0  0  0  0  0  0  0  0  0  0
   23.6308   15.0491   66.9225 C   0  0  0  0  0  0  0  0  0  0  0  0
   24.7973   15.1996   67.6148 C   0  0  0  0  0  0  0  0  0  0  0  0
   25.8415   14.3534   67.2985 C   0  0  0  0  0  0  0  0  0  0  0  0
   25.7416   13.3723   66.3692 C   0  0  0  0  0  0  0  0  0  0  0  0
   21.3154    9.1815   66.9912 H   0  0  0  0  0  0  0  0  0  0  0  0
   21.8632    8.4632   69.2826 H   0  0  0  0  0  0  0  0  0  0  0  0
   22.8448   10.4821   71.7437 H   0  0  0  0  0  0  0  0  0  0  0  0
   22.9106    8.7743   71.1907 H   0  0  0  0  0  0  0  0  0  0  0  0
   24.4014    9.7764   71.1907 H   0  0  0  0  0  0  0  0  0  0  0  0
   24.0351   12.0871   69.9164 H   0  0  0  0  0  0  0  0  0  0  0  0
   23.6117   12.7834   67.5621 H   0  0  0  0  0  0  0  0  0  0  0  0
   21.1760   10.8379   65.4146 H   0  0  0  0  0  0  0  0  0  0  0  0
   21.8235   12.5163   65.7542 H   0  0  0  0  0  0  0  0  0  0  0  0
   23.3646   11.9207   62.5826 H   0  0  0  0  0  0  0  0  0  0  0  0
   22.5015   13.0209   63.2697 H   0  0  0  0  0  0  0  0  0  0  0  0
   25.4349   12.1235   64.5582 H   0  0  0  0  0  0  0  0  0  0  0  0
   22.5404   13.9601   65.4745 H   0  0  0  0  0  0  0  0  0  0  0  0
   22.7856   15.7234   67.1249 H   0  0  0  0  0  0  0  0  0  0  0  0
   24.9018   15.9669   68.3961 H   0  0  0  0  0  0  0  0  0  0  0  0
   26.7987   14.4816   67.8253 H   0  0  0  0  0  0  0  0  0  0  0  0
   26.5942   12.7029   66.1820 H   0  0  0  0  0  0  0  0  0  0  0  0
  1  2  2  0
  1  7  1  0
  2  3  1  0
  3  4  1  0
  3  5  2  0
  5  6  1  0
  6  7  2  0
  7  8  1  0
  9  8  1  1
  9 10  1  0
  9 13  1  0
  9 14  1  0
 10 11  1  0
 10 12  2  0
 13 14  1  0
 14 15  1  0
 15 16  2  0
 15 20  1  0
 16 17  1  0
 17 18  2  0
 18 19  1  0
 19 20  2  0
  1 21  1  0
  2 22  1  0
  4 23  1  0
  4 24  1  0
  4 25  1  0
  5 26  1  0
  6 27  1  0
  8 28  1  0
  8 29  1  0
 13 30  1  0
 13 31  1  0
 14 32  1  6
 16 33  1  0
 17 34  1  0
 18 35  1  0
 19 36  1  0
 20 37  1  0
M  CHG  1  11  -1
M  END
>  <filename_input>  (9) 
6Z4N_Q7B_docked.sdf

>  <pdb_id>  (9) 
6Z4N_Q7B

>  <pose_rank>  (9) 
8

>  <num_atoms_heavy>  (9) 
20

>  <num_torsions>  (9) 
4

>  <pose>  (9) 
[23.161557083582203, 11.239873188628566, 64.70139144345455, 0.5457822158084302, 1.6107432347223853, 0.9303262885983553, 15.967017343714334, 4.311300854684862, -12.27767095890412, 7.1408440613070505]

>  <energy>  (9) 
-558.6806515956603

>  <inter_energy>  (9) 
-636.1891623680164

>  <intra_energy>  (9) 
83.80546698794689

>  <rmsd>  (9) 
4.2657

>  <sdf_rank>  (9) 
0

$$$$

     RDKit          3D

 37 39  0  0  0  0  0  0  0  0999 V2000
   25.4048   12.5542   65.2070 C   0  0  0  0  0  0  0  0  0  0  0  0
   26.4367   12.9475   66.0430 C   0  0  0  0  0  0  0  0  0  0  0  0
   26.3103   14.0627   66.8272 C   0  0  0  0  0  0  0  0  0  0  0  0
   27.3572   14.4326   67.6935 C   0  0  0  0  0  0  0  0  0  0  0  0
   25.1205   14.7584   66.8108 C   0  0  0  0  0  0  0  0  0  0  0  0
   24.0797   14.3965   65.9408 C   0  0  0  0  0  0  0  0  0  0  0  0
   24.1963   13.2660   65.1273 C   0  0  0  0  0  0  0  0  0  0  0  0
   23.1293   12.8001   64.2365 C   0  0  0  0  0  0  0  0  0  0  0  0
   22.2825   11.6660   64.8198 C   0  0  1  0  0  0  0  0  0  0  0  0
   22.7198   10.2732   64.3706 C   0  0  0  0  0  0  0  0  0  0  0  0
   22.2582    9.2840   64.9771 O   0  0  0  0  0  0  0  0  0  0  0  0
   23.6002   10.2080   63.4652 O   0  0  0  0  0  0  0  0  0  0  0  0
   21.9266   11.8292   66.2400 C   0  0  0  0  0  0  0  0  0  0  0  0
   20.8230   11.8843   65.1853 C   0  0  1  0  0  0  0  0  0  0  0  0
   20.1186   13.1024   64.8104 C   0  0  0  0  0  0  0  0  0  0  0  0
   20.5453   13.8127   63.6753 C   0  0  0  0  0  0  0  0  0  0  0  0
   19.9492   14.9561   63.2643 C   0  0  0  0  0  0  0  0  0  0  0  0
   18.8621   15.4483   63.9265 C   0  0  0  0  0  0  0  0  0  0  0  0
   18.4269   14.7590   65.0410 C   0  0  0  0  0  0  0  0  0  0  0  0
   19.0055   13.6122   65.4726 C   0  0  0  0  0  0  0  0  0  0  0  0
   25.5357   11.6560   64.5856 H   0  0  0  0  0  0  0  0  0  0  0  0
   27.3654   12.3590   66.0772 H   0  0  0  0  0  0  0  0  0  0  0  0
   27.0282   14.3164   68.7367 H   0  0  0  0  0  0  0  0  0  0  0  0
   28.2297   13.7883   67.5102 H   0  0  0  0  0  0  0  0  0  0  0  0
   27.6313   15.4820   67.5102 H   0  0  0  0  0  0  0  0  0  0  0  0
   24.9841   15.6120   67.4911 H   0  0  0  0  0  0  0  0  0  0  0  0
   23.1658   15.0072   65.8991 H   0  0  0  0  0  0  0  0  0  0  0  0
   22.4659   13.6498   64.0175 H   0  0  0  0  0  0  0  0  0  0  0  0
   23.6183   12.4014   63.3355 H   0  0  0  0  0  0  0  0  0  0  0  0
   21.9893   10.9689   66.9227 H   0  0  0  0  0  0  0  0  0  0  0  0
   22.2578   12.4985   67.0477 H   0  0  0  0  0  0  0  0  0  0  0  0
   19.8677   11.3609   65.0319 H   0  0  0  0  0  0  0  0  0  0  0  0
   21.3974   13.4241   63.0983 H   0  0  0  0  0  0  0  0  0  0  0  0
   20.3441   15.4931   62.3893 H   0  0  0  0  0  0  0  0  0  0  0  0
   18.3513   16.3607   63.5850 H   0  0  0  0  0  0  0  0  0  0  0  0
   17.5712   15.1593   65.6044 H   0  0  0  0  0  0  0  0  0  0  0  0
   18.5956   13.0842   66.3462 H   0  0  0  0  0  0  0  0  0  0  0  0
  1  2  2  0
  1  7  1  0
  2  3  1  0
  3  4  1  0
  3  5  2  0
  5  6  1  0
  6  7  2  0
  7  8  1  0
  9  8  1  6
  9 10  1  0
  9 13  1  0
  9 14  1  0
 10 11  1  0
 10 12  2  0
 13 14  1  0
 14 15  1  0
 15 16  2  0
 15 20  1  0
 16 17  1  0
 17 18  2  0
 18 19  1  0
 19 20  2  0
  1 21  1  0
  2 22  1  0
  4 23  1  0
  4 24  1  0
  4 25  1  0
  5 26  1  0
  6 27  1  0
  8 28  1  0
  8 29  1  0
 13 30  1  0
 13 31  1  0
 14 32  1  1
 16 33  1  0
 17 34  1  0
 18 35  1  0
 19 36  1  0
 20 37  1  0
M  CHG  1  11  -1
M  END
>  <filename_input>  (10) 
6Z4N_Q7B_docked.sdf

>  <pdb_id>  (10) 
6Z4N_Q7B

>  <pose_rank>  (10) 
9

>  <num_atoms_heavy>  (10) 
20

>  <num_torsions>  (10) 
4

>  <pose>  (10) 
[22.28248641147642, 11.665972071302273, 64.81975456694238, 0.39250376127881503, 4.467679944223663, -1.277413441219594, -1.5039437894920271, -0.5687810487619683, -2.708682444421776, -2.214385598398309]

>  <energy>  (10) 
-473.3011725077038

>  <inter_energy>  (10) 
-519.8837075867167

>  <intra_energy>  (10) 
36.07023374180085

>  <rmsd>  (10) 
5.03908

>  <sdf_rank>  (10) 
0

$$$$

     RDKit          3D

 37 39  0  0  0  0  0  0  0  0999 V2000
   22.4718   12.6358   64.3365 C   0  0  0  0  0  0  0  0  0  0  0  0
   23.7998   12.3135   64.1109 C   0  0  0  0  0  0  0  0  0  0  0  0
   24.7678   12.6862   65.0046 C   0  0  0  0  0  0  0  0  0  0  0  0
   26.1096   12.3253   64.7754 C   0  0  0  0  0  0  0  0  0  0  0  0
   24.3940   13.3414   66.1582 C   0  0  0  0  0  0  0  0  0  0  0  0
   23.0582   13.7102   66.3834 C   0  0  0  0  0  0  0  0  0  0  0  0
   22.0592   13.3452   65.4766 C   0  0  0  0  0  0  0  0  0  0  0  0
   20.6392   13.6496   65.6757 C   0  0  0  0  0  0  0  0  0  0  0  0
   20.2950   15.1345   65.5337 C   0  0  1  0  0  0  0  0  0  0  0  0
   20.0441   15.8416   66.8640 C   0  0  0  0  0  0  0  0  0  0  0  0
   18.8623   16.0129   67.2292 O   0  0  0  0  0  0  0  0  0  0  0  0
   21.0530   16.2959   67.4761 O   0  0  0  0  0  0  0  0  0  0  0  0
   21.0947   15.8601   64.5315 C   0  0  0  0  0  0  0  0  0  0  0  0
   19.5993   15.6634   64.2896 C   0  0  1  0  0  0  0  0  0  0  0  0
   19.0511   14.7642   63.2839 C   0  0  0  0  0  0  0  0  0  0  0  0
   19.9087   14.2373   62.3030 C   0  0  0  0  0  0  0  0  0  0  0  0
   19.4769   13.4012   61.3303 C   0  0  0  0  0  0  0  0  0  0  0  0
   18.1739   12.9970   61.2912 C   0  0  0  0  0  0  0  0  0  0  0  0
   17.3194   13.5017   62.2512 C   0  0  0  0  0  0  0  0  0  0  0  0
   17.7267   14.3392   63.2357 C   0  0  0  0  0  0  0  0  0  0  0  0
   21.7161   12.3265   63.5994 H   0  0  0  0  0  0  0  0  0  0  0  0
   24.0791   11.7535   63.2062 H   0  0  0  0  0  0  0  0  0  0  0  0
   26.6220   12.1875   65.7390 H   0  0  0  0  0  0  0  0  0  0  0  0
   26.1442   11.3859   64.2041 H   0  0  0  0  0  0  0  0  0  0  0  0
   26.6107   13.1206   64.2041 H   0  0  0  0  0  0  0  0  0  0  0  0
   25.1555   13.5796   66.9154 H   0  0  0  0  0  0  0  0  0  0  0  0
   22.7958   14.2906   67.2802 H   0  0  0  0  0  0  0  0  0  0  0  0
   20.0570   13.0868   64.9312 H   0  0  0  0  0  0  0  0  0  0  0  0
   20.3941   13.3635   66.7092 H   0  0  0  0  0  0  0  0  0  0  0  0
   21.4848   16.8621   64.7632 H   0  0  0  0  0  0  0  0  0  0  0  0
   22.0065   15.6338   63.9592 H   0  0  0  0  0  0  0  0  0  0  0  0
   18.7546   16.3301   64.0616 H   0  0  0  0  0  0  0  0  0  0  0  0
   20.9727   14.5153   62.3268 H   0  0  0  0  0  0  0  0  0  0  0  0
   20.1819   13.0444   60.5650 H   0  0  0  0  0  0  0  0  0  0  0  0
   17.8175   12.2950   60.5229 H   0  0  0  0  0  0  0  0  0  0  0  0
   16.2593   13.2105   62.2153 H   0  0  0  0  0  0  0  0  0  0  0  0
   17.0106   14.6830   63.9966 H   0  0  0  0  0  0  0  0  0  0  0  0
  1  2  2  0
  1  7  1  0
  2  3  1  0
  3  4  1  0
  3  5  2  0
  5  6  1  0
  6  7  2  0
  7  8  1  0
  9  8  1  1
  9 10  1  0
  9 13  1  0
  9 14  1  0
 10 11  1  0
 10 12  2  0
 13 14  1  0
 14 15  1  0
 15 16  2  0
 15 20  1  0
 16 17  1  0
 17 18  2  0
 18 19  1  0
 19 20  2  0
  1 21  1  0
  2 22  1  0
  4 23  1  0
  4 24  1  0
  4 25  1  0
  5 26  1  0
  6 27  1  0
  8 28  1  0
  8 29  1  0
 13 30  1  0
 13 31  1  0
 14 32  1  1
 16 33  1  0
 17 34  1  0
 18 35  1  0
 19 36  1  0
 20 37  1  0
M  CHG  1  11  -1
M  END
>  <filename_input>  (11) 
6Z4N_Q7B_docked.sdf

>  <pdb_id>  (11) 
6Z4N_Q7B

>  <pose_rank>  (11) 
10

>  <num_atoms_heavy>  (11) 
20

>  <num_torsions>  (11) 
4

>  <pose>  (11) 
[20.294987560717153, 15.134493361372986, 65.5336770972773, -2.3360759846286885, 0.018156152504700835, 1.0395727546521059, 2.863400666538964, -5.212027112181178, 28.568942434696257, 7.009894219604589]

>  <energy>  (11) 
-449.95602739835584

>  <inter_energy>  (11) 
-456.2492024171955

>  <intra_energy>  (11) 
10.44775083660494

>  <rmsd>  (11) 
6.45933

>  <sdf_rank>  (11) 
0

$$$$

     RDKit          3D

 37 39  0  0  0  0  0  0  0  0999 V2000
   21.3210   15.5443   65.8821 C   0  0  0  0  0  0  0  0  0  0  0  0
   19.9456   15.7040   65.8466 C   0  0  0  0  0  0  0  0  0  0  0  0
   19.2019   15.1131   64.8605 C   0  0  0  0  0  0  0  0  0  0  0  0
   17.8014   15.2609   64.8552 C   0  0  0  0  0  0  0  0  0  0  0  0
   19.8368   14.3142   63.9340 C   0  0  0  0  0  0  0  0  0  0  0  0
   21.2337   14.1737   63.9323 C   0  0  0  0  0  0  0  0  0  0  0  0
   22.0084   14.7775   64.9266 C   0  0  0  0  0  0  0  0  0  0  0  0
   23.4639   14.6283   65.0167 C   0  0  0  0  0  0  0  0  0  0  0  0
   23.9626   14.2153   66.4039 C   0  0  1  0  0  0  0  0  0  0  0  0
   24.7767   15.2941   67.1153 C   0  0  0  0  0  0  0  0  0  0  0  0
   25.9793   15.0629   67.3595 O   0  0  0  0  0  0  0  0  0  0  0  0
   24.1565   16.3271   67.4990 O   0  0  0  0  0  0  0  0  0  0  0  0
   22.9829   13.4729   67.2159 C   0  0  0  0  0  0  0  0  0  0  0  0
   24.2445   12.7584   66.7349 C   0  0  1  0  0  0  0  0  0  0  0  0
   24.2521   11.7312   65.7029 C   0  0  0  0  0  0  0  0  0  0  0  0
   23.0261   11.2250   65.2382 C   0  0  0  0  0  0  0  0  0  0  0  0
   22.9472   10.2656   64.2870 C   0  0  0  0  0  0  0  0  0  0  0  0
   24.0781    9.7747   63.7016 C   0  0  0  0  0  0  0  0  0  0  0  0
   25.2907   10.2656   64.1433 C   0  0  0  0  0  0  0  0  0  0  0  0
   25.3969   11.2262   65.0932 C   0  0  0  0  0  0  0  0  0  0  0  0
   21.8933   16.0336   66.6841 H   0  0  0  0  0  0  0  0  0  0  0  0
   19.4468   16.3104   66.6169 H   0  0  0  0  0  0  0  0  0  0  0  0
   17.4329   15.2998   65.8910 H   0  0  0  0  0  0  0  0  0  0  0  0
   17.5329   16.1924   64.3353 H   0  0  0  0  0  0  0  0  0  0  0  0
   17.3444   14.4060   64.3353 H   0  0  0  0  0  0  0  0  0  0  0  0
   19.2387   13.7774   63.1829 H   0  0  0  0  0  0  0  0  0  0  0  0
   21.7221   13.5840   63.1425 H   0  0  0  0  0  0  0  0  0  0  0  0
   23.7784   13.8614   64.2935 H   0  0  0  0  0  0  0  0  0  0  0  0
   23.8989   15.6157   64.8030 H   0  0  0  0  0  0  0  0  0  0  0  0
   22.8622   13.7123   68.2828 H   0  0  0  0  0  0  0  0  0  0  0  0
   21.9040   13.2745   67.1349 H   0  0  0  0  0  0  0  0  0  0  0  0
   25.0462   12.1843   67.2223 H   0  0  0  0  0  0  0  0  0  0  0  0
   22.0940   11.6244   65.6644 H   0  0  0  0  0  0  0  0  0  0  0  0
   21.9635    9.8782   63.9832 H   0  0  0  0  0  0  0  0  0  0  0  0
   24.0255    9.0158   62.9070 H   0  0  0  0  0  0  0  0  0  0  0  0
   26.2132    9.8581   63.7038 H   0  0  0  0  0  0  0  0  0  0  0  0
   26.3876   11.6068   65.3823 H   0  0  0  0  0  0  0  0  0  0  0  0
  1  2  2  0
  1  7  1  0
  2  3  1  0
  3  4  1  0
  3  5  2  0
  5  6  1  0
  6  7  2  0
  7  8  1  0
  9  8  1  6
  9 10  1  0
  9 13  1  0
  9 14  1  0
 10 11  1  0
 10 12  2  0
 13 14  1  0
 14 15  1  0
 15 16  2  0
 15 20  1  0
 16 17  1  0
 17 18  2  0
 18 19  1  0
 19 20  2  0
  1 21  1  0
  2 22  1  0
  4 23  1  0
  4 24  1  0
  4 25  1  0
  5 26  1  0
  6 27  1  0
  8 28  1  0
  8 29  1  0
 13 30  1  0
 13 31  1  0
 14 32  1  1
 16 33  1  0
 17 34  1  0
 18 35  1  0
 19 36  1  0
 20 37  1  0
M  CHG  1  11  -1
M  END
>  <filename_input>  (12) 
6Z4N_Q7B_docked.sdf

>  <pdb_id>  (12) 
6Z4N_Q7B

>  <pose_rank>  (12) 
11

>  <num_atoms_heavy>  (12) 
20

>  <num_torsions>  (12) 
4

>  <pose>  (12) 
[23.96256597711478, 14.215287397599598, 66.40388265551884, -0.7421430458607332, 1.5105024620612357, -2.4049968191286313, -9.634933445974786, -5.50211617506987, 3.2940712835468746, 3.5215643359091207]

>  <energy>  (12) 
-405.1187381638958

>  <inter_energy>  (12) 
-420.8979025595455

>  <intra_energy>  (12) 
27.34567818750825

>  <rmsd>  (12) 
4.25538

>  <sdf_rank>  (12) 
0

$$$$

     RDKit          3D

 37 39  0  0  0  0  0  0  0  0999 V2000
   20.7230   16.0032   66.1307 C   0  0  0  0  0  0  0  0  0  0  0  0
   19.3519   16.0844   65.9525 C   0  0  0  0  0  0  0  0  0  0  0  0
   18.6872   15.1335   65.2254 C   0  0  0  0  0  0  0  0  0  0  0  0
   17.2890   15.2145   65.0781 C   0  0  0  0  0  0  0  0  0  0  0  0
   19.3958   14.0660   64.7174 C   0  0  0  0  0  0  0  0  0  0  0  0
   20.7909   13.9890   64.8552 C   0  0  0  0  0  0  0  0  0  0  0  0
   21.4856   14.9562   65.5868 C   0  0  0  0  0  0  0  0  0  0  0  0
   22.9327   14.9085   65.8161 C   0  0  0  0  0  0  0  0  0  0  0  0
   23.3238   14.6415   67.2719 C   0  0  1  0  0  0  0  0  0  0  0  0
   23.5025   15.9079   68.1068 C   0  0  0  0  0  0  0  0  0  0  0  0
   23.6879   16.9888   67.5097 O   0  0  0  0  0  0  0  0  0  0  0  0
   23.5441   15.7706   69.3632 O   0  0  0  0  0  0  0  0  0  0  0  0
   22.6123   13.5179   67.9058 C   0  0  0  0  0  0  0  0  0  0  0  0
   24.1151   13.4019   67.6574 C   0  0  1  0  0  0  0  0  0  0  0  0
   24.7065   12.5328   66.6498 C   0  0  0  0  0  0  0  0  0  0  0  0
   25.9259   12.9071   66.0599 C   0  0  0  0  0  0  0  0  0  0  0  0
   26.5371   12.1590   65.1121 C   0  0  0  0  0  0  0  0  0  0  0  0
   26.0016   10.9675   64.7169 C   0  0  0  0  0  0  0  0  0  0  0  0
   24.8062   10.5827   65.2909 C   0  0  0  0  0  0  0  0  0  0  0  0
   24.1748   11.3128   66.2420 C   0  0  0  0  0  0  0  0  0  0  0  0
   21.2310   16.7833   66.7166 H   0  0  0  0  0  0  0  0  0  0  0  0
   18.7924   16.9197   66.3988 H   0  0  0  0  0  0  0  0  0  0  0  0
   16.8167   15.2418   66.0712 H   0  0  0  0  0  0  0  0  0  0  0  0
   17.0309   16.1291   64.5241 H   0  0  0  0  0  0  0  0  0  0  0  0
   16.9271   14.3358   64.5241 H   0  0  0  0  0  0  0  0  0  0  0  0
   18.8590   13.2605   64.1949 H   0  0  0  0  0  0  0  0  0  0  0  0
   21.3412   13.1614   64.3839 H   0  0  0  0  0  0  0  0  0  0  0  0
   23.3556   14.1076   65.1919 H   0  0  0  0  0  0  0  0  0  0  0  0
   23.3290   15.9013   65.5570 H   0  0  0  0  0  0  0  0  0  0  0  0
   22.2334   13.6196   68.9335 H   0  0  0  0  0  0  0  0  0  0  0  0
   21.7357   12.9093   67.6392 H   0  0  0  0  0  0  0  0  0  0  0  0
   24.9901   13.1672   68.2813 H   0  0  0  0  0  0  0  0  0  0  0  0
   26.4024   13.8450   66.3813 H   0  0  0  0  0  0  0  0  0  0  0  0
   27.4731   12.5143   64.6564 H   0  0  0  0  0  0  0  0  0  0  0  0
   26.5039   10.3368   63.9686 H   0  0  0  0  0  0  0  0  0  0  0  0
   24.3452    9.6401   64.9609 H   0  0  0  0  0  0  0  0  0  0  0  0
   23.2421   10.9414   66.6916 H   0  0  0  0  0  0  0  0  0  0  0  0
  1  2  2  0
  1  7  1  0
  2  3  1  0
  3  4  1  0
  3  5  2  0
  5  6  1  0
  6  7  2  0
  7  8  1  0
  9  8  1  6
  9 10  1  0
  9 13  1  0
  9 14  1  0
 10 11  1  0
 10 12  2  0
 13 14  1  0
 14 15  1  0
 15 16  2  0
 15 20  1  0
 16 17  1  0
 17 18  2  0
 18 19  1  0
 19 20  2  0
  1 21  1  0
  2 22  1  0
  4 23  1  0
  4 24  1  0
  4 25  1  0
  5 26  1  0
  6 27  1  0
  8 28  1  0
  8 29  1  0
 13 30  1  0
 13 31  1  0
 14 32  1  1
 16 33  1  0
 17 34  1  0
 18 35  1  0
 19 36  1  0
 20 37  1  0
M  CHG  1  11  -1
M  END
>  <filename_input>  (13) 
6Z4N_Q7B_docked.sdf

>  <pdb_id>  (13) 
6Z4N_Q7B

>  <pose_rank>  (13) 
12

>  <num_atoms_heavy>  (13) 
20

>  <num_torsions>  (13) 
4

>  <pose>  (13) 
[23.323754074152514, 14.64153503932013, 67.27193399860312, -0.7346159248481999, 1.1839873298753896, -2.071561440181611, -0.5690525908715357, -3.820777626064424, -2.605448423139044, -2.4491358630148823]

>  <energy>  (13) 
-437.65036468341185

>  <inter_energy>  (13) 
-447.5031385617369

>  <intra_energy>  (13) 
9.394049540711467

>  <rmsd>  (13) 
4.37811

>  <sdf_rank>  (13) 
0

$$$$

     RDKit          3D

 37 39  0  0  0  0  0  0  0  0999 V2000
   22.0443   16.9367   67.4167 C   0  0  0  0  0  0  0  0  0  0  0  0
   21.6598   17.6694   68.5274 C   0  0  0  0  0  0  0  0  0  0  0  0
   20.3894   18.1706   68.6245 C   0  0  0  0  0  0  0  0  0  0  0  0
   20.0052   18.8885   69.7736 C   0  0  0  0  0  0  0  0  0  0  0  0
   19.4834   17.8906   67.6242 C   0  0  0  0  0  0  0  0  0  0  0  0
   19.8675   17.1833   66.4739 C   0  0  0  0  0  0  0  0  0  0  0  0
   21.1630   16.6725   66.3551 C   0  0  0  0  0  0  0  0  0  0  0  0
   21.6152   15.8798   65.2078 C   0  0  0  0  0  0  0  0  0  0  0  0
   21.2700   14.3915   65.3048 C   0  0  1  0  0  0  0  0  0  0  0  0
   19.9145   14.1114   65.9505 C   0  0  0  0  0  0  0  0  0  0  0  0
   19.7502   14.4355   67.1452 O   0  0  0  0  0  0  0  0  0  0  0  0
   19.0645   13.4804   65.2589 O   0  0  0  0  0  0  0  0  0  0  0  0
   21.6197   13.5982   64.1137 C   0  0  0  0  0  0  0  0  0  0  0  0
   22.3607   13.3390   65.4241 C   0  0  1  0  0  0  0  0  0  0  0  0
   23.7504   13.7063   65.6571 C   0  0  0  0  0  0  0  0  0  0  0  0
   24.2498   13.6795   66.9705 C   0  0  0  0  0  0  0  0  0  0  0  0
   25.5265   14.0128   67.2717 C   0  0  0  0  0  0  0  0  0  0  0  0
   26.4057   14.3532   66.2850 C   0  0  0  0  0  0  0  0  0  0  0  0
   25.9320   14.3792   64.9883 C   0  0  0  0  0  0  0  0  0  0  0  0
   24.6592   14.0493   64.6602 C   0  0  0  0  0  0  0  0  0  0  0  0
   23.0725   16.5493   67.3642 H   0  0  0  0  0  0  0  0  0  0  0  0
   22.3810   17.8501   69.3381 H   0  0  0  0  0  0  0  0  0  0  0  0
   20.3044   18.3293   70.6724 H   0  0  0  0  0  0  0  0  0  0  0  0
   20.4975   19.8722   69.7730 H   0  0  0  0  0  0  0  0  0  0  0  0
   18.9137   19.0247   69.7730 H   0  0  0  0  0  0  0  0  0  0  0  0
   18.4414   18.2271   67.7290 H   0  0  0  0  0  0  0  0  0  0  0  0
   19.1435   17.0300   65.6601 H   0  0  0  0  0  0  0  0  0  0  0  0
   21.1448   16.2856   64.3000 H   0  0  0  0  0  0  0  0  0  0  0  0
   22.7126   15.9512   65.1842 H   0  0  0  0  0  0  0  0  0  0  0  0
   20.9123   12.8496   63.7273 H   0  0  0  0  0  0  0  0  0  0  0  0
   21.9285   13.8416   63.0864 H   0  0  0  0  0  0  0  0  0  0  0  0
   22.5584   12.4512   66.0427 H   0  0  0  0  0  0  0  0  0  0  0  0
   23.5767   13.3756   67.7856 H   0  0  0  0  0  0  0  0  0  0  0  0
   25.8581   14.0093   68.3205 H   0  0  0  0  0  0  0  0  0  0  0  0
   27.4534   14.5978   66.5143 H   0  0  0  0  0  0  0  0  0  0  0  0
   26.6194   14.6816   64.1846 H   0  0  0  0  0  0  0  0  0  0  0  0
   24.3443   14.0527   63.6063 H   0  0  0  0  0  0  0  0  0  0  0  0
  1  2  2  0
  1  7  1  0
  2  3  1  0
  3  4  1  0
  3  5  2  0
  5  6  1  0
  6  7  2  0
  7  8  1  0
  9  8  1  6
  9 10  1  0
  9 13  1  0
  9 14  1  0
 10 11  1  0
 10 12  2  0
 13 14  1  0
 14 15  1  0
 15 16  2  0
 15 20  1  0
 16 17  1  0
 17 18  2  0
 18 19  1  0
 19 20  2  0
  1 21  1  0
  2 22  1  0
  4 23  1  0
  4 24  1  0
  4 25  1  0
  5 26  1  0
  6 27  1  0
  8 28  1  0
  8 29  1  0
 13 30  1  0
 13 31  1  0
 14 32  1  1
 16 33  1  0
 17 34  1  0
 18 35  1  0
 19 36  1  0
 20 37  1  0
M  CHG  1  11  -1
M  END
>  <filename_input>  (14) 
6Z4N_Q7B_docked.sdf

>  <pdb_id>  (14) 
6Z4N_Q7B

>  <pose_rank>  (14) 
13

>  <num_atoms_heavy>  (14) 
20

>  <num_torsions>  (14) 
4

>  <pose>  (14) 
[21.270030616481304, 14.391520675843402, 65.30481691773475, 0.6816207257027758, 1.0232230150243695, -0.7900782840993653, -6.565108402798939, 1.6844726536291874, 24.748833317937738, 10.602315825341828]

>  <energy>  (14) 
-258.0604595966184

>  <inter_energy>  (14) 
-319.2763774338222

>  <intra_energy>  (14) 
55.58975365767668

>  <rmsd>  (14) 
4.91683

>  <sdf_rank>  (14) 
0

$$$$

     RDKit          3D

 37 39  0  0  0  0  0  0  0  0999 V2000
   22.8625   13.0507   66.8279 C   0  0  0  0  0  0  0  0  0  0  0  0
   23.2693   11.9951   67.6270 C   0  0  0  0  0  0  0  0  0  0  0  0
   22.9752   10.7043   67.2777 C   0  0  0  0  0  0  0  0  0  0  0  0
   23.4213    9.6406   68.0857 C   0  0  0  0  0  0  0  0  0  0  0  0
   22.3135   10.4684   66.0918 C   0  0  0  0  0  0  0  0  0  0  0  0
   21.8598   11.5281   65.2902 C   0  0  0  0  0  0  0  0  0  0  0  0
   22.1440   12.8518   65.6372 C   0  0  0  0  0  0  0  0  0  0  0  0
   21.7486   14.0023   64.8195 C   0  0  0  0  0  0  0  0  0  0  0  0
   20.2369   14.1302   64.6146 C   0  0  1  0  0  0  0  0  0  0  0  0
   19.7843   13.8844   63.1767 C   0  0  0  0  0  0  0  0  0  0  0  0
   20.5321   13.2235   62.4261 O   0  0  0  0  0  0  0  0  0  0  0  0
   18.7149   14.4466   62.8034 O   0  0  0  0  0  0  0  0  0  0  0  0
   19.4167   13.5356   65.6843 C   0  0  0  0  0  0  0  0  0  0  0  0
   19.4012   15.0507   65.4898 C   0  0  1  0  0  0  0  0  0  0  0  0
   20.0201   15.9936   66.4108 C   0  0  0  0  0  0  0  0  0  0  0  0
   21.2017   15.6206   67.0739 C   0  0  0  0  0  0  0  0  0  0  0  0
   21.8345   16.4357   67.9496 C   0  0  0  0  0  0  0  0  0  0  0  0
   21.3614   17.6924   68.1936 C   0  0  0  0  0  0  0  0  0  0  0  0
   20.2041   18.0762   67.5458 C   0  0  0  0  0  0  0  0  0  0  0  0
   19.5522   17.2798   66.6643 C   0  0  0  0  0  0  0  0  0  0  0  0
   23.1099   14.0775   67.1353 H   0  0  0  0  0  0  0  0  0  0  0  0
   23.8333   12.1954   68.5500 H   0  0  0  0  0  0  0  0  0  0  0  0
   23.3073    9.9124   69.1455 H   0  0  0  0  0  0  0  0  0  0  0  0
   22.8243    8.7420   67.8713 H   0  0  0  0  0  0  0  0  0  0  0  0
   24.4808    9.4367   67.8713 H   0  0  0  0  0  0  0  0  0  0  0  0
   22.1378    9.4320   65.7678 H   0  0  0  0  0  0  0  0  0  0  0  0
   21.2764   11.3149   64.3824 H   0  0  0  0  0  0  0  0  0  0  0  0
   22.1095   14.9172   65.3122 H   0  0  0  0  0  0  0  0  0  0  0  0
   22.1932   13.8536   63.8245 H   0  0  0  0  0  0  0  0  0  0  0  0
   18.5277   12.9413   65.4266 H   0  0  0  0  0  0  0  0  0  0  0  0
   19.6212   12.8676   66.5341 H   0  0  0  0  0  0  0  0  0  0  0  0
   18.6165   15.8074   65.3431 H   0  0  0  0  0  0  0  0  0  0  0  0
   21.6291   14.6271   66.8732 H   0  0  0  0  0  0  0  0  0  0  0  0
   22.7374   16.0823   68.4691 H   0  0  0  0  0  0  0  0  0  0  0  0
   21.8831   18.3745   68.8811 H   0  0  0  0  0  0  0  0  0  0  0  0
   19.7922   19.0745   67.7550 H   0  0  0  0  0  0  0  0  0  0  0  0
   18.6534   17.6497   66.1491 H   0  0  0  0  0  0  0  0  0  0  0  0
  1  2  2  0
  1  7  1  0
  2  3  1  0
  3  4  1  0
  3  5  2  0
  5  6  1  0
  6  7  2  0
  7  8  1  0
  9  8  1  6
  9 10  1  0
  9 13  1  0
  9 14  1  0
 10 11  1  0
 10 12  2  0
 13 14  1  0
 14 15  1  0
 15 16  2  0
 15 20  1  0
 16 17  1  0
 17 18  2  0
 18 19  1  0
 19 20  2  0
  1 21  1  0
  2 22  1  0
  4 23  1  0
  4 24  1  0
  4 25  1  0
  5 26  1  0
  6 27  1  0
  8 28  1  0
  8 29  1  0
 13 30  1  0
 13 31  1  0
 14 32  1  6
 16 33  1  0
 17 34  1  0
 18 35  1  0
 19 36  1  0
 20 37  1  0
M  CHG  1  11  -1
M  END
>  <filename_input>  (15) 
6Z4N_Q7B_docked.sdf

>  <pdb_id>  (15) 
6Z4N_Q7B

>  <pose_rank>  (15) 
14

>  <num_atoms_heavy>  (15) 
20

>  <num_torsions>  (15) 
4

>  <pose>  (15) 
[20.236858072641276, 14.130191170052306, 64.61460560728206, 0.41232901093073393, 3.4482775484665456, 2.749000293429491, -8.882275957373073, 3.1826998393078956, 9.586673516977193, -12.016621934254387]

>  <energy>  (15) 
-280.1191445922783

>  <inter_energy>  (15) 
-335.81718464435426

>  <intra_energy>  (15) 
65.21634062452412

>  <rmsd>  (15) 
5.20151

>  <sdf_rank>  (15) 
0

$$$$

     RDKit          3D

 37 39  0  0  0  0  0  0  0  0999 V2000
   23.5326   12.3720   66.5190 C   0  0  0  0  0  0  0  0  0  0  0  0
   23.8666   11.3011   65.7065 C   0  0  0  0  0  0  0  0  0  0  0  0
   23.3904   11.2250   64.4251 C   0  0  0  0  0  0  0  0  0  0  0  0
   23.7629   10.1446   63.6021 C   0  0  0  0  0  0  0  0  0  0  0  0
   22.6160   12.2563   63.9387 C   0  0  0  0  0  0  0  0  0  0  0  0
   22.2360   13.3290   64.7609 C   0  0  0  0  0  0  0  0  0  0  0  0
   22.7063   13.4173   66.0741 C   0  0  0  0  0  0  0  0  0  0  0  0
   22.3938   14.5354   66.9690 C   0  0  0  0  0  0  0  0  0  0  0  0
   23.4509   15.6427   66.9741 C   0  0  1  0  0  0  0  0  0  0  0  0
   24.8720   15.1404   67.2207 C   0  0  0  0  0  0  0  0  0  0  0  0
   25.7874   15.5727   66.4896 O   0  0  0  0  0  0  0  0  0  0  0  0
   25.0231   14.2411   68.0968 O   0  0  0  0  0  0  0  0  0  0  0  0
   23.2759   16.6676   65.9303 C   0  0  0  0  0  0  0  0  0  0  0  0
   23.1002   17.0607   67.3960 C   0  0  1  0  0  0  0  0  0  0  0  0
   21.8151   17.3783   68.0027 C   0  0  0  0  0  0  0  0  0  0  0  0
   21.7837   17.8215   69.3360 C   0  0  0  0  0  0  0  0  0  0  0  0
   20.6310   18.1302   69.9745 C   0  0  0  0  0  0  0  0  0  0  0  0
   19.4356   18.0617   69.3195 C   0  0  0  0  0  0  0  0  0  0  0  0
   19.4499   17.6331   68.0071 C   0  0  0  0  0  0  0  0  0  0  0  0
   20.5898   17.3188   67.3451 C   0  0  0  0  0  0  0  0  0  0  0  0
   23.9270   12.4050   67.5454 H   0  0  0  0  0  0  0  0  0  0  0  0
   24.5198   10.5054   66.0939 H   0  0  0  0  0  0  0  0  0  0  0  0
   24.0575    9.2904   64.2294 H   0  0  0  0  0  0  0  0  0  0  0  0
   22.9121    9.8570   62.9670 H   0  0  0  0  0  0  0  0  0  0  0  0
   24.6102   10.4426   62.9670 H   0  0  0  0  0  0  0  0  0  0  0  0
   22.2902   12.2385   62.8883 H   0  0  0  0  0  0  0  0  0  0  0  0
   21.5632   14.1058   64.3686 H   0  0  0  0  0  0  0  0  0  0  0  0
   21.4354   14.9736   66.6536 H   0  0  0  0  0  0  0  0  0  0  0  0
   22.3568   14.1259   67.9892 H   0  0  0  0  0  0  0  0  0  0  0  0
   24.1484   17.0300   65.3670 H   0  0  0  0  0  0  0  0  0  0  0  0
   22.6534   16.7527   65.0275 H   0  0  0  0  0  0  0  0  0  0  0  0
   23.5280   17.8351   68.0496 H   0  0  0  0  0  0  0  0  0  0  0  0
   22.7333   17.9214   69.8822 H   0  0  0  0  0  0  0  0  0  0  0  0
   20.6578   18.4389   71.0299 H   0  0  0  0  0  0  0  0  0  0  0  0
   18.4952   18.3379   69.8189 H   0  0  0  0  0  0  0  0  0  0  0  0
   18.4918   17.5424   67.4743 H   0  0  0  0  0  0  0  0  0  0  0  0
   20.5468   17.0168   66.2883 H   0  0  0  0  0  0  0  0  0  0  0  0
  1  2  2  0
  1  7  1  0
  2  3  1  0
  3  4  1  0
  3  5  2  0
  5  6  1  0
  6  7  2  0
  7  8  1  0
  9  8  1  6
  9 10  1  0
  9 13  1  0
  9 14  1  0
 10 11  1  0
 10 12  2  0
 13 14  1  0
 14 15  1  0
 15 16  2  0
 15 20  1  0
 16 17  1  0
 17 18  2  0
 18 19  1  0
 19 20  2  0
  1 21  1  0
  2 22  1  0
  4 23  1  0
  4 24  1  0
  4 25  1  0
  5 26  1  0
  6 27  1  0
  8 28  1  0
  8 29  1  0
 13 30  1  0
 13 31  1  0
 14 32  1  1
 16 33  1  0
 17 34  1  0
 18 35  1  0
 19 36  1  0
 20 37  1  0
M  CHG  1  11  -1
M  END
>  <filename_input>  (16) 
6Z4N_Q7B_docked.sdf

>  <pdb_id>  (16) 
6Z4N_Q7B

>  <pose_rank>  (16) 
15

>  <num_atoms_heavy>  (16) 
20

>  <num_torsions>  (16) 
4

>  <pose>  (16) 
[23.4508779003802, 15.642727041472622, 66.9741037145303, 1.2420748650604214, -2.148869527414233, -3.4107275837465667, 0.027008480610054404, -1.1384954196521169, -8.21254500534227, 4.135088795928376]

>  <energy>  (16) 
-326.12801255292516

>  <inter_energy>  (16) 
-357.41650224496334

>  <intra_energy>  (16) 
40.710703944314645

>  <rmsd>  (16) 
5.39731

>  <sdf_rank>  (16) 
0

$$$$

     RDKit          3D

 37 39  0  0  0  0  0  0  0  0999 V2000
   23.4148   14.3032   67.1237 C   0  0  0  0  0  0  0  0  0  0  0  0
   24.6003   15.0189   67.1521 C   0  0  0  0  0  0  0  0  0  0  0  0
   25.7945   14.3971   66.9033 C   0  0  0  0  0  0  0  0  0  0  0  0
   26.9880   15.1447   66.9071 C   0  0  0  0  0  0  0  0  0  0  0  0
   25.7939   13.0590   66.5727 C   0  0  0  0  0  0  0  0  0  0  0  0
   24.6061   12.3105   66.5779 C   0  0  0  0  0  0  0  0  0  0  0  0
   23.3797   12.9281   66.8385 C   0  0  0  0  0  0  0  0  0  0  0  0
   22.0971   12.2192   66.8071 C   0  0  0  0  0  0  0  0  0  0  0  0
   22.2164   10.7070   67.0139 C   0  0  1  0  0  0  0  0  0  0  0  0
   22.7423   10.3106   68.3920 C   0  0  0  0  0  0  0  0  0  0  0  0
   21.9258   10.2164   69.3321 O   0  0  0  0  0  0  0  0  0  0  0  0
   23.9946   10.1902   68.5198 O   0  0  0  0  0  0  0  0  0  0  0  0
   21.0935    9.9201   66.4753 C   0  0  0  0  0  0  0  0  0  0  0  0
   22.4762    9.7728   65.8430 C   0  0  1  0  0  0  0  0  0  0  0  0
   22.8245   10.2836   64.5246 C   0  0  0  0  0  0  0  0  0  0  0  0
   22.0613   11.3291   63.9770 C   0  0  0  0  0  0  0  0  0  0  0  0
   22.3153   11.8548   62.7561 C   0  0  0  0  0  0  0  0  0  0  0  0
   23.3705   11.4083   62.0145 C   0  0  0  0  0  0  0  0  0  0  0  0
   24.1335   10.3850   62.5408 C   0  0  0  0  0  0  0  0  0  0  0  0
   23.9008    9.8421   63.7605 C   0  0  0  0  0  0  0  0  0  0  0  0
   22.4707   14.8283   67.3310 H   0  0  0  0  0  0  0  0  0  0  0  0
   24.5823   16.0956   67.3764 H   0  0  0  0  0  0  0  0  0  0  0  0
   27.2964   15.3378   67.9452 H   0  0  0  0  0  0  0  0  0  0  0  0
   27.7767   14.5789   66.3895 H   0  0  0  0  0  0  0  0  0  0  0  0
   26.8232   16.1012   66.3895 H   0  0  0  0  0  0  0  0  0  0  0  0
   26.7403   12.5691   66.3001 H   0  0  0  0  0  0  0  0  0  0  0  0
   24.6409   11.2298   66.3753 H   0  0  0  0  0  0  0  0  0  0  0  0
   21.4565   12.6277   67.6026 H   0  0  0  0  0  0  0  0  0  0  0  0
   21.6741   12.3707   65.8030 H   0  0  0  0  0  0  0  0  0  0  0  0
   20.6705    9.0941   67.0659 H   0  0  0  0  0  0  0  0  0  0  0  0
   20.0913   10.1648   66.0935 H   0  0  0  0  0  0  0  0  0  0  0  0
   23.1431    8.9267   65.6209 H   0  0  0  0  0  0  0  0  0  0  0  0
   21.2247   11.7360   64.5639 H   0  0  0  0  0  0  0  0  0  0  0  0
   21.6659   12.6485   62.3581 H   0  0  0  0  0  0  0  0  0  0  0  0
   23.6045   11.8476   61.0336 H   0  0  0  0  0  0  0  0  0  0  0  0
   24.9689    9.9923   61.9425 H   0  0  0  0  0  0  0  0  0  0  0  0
   24.5624    9.0527   64.1465 H   0  0  0  0  0  0  0  0  0  0  0  0
  1  2  2  0
  1  7  1  0
  2  3  1  0
  3  4  1  0
  3  5  2  0
  5  6  1  0
  6  7  2  0
  7  8  1  0
  9  8  1  6
  9 10  1  0
  9 13  1  0
  9 14  1  0
 10 11  1  0
 10 12  2  0
 13 14  1  0
 14 15  1  0
 15 16  2  0
 15 20  1  0
 16 17  1  0
 17 18  2  0
 18 19  1  0
 19 20  2  0
  1 21  1  0
  2 22  1  0
  4 23  1  0
  4 24  1  0
  4 25  1  0
  5 26  1  0
  6 27  1  0
  8 28  1  0
  8 29  1  0
 13 30  1  0
 13 31  1  0
 14 32  1  1
 16 33  1  0
 17 34  1  0
 18 35  1  0
 19 36  1  0
 20 37  1  0
M  CHG  1  11  -1
M  END
>  <filename_input>  (17) 
6Z4N_Q7B_docked.sdf

>  <pdb_id>  (17) 
6Z4N_Q7B

>  <pose_rank>  (17) 
16

>  <num_atoms_heavy>  (17) 
20

>  <num_torsions>  (17) 
4

>  <pose>  (17) 
[22.216394917033583, 10.707046437757036, 67.01394369031175, -0.04488531434448247, 2.3692936600160577, -1.1736940366775064, 16.046202984678338, 4.288007300604359, -12.464441207202679, 6.179217514383831]

>  <energy>  (17) 
-365.01023046664255

>  <inter_energy>  (17) 
-421.2234809025076

>  <intra_energy>  (17) 
59.14055855168958

>  <rmsd>  (17) 
5.20472

>  <sdf_rank>  (17) 
0

$$$$

     RDKit          3D

 37 39  0  0  0  0  0  0  0  0999 V2000
   25.2636   13.3297   65.5002 C   0  0  0  0  0  0  0  0  0  0  0  0
   24.9779   12.4017   64.5125 C   0  0  0  0  0  0  0  0  0  0  0  0
   23.6832   12.1594   64.1390 C   0  0  0  0  0  0  0  0  0  0  0  0
   23.4113   11.2341   63.1127 C   0  0  0  0  0  0  0  0  0  0  0  0
   22.6720   12.8910   64.7240 C   0  0  0  0  0  0  0  0  0  0  0  0
   22.9407   13.8067   65.7537 C   0  0  0  0  0  0  0  0  0  0  0  0
   24.2560   14.0591   66.1530 C   0  0  0  0  0  0  0  0  0  0  0  0
   24.6121   15.0402   67.1823 C   0  0  0  0  0  0  0  0  0  0  0  0
   23.8242   14.8884   68.4860 C   0  0  1  0  0  0  0  0  0  0  0  0
   23.9429   13.5055   69.1233 C   0  0  0  0  0  0  0  0  0  0  0  0
   24.3922   13.4264   70.2857 O   0  0  0  0  0  0  0  0  0  0  0  0
   23.6632   12.5087   68.3971 O   0  0  0  0  0  0  0  0  0  0  0  0
   23.8974   16.0494   69.3900 C   0  0  0  0  0  0  0  0  0  0  0  0
   22.5615   15.6967   68.7387 C   0  0  1  0  0  0  0  0  0  0  0  0
   21.9390   16.4852   67.6845 C   0  0  0  0  0  0  0  0  0  0  0  0
   20.5787   16.2817   67.3962 C   0  0  0  0  0  0  0  0  0  0  0  0
   19.9281   16.9683   66.4282 C   0  0  0  0  0  0  0  0  0  0  0  0
   20.5724   17.9338   65.7104 C   0  0  0  0  0  0  0  0  0  0  0  0
   21.9082   18.1497   65.9852 C   0  0  0  0  0  0  0  0  0  0  0  0
   22.5821   17.4767   66.9492 C   0  0  0  0  0  0  0  0  0  0  0  0
   26.3129   13.5011   65.7823 H   0  0  0  0  0  0  0  0  0  0  0  0
   25.7980   11.8547   64.0243 H   0  0  0  0  0  0  0  0  0  0  0  0
   23.1275   10.2681   63.5557 H   0  0  0  0  0  0  0  0  0  0  0  0
   22.5853   11.6089   62.4904 H   0  0  0  0  0  0  0  0  0  0  0  0
   24.3088   11.1026   62.4904 H   0  0  0  0  0  0  0  0  0  0  0  0
   21.6367   12.7549   64.3781 H   0  0  0  0  0  0  0  0  0  0  0  0
   22.1097   14.3295   66.2499 H   0  0  0  0  0  0  0  0  0  0  0  0
   25.6825   14.9296   67.4101 H   0  0  0  0  0  0  0  0  0  0  0  0
   24.3660   16.0321   66.7753 H   0  0  0  0  0  0  0  0  0  0  0  0
   24.0380   15.8946   70.4699 H   0  0  0  0  0  0  0  0  0  0  0  0
   24.5196   16.9554   69.4354 H   0  0  0  0  0  0  0  0  0  0  0  0
   21.5433   15.5047   69.1082 H   0  0  0  0  0  0  0  0  0  0  0  0
   20.0207   15.5351   67.9804 H   0  0  0  0  0  0  0  0  0  0  0  0
   18.8714   16.7463   66.2183 H   0  0  0  0  0  0  0  0  0  0  0  0
   20.0468   18.5185   64.9411 H   0  0  0  0  0  0  0  0  0  0  0  0
   22.4504   18.9026   65.3943 H   0  0  0  0  0  0  0  0  0  0  0  0
   23.6372   17.7139   67.1505 H   0  0  0  0  0  0  0  0  0  0  0  0
  1  2  2  0
  1  7  1  0
  2  3  1  0
  3  4  1  0
  3  5  2  0
  5  6  1  0
  6  7  2  0
  7  8  1  0
  9  8  1  6
  9 10  1  0
  9 13  1  0
  9 14  1  0
 10 11  1  0
 10 12  2  0
 13 14  1  0
 14 15  1  0
 15 16  2  0
 15 20  1  0
 16 17  1  0
 17 18  2  0
 18 19  1  0
 19 20  2  0
  1 21  1  0
  2 22  1  0
  4 23  1  0
  4 24  1  0
  4 25  1  0
  5 26  1  0
  6 27  1  0
  8 28  1  0
  8 29  1  0
 13 30  1  0
 13 31  1  0
 14 32  1  1
 16 33  1  0
 17 34  1  0
 18 35  1  0
 19 36  1  0
 20 37  1  0
M  CHG  1  11  -1
M  END
>  <filename_input>  (18) 
6Z4N_Q7B_docked.sdf

>  <pdb_id>  (18) 
6Z4N_Q7B

>  <pose_rank>  (18) 
17

>  <num_atoms_heavy>  (18) 
20

>  <num_torsions>  (18) 
4

>  <pose>  (18) 
[23.824193619398258, 14.888416757774548, 68.48603664520921, -0.8312621245140094, -1.0671729193560369, 0.8300801789981143, 0.22978958268133576, -1.3607369782531056, 6.248789762280421, 0.3840728873271349]

>  <energy>  (18) 
-321.92706323551266

>  <inter_energy>  (18) 
-368.6419942211586

>  <intra_energy>  (18) 
50.00136734766511

>  <rmsd>  (18) 
5.04349

>  <sdf_rank>  (18) 
0

$$$$

     RDKit          3D

 37 39  0  0  0  0  0  0  0  0999 V2000
   21.9253   15.7582   65.7782 C   0  0  0  0  0  0  0  0  0  0  0  0
   22.8770   14.7530   65.8244 C   0  0  0  0  0  0  0  0  0  0  0  0
   22.5003   13.4368   65.8078 C   0  0  0  0  0  0  0  0  0  0  0  0
   23.4814   12.4267   65.8257 C   0  0  0  0  0  0  0  0  0  0  0  0
   21.1622   13.1273   65.6917 C   0  0  0  0  0  0  0  0  0  0  0  0
   20.1824   14.1329   65.6833 C   0  0  0  0  0  0  0  0  0  0  0  0
   20.5498   15.4811   65.7087 C   0  0  0  0  0  0  0  0  0  0  0  0
   19.5833   16.5815   65.6478 C   0  0  0  0  0  0  0  0  0  0  0  0
   18.1229   16.1334   65.7478 C   0  0  1  0  0  0  0  0  0  0  0  0
   17.4885   15.7865   64.4024 C   0  0  0  0  0  0  0  0  0  0  0  0
   16.4215   16.3537   64.0878 O   0  0  0  0  0  0  0  0  0  0  0  0
   18.0372   14.8713   63.7238 O   0  0  0  0  0  0  0  0  0  0  0  0
   17.8294   15.2338   66.8770 C   0  0  0  0  0  0  0  0  0  0  0  0
   17.2226   16.6356   66.8653 C   0  0  1  0  0  0  0  0  0  0  0  0
   17.6415   17.7089   67.7558 C   0  0  0  0  0  0  0  0  0  0  0  0
   16.9813   18.9476   67.6854 C   0  0  0  0  0  0  0  0  0  0  0  0
   17.3145   19.9969   68.4725 C   0  0  0  0  0  0  0  0  0  0  0  0
   18.2960   19.8743   69.4129 C   0  0  0  0  0  0  0  0  0  0  0  0
   18.9509   18.6618   69.4984 C   0  0  0  0  0  0  0  0  0  0  0  0
   18.6361   17.5960   68.7229 C   0  0  0  0  0  0  0  0  0  0  0  0
   22.2570   16.8068   65.7965 H   0  0  0  0  0  0  0  0  0  0  0  0
   23.9444   15.0143   65.8749 H   0  0  0  0  0  0  0  0  0  0  0  0
   23.7277   12.1732   66.8674 H   0  0  0  0  0  0  0  0  0  0  0  0
   23.0973   11.5332   65.3119 H   0  0  0  0  0  0  0  0  0  0  0  0
   24.3857   12.7848   65.3119 H   0  0  0  0  0  0  0  0  0  0  0  0
   20.8566   12.0742   65.6040 H   0  0  0  0  0  0  0  0  0  0  0  0
   19.1178   13.8576   65.6566 H   0  0  0  0  0  0  0  0  0  0  0  0
   19.7913   17.2711   66.4792 H   0  0  0  0  0  0  0  0  0  0  0  0
   19.7037   17.0569   64.6631 H   0  0  0  0  0  0  0  0  0  0  0  0
   17.1839   14.3563   66.7246 H   0  0  0  0  0  0  0  0  0  0  0  0
   18.4427   14.6631   67.5899 H   0  0  0  0  0  0  0  0  0  0  0  0
   16.2049   17.0427   66.9576 H   0  0  0  0  0  0  0  0  0  0  0  0
   16.1616   19.0691   66.9620 H   0  0  0  0  0  0  0  0  0  0  0  0
   16.7898   20.9563   68.3535 H   0  0  0  0  0  0  0  0  0  0  0  0
   18.5559   20.7109   70.0781 H   0  0  0  0  0  0  0  0  0  0  0  0
   19.7656   18.5560   70.2299 H   0  0  0  0  0  0  0  0  0  0  0  0
   19.1665   16.6418   68.8577 H   0  0  0  0  0  0  0  0  0  0  0  0
  1  2  2  0
  1  7  1  0
  2  3  1  0
  3  4  1  0
  3  5  2  0
  5  6  1  0
  6  7  2  0
  7  8  1  0
  9  8  1  6
  9 10  1  0
  9 13  1  0
  9 14  1  0
 10 11  1  0
 10 12  2  0
 13 14  1  0
 14 15  1  0
 15 16  2  0
 15 20  1  0
 16 17  1  0
 17 18  2  0
 18 19  1  0
 19 20  2  0
  1 21  1  0
  2 22  1  0
  4 23  1  0
  4 24  1  0
  4 25  1  0
  5 26  1  0
  6 27  1  0
  8 28  1  0
  8 29  1  0
 13 30  1  0
 13 31  1  0
 14 32  1  6
 16 33  1  0
 17 34  1  0
 18 35  1  0
 19 36  1  0
 20 37  1  0
M  CHG  1  11  -1
M  END
>  <filename_input>  (19) 
6Z4N_Q7B_docked.sdf

>  <pdb_id>  (19) 
6Z4N_Q7B

>  <pose_rank>  (19) 
18

>  <num_atoms_heavy>  (19) 
20

>  <num_torsions>  (19) 
4

>  <pose>  (19) 
[18.12285170601416, 16.13344445073947, 65.74778164214999, -0.12743965362827317, 3.92661698396143, 2.8114723945729923, 6.266285089635697, -5.68305328237976, 41.41772217744591, 18.486994705693096]

>  <energy>  (19) 
-242.9949261118425

>  <inter_energy>  (19) 
-283.3329823329833

>  <intra_energy>  (19) 
50.921449167133254

>  <rmsd>  (19) 
7.1103

>  <sdf_rank>  (19) 
0

$$$$

     RDKit          3D

 37 39  0  0  0  0  0  0  0  0999 V2000
   17.7034   15.1093   66.4276 C   0  0  0  0  0  0  0  0  0  0  0  0
   16.7966   16.1159   66.7154 C   0  0  0  0  0  0  0  0  0  0  0  0
   16.1951   16.8199   65.7068 C   0  0  0  0  0  0  0  0  0  0  0  0
   15.2533   17.8204   66.0155 C   0  0  0  0  0  0  0  0  0  0  0  0
   16.4664   16.4766   64.3998 C   0  0  0  0  0  0  0  0  0  0  0  0
   17.4120   15.4860   64.0906 C   0  0  0  0  0  0  0  0  0  0  0  0
   18.0415   14.7642   65.1085 C   0  0  0  0  0  0  0  0  0  0  0  0
   18.9970   13.6813   64.8568 C   0  0  0  0  0  0  0  0  0  0  0  0
   19.7019   13.7757   63.5012 C   0  0  1  0  0  0  0  0  0  0  0  0
   18.9920   13.0190   62.3805 C   0  0  0  0  0  0  0  0  0  0  0  0
   17.8348   12.5994   62.5907 O   0  0  0  0  0  0  0  0  0  0  0  0
   19.6576   12.7813   61.3319 O   0  0  0  0  0  0  0  0  0  0  0  0
   20.2340   15.1100   63.1741 C   0  0  0  0  0  0  0  0  0  0  0  0
   21.2087   13.9579   63.4111 C   0  0  1  0  0  0  0  0  0  0  0  0
   22.0606   13.8442   64.5865 C   0  0  0  0  0  0  0  0  0  0  0  0
   22.5918   12.5871   64.9223 C   0  0  0  0  0  0  0  0  0  0  0  0
   23.3858   12.3961   66.0015 C   0  0  0  0  0  0  0  0  0  0  0  0
   23.7417   13.4474   66.7956 C   0  0  0  0  0  0  0  0  0  0  0  0
   23.2323   14.6904   66.4761 C   0  0  0  0  0  0  0  0  0  0  0  0
   22.4363   14.9083   65.4012 C   0  0  0  0  0  0  0  0  0  0  0  0
   18.1738   14.5628   67.2583 H   0  0  0  0  0  0  0  0  0  0  0  0
   16.5576   16.3516   67.7630 H   0  0  0  0  0  0  0  0  0  0  0  0
   15.1639   17.9154   67.1078 H   0  0  0  0  0  0  0  0  0  0  0  0
   15.5842   18.7793   65.5899 H   0  0  0  0  0  0  0  0  0  0  0  0
   14.2762   17.5481   65.5899 H   0  0  0  0  0  0  0  0  0  0  0  0
   15.9327   16.9876   63.5849 H   0  0  0  0  0  0  0  0  0  0  0  0
   17.6593   15.2764   63.0395 H   0  0  0  0  0  0  0  0  0  0  0  0
   19.7620   13.7044   65.6469 H   0  0  0  0  0  0  0  0  0  0  0  0
   18.4216   12.7438   64.8518 H   0  0  0  0  0  0  0  0  0  0  0  0
   20.1043   15.5180   62.1608 H   0  0  0  0  0  0  0  0  0  0  0  0
   20.1098   16.1170   63.5991 H   0  0  0  0  0  0  0  0  0  0  0  0
   22.0406   13.5146   62.8442 H   0  0  0  0  0  0  0  0  0  0  0  0
   22.3529   11.7246   64.2827 H   0  0  0  0  0  0  0  0  0  0  0  0
   23.7473   11.3850   66.2406 H   0  0  0  0  0  0  0  0  0  0  0  0
   24.4099   13.3097   67.6585 H   0  0  0  0  0  0  0  0  0  0  0  0
   23.4842   15.5429   67.1239 H   0  0  0  0  0  0  0  0  0  0  0  0
   22.0873   15.9261   65.1726 H   0  0  0  0  0  0  0  0  0  0  0  0
  1  2  2  0
  1  7  1  0
  2  3  1  0
  3  4  1  0
  3  5  2  0
  5  6  1  0
  6  7  2  0
  7  8  1  0
  9  8  1  1
  9 10  1  0
  9 13  1  0
  9 14  1  0
 10 11  1  0
 10 12  2  0
 13 14  1  0
 14 15  1  0
 15 16  2  0
 15 20  1  0
 16 17  1  0
 17 18  2  0
 18 19  1  0
 19 20  2  0
  1 21  1  0
  2 22  1  0
  4 23  1  0
  4 24  1  0
  4 25  1  0
  5 26  1  0
  6 27  1  0
  8 28  1  0
  8 29  1  0
 13 30  1  0
 13 31  1  0
 14 32  1  6
 16 33  1  0
 17 34  1  0
 18 35  1  0
 19 36  1  0
 20 37  1  0
M  CHG  1  11  -1
M  END
>  <filename_input>  (20) 
6Z4N_Q7B_docked.sdf

>  <pdb_id>  (20) 
6Z4N_Q7B

>  <pose_rank>  (20) 
19

>  <num_atoms_heavy>  (20) 
20

>  <num_torsions>  (20) 
4

>  <pose>  (20) 
[19.701926694427932, 13.77573785608942, 63.501197058430805, 1.580139318505307, 1.2425325141845631, 0.9531890669130566, -0.40038611823095627, 3.004027643140583, -2.623343894501541, -0.07031307738369952]

>  <energy>  (20) 
-294.55238568263877

>  <inter_energy>  (20) 
-324.53390215519335

>  <intra_energy>  (20) 
30.33893757722198

>  <rmsd>  (20) 
4.85197

>  <sdf_rank>  (20) 
0

$$$$

     RDKit          3D

 37 39  0  0  0  0  0  0  0  0999 V2000
   22.8503   10.0959   68.0040 C   0  0  0  0  0  0  0  0  0  0  0  0
   23.0196    9.1109   68.9628 C   0  0  0  0  0  0  0  0  0  0  0  0
   23.2702    9.4448   70.2668 C   0  0  0  0  0  0  0  0  0  0  0  0
   23.4108    8.4319   71.2351 C   0  0  0  0  0  0  0  0  0  0  0  0
   23.2995   10.7767   70.6205 C   0  0  0  0  0  0  0  0  0  0  0  0
   23.1690   11.7874   69.6549 C   0  0  0  0  0  0  0  0  0  0  0  0
   22.9218   11.4633   68.3180 C   0  0  0  0  0  0  0  0  0  0  0  0
   22.7215   12.4671   67.2687 C   0  0  0  0  0  0  0  0  0  0  0  0
   23.9708   13.2928   66.9506 C   0  0  1  0  0  0  0  0  0  0  0  0
   23.9761   14.6790   67.5916 C   0  0  0  0  0  0  0  0  0  0  0  0
   23.1187   14.9307   68.4639 O   0  0  0  0  0  0  0  0  0  0  0  0
   24.7960   15.5250   67.1319 O   0  0  0  0  0  0  0  0  0  0  0  0
   25.2347   12.5366   66.9826 C   0  0  0  0  0  0  0  0  0  0  0  0
   24.7339   13.0926   65.6509 C   0  0  1  0  0  0  0  0  0  0  0  0
   24.2019   12.2674   64.5754 C   0  0  0  0  0  0  0  0  0  0  0  0
   24.6937   10.9608   64.4140 C   0  0  0  0  0  0  0  0  0  0  0  0
   24.2570   10.1333   63.4361 C   0  0  0  0  0  0  0  0  0  0  0  0
   23.2719   10.5311   62.5795 C   0  0  0  0  0  0  0  0  0  0  0  0
   22.7742   11.8105   62.7283 C   0  0  0  0  0  0  0  0  0  0  0  0
   23.1936   12.6579   63.6990 C   0  0  0  0  0  0  0  0  0  0  0  0
   22.6536    9.7981   66.9635 H   0  0  0  0  0  0  0  0  0  0  0  0
   22.9522    8.0515   68.6743 H   0  0  0  0  0  0  0  0  0  0  0  0
   23.3493    8.8745   72.2402 H   0  0  0  0  0  0  0  0  0  0  0  0
   22.6067    7.6916   71.1106 H   0  0  0  0  0  0  0  0  0  0  0  0
   24.3860    7.9385   71.1106 H   0  0  0  0  0  0  0  0  0  0  0  0
   23.4273   11.0524   71.6777 H   0  0  0  0  0  0  0  0  0  0  0  0
   23.2622   12.8422   69.9526 H   0  0  0  0  0  0  0  0  0  0  0  0
   22.4057   11.9498   66.3507 H   0  0  0  0  0  0  0  0  0  0  0  0
   21.9618   13.1700   67.6413 H   0  0  0  0  0  0  0  0  0  0  0  0
   26.1234   12.9754   67.4598 H   0  0  0  0  0  0  0  0  0  0  0  0
   25.5300   11.5397   67.3419 H   0  0  0  0  0  0  0  0  0  0  0  0
   25.1637   13.7292   64.8635 H   0  0  0  0  0  0  0  0  0  0  0  0
   25.4638   10.5963   65.1098 H   0  0  0  0  0  0  0  0  0  0  0  0
   24.6998    9.1319   63.3309 H   0  0  0  0  0  0  0  0  0  0  0  0
   22.8883    9.8573   61.7993 H   0  0  0  0  0  0  0  0  0  0  0  0
   22.0017   12.1578   62.0264 H   0  0  0  0  0  0  0  0  0  0  0  0
   22.7372   13.6542   63.7944 H   0  0  0  0  0  0  0  0  0  0  0  0
  1  2  2  0
  1  7  1  0
  2  3  1  0
  3  4  1  0
  3  5  2  0
  5  6  1  0
  6  7  2  0
  7  8  1  0
  9  8  1  6
  9 10  1  0
  9 13  1  0
  9 14  1  0
 10 11  1  0
 10 12  2  0
 13 14  1  0
 14 15  1  0
 15 16  2  0
 15 20  1  0
 16 17  1  0
 17 18  2  0
 18 19  1  0
 19 20  2  0
  1 21  1  0
  2 22  1  0
  4 23  1  0
  4 24  1  0
  4 25  1  0
  5 26  1  0
  6 27  1  0
  8 28  1  0
  8 29  1  0
 13 30  1  0
 13 31  1  0
 14 32  1  6
 16 33  1  0
 17 34  1  0
 18 35  1  0
 19 36  1  0
 20 37  1  0
M  CHG  1  11  -1
M  END
>  <filename_input>  (21) 
6Z4N_Q7B_docked.sdf

>  <pdb_id>  (21) 
6Z4N_Q7B

>  <pose_rank>  (21) 
20

>  <num_atoms_heavy>  (21) 
20

>  <num_torsions>  (21) 
4

>  <pose>  (21) 
[23.97075214521454, 13.29276821463782, 66.95055365351112, 3.2500539320681248, -1.3818256426927773, 0.6191719810804073, -3.73593041251291, 3.002562915527408, -2.782004559933406, 0.6728819190720009]

>  <energy>  (21) 
-412.57896468099585

>  <inter_energy>  (21) 
-404.9476904303669

>  <intra_energy>  (21) 
9.225380459329285

>  <rmsd>  (21) 
6.06852

>  <sdf_rank>  (21) 
0

$$$$

     RDKit          3D

 37 39  0  0  0  0  0  0  0  0999 V2000
   19.0133   16.5745   65.5105 C   0  0  0  0  0  0  0  0  0  0  0  0
   18.3281   17.7781   65.5283 C   0  0  0  0  0  0  0  0  0  0  0  0
   17.1307   17.9068   64.8770 C   0  0  0  0  0  0  0  0  0  0  0  0
   16.4323   19.1285   64.9292 C   0  0  0  0  0  0  0  0  0  0  0  0
   16.5922   16.8054   64.2471 C   0  0  0  0  0  0  0  0  0  0  0  0
   17.2917   15.5896   64.1862 C   0  0  0  0  0  0  0  0  0  0  0  0
   18.5193   15.4443   64.8382 C   0  0  0  0  0  0  0  0  0  0  0  0
   19.2765   14.1894   64.8612 C   0  0  0  0  0  0  0  0  0  0  0  0
   20.2202   14.0098   63.6692 C   0  0  1  0  0  0  0  0  0  0  0  0
   19.5243   13.5355   62.3950 C   0  0  0  0  0  0  0  0  0  0  0  0
   18.7715   12.5418   62.4671 O   0  0  0  0  0  0  0  0  0  0  0  0
   19.8260   14.1254   61.3180 O   0  0  0  0  0  0  0  0  0  0  0  0
   21.2363   15.0664   63.5221 C   0  0  0  0  0  0  0  0  0  0  0  0
   21.6828   13.6484   63.8735 C   0  0  1  0  0  0  0  0  0  0  0  0
   22.1951   13.2590   65.1797 C   0  0  0  0  0  0  0  0  0  0  0  0
   21.9613   11.9518   65.6398 C   0  0  0  0  0  0  0  0  0  0  0  0
   22.3976   11.5139   66.8437 C   0  0  0  0  0  0  0  0  0  0  0  0
   23.1327   12.3299   67.6538 C   0  0  0  0  0  0  0  0  0  0  0  0
   23.3758   13.6159   67.2139 C   0  0  0  0  0  0  0  0  0  0  0  0
   22.9510   14.0784   66.0130 C   0  0  0  0  0  0  0  0  0  0  0  0
   19.9749   16.5014   66.0396 H   0  0  0  0  0  0  0  0  0  0  0  0
   18.7494   18.6377   66.0702 H   0  0  0  0  0  0  0  0  0  0  0  0
   16.2695   19.4133   65.9791 H   0  0  0  0  0  0  0  0  0  0  0  0
   17.0206   19.9091   64.4246 H   0  0  0  0  0  0  0  0  0  0  0  0
   15.4611   19.0176   64.4246 H   0  0  0  0  0  0  0  0  0  0  0  0
   15.5971   16.8802   63.7842 H   0  0  0  0  0  0  0  0  0  0  0  0
   16.8704   14.7451   63.6210 H   0  0  0  0  0  0  0  0  0  0  0  0
   19.8755   14.1636   65.7835 H   0  0  0  0  0  0  0  0  0  0  0  0
   18.5412   13.3728   64.8109 H   0  0  0  0  0  0  0  0  0  0  0  0
   21.4570   15.4791   62.5266 H   0  0  0  0  0  0  0  0  0  0  0  0
   21.3901   16.0586   63.9713 H   0  0  0  0  0  0  0  0  0  0  0  0
   22.4018   12.9323   63.4490 H   0  0  0  0  0  0  0  0  0  0  0  0
   21.4017   11.2572   64.9960 H   0  0  0  0  0  0  0  0  0  0  0  0
   22.1576   10.4918   67.1721 H   0  0  0  0  0  0  0  0  0  0  0  0
   23.5175   11.9761   68.6216 H   0  0  0  0  0  0  0  0  0  0  0  0
   23.9403   14.2964   67.8683 H   0  0  0  0  0  0  0  0  0  0  0  0
   23.2036   15.1013   65.6968 H   0  0  0  0  0  0  0  0  0  0  0  0
  1  2  2  0
  1  7  1  0
  2  3  1  0
  3  4  1  0
  3  5  2  0
  5  6  1  0
  6  7  2  0
  7  8  1  0
  9  8  1  1
  9 10  1  0
  9 13  1  0
  9 14  1  0
 10 11  1  0
 10 12  2  0
 13 14  1  0
 14 15  1  0
 15 16  2  0
 15 20  1  0
 16 17  1  0
 17 18  2  0
 18 19  1  0
 19 20  2  0
  1 21  1  0
  2 22  1  0
  4 23  1  0
  4 24  1  0
  4 25  1  0
  5 26  1  0
  6 27  1  0
  8 28  1  0
  8 29  1  0
 13 30  1  0
 13 31  1  0
 14 32  1  6
 16 33  1  0
 17 34  1  0
 18 35  1  0
 19 36  1  0
 20 37  1  0
M  CHG  1  11  -1
M  END
>  <filename_input>  (22) 
6Z4N_Q7B_docked.sdf

>  <pdb_id>  (22) 
6Z4N_Q7B

>  <pose_rank>  (22) 
21

>  <num_atoms_heavy>  (22) 
20

>  <num_torsions>  (22) 
4

>  <pose>  (22) 
[20.220166451634096, 14.009833472633549, 63.66918337328415, 1.6139514570882507, 0.7810512914372698, 0.8647447313286023, -0.6003620736725428, 1.9235557713936788, -2.4170178401368965, 1.0252624084156272]

>  <energy>  (22) 
-320.3038908993431

>  <inter_energy>  (22) 
-331.80526861697683

>  <intra_energy>  (22) 
10.031972275068977

>  <rmsd>  (22) 
4.74662

>  <sdf_rank>  (22) 
0

$$$$

     RDKit          3D

 37 39  0  0  0  0  0  0  0  0999 V2000
   23.7929   11.5812   68.1962 C   0  0  0  0  0  0  0  0  0  0  0  0
   23.2561   10.4041   68.6908 C   0  0  0  0  0  0  0  0  0  0  0  0
   23.0635   10.2385   70.0363 C   0  0  0  0  0  0  0  0  0  0  0  0
   22.4894    9.0473   70.5207 C   0  0  0  0  0  0  0  0  0  0  0  0
   23.3634   11.2812   70.8864 C   0  0  0  0  0  0  0  0  0  0  0  0
   23.9445   12.4655   70.4060 C   0  0  0  0  0  0  0  0  0  0  0  0
   24.1560   12.6469   69.0364 C   0  0  0  0  0  0  0  0  0  0  0  0
   24.7074   13.8775   68.4616 C   0  0  0  0  0  0  0  0  0  0  0  0
   23.7360   14.6264   67.5457 C   0  0  1  0  0  0  0  0  0  0  0  0
   22.5114   15.1854   68.2672 C   0  0  0  0  0  0  0  0  0  0  0  0
   21.4874   15.4266   67.5945 O   0  0  0  0  0  0  0  0  0  0  0  0
   22.6391   15.4586   69.4953 O   0  0  0  0  0  0  0  0  0  0  0  0
   24.3780   15.4973   66.5457 C   0  0  0  0  0  0  0  0  0  0  0  0
   23.6079   14.2652   66.0744 C   0  0  1  0  0  0  0  0  0  0  0  0
   24.2400   13.0737   65.5255 C   0  0  0  0  0  0  0  0  0  0  0  0
   23.4316   12.0799   64.9478 C   0  0  0  0  0  0  0  0  0  0  0  0
   23.9400   10.9410   64.4223 C   0  0  0  0  0  0  0  0  0  0  0  0
   25.2883   10.7312   64.3954 C   0  0  0  0  0  0  0  0  0  0  0  0
   26.0969   11.7008   64.9544 C   0  0  0  0  0  0  0  0  0  0  0  0
   25.6131   12.8496   65.4860 C   0  0  0  0  0  0  0  0  0  0  0  0
   23.9396   11.6848   67.1110 H   0  0  0  0  0  0  0  0  0  0  0  0
   22.9822    9.5956   67.9971 H   0  0  0  0  0  0  0  0  0  0  0  0
   22.4948    9.0585   71.6206 H   0  0  0  0  0  0  0  0  0  0  0  0
   21.4534    8.9663   70.1599 H   0  0  0  0  0  0  0  0  0  0  0  0
   23.0716    8.1865   70.1599 H   0  0  0  0  0  0  0  0  0  0  0  0
   23.1437   11.1837   71.9598 H   0  0  0  0  0  0  0  0  0  0  0  0
   24.2356   13.2565   71.1128 H   0  0  0  0  0  0  0  0  0  0  0  0
   24.9914   14.5475   69.2865 H   0  0  0  0  0  0  0  0  0  0  0  0
   25.5663   13.5820   67.8412 H   0  0  0  0  0  0  0  0  0  0  0  0
   23.9735   16.5022   66.3544 H   0  0  0  0  0  0  0  0  0  0  0  0
   25.3995   15.8756   66.3924 H   0  0  0  0  0  0  0  0  0  0  0  0
   22.7930   14.0850   65.3578 H   0  0  0  0  0  0  0  0  0  0  0  0
   22.3427   12.2336   64.9217 H   0  0  0  0  0  0  0  0  0  0  0  0
   23.2610   10.1783   64.0135 H   0  0  0  0  0  0  0  0  0  0  0  0
   25.7152    9.8230   63.9449 H   0  0  0  0  0  0  0  0  0  0  0  0
   27.1840   11.5331   64.9689 H   0  0  0  0  0  0  0  0  0  0  0  0
   26.3055   13.6049   65.8862 H   0  0  0  0  0  0  0  0  0  0  0  0
  1  2  2  0
  1  7  1  0
  2  3  1  0
  3  4  1  0
  3  5  2  0
  5  6  1  0
  6  7  2  0
  7  8  1  0
  9  8  1  1
  9 10  1  0
  9 13  1  0
  9 14  1  0
 10 11  1  0
 10 12  2  0
 13 14  1  0
 14 15  1  0
 15 16  2  0
 15 20  1  0
 16 17  1  0
 17 18  2  0
 18 19  1  0
 19 20  2  0
  1 21  1  0
  2 22  1  0
  4 23  1  0
  4 24  1  0
  4 25  1  0
  5 26  1  0
  6 27  1  0
  8 28  1  0
  8 29  1  0
 13 30  1  0
 13 31  1  0
 14 32  1  6
 16 33  1  0
 17 34  1  0
 18 35  1  0
 19 36  1  0
 20 37  1  0
M  CHG  1  11  -1
M  END
>  <filename_input>  (23) 
6Z4N_Q7B_docked.sdf

>  <pdb_id>  (23) 
6Z4N_Q7B

>  <pose_rank>  (23) 
22

>  <num_atoms_heavy>  (23) 
20

>  <num_torsions>  (23) 
4

>  <pose>  (23) 
[23.736018406756163, 14.626440495143354, 67.54568388659746, 2.816237867759091, 0.8795186690673464, -0.8122564943725468, -6.178376394283336, -6.236496771981793, 0.12235671352772538, -2.520232226610426]

>  <energy>  (23) 
-376.14230318361587

>  <inter_energy>  (23) 
-421.5336105951011

>  <intra_energy>  (23) 
45.07332655356373

>  <rmsd>  (23) 
5.9499

>  <sdf_rank>  (23) 
0

$$$$

     RDKit          3D

 37 39  0  0  0  0  0  0  0  0999 V2000
   25.4503   14.3058   66.6373 C   0  0  0  0  0  0  0  0  0  0  0  0
   25.7925   13.0790   66.0931 C   0  0  0  0  0  0  0  0  0  0  0  0
   24.8221   12.2069   65.6778 C   0  0  0  0  0  0  0  0  0  0  0  0
   25.1871   10.9758   65.0996 C   0  0  0  0  0  0  0  0  0  0  0  0
   23.5007   12.5901   65.7615 C   0  0  0  0  0  0  0  0  0  0  0  0
   23.1350   13.8129   66.3464 C   0  0  0  0  0  0  0  0  0  0  0  0
   24.1130   14.7105   66.7835 C   0  0  0  0  0  0  0  0  0  0  0  0
   23.8039   16.0254   67.3530 C   0  0  0  0  0  0  0  0  0  0  0  0
   23.0921   15.9655   68.7070 C   0  0  1  0  0  0  0  0  0  0  0  0
   23.4317   14.7248   69.5303 C   0  0  0  0  0  0  0  0  0  0  0  0
   23.1686   14.7346   70.7510 O   0  0  0  0  0  0  0  0  0  0  0  0
   24.0472   13.7907   68.9406 O   0  0  0  0  0  0  0  0  0  0  0  0
   23.0280   17.2489   69.4277 C   0  0  0  0  0  0  0  0  0  0  0  0
   21.7353   16.6208   68.9101 C   0  0  1  0  0  0  0  0  0  0  0  0
   20.9690   17.1472   67.7893 C   0  0  0  0  0  0  0  0  0  0  0  0
   19.8769   16.4071   67.3049 C   0  0  0  0  0  0  0  0  0  0  0  0
   19.1189   16.8230   66.2637 C   0  0  0  0  0  0  0  0  0  0  0  0
   19.3666   18.0222   65.6610 C   0  0  0  0  0  0  0  0  0  0  0  0
   20.4331   18.7640   66.1287 C   0  0  0  0  0  0  0  0  0  0  0  0
   21.2066   18.3706   67.1695 C   0  0  0  0  0  0  0  0  0  0  0  0
   26.2511   14.9847   66.9656 H   0  0  0  0  0  0  0  0  0  0  0  0
   26.8527   12.8030   65.9936 H   0  0  0  0  0  0  0  0  0  0  0  0
   25.4032   10.2470   65.8946 H   0  0  0  0  0  0  0  0  0  0  0  0
   24.3605   10.6041   64.4762 H   0  0  0  0  0  0  0  0  0  0  0  0
   26.0827   11.1147   64.4762 H   0  0  0  0  0  0  0  0  0  0  0  0
   22.7192   11.9263   65.3632 H   0  0  0  0  0  0  0  0  0  0  0  0
   22.0708   14.0663   66.4615 H   0  0  0  0  0  0  0  0  0  0  0  0
   24.7469   16.5769   67.4820 H   0  0  0  0  0  0  0  0  0  0  0  0
   23.1155   16.5217   66.6531 H   0  0  0  0  0  0  0  0  0  0  0  0
   23.2269   17.2803   70.5091 H   0  0  0  0  0  0  0  0  0  0  0  0
   23.5138   18.2284   69.3065 H   0  0  0  0  0  0  0  0  0  0  0  0
   20.7691   16.3484   69.3599 H   0  0  0  0  0  0  0  0  0  0  0  0
   19.6284   15.4522   67.7911 H   0  0  0  0  0  0  0  0  0  0  0  0
   18.2965   16.1894   65.9003 H   0  0  0  0  0  0  0  0  0  0  0  0
   18.7396   18.3844   64.8329 H   0  0  0  0  0  0  0  0  0  0  0  0
   20.6655   19.7184   65.6337 H   0  0  0  0  0  0  0  0  0  0  0  0
   22.0220   19.0179   67.5244 H   0  0  0  0  0  0  0  0  0  0  0  0
  1  2  2  0
  1  7  1  0
  2  3  1  0
  3  4  1  0
  3  5  2  0
  5  6  1  0
  6  7  2  0
  7  8  1  0
  9  8  1  6
  9 10  1  0
  9 13  1  0
  9 14  1  0
 10 11  1  0
 10 12  2  0
 13 14  1  0
 14 15  1  0
 15 16  2  0
 15 20  1  0
 16 17  1  0
 17 18  2  0
 18 19  1  0
 19 20  2  0
  1 21  1  0
  2 22  1  0
  4 23  1  0
  4 24  1  0
  4 25  1  0
  5 26  1  0
  6 27  1  0
  8 28  1  0
  8 29  1  0
 13 30  1  0
 13 31  1  0
 14 32  1  1
 16 33  1  0
 17 34  1  0
 18 35  1  0
 19 36  1  0
 20 37  1  0
M  CHG  1  11  -1
M  END
>  <filename_input>  (24) 
6Z4N_Q7B_docked.sdf

>  <pdb_id>  (24) 
6Z4N_Q7B

>  <pose_rank>  (24) 
23

>  <num_atoms_heavy>  (24) 
20

>  <num_torsions>  (24) 
4

>  <pose>  (24) 
[23.09211871995472, 15.965544635843962, 68.70701558173192, 2.3002245125551295, 2.773857213035581, -2.806437654026645, -0.17433507457894162, 11.92963657296988, 12.048152597193184, 0.6682911386401797]

>  <energy>  (24) 
-337.17468484488785

>  <inter_energy>  (24) 
-431.31142038346957

>  <intra_energy>  (24) 
103.76293057060428

>  <rmsd>  (24) 
6.15515

>  <sdf_rank>  (24) 
0

$$$$

     RDKit          3D

 37 39  0  0  0  0  0  0  0  0999 V2000
   23.4328   11.3857   67.7243 C   0  0  0  0  0  0  0  0  0  0  0  0
   23.7065   10.8685   68.9797 C   0  0  0  0  0  0  0  0  0  0  0  0
   22.9674    9.8307   69.4810 C   0  0  0  0  0  0  0  0  0  0  0  0
   23.2772    9.2970   70.7468 C   0  0  0  0  0  0  0  0  0  0  0  0
   21.9806    9.2742   68.6959 C   0  0  0  0  0  0  0  0  0  0  0  0
   21.6643    9.8113   67.4379 C   0  0  0  0  0  0  0  0  0  0  0  0
   22.4033   10.8763   66.9154 C   0  0  0  0  0  0  0  0  0  0  0  0
   22.1630   11.4500   65.5880 C   0  0  0  0  0  0  0  0  0  0  0  0
   23.3065   11.2236   64.5958 C   0  0  1  0  0  0  0  0  0  0  0  0
   23.7950    9.7778   64.5339 C   0  0  0  0  0  0  0  0  0  0  0  0
   22.9782    8.8909   64.2091 O   0  0  0  0  0  0  0  0  0  0  0  0
   24.9821    9.5526   64.9070 O   0  0  0  0  0  0  0  0  0  0  0  0
   23.1614   11.9355   63.3141 C   0  0  0  0  0  0  0  0  0  0  0  0
   24.2892   12.3352   64.2637 C   0  0  1  0  0  0  0  0  0  0  0  0
   24.3124   13.5808   65.0177 C   0  0  0  0  0  0  0  0  0  0  0  0
   25.4659   13.9114   65.7493 C   0  0  0  0  0  0  0  0  0  0  0  0
   25.5648   15.0458   66.4807 C   0  0  0  0  0  0  0  0  0  0  0  0
   24.5425   15.9497   66.5005 C   0  0  0  0  0  0  0  0  0  0  0  0
   23.4040   15.6421   65.7824 C   0  0  0  0  0  0  0  0  0  0  0  0
   23.2800   14.5140   65.0419 C   0  0  0  0  0  0  0  0  0  0  0  0
   24.0408   12.2219   67.3487 H   0  0  0  0  0  0  0  0  0  0  0  0
   24.5245   11.2951   69.5788 H   0  0  0  0  0  0  0  0  0  0  0  0
   22.8899    9.9642   71.5309 H   0  0  0  0  0  0  0  0  0  0  0  0
   22.8151    8.3040   70.8491 H   0  0  0  0  0  0  0  0  0  0  0  0
   24.3686    9.2058   70.8491 H   0  0  0  0  0  0  0  0  0  0  0  0
   21.4314    8.3939   69.0613 H   0  0  0  0  0  0  0  0  0  0  0  0
   20.8287    9.3908   66.8592 H   0  0  0  0  0  0  0  0  0  0  0  0
   21.2509   10.9950   65.1744 H   0  0  0  0  0  0  0  0  0  0  0  0
   22.0697   12.5377   65.7235 H   0  0  0  0  0  0  0  0  0  0  0  0
   23.3962   11.4196   62.3715 H   0  0  0  0  0  0  0  0  0  0  0  0
   22.3409   12.4750   62.8184 H   0  0  0  0  0  0  0  0  0  0  0  0
   25.3799   12.4447   64.1725 H   0  0  0  0  0  0  0  0  0  0  0  0
   26.3219   13.2210   65.7266 H   0  0  0  0  0  0  0  0  0  0  0  0
   26.4768   15.2410   67.0640 H   0  0  0  0  0  0  0  0  0  0  0  0
   24.6225   16.8888   67.0677 H   0  0  0  0  0  0  0  0  0  0  0  0
   22.5586   16.3453   65.8128 H   0  0  0  0  0  0  0  0  0  0  0  0
   22.3637   14.3359   64.4600 H   0  0  0  0  0  0  0  0  0  0  0  0
  1  2  2  0
  1  7  1  0
  2  3  1  0
  3  4  1  0
  3  5  2  0
  5  6  1  0
  6  7  2  0
  7  8  1  0
  9  8  1  1
  9 10  1  0
  9 13  1  0
  9 14  1  0
 10 11  1  0
 10 12  2  0
 13 14  1  0
 14 15  1  0
 15 16  2  0
 15 20  1  0
 16 17  1  0
 17 18  2  0
 18 19  1  0
 19 20  2  0
  1 21  1  0
  2 22  1  0
  4 23  1  0
  4 24  1  0
  4 25  1  0
  5 26  1  0
  6 27  1  0
  8 28  1  0
  8 29  1  0
 13 30  1  0
 13 31  1  0
 14 32  1  6
 16 33  1  0
 17 34  1  0
 18 35  1  0
 19 36  1  0
 20 37  1  0
M  CHG  1  11  -1
M  END
>  <filename_input>  (25) 
6Z4N_Q7B_docked.sdf

>  <pdb_id>  (25) 
6Z4N_Q7B

>  <pose_rank>  (25) 
24

>  <num_atoms_heavy>  (25) 
20

>  <num_torsions>  (25) 
4

>  <pose>  (25) 
[23.30654895271203, 11.22362721846789, 64.59577095482983, 0.24527894777702042, 1.7765166051064119, 0.8579983164824783, 0.06607452691538053, -2.442051231953342, -0.17300679358631432, -2.478133191309218]

>  <energy>  (25) 
-539.0240535327094

>  <inter_energy>  (25) 
-543.6801850468098

>  <intra_energy>  (25) 
12.726592703767725

>  <rmsd>  (25) 
4.34892

>  <sdf_rank>  (25) 
0

$$$$

     RDKit          3D

 37 39  0  0  0  0  0  0  0  0999 V2000
   21.9280   13.1320   62.3530 C   0  0  0  0  0  0  0  0  0  0  0  0
   20.6630   13.6860   62.2470 C   0  0  0  0  0  0  0  0  0  0  0  0
   19.8320   13.7360   63.3340 C   0  0  0  0  0  0  0  0  0  0  0  0
   18.5600   14.3290   63.2170 C   0  0  0  0  0  0  0  0  0  0  0  0
   20.2930   13.2740   64.5480 C   0  0  0  0  0  0  0  0  0  0  0  0
   21.5570   12.6740   64.6640 C   0  0  0  0  0  0  0  0  0  0  0  0
   22.4140   12.6070   63.5620 C   0  0  0  0  0  0  0  0  0  0  0  0
   23.7660   12.0440   63.6250 C   0  0  0  0  0  0  0  0  0  0  0  0
   23.9390   10.9580   64.6900 C   0  0  1  0  0  0  0  0  0  0  0  0
   23.0030    9.7640   64.5140 C   0  0  0  0  0  0  0  0  0  0  0  0
   22.7980    9.0230   65.4980 O   0  0  0  0  0  0  0  0  0  0  0  0
   22.5610    9.5430   63.3500 O   0  0  0  0  0  0  0  0  0  0  0  0
   25.3370   10.6640   65.0500 C   0  0  0  0  0  0  0  0  0  0  0  0
   24.4190   11.3020   66.0910 C   0  0  1  0  0  0  0  0  0  0  0  0
   24.5350   12.6830   66.5380 C   0  0  0  0  0  0  0  0  0  0  0  0
   23.6750   13.1450   67.5490 C   0  0  0  0  0  0  0  0  0  0  0  0
   23.7140   14.4150   68.0150 C   0  0  0  0  0  0  0  0  0  0  0  0
   24.6380   15.3000   67.5400 C   0  0  0  0  0  0  0  0  0  0  0  0
   25.4940   14.8600   66.5500 C   0  0  0  0  0  0  0  0  0  0  0  0
   25.4760   13.5940   66.0670 C   0  0  0  0  0  0  0  0  0  0  0  0
   22.5726   13.1022   61.4622 H   0  0  0  0  0  0  0  0  0  0  0  0
   20.3232   14.0891   61.2816 H   0  0  0  0  0  0  0  0  0  0  0  0
   18.1507   14.5198   64.2201 H   0  0  0  0  0  0  0  0  0  0  0  0
   18.6474   15.2792   62.6698 H   0  0  0  0  0  0  0  0  0  0  0  0
   17.8884   13.6512   62.6698 H   0  0  0  0  0  0  0  0  0  0  0  0
   19.6596   13.3772   65.4414 H   0  0  0  0  0  0  0  0  0  0  0  0
   21.8752   12.2535   65.6294 H   0  0  0  0  0  0  0  0  0  0  0  0
   24.0051   11.6077   62.6440 H   0  0  0  0  0  0  0  0  0  0  0  0
   24.4416   12.8681   63.8980 H   0  0  0  0  0  0  0  0  0  0  0  0
   25.6629    9.6207   65.1733 H   0  0  0  0  0  0  0  0  0  0  0  0
   26.3163   10.9228   64.6210 H   0  0  0  0  0  0  0  0  0  0  0  0
   24.1282   11.0594   67.1238 H   0  0  0  0  0  0  0  0  0  0  0  0
   22.9413   12.4469   67.9784 H   0  0  0  0  0  0  0  0  0  0  0  0
   22.9951   14.7366   68.7829 H   0  0  0  0  0  0  0  0  0  0  0  0
   24.6986   16.3262   67.9315 H   0  0  0  0  0  0  0  0  0  0  0  0
   26.2242   15.5698   66.1342 H   0  0  0  0  0  0  0  0  0  0  0  0
   26.2050   13.2864   65.3028 H   0  0  0  0  0  0  0  0  0  0  0  0
  1  2  2  0
  1  7  1  0
  2  3  1  0
  3  4  1  0
  3  5  2  0
  5  6  1  0
  6  7  2  0
  7  8  1  0
  9  8  1  6
  9 10  1  0
  9 13  1  0
  9 14  1  0
 10 11  1  0
 10 12  2  0
 13 14  1  0
 14 15  1  0
 15 16  2  0
 15 20  1  0
 16 17  1  0
 17 18  2  0
 18 19  1  0
 19 20  2  0
  1 21  1  0
  2 22  1  0
  4 23  1  0
  4 24  1  0
  4 25  1  0
  5 26  1  0
  6 27  1  0
  8 28  1  0
  8 29  1  0
 13 30  1  0
 13 31  1  0
 14 32  1  1
 16 33  1  0
 17 34  1  0
 18 35  1  0
 19 36  1  0
 20 37  1  0
M  CHG  1  11  -1
M  END
>  <filename_input>  (26) 
6Z4N_Q7B_docked.sdf

>  <pdb_id>  (26) 
6Z4N_Q7B

>  <pose_rank>  (26) 
25

>  <num_atoms_heavy>  (26) 
20

>  <num_torsions>  (26) 
4

>  <pose>  (26) 
[23.939, 10.958, 64.69, 1e-06, 1e-06, 1e-06, 0.0, 0.0, 0.0, 0.0]

>  <energy>  (26) 
-622.3770969000044

>  <inter_energy>  (26) 
-657.1527946847501

>  <intra_energy>  (26) 
30.32673082240293

>  <rmsd>  (26) 
0.0

>  <sdf_rank>  (26) 
0

$$$$
