
     RDKit          3D

 49 48  0  0  0  0  0  0  0  0999 V2000
   56.6353   72.3045    8.3783 C   0  0  0  0  0  0  0  0  0  0  0  0
   55.7600   73.4134    8.9488 C   0  0  2  0  0  0  0  0  0  0  0  0
   56.5111   74.7477    8.9036 C   0  0  0  0  0  0  0  0  0  0  0  0
   55.6695   75.8806    8.3304 C   0  0  0  0  0  0  0  0  0  0  0  0
   54.2469   75.9147    8.8721 C   0  0  0  0  0  0  0  0  0  0  0  0
   53.7866   77.3209    9.1667 C   0  0  0  0  0  0  0  0  0  0  0  0
   53.3144   77.9963    8.1176 N   0  0  0  0  0  0  0  0  0  0  0  0
   53.2393   79.4450    8.0743 C   0  0  2  0  0  0  0  0  0  0  0  0
   51.8031   79.8650    7.7656 C   0  0  0  0  0  0  0  0  0  0  0  0
   55.3492   73.0583   10.3204 N   0  0  0  0  0  0  0  0  0  0  0  0
   53.8619   77.8116   10.2943 O   0  0  0  0  0  0  0  0  0  0  0  0
   54.1418   79.9842    6.9761 C   0  0  0  0  0  0  0  0  0  0  0  0
   55.6663   80.7392    7.5942 S   0  0  0  0  0  0  0  0  0  0  0  0
   50.9121   79.0252    7.6683 O   0  0  0  0  0  0  0  0  0  0  0  0
   57.4389   71.7529    9.2399 O   0  0  0  0  0  0  0  0  0  0  0  0
   56.5588   71.9793    7.2104 O   0  0  0  0  0  0  0  0  0  0  0  0
   51.5909   81.1685    7.5849 N   0  0  0  0  0  0  0  0  0  0  0  0
   50.3230   81.6742    7.0956 C   0  0  1  0  0  0  0  0  0  0  0  0
   49.5759   82.2635    8.2757 C   0  0  0  0  0  0  0  0  0  0  0  0
   50.5133   82.7145    5.9705 C   0  0  1  0  0  0  0  0  0  0  0  0
   51.9531   83.2267    5.9380 C   0  0  0  0  0  0  0  0  0  0  0  0
   50.1111   82.1258    4.6155 C   0  0  0  0  0  0  0  0  0  0  0  0
   49.6183   83.4591    8.4975 O   0  0  0  0  0  0  0  0  0  0  0  0
   48.9240   81.3955    8.9930 O   0  0  0  0  0  0  0  0  0  0  0  0
   54.8504   73.5261    8.3406 H   0  0  0  0  0  0  0  0  0  0  0  0
   56.8116   75.0165    9.9271 H   0  0  0  0  0  0  0  0  0  0  0  0
   57.3811   74.6154    8.2438 H   0  0  0  0  0  0  0  0  0  0  0  0
   56.1581   76.8353    8.5749 H   0  0  0  0  0  0  0  0  0  0  0  0
   55.5986   75.7139    7.2454 H   0  0  0  0  0  0  0  0  0  0  0  0
   53.5723   75.4695    8.1260 H   0  0  0  0  0  0  0  0  0  0  0  0
   54.2290   75.3475    9.8144 H   0  0  0  0  0  0  0  0  0  0  0  0
   53.8990   77.7191    7.3161 H   0  0  0  0  0  0  0  0  0  0  0  0
   52.3169   77.7407    8.1422 H   0  0  0  0  0  0  0  0  0  0  0  0
   53.5598   79.8460    9.0472 H   0  0  0  0  0  0  0  0  0  0  0  0
   55.9366   73.5661   10.9971 H   0  0  0  0  0  0  0  0  0  0  0  0
   54.3621   73.3166   10.4609 H   0  0  0  0  0  0  0  0  0  0  0  0
   55.4620   72.0442   10.4609 H   0  0  0  0  0  0  0  0  0  0  0  0
   54.4118   79.1526    6.3086 H   0  0  0  0  0  0  0  0  0  0  0  0
   53.5795   80.7736    6.4559 H   0  0  0  0  0  0  0  0  0  0  0  0
   55.6557   80.7340    8.9641 H   0  0  0  0  0  0  0  0  0  0  0  0
   52.3475   81.8341    7.7984 H   0  0  0  0  0  0  0  0  0  0  0  0
   49.7423   80.8530    6.6500 H   0  0  0  0  0  0  0  0  0  0  0  0
   49.8552   83.5704    6.1809 H   0  0  0  0  0  0  0  0  0  0  0  0
   52.3194   83.3570    6.9670 H   0  0  0  0  0  0  0  0  0  0  0  0
   52.5891   82.4997    5.4117 H   0  0  0  0  0  0  0  0  0  0  0  0
   51.9871   84.1921    5.4117 H   0  0  0  0  0  0  0  0  0  0  0  0
   49.4969   81.2270    4.7739 H   0  0  0  0  0  0  0  0  0  0  0  0
   49.5321   82.8704    4.0495 H   0  0  0  0  0  0  0  0  0  0  0  0
   51.0152   81.8570    4.0495 H   0  0  0  0  0  0  0  0  0  0  0  0
  1  2  1  0
  1 15  1  0
  1 16  2  0
  2  3  1  0
  2 10  1  0
  3  4  1  0
  4  5  1  0
  5  6  1  0
  6  7  1  0
  6 11  2  0
  7  8  1  0
  8  9  1  0
  8 12  1  0
  9 14  2  0
  9 17  1  0
 12 13  1  0
 18 17  1  0
 18 19  1  0
 18 20  1  0
 19 23  2  0
 19 24  1  0
 20 21  1  0
 20 22  1  0
  2 25  1  6
  3 26  1  0
  3 27  1  0
  4 28  1  0
  4 29  1  0
  5 30  1  0
  5 31  1  0
  7 32  1  0
  7 33  1  0
  8 34  1  1
 10 35  1  0
 10 36  1  0
 10 37  1  0
 12 38  1  0
 12 39  1  0
 13 40  1  0
 17 41  1  0
 18 42  1  6
 20 43  1  1
 21 44  1  0
 21 45  1  0
 21 46  1  0
 22 47  1  0
 22 48  1  0
 22 49  1  0
M  CHG  4   7   1  10   1  15  -1  24  -1
M  END
>  <filename_input>  (1) 
6ZAE_ACV_docked.sdf

>  <pdb_id>  (1) 
6ZAE_ACV

>  <pose_rank>  (1) 
0

>  <num_atoms_heavy>  (1) 
24

>  <num_torsions>  (1) 
12

>  <pose>  (1) 
[53.239349459237644, 79.44504281367708, 8.074274806666939, -0.09672203561988241, -0.10456646332728425, -0.4387855653075939, -18.833656647923167, -6.952473853360211, 1.796560355541406, -5.639019267934076, -2.739307336281338, 6.140693584578231, -6.0278904378628315, 15.893345288145737, 11.868576183132124, 10.285138517379341, -0.854533442862901, 2.6722410870735587]

>  <energy>  (1) 
-737.9939331462853

>  <inter_energy>  (1) 
-740.298610119053

>  <intra_energy>  (1) 
3.9269298410002924

>  <rmsd>  (1) 
1.37159

>  <sdf_rank>  (1) 
0

$$$$

     RDKit          3D

 49 48  0  0  0  0  0  0  0  0999 V2000
   49.2963   82.3886    7.4043 C   0  0  0  0  0  0  0  0  0  0  0  0
   50.0670   81.0782    7.3044 C   0  0  2  0  0  0  0  0  0  0  0  0
   51.4350   81.2237    7.9782 C   0  0  0  0  0  0  0  0  0  0  0  0
   52.4347   80.1698    7.5198 C   0  0  0  0  0  0  0  0  0  0  0  0
   52.6200   79.0340    8.5168 C   0  0  0  0  0  0  0  0  0  0  0  0
   53.9642   79.0930    9.1993 C   0  0  0  0  0  0  0  0  0  0  0  0
   54.4404   77.9199    9.6199 N   0  0  0  0  0  0  0  0  0  0  0  0
   55.0614   76.9517    8.7349 C   0  0  2  0  0  0  0  0  0  0  0  0
   55.3011   75.6516    9.5009 C   0  0  0  0  0  0  0  0  0  0  0  0
   50.1893   80.6871    5.8873 N   0  0  0  0  0  0  0  0  0  0  0  0
   54.5655   80.1546    9.3701 O   0  0  0  0  0  0  0  0  0  0  0  0
   56.4031   77.4731    8.2461 C   0  0  0  0  0  0  0  0  0  0  0  0
   56.8226   76.9388    6.5684 S   0  0  0  0  0  0  0  0  0  0  0  0
   54.4396   75.1979   10.2497 O   0  0  0  0  0  0  0  0  0  0  0  0
   49.0771   82.7955    8.6203 O   0  0  0  0  0  0  0  0  0  0  0  0
   48.9369   82.9856    6.4092 O   0  0  0  0  0  0  0  0  0  0  0  0
   56.4887   75.0713    9.3296 N   0  0  0  0  0  0  0  0  0  0  0  0
   56.9137   73.9491   10.1438 C   0  0  1  0  0  0  0  0  0  0  0  0
   56.7094   72.6863    9.3302 C   0  0  0  0  0  0  0  0  0  0  0  0
   58.3806   74.0939   10.6036 C   0  0  1  0  0  0  0  0  0  0  0  0
   58.8781   75.5249   10.4003 C   0  0  0  0  0  0  0  0  0  0  0  0
   58.5346   73.6635   12.0650 C   0  0  0  0  0  0  0  0  0  0  0  0
   57.0138   72.6556    8.1526 O   0  0  0  0  0  0  0  0  0  0  0  0
   56.1927   71.6924    9.9922 O   0  0  0  0  0  0  0  0  0  0  0  0
   49.5233   80.2800    7.8311 H   0  0  0  0  0  0  0  0  0  0  0  0
   51.8396   82.2186    7.7404 H   0  0  0  0  0  0  0  0  0  0  0  0
   51.2869   81.0908    9.0600 H   0  0  0  0  0  0  0  0  0  0  0  0
   52.0809   79.7443    6.5692 H   0  0  0  0  0  0  0  0  0  0  0  0
   53.4084   80.6710    7.4159 H   0  0  0  0  0  0  0  0  0  0  0  0
   51.8310   79.0998    9.2804 H   0  0  0  0  0  0  0  0  0  0  0  0
   52.5615   78.0846    7.9642 H   0  0  0  0  0  0  0  0  0  0  0  0
   55.1461   78.1416   10.3366 H   0  0  0  0  0  0  0  0  0  0  0  0
   53.5734   77.4299    9.8828 H   0  0  0  0  0  0  0  0  0  0  0  0
   54.3962   76.7785    7.8761 H   0  0  0  0  0  0  0  0  0  0  0  0
   50.4961   79.7057    5.8273 H   0  0  0  0  0  0  0  0  0  0  0  0
   49.2759   80.7903    5.4226 H   0  0  0  0  0  0  0  0  0  0  0  0
   50.8812   81.2922    5.4226 H   0  0  0  0  0  0  0  0  0  0  0  0
   56.3761   78.5727    8.2640 H   0  0  0  0  0  0  0  0  0  0  0  0
   57.1720   77.0618    8.9167 H   0  0  0  0  0  0  0  0  0  0  0  0
   57.6676   75.8622    6.6299 H   0  0  0  0  0  0  0  0  0  0  0  0
   57.1212   75.4293    8.5998 H   0  0  0  0  0  0  0  0  0  0  0  0
   56.3130   73.9091   11.0644 H   0  0  0  0  0  0  0  0  0  0  0  0
   59.0008   73.4296    9.9839 H   0  0  0  0  0  0  0  0  0  0  0  0
   59.0428   75.9985   11.3793 H   0  0  0  0  0  0  0  0  0  0  0  0
   59.8231   75.5080    9.8375 H   0  0  0  0  0  0  0  0  0  0  0  0
   58.1265   76.0979    9.8375 H   0  0  0  0  0  0  0  0  0  0  0  0
   58.2381   74.4924   12.7246 H   0  0  0  0  0  0  0  0  0  0  0  0
   57.8924   72.7919   12.2602 H   0  0  0  0  0  0  0  0  0  0  0  0
   59.5838   73.3969   12.2602 H   0  0  0  0  0  0  0  0  0  0  0  0
  1  2  1  0
  1 15  1  0
  1 16  2  0
  2  3  1  0
  2 10  1  0
  3  4  1  0
  4  5  1  0
  5  6  1  0
  6  7  1  0
  6 11  2  0
  7  8  1  0
  8  9  1  0
  8 12  1  0
  9 14  2  0
  9 17  1  0
 12 13  1  0
 18 17  1  0
 18 19  1  0
 18 20  1  0
 19 23  2  0
 19 24  1  0
 20 21  1  0
 20 22  1  0
  2 25  1  1
  3 26  1  0
  3 27  1  0
  4 28  1  0
  4 29  1  0
  5 30  1  0
  5 31  1  0
  7 32  1  0
  7 33  1  0
  8 34  1  6
 10 35  1  0
 10 36  1  0
 10 37  1  0
 12 38  1  0
 12 39  1  0
 13 40  1  0
 17 41  1  0
 18 42  1  1
 20 43  1  6
 21 44  1  0
 21 45  1  0
 21 46  1  0
 22 47  1  0
 22 48  1  0
 22 49  1  0
M  CHG  4   7   1  10   1  15  -1  24  -1
M  END
>  <filename_input>  (2) 
6ZAE_ACV_docked.sdf

>  <pdb_id>  (2) 
6ZAE_ACV

>  <pose_rank>  (2) 
1

>  <num_atoms_heavy>  (2) 
24

>  <num_torsions>  (2) 
12

>  <pose>  (2) 
[55.06138041447845, 76.9517001938425, 8.734882802319204, -1.6999204567814181, -1.5991349875729528, 1.35722788909913, -5.582975974061451, 5.561439492956346, 13.417850458239313, 1.1851746641274752, 9.092092399263526, -19.81171242529502, 16.963657756365745, -19.64360321032201, 13.83468191955273, 32.86869945660353, -5.961029000385429, 6.4089952251288995]

>  <energy>  (2) 
-602.6303190062606

>  <inter_energy>  (2) 
-611.8605545841908

>  <intra_energy>  (2) 
7.461122644142607

>  <rmsd>  (2) 
9.18674

>  <sdf_rank>  (2) 
0

$$$$

     RDKit          3D

 49 48  0  0  0  0  0  0  0  0999 V2000
   56.6004   72.4851    9.1971 C   0  0  0  0  0  0  0  0  0  0  0  0
   56.8197   73.9152    8.7196 C   0  0  2  0  0  0  0  0  0  0  0  0
   55.7649   74.8396    9.3356 C   0  0  0  0  0  0  0  0  0  0  0  0
   55.3127   75.9384    8.3826 C   0  0  0  0  0  0  0  0  0  0  0  0
   55.5290   77.3431    8.9287 C   0  0  0  0  0  0  0  0  0  0  0  0
   54.2619   77.9301    9.4997 C   0  0  0  0  0  0  0  0  0  0  0  0
   53.7586   78.9638    8.8230 N   0  0  0  0  0  0  0  0  0  0  0  0
   52.5227   79.6288    9.1927 C   0  0  2  0  0  0  0  0  0  0  0  0
   51.7697   80.0310    7.9255 C   0  0  0  0  0  0  0  0  0  0  0  0
   56.7902   73.9507    7.2451 N   0  0  0  0  0  0  0  0  0  0  0  0
   53.7442   77.4936   10.5289 O   0  0  0  0  0  0  0  0  0  0  0  0
   52.8231   80.8877    9.9904 C   0  0  0  0  0  0  0  0  0  0  0  0
   52.1139   80.8788   11.6556 S   0  0  0  0  0  0  0  0  0  0  0  0
   51.9691   79.4435    6.8654 O   0  0  0  0  0  0  0  0  0  0  0  0
   55.9780   71.7211    8.3478 O   0  0  0  0  0  0  0  0  0  0  0  0
   56.9947   72.1168   10.2854 O   0  0  0  0  0  0  0  0  0  0  0  0
   50.9237   81.0550    8.0367 N   0  0  0  0  0  0  0  0  0  0  0  0
   50.2997   81.6583    6.8750 C   0  0  1  0  0  0  0  0  0  0  0  0
   49.1385   82.5023    7.3623 C   0  0  0  0  0  0  0  0  0  0  0  0
   51.3023   82.4971    6.0532 C   0  0  1  0  0  0  0  0  0  0  0  0
   52.5338   82.8485    6.8877 C   0  0  0  0  0  0  0  0  0  0  0  0
   51.7017   81.7602    4.7717 C   0  0  0  0  0  0  0  0  0  0  0  0
   48.6150   82.2698    8.4357 O   0  0  0  0  0  0  0  0  0  0  0  0
   48.7763   83.4489    6.5464 O   0  0  0  0  0  0  0  0  0  0  0  0
   57.8059   74.2752    9.0480 H   0  0  0  0  0  0  0  0  0  0  0  0
   54.8893   74.2356    9.6161 H   0  0  0  0  0  0  0  0  0  0  0  0
   56.2219   75.3269   10.2095 H   0  0  0  0  0  0  0  0  0  0  0  0
   55.8774   75.8391    7.4438 H   0  0  0  0  0  0  0  0  0  0  0  0
   54.2302   75.8123    8.2337 H   0  0  0  0  0  0  0  0  0  0  0  0
   56.2901   77.3023    9.7218 H   0  0  0  0  0  0  0  0  0  0  0  0
   55.8547   77.9843    8.0963 H   0  0  0  0  0  0  0  0  0  0  0  0
   54.4868   79.6921    8.8361 H   0  0  0  0  0  0  0  0  0  0  0  0
   53.4918   78.5160    7.9346 H   0  0  0  0  0  0  0  0  0  0  0  0
   51.9178   78.9404    9.8010 H   0  0  0  0  0  0  0  0  0  0  0  0
   56.1624   74.7050    6.9324 H   0  0  0  0  0  0  0  0  0  0  0  0
   57.7401   74.1240    6.8868 H   0  0  0  0  0  0  0  0  0  0  0  0
   56.4474   73.0480    6.8868 H   0  0  0  0  0  0  0  0  0  0  0  0
   53.9146   80.9913   10.0781 H   0  0  0  0  0  0  0  0  0  0  0  0
   52.3643   81.7286    9.4496 H   0  0  0  0  0  0  0  0  0  0  0  0
   53.1233   80.8914   12.5819 H   0  0  0  0  0  0  0  0  0  0  0  0
   50.7075   81.4275    8.9723 H   0  0  0  0  0  0  0  0  0  0  0  0
   49.9390   80.8716    6.1961 H   0  0  0  0  0  0  0  0  0  0  0  0
   50.8085   83.4376    5.7675 H   0  0  0  0  0  0  0  0  0  0  0  0
   52.2847   82.7774    7.9568 H   0  0  0  0  0  0  0  0  0  0  0  0
   53.3479   82.1468    6.6535 H   0  0  0  0  0  0  0  0  0  0  0  0
   52.8550   83.8741    6.6535 H   0  0  0  0  0  0  0  0  0  0  0  0
   52.2109   80.8207    5.0325 H   0  0  0  0  0  0  0  0  0  0  0  0
   50.8009   81.5373    4.1810 H   0  0  0  0  0  0  0  0  0  0  0  0
   52.3802   82.3932    4.1810 H   0  0  0  0  0  0  0  0  0  0  0  0
  1  2  1  0
  1 15  1  0
  1 16  2  0
  2  3  1  0
  2 10  1  0
  3  4  1  0
  4  5  1  0
  5  6  1  0
  6  7  1  0
  6 11  2  0
  7  8  1  0
  8  9  1  0
  8 12  1  0
  9 14  2  0
  9 17  1  0
 12 13  1  0
 18 17  1  0
 18 19  1  0
 18 20  1  0
 19 23  2  0
 19 24  1  0
 20 21  1  0
 20 22  1  0
  2 25  1  1
  3 26  1  0
  3 27  1  0
  4 28  1  0
  4 29  1  0
  5 30  1  0
  5 31  1  0
  7 32  1  0
  7 33  1  0
  8 34  1  1
 10 35  1  0
 10 36  1  0
 10 37  1  0
 12 38  1  0
 12 39  1  0
 13 40  1  0
 17 41  1  0
 18 42  1  6
 20 43  1  6
 21 44  1  0
 21 45  1  0
 21 46  1  0
 22 47  1  0
 22 48  1  0
 22 49  1  0
M  CHG  4   7   1  10   1  15  -1  24  -1
M  END
>  <filename_input>  (3) 
6ZAE_ACV_docked.sdf

>  <pdb_id>  (3) 
6ZAE_ACV

>  <pose_rank>  (3) 
2

>  <num_atoms_heavy>  (3) 
24

>  <num_torsions>  (3) 
12

>  <pose>  (3) 
[52.52273106823274, 79.62883300885981, 9.192694929175152, 1.097181115481878, -0.9077343544594696, 0.23637855692018195, 0.3579409732079758, 0.390377678761188, -0.29679324798413487, 0.6005824387891967, -2.995580832770496, -0.4591134981012748, -0.1483356061107879, -0.0885251860531645, -4.858842417198521, 1.097249657715654, 0.608089375723502, 2.90877582747077]

>  <energy>  (3) 
-647.0785488284849

>  <inter_energy>  (3) 
-672.5810646517702

>  <intra_energy>  (3) 
27.870515094699485

>  <rmsd>  (3) 
2.24216

>  <sdf_rank>  (3) 
0

$$$$

     RDKit          3D

 49 48  0  0  0  0  0  0  0  0999 V2000
   56.8209   72.3508    8.7309 C   0  0  0  0  0  0  0  0  0  0  0  0
   56.5368   73.8472    8.7696 C   0  0  2  0  0  0  0  0  0  0  0  0
   55.2868   74.1203    9.6119 C   0  0  0  0  0  0  0  0  0  0  0  0
   54.5716   75.4035    9.2095 C   0  0  0  0  0  0  0  0  0  0  0  0
   55.2159   76.6614    9.7761 C   0  0  0  0  0  0  0  0  0  0  0  0
   55.2047   77.7990    8.7853 C   0  0  0  0  0  0  0  0  0  0  0  0
   54.2123   78.6773    8.9390 N   0  0  0  0  0  0  0  0  0  0  0  0
   52.8863   78.4826    8.3820 C   0  0  2  0  0  0  0  0  0  0  0  0
   52.5929   79.5986    7.3806 C   0  0  0  0  0  0  0  0  0  0  0  0
   56.3954   74.3560    7.3923 N   0  0  0  0  0  0  0  0  0  0  0  0
   56.0439   77.8942    7.8884 O   0  0  0  0  0  0  0  0  0  0  0  0
   51.8408   78.5419    9.4841 C   0  0  0  0  0  0  0  0  0  0  0  0
   52.4629   79.2279   11.0392 S   0  0  0  0  0  0  0  0  0  0  0  0
   53.4508   79.9644    6.5813 O   0  0  0  0  0  0  0  0  0  0  0  0
   57.5426   71.9118    9.7202 O   0  0  0  0  0  0  0  0  0  0  0  0
   56.3865   71.6500    7.8387 O   0  0  0  0  0  0  0  0  0  0  0  0
   51.3836   80.1553    7.4486 N   0  0  0  0  0  0  0  0  0  0  0  0
   51.0493   81.3474    6.6938 C   0  0  1  0  0  0  0  0  0  0  0  0
   50.0364   80.9542    5.6366 C   0  0  0  0  0  0  0  0  0  0  0  0
   50.5093   82.4724    7.6032 C   0  0  1  0  0  0  0  0  0  0  0  0
   49.2336   82.0305    8.3200 C   0  0  0  0  0  0  0  0  0  0  0  0
   51.5765   82.9149    8.6082 C   0  0  0  0  0  0  0  0  0  0  0  0
   49.6253   79.8109    5.5716 O   0  0  0  0  0  0  0  0  0  0  0  0
   49.6785   81.9208    4.8425 O   0  0  0  0  0  0  0  0  0  0  0  0
   57.3760   74.3779    9.2431 H   0  0  0  0  0  0  0  0  0  0  0  0
   54.5906   73.2773    9.4909 H   0  0  0  0  0  0  0  0  0  0  0  0
   55.6107   74.2358   10.6568 H   0  0  0  0  0  0  0  0  0  0  0  0
   54.5754   75.4746    8.1118 H   0  0  0  0  0  0  0  0  0  0  0  0
   53.5528   75.3486    9.6206 H   0  0  0  0  0  0  0  0  0  0  0  0
   54.6629   76.9689   10.6759 H   0  0  0  0  0  0  0  0  0  0  0  0
   56.2645   76.4282   10.0131 H   0  0  0  0  0  0  0  0  0  0  0  0
   54.0800   78.7798    9.9554 H   0  0  0  0  0  0  0  0  0  0  0  0
   54.5541   79.4718    8.3798 H   0  0  0  0  0  0  0  0  0  0  0  0
   52.8495   77.5000    7.8890 H   0  0  0  0  0  0  0  0  0  0  0  0
   56.1197   75.3481    7.4194 H   0  0  0  0  0  0  0  0  0  0  0  0
   57.2942   74.2629    6.8979 H   0  0  0  0  0  0  0  0  0  0  0  0
   55.6736   73.8125    6.8979 H   0  0  0  0  0  0  0  0  0  0  0  0
   51.0056   79.1682    9.1374 H   0  0  0  0  0  0  0  0  0  0  0  0
   51.5310   77.5067    9.6900 H   0  0  0  0  0  0  0  0  0  0  0  0
   51.8744   78.5789   12.0925 H   0  0  0  0  0  0  0  0  0  0  0  0
   50.6679   79.7274    8.0532 H   0  0  0  0  0  0  0  0  0  0  0  0
   51.9551   81.7535    6.2197 H   0  0  0  0  0  0  0  0  0  0  0  0
   50.2583   83.3350    6.9684 H   0  0  0  0  0  0  0  0  0  0  0  0
   49.3871   82.0836    9.4079 H   0  0  0  0  0  0  0  0  0  0  0  0
   48.4038   82.6935    8.0339 H   0  0  0  0  0  0  0  0  0  0  0  0
   48.9919   80.9962    8.0339 H   0  0  0  0  0  0  0  0  0  0  0  0
   51.2032   82.7601    9.6313 H   0  0  0  0  0  0  0  0  0  0  0  0
   52.4904   82.3216    8.4576 H   0  0  0  0  0  0  0  0  0  0  0  0
   51.8023   83.9809    8.4576 H   0  0  0  0  0  0  0  0  0  0  0  0
  1  2  1  0
  1 15  1  0
  1 16  2  0
  2  3  1  0
  2 10  1  0
  3  4  1  0
  4  5  1  0
  5  6  1  0
  6  7  1  0
  6 11  2  0
  7  8  1  0
  8  9  1  0
  8 12  1  0
  9 14  2  0
  9 17  1  0
 12 13  1  0
 18 17  1  0
 18 19  1  0
 18 20  1  0
 19 23  2  0
 19 24  1  0
 20 21  1  0
 20 22  1  0
  2 25  1  1
  3 26  1  0
  3 27  1  0
  4 28  1  0
  4 29  1  0
  5 30  1  0
  5 31  1  0
  7 32  1  0
  7 33  1  0
  8 34  1  6
 10 35  1  0
 10 36  1  0
 10 37  1  0
 12 38  1  0
 12 39  1  0
 13 40  1  0
 17 41  1  0
 18 42  1  6
 20 43  1  6
 21 44  1  0
 21 45  1  0
 21 46  1  0
 22 47  1  0
 22 48  1  0
 22 49  1  0
M  CHG  4   7   1  10   1  15  -1  24  -1
M  END
>  <filename_input>  (4) 
6ZAE_ACV_docked.sdf

>  <pdb_id>  (4) 
6ZAE_ACV

>  <pose_rank>  (4) 
3

>  <num_atoms_heavy>  (4) 
24

>  <num_torsions>  (4) 
12

>  <pose>  (4) 
[52.88629650384255, 78.48260542043964, 8.38202496135193, -2.8507200757456417, 1.8182903627451878, -1.2060403352455824, 0.6948672009582172, -6.810824002376534, 0.14553718578956568, -0.13748587975621715, -0.6543056361299592, -37.71926260475427, -42.421943837176904, -27.83822657963934, 11.91245649431591, 8.115884317161456, 0.4354693896169785, -0.34902215588481855]

>  <energy>  (4) 
-702.5947773788771

>  <inter_energy>  (4) 
-704.9728351490373

>  <intra_energy>  (4) 
3.5044507044761337

>  <rmsd>  (4) 
2.69867

>  <sdf_rank>  (4) 
0

$$$$

     RDKit          3D

 49 48  0  0  0  0  0  0  0  0999 V2000
   56.8333   72.4430    8.9894 C   0  0  0  0  0  0  0  0  0  0  0  0
   55.7734   73.4722    9.3620 C   0  0  2  0  0  0  0  0  0  0  0  0
   56.3626   74.8837    9.2764 C   0  0  0  0  0  0  0  0  0  0  0  0
   55.5822   75.7940    8.3371 C   0  0  0  0  0  0  0  0  0  0  0  0
   54.6207   76.7295    9.0573 C   0  0  0  0  0  0  0  0  0  0  0  0
   55.0100   78.1778    8.8932 C   0  0  0  0  0  0  0  0  0  0  0  0
   54.1843   78.9069    8.1405 N   0  0  0  0  0  0  0  0  0  0  0  0
   54.6464   79.8979    7.1862 C   0  0  2  0  0  0  0  0  0  0  0  0
   53.4497   80.6955    6.6704 C   0  0  0  0  0  0  0  0  0  0  0  0
   55.2509   73.1737   10.7088 N   0  0  0  0  0  0  0  0  0  0  0  0
   56.0295   78.6436    9.4047 O   0  0  0  0  0  0  0  0  0  0  0  0
   55.3122   79.2151    6.0023 C   0  0  0  0  0  0  0  0  0  0  0  0
   56.7629   80.0981    5.3762 S   0  0  0  0  0  0  0  0  0  0  0  0
   53.4942   81.2560    5.5784 O   0  0  0  0  0  0  0  0  0  0  0  0
   57.0355   72.3138    7.7109 O   0  0  0  0  0  0  0  0  0  0  0  0
   57.4298   71.8161    9.8420 O   0  0  0  0  0  0  0  0  0  0  0  0
   52.3902   80.7653    7.4763 N   0  0  0  0  0  0  0  0  0  0  0  0
   51.2743   81.6473    7.1942 C   0  0  1  0  0  0  0  0  0  0  0  0
   50.2930   80.8852    6.3255 C   0  0  0  0  0  0  0  0  0  0  0  0
   50.6043   82.1601    8.4874 C   0  0  1  0  0  0  0  0  0  0  0  0
   49.1244   82.4626    8.2530 C   0  0  0  0  0  0  0  0  0  0  0  0
   50.7832   81.1520    9.6260 C   0  0  0  0  0  0  0  0  0  0  0  0
   50.0113   79.7296    6.5817 O   0  0  0  0  0  0  0  0  0  0  0  0
   49.8152   81.5639    5.3236 O   0  0  0  0  0  0  0  0  0  0  0  0
   54.9337   73.4219    8.6533 H   0  0  0  0  0  0  0  0  0  0  0  0
   56.3563   75.3285   10.2825 H   0  0  0  0  0  0  0  0  0  0  0  0
   57.3833   74.7924    8.8766 H   0  0  0  0  0  0  0  0  0  0  0  0
   56.2993   76.4032    7.7672 H   0  0  0  0  0  0  0  0  0  0  0  0
   54.9766   75.1454    7.6871 H   0  0  0  0  0  0  0  0  0  0  0  0
   53.6105   76.5848    8.6468 H   0  0  0  0  0  0  0  0  0  0  0  0
   54.6532   76.4889   10.1302 H   0  0  0  0  0  0  0  0  0  0  0  0
   53.6247   78.2323    7.5995 H   0  0  0  0  0  0  0  0  0  0  0  0
   53.7326   79.5015    8.8499 H   0  0  0  0  0  0  0  0  0  0  0  0
   55.3683   80.5612    7.6852 H   0  0  0  0  0  0  0  0  0  0  0  0
   55.8991   73.5440   11.4184 H   0  0  0  0  0  0  0  0  0  0  0  0
   54.3272   73.6146   10.8242 H   0  0  0  0  0  0  0  0  0  0  0  0
   55.1615   72.1541   10.8242 H   0  0  0  0  0  0  0  0  0  0  0  0
   55.6260   78.2078    6.3134 H   0  0  0  0  0  0  0  0  0  0  0  0
   54.5736   79.1910    5.1875 H   0  0  0  0  0  0  0  0  0  0  0  0
   57.5105   80.5532    6.4302 H   0  0  0  0  0  0  0  0  0  0  0  0
   52.3635   80.1773    8.3215 H   0  0  0  0  0  0  0  0  0  0  0  0
   51.6328   82.5432    6.6662 H   0  0  0  0  0  0  0  0  0  0  0  0
   51.0983   83.0983    8.7801 H   0  0  0  0  0  0  0  0  0  0  0  0
   48.6136   82.5670    9.2216 H   0  0  0  0  0  0  0  0  0  0  0  0
   49.0271   83.3992    7.6844 H   0  0  0  0  0  0  0  0  0  0  0  0
   48.6675   81.6393    7.6844 H   0  0  0  0  0  0  0  0  0  0  0  0
   50.6913   81.6699   10.5921 H   0  0  0  0  0  0  0  0  0  0  0  0
   50.0091   80.3740    9.5519 H   0  0  0  0  0  0  0  0  0  0  0  0
   51.7778   80.6879    9.5519 H   0  0  0  0  0  0  0  0  0  0  0  0
  1  2  1  0
  1 15  1  0
  1 16  2  0
  2  3  1  0
  2 10  1  0
  3  4  1  0
  4  5  1  0
  5  6  1  0
  6  7  1  0
  6 11  2  0
  7  8  1  0
  8  9  1  0
  8 12  1  0
  9 14  2  0
  9 17  1  0
 12 13  1  0
 18 17  1  0
 18 19  1  0
 18 20  1  0
 19 23  2  0
 19 24  1  0
 20 21  1  0
 20 22  1  0
  2 25  1  6
  3 26  1  0
  3 27  1  0
  4 28  1  0
  4 29  1  0
  5 30  1  0
  5 31  1  0
  7 32  1  0
  7 33  1  0
  8 34  1  1
 10 35  1  0
 10 36  1  0
 10 37  1  0
 12 38  1  0
 12 39  1  0
 13 40  1  0
 17 41  1  0
 18 42  1  6
 20 43  1  1
 21 44  1  0
 21 45  1  0
 21 46  1  0
 22 47  1  0
 22 48  1  0
 22 49  1  0
M  CHG  4   7   1  10   1  15  -1  24  -1
M  END
>  <filename_input>  (5) 
6ZAE_ACV_docked.sdf

>  <pdb_id>  (5) 
6ZAE_ACV

>  <pose_rank>  (5) 
4

>  <num_atoms_heavy>  (5) 
24

>  <num_torsions>  (5) 
12

>  <pose>  (5) 
[54.64642548286585, 79.89787751113404, 7.1861993580320345, -0.8338182376920953, -0.06284741246296681, -0.8601351749986679, -2.768337367456378, -0.9324869246642875, 0.8695061368267076, 4.561816948275518, -3.3826382964004753, -19.797042083850553, -11.970191801657597, -8.75708478759972, -7.395117767766948, 4.966798931470389, -1.0135295978092118, -0.20995818734288002]

>  <energy>  (5) 
-617.0058611035839

>  <inter_energy>  (5) 
-628.2859554356223

>  <intra_energy>  (5) 
13.588247978565006

>  <rmsd>  (5) 
2.08061

>  <sdf_rank>  (5) 
0

$$$$

     RDKit          3D

 49 48  0  0  0  0  0  0  0  0999 V2000
   56.5774   72.6877    8.3536 C   0  0  0  0  0  0  0  0  0  0  0  0
   55.4974   73.6889    8.7440 C   0  0  2  0  0  0  0  0  0  0  0  0
   55.9320   75.1051    8.3543 C   0  0  0  0  0  0  0  0  0  0  0  0
   54.9900   76.1791    8.8830 C   0  0  0  0  0  0  0  0  0  0  0  0
   55.6674   77.5240    9.1083 C   0  0  0  0  0  0  0  0  0  0  0  0
   54.6691   78.6502    9.2140 C   0  0  0  0  0  0  0  0  0  0  0  0
   55.1431   79.8604    8.9127 N   0  0  0  0  0  0  0  0  0  0  0  0
   55.0036   80.4635    7.6001 C   0  0  2  0  0  0  0  0  0  0  0  0
   53.6599   81.1863    7.5191 C   0  0  0  0  0  0  0  0  0  0  0  0
   55.2210   73.5750   10.1886 N   0  0  0  0  0  0  0  0  0  0  0  0
   53.5054   78.4620    9.5721 O   0  0  0  0  0  0  0  0  0  0  0  0
   55.0349   79.3903    6.5239 C   0  0  0  0  0  0  0  0  0  0  0  0
   56.1305   79.7833    5.1378 S   0  0  0  0  0  0  0  0  0  0  0  0
   53.0905   81.5659    8.5391 O   0  0  0  0  0  0  0  0  0  0  0  0
   56.7803   72.5833    7.0729 O   0  0  0  0  0  0  0  0  0  0  0  0
   57.1880   72.0594    9.1952 O   0  0  0  0  0  0  0  0  0  0  0  0
   53.1449   81.3487    6.3005 N   0  0  0  0  0  0  0  0  0  0  0  0
   51.7944   81.8380    6.1022 C   0  0  1  0  0  0  0  0  0  0  0  0
   51.3653   81.4509    4.7007 C   0  0  0  0  0  0  0  0  0  0  0  0
   50.8197   81.2852    7.1646 C   0  0  1  0  0  0  0  0  0  0  0  0
   49.5724   82.1623    7.2707 C   0  0  0  0  0  0  0  0  0  0  0  0
   50.4434   79.8344    6.8508 C   0  0  0  0  0  0  0  0  0  0  0  0
   51.9215   80.5410    4.1149 O   0  0  0  0  0  0  0  0  0  0  0  0
   50.3928   82.1656    4.2145 O   0  0  0  0  0  0  0  0  0  0  0  0
   54.5658   73.4689    8.2019 H   0  0  0  0  0  0  0  0  0  0  0  0
   56.9374   75.2885    8.7611 H   0  0  0  0  0  0  0  0  0  0  0  0
   55.9186   75.1649    7.2560 H   0  0  0  0  0  0  0  0  0  0  0  0
   54.1759   76.3167    8.1562 H   0  0  0  0  0  0  0  0  0  0  0  0
   54.6226   75.8342    9.8608 H   0  0  0  0  0  0  0  0  0  0  0  0
   56.2491   77.4766   10.0407 H   0  0  0  0  0  0  0  0  0  0  0  0
   56.3164   77.7260    8.2434 H   0  0  0  0  0  0  0  0  0  0  0  0
   54.6952   80.5121    9.5727 H   0  0  0  0  0  0  0  0  0  0  0  0
   56.1594   79.6984    8.9562 H   0  0  0  0  0  0  0  0  0  0  0  0
   55.8331   81.1689    7.4439 H   0  0  0  0  0  0  0  0  0  0  0  0
   56.0359   73.9109   10.7215 H   0  0  0  0  0  0  0  0  0  0  0  0
   54.3966   74.1447   10.4264 H   0  0  0  0  0  0  0  0  0  0  0  0
   55.0377   72.5897   10.4264 H   0  0  0  0  0  0  0  0  0  0  0  0
   55.3765   78.4498    6.9809 H   0  0  0  0  0  0  0  0  0  0  0  0
   54.0160   79.3126    6.1169 H   0  0  0  0  0  0  0  0  0  0  0  0
   57.3380   80.2166    5.6187 H   0  0  0  0  0  0  0  0  0  0  0  0
   53.7214   81.1205    5.4780 H   0  0  0  0  0  0  0  0  0  0  0  0
   51.7747   82.9318    6.2170 H   0  0  0  0  0  0  0  0  0  0  0  0
   51.3293   81.3035    8.1392 H   0  0  0  0  0  0  0  0  0  0  0  0
   49.3321   82.3313    8.3308 H   0  0  0  0  0  0  0  0  0  0  0  0
   49.7604   83.1281    6.7789 H   0  0  0  0  0  0  0  0  0  0  0  0
   48.7271   81.6588    6.7789 H   0  0  0  0  0  0  0  0  0  0  0  0
   50.3000   79.2813    7.7908 H   0  0  0  0  0  0  0  0  0  0  0  0
   49.5106   79.8153    6.2682 H   0  0  0  0  0  0  0  0  0  0  0  0
   51.2494   79.3644    6.2682 H   0  0  0  0  0  0  0  0  0  0  0  0
  1  2  1  0
  1 15  1  0
  1 16  2  0
  2  3  1  0
  2 10  1  0
  3  4  1  0
  4  5  1  0
  5  6  1  0
  6  7  1  0
  6 11  2  0
  7  8  1  0
  8  9  1  0
  8 12  1  0
  9 14  2  0
  9 17  1  0
 12 13  1  0
 18 17  1  0
 18 19  1  0
 18 20  1  0
 19 23  2  0
 19 24  1  0
 20 21  1  0
 20 22  1  0
  2 25  1  6
  3 26  1  0
  3 27  1  0
  4 28  1  0
  4 29  1  0
  5 30  1  0
  5 31  1  0
  7 32  1  0
  7 33  1  0
  8 34  1  6
 10 35  1  0
 10 36  1  0
 10 37  1  0
 12 38  1  0
 12 39  1  0
 13 40  1  0
 17 41  1  0
 18 42  1  6
 20 43  1  1
 21 44  1  0
 21 45  1  0
 21 46  1  0
 22 47  1  0
 22 48  1  0
 22 49  1  0
M  CHG  4   7   1  10   1  15  -1  24  -1
M  END
>  <filename_input>  (6) 
6ZAE_ACV_docked.sdf

>  <pdb_id>  (6) 
6ZAE_ACV

>  <pose_rank>  (6) 
5

>  <num_atoms_heavy>  (6) 
24

>  <num_torsions>  (6) 
12

>  <pose>  (6) 
[55.0036184608625, 80.46354308450915, 7.600061361040073, 4.245220838091919, -0.8642755375720491, 1.9893050178694485, 0.3553666015524195, 1.0014591040620335, 0.476389533187907, -2.57838737402489, -3.225858891043947, 3.5408682239787614, -1.5788838865578902, -0.8494126849427802, -0.2844566513853054, -0.3923076972068811, 0.11123549322174703, 0.03347107320893974]

>  <energy>  (6) 
-567.4753460167314

>  <inter_energy>  (6) 
-620.3716842642032

>  <intra_energy>  (6) 
52.39271277266047

>  <rmsd>  (6) 
2.20785

>  <sdf_rank>  (6) 
0

$$$$

     RDKit          3D

 49 48  0  0  0  0  0  0  0  0999 V2000
   56.5691   72.4646    9.2499 C   0  0  0  0  0  0  0  0  0  0  0  0
   55.6418   73.6648    9.3948 C   0  0  2  0  0  0  0  0  0  0  0  0
   56.3512   74.7837   10.1638 C   0  0  0  0  0  0  0  0  0  0  0  0
   55.9819   76.1731    9.6605 C   0  0  0  0  0  0  0  0  0  0  0  0
   54.9154   76.1620    8.5739 C   0  0  0  0  0  0  0  0  0  0  0  0
   53.6907   76.9469    8.9744 C   0  0  0  0  0  0  0  0  0  0  0  0
   53.6013   78.1692    8.4475 N   0  0  0  0  0  0  0  0  0  0  0  0
   52.8385   79.2429    9.0573 C   0  0  2  0  0  0  0  0  0  0  0  0
   51.9847   79.9230    7.9883 C   0  0  0  0  0  0  0  0  0  0  0  0
   54.3942   73.2440   10.0600 N   0  0  0  0  0  0  0  0  0  0  0  0
   52.8465   76.4930    9.7484 O   0  0  0  0  0  0  0  0  0  0  0  0
   53.7770   80.2808    9.6516 C   0  0  0  0  0  0  0  0  0  0  0  0
   55.5130   79.7685    9.6628 S   0  0  0  0  0  0  0  0  0  0  0  0
   51.4126   79.2591    7.1277 O   0  0  0  0  0  0  0  0  0  0  0  0
   56.7273   72.0482    8.0277 O   0  0  0  0  0  0  0  0  0  0  0  0
   57.1088   71.9651   10.2168 O   0  0  0  0  0  0  0  0  0  0  0  0
   51.9259   81.2539    8.0326 N   0  0  0  0  0  0  0  0  0  0  0  0
   51.3164   82.0263    6.9674 C   0  0  1  0  0  0  0  0  0  0  0  0
   51.9328   81.5725    5.6588 C   0  0  0  0  0  0  0  0  0  0  0  0
   49.7800   81.8733    6.9514 C   0  0  1  0  0  0  0  0  0  0  0  0
   49.2110   81.9265    8.3691 C   0  0  0  0  0  0  0  0  0  0  0  0
   49.1389   82.9437    6.0638 C   0  0  0  0  0  0  0  0  0  0  0  0
   51.2340   81.3839    4.6808 O   0  0  0  0  0  0  0  0  0  0  0  0
   53.2230   81.4079    5.6954 O   0  0  0  0  0  0  0  0  0  0  0  0
   55.3803   74.0611    8.4025 H   0  0  0  0  0  0  0  0  0  0  0  0
   56.0747   74.7099   11.2260 H   0  0  0  0  0  0  0  0  0  0  0  0
   57.4331   74.6540   10.0134 H   0  0  0  0  0  0  0  0  0  0  0  0
   55.6074   76.7630   10.5100 H   0  0  0  0  0  0  0  0  0  0  0  0
   56.8899   76.6087    9.2180 H   0  0  0  0  0  0  0  0  0  0  0  0
   55.3365   76.6037    7.6587 H   0  0  0  0  0  0  0  0  0  0  0  0
   54.6103   75.1181    8.4087 H   0  0  0  0  0  0  0  0  0  0  0  0
   54.5681   78.5163    8.3721 H   0  0  0  0  0  0  0  0  0  0  0  0
   53.0508   77.9852    7.5966 H   0  0  0  0  0  0  0  0  0  0  0  0
   52.2034   78.8208    9.8500 H   0  0  0  0  0  0  0  0  0  0  0  0
   54.5187   73.2860   11.0816 H   0  0  0  0  0  0  0  0  0  0  0  0
   53.6275   73.8729    9.7814 H   0  0  0  0  0  0  0  0  0  0  0  0
   54.1651   72.2792    9.7814 H   0  0  0  0  0  0  0  0  0  0  0  0
   53.6913   81.2051    9.0615 H   0  0  0  0  0  0  0  0  0  0  0  0
   53.4767   80.4235   10.7001 H   0  0  0  0  0  0  0  0  0  0  0  0
   55.9433   79.6416   10.9572 H   0  0  0  0  0  0  0  0  0  0  0  0
   52.3237   81.7466    8.8449 H   0  0  0  0  0  0  0  0  0  0  0  0
   51.5099   83.0973    7.1271 H   0  0  0  0  0  0  0  0  0  0  0  0
   49.5385   80.8875    6.5275 H   0  0  0  0  0  0  0  0  0  0  0  0
   50.0321   81.8498    9.0969 H   0  0  0  0  0  0  0  0  0  0  0  0
   48.6792   82.8783    8.5152 H   0  0  0  0  0  0  0  0  0  0  0  0
   48.5120   81.0898    8.5152 H   0  0  0  0  0  0  0  0  0  0  0  0
   48.6765   83.7158    6.6963 H   0  0  0  0  0  0  0  0  0  0  0  0
   49.9103   83.4037    5.4287 H   0  0  0  0  0  0  0  0  0  0  0  0
   48.3693   82.4807    5.4287 H   0  0  0  0  0  0  0  0  0  0  0  0
  1  2  1  0
  1 15  1  0
  1 16  2  0
  2  3  1  0
  2 10  1  0
  3  4  1  0
  4  5  1  0
  5  6  1  0
  6  7  1  0
  6 11  2  0
  7  8  1  0
  8  9  1  0
  8 12  1  0
  9 14  2  0
  9 17  1  0
 12 13  1  0
 18 17  1  0
 18 19  1  0
 18 20  1  0
 19 23  2  0
 19 24  1  0
 20 21  1  0
 20 22  1  0
  2 25  1  6
  3 26  1  0
  3 27  1  0
  4 28  1  0
  4 29  1  0
  5 30  1  0
  5 31  1  0
  7 32  1  0
  7 33  1  0
  8 34  1  1
 10 35  1  0
 10 36  1  0
 10 37  1  0
 12 38  1  0
 12 39  1  0
 13 40  1  0
 17 41  1  0
 18 42  1  1
 20 43  1  6
 21 44  1  0
 21 45  1  0
 21 46  1  0
 22 47  1  0
 22 48  1  0
 22 49  1  0
M  CHG  4   7   1  10   1  15  -1  24  -1
M  END
>  <filename_input>  (7) 
6ZAE_ACV_docked.sdf

>  <pdb_id>  (7) 
6ZAE_ACV

>  <pose_rank>  (7) 
6

>  <num_atoms_heavy>  (7) 
24

>  <num_torsions>  (7) 
12

>  <pose>  (7) 
[52.838542195372746, 79.24286407186698, 9.05726474935788, -3.5608863756172178, 3.4661225451901383, 0.8419464441300767, 0.6557486582191903, 2.9047258378306187, 2.4893851223762358, 1.664170011897699, -1.0615456583600233, -0.29056096516010954, 0.31490010782052186, -2.6448633502759087, -1.0121089056913335, -2.9827417066330333, -0.6513410292000591, -1.0394234830550564]

>  <energy>  (7) 
-580.0991494684339

>  <inter_energy>  (7) 
-652.1901207150115

>  <intra_energy>  (7) 
70.81962876760012

>  <rmsd>  (7) 
2.4707

>  <sdf_rank>  (7) 
0

$$$$

     RDKit          3D

 49 48  0  0  0  0  0  0  0  0999 V2000
   49.1653   82.4657    7.8627 C   0  0  0  0  0  0  0  0  0  0  0  0
   49.9822   81.6477    6.8704 C   0  0  2  0  0  0  0  0  0  0  0  0
   51.2328   82.4282    6.4540 C   0  0  0  0  0  0  0  0  0  0  0  0
   52.0478   81.7121    5.3848 C   0  0  0  0  0  0  0  0  0  0  0  0
   52.6656   80.4060    5.8650 C   0  0  0  0  0  0  0  0  0  0  0  0
   54.0660   80.6017    6.3911 C   0  0  0  0  0  0  0  0  0  0  0  0
   54.6906   79.4867    6.7740 N   0  0  0  0  0  0  0  0  0  0  0  0
   55.0212   79.1969    8.1571 C   0  0  2  0  0  0  0  0  0  0  0  0
   55.9240   77.9654    8.2108 C   0  0  0  0  0  0  0  0  0  0  0  0
   49.1397   81.2975    5.7113 N   0  0  0  0  0  0  0  0  0  0  0  0
   54.5835   81.7165    6.4763 O   0  0  0  0  0  0  0  0  0  0  0  0
   53.7571   78.8980    8.9468 C   0  0  0  0  0  0  0  0  0  0  0  0
   53.2156   80.2691    9.9971 S   0  0  0  0  0  0  0  0  0  0  0  0
   56.7657   77.7673    7.3385 O   0  0  0  0  0  0  0  0  0  0  0  0
   49.3936   82.1849    9.1122 O   0  0  0  0  0  0  0  0  0  0  0  0
   48.3784   83.3109    7.4855 O   0  0  0  0  0  0  0  0  0  0  0  0
   55.7237   77.1256    9.2263 N   0  0  0  0  0  0  0  0  0  0  0  0
   56.3730   75.8303    9.2843 C   0  0  1  0  0  0  0  0  0  0  0  0
   57.1124   75.7444   10.6049 C   0  0  0  0  0  0  0  0  0  0  0  0
   55.3639   74.6725    9.1252 C   0  0  1  0  0  0  0  0  0  0  0  0
   56.0581   73.4085    8.6184 C   0  0  0  0  0  0  0  0  0  0  0  0
   54.6350   74.4049   10.4450 C   0  0  0  0  0  0  0  0  0  0  0  0
   57.9742   74.9026   10.7754 O   0  0  0  0  0  0  0  0  0  0  0  0
   56.7393   76.6190   11.4931 O   0  0  0  0  0  0  0  0  0  0  0  0
   50.3188   80.7118    7.3404 H   0  0  0  0  0  0  0  0  0  0  0  0
   50.9213   83.4073    6.0613 H   0  0  0  0  0  0  0  0  0  0  0  0
   51.8712   82.5294    7.3441 H   0  0  0  0  0  0  0  0  0  0  0  0
   51.3876   81.4924    4.5328 H   0  0  0  0  0  0  0  0  0  0  0  0
   52.8771   82.3800    5.1087 H   0  0  0  0  0  0  0  0  0  0  0  0
   52.0393   79.9915    6.6686 H   0  0  0  0  0  0  0  0  0  0  0  0
   52.7184   79.7200    5.0068 H   0  0  0  0  0  0  0  0  0  0  0  0
   54.0982   78.7068    6.4553 H   0  0  0  0  0  0  0  0  0  0  0  0
   55.6257   79.6257    6.3652 H   0  0  0  0  0  0  0  0  0  0  0  0
   55.5308   80.0702    8.5904 H   0  0  0  0  0  0  0  0  0  0  0  0
   48.2389   80.9232    6.0422 H   0  0  0  0  0  0  0  0  0  0  0  0
   48.9731   82.1391    5.1412 H   0  0  0  0  0  0  0  0  0  0  0  0
   49.6186   80.5859    5.1412 H   0  0  0  0  0  0  0  0  0  0  0  0
   52.9504   78.6651    8.2362 H   0  0  0  0  0  0  0  0  0  0  0  0
   53.9858   78.0531    9.6130 H   0  0  0  0  0  0  0  0  0  0  0  0
   53.3543   79.9179   11.3141 H   0  0  0  0  0  0  0  0  0  0  0  0
   55.0911   77.4040    9.9900 H   0  0  0  0  0  0  0  0  0  0  0  0
   57.0789   75.7305    8.4465 H   0  0  0  0  0  0  0  0  0  0  0  0
   54.6162   74.9706    8.3756 H   0  0  0  0  0  0  0  0  0  0  0  0
   56.3901   72.8039    9.4753 H   0  0  0  0  0  0  0  0  0  0  0  0
   55.3546   72.8236    8.0076 H   0  0  0  0  0  0  0  0  0  0  0  0
   56.9291   73.6883    8.0076 H   0  0  0  0  0  0  0  0  0  0  0  0
   55.2996   74.6489   11.2869 H   0  0  0  0  0  0  0  0  0  0  0  0
   53.7314   75.0298   10.4981 H   0  0  0  0  0  0  0  0  0  0  0  0
   54.3505   73.3436   10.4981 H   0  0  0  0  0  0  0  0  0  0  0  0
  1  2  1  0
  1 15  1  0
  1 16  2  0
  2  3  1  0
  2 10  1  0
  3  4  1  0
  4  5  1  0
  5  6  1  0
  6  7  1  0
  6 11  2  0
  7  8  1  0
  8  9  1  0
  8 12  1  0
  9 14  2  0
  9 17  1  0
 12 13  1  0
 18 17  1  0
 18 19  1  0
 18 20  1  0
 19 23  2  0
 19 24  1  0
 20 21  1  0
 20 22  1  0
  2 25  1  1
  3 26  1  0
  3 27  1  0
  4 28  1  0
  4 29  1  0
  5 30  1  0
  5 31  1  0
  7 32  1  0
  7 33  1  0
  8 34  1  1
 10 35  1  0
 10 36  1  0
 10 37  1  0
 12 38  1  0
 12 39  1  0
 13 40  1  0
 17 41  1  0
 18 42  1  6
 20 43  1  6
 21 44  1  0
 21 45  1  0
 21 46  1  0
 22 47  1  0
 22 48  1  0
 22 49  1  0
M  CHG  4   7   1  10   1  15  -1  24  -1
M  END
>  <filename_input>  (8) 
6ZAE_ACV_docked.sdf

>  <pdb_id>  (8) 
6ZAE_ACV

>  <pose_rank>  (8) 
7

>  <num_atoms_heavy>  (8) 
24

>  <num_torsions>  (8) 
12

>  <pose>  (8) 
[55.02124816390371, 79.19692261691046, 8.157135942172221, -0.9232333154528951, -2.6925090888197727, -2.622554466473452, 6.86136142745361, -0.29697939528609074, -2.742909980741255, 3.6574661386800926, -2.7044351717132797, 11.620509358110816, -5.208126313733173, 17.630967902310186, 7.828585028395987, 8.361876629270492, -6.23678181949311, -0.5048423529349005]

>  <energy>  (8) 
-626.5075062697741

>  <inter_energy>  (8) 
-628.6626961629136

>  <intra_energy>  (8) 
12.299981725205624

>  <rmsd>  (8) 
8.59135

>  <sdf_rank>  (8) 
0

$$$$

     RDKit          3D

 49 48  0  0  0  0  0  0  0  0999 V2000
   56.7472   72.2582    8.3832 C   0  0  0  0  0  0  0  0  0  0  0  0
   57.1278   73.5401    7.6529 C   0  0  2  0  0  0  0  0  0  0  0  0
   55.9214   74.4817    7.5866 C   0  0  0  0  0  0  0  0  0  0  0  0
   56.1469   75.6667    6.6564 C   0  0  0  0  0  0  0  0  0  0  0  0
   56.7222   76.8891    7.3584 C   0  0  0  0  0  0  0  0  0  0  0  0
   55.8941   78.1259    7.1118 C   0  0  0  0  0  0  0  0  0  0  0  0
   54.6543   78.0874    7.6030 N   0  0  0  0  0  0  0  0  0  0  0  0
   54.3361   78.4103    8.9817 C   0  0  2  0  0  0  0  0  0  0  0  0
   52.8882   78.8912    9.0640 C   0  0  0  0  0  0  0  0  0  0  0  0
   57.6414   73.2068    6.3108 N   0  0  0  0  0  0  0  0  0  0  0  0
   56.3311   79.0918    6.4842 O   0  0  0  0  0  0  0  0  0  0  0  0
   55.2398   79.5263    9.4808 C   0  0  0  0  0  0  0  0  0  0  0  0
   56.1395   79.1099   10.9951 S   0  0  0  0  0  0  0  0  0  0  0  0
   52.1514   78.5075    9.9688 O   0  0  0  0  0  0  0  0  0  0  0  0
   57.6958   71.7508    9.1147 O   0  0  0  0  0  0  0  0  0  0  0  0
   55.6362   71.7786    8.2768 O   0  0  0  0  0  0  0  0  0  0  0  0
   52.4786   79.7119    8.0970 N   0  0  0  0  0  0  0  0  0  0  0  0
   51.0840   80.0807    7.9494 C   0  0  1  0  0  0  0  0  0  0  0  0
   50.9133   81.4748    8.5201 C   0  0  0  0  0  0  0  0  0  0  0  0
   50.6227   80.0123    6.4774 C   0  0  1  0  0  0  0  0  0  0  0  0
   49.4733   80.9862    6.2193 C   0  0  0  0  0  0  0  0  0  0  0  0
   51.7944   80.2850    5.5300 C   0  0  0  0  0  0  0  0  0  0  0  0
   49.9582   81.7393    9.2259 O   0  0  0  0  0  0  0  0  0  0  0  0
   51.8473   82.3162    8.1844 O   0  0  0  0  0  0  0  0  0  0  0  0
   57.9250   74.0636    8.2010 H   0  0  0  0  0  0  0  0  0  0  0  0
   55.0513   73.9130    7.2265 H   0  0  0  0  0  0  0  0  0  0  0  0
   55.7578   74.8816    8.5981 H   0  0  0  0  0  0  0  0  0  0  0  0
   56.8453   75.3593    5.8641 H   0  0  0  0  0  0  0  0  0  0  0  0
   55.1637   75.9559    6.2568 H   0  0  0  0  0  0  0  0  0  0  0  0
   56.7554   76.6942    8.4405 H   0  0  0  0  0  0  0  0  0  0  0  0
   57.7295   77.0693    6.9548 H   0  0  0  0  0  0  0  0  0  0  0  0
   54.1009   78.7362    7.0253 H   0  0  0  0  0  0  0  0  0  0  0  0
   54.4563   77.0769    7.5789 H   0  0  0  0  0  0  0  0  0  0  0  0
   54.4818   77.5117    9.5991 H   0  0  0  0  0  0  0  0  0  0  0  0
   58.5021   72.6483    6.4015 H   0  0  0  0  0  0  0  0  0  0  0  0
   56.9326   72.6642    5.7969 H   0  0  0  0  0  0  0  0  0  0  0  0
   57.8482   74.0751    5.7969 H   0  0  0  0  0  0  0  0  0  0  0  0
   55.9725   79.7582    8.6938 H   0  0  0  0  0  0  0  0  0  0  0  0
   54.5923   80.3838    9.7164 H   0  0  0  0  0  0  0  0  0  0  0  0
   55.3858   79.4587   12.0846 H   0  0  0  0  0  0  0  0  0  0  0  0
   53.1709   80.0943    7.4371 H   0  0  0  0  0  0  0  0  0  0  0  0
   50.4507   79.3663    8.4959 H   0  0  0  0  0  0  0  0  0  0  0  0
   50.2536   78.9948    6.2813 H   0  0  0  0  0  0  0  0  0  0  0  0
   49.0639   81.3331    7.1795 H   0  0  0  0  0  0  0  0  0  0  0  0
   49.8450   81.8485    5.6462 H   0  0  0  0  0  0  0  0  0  0  0  0
   48.6838   80.4780    5.6462 H   0  0  0  0  0  0  0  0  0  0  0  0
   52.6999   80.4957    6.1179 H   0  0  0  0  0  0  0  0  0  0  0  0
   51.9661   79.4028    4.8958 H   0  0  0  0  0  0  0  0  0  0  0  0
   51.5589   81.1523    4.8958 H   0  0  0  0  0  0  0  0  0  0  0  0
  1  2  1  0
  1 15  1  0
  1 16  2  0
  2  3  1  0
  2 10  1  0
  3  4  1  0
  4  5  1  0
  5  6  1  0
  6  7  1  0
  6 11  2  0
  7  8  1  0
  8  9  1  0
  8 12  1  0
  9 14  2  0
  9 17  1  0
 12 13  1  0
 18 17  1  0
 18 19  1  0
 18 20  1  0
 19 23  2  0
 19 24  1  0
 20 21  1  0
 20 22  1  0
  2 25  1  1
  3 26  1  0
  3 27  1  0
  4 28  1  0
  4 29  1  0
  5 30  1  0
  5 31  1  0
  7 32  1  0
  7 33  1  0
  8 34  1  1
 10 35  1  0
 10 36  1  0
 10 37  1  0
 12 38  1  0
 12 39  1  0
 13 40  1  0
 17 41  1  0
 18 42  1  1
 20 43  1  6
 21 44  1  0
 21 45  1  0
 21 46  1  0
 22 47  1  0
 22 48  1  0
 22 49  1  0
M  CHG  4   7   1  10   1  15  -1  24  -1
M  END
>  <filename_input>  (9) 
6ZAE_ACV_docked.sdf

>  <pdb_id>  (9) 
6ZAE_ACV

>  <pose_rank>  (9) 
8

>  <num_atoms_heavy>  (9) 
24

>  <num_torsions>  (9) 
12

>  <pose>  (9) 
[54.3360968844769, 78.4103247902401, 8.981657119288256, 1.3067063777494718, 0.010228719693784988, -0.3700123653257401, -3.944232397719752, -0.7014502457720032, -2.2773271580141627, -1.7391351554465961, 3.1925734275476563, -1.5574193665910825, -1.794568953308739, 2.993882038341385, 0.9553277019948487, 1.6314302525745008, 0.1578434526713411, -1.3563504920294125]

>  <energy>  (9) 
-618.2534421707438

>  <inter_energy>  (9) 
-618.9485976912057

>  <intra_energy>  (9) 
15.042729870723251

>  <rmsd>  (9) 
2.39965

>  <sdf_rank>  (9) 
0

$$$$

     RDKit          3D

 49 48  0  0  0  0  0  0  0  0999 V2000
   50.0878   81.9693    5.3187 C   0  0  0  0  0  0  0  0  0  0  0  0
   49.9802   82.1035    6.8326 C   0  0  2  0  0  0  0  0  0  0  0  0
   49.7662   80.7251    7.4656 C   0  0  0  0  0  0  0  0  0  0  0  0
   50.9579   80.2639    8.2946 C   0  0  0  0  0  0  0  0  0  0  0  0
   51.6542   79.0349    7.7261 C   0  0  0  0  0  0  0  0  0  0  0  0
   53.0627   78.8903    8.2470 C   0  0  0  0  0  0  0  0  0  0  0  0
   53.4845   77.6345    8.4050 N   0  0  0  0  0  0  0  0  0  0  0  0
   54.2033   77.1804    9.5812 C   0  0  2  0  0  0  0  0  0  0  0  0
   55.4769   76.4583    9.1443 C   0  0  0  0  0  0  0  0  0  0  0  0
   48.8893   83.0387    7.1664 N   0  0  0  0  0  0  0  0  0  0  0  0
   53.7620   79.8664    8.5231 O   0  0  0  0  0  0  0  0  0  0  0  0
   53.3484   76.2048   10.3739 C   0  0  0  0  0  0  0  0  0  0  0  0
   52.2780   77.0037   11.5955 S   0  0  0  0  0  0  0  0  0  0  0  0
   56.2376   76.9694    8.3265 O   0  0  0  0  0  0  0  0  0  0  0  0
   48.9786   81.6382    4.7252 O   0  0  0  0  0  0  0  0  0  0  0  0
   51.1376   82.1706    4.7415 O   0  0  0  0  0  0  0  0  0  0  0  0
   55.6888   75.2538    9.6745 N   0  0  0  0  0  0  0  0  0  0  0  0
   56.7488   74.3865    9.1981 C   0  0  1  0  0  0  0  0  0  0  0  0
   57.8457   74.3822   10.2446 C   0  0  0  0  0  0  0  0  0  0  0  0
   56.2381   72.9584    8.9087 C   0  0  1  0  0  0  0  0  0  0  0  0
   56.3554   72.0743   10.1501 C   0  0  0  0  0  0  0  0  0  0  0  0
   54.7958   72.9930    8.3958 C   0  0  0  0  0  0  0  0  0  0  0  0
   58.9571   73.9695    9.9710 O   0  0  0  0  0  0  0  0  0  0  0  0
   57.4858   74.8375   11.4091 O   0  0  0  0  0  0  0  0  0  0  0  0
   50.9154   82.5129    7.2421 H   0  0  0  0  0  0  0  0  0  0  0  0
   48.8815   80.7715    8.1177 H   0  0  0  0  0  0  0  0  0  0  0  0
   49.6329   80.0023    6.6472 H   0  0  0  0  0  0  0  0  0  0  0  0
   51.6872   81.0859    8.3432 H   0  0  0  0  0  0  0  0  0  0  0  0
   50.5737   79.9876    9.2876 H   0  0  0  0  0  0  0  0  0  0  0  0
   51.0788   78.1400    8.0055 H   0  0  0  0  0  0  0  0  0  0  0  0
   51.7067   79.1498    6.6334 H   0  0  0  0  0  0  0  0  0  0  0  0
   52.6434   77.0434    8.3416 H   0  0  0  0  0  0  0  0  0  0  0  0
   54.2155   77.5721    7.6820 H   0  0  0  0  0  0  0  0  0  0  0  0
   54.4470   78.0520   10.2064 H   0  0  0  0  0  0  0  0  0  0  0  0
   48.8022   83.1134    8.1900 H   0  0  0  0  0  0  0  0  0  0  0  0
   49.0993   83.9664    6.7711 H   0  0  0  0  0  0  0  0  0  0  0  0
   48.0046   82.6894    6.7711 H   0  0  0  0  0  0  0  0  0  0  0  0
   52.7148   75.6461    9.6694 H   0  0  0  0  0  0  0  0  0  0  0  0
   54.0369   75.5502   10.9283 H   0  0  0  0  0  0  0  0  0  0  0  0
   52.7066   76.6838   12.8568 H   0  0  0  0  0  0  0  0  0  0  0  0
   55.0837   74.9307   10.4429 H   0  0  0  0  0  0  0  0  0  0  0  0
   57.1378   74.7658    8.2416 H   0  0  0  0  0  0  0  0  0  0  0  0
   56.8708   72.5214    8.1221 H   0  0  0  0  0  0  0  0  0  0  0  0
   56.2728   72.6971   11.0530 H   0  0  0  0  0  0  0  0  0  0  0  0
   55.5486   71.3266   10.1454 H   0  0  0  0  0  0  0  0  0  0  0  0
   57.3293   71.5628   10.1454 H   0  0  0  0  0  0  0  0  0  0  0  0
   54.1031   73.0096    9.2501 H   0  0  0  0  0  0  0  0  0  0  0  0
   54.6456   73.8950    7.7844 H   0  0  0  0  0  0  0  0  0  0  0  0
   54.6025   72.0992    7.7844 H   0  0  0  0  0  0  0  0  0  0  0  0
  1  2  1  0
  1 15  1  0
  1 16  2  0
  2  3  1  0
  2 10  1  0
  3  4  1  0
  4  5  1  0
  5  6  1  0
  6  7  1  0
  6 11  2  0
  7  8  1  0
  8  9  1  0
  8 12  1  0
  9 14  2  0
  9 17  1  0
 12 13  1  0
 18 17  1  0
 18 19  1  0
 18 20  1  0
 19 23  2  0
 19 24  1  0
 20 21  1  0
 20 22  1  0
  2 25  1  1
  3 26  1  0
  3 27  1  0
  4 28  1  0
  4 29  1  0
  5 30  1  0
  5 31  1  0
  7 32  1  0
  7 33  1  0
  8 34  1  1
 10 35  1  0
 10 36  1  0
 10 37  1  0
 12 38  1  0
 12 39  1  0
 13 40  1  0
 17 41  1  0
 18 42  1  6
 20 43  1  6
 21 44  1  0
 21 45  1  0
 21 46  1  0
 22 47  1  0
 22 48  1  0
 22 49  1  0
M  CHG  4   7   1  10   1  15  -1  24  -1
M  END
>  <filename_input>  (10) 
6ZAE_ACV_docked.sdf

>  <pdb_id>  (10) 
6ZAE_ACV

>  <pose_rank>  (10) 
9

>  <num_atoms_heavy>  (10) 
24

>  <num_torsions>  (10) 
12

>  <pose>  (10) 
[54.203304818384176, 77.18040527676725, 9.581183240695964, -0.6574013834175725, -2.0965790351707794, -2.5913203515839838, -5.476631992352469, -6.902502206149649, -2.7589525487832303, -0.6492242069394648, 3.8338559196974034, -0.21161742694687813, 6.951599971745988, -14.417637663424403, -25.462455474401274, -23.90762435857325, -7.4933804505151445, 2.3772456360304464]

>  <energy>  (10) 
-583.405541989926

>  <inter_energy>  (10) 
-596.649687655502

>  <intra_energy>  (10) 
10.043185063251599

>  <rmsd>  (10) 
9.1226

>  <sdf_rank>  (10) 
0

$$$$

     RDKit          3D

 49 48  0  0  0  0  0  0  0  0999 V2000
   56.4222   72.6141    8.2878 C   0  0  0  0  0  0  0  0  0  0  0  0
   55.3580   73.5788    8.7959 C   0  0  2  0  0  0  0  0  0  0  0  0
   56.0112   74.8919    9.2383 C   0  0  0  0  0  0  0  0  0  0  0  0
   55.8060   76.0210    8.2367 C   0  0  0  0  0  0  0  0  0  0  0  0
   56.0847   77.4024    8.8131 C   0  0  0  0  0  0  0  0  0  0  0  0
   54.8388   78.0457    9.3699 C   0  0  0  0  0  0  0  0  0  0  0  0
   54.5342   79.2372    8.8529 N   0  0  0  0  0  0  0  0  0  0  0  0
   53.1754   79.7383    8.7593 C   0  0  2  0  0  0  0  0  0  0  0  0
   52.8857   80.1391    7.3137 C   0  0  0  0  0  0  0  0  0  0  0  0
   54.6015   72.9431    9.8912 N   0  0  0  0  0  0  0  0  0  0  0  0
   54.1653   77.5122   10.2530 O   0  0  0  0  0  0  0  0  0  0  0  0
   53.0079   80.9668    9.6390 C   0  0  0  0  0  0  0  0  0  0  0  0
   52.5489   80.5803   11.3466 S   0  0  0  0  0  0  0  0  0  0  0  0
   53.7666   80.0824    6.4595 O   0  0  0  0  0  0  0  0  0  0  0  0
   56.7424   72.7724    7.0370 O   0  0  0  0  0  0  0  0  0  0  0  0
   56.9184   71.7810    9.0196 O   0  0  0  0  0  0  0  0  0  0  0  0
   51.6521   80.5711    7.0525 N   0  0  0  0  0  0  0  0  0  0  0  0
   51.3060   81.1637    5.7751 C   0  0  1  0  0  0  0  0  0  0  0  0
   50.4303   80.1750    5.0309 C   0  0  0  0  0  0  0  0  0  0  0  0
   50.6011   82.5270    5.9447 C   0  0  1  0  0  0  0  0  0  0  0  0
   50.4775   82.8980    7.4224 C   0  0  0  0  0  0  0  0  0  0  0  0
   51.3402   83.6189    5.1662 C   0  0  0  0  0  0  0  0  0  0  0  0
   50.6068   79.9658    3.8453 O   0  0  0  0  0  0  0  0  0  0  0  0
   49.5120   79.6092    5.7585 O   0  0  0  0  0  0  0  0  0  0  0  0
   54.6500   73.8182    7.9888 H   0  0  0  0  0  0  0  0  0  0  0  0
   55.5755   75.1937   10.2022 H   0  0  0  0  0  0  0  0  0  0  0  0
   57.0936   74.7126    9.3176 H   0  0  0  0  0  0  0  0  0  0  0  0
   56.4812   75.8569    7.3839 H   0  0  0  0  0  0  0  0  0  0  0  0
   54.7469   76.0018    7.9402 H   0  0  0  0  0  0  0  0  0  0  0  0
   56.8261   77.3073    9.6202 H   0  0  0  0  0  0  0  0  0  0  0  0
   56.4610   78.0399    7.9994 H   0  0  0  0  0  0  0  0  0  0  0  0
   55.0532   79.9293    9.4119 H   0  0  0  0  0  0  0  0  0  0  0  0
   54.7683   79.0949    7.8600 H   0  0  0  0  0  0  0  0  0  0  0  0
   52.4830   78.9496    9.0890 H   0  0  0  0  0  0  0  0  0  0  0  0
   54.9774   73.2590   10.7966 H   0  0  0  0  0  0  0  0  0  0  0  0
   53.6084   73.2070    9.8209 H   0  0  0  0  0  0  0  0  0  0  0  0
   54.6904   71.9193    9.8209 H   0  0  0  0  0  0  0  0  0  0  0  0
   53.9599   81.5178    9.6512 H   0  0  0  0  0  0  0  0  0  0  0  0
   52.1860   81.5596    9.2110 H   0  0  0  0  0  0  0  0  0  0  0  0
   53.3653   81.2677   12.2056 H   0  0  0  0  0  0  0  0  0  0  0  0
   50.9255   80.4816    7.7771 H   0  0  0  0  0  0  0  0  0  0  0  0
   52.2212   81.3684    5.2001 H   0  0  0  0  0  0  0  0  0  0  0  0
   49.5850   82.4406    5.5322 H   0  0  0  0  0  0  0  0  0  0  0  0
   50.7647   82.0358    8.0422 H   0  0  0  0  0  0  0  0  0  0  0  0
   51.1414   83.7465    7.6442 H   0  0  0  0  0  0  0  0  0  0  0  0
   49.4373   83.1787    7.6442 H   0  0  0  0  0  0  0  0  0  0  0  0
   51.8128   84.3170    5.8729 H   0  0  0  0  0  0  0  0  0  0  0  0
   52.1132   83.1586    4.5333 H   0  0  0  0  0  0  0  0  0  0  0  0
   50.6257   84.1655    4.5333 H   0  0  0  0  0  0  0  0  0  0  0  0
  1  2  1  0
  1 15  1  0
  1 16  2  0
  2  3  1  0
  2 10  1  0
  3  4  1  0
  4  5  1  0
  5  6  1  0
  6  7  1  0
  6 11  2  0
  7  8  1  0
  8  9  1  0
  8 12  1  0
  9 14  2  0
  9 17  1  0
 12 13  1  0
 18 17  1  0
 18 19  1  0
 18 20  1  0
 19 23  2  0
 19 24  1  0
 20 21  1  0
 20 22  1  0
  2 25  1  6
  3 26  1  0
  3 27  1  0
  4 28  1  0
  4 29  1  0
  5 30  1  0
  5 31  1  0
  7 32  1  0
  7 33  1  0
  8 34  1  1
 10 35  1  0
 10 36  1  0
 10 37  1  0
 12 38  1  0
 12 39  1  0
 13 40  1  0
 17 41  1  0
 18 42  1  6
 20 43  1  6
 21 44  1  0
 21 45  1  0
 21 46  1  0
 22 47  1  0
 22 48  1  0
 22 49  1  0
M  CHG  4   7   1  10   1  15  -1  24  -1
M  END
>  <filename_input>  (11) 
6ZAE_ACV_docked.sdf

>  <pdb_id>  (11) 
6ZAE_ACV

>  <pose_rank>  (11) 
10

>  <num_atoms_heavy>  (11) 
24

>  <num_torsions>  (11) 
12

>  <pose>  (11) 
[53.17535525626821, 79.73829244207438, 8.759328882563327, -3.0383800432844383, 3.067371092374093, -1.3859943041213578, -6.40481228175627, 5.699213241023634, 4.001976667051245, 0.9400283046362797, -2.434112531111671, 6.1197440317993514, 5.669875509288424, 6.002054362338108, 1.5527836369975772, -0.20250270887365007, 4.9336496411311295, -0.31813981571080124]

>  <energy>  (11) 
-583.0971263087719

>  <inter_energy>  (11) 
-585.4174118398108

>  <intra_energy>  (11) 
2.383045958730072

>  <rmsd>  (11) 
2.5632

>  <sdf_rank>  (11) 
0

$$$$

     RDKit          3D

 49 48  0  0  0  0  0  0  0  0999 V2000
   49.7223   82.1951    7.3809 C   0  0  0  0  0  0  0  0  0  0  0  0
   51.2292   82.1886    7.6058 C   0  0  2  0  0  0  0  0  0  0  0  0
   51.7482   80.7475    7.6283 C   0  0  0  0  0  0  0  0  0  0  0  0
   52.0060   80.2341    9.0390 C   0  0  0  0  0  0  0  0  0  0  0  0
   53.4818   80.0227    9.3483 C   0  0  0  0  0  0  0  0  0  0  0  0
   53.9320   78.6186    9.0290 C   0  0  0  0  0  0  0  0  0  0  0  0
   55.2402   78.4770    8.8089 N   0  0  0  0  0  0  0  0  0  0  0  0
   55.7909   77.4770    7.9127 C   0  0  2  0  0  0  0  0  0  0  0  0
   56.7057   76.5428    8.7032 C   0  0  0  0  0  0  0  0  0  0  0  0
   51.5424   82.9068    8.8557 N   0  0  0  0  0  0  0  0  0  0  0  0
   53.1402   77.6773    8.9591 O   0  0  0  0  0  0  0  0  0  0  0  0
   56.6153   78.1455    6.8243 C   0  0  0  0  0  0  0  0  0  0  0  0
   57.3895   76.9774    5.6788 S   0  0  0  0  0  0  0  0  0  0  0  0
   57.7958   76.9330    9.1134 O   0  0  0  0  0  0  0  0  0  0  0  0
   49.0130   82.1812    8.4713 O   0  0  0  0  0  0  0  0  0  0  0  0
   49.2525   82.2201    6.2609 O   0  0  0  0  0  0  0  0  0  0  0  0
   56.2665   75.2982    8.8894 N   0  0  0  0  0  0  0  0  0  0  0  0
   57.1171   74.2646    9.4469 C   0  0  1  0  0  0  0  0  0  0  0  0
   57.1124   74.4276   10.9541 C   0  0  0  0  0  0  0  0  0  0  0  0
   56.6553   72.8515    9.0297 C   0  0  1  0  0  0  0  0  0  0  0  0
   56.9303   71.8371   10.1396 C   0  0  0  0  0  0  0  0  0  0  0  0
   55.1723   72.8574    8.6487 C   0  0  0  0  0  0  0  0  0  0  0  0
   58.1146   74.1926   11.6027 O   0  0  0  0  0  0  0  0  0  0  0  0
   55.9764   74.8186   11.4536 O   0  0  0  0  0  0  0  0  0  0  0  0
   51.7358   82.7087    6.7794 H   0  0  0  0  0  0  0  0  0  0  0  0
   51.0012   80.0976    7.1490 H   0  0  0  0  0  0  0  0  0  0  0  0
   52.7076   80.7329    7.0904 H   0  0  0  0  0  0  0  0  0  0  0  0
   51.6015   80.9648    9.7548 H   0  0  0  0  0  0  0  0  0  0  0  0
   51.5146   79.2534    9.1212 H   0  0  0  0  0  0  0  0  0  0  0  0
   54.0747   80.7302    8.7499 H   0  0  0  0  0  0  0  0  0  0  0  0
   53.6300   80.1898   10.4253 H   0  0  0  0  0  0  0  0  0  0  0  0
   55.5674   79.3866    8.4533 H   0  0  0  0  0  0  0  0  0  0  0  0
   55.5651   78.1327    9.7236 H   0  0  0  0  0  0  0  0  0  0  0  0
   54.9627   76.9144    7.4572 H   0  0  0  0  0  0  0  0  0  0  0  0
   51.2864   82.3198    9.6623 H   0  0  0  0  0  0  0  0  0  0  0  0
   52.5506   83.1149    8.8887 H   0  0  0  0  0  0  0  0  0  0  0  0
   51.0088   83.7872    8.8887 H   0  0  0  0  0  0  0  0  0  0  0  0
   55.9558   78.8115    6.2486 H   0  0  0  0  0  0  0  0  0  0  0  0
   57.4281   78.6915    7.3256 H   0  0  0  0  0  0  0  0  0  0  0  0
   58.0364   76.0013    6.3898 H   0  0  0  0  0  0  0  0  0  0  0  0
   55.2973   75.0645    8.6304 H   0  0  0  0  0  0  0  0  0  0  0  0
   58.1396   74.3738    9.0562 H   0  0  0  0  0  0  0  0  0  0  0  0
   57.2349   72.5492    8.1450 H   0  0  0  0  0  0  0  0  0  0  0  0
   56.7992   72.3206   11.1189 H   0  0  0  0  0  0  0  0  0  0  0  0
   56.2279   70.9954   10.0493 H   0  0  0  0  0  0  0  0  0  0  0  0
   57.9616   71.4653   10.0493 H   0  0  0  0  0  0  0  0  0  0  0  0
   54.5591   72.8598    9.5620 H   0  0  0  0  0  0  0  0  0  0  0  0
   54.9497   73.7564    8.0553 H   0  0  0  0  0  0  0  0  0  0  0  0
   54.9426   71.9601    8.0553 H   0  0  0  0  0  0  0  0  0  0  0  0
  1  2  1  0
  1 15  1  0
  1 16  2  0
  2  3  1  0
  2 10  1  0
  3  4  1  0
  4  5  1  0
  5  6  1  0
  6  7  1  0
  6 11  2  0
  7  8  1  0
  8  9  1  0
  8 12  1  0
  9 14  2  0
  9 17  1  0
 12 13  1  0
 18 17  1  0
 18 19  1  0
 18 20  1  0
 19 23  2  0
 19 24  1  0
 20 21  1  0
 20 22  1  0
  2 25  1  6
  3 26  1  0
  3 27  1  0
  4 28  1  0
  4 29  1  0
  5 30  1  0
  5 31  1  0
  7 32  1  0
  7 33  1  0
  8 34  1  6
 10 35  1  0
 10 36  1  0
 10 37  1  0
 12 38  1  0
 12 39  1  0
 13 40  1  0
 17 41  1  0
 18 42  1  6
 20 43  1  6
 21 44  1  0
 21 45  1  0
 21 46  1  0
 22 47  1  0
 22 48  1  0
 22 49  1  0
M  CHG  4   7   1  10   1  15  -1  24  -1
M  END
>  <filename_input>  (12) 
6ZAE_ACV_docked.sdf

>  <pdb_id>  (12) 
6ZAE_ACV

>  <pose_rank>  (12) 
11

>  <num_atoms_heavy>  (12) 
24

>  <num_torsions>  (12) 
12

>  <pose>  (12) 
[55.790905634757934, 77.47702776281527, 7.912739384559509, 1.5358221512230505, 1.95041107591995, -2.482985618304101, -7.585258219219675, -7.342279756750731, -2.420983751872307, -1.6369501389792194, -4.076206985151815, 25.085968582589935, 31.839208524755325, 29.745455753837618, -17.27746766570084, 20.1340740395847, 13.910268654080634, -3.521595275542752]

>  <energy>  (12) 
-550.1034527850794

>  <inter_energy>  (12) 
-573.3424801550192

>  <intra_energy>  (12) 
22.003467099947922

>  <rmsd>  (12) 
8.78644

>  <sdf_rank>  (12) 
0

$$$$

     RDKit          3D

 49 48  0  0  0  0  0  0  0  0999 V2000
   57.0969   72.5966    7.5840 C   0  0  0  0  0  0  0  0  0  0  0  0
   55.9705   72.6476    8.6086 C   0  0  2  0  0  0  0  0  0  0  0  0
   55.6535   74.1034    8.9648 C   0  0  0  0  0  0  0  0  0  0  0  0
   54.7597   74.7826    7.9352 C   0  0  0  0  0  0  0  0  0  0  0  0
   54.2043   76.1213    8.4017 C   0  0  0  0  0  0  0  0  0  0  0  0
   55.2410   77.2159    8.3436 C   0  0  0  0  0  0  0  0  0  0  0  0
   54.7739   78.4255    8.0298 N   0  0  0  0  0  0  0  0  0  0  0  0
   53.5736   78.9903    8.6184 C   0  0  2  0  0  0  0  0  0  0  0  0
   52.7590   79.6862    7.5290 C   0  0  0  0  0  0  0  0  0  0  0  0
   56.3510   71.8599    9.7964 N   0  0  0  0  0  0  0  0  0  0  0  0
   56.4354   76.9980    8.5532 O   0  0  0  0  0  0  0  0  0  0  0  0
   53.9419   80.0218    9.6726 C   0  0  0  0  0  0  0  0  0  0  0  0
   55.7055   80.4277    9.7065 S   0  0  0  0  0  0  0  0  0  0  0  0
   53.3189   80.2938    6.6201 O   0  0  0  0  0  0  0  0  0  0  0  0
   57.9490   73.5759    7.6680 O   0  0  0  0  0  0  0  0  0  0  0  0
   57.1700   71.6955    6.7725 O   0  0  0  0  0  0  0  0  0  0  0  0
   51.4328   79.6166    7.6427 N   0  0  0  0  0  0  0  0  0  0  0  0
   50.5526   80.3946    6.7925 C   0  0  1  0  0  0  0  0  0  0  0  0
   50.3604   81.7492    7.4456 C   0  0  0  0  0  0  0  0  0  0  0  0
   51.1099   80.5322    5.3591 C   0  0  1  0  0  0  0  0  0  0  0  0
   50.9484   79.2257    4.5824 C   0  0  0  0  0  0  0  0  0  0  0  0
   50.4331   81.6928    4.6246 C   0  0  0  0  0  0  0  0  0  0  0  0
   51.3115   82.4853    7.6298 O   0  0  0  0  0  0  0  0  0  0  0  0
   49.1322   82.0218    7.7774 O   0  0  0  0  0  0  0  0  0  0  0  0
   55.0564   72.2048    8.1863 H   0  0  0  0  0  0  0  0  0  0  0  0
   55.1445   74.1237    9.9397 H   0  0  0  0  0  0  0  0  0  0  0  0
   56.6061   74.6529    8.9897 H   0  0  0  0  0  0  0  0  0  0  0  0
   55.3470   74.9492    7.0202 H   0  0  0  0  0  0  0  0  0  0  0  0
   53.9002   74.1178    7.7641 H   0  0  0  0  0  0  0  0  0  0  0  0
   53.3583   76.3991    7.7558 H   0  0  0  0  0  0  0  0  0  0  0  0
   53.8865   76.0104    9.4489 H   0  0  0  0  0  0  0  0  0  0  0  0
   55.5333   79.0869    8.2460 H   0  0  0  0  0  0  0  0  0  0  0  0
   54.4755   78.2826    7.0544 H   0  0  0  0  0  0  0  0  0  0  0  0
   52.9903   78.1803    9.0807 H   0  0  0  0  0  0  0  0  0  0  0  0
   56.0995   72.3807   10.6487 H   0  0  0  0  0  0  0  0  0  0  0  0
   55.8523   70.9587    9.7849 H   0  0  0  0  0  0  0  0  0  0  0  0
   57.3669   71.6903    9.7849 H   0  0  0  0  0  0  0  0  0  0  0  0
   53.3771   80.9436    9.4692 H   0  0  0  0  0  0  0  0  0  0  0  0
   53.6932   79.5851   10.6511 H   0  0  0  0  0  0  0  0  0  0  0  0
   56.1269   80.5247   11.0065 H   0  0  0  0  0  0  0  0  0  0  0  0
   51.0224   78.9939    8.3531 H   0  0  0  0  0  0  0  0  0  0  0  0
   49.5850   79.8814    6.6905 H   0  0  0  0  0  0  0  0  0  0  0  0
   52.1853   80.7523    5.4296 H   0  0  0  0  0  0  0  0  0  0  0  0
   50.8450   78.3893    5.2893 H   0  0  0  0  0  0  0  0  0  0  0  0
   50.0506   79.2840    3.9495 H   0  0  0  0  0  0  0  0  0  0  0  0
   51.8333   79.0636    3.9495 H   0  0  0  0  0  0  0  0  0  0  0  0
   50.0204   82.4005    5.3587 H   0  0  0  0  0  0  0  0  0  0  0  0
   51.1722   82.2083    3.9937 H   0  0  0  0  0  0  0  0  0  0  0  0
   49.6204   81.3034    3.9937 H   0  0  0  0  0  0  0  0  0  0  0  0
  1  2  1  0
  1 15  1  0
  1 16  2  0
  2  3  1  0
  2 10  1  0
  3  4  1  0
  4  5  1  0
  5  6  1  0
  6  7  1  0
  6 11  2  0
  7  8  1  0
  8  9  1  0
  8 12  1  0
  9 14  2  0
  9 17  1  0
 12 13  1  0
 18 17  1  0
 18 19  1  0
 18 20  1  0
 19 23  2  0
 19 24  1  0
 20 21  1  0
 20 22  1  0
  2 25  1  6
  3 26  1  0
  3 27  1  0
  4 28  1  0
  4 29  1  0
  5 30  1  0
  5 31  1  0
  7 32  1  0
  7 33  1  0
  8 34  1  1
 10 35  1  0
 10 36  1  0
 10 37  1  0
 12 38  1  0
 12 39  1  0
 13 40  1  0
 17 41  1  0
 18 42  1  6
 20 43  1  1
 21 44  1  0
 21 45  1  0
 21 46  1  0
 22 47  1  0
 22 48  1  0
 22 49  1  0
M  CHG  4   7   1  10   1  15  -1  24  -1
M  END
>  <filename_input>  (13) 
6ZAE_ACV_docked.sdf

>  <pdb_id>  (13) 
6ZAE_ACV

>  <pose_rank>  (13) 
12

>  <num_atoms_heavy>  (13) 
24

>  <num_torsions>  (13) 
12

>  <pose>  (13) 
[53.573554785759235, 78.99032649190127, 8.618395770254079, -3.849149613989749, 2.6597256598453023, -0.25217480907414846, -0.6903843168282833, -3.998038280015526, 1.1802602855449404, 2.2260377588570615, -0.7490152435436174, -0.37310894052456733, 3.8177801616247944, 4.416373573102292, -8.072719860970334, -6.4022291347882465, -1.7567696602134193, 1.698941398912893]

>  <energy>  (13) 
-526.7435028542044

>  <inter_energy>  (13) 
-600.0755711897282

>  <intra_energy>  (13) 
67.76649335217084

>  <rmsd>  (13) 
1.90619

>  <sdf_rank>  (13) 
0

$$$$

     RDKit          3D

 49 48  0  0  0  0  0  0  0  0999 V2000
   49.2813   82.0341    7.5470 C   0  0  0  0  0  0  0  0  0  0  0  0
   49.3391   82.5666    6.1207 C   0  0  2  0  0  0  0  0  0  0  0  0
   50.7839   82.9171    5.7516 C   0  0  0  0  0  0  0  0  0  0  0  0
   51.6274   81.6892    5.4341 C   0  0  0  0  0  0  0  0  0  0  0  0
   53.0066   81.7163    6.0787 C   0  0  0  0  0  0  0  0  0  0  0  0
   52.9758   81.2204    7.5032 C   0  0  0  0  0  0  0  0  0  0  0  0
   53.1944   79.9131    7.6551 N   0  0  0  0  0  0  0  0  0  0  0  0
   53.3069   79.2724    8.9525 C   0  0  2  0  0  0  0  0  0  0  0  0
   54.6975   78.6545    9.0892 C   0  0  0  0  0  0  0  0  0  0  0  0
   48.4402   83.7293    5.9937 N   0  0  0  0  0  0  0  0  0  0  0  0
   52.7457   81.9709    8.4527 O   0  0  0  0  0  0  0  0  0  0  0  0
   52.2758   78.1627    9.0804 C   0  0  0  0  0  0  0  0  0  0  0  0
   52.1233   77.5028   10.7589 S   0  0  0  0  0  0  0  0  0  0  0  0
   55.5088   79.1091    9.8916 O   0  0  0  0  0  0  0  0  0  0  0  0
   49.2546   80.7368    7.6390 O   0  0  0  0  0  0  0  0  0  0  0  0
   49.2711   82.7867    8.5005 O   0  0  0  0  0  0  0  0  0  0  0  0
   54.9759   77.6326    8.2799 N   0  0  0  0  0  0  0  0  0  0  0  0
   56.3158   77.0889    8.1713 C   0  0  1  0  0  0  0  0  0  0  0  0
   56.3368   75.7648    8.9093 C   0  0  0  0  0  0  0  0  0  0  0  0
   56.7522   76.9225    6.6995 C   0  0  1  0  0  0  0  0  0  0  0  0
   56.5925   78.2339    5.9307 C   0  0  0  0  0  0  0  0  0  0  0  0
   58.1934   76.4117    6.6169 C   0  0  0  0  0  0  0  0  0  0  0  0
   56.9612   75.6473    9.9469 O   0  0  0  0  0  0  0  0  0  0  0  0
   55.6557   74.8147    8.3381 O   0  0  0  0  0  0  0  0  0  0  0  0
   48.9967   81.7944    5.4160 H   0  0  0  0  0  0  0  0  0  0  0  0
   50.7717   83.5729    4.8686 H   0  0  0  0  0  0  0  0  0  0  0  0
   51.2367   83.4133    6.6227 H   0  0  0  0  0  0  0  0  0  0  0  0
   51.0929   80.7973    5.7930 H   0  0  0  0  0  0  0  0  0  0  0  0
   51.7797   81.6742    4.3448 H   0  0  0  0  0  0  0  0  0  0  0  0
   53.6840   81.0760    5.4945 H   0  0  0  0  0  0  0  0  0  0  0  0
   53.3553   82.7595    6.0900 H   0  0  0  0  0  0  0  0  0  0  0  0
   52.4187   79.4385    7.1714 H   0  0  0  0  0  0  0  0  0  0  0  0
   54.1568   79.8242    7.2992 H   0  0  0  0  0  0  0  0  0  0  0  0
   53.1389   80.0261    9.7360 H   0  0  0  0  0  0  0  0  0  0  0  0
   48.1798   84.0660    6.9317 H   0  0  0  0  0  0  0  0  0  0  0  0
   48.9218   84.4813    5.4804 H   0  0  0  0  0  0  0  0  0  0  0  0
   47.5911   83.4525    5.4804 H   0  0  0  0  0  0  0  0  0  0  0  0
   51.2973   78.5604    8.7732 H   0  0  0  0  0  0  0  0  0  0  0  0
   52.6121   77.3352    8.4385 H   0  0  0  0  0  0  0  0  0  0  0  0
   52.3545   78.5034   11.6657 H   0  0  0  0  0  0  0  0  0  0  0  0
   54.2194   77.2182    7.7170 H   0  0  0  0  0  0  0  0  0  0  0  0
   57.0376   77.7862    8.6214 H   0  0  0  0  0  0  0  0  0  0  0  0
   56.0964   76.1742    6.2305 H   0  0  0  0  0  0  0  0  0  0  0  0
   56.4911   79.0663    6.6426 H   0  0  0  0  0  0  0  0  0  0  0  0
   57.4772   78.3982    5.2981 H   0  0  0  0  0  0  0  0  0  0  0  0
   55.6941   78.1810    5.2981 H   0  0  0  0  0  0  0  0  0  0  0  0
   58.5912   76.2708    7.6328 H   0  0  0  0  0  0  0  0  0  0  0  0
   58.2121   75.4522    6.0794 H   0  0  0  0  0  0  0  0  0  0  0  0
   58.8122   77.1453    6.0794 H   0  0  0  0  0  0  0  0  0  0  0  0
  1  2  1  0
  1 15  1  0
  1 16  2  0
  2  3  1  0
  2 10  1  0
  3  4  1  0
  4  5  1  0
  5  6  1  0
  6  7  1  0
  6 11  2  0
  7  8  1  0
  8  9  1  0
  8 12  1  0
  9 14  2  0
  9 17  1  0
 12 13  1  0
 18 17  1  0
 18 19  1  0
 18 20  1  0
 19 23  2  0
 19 24  1  0
 20 21  1  0
 20 22  1  0
  2 25  1  6
  3 26  1  0
  3 27  1  0
  4 28  1  0
  4 29  1  0
  5 30  1  0
  5 31  1  0
  7 32  1  0
  7 33  1  0
  8 34  1  1
 10 35  1  0
 10 36  1  0
 10 37  1  0
 12 38  1  0
 12 39  1  0
 13 40  1  0
 17 41  1  0
 18 42  1  1
 20 43  1  6
 21 44  1  0
 21 45  1  0
 21 46  1  0
 22 47  1  0
 22 48  1  0
 22 49  1  0
M  CHG  4   7   1  10   1  15  -1  24  -1
M  END
>  <filename_input>  (14) 
6ZAE_ACV_docked.sdf

>  <pdb_id>  (14) 
6ZAE_ACV

>  <pose_rank>  (14) 
13

>  <num_atoms_heavy>  (14) 
24

>  <num_torsions>  (14) 
12

>  <pose>  (14) 
[53.306867754337546, 79.27244643747342, 8.952536997953464, 0.03799170625820906, -1.871624266746459, -3.101353761603333, 1.902386977008839, -0.6388871809448967, -1.8272554410372628, 1.8597107770880303, 2.4224659782898, -0.030764067223160475, 6.0862628065425, -15.382969391582206, -14.223772890234748, -5.418940418511172, 4.456087592171033, 5.734910568362426]

>  <energy>  (14) 
-589.9471988862914

>  <inter_energy>  (14) 
-586.4520064911177

>  <intra_energy>  (14) 
2.917931051189927

>  <rmsd>  (14) 
8.35787

>  <sdf_rank>  (14) 
0

$$$$

     RDKit          3D

 49 48  0  0  0  0  0  0  0  0999 V2000
   58.2778   75.0905   11.6163 C   0  0  0  0  0  0  0  0  0  0  0  0
   58.2129   73.9071   10.6589 C   0  0  2  0  0  0  0  0  0  0  0  0
   56.7632   73.6613   10.2293 C   0  0  0  0  0  0  0  0  0  0  0  0
   56.5419   73.8862    8.7392 C   0  0  0  0  0  0  0  0  0  0  0  0
   55.2948   74.7018    8.4265 C   0  0  0  0  0  0  0  0  0  0  0  0
   55.2100   75.9518    9.2671 C   0  0  0  0  0  0  0  0  0  0  0  0
   56.2543   76.7761    9.1673 N   0  0  0  0  0  0  0  0  0  0  0  0
   56.2499   77.9660    8.3364 C   0  0  2  0  0  0  0  0  0  0  0  0
   55.0018   78.7911    8.6464 C   0  0  0  0  0  0  0  0  0  0  0  0
   58.8055   72.7202   11.3040 N   0  0  0  0  0  0  0  0  0  0  0  0
   54.2508   76.1801   10.0057 O   0  0  0  0  0  0  0  0  0  0  0  0
   56.2147   77.5791    6.8667 C   0  0  0  0  0  0  0  0  0  0  0  0
   57.6062   76.5407    6.3554 S   0  0  0  0  0  0  0  0  0  0  0  0
   54.6173   78.9344    9.8041 O   0  0  0  0  0  0  0  0  0  0  0  0
   59.3366   75.8348   11.4847 O   0  0  0  0  0  0  0  0  0  0  0  0
   57.3917   75.2996   12.4205 O   0  0  0  0  0  0  0  0  0  0  0  0
   54.3570   79.3088    7.6010 N   0  0  0  0  0  0  0  0  0  0  0  0
   53.0594   79.9407    7.7419 C   0  0  1  0  0  0  0  0  0  0  0  0
   53.1044   81.2572    6.9914 C   0  0  0  0  0  0  0  0  0  0  0  0
   51.9191   79.0356    7.2276 C   0  0  1  0  0  0  0  0  0  0  0  0
   51.6029   77.9299    8.2345 C   0  0  0  0  0  0  0  0  0  0  0  0
   50.6700   79.8642    6.9145 C   0  0  0  0  0  0  0  0  0  0  0  0
   53.5360   81.3044    5.8548 O   0  0  0  0  0  0  0  0  0  0  0  0
   52.6610   82.2796    7.6630 O   0  0  0  0  0  0  0  0  0  0  0  0
   58.7936   74.1250    9.7504 H   0  0  0  0  0  0  0  0  0  0  0  0
   56.4966   72.6218   10.4711 H   0  0  0  0  0  0  0  0  0  0  0  0
   56.1313   74.3813   10.7700 H   0  0  0  0  0  0  0  0  0  0  0  0
   57.4158   74.4171    8.3337 H   0  0  0  0  0  0  0  0  0  0  0  0
   56.4048   72.8964    8.2794 H   0  0  0  0  0  0  0  0  0  0  0  0
   55.3154   74.9888    7.3648 H   0  0  0  0  0  0  0  0  0  0  0  0
   54.4167   74.0797    8.6542 H   0  0  0  0  0  0  0  0  0  0  0  0
   56.4514   77.1003   10.1249 H   0  0  0  0  0  0  0  0  0  0  0  0
   56.9357   76.1835    8.6720 H   0  0  0  0  0  0  0  0  0  0  0  0
   57.1603   78.5473    8.5447 H   0  0  0  0  0  0  0  0  0  0  0  0
   58.7537   72.8240   12.3275 H   0  0  0  0  0  0  0  0  0  0  0  0
   58.2858   71.8783   11.0176 H   0  0  0  0  0  0  0  0  0  0  0  0
   59.7907   72.6297   11.0176 H   0  0  0  0  0  0  0  0  0  0  0  0
   55.2816   77.0291    6.6744 H   0  0  0  0  0  0  0  0  0  0  0  0
   56.2786   78.5116    6.2867 H   0  0  0  0  0  0  0  0  0  0  0  0
   58.2497   76.0605    7.4655 H   0  0  0  0  0  0  0  0  0  0  0  0
   54.7917   79.2587    6.6686 H   0  0  0  0  0  0  0  0  0  0  0  0
   52.8456   80.1174    8.8064 H   0  0  0  0  0  0  0  0  0  0  0  0
   52.2552   78.5575    6.2958 H   0  0  0  0  0  0  0  0  0  0  0  0
   51.7148   78.3215    9.2564 H   0  0  0  0  0  0  0  0  0  0  0  0
   50.5696   77.5831    8.0859 H   0  0  0  0  0  0  0  0  0  0  0  0
   52.2966   77.0893    8.0859 H   0  0  0  0  0  0  0  0  0  0  0  0
   50.1942   80.1798    7.8547 H   0  0  0  0  0  0  0  0  0  0  0  0
   50.9558   80.7524    6.3319 H   0  0  0  0  0  0  0  0  0  0  0  0
   49.9628   79.2555    6.3319 H   0  0  0  0  0  0  0  0  0  0  0  0
  1  2  1  0
  1 15  1  0
  1 16  2  0
  2  3  1  0
  2 10  1  0
  3  4  1  0
  4  5  1  0
  5  6  1  0
  6  7  1  0
  6 11  2  0
  7  8  1  0
  8  9  1  0
  8 12  1  0
  9 14  2  0
  9 17  1  0
 12 13  1  0
 18 17  1  0
 18 19  1  0
 18 20  1  0
 19 23  2  0
 19 24  1  0
 20 21  1  0
 20 22  1  0
  2 25  1  6
  3 26  1  0
  3 27  1  0
  4 28  1  0
  4 29  1  0
  5 30  1  0
  5 31  1  0
  7 32  1  0
  7 33  1  0
  8 34  1  6
 10 35  1  0
 10 36  1  0
 10 37  1  0
 12 38  1  0
 12 39  1  0
 13 40  1  0
 17 41  1  0
 18 42  1  1
 20 43  1  6
 21 44  1  0
 21 45  1  0
 21 46  1  0
 22 47  1  0
 22 48  1  0
 22 49  1  0
M  CHG  4   7   1  10   1  15  -1  24  -1
M  END
>  <filename_input>  (15) 
6ZAE_ACV_docked.sdf

>  <pdb_id>  (15) 
6ZAE_ACV

>  <pose_rank>  (15) 
14

>  <num_atoms_heavy>  (15) 
24

>  <num_torsions>  (15) 
12

>  <pose>  (15) 
[56.24992165648411, 77.96604961353937, 8.336442389369937, 3.735489059229738, -2.148386229967227, 2.8123007952853363, -11.898469398166679, -6.444930193444308, 0.9527228751788611, 2.2622656027582, 4.357744428178478, -9.646760967494378, 23.620530050963904, 40.56957950764674, 29.14193752292098, 0.8804334004584359, -1.1502843953342061, -1.3469742702762286]

>  <energy>  (15) 
-443.94010275576164

>  <inter_energy>  (15) 
-496.57768218548705

>  <intra_energy>  (15) 
49.76563544605488

>  <rmsd>  (15) 
3.64006

>  <sdf_rank>  (15) 
0

$$$$

     RDKit          3D

 49 48  0  0  0  0  0  0  0  0999 V2000
   48.5176   83.2042    7.4361 C   0  0  0  0  0  0  0  0  0  0  0  0
   49.4900   82.2244    8.0808 C   0  0  2  0  0  0  0  0  0  0  0  0
   49.5598   80.9367    7.2540 C   0  0  0  0  0  0  0  0  0  0  0  0
   50.9063   80.7474    6.5675 C   0  0  0  0  0  0  0  0  0  0  0  0
   52.0503   80.4823    7.5366 C   0  0  0  0  0  0  0  0  0  0  0  0
   52.5095   79.0459    7.4914 C   0  0  0  0  0  0  0  0  0  0  0  0
   53.7641   78.8369    7.8943 N   0  0  0  0  0  0  0  0  0  0  0  0
   54.1055   78.4091    9.2384 C   0  0  2  0  0  0  0  0  0  0  0  0
   55.4299   77.6480    9.2025 C   0  0  0  0  0  0  0  0  0  0  0  0
   49.0747   81.9641    9.4722 N   0  0  0  0  0  0  0  0  0  0  0  0
   51.7794   78.1375    7.0918 O   0  0  0  0  0  0  0  0  0  0  0  0
   53.0332   77.4777    9.7804 C   0  0  0  0  0  0  0  0  0  0  0  0
   52.3144   78.0313   11.3466 S   0  0  0  0  0  0  0  0  0  0  0  0
   56.3003   77.9436    8.3878 O   0  0  0  0  0  0  0  0  0  0  0  0
   48.9149   83.6889    6.2961 O   0  0  0  0  0  0  0  0  0  0  0  0
   47.4603   83.4829    7.9653 O   0  0  0  0  0  0  0  0  0  0  0  0
   55.5643   76.6477   10.0732 N   0  0  0  0  0  0  0  0  0  0  0  0
   56.6831   75.7274   10.0108 C   0  0  1  0  0  0  0  0  0  0  0  0
   57.6239   76.0683   11.1497 C   0  0  0  0  0  0  0  0  0  0  0  0
   56.2225   74.2552   10.0796 C   0  0  1  0  0  0  0  0  0  0  0  0
   57.3509   73.3525   10.5780 C   0  0  0  0  0  0  0  0  0  0  0  0
   54.9803   74.1177   10.9642 C   0  0  0  0  0  0  0  0  0  0  0  0
   57.1850   76.3415   12.2511 O   0  0  0  0  0  0  0  0  0  0  0  0
   58.8863   76.0452   10.8355 O   0  0  0  0  0  0  0  0  0  0  0  0
   50.5012   82.6569    8.1037 H   0  0  0  0  0  0  0  0  0  0  0  0
   49.3823   80.0806    7.9214 H   0  0  0  0  0  0  0  0  0  0  0  0
   48.7943   81.0069    6.4671 H   0  0  0  0  0  0  0  0  0  0  0  0
   50.8288   79.8935    5.8784 H   0  0  0  0  0  0  0  0  0  0  0  0
   51.1373   81.6867    6.0436 H   0  0  0  0  0  0  0  0  0  0  0  0
   52.8966   81.1338    7.2734 H   0  0  0  0  0  0  0  0  0  0  0  0
   51.6882   80.6908    8.5541 H   0  0  0  0  0  0  0  0  0  0  0  0
   54.1483   78.1197    7.2628 H   0  0  0  0  0  0  0  0  0  0  0  0
   54.1448   79.7939    7.8816 H   0  0  0  0  0  0  0  0  0  0  0  0
   54.1859   79.2965    9.8834 H   0  0  0  0  0  0  0  0  0  0  0  0
   49.7541   82.3899   10.1187 H   0  0  0  0  0  0  0  0  0  0  0  0
   48.1434   82.3730    9.6347 H   0  0  0  0  0  0  0  0  0  0  0  0
   49.0365   80.9477    9.6347 H   0  0  0  0  0  0  0  0  0  0  0  0
   52.2276   77.4043    9.0351 H   0  0  0  0  0  0  0  0  0  0  0  0
   53.5161   76.5082    9.9726 H   0  0  0  0  0  0  0  0  0  0  0  0
   53.0186   77.4890   12.3892 H   0  0  0  0  0  0  0  0  0  0  0  0
   54.8547   76.5253   10.8097 H   0  0  0  0  0  0  0  0  0  0  0  0
   57.2000   75.8355    9.0458 H   0  0  0  0  0  0  0  0  0  0  0  0
   55.9560   73.9321    9.0625 H   0  0  0  0  0  0  0  0  0  0  0  0
   57.3575   73.3472   11.6780 H   0  0  0  0  0  0  0  0  0  0  0  0
   57.1925   72.3290   10.2074 H   0  0  0  0  0  0  0  0  0  0  0  0
   58.3147   73.7316   10.2074 H   0  0  0  0  0  0  0  0  0  0  0  0
   55.2784   74.1507   12.0225 H   0  0  0  0  0  0  0  0  0  0  0  0
   54.2862   74.9445   10.7528 H   0  0  0  0  0  0  0  0  0  0  0  0
   54.4839   73.1591   10.7528 H   0  0  0  0  0  0  0  0  0  0  0  0
  1  2  1  0
  1 15  1  0
  1 16  2  0
  2  3  1  0
  2 10  1  0
  3  4  1  0
  4  5  1  0
  5  6  1  0
  6  7  1  0
  6 11  2  0
  7  8  1  0
  8  9  1  0
  8 12  1  0
  9 14  2  0
  9 17  1  0
 12 13  1  0
 18 17  1  0
 18 19  1  0
 18 20  1  0
 19 23  2  0
 19 24  1  0
 20 21  1  0
 20 22  1  0
  2 25  1  1
  3 26  1  0
  3 27  1  0
  4 28  1  0
  4 29  1  0
  5 30  1  0
  5 31  1  0
  7 32  1  0
  7 33  1  0
  8 34  1  1
 10 35  1  0
 10 36  1  0
 10 37  1  0
 12 38  1  0
 12 39  1  0
 13 40  1  0
 17 41  1  0
 18 42  1  6
 20 43  1  6
 21 44  1  0
 21 45  1  0
 21 46  1  0
 22 47  1  0
 22 48  1  0
 22 49  1  0
M  CHG  4   7   1  10   1  15  -1  24  -1
M  END
>  <filename_input>  (16) 
6ZAE_ACV_docked.sdf

>  <pdb_id>  (16) 
6ZAE_ACV

>  <pose_rank>  (16) 
15

>  <num_atoms_heavy>  (16) 
24

>  <num_torsions>  (16) 
12

>  <pose>  (16) 
[54.10554713942372, 78.40906684643076, 9.238391665115792, -0.3192268426462402, -2.2036994673455985, -2.8265944302817556, 6.795702425662249, -0.6290448713009186, 0.8346420270479935, -1.8145823359299167, 3.2163070338590547, 4.710224684812272, 4.723016800398916, 4.595863338596106, -1.2478705282751825, -1.8706929308206355, -1.2169453432823847, -0.026111814402968905]

>  <energy>  (16) 
-532.0280659022858

>  <inter_energy>  (16) 
-545.139973203713

>  <intra_energy>  (16) 
19.004040909868692

>  <rmsd>  (16) 
9.13032

>  <sdf_rank>  (16) 
0

$$$$

     RDKit          3D

 49 48  0  0  0  0  0  0  0  0999 V2000
   55.0779   75.0164   10.5376 C   0  0  0  0  0  0  0  0  0  0  0  0
   56.2327   74.2107    9.9557 C   0  0  2  0  0  0  0  0  0  0  0  0
   57.1251   75.1176    9.1027 C   0  0  0  0  0  0  0  0  0  0  0  0
   56.6424   75.2368    7.6629 C   0  0  0  0  0  0  0  0  0  0  0  0
   55.6161   76.3423    7.4558 C   0  0  0  0  0  0  0  0  0  0  0  0
   55.8219   77.4922    8.4105 C   0  0  0  0  0  0  0  0  0  0  0  0
   54.7119   78.1405    8.7676 N   0  0  0  0  0  0  0  0  0  0  0  0
   54.3072   79.4048    8.1809 C   0  0  2  0  0  0  0  0  0  0  0  0
   52.7915   79.4075    7.9887 C   0  0  0  0  0  0  0  0  0  0  0  0
   55.6979   73.0759    9.1796 N   0  0  0  0  0  0  0  0  0  0  0  0
   56.9402   77.8167    8.8131 O   0  0  0  0  0  0  0  0  0  0  0  0
   54.9621   79.5851    6.8208 C   0  0  0  0  0  0  0  0  0  0  0  0
   55.7812   81.1860    6.6157 S   0  0  0  0  0  0  0  0  0  0  0  0
   52.1824   78.3580    7.7982 O   0  0  0  0  0  0  0  0  0  0  0  0
   55.4217   75.8623   11.4641 O   0  0  0  0  0  0  0  0  0  0  0  0
   53.9400   74.8636   10.1406 O   0  0  0  0  0  0  0  0  0  0  0  0
   52.1916   80.5975    8.0123 N   0  0  0  0  0  0  0  0  0  0  0  0
   50.7968   80.7558    7.6486 C   0  0  1  0  0  0  0  0  0  0  0  0
   50.2048   81.8237    8.5472 C   0  0  0  0  0  0  0  0  0  0  0  0
   50.6279   81.1156    6.1565 C   0  0  1  0  0  0  0  0  0  0  0  0
   49.2724   80.6436    5.6308 C   0  0  0  0  0  0  0  0  0  0  0  0
   50.8051   82.6209    5.9394 C   0  0  0  0  0  0  0  0  0  0  0  0
   50.9290   82.5991    9.1428 O   0  0  0  0  0  0  0  0  0  0  0  0
   48.9055   81.8164    8.6147 O   0  0  0  0  0  0  0  0  0  0  0  0
   56.8549   73.8041   10.7666 H   0  0  0  0  0  0  0  0  0  0  0  0
   57.1387   76.1212    9.5529 H   0  0  0  0  0  0  0  0  0  0  0  0
   58.1283   74.6669    9.0790 H   0  0  0  0  0  0  0  0  0  0  0  0
   57.5111   75.4434    7.0204 H   0  0  0  0  0  0  0  0  0  0  0  0
   56.1506   74.2867    7.4069 H   0  0  0  0  0  0  0  0  0  0  0  0
   55.7013   76.7171    6.4251 H   0  0  0  0  0  0  0  0  0  0  0  0
   54.6186   75.9189    7.6447 H   0  0  0  0  0  0  0  0  0  0  0  0
   53.9347   77.4869    8.5954 H   0  0  0  0  0  0  0  0  0  0  0  0
   54.9429   78.4264    9.7298 H   0  0  0  0  0  0  0  0  0  0  0  0
   54.6144   80.2212    8.8510 H   0  0  0  0  0  0  0  0  0  0  0  0
   55.3556   72.3497    9.8248 H   0  0  0  0  0  0  0  0  0  0  0  0
   54.9216   73.4014    8.5861 H   0  0  0  0  0  0  0  0  0  0  0  0
   56.4431   72.6844    8.5861 H   0  0  0  0  0  0  0  0  0  0  0  0
   55.7121   78.7915    6.6883 H   0  0  0  0  0  0  0  0  0  0  0  0
   54.1610   79.5346    6.0686 H   0  0  0  0  0  0  0  0  0  0  0  0
   56.0546   81.7203    7.8472 H   0  0  0  0  0  0  0  0  0  0  0  0
   52.7329   81.4265    8.2964 H   0  0  0  0  0  0  0  0  0  0  0  0
   50.2653   79.8032    7.7897 H   0  0  0  0  0  0  0  0  0  0  0  0
   51.4111   80.5931    5.5876 H   0  0  0  0  0  0  0  0  0  0  0  0
   48.6104   80.4131    6.4785 H   0  0  0  0  0  0  0  0  0  0  0  0
   48.8203   81.4373    5.0178 H   0  0  0  0  0  0  0  0  0  0  0  0
   49.4110   79.7408    5.0178 H   0  0  0  0  0  0  0  0  0  0  0  0
   50.8648   83.1274    6.9140 H   0  0  0  0  0  0  0  0  0  0  0  0
   51.7310   82.8033    5.3741 H   0  0  0  0  0  0  0  0  0  0  0  0
   49.9470   83.0134    5.3741 H   0  0  0  0  0  0  0  0  0  0  0  0
  1  2  1  0
  1 15  1  0
  1 16  2  0
  2  3  1  0
  2 10  1  0
  3  4  1  0
  4  5  1  0
  5  6  1  0
  6  7  1  0
  6 11  2  0
  7  8  1  0
  8  9  1  0
  8 12  1  0
  9 14  2  0
  9 17  1  0
 12 13  1  0
 18 17  1  0
 18 19  1  0
 18 20  1  0
 19 23  2  0
 19 24  1  0
 20 21  1  0
 20 22  1  0
  2 25  1  1
  3 26  1  0
  3 27  1  0
  4 28  1  0
  4 29  1  0
  5 30  1  0
  5 31  1  0
  7 32  1  0
  7 33  1  0
  8 34  1  1
 10 35  1  0
 10 36  1  0
 10 37  1  0
 12 38  1  0
 12 39  1  0
 13 40  1  0
 17 41  1  0
 18 42  1  6
 20 43  1  6
 21 44  1  0
 21 45  1  0
 21 46  1  0
 22 47  1  0
 22 48  1  0
 22 49  1  0
M  CHG  4   7   1  10   1  15  -1  24  -1
M  END
>  <filename_input>  (17) 
6ZAE_ACV_docked.sdf

>  <pdb_id>  (17) 
6ZAE_ACV

>  <pose_rank>  (17) 
16

>  <num_atoms_heavy>  (17) 
24

>  <num_torsions>  (17) 
12

>  <pose>  (17) 
[54.307223079811024, 79.40475271397973, 8.180898531715714, 5.30822398410623, 0.7025462033675334, 2.0171868941908455, 5.726652506034737, 0.03180152411017423, 0.42813002290681945, 3.5943515052609563, 3.1110825341639265, -26.92331672093641, -67.83640621654318, -38.423207324033875, -8.86761489860145, -20.38439109555429, -4.6768999915677165, -0.06527973904758358]

>  <energy>  (17) 
-535.5752425976433

>  <inter_energy>  (17) 
-583.9660676557637

>  <intra_energy>  (17) 
54.14322996896367

>  <rmsd>  (17) 
1.95727

>  <sdf_rank>  (17) 
0

$$$$

     RDKit          3D

 49 48  0  0  0  0  0  0  0  0999 V2000
   56.4656   72.2464    8.4817 C   0  0  0  0  0  0  0  0  0  0  0  0
   56.5224   73.7443    8.2087 C   0  0  2  0  0  0  0  0  0  0  0  0
   55.6354   74.4919    9.2092 C   0  0  0  0  0  0  0  0  0  0  0  0
   54.7126   75.5028    8.5407 C   0  0  0  0  0  0  0  0  0  0  0  0
   54.0653   76.4739    9.5186 C   0  0  0  0  0  0  0  0  0  0  0  0
   54.6257   77.8684    9.3865 C   0  0  0  0  0  0  0  0  0  0  0  0
   53.7169   78.8433    9.3280 N   0  0  0  0  0  0  0  0  0  0  0  0
   53.5750   79.7291    8.1871 C   0  0  2  0  0  0  0  0  0  0  0  0
   52.0943   79.8602    7.8336 C   0  0  0  0  0  0  0  0  0  0  0  0
   56.1203   74.0048    6.8135 N   0  0  0  0  0  0  0  0  0  0  0  0
   55.8369   78.0835    9.3187 O   0  0  0  0  0  0  0  0  0  0  0  0
   54.3050   79.1549    6.9836 C   0  0  0  0  0  0  0  0  0  0  0  0
   55.2402   80.3881    6.0451 S   0  0  0  0  0  0  0  0  0  0  0  0
   51.4433   78.8773    7.4889 O   0  0  0  0  0  0  0  0  0  0  0  0
   57.0494   71.8752    9.5834 O   0  0  0  0  0  0  0  0  0  0  0  0
   55.9051   71.4874    7.7166 O   0  0  0  0  0  0  0  0  0  0  0  0
   51.5751   81.0863    7.8947 N   0  0  0  0  0  0  0  0  0  0  0  0
   50.2441   81.3765    7.3977 C   0  0  1  0  0  0  0  0  0  0  0  0
   49.7230   82.5829    8.1537 C   0  0  0  0  0  0  0  0  0  0  0  0
   50.2389   81.6196    5.8729 C   0  0  1  0  0  0  0  0  0  0  0  0
   48.8102   81.7488    5.3451 C   0  0  0  0  0  0  0  0  0  0  0  0
   51.0669   82.8583    5.5197 C   0  0  0  0  0  0  0  0  0  0  0  0
   50.4768   83.2627    8.8246 O   0  0  0  0  0  0  0  0  0  0  0  0
   48.4466   82.7967    8.0201 O   0  0  0  0  0  0  0  0  0  0  0  0
   57.5505   74.1126    8.3400 H   0  0  0  0  0  0  0  0  0  0  0  0
   55.0197   73.7579    9.7497 H   0  0  0  0  0  0  0  0  0  0  0  0
   56.2986   75.0478    9.8882 H   0  0  0  0  0  0  0  0  0  0  0  0
   55.2996   76.0816    7.8124 H   0  0  0  0  0  0  0  0  0  0  0  0
   53.9005   74.9339    8.0644 H   0  0  0  0  0  0  0  0  0  0  0  0
   52.9834   76.5062    9.3229 H   0  0  0  0  0  0  0  0  0  0  0  0
   54.2755   76.1190   10.5383 H   0  0  0  0  0  0  0  0  0  0  0  0
   52.8021   78.3849    9.4459 H   0  0  0  0  0  0  0  0  0  0  0  0
   54.0663   79.4918   10.0479 H   0  0  0  0  0  0  0  0  0  0  0  0
   54.0003   80.7102    8.4448 H   0  0  0  0  0  0  0  0  0  0  0  0
   55.2559   74.5649    6.8042 H   0  0  0  0  0  0  0  0  0  0  0  0
   56.8694   74.5215    6.3311 H   0  0  0  0  0  0  0  0  0  0  0  0
   55.9548   73.1100    6.3311 H   0  0  0  0  0  0  0  0  0  0  0  0
   55.0047   78.3833    7.3372 H   0  0  0  0  0  0  0  0  0  0  0  0
   53.5394   78.7479    6.3067 H   0  0  0  0  0  0  0  0  0  0  0  0
   55.8808   81.2328    6.9128 H   0  0  0  0  0  0  0  0  0  0  0  0
   52.1339   81.8476    8.3058 H   0  0  0  0  0  0  0  0  0  0  0  0
   49.5874   80.5102    7.5658 H   0  0  0  0  0  0  0  0  0  0  0  0
   50.7013   80.7485    5.3858 H   0  0  0  0  0  0  0  0  0  0  0  0
   48.1108   81.8120    6.1918 H   0  0  0  0  0  0  0  0  0  0  0  0
   48.7267   82.6581    4.7319 H   0  0  0  0  0  0  0  0  0  0  0  0
   48.5650   80.8691    4.7319 H   0  0  0  0  0  0  0  0  0  0  0  0
   51.3981   83.3538    6.4442 H   0  0  0  0  0  0  0  0  0  0  0  0
   51.9454   82.5564    4.9306 H   0  0  0  0  0  0  0  0  0  0  0  0
   50.4520   83.5546    4.9306 H   0  0  0  0  0  0  0  0  0  0  0  0
  1  2  1  0
  1 15  1  0
  1 16  2  0
  2  3  1  0
  2 10  1  0
  3  4  1  0
  4  5  1  0
  5  6  1  0
  6  7  1  0
  6 11  2  0
  7  8  1  0
  8  9  1  0
  8 12  1  0
  9 14  2  0
  9 17  1  0
 12 13  1  0
 18 17  1  0
 18 19  1  0
 18 20  1  0
 19 23  2  0
 19 24  1  0
 20 21  1  0
 20 22  1  0
  2 25  1  6
  3 26  1  0
  3 27  1  0
  4 28  1  0
  4 29  1  0
  5 30  1  0
  5 31  1  0
  7 32  1  0
  7 33  1  0
  8 34  1  1
 10 35  1  0
 10 36  1  0
 10 37  1  0
 12 38  1  0
 12 39  1  0
 13 40  1  0
 17 41  1  0
 18 42  1  6
 20 43  1  6
 21 44  1  0
 21 45  1  0
 21 46  1  0
 22 47  1  0
 22 48  1  0
 22 49  1  0
M  CHG  4   7   1  10   1  15  -1  24  -1
M  END
>  <filename_input>  (18) 
6ZAE_ACV_docked.sdf

>  <pdb_id>  (18) 
6ZAE_ACV

>  <pose_rank>  (18) 
17

>  <num_atoms_heavy>  (18) 
24

>  <num_torsions>  (18) 
12

>  <pose>  (18) 
[53.57495432890211, 79.72907769577056, 8.187098642392652, 4.821673642128536, 0.7501104819461112, 1.8058444078308147, 5.152317766323383, 0.20862926466991918, 0.338171562557883, 3.9409734477224596, 2.977719488552812, -27.035140403741092, -68.15515139123184, -39.79503130361824, -7.4989505982668225, -18.529875066932604, -5.465544839478567, -0.0508481113149965]

>  <energy>  (18) 
-692.5885138634673

>  <inter_energy>  (18) 
-715.3558723963287

>  <intra_energy>  (18) 
28.901835773609676

>  <rmsd>  (18) 
1.41937

>  <sdf_rank>  (18) 
0

$$$$

     RDKit          3D

 49 48  0  0  0  0  0  0  0  0999 V2000
   50.2354   81.5355    7.7943 C   0  0  0  0  0  0  0  0  0  0  0  0
   51.3698   80.6842    7.2377 C   0  0  2  0  0  0  0  0  0  0  0  0
   52.3841   81.5744    6.5128 C   0  0  0  0  0  0  0  0  0  0  0  0
   53.6093   81.8872    7.3622 C   0  0  0  0  0  0  0  0  0  0  0  0
   54.2480   80.6533    7.9848 C   0  0  0  0  0  0  0  0  0  0  0  0
   55.2191   79.9828    7.0449 C   0  0  0  0  0  0  0  0  0  0  0  0
   55.8515   78.9194    7.5440 N   0  0  0  0  0  0  0  0  0  0  0  0
   55.3195   78.1164    8.6296 C   0  0  2  0  0  0  0  0  0  0  0  0
   56.3854   77.1229    9.0892 C   0  0  0  0  0  0  0  0  0  0  0  0
   50.8143   79.6455    6.3497 N   0  0  0  0  0  0  0  0  0  0  0  0
   55.4233   80.4035    5.9050 O   0  0  0  0  0  0  0  0  0  0  0  0
   54.1069   77.3315    8.1555 C   0  0  0  0  0  0  0  0  0  0  0  0
   52.6196   77.6255    9.1443 S   0  0  0  0  0  0  0  0  0  0  0  0
   57.4734   77.5174    9.5007 O   0  0  0  0  0  0  0  0  0  0  0  0
   49.8209   81.1788    8.9747 O   0  0  0  0  0  0  0  0  0  0  0  0
   49.7823   82.4706    7.1652 O   0  0  0  0  0  0  0  0  0  0  0  0
   56.0754   75.8303    8.9899 N   0  0  0  0  0  0  0  0  0  0  0  0
   57.0630   74.7905    9.2046 C   0  0  1  0  0  0  0  0  0  0  0  0
   56.8876   74.2737   10.6189 C   0  0  0  0  0  0  0  0  0  0  0  0
   56.9368   73.6534    8.1676 C   0  0  1  0  0  0  0  0  0  0  0  0
   57.3025   72.3051    8.7881 C   0  0  0  0  0  0  0  0  0  0  0  0
   55.5263   73.6175    7.5728 C   0  0  0  0  0  0  0  0  0  0  0  0
   55.7795   74.0072   11.0450 O   0  0  0  0  0  0  0  0  0  0  0  0
   57.9931   74.1590   11.2953 O   0  0  0  0  0  0  0  0  0  0  0  0
   51.9008   80.1803    8.0588 H   0  0  0  0  0  0  0  0  0  0  0  0
   52.7129   81.0594    5.5981 H   0  0  0  0  0  0  0  0  0  0  0  0
   51.8853   82.5286    6.2876 H   0  0  0  0  0  0  0  0  0  0  0  0
   54.3571   82.3826    6.7254 H   0  0  0  0  0  0  0  0  0  0  0  0
   53.2739   82.5302    8.1893 H   0  0  0  0  0  0  0  0  0  0  0  0
   54.7860   80.9536    8.8960 H   0  0  0  0  0  0  0  0  0  0  0  0
   53.4466   79.9353    8.2135 H   0  0  0  0  0  0  0  0  0  0  0  0
   55.9859   78.2731    6.7534 H   0  0  0  0  0  0  0  0  0  0  0  0
   56.6660   79.3595    7.9956 H   0  0  0  0  0  0  0  0  0  0  0  0
   55.0296   78.7832    9.4549 H   0  0  0  0  0  0  0  0  0  0  0  0
   50.4093   78.8883    6.9184 H   0  0  0  0  0  0  0  0  0  0  0  0
   50.0813   80.0581    5.7553 H   0  0  0  0  0  0  0  0  0  0  0  0
   51.5644   79.2649    5.7553 H   0  0  0  0  0  0  0  0  0  0  0  0
   53.8939   77.6162    7.1146 H   0  0  0  0  0  0  0  0  0  0  0  0
   54.3546   76.2645    8.2560 H   0  0  0  0  0  0  0  0  0  0  0  0
   52.9365   77.5628   10.4757 H   0  0  0  0  0  0  0  0  0  0  0  0
   55.1089   75.5631    8.7545 H   0  0  0  0  0  0  0  0  0  0  0  0
   58.0735   75.2049    9.0742 H   0  0  0  0  0  0  0  0  0  0  0  0
   57.6472   73.8534    7.3520 H   0  0  0  0  0  0  0  0  0  0  0  0
   57.2800   72.3880    9.8848 H   0  0  0  0  0  0  0  0  0  0  0  0
   56.5785   71.5434    8.4631 H   0  0  0  0  0  0  0  0  0  0  0  0
   58.3121   72.0137    8.4631 H   0  0  0  0  0  0  0  0  0  0  0  0
   54.7858   73.5987    8.3861 H   0  0  0  0  0  0  0  0  0  0  0  0
   55.3670   74.5119    6.9526 H   0  0  0  0  0  0  0  0  0  0  0  0
   55.4127   72.7162    6.9526 H   0  0  0  0  0  0  0  0  0  0  0  0
  1  2  1  0
  1 15  1  0
  1 16  2  0
  2  3  1  0
  2 10  1  0
  3  4  1  0
  4  5  1  0
  5  6  1  0
  6  7  1  0
  6 11  2  0
  7  8  1  0
  8  9  1  0
  8 12  1  0
  9 14  2  0
  9 17  1  0
 12 13  1  0
 18 17  1  0
 18 19  1  0
 18 20  1  0
 19 23  2  0
 19 24  1  0
 20 21  1  0
 20 22  1  0
  2 25  1  1
  3 26  1  0
  3 27  1  0
  4 28  1  0
  4 29  1  0
  5 30  1  0
  5 31  1  0
  7 32  1  0
  7 33  1  0
  8 34  1  1
 10 35  1  0
 10 36  1  0
 10 37  1  0
 12 38  1  0
 12 39  1  0
 13 40  1  0
 17 41  1  0
 18 42  1  1
 20 43  1  6
 21 44  1  0
 21 45  1  0
 21 46  1  0
 22 47  1  0
 22 48  1  0
 22 49  1  0
M  CHG  4   7   1  10   1  15  -1  24  -1
M  END
>  <filename_input>  (19) 
6ZAE_ACV_docked.sdf

>  <pdb_id>  (19) 
6ZAE_ACV

>  <pose_rank>  (19) 
18

>  <num_atoms_heavy>  (19) 
24

>  <num_torsions>  (19) 
12

>  <pose>  (19) 
[55.319489993101456, 78.11637836488234, 8.629552740585206, 0.3550533574090262, -1.6550312183643587, -3.659483100156002, 7.2591279435975995, -0.7512810784336679, 0.9194615933627326, -1.6323969813572, 3.2132570928666118, 5.327236494139081, 3.458222981887257, 4.975383632705594, -1.6311256766252615, -2.1806933694707933, -1.4247987887306721, -1.2820573767688133]

>  <energy>  (19) 
-503.060822292261

>  <inter_energy>  (19) 
-523.8066859905099

>  <intra_energy>  (19) 
21.757201370939317

>  <rmsd>  (19) 
8.44036

>  <sdf_rank>  (19) 
0

$$$$

     RDKit          3D

 49 48  0  0  0  0  0  0  0  0999 V2000
   50.8431   80.6162   12.3801 C   0  0  0  0  0  0  0  0  0  0  0  0
   51.6779   81.8268   11.9817 C   0  0  2  0  0  0  0  0  0  0  0  0
   52.6761   81.4362   10.8873 C   0  0  0  0  0  0  0  0  0  0  0  0
   53.3296   80.0835   11.1389 C   0  0  0  0  0  0  0  0  0  0  0  0
   54.5397   79.8193   10.2533 C   0  0  0  0  0  0  0  0  0  0  0  0
   54.2695   78.7429    9.2313 C   0  0  0  0  0  0  0  0  0  0  0  0
   54.3705   79.1292    7.9584 N   0  0  0  0  0  0  0  0  0  0  0  0
   53.8532   80.3938    7.4689 C   0  0  2  0  0  0  0  0  0  0  0  0
   52.3636   80.2433    7.1637 C   0  0  0  0  0  0  0  0  0  0  0  0
   52.3531   82.3719   13.1745 N   0  0  0  0  0  0  0  0  0  0  0  0
   53.9593   77.5955    9.5555 O   0  0  0  0  0  0  0  0  0  0  0  0
   54.5664   80.7908    6.1864 C   0  0  0  0  0  0  0  0  0  0  0  0
   56.0976   79.8715    5.8924 S   0  0  0  0  0  0  0  0  0  0  0  0
   51.9184   79.1874    6.7215 O   0  0  0  0  0  0  0  0  0  0  0  0
   51.0975   80.1515   13.5682 O   0  0  0  0  0  0  0  0  0  0  0  0
   50.0089   80.1513   11.6292 O   0  0  0  0  0  0  0  0  0  0  0  0
   51.6020   81.3163    7.3767 N   0  0  0  0  0  0  0  0  0  0  0  0
   50.2189   81.3678    6.9443 C   0  0  1  0  0  0  0  0  0  0  0  0
   49.4325   82.1140    8.0040 C   0  0  0  0  0  0  0  0  0  0  0  0
   50.0729   82.0335    5.5587 C   0  0  1  0  0  0  0  0  0  0  0  0
   51.3492   82.7822    5.1752 C   0  0  0  0  0  0  0  0  0  0  0  0
   49.7073   80.9945    4.4950 C   0  0  0  0  0  0  0  0  0  0  0  0
   49.4362   83.3304    8.0321 O   0  0  0  0  0  0  0  0  0  0  0  0
   48.7923   81.3514    8.8416 O   0  0  0  0  0  0  0  0  0  0  0  0
   51.0284   82.6135   11.5701 H   0  0  0  0  0  0  0  0  0  0  0  0
   52.1445   81.3960    9.9251 H   0  0  0  0  0  0  0  0  0  0  0  0
   53.4741   82.1932   10.8819 H   0  0  0  0  0  0  0  0  0  0  0  0
   53.6517   80.0425   12.1899 H   0  0  0  0  0  0  0  0  0  0  0  0
   52.5808   79.3133   10.9016 H   0  0  0  0  0  0  0  0  0  0  0  0
   54.8048   80.7488    9.7282 H   0  0  0  0  0  0  0  0  0  0  0  0
   55.3630   79.4766   10.8973 H   0  0  0  0  0  0  0  0  0  0  0  0
   55.3777   79.1330    7.7428 H   0  0  0  0  0  0  0  0  0  0  0  0
   53.7447   78.4578    7.4909 H   0  0  0  0  0  0  0  0  0  0  0  0
   54.0156   81.1644    8.2368 H   0  0  0  0  0  0  0  0  0  0  0  0
   51.8993   82.0055   14.0235 H   0  0  0  0  0  0  0  0  0  0  0  0
   53.3441   82.0910   13.1665 H   0  0  0  0  0  0  0  0  0  0  0  0
   52.2876   83.3998   13.1665 H   0  0  0  0  0  0  0  0  0  0  0  0
   53.8859   80.6121    5.3407 H   0  0  0  0  0  0  0  0  0  0  0  0
   54.8415   81.8512    6.2860 H   0  0  0  0  0  0  0  0  0  0  0  0
   56.6638   79.5316    7.0927 H   0  0  0  0  0  0  0  0  0  0  0  0
   52.0066   82.1303    7.8611 H   0  0  0  0  0  0  0  0  0  0  0  0
   49.8270   80.3464    6.8293 H   0  0  0  0  0  0  0  0  0  0  0  0
   49.2554   82.7672    5.6159 H   0  0  0  0  0  0  0  0  0  0  0  0
   51.8798   83.0935    6.0871 H   0  0  0  0  0  0  0  0  0  0  0  0
   51.9976   82.1213    4.5813 H   0  0  0  0  0  0  0  0  0  0  0  0
   51.0887   83.6706    4.5813 H   0  0  0  0  0  0  0  0  0  0  0  0
   49.3806   80.0661    4.9863 H   0  0  0  0  0  0  0  0  0  0  0  0
   48.8921   81.3837    3.8673 H   0  0  0  0  0  0  0  0  0  0  0  0
   50.5866   80.7874    3.8673 H   0  0  0  0  0  0  0  0  0  0  0  0
  1  2  1  0
  1 15  1  0
  1 16  2  0
  2  3  1  0
  2 10  1  0
  3  4  1  0
  4  5  1  0
  5  6  1  0
  6  7  1  0
  6 11  2  0
  7  8  1  0
  8  9  1  0
  8 12  1  0
  9 14  2  0
  9 17  1  0
 12 13  1  0
 18 17  1  0
 18 19  1  0
 18 20  1  0
 19 23  2  0
 19 24  1  0
 20 21  1  0
 20 22  1  0
  2 25  1  6
  3 26  1  0
  3 27  1  0
  4 28  1  0
  4 29  1  0
  5 30  1  0
  5 31  1  0
  7 32  1  0
  7 33  1  0
  8 34  1  1
 10 35  1  0
 10 36  1  0
 10 37  1  0
 12 38  1  0
 12 39  1  0
 13 40  1  0
 17 41  1  0
 18 42  1  6
 20 43  1  1
 21 44  1  0
 21 45  1  0
 21 46  1  0
 22 47  1  0
 22 48  1  0
 22 49  1  0
M  CHG  4   7   1  10   1  15  -1  24  -1
M  END
>  <filename_input>  (20) 
6ZAE_ACV_docked.sdf

>  <pdb_id>  (20) 
6ZAE_ACV

>  <pose_rank>  (20) 
19

>  <num_atoms_heavy>  (20) 
24

>  <num_torsions>  (20) 
12

>  <pose>  (20) 
[53.85316446248727, 80.39377125904731, 7.46887172098624, 5.298710043215889, 2.0426698728042747, 1.3433153956024804, -0.6611219136179775, 0.009471957556850793, 1.5218306021186303, 0.664242263785758, -1.178718541652466, 0.5806934946997093, 21.147444147660842, 22.79728067374072, 13.805562135779867, 0.31594098473877535, -3.896192591788802, 3.086193925510778]

>  <energy>  (20) 
-526.6996014585675

>  <inter_energy>  (20) 
-535.0329921259085

>  <intra_energy>  (20) 
11.460689380675186

>  <rmsd>  (20) 
5.37313

>  <sdf_rank>  (20) 
0

$$$$

     RDKit          3D

 49 48  0  0  0  0  0  0  0  0999 V2000
   58.1684   75.0688   12.0783 C   0  0  0  0  0  0  0  0  0  0  0  0
   58.0908   76.3678   11.2858 C   0  0  2  0  0  0  0  0  0  0  0  0
   56.6356   76.6652   10.9109 C   0  0  0  0  0  0  0  0  0  0  0  0
   56.4739   77.0833    9.4551 C   0  0  0  0  0  0  0  0  0  0  0  0
   55.0213   77.1899    9.0115 C   0  0  0  0  0  0  0  0  0  0  0  0
   54.4888   78.5948    9.1489 C   0  0  0  0  0  0  0  0  0  0  0  0
   53.3458   78.8353    8.5043 N   0  0  0  0  0  0  0  0  0  0  0  0
   53.1932   79.8986    7.5283 C   0  0  2  0  0  0  0  0  0  0  0  0
   51.7103   80.0762    7.2060 C   0  0  0  0  0  0  0  0  0  0  0  0
   58.9575   76.2697   10.0961 N   0  0  0  0  0  0  0  0  0  0  0  0
   55.0818   79.4592    9.7961 O   0  0  0  0  0  0  0  0  0  0  0  0
   53.9222   79.5395    6.2435 C   0  0  0  0  0  0  0  0  0  0  0  0
   55.3549   80.5919    5.9028 S   0  0  0  0  0  0  0  0  0  0  0  0
   51.0454   79.1362    6.7782 O   0  0  0  0  0  0  0  0  0  0  0  0
   57.5347   75.0900   13.2142 O   0  0  0  0  0  0  0  0  0  0  0  0
   58.7741   74.1060   11.6521 O   0  0  0  0  0  0  0  0  0  0  0  0
   51.2045   81.2959    7.3880 N   0  0  0  0  0  0  0  0  0  0  0  0
   49.8713   81.6439    6.9360 C   0  0  1  0  0  0  0  0  0  0  0  0
   49.2431   82.5298    7.9937 C   0  0  0  0  0  0  0  0  0  0  0  0
   49.8936   82.3387    5.5573 C   0  0  1  0  0  0  0  0  0  0  0  0
   48.6288   82.0155    4.7622 C   0  0  0  0  0  0  0  0  0  0  0  0
   50.0684   83.8516    5.7165 C   0  0  0  0  0  0  0  0  0  0  0  0
   49.9289   83.0309    8.8650 O   0  0  0  0  0  0  0  0  0  0  0  0
   47.9561   82.6822    7.8788 O   0  0  0  0  0  0  0  0  0  0  0  0
   58.4511   77.2061   11.9000 H   0  0  0  0  0  0  0  0  0  0  0  0
   56.0359   75.7597   11.0851 H   0  0  0  0  0  0  0  0  0  0  0  0
   56.2981   77.5052   11.5358 H   0  0  0  0  0  0  0  0  0  0  0  0
   56.9522   78.0645    9.3195 H   0  0  0  0  0  0  0  0  0  0  0  0
   56.9434   76.3015    8.8400 H   0  0  0  0  0  0  0  0  0  0  0  0
   54.9488   76.8844    7.9573 H   0  0  0  0  0  0  0  0  0  0  0  0
   54.4199   76.5344    9.6586 H   0  0  0  0  0  0  0  0  0  0  0  0
   53.1100   77.9624    8.0110 H   0  0  0  0  0  0  0  0  0  0  0  0
   52.7464   79.1737    9.2705 H   0  0  0  0  0  0  0  0  0  0  0  0
   53.6129   80.8258    7.9455 H   0  0  0  0  0  0  0  0  0  0  0  0
   59.9374   76.1588   10.3934 H   0  0  0  0  0  0  0  0  0  0  0  0
   58.6756   75.4552    9.5321 H   0  0  0  0  0  0  0  0  0  0  0  0
   58.8647   77.1266    9.5321 H   0  0  0  0  0  0  0  0  0  0  0  0
   54.2666   78.4975    6.3189 H   0  0  0  0  0  0  0  0  0  0  0  0
   53.2107   79.6870    5.4176 H   0  0  0  0  0  0  0  0  0  0  0  0
   55.9122   81.0013    7.0854 H   0  0  0  0  0  0  0  0  0  0  0  0
   51.7756   82.0100    7.8621 H   0  0  0  0  0  0  0  0  0  0  0  0
   49.2738   80.7301    6.8021 H   0  0  0  0  0  0  0  0  0  0  0  0
   50.7551   81.9521    4.9930 H   0  0  0  0  0  0  0  0  0  0  0  0
   47.8027   81.8045    5.4572 H   0  0  0  0  0  0  0  0  0  0  0  0
   48.3644   82.8750    4.1286 H   0  0  0  0  0  0  0  0  0  0  0  0
   48.8091   81.1346    4.1286 H   0  0  0  0  0  0  0  0  0  0  0  0
   50.0979   84.1067    6.7861 H   0  0  0  0  0  0  0  0  0  0  0  0
   51.0086   84.1643    5.2389 H   0  0  0  0  0  0  0  0  0  0  0  0
   49.2242   84.3705    5.2389 H   0  0  0  0  0  0  0  0  0  0  0  0
  1  2  1  0
  1 15  1  0
  1 16  2  0
  2  3  1  0
  2 10  1  0
  3  4  1  0
  4  5  1  0
  5  6  1  0
  6  7  1  0
  6 11  2  0
  7  8  1  0
  8  9  1  0
  8 12  1  0
  9 14  2  0
  9 17  1  0
 12 13  1  0
 18 17  1  0
 18 19  1  0
 18 20  1  0
 19 23  2  0
 19 24  1  0
 20 21  1  0
 20 22  1  0
  2 25  1  1
  3 26  1  0
  3 27  1  0
  4 28  1  0
  4 29  1  0
  5 30  1  0
  5 31  1  0
  7 32  1  0
  7 33  1  0
  8 34  1  1
 10 35  1  0
 10 36  1  0
 10 37  1  0
 12 38  1  0
 12 39  1  0
 13 40  1  0
 17 41  1  0
 18 42  1  6
 20 43  1  6
 21 44  1  0
 21 45  1  0
 21 46  1  0
 22 47  1  0
 22 48  1  0
 22 49  1  0
M  CHG  4   7   1  10   1  15  -1  24  -1
M  END
>  <filename_input>  (21) 
6ZAE_ACV_docked.sdf

>  <pdb_id>  (21) 
6ZAE_ACV

>  <pose_rank>  (21) 
20

>  <num_atoms_heavy>  (21) 
24

>  <num_torsions>  (21) 
12

>  <pose>  (21) 
[53.19322450649225, 79.89857180605833, 7.5282816927138905, 4.849880133470412, 0.7112159834410103, 2.169749772216854, 5.228881103408206, -0.024445649265571426, 0.35484698538931714, 3.5154969102884603, 3.4126611597237297, -26.03720522534246, -68.25027072123527, -39.22537232412553, -7.764795929709411, -18.907819490647405, -5.5097746025061625, 0.07483922748701642]

>  <energy>  (21) 
-514.7276917237393

>  <inter_energy>  (21) 
-525.0208089957807

>  <intra_energy>  (21) 
12.298909918473505

>  <rmsd>  (21) 
2.52307

>  <sdf_rank>  (21) 
0

$$$$

     RDKit          3D

 49 48  0  0  0  0  0  0  0  0999 V2000
   51.2736   80.4858   12.5883 C   0  0  0  0  0  0  0  0  0  0  0  0
   51.7205   80.8730   11.1841 C   0  0  2  0  0  0  0  0  0  0  0  0
   52.5315   79.7327   10.5606 C   0  0  0  0  0  0  0  0  0  0  0  0
   51.8126   79.0640    9.3961 C   0  0  0  0  0  0  0  0  0  0  0  0
   52.5541   77.8578    8.8363 C   0  0  0  0  0  0  0  0  0  0  0  0
   53.6020   78.2557    7.8264 C   0  0  0  0  0  0  0  0  0  0  0  0
   53.2276   79.1985    6.9600 N   0  0  0  0  0  0  0  0  0  0  0  0
   53.9162   80.4686    6.8220 C   0  0  2  0  0  0  0  0  0  0  0  0
   52.9231   81.6066    7.0528 C   0  0  0  0  0  0  0  0  0  0  0  0
   52.4911   82.1295   11.2428 N   0  0  0  0  0  0  0  0  0  0  0  0
   54.7158   77.7300    7.7971 O   0  0  0  0  0  0  0  0  0  0  0  0
   54.4847   80.6071    5.4189 C   0  0  0  0  0  0  0  0  0  0  0  0
   56.0888   79.7973    5.2019 S   0  0  0  0  0  0  0  0  0  0  0  0
   53.1133   82.4335    7.9409 O   0  0  0  0  0  0  0  0  0  0  0  0
   51.6147   81.3312   13.5164 O   0  0  0  0  0  0  0  0  0  0  0  0
   50.6434   79.4672   12.7905 O   0  0  0  0  0  0  0  0  0  0  0  0
   51.8482   81.6261    6.2648 N   0  0  0  0  0  0  0  0  0  0  0  0
   50.7404   82.5296    6.5084 C   0  0  1  0  0  0  0  0  0  0  0  0
   50.4196   83.2277    5.2014 C   0  0  0  0  0  0  0  0  0  0  0  0
   49.5074   81.7904    7.0717 C   0  0  1  0  0  0  0  0  0  0  0  0
   49.5789   80.2949    6.7634 C   0  0  0  0  0  0  0  0  0  0  0  0
   49.3723   82.0329    8.5775 C   0  0  0  0  0  0  0  0  0  0  0  0
   49.2665   83.3416    4.8301 O   0  0  0  0  0  0  0  0  0  0  0  0
   51.4584   83.6629    4.5500 O   0  0  0  0  0  0  0  0  0  0  0  0
   50.8431   81.0426   10.5427 H   0  0  0  0  0  0  0  0  0  0  0  0
   53.4868   80.1390   10.1970 H   0  0  0  0  0  0  0  0  0  0  0  0
   52.6818   78.9698   11.3387 H   0  0  0  0  0  0  0  0  0  0  0  0
   50.8219   78.7339    9.7419 H   0  0  0  0  0  0  0  0  0  0  0  0
   51.7462   79.8067    8.5874 H   0  0  0  0  0  0  0  0  0  0  0  0
   53.0441   77.3262    9.6654 H   0  0  0  0  0  0  0  0  0  0  0  0
   51.8207   77.2143    8.3285 H   0  0  0  0  0  0  0  0  0  0  0  0
   53.2594   78.7569    6.0300 H   0  0  0  0  0  0  0  0  0  0  0  0
   52.3265   79.4970    7.3596 H   0  0  0  0  0  0  0  0  0  0  0  0
   54.7324   80.5113    7.5582 H   0  0  0  0  0  0  0  0  0  0  0  0
   52.6502   82.3889   12.2268 H   0  0  0  0  0  0  0  0  0  0  0  0
   53.3975   81.9987   10.7713 H   0  0  0  0  0  0  0  0  0  0  0  0
   51.9637   82.8781   10.7713 H   0  0  0  0  0  0  0  0  0  0  0  0
   53.7717   80.1616    4.7096 H   0  0  0  0  0  0  0  0  0  0  0  0
   54.6393   81.6812    5.2388 H   0  0  0  0  0  0  0  0  0  0  0  0
   56.6317   79.5232    6.4295 H   0  0  0  0  0  0  0  0  0  0  0  0
   51.8032   80.9826    5.4619 H   0  0  0  0  0  0  0  0  0  0  0  0
   51.0236   83.2673    7.2735 H   0  0  0  0  0  0  0  0  0  0  0  0
   48.6111   82.1942    6.5782 H   0  0  0  0  0  0  0  0  0  0  0  0
   49.6061   79.7273    7.7052 H   0  0  0  0  0  0  0  0  0  0  0  0
   48.6940   79.9977    6.1816 H   0  0  0  0  0  0  0  0  0  0  0  0
   50.4882   80.0836    6.1816 H   0  0  0  0  0  0  0  0  0  0  0  0
   49.8361   81.1998    9.1261 H   0  0  0  0  0  0  0  0  0  0  0  0
   49.8766   82.9734    8.8441 H   0  0  0  0  0  0  0  0  0  0  0  0
   48.3072   82.0996    8.8441 H   0  0  0  0  0  0  0  0  0  0  0  0
  1  2  1  0
  1 15  1  0
  1 16  2  0
  2  3  1  0
  2 10  1  0
  3  4  1  0
  4  5  1  0
  5  6  1  0
  6  7  1  0
  6 11  2  0
  7  8  1  0
  8  9  1  0
  8 12  1  0
  9 14  2  0
  9 17  1  0
 12 13  1  0
 18 17  1  0
 18 19  1  0
 18 20  1  0
 19 23  2  0
 19 24  1  0
 20 21  1  0
 20 22  1  0
  2 25  1  6
  3 26  1  0
  3 27  1  0
  4 28  1  0
  4 29  1  0
  5 30  1  0
  5 31  1  0
  7 32  1  0
  7 33  1  0
  8 34  1  1
 10 35  1  0
 10 36  1  0
 10 37  1  0
 12 38  1  0
 12 39  1  0
 13 40  1  0
 17 41  1  0
 18 42  1  1
 20 43  1  6
 21 44  1  0
 21 45  1  0
 21 46  1  0
 22 47  1  0
 22 48  1  0
 22 49  1  0
M  CHG  4   7   1  10   1  15  -1  24  -1
M  END
>  <filename_input>  (22) 
6ZAE_ACV_docked.sdf

>  <pdb_id>  (22) 
6ZAE_ACV

>  <pose_rank>  (22) 
21

>  <num_atoms_heavy>  (22) 
24

>  <num_torsions>  (22) 
12

>  <pose>  (22) 
[53.91622134659194, 80.46864265028094, 6.822038812660913, 0.9481879541002253, -1.6979345562087682, 4.858604778669767, 2.07102595784867, -0.2017785388580834, 2.4575864675576016, 0.5687684819731943, 3.922133151899324, 6.171388876181284, -1.1388855667376816, -5.152619398122456, 1.6899729171661129, 0.16625561401776584, 5.067814373034283, 3.352761871255883]

>  <energy>  (22) 
-513.3002197812416

>  <inter_energy>  (22) 
-508.03164830487293

>  <intra_energy>  (22) 
4.8710422905449935

>  <rmsd>  (22) 
5.5141

>  <sdf_rank>  (22) 
0

$$$$

     RDKit          3D

 49 48  0  0  0  0  0  0  0  0999 V2000
   51.6281   80.5260   11.6166 C   0  0  0  0  0  0  0  0  0  0  0  0
   51.8648   79.1470   12.2198 C   0  0  2  0  0  0  0  0  0  0  0  0
   52.8038   78.3372   11.3204 C   0  0  0  0  0  0  0  0  0  0  0  0
   52.0848   77.2311   10.5589 C   0  0  0  0  0  0  0  0  0  0  0  0
   52.3826   77.2288    9.0658 C   0  0  0  0  0  0  0  0  0  0  0  0
   53.7498   77.7888    8.7601 C   0  0  0  0  0  0  0  0  0  0  0  0
   53.8494   79.1172    8.8328 N   0  0  0  0  0  0  0  0  0  0  0  0
   53.7437   79.9860    7.6751 C   0  0  2  0  0  0  0  0  0  0  0  0
   52.2740   80.1200    7.2796 C   0  0  0  0  0  0  0  0  0  0  0  0
   50.5699   78.4686   12.4175 N   0  0  0  0  0  0  0  0  0  0  0  0
   54.6979   77.0670    8.4474 O   0  0  0  0  0  0  0  0  0  0  0  0
   54.5024   79.3891    6.5007 C   0  0  0  0  0  0  0  0  0  0  0  0
   55.5852   80.5707    5.6595 S   0  0  0  0  0  0  0  0  0  0  0  0
   51.6983   79.2088    6.6904 O   0  0  0  0  0  0  0  0  0  0  0  0
   52.6940   81.0955   11.1351 O   0  0  0  0  0  0  0  0  0  0  0  0
   50.5195   81.0222   11.5946 O   0  0  0  0  0  0  0  0  0  0  0  0
   51.6797   81.2738    7.5832 N   0  0  0  0  0  0  0  0  0  0  0  0
   50.3556   81.6022    7.0915 C   0  0  1  0  0  0  0  0  0  0  0  0
   49.7278   82.5730    8.0722 C   0  0  0  0  0  0  0  0  0  0  0  0
   50.4005   82.1903    5.6645 C   0  0  1  0  0  0  0  0  0  0  0  0
   49.0078   82.6250    5.2087 C   0  0  0  0  0  0  0  0  0  0  0  0
   51.3895   83.3570    5.5910 C   0  0  0  0  0  0  0  0  0  0  0  0
   50.3982   83.0813    8.9512 O   0  0  0  0  0  0  0  0  0  0  0  0
   48.4580   82.7867    7.8860 O   0  0  0  0  0  0  0  0  0  0  0  0
   52.3508   79.2436   13.2019 H   0  0  0  0  0  0  0  0  0  0  0  0
   53.2687   79.0193   10.5933 H   0  0  0  0  0  0  0  0  0  0  0  0
   53.5527   77.8594   11.9690 H   0  0  0  0  0  0  0  0  0  0  0  0
   52.3949   76.2621   10.9773 H   0  0  0  0  0  0  0  0  0  0  0  0
   51.0053   77.4087   10.6732 H   0  0  0  0  0  0  0  0  0  0  0  0
   52.3319   76.1943    8.6953 H   0  0  0  0  0  0  0  0  0  0  0  0
   51.6361   77.8666    8.5700 H   0  0  0  0  0  0  0  0  0  0  0  0
   53.1108   79.4212    9.4831 H   0  0  0  0  0  0  0  0  0  0  0  0
   54.8409   79.2341    9.0861 H   0  0  0  0  0  0  0  0  0  0  0  0
   54.1678   80.9686    7.9291 H   0  0  0  0  0  0  0  0  0  0  0  0
   50.3838   78.3711   13.4259 H   0  0  0  0  0  0  0  0  0  0  0  0
   49.8206   79.0255   11.9824 H   0  0  0  0  0  0  0  0  0  0  0  0
   50.6011   77.5356   11.9824 H   0  0  0  0  0  0  0  0  0  0  0  0
   55.1183   78.5567    6.8718 H   0  0  0  0  0  0  0  0  0  0  0  0
   53.7523   79.0605    5.7663 H   0  0  0  0  0  0  0  0  0  0  0  0
   56.2639   81.3114    6.5910 H   0  0  0  0  0  0  0  0  0  0  0  0
   52.1739   81.9499    8.1828 H   0  0  0  0  0  0  0  0  0  0  0  0
   49.7481   80.6879    7.0204 H   0  0  0  0  0  0  0  0  0  0  0  0
   50.7490   81.4025    4.9804 H   0  0  0  0  0  0  0  0  0  0  0  0
   48.3785   82.8215    6.0892 H   0  0  0  0  0  0  0  0  0  0  0  0
   49.0890   83.5406    4.6044 H   0  0  0  0  0  0  0  0  0  0  0  0
   48.5537   81.8259    4.6044 H   0  0  0  0  0  0  0  0  0  0  0  0
   51.6585   83.6744    6.6093 H   0  0  0  0  0  0  0  0  0  0  0  0
   52.2953   83.0367    5.0555 H   0  0  0  0  0  0  0  0  0  0  0  0
   50.9250   84.1981    5.0555 H   0  0  0  0  0  0  0  0  0  0  0  0
  1  2  1  0
  1 15  1  0
  1 16  2  0
  2  3  1  0
  2 10  1  0
  3  4  1  0
  4  5  1  0
  5  6  1  0
  6  7  1  0
  6 11  2  0
  7  8  1  0
  8  9  1  0
  8 12  1  0
  9 14  2  0
  9 17  1  0
 12 13  1  0
 18 17  1  0
 18 19  1  0
 18 20  1  0
 19 23  2  0
 19 24  1  0
 20 21  1  0
 20 22  1  0
  2 25  1  1
  3 26  1  0
  3 27  1  0
  4 28  1  0
  4 29  1  0
  5 30  1  0
  5 31  1  0
  7 32  1  0
  7 33  1  0
  8 34  1  1
 10 35  1  0
 10 36  1  0
 10 37  1  0
 12 38  1  0
 12 39  1  0
 13 40  1  0
 17 41  1  0
 18 42  1  6
 20 43  1  6
 21 44  1  0
 21 45  1  0
 21 46  1  0
 22 47  1  0
 22 48  1  0
 22 49  1  0
M  CHG  4   7   1  10   1  15  -1  24  -1
M  END
>  <filename_input>  (23) 
6ZAE_ACV_docked.sdf

>  <pdb_id>  (23) 
6ZAE_ACV

>  <pose_rank>  (23) 
22

>  <num_atoms_heavy>  (23) 
24

>  <num_torsions>  (23) 
12

>  <pose>  (23) 
[53.74369205629462, 79.98598082652745, 7.675066186515421, 4.765564811537688, 0.8493384167771346, 1.8514694251678172, 4.9028399365618816, 0.20177000870321726, 0.2928003583480001, 4.139366687102019, 3.0680889422209727, -28.03800237655941, -67.76657440139962, -37.15556526044413, -8.901636689582073, -19.638977246908095, -5.035128528370877, 0.42405970933304854]

>  <energy>  (23) 
-479.9111466418989

>  <inter_energy>  (23) 
-549.5622386956619

>  <intra_energy>  (23) 
73.25172072452179

>  <rmsd>  (23) 
4.84579

>  <sdf_rank>  (23) 
0

$$$$

     RDKit          3D

 49 48  0  0  0  0  0  0  0  0999 V2000
   56.8815   72.1728    8.3560 C   0  0  0  0  0  0  0  0  0  0  0  0
   56.0939   73.2382    9.1083 C   0  0  2  0  0  0  0  0  0  0  0  0
   56.7353   73.4944   10.4756 C   0  0  0  0  0  0  0  0  0  0  0  0
   58.1706   73.9936   10.3710 C   0  0  0  0  0  0  0  0  0  0  0  0
   58.5376   75.0157   11.4381 C   0  0  0  0  0  0  0  0  0  0  0  0
   57.4413   76.0298   11.6519 C   0  0  0  0  0  0  0  0  0  0  0  0
   57.1703   76.8046   10.6002 N   0  0  0  0  0  0  0  0  0  0  0  0
   56.3372   77.9902   10.6811 C   0  0  2  0  0  0  0  0  0  0  0  0
   55.2141   77.8869    9.6504 C   0  0  0  0  0  0  0  0  0  0  0  0
   54.6864   72.8138    9.2305 N   0  0  0  0  0  0  0  0  0  0  0  0
   56.8548   76.1424   12.7295 O   0  0  0  0  0  0  0  0  0  0  0  0
   57.1591   79.2307   10.3700 C   0  0  0  0  0  0  0  0  0  0  0  0
   58.1185   79.8385   11.7794 S   0  0  0  0  0  0  0  0  0  0  0  0
   54.4503   76.9249    9.6506 O   0  0  0  0  0  0  0  0  0  0  0  0
   56.9136   72.3346    7.0657 O   0  0  0  0  0  0  0  0  0  0  0  0
   57.4310   71.2628    8.9441 O   0  0  0  0  0  0  0  0  0  0  0  0
   55.1371   78.8710    8.7547 N   0  0  0  0  0  0  0  0  0  0  0  0
   54.2484   78.7939    7.6114 C   0  0  1  0  0  0  0  0  0  0  0  0
   52.8825   79.2783    8.0564 C   0  0  0  0  0  0  0  0  0  0  0  0
   54.7768   79.6143    6.4148 C   0  0  1  0  0  0  0  0  0  0  0  0
   55.1044   81.0465    6.8365 C   0  0  0  0  0  0  0  0  0  0  0  0
   55.9984   78.9346    5.7900 C   0  0  0  0  0  0  0  0  0  0  0  0
   52.7820   80.1831    8.8636 O   0  0  0  0  0  0  0  0  0  0  0  0
   51.8809   78.6486    7.5147 O   0  0  0  0  0  0  0  0  0  0  0  0
   56.1153   74.1864    8.5511 H   0  0  0  0  0  0  0  0  0  0  0  0
   56.1385   74.2500   11.0076 H   0  0  0  0  0  0  0  0  0  0  0  0
   56.7568   72.5364   11.0157 H   0  0  0  0  0  0  0  0  0  0  0  0
   58.8469   73.1314   10.4675 H   0  0  0  0  0  0  0  0  0  0  0  0
   58.2689   74.4940    9.3963 H   0  0  0  0  0  0  0  0  0  0  0  0
   58.7232   74.4886   12.3856 H   0  0  0  0  0  0  0  0  0  0  0  0
   59.4354   75.5531   11.0986 H   0  0  0  0  0  0  0  0  0  0  0  0
   58.0816   77.1230   10.2410 H   0  0  0  0  0  0  0  0  0  0  0  0
   56.5810   76.1792   10.0322 H   0  0  0  0  0  0  0  0  0  0  0  0
   55.9243   78.0649   11.6980 H   0  0  0  0  0  0  0  0  0  0  0  0
   54.4359   72.7383   10.2267 H   0  0  0  0  0  0  0  0  0  0  0  0
   54.0775   73.5086    8.7751 H   0  0  0  0  0  0  0  0  0  0  0  0
   54.5631   71.8982    8.7751 H   0  0  0  0  0  0  0  0  0  0  0  0
   57.8556   78.9903    9.5533 H   0  0  0  0  0  0  0  0  0  0  0  0
   56.4504   80.0261   10.0960 H   0  0  0  0  0  0  0  0  0  0  0  0
   57.5110   79.4536   12.9454 H   0  0  0  0  0  0  0  0  0  0  0  0
   55.7242   79.7082    8.8778 H   0  0  0  0  0  0  0  0  0  0  0  0
   54.1862   77.7539    7.2584 H   0  0  0  0  0  0  0  0  0  0  0  0
   53.9837   79.6595    5.6539 H   0  0  0  0  0  0  0  0  0  0  0  0
   55.1192   81.1112    7.9345 H   0  0  0  0  0  0  0  0  0  0  0  0
   56.0904   81.3292    6.4392 H   0  0  0  0  0  0  0  0  0  0  0  0
   54.3394   81.7298    6.4392 H   0  0  0  0  0  0  0  0  0  0  0  0
   56.6607   78.5662    6.5873 H   0  0  0  0  0  0  0  0  0  0  0  0
   55.6694   78.0899    5.1670 H   0  0  0  0  0  0  0  0  0  0  0  0
   56.5427   79.6596    5.1670 H   0  0  0  0  0  0  0  0  0  0  0  0
  1  2  1  0
  1 15  1  0
  1 16  2  0
  2  3  1  0
  2 10  1  0
  3  4  1  0
  4  5  1  0
  5  6  1  0
  6  7  1  0
  6 11  2  0
  7  8  1  0
  8  9  1  0
  8 12  1  0
  9 14  2  0
  9 17  1  0
 12 13  1  0
 18 17  1  0
 18 19  1  0
 18 20  1  0
 19 23  2  0
 19 24  1  0
 20 21  1  0
 20 22  1  0
  2 25  1  6
  3 26  1  0
  3 27  1  0
  4 28  1  0
  4 29  1  0
  5 30  1  0
  5 31  1  0
  7 32  1  0
  7 33  1  0
  8 34  1  1
 10 35  1  0
 10 36  1  0
 10 37  1  0
 12 38  1  0
 12 39  1  0
 13 40  1  0
 17 41  1  0
 18 42  1  6
 20 43  1  6
 21 44  1  0
 21 45  1  0
 21 46  1  0
 22 47  1  0
 22 48  1  0
 22 49  1  0
M  CHG  4   7   1  10   1  15  -1  24  -1
M  END
>  <filename_input>  (24) 
6ZAE_ACV_docked.sdf

>  <pdb_id>  (24) 
6ZAE_ACV

>  <pose_rank>  (24) 
23

>  <num_atoms_heavy>  (24) 
24

>  <num_torsions>  (24) 
12

>  <pose>  (24) 
[56.337177916149855, 77.9902338174606, 10.68110838226264, -2.6794378664556655, 4.8712857917305055, -0.5426798753387487, -5.352477978587272, -0.9954672813913429, 0.733110481144483, 0.01398786235885456, -2.329574394658944, -0.15964649343685391, 0.09723872068521994, 0.7614352897010255, 2.4183006740192345, -0.5421690733063425, -2.108257076678285, -1.3891287517755615]

>  <energy>  (24) 
-484.9658633305895

>  <inter_energy>  (24) 
-498.1982288153976

>  <intra_energy>  (24) 
19.24331960570509

>  <rmsd>  (24) 
4.04345

>  <sdf_rank>  (24) 
0

$$$$

     RDKit          3D

 49 48  0  0  0  0  0  0  0  0999 V2000
   57.1149   72.0412    9.8102 C   0  0  0  0  0  0  0  0  0  0  0  0
   56.6882   72.7202    8.5148 C   0  0  2  0  0  0  0  0  0  0  0  0
   55.4838   73.6307    8.7739 C   0  0  0  0  0  0  0  0  0  0  0  0
   55.3568   74.7493    7.7478 C   0  0  0  0  0  0  0  0  0  0  0  0
   55.4219   76.1430    8.3574 C   0  0  0  0  0  0  0  0  0  0  0  0
   54.3993   76.3315    9.4505 C   0  0  0  0  0  0  0  0  0  0  0  0
   54.3667   77.5490    9.9950 N   0  0  0  0  0  0  0  0  0  0  0  0
   53.1583   78.3481   10.0813 C   0  0  2  0  0  0  0  0  0  0  0  0
   52.8693   78.9716    8.7166 C   0  0  0  0  0  0  0  0  0  0  0  0
   56.3947   71.6945    7.4961 N   0  0  0  0  0  0  0  0  0  0  0  0
   53.6627   75.4167    9.8225 O   0  0  0  0  0  0  0  0  0  0  0  0
   53.3427   79.4701   11.0903 C   0  0  0  0  0  0  0  0  0  0  0  0
   51.8072   80.3347   11.5038 S   0  0  0  0  0  0  0  0  0  0  0  0
   52.0255   78.4819    7.9704 O   0  0  0  0  0  0  0  0  0  0  0  0
   58.0910   72.6326   10.4345 O   0  0  0  0  0  0  0  0  0  0  0  0
   56.5619   71.0343   10.2055 O   0  0  0  0  0  0  0  0  0  0  0  0
   53.5956   80.0390    8.3852 N   0  0  0  0  0  0  0  0  0  0  0  0
   53.5590   80.6013    7.0490 C   0  0  1  0  0  0  0  0  0  0  0  0
   52.9733   81.9958    7.1521 C   0  0  0  0  0  0  0  0  0  0  0  0
   54.9574   80.6226    6.3947 C   0  0  1  0  0  0  0  0  0  0  0  0
   55.9616   79.8238    7.2254 C   0  0  0  0  0  0  0  0  0  0  0  0
   54.8912   80.0938    4.9592 C   0  0  0  0  0  0  0  0  0  0  0  0
   52.5142   82.5458    6.1687 O   0  0  0  0  0  0  0  0  0  0  0  0
   53.0193   82.5165    8.3435 O   0  0  0  0  0  0  0  0  0  0  0  0
   57.5039   73.3527    8.1344 H   0  0  0  0  0  0  0  0  0  0  0  0
   54.5691   73.0204    8.7434 H   0  0  0  0  0  0  0  0  0  0  0  0
   55.6293   74.0996    9.7583 H   0  0  0  0  0  0  0  0  0  0  0  0
   56.1756   74.6489    7.0202 H   0  0  0  0  0  0  0  0  0  0  0  0
   54.3670   74.6472    7.2789 H   0  0  0  0  0  0  0  0  0  0  0  0
   56.4256   76.2992    8.7795 H   0  0  0  0  0  0  0  0  0  0  0  0
   55.2064   76.8715    7.5619 H   0  0  0  0  0  0  0  0  0  0  0  0
   54.7005   77.4352   10.9627 H   0  0  0  0  0  0  0  0  0  0  0  0
   54.9220   78.0907    9.3174 H   0  0  0  0  0  0  0  0  0  0  0  0
   52.3265   77.7004   10.3954 H   0  0  0  0  0  0  0  0  0  0  0  0
   56.1419   70.8110    7.9614 H   0  0  0  0  0  0  0  0  0  0  0  0
   55.6101   72.0094    6.9078 H   0  0  0  0  0  0  0  0  0  0  0  0
   57.2272   71.5467    6.9078 H   0  0  0  0  0  0  0  0  0  0  0  0
   53.7599   79.0420   12.0137 H   0  0  0  0  0  0  0  0  0  0  0  0
   54.0147   80.2096   10.6303 H   0  0  0  0  0  0  0  0  0  0  0  0
   51.6769   80.4080   12.8656 H   0  0  0  0  0  0  0  0  0  0  0  0
   54.1985   80.4759    9.0968 H   0  0  0  0  0  0  0  0  0  0  0  0
   52.9327   79.9733    6.3984 H   0  0  0  0  0  0  0  0  0  0  0  0
   55.3030   81.6663    6.3594 H   0  0  0  0  0  0  0  0  0  0  0  0
   55.7613   79.9831    8.2952 H   0  0  0  0  0  0  0  0  0  0  0  0
   55.8638   78.7539    6.9894 H   0  0  0  0  0  0  0  0  0  0  0  0
   56.9821   80.1596    6.9894 H   0  0  0  0  0  0  0  0  0  0  0  0
   54.7546   79.0024    4.9764 H   0  0  0  0  0  0  0  0  0  0  0  0
   54.0446   80.5611    4.4349 H   0  0  0  0  0  0  0  0  0  0  0  0
   55.8269   80.3380    4.4349 H   0  0  0  0  0  0  0  0  0  0  0  0
  1  2  1  0
  1 15  1  0
  1 16  2  0
  2  3  1  0
  2 10  1  0
  3  4  1  0
  4  5  1  0
  5  6  1  0
  6  7  1  0
  6 11  2  0
  7  8  1  0
  8  9  1  0
  8 12  1  0
  9 14  2  0
  9 17  1  0
 12 13  1  0
 18 17  1  0
 18 19  1  0
 18 20  1  0
 19 23  2  0
 19 24  1  0
 20 21  1  0
 20 22  1  0
  2 25  1  6
  3 26  1  0
  3 27  1  0
  4 28  1  0
  4 29  1  0
  5 30  1  0
  5 31  1  0
  7 32  1  0
  7 33  1  0
  8 34  1  1
 10 35  1  0
 10 36  1  0
 10 37  1  0
 12 38  1  0
 12 39  1  0
 13 40  1  0
 17 41  1  0
 18 42  1  6
 20 43  1  6
 21 44  1  0
 21 45  1  0
 21 46  1  0
 22 47  1  0
 22 48  1  0
 22 49  1  0
M  CHG  4   7   1  10   1  15  -1  24  -1
M  END
>  <filename_input>  (25) 
6ZAE_ACV_docked.sdf

>  <pdb_id>  (25) 
6ZAE_ACV

>  <pose_rank>  (25) 
24

>  <num_atoms_heavy>  (25) 
24

>  <num_torsions>  (25) 
12

>  <pose>  (25) 
[53.15829750627785, 78.3480897955894, 10.081268808751432, -2.997567183337584, 3.3897198024526363, -0.6592171865613166, -4.580425051452629, 5.818871043630289, 3.5847780552243322, 1.0989239627655378, -3.857808156630454, 6.961073699208082, 5.227069321012132, 5.0569010480196255, 2.2076831601288136, 1.1318091093918432, 5.837384228552439, -0.5175728910536429]

>  <energy>  (25) 
-497.9230722467413

>  <inter_energy>  (25) 
-521.392406792423

>  <intra_energy>  (25) 
24.6451894052594

>  <rmsd>  (25) 
3.40991

>  <sdf_rank>  (25) 
0

$$$$

     RDKit          3D

 49 48  0  0  0  0  0  0  0  0999 V2000
   56.5770   72.1350    8.8260 C   0  0  0  0  0  0  0  0  0  0  0  0
   55.7930   73.3780    9.2280 C   0  0  2  0  0  0  0  0  0  0  0  0
   56.3690   74.6100    8.5230 C   0  0  0  0  0  0  0  0  0  0  0  0
   55.6540   75.8990    8.9070 C   0  0  0  0  0  0  0  0  0  0  0  0
   56.2880   77.1470    8.3080 C   0  0  0  0  0  0  0  0  0  0  0  0
   55.5360   78.4000    8.6830 C   0  0  0  0  0  0  0  0  0  0  0  0
   54.8270   78.9540    7.6980 N   0  0  0  0  0  0  0  0  0  0  0  0
   54.1480   80.2300    7.8290 C   0  0  2  0  0  0  0  0  0  0  0  0
   52.6420   80.0150    7.6870 C   0  0  0  0  0  0  0  0  0  0  0  0
   55.8180   73.5210   10.6960 N   0  0  0  0  0  0  0  0  0  0  0  0
   55.5920   78.8830    9.8150 O   0  0  0  0  0  0  0  0  0  0  0  0
   54.6010   81.1800    6.7320 C   0  0  0  0  0  0  0  0  0  0  0  0
   54.4810   80.4780    5.0680 S   0  0  0  0  0  0  0  0  0  0  0  0
   52.1810   78.8850    7.5480 O   0  0  0  0  0  0  0  0  0  0  0  0
   56.4480   71.7950    7.5770 O   0  0  0  0  0  0  0  0  0  0  0  0
   57.2650   71.5370    9.6290 O   0  0  0  0  0  0  0  0  0  0  0  0
   51.8820   81.1100    7.6950 N   0  0  0  0  0  0  0  0  0  0  0  0
   50.4690   81.0600    7.3730 C   0  0  1  0  0  0  0  0  0  0  0  0
   49.7530   82.0320    8.2900 C   0  0  0  0  0  0  0  0  0  0  0  0
   50.2050   81.3860    5.8870 C   0  0  1  0  0  0  0  0  0  0  0  0
   50.8580   82.7110    5.4940 C   0  0  0  0  0  0  0  0  0  0  0  0
   50.6940   80.2470    4.9880 C   0  0  0  0  0  0  0  0  0  0  0  0
   50.3570   82.5960    9.1830 O   0  0  0  0  0  0  0  0  0  0  0  0
   48.4860   82.1840    8.0360 O   0  0  0  0  0  0  0  0  0  0  0  0
   54.7433   73.2793    8.9144 H   0  0  0  0  0  0  0  0  0  0  0  0
   57.4314   74.7040    8.7920 H   0  0  0  0  0  0  0  0  0  0  0  0
   56.2328   74.4659    7.4410 H   0  0  0  0  0  0  0  0  0  0  0  0
   54.6124   75.8363    8.5589 H   0  0  0  0  0  0  0  0  0  0  0  0
   55.7235   75.9940   10.0007 H   0  0  0  0  0  0  0  0  0  0  0  0
   57.3219   77.2306    8.6742 H   0  0  0  0  0  0  0  0  0  0  0  0
   56.2599   77.0495    7.2127 H   0  0  0  0  0  0  0  0  0  0  0  0
   55.4771   79.0594    6.9060 H   0  0  0  0  0  0  0  0  0  0  0  0
   54.0303   78.3047    7.6295 H   0  0  0  0  0  0  0  0  0  0  0  0
   54.3871   80.6596    8.8130 H   0  0  0  0  0  0  0  0  0  0  0  0
   55.6574   72.6023   11.1332 H   0  0  0  0  0  0  0  0  0  0  0  0
   56.7355   73.8854   10.9899 H   0  0  0  0  0  0  0  0  0  0  0  0
   55.0786   74.1751   10.9899 H   0  0  0  0  0  0  0  0  0  0  0  0
   53.9747   82.0833    6.7741 H   0  0  0  0  0  0  0  0  0  0  0  0
   55.6638   81.3981    6.9136 H   0  0  0  0  0  0  0  0  0  0  0  0
   54.2506   79.1304    5.1564 H   0  0  0  0  0  0  0  0  0  0  0  0
   52.3096   82.0155    7.9362 H   0  0  0  0  0  0  0  0  0  0  0  0
   50.0880   80.0399    7.5288 H   0  0  0  0  0  0  0  0  0  0  0  0
   49.1189   81.4903    5.7471 H   0  0  0  0  0  0  0  0  0  0  0  0
   51.1325   83.2680    6.4020 H   0  0  0  0  0  0  0  0  0  0  0  0
   51.7613   82.5122    4.8986 H   0  0  0  0  0  0  0  0  0  0  0  0
   50.1501   83.3063    4.8986 H   0  0  0  0  0  0  0  0  0  0  0  0
   51.0513   79.4148    5.6123 H   0  0  0  0  0  0  0  0  0  0  0  0
   49.8657   79.8997    4.3530 H   0  0  0  0  0  0  0  0  0  0  0  0
   51.5163   80.6083    4.3530 H   0  0  0  0  0  0  0  0  0  0  0  0
  1  2  1  0
  1 15  1  0
  1 16  2  0
  2  3  1  0
  2 10  1  0
  3  4  1  0
  4  5  1  0
  5  6  1  0
  6  7  1  0
  6 11  2  0
  7  8  1  0
  8  9  1  0
  8 12  1  0
  9 14  2  0
  9 17  1  0
 12 13  1  0
 18 17  1  0
 18 19  1  0
 18 20  1  0
 19 23  2  0
 19 24  1  0
 20 21  1  0
 20 22  1  0
  2 25  1  6
  3 26  1  0
  3 27  1  0
  4 28  1  0
  4 29  1  0
  5 30  1  0
  5 31  1  0
  7 32  1  0
  7 33  1  0
  8 34  1  1
 10 35  1  0
 10 36  1  0
 10 37  1  0
 12 38  1  0
 12 39  1  0
 13 40  1  0
 17 41  1  0
 18 42  1  1
 20 43  1  1
 21 44  1  0
 21 45  1  0
 21 46  1  0
 22 47  1  0
 22 48  1  0
 22 49  1  0
M  CHG  4   7   1  10   1  15  -1  24  -1
M  END
>  <filename_input>  (26) 
6ZAE_ACV_docked.sdf

>  <pdb_id>  (26) 
6ZAE_ACV

>  <pose_rank>  (26) 
25

>  <num_atoms_heavy>  (26) 
24

>  <num_torsions>  (26) 
12

>  <pose>  (26) 
[54.148, 80.23, 7.829, 1e-06, 1e-06, 1e-06, 0.0, 0.0, 0.0, 0.0, 0.0, 0.0, 0.0, 0.0, 0.0, 0.0, 0.0, 0.0]

>  <energy>  (26) 
-685.9912433703056

>  <inter_energy>  (26) 
-705.8846438652348

>  <intra_energy>  (26) 
10.57210587560814

>  <rmsd>  (26) 
0.0

>  <sdf_rank>  (26) 
0

$$$$
