
     RDKit          3D

 22 22  0  0  0  0  0  0  0  0999 V2000
  -18.5064   36.7857    1.6937 C   0  0  0  0  0  0  0  0  0  0  0  0
  -18.1227   36.0622    3.2748 S   0  0  2  0  0  0  0  0  0  0  0  0
  -16.8525   36.6589    3.8005 O   0  0  0  0  0  0  0  0  0  0  0  0
  -17.9556   34.5806    3.1151 O   0  0  0  0  0  0  0  0  0  0  0  0
  -19.3392   36.3644    4.3200 N   0  0  0  0  0  0  0  0  0  0  0  0
  -20.2681   35.4402    4.5556 C   0  0  0  0  0  0  0  0  0  0  0  0
  -21.2529   35.1863    3.6065 C   0  0  0  0  0  0  0  0  0  0  0  0
  -22.2276   34.2247    3.8511 C   0  0  0  0  0  0  0  0  0  0  0  0
  -22.2272   33.5235    5.0519 C   0  0  0  0  0  0  0  0  0  0  0  0
  -23.1684   32.5923    5.2986 F   0  0  0  0  0  0  0  0  0  0  0  0
  -21.2483   33.7811    6.0018 C   0  0  0  0  0  0  0  0  0  0  0  0
  -20.2729   34.7407    5.7585 C   0  0  0  0  0  0  0  0  0  0  0  0
  -19.2102   35.0081    6.8221 C   0  0  0  0  0  0  0  0  0  0  0  0
  -19.0494   36.1861    7.2085 O   0  0  0  0  0  0  0  0  0  0  0  0
  -18.5873   34.0225    7.2736 O   0  0  0  0  0  0  0  0  0  0  0  0
  -19.0170   37.7481    1.8451 H   0  0  0  0  0  0  0  0  0  0  0  0
  -17.5763   36.9488    1.1296 H   0  0  0  0  0  0  0  0  0  0  0  0
  -19.1631   36.1070    1.1296 H   0  0  0  0  0  0  0  0  0  0  0  0
  -19.3886   37.2745    4.7997 H   0  0  0  0  0  0  0  0  0  0  0  0
  -21.2608   35.7473    2.6604 H   0  0  0  0  0  0  0  0  0  0  0  0
  -22.9990   34.0188    3.0945 H   0  0  0  0  0  0  0  0  0  0  0  0
  -21.2446   33.2238    6.9502 H   0  0  0  0  0  0  0  0  0  0  0  0
  2  1  1  0
  2  3  2  0
  2  4  2  0
  2  5  1  1
  5  6  1  0
  6  7  2  0
  6 12  1  0
  7  8  1  0
  8  9  2  0
  9 10  1  0
  9 11  1  0
 11 12  2  0
 12 13  1  0
 13 14  2  0
 13 15  1  0
  1 16  1  0
  1 17  1  0
  1 18  1  0
  5 19  1  0
  7 20  1  0
  8 21  1  0
 11 22  1  0
M  CHG  1  15  -1
M  END
>  <filename_input>  (1) 
6ZC3_JOR_docked.sdf

>  <pdb_id>  (1) 
6ZC3_JOR

>  <pose_rank>  (1) 
0

>  <num_atoms_heavy>  (1) 
15

>  <num_torsions>  (1) 
3

>  <pose>  (1) 
[-20.268067579620404, 35.44024190364271, 4.555582865995045, 2.795848945991314, 4.7184523570716825, 2.6536302908000633, 0.47793402458377304, -0.029000036972509968, 9.110664393678173]

>  <energy>  (1) 
-632.5074600599494

>  <inter_energy>  (1) 
-629.1259557907672

>  <intra_energy>  (1) 
12.34032512055646

>  <rmsd>  (1) 
1.13481

>  <sdf_rank>  (1) 
0

$$$$

     RDKit          3D

 22 22  0  0  0  0  0  0  0  0999 V2000
  -23.0012   32.8356    5.9415 C   0  0  0  0  0  0  0  0  0  0  0  0
  -21.8882   33.4862    4.7132 S   0  0  2  0  0  0  0  0  0  0  0  0
  -22.5752   33.5107    3.3816 O   0  0  0  0  0  0  0  0  0  0  0  0
  -20.6699   32.6153    4.6364 O   0  0  0  0  0  0  0  0  0  0  0  0
  -21.4492   35.0028    5.1269 N   0  0  0  0  0  0  0  0  0  0  0  0
  -20.4980   35.6369    4.4447 C   0  0  0  0  0  0  0  0  0  0  0  0
  -20.6982   35.9568    3.1058 C   0  0  0  0  0  0  0  0  0  0  0  0
  -19.7048   36.6152    2.3886 C   0  0  0  0  0  0  0  0  0  0  0  0
  -18.5029   36.9438    3.0059 C   0  0  0  0  0  0  0  0  0  0  0  0
  -17.5344   37.5792    2.3188 F   0  0  0  0  0  0  0  0  0  0  0  0
  -18.3004   36.6192    4.3403 C   0  0  0  0  0  0  0  0  0  0  0  0
  -19.2924   35.9624    5.0586 C   0  0  0  0  0  0  0  0  0  0  0  0
  -19.0424   35.6126    6.5240 C   0  0  0  0  0  0  0  0  0  0  0  0
  -19.1582   36.5228    7.3731 O   0  0  0  0  0  0  0  0  0  0  0  0
  -18.7729   34.4217    6.7933 O   0  0  0  0  0  0  0  0  0  0  0  0
  -22.6127   33.0627    6.9453 H   0  0  0  0  0  0  0  0  0  0  0  0
  -23.9924   33.2965    5.8190 H   0  0  0  0  0  0  0  0  0  0  0  0
  -23.0859   31.7458    5.8190 H   0  0  0  0  0  0  0  0  0  0  0  0
  -21.9104   35.4716    5.9197 H   0  0  0  0  0  0  0  0  0  0  0  0
  -21.6443   35.6884    2.6130 H   0  0  0  0  0  0  0  0  0  0  0  0
  -19.8700   36.8760    1.3328 H   0  0  0  0  0  0  0  0  0  0  0  0
  -17.3517   36.8827    4.8307 H   0  0  0  0  0  0  0  0  0  0  0  0
  2  1  1  0
  2  3  2  0
  2  4  2  0
  2  5  1  1
  5  6  1  0
  6  7  2  0
  6 12  1  0
  7  8  1  0
  8  9  2  0
  9 10  1  0
  9 11  1  0
 11 12  2  0
 12 13  1  0
 13 14  2  0
 13 15  1  0
  1 16  1  0
  1 17  1  0
  1 18  1  0
  5 19  1  0
  7 20  1  0
  8 21  1  0
 11 22  1  0
M  CHG  1  15  -1
M  END
>  <filename_input>  (2) 
6ZC3_JOR_docked.sdf

>  <pdb_id>  (2) 
6ZC3_JOR

>  <pose_rank>  (2) 
1

>  <num_atoms_heavy>  (2) 
15

>  <num_torsions>  (2) 
3

>  <pose>  (2) 
[-20.498014778040638, 35.63690476938117, 4.444702066774184, -1.9567323811585549, 0.37897719461592344, -2.9334110805220037, -2.231211850326185, 2.403667043139729, -2.173166920861993]

>  <energy>  (2) 
-560.5371253316487

>  <inter_energy>  (2) 
-556.1163150100715

>  <intra_energy>  (2) 
10.231177005962728

>  <rmsd>  (2) 
4.22698

>  <sdf_rank>  (2) 
0

$$$$

     RDKit          3D

 22 22  0  0  0  0  0  0  0  0999 V2000
  -17.2450   37.4902    3.7923 C   0  0  0  0  0  0  0  0  0  0  0  0
  -18.8058   36.7798    3.3128 S   0  0  2  0  0  0  0  0  0  0  0  0
  -19.0014   36.9568    1.8376 O   0  0  0  0  0  0  0  0  0  0  0  0
  -19.9128   37.4675    4.0545 O   0  0  0  0  0  0  0  0  0  0  0  0
  -18.8125   35.1885    3.6755 N   0  0  0  0  0  0  0  0  0  0  0  0
  -19.9221   34.6063    4.1251 C   0  0  0  0  0  0  0  0  0  0  0  0
  -21.0113   34.4365    3.2765 C   0  0  0  0  0  0  0  0  0  0  0  0
  -22.1738   33.8328    3.7440 C   0  0  0  0  0  0  0  0  0  0  0  0
  -22.2544   33.4089    5.0659 C   0  0  0  0  0  0  0  0  0  0  0  0
  -23.3769   32.8255    5.5280 F   0  0  0  0  0  0  0  0  0  0  0  0
  -21.1700   33.5838    5.9146 C   0  0  0  0  0  0  0  0  0  0  0  0
  -20.0072   34.1858    5.4488 C   0  0  0  0  0  0  0  0  0  0  0  0
  -18.8304   34.3706    6.4045 C   0  0  0  0  0  0  0  0  0  0  0  0
  -18.1377   33.3681    6.6836 O   0  0  0  0  0  0  0  0  0  0  0  0
  -18.6052   35.5271    6.8229 O   0  0  0  0  0  0  0  0  0  0  0  0
  -17.1778   37.5208    4.8898 H   0  0  0  0  0  0  0  0  0  0  0  0
  -16.4245   36.8770    3.3916 H   0  0  0  0  0  0  0  0  0  0  0  0
  -17.1687   38.5118    3.3916 H   0  0  0  0  0  0  0  0  0  0  0  0
  -17.9540   34.6320    3.5560 H   0  0  0  0  0  0  0  0  0  0  0  0
  -20.9529   34.7805    2.2333 H   0  0  0  0  0  0  0  0  0  0  0  0
  -23.0297   33.6906    3.0678 H   0  0  0  0  0  0  0  0  0  0  0  0
  -21.2313   33.2449    6.9593 H   0  0  0  0  0  0  0  0  0  0  0  0
  2  1  1  0
  2  3  2  0
  2  4  2  0
  2  5  1  6
  5  6  1  0
  6  7  2  0
  6 12  1  0
  7  8  1  0
  8  9  2  0
  9 10  1  0
  9 11  1  0
 11 12  2  0
 12 13  1  0
 13 14  2  0
 13 15  1  0
  1 16  1  0
  1 17  1  0
  1 18  1  0
  5 19  1  0
  7 20  1  0
  8 21  1  0
 11 22  1  0
M  CHG  1  15  -1
M  END
>  <filename_input>  (3) 
6ZC3_JOR_docked.sdf

>  <pdb_id>  (3) 
6ZC3_JOR

>  <pose_rank>  (3) 
2

>  <num_atoms_heavy>  (3) 
15

>  <num_torsions>  (3) 
3

>  <pose>  (3) 
[-19.922115123896774, 34.606295395491024, 4.125068066043746, -0.3176506345223831, -0.09046823439793432, -0.32634449274731714, 10.293060483487528, 2.4846630008605453, 3.595523478645659]

>  <energy>  (3) 
-518.743093864973

>  <inter_energy>  (3) 
-528.889232646287

>  <intra_energy>  (3) 
5.81191388989347

>  <rmsd>  (3) 
1.24334

>  <sdf_rank>  (3) 
0

$$$$

     RDKit          3D

 22 22  0  0  0  0  0  0  0  0999 V2000
  -18.4644   38.0155    3.5174 C   0  0  0  0  0  0  0  0  0  0  0  0
  -18.4008   36.2906    3.9548 S   0  0  2  0  0  0  0  0  0  0  0  0
  -18.5429   36.1478    5.4398 O   0  0  0  0  0  0  0  0  0  0  0  0
  -17.0873   35.7155    3.5161 O   0  0  0  0  0  0  0  0  0  0  0  0
  -19.6188   35.4969    3.2129 N   0  0  0  0  0  0  0  0  0  0  0  0
  -20.5495   34.8719    3.9309 C   0  0  0  0  0  0  0  0  0  0  0  0
  -21.5904   35.5967    4.5022 C   0  0  0  0  0  0  0  0  0  0  0  0
  -22.5620   34.9477    5.2568 C   0  0  0  0  0  0  0  0  0  0  0  0
  -22.4875   33.5730    5.4526 C   0  0  0  0  0  0  0  0  0  0  0  0
  -23.4224   32.9364    6.1837 F   0  0  0  0  0  0  0  0  0  0  0  0
  -21.4455   32.8503    4.8878 C   0  0  0  0  0  0  0  0  0  0  0  0
  -20.4745   33.4971    4.1326 C   0  0  0  0  0  0  0  0  0  0  0  0
  -19.3361   32.6794    3.5263 C   0  0  0  0  0  0  0  0  0  0  0  0
  -19.5076   32.1860    2.3906 O   0  0  0  0  0  0  0  0  0  0  0  0
  -18.2802   32.5836    4.1890 O   0  0  0  0  0  0  0  0  0  0  0  0
  -18.4868   38.6253    4.4327 H   0  0  0  0  0  0  0  0  0  0  0  0
  -17.5752   38.2764    2.9247 H   0  0  0  0  0  0  0  0  0  0  0  0
  -19.3703   38.2103    2.9247 H   0  0  0  0  0  0  0  0  0  0  0  0
  -19.6676   35.4795    2.1842 H   0  0  0  0  0  0  0  0  0  0  0  0
  -21.6451   36.6857    4.3569 H   0  0  0  0  0  0  0  0  0  0  0  0
  -23.3895   35.5220    5.6987 H   0  0  0  0  0  0  0  0  0  0  0  0
  -21.3882   31.7622    5.0386 H   0  0  0  0  0  0  0  0  0  0  0  0
  2  1  1  0
  2  3  2  0
  2  4  2  0
  2  5  1  6
  5  6  1  0
  6  7  2  0
  6 12  1  0
  7  8  1  0
  8  9  2  0
  9 10  1  0
  9 11  1  0
 11 12  2  0
 12 13  1  0
 13 14  2  0
 13 15  1  0
  1 16  1  0
  1 17  1  0
  1 18  1  0
  5 19  1  0
  7 20  1  0
  8 21  1  0
 11 22  1  0
M  CHG  1  15  -1
M  END
>  <filename_input>  (4) 
6ZC3_JOR_docked.sdf

>  <pdb_id>  (4) 
6ZC3_JOR

>  <pose_rank>  (4) 
3

>  <num_atoms_heavy>  (4) 
15

>  <num_torsions>  (4) 
3

>  <pose>  (4) 
[-20.549494170100708, 34.871895805675095, 3.930884580493497, -2.1393623468294383, -3.5917432131870313, 2.6354853457156544, -2.046838508741786, 2.667767667043185, -0.9687686485715917]

>  <energy>  (4) 
-515.1149389597443

>  <inter_energy>  (4) 
-498.8793871488786

>  <intra_energy>  (4) 
5.644087203417963

>  <rmsd>  (4) 
2.67965

>  <sdf_rank>  (4) 
0

$$$$

     RDKit          3D

 22 22  0  0  0  0  0  0  0  0999 V2000
  -17.4999   37.1246    1.2236 C   0  0  0  0  0  0  0  0  0  0  0  0
  -18.1179   37.3599    2.8769 S   0  0  2  0  0  0  0  0  0  0  0  0
  -19.4551   38.0337    2.8176 O   0  0  0  0  0  0  0  0  0  0  0  0
  -17.1567   38.2135    3.6490 O   0  0  0  0  0  0  0  0  0  0  0  0
  -18.2711   35.9102    3.6109 N   0  0  0  0  0  0  0  0  0  0  0  0
  -19.4613   35.4971    4.0410 C   0  0  0  0  0  0  0  0  0  0  0  0
  -20.4475   35.1441    3.1256 C   0  0  0  0  0  0  0  0  0  0  0  0
  -21.6937   34.7164    3.5713 C   0  0  0  0  0  0  0  0  0  0  0  0
  -21.9609   34.6532    4.9344 C   0  0  0  0  0  0  0  0  0  0  0  0
  -23.1655   34.2426    5.3752 F   0  0  0  0  0  0  0  0  0  0  0  0
  -20.9791   35.0114    5.8481 C   0  0  0  0  0  0  0  0  0  0  0  0
  -19.7330   35.4378    5.4045 C   0  0  0  0  0  0  0  0  0  0  0  0
  -18.6721   35.8306    6.4304 C   0  0  0  0  0  0  0  0  0  0  0  0
  -18.0333   34.9158    6.9941 O   0  0  0  0  0  0  0  0  0  0  0  0
  -18.4777   37.0513    6.6183 O   0  0  0  0  0  0  0  0  0  0  0  0
  -16.4728   36.7335    1.2683 H   0  0  0  0  0  0  0  0  0  0  0  0
  -18.1422   36.4082    0.6906 H   0  0  0  0  0  0  0  0  0  0  0  0
  -17.5030   38.0868    0.6906 H   0  0  0  0  0  0  0  0  0  0  0  0
  -17.4429   35.3121    3.7420 H   0  0  0  0  0  0  0  0  0  0  0  0
  -20.2413   35.2033    2.0467 H   0  0  0  0  0  0  0  0  0  0  0  0
  -22.4681   34.4281    2.8452 H   0  0  0  0  0  0  0  0  0  0  0  0
  -21.1881   34.9575    6.9267 H   0  0  0  0  0  0  0  0  0  0  0  0
  2  1  1  0
  2  3  2  0
  2  4  2  0
  2  5  1  1
  5  6  1  0
  6  7  2  0
  6 12  1  0
  7  8  1  0
  8  9  2  0
  9 10  1  0
  9 11  1  0
 11 12  2  0
 12 13  1  0
 13 14  2  0
 13 15  1  0
  1 16  1  0
  1 17  1  0
  1 18  1  0
  5 19  1  0
  7 20  1  0
  8 21  1  0
 11 22  1  0
M  CHG  1  15  -1
M  END
>  <filename_input>  (5) 
6ZC3_JOR_docked.sdf

>  <pdb_id>  (5) 
6ZC3_JOR

>  <pose_rank>  (5) 
4

>  <num_atoms_heavy>  (5) 
15

>  <num_torsions>  (5) 
3

>  <pose>  (5) 
[-19.46131740174176, 35.4971396362619, 4.041005601133906, -0.5573803673006306, -0.2545966174783781, -0.38169602509809175, 4.0739334045511395, -10.068314882412208, 5.304680681721595]

>  <energy>  (5) 
-551.0555222423876

>  <inter_energy>  (5) 
-553.8004106653642

>  <intra_energy>  (5) 
10.701610836081652

>  <rmsd>  (5) 
1.54897

>  <sdf_rank>  (5) 
0

$$$$

     RDKit          3D

 22 22  0  0  0  0  0  0  0  0999 V2000
  -17.4589   30.4786    5.4617 C   0  0  0  0  0  0  0  0  0  0  0  0
  -18.5600   31.5616    4.5755 S   0  0  2  0  0  0  0  0  0  0  0  0
  -19.5275   30.7427    3.7761 O   0  0  0  0  0  0  0  0  0  0  0  0
  -17.7615   32.4378    3.6572 O   0  0  0  0  0  0  0  0  0  0  0  0
  -19.3807   32.4896    5.6381 N   0  0  0  0  0  0  0  0  0  0  0  0
  -20.2400   33.4090    5.2037 C   0  0  0  0  0  0  0  0  0  0  0  0
  -21.1978   33.0717    4.2529 C   0  0  0  0  0  0  0  0  0  0  0  0
  -22.0943   34.0308    3.7935 C   0  0  0  0  0  0  0  0  0  0  0  0
  -22.0264   35.3336    4.2747 C   0  0  0  0  0  0  0  0  0  0  0  0
  -22.8887   36.2696    3.8338 F   0  0  0  0  0  0  0  0  0  0  0  0
  -21.0667   35.6721    5.2188 C   0  0  0  0  0  0  0  0  0  0  0  0
  -20.1710   34.7147    5.6799 C   0  0  0  0  0  0  0  0  0  0  0  0
  -19.1219   35.1144    6.7152 C   0  0  0  0  0  0  0  0  0  0  0  0
  -18.5243   36.2009    6.5565 O   0  0  0  0  0  0  0  0  0  0  0  0
  -18.9495   34.3454    7.6860 O   0  0  0  0  0  0  0  0  0  0  0  0
  -17.6002   30.6175    6.5437 H   0  0  0  0  0  0  0  0  0  0  0  0
  -17.6780   29.4343    5.1944 H   0  0  0  0  0  0  0  0  0  0  0  0
  -16.4184   30.7149    5.1944 H   0  0  0  0  0  0  0  0  0  0  0  0
  -19.2331   32.3634    6.6496 H   0  0  0  0  0  0  0  0  0  0  0  0
  -21.2463   32.0441    3.8636 H   0  0  0  0  0  0  0  0  0  0  0  0
  -22.8572   33.7586    3.0492 H   0  0  0  0  0  0  0  0  0  0  0  0
  -21.0150   36.7014    5.6033 H   0  0  0  0  0  0  0  0  0  0  0  0
  2  1  1  0
  2  3  2  0
  2  4  2  0
  2  5  1  1
  5  6  1  0
  6  7  2  0
  6 12  1  0
  7  8  1  0
  8  9  2  0
  9 10  1  0
  9 11  1  0
 11 12  2  0
 12 13  1  0
 13 14  2  0
 13 15  1  0
  1 16  1  0
  1 17  1  0
  1 18  1  0
  5 19  1  0
  7 20  1  0
  8 21  1  0
 11 22  1  0
M  CHG  1  15  -1
M  END
>  <filename_input>  (6) 
6ZC3_JOR_docked.sdf

>  <pdb_id>  (6) 
6ZC3_JOR

>  <pose_rank>  (6) 
5

>  <num_atoms_heavy>  (6) 
15

>  <num_torsions>  (6) 
3

>  <pose>  (6) 
[-20.239997408405817, 33.40899918023734, 5.203716132415321, -1.6714629718731118, -0.5584748783980289, -1.4020381002156996, -4.352952230118697, -4.148093097004218, -2.067698761893054]

>  <energy>  (6) 
-477.530083745429

>  <inter_energy>  (6) 
-512.8600525704597

>  <intra_energy>  (6) 
29.383059963237773

>  <rmsd>  (6) 
3.40665

>  <sdf_rank>  (6) 
0

$$$$

     RDKit          3D

 22 22  0  0  0  0  0  0  0  0999 V2000
  -22.7280   34.5679    3.8231 C   0  0  0  0  0  0  0  0  0  0  0  0
  -21.8445   33.0261    3.7110 S   0  0  2  0  0  0  0  0  0  0  0  0
  -22.3953   32.2178    2.5756 O   0  0  0  0  0  0  0  0  0  0  0  0
  -22.0051   32.2677    4.9946 O   0  0  0  0  0  0  0  0  0  0  0  0
  -20.2616   33.3250    3.4484 N   0  0  0  0  0  0  0  0  0  0  0  0
  -19.3338   32.4932    3.9172 C   0  0  0  0  0  0  0  0  0  0  0  0
  -19.3211   31.1637    3.5082 C   0  0  0  0  0  0  0  0  0  0  0  0
  -18.3561   30.2907    3.9994 C   0  0  0  0  0  0  0  0  0  0  0  0
  -17.4087   30.7428    4.9114 C   0  0  0  0  0  0  0  0  0  0  0  0
  -16.4719   29.9042    5.3941 F   0  0  0  0  0  0  0  0  0  0  0  0
  -17.4249   32.0679    5.3244 C   0  0  0  0  0  0  0  0  0  0  0  0
  -18.3877   32.9418    4.8337 C   0  0  0  0  0  0  0  0  0  0  0  0
  -18.3862   34.3934    5.3080 C   0  0  0  0  0  0  0  0  0  0  0  0
  -18.7048   34.6239    6.4947 O   0  0  0  0  0  0  0  0  0  0  0  0
  -18.0273   35.2662    4.4878 O   0  0  0  0  0  0  0  0  0  0  0  0
  -22.8775   34.8288    4.8812 H   0  0  0  0  0  0  0  0  0  0  0  0
  -22.1469   35.3603    3.3286 H   0  0  0  0  0  0  0  0  0  0  0  0
  -23.7055   34.4672    3.3286 H   0  0  0  0  0  0  0  0  0  0  0  0
  -19.9791   34.1612    2.9175 H   0  0  0  0  0  0  0  0  0  0  0  0
  -20.0761   30.8018    2.7948 H   0  0  0  0  0  0  0  0  0  0  0  0
  -18.3423   29.2425    3.6663 H   0  0  0  0  0  0  0  0  0  0  0  0
  -16.6732   32.4275    6.0425 H   0  0  0  0  0  0  0  0  0  0  0  0
  2  1  1  0
  2  3  2  0
  2  4  2  0
  2  5  1  6
  5  6  1  0
  6  7  2  0
  6 12  1  0
  7  8  1  0
  8  9  2  0
  9 10  1  0
  9 11  1  0
 11 12  2  0
 12 13  1  0
 13 14  2  0
 13 15  1  0
  1 16  1  0
  1 17  1  0
  1 18  1  0
  5 19  1  0
  7 20  1  0
  8 21  1  0
 11 22  1  0
M  CHG  1  15  -1
M  END
>  <filename_input>  (7) 
6ZC3_JOR_docked.sdf

>  <pdb_id>  (7) 
6ZC3_JOR

>  <pose_rank>  (7) 
6

>  <num_atoms_heavy>  (7) 
15

>  <num_torsions>  (7) 
3

>  <pose>  (7) 
[-19.333804500559243, 32.493219127696, 3.917190587397718, 0.6301506157619792, -1.131364137653087, -4.654687873778648, 1.474003690945669, 2.328308236515861, -2.5775392151566203]

>  <energy>  (7) 
-305.53734893706724

>  <inter_energy>  (7) 
-315.65957270098465

>  <intra_energy>  (7) 
8.846038764073228

>  <rmsd>  (7) 
4.67975

>  <sdf_rank>  (7) 
0

$$$$

     RDKit          3D

 22 22  0  0  0  0  0  0  0  0999 V2000
  -23.0425   31.7019    4.2560 C   0  0  0  0  0  0  0  0  0  0  0  0
  -22.6807   33.4095    3.9039 S   0  0  2  0  0  0  0  0  0  0  0  0
  -23.8772   34.2500    4.2320 O   0  0  0  0  0  0  0  0  0  0  0  0
  -22.3448   33.5558    2.4498 O   0  0  0  0  0  0  0  0  0  0  0  0
  -21.4112   33.8934    4.8084 N   0  0  0  0  0  0  0  0  0  0  0  0
  -20.5433   34.7812    4.3280 C   0  0  0  0  0  0  0  0  0  0  0  0
  -20.8292   36.1408    4.3967 C   0  0  0  0  0  0  0  0  0  0  0  0
  -19.9269   37.0710    3.8917 C   0  0  0  0  0  0  0  0  0  0  0  0
  -18.7414   36.6425    3.3046 C   0  0  0  0  0  0  0  0  0  0  0  0
  -17.8628   37.5359    2.8108 F   0  0  0  0  0  0  0  0  0  0  0  0
  -18.4586   35.2856    3.2302 C   0  0  0  0  0  0  0  0  0  0  0  0
  -19.3586   34.3548    3.7354 C   0  0  0  0  0  0  0  0  0  0  0  0
  -19.0255   32.8677    3.6367 C   0  0  0  0  0  0  0  0  0  0  0  0
  -18.6240   32.4276    2.5376 O   0  0  0  0  0  0  0  0  0  0  0  0
  -19.1378   32.1827    4.6766 O   0  0  0  0  0  0  0  0  0  0  0  0
  -23.0745   31.5509    5.3452 H   0  0  0  0  0  0  0  0  0  0  0  0
  -24.0169   31.4361    3.8202 H   0  0  0  0  0  0  0  0  0  0  0  0
  -22.2596   31.0638    3.8202 H   0  0  0  0  0  0  0  0  0  0  0  0
  -21.2809   33.5100    5.7554 H   0  0  0  0  0  0  0  0  0  0  0  0
  -21.7712   36.4811    4.8516 H   0  0  0  0  0  0  0  0  0  0  0  0
  -20.1510   38.1460    3.9568 H   0  0  0  0  0  0  0  0  0  0  0  0
  -17.5191   34.9458    2.7699 H   0  0  0  0  0  0  0  0  0  0  0  0
  2  1  1  0
  2  3  2  0
  2  4  2  0
  2  5  1  1
  5  6  1  0
  6  7  2  0
  6 12  1  0
  7  8  1  0
  8  9  2  0
  9 10  1  0
  9 11  1  0
 11 12  2  0
 12 13  1  0
 13 14  2  0
 13 15  1  0
  1 16  1  0
  1 17  1  0
  1 18  1  0
  5 19  1  0
  7 20  1  0
  8 21  1  0
 11 22  1  0
M  CHG  1  15  -1
M  END
>  <filename_input>  (8) 
6ZC3_JOR_docked.sdf

>  <pdb_id>  (8) 
6ZC3_JOR

>  <pose_rank>  (8) 
7

>  <num_atoms_heavy>  (8) 
15

>  <num_torsions>  (8) 
3

>  <pose>  (8) 
[-20.543295256375345, 34.781192870810735, 4.327964177612683, -2.5635074125085238, 1.842986851974901, -1.0364397893300945, -4.427685948891633, -3.5626436544328417, -2.626151518571262]

>  <energy>  (8) 
-408.5711235822394

>  <inter_energy>  (8) 
-399.3440541453494

>  <intra_energy>  (8) 
15.822828666483153

>  <rmsd>  (8) 
4.70541

>  <sdf_rank>  (8) 
0

$$$$

     RDKit          3D

 22 22  0  0  0  0  0  0  0  0999 V2000
  -23.1926   33.2889    6.2273 C   0  0  0  0  0  0  0  0  0  0  0  0
  -21.9501   34.5274    6.5321 S   0  0  2  0  0  0  0  0  0  0  0  0
  -20.8813   33.9546    7.4126 O   0  0  0  0  0  0  0  0  0  0  0  0
  -22.5814   35.7079    7.2077 O   0  0  0  0  0  0  0  0  0  0  0  0
  -21.2928   34.9978    5.1141 N   0  0  0  0  0  0  0  0  0  0  0  0
  -20.2210   34.3736    4.6303 C   0  0  0  0  0  0  0  0  0  0  0  0
  -20.3588   33.1395    4.0034 C   0  0  0  0  0  0  0  0  0  0  0  0
  -19.2407   32.4824    3.5008 C   0  0  0  0  0  0  0  0  0  0  0  0
  -17.9796   33.0525    3.6357 C   0  0  0  0  0  0  0  0  0  0  0  0
  -16.8910   32.4224    3.1543 F   0  0  0  0  0  0  0  0  0  0  0  0
  -17.8410   34.2811    4.2668 C   0  0  0  0  0  0  0  0  0  0  0  0
  -18.9573   34.9396    4.7685 C   0  0  0  0  0  0  0  0  0  0  0  0
  -18.7766   36.2878    5.4626 C   0  0  0  0  0  0  0  0  0  0  0  0
  -18.5557   36.2899    6.6930 O   0  0  0  0  0  0  0  0  0  0  0  0
  -18.8224   37.3132    4.7485 O   0  0  0  0  0  0  0  0  0  0  0  0
  -23.5741   32.9086    7.1864 H   0  0  0  0  0  0  0  0  0  0  0  0
  -24.0196   33.7326    5.6537 H   0  0  0  0  0  0  0  0  0  0  0  0
  -22.7515   32.4604    5.6537 H   0  0  0  0  0  0  0  0  0  0  0  0
  -21.7092   35.7813    4.5910 H   0  0  0  0  0  0  0  0  0  0  0  0
  -21.3544   32.6822    3.9049 H   0  0  0  0  0  0  0  0  0  0  0  0
  -19.3540   31.5114    2.9964 H   0  0  0  0  0  0  0  0  0  0  0  0
  -16.8443   34.7349    4.3701 H   0  0  0  0  0  0  0  0  0  0  0  0
  2  1  1  0
  2  3  2  0
  2  4  2  0
  2  5  1  6
  5  6  1  0
  6  7  2  0
  6 12  1  0
  7  8  1  0
  8  9  2  0
  9 10  1  0
  9 11  1  0
 11 12  2  0
 12 13  1  0
 13 14  2  0
 13 15  1  0
  1 16  1  0
  1 17  1  0
  1 18  1  0
  5 19  1  0
  7 20  1  0
  8 21  1  0
 11 22  1  0
M  CHG  1  15  -1
M  END
>  <filename_input>  (9) 
6ZC3_JOR_docked.sdf

>  <pdb_id>  (9) 
6ZC3_JOR

>  <pose_rank>  (9) 
8

>  <num_atoms_heavy>  (9) 
15

>  <num_torsions>  (9) 
3

>  <pose>  (9) 
[-20.220997026634468, 34.37360578448836, 4.6303116349639994, -1.142626936103272, -1.8701826669850632, -3.7869394477639826, -5.150078208311922, -3.645854355452978, -0.4697817305229069]

>  <energy>  (9) 
-403.6589188565991

>  <inter_energy>  (9) 
-387.8217965967127

>  <intra_energy>  (9) 
3.176558141364385

>  <rmsd>  (9) 
4.29015

>  <sdf_rank>  (9) 
0

$$$$

     RDKit          3D

 22 22  0  0  0  0  0  0  0  0999 V2000
  -19.4243   32.1077    3.4079 C   0  0  0  0  0  0  0  0  0  0  0  0
  -19.9197   33.1493    2.0513 S   0  0  2  0  0  0  0  0  0  0  0  0
  -21.2561   32.7017    1.5419 O   0  0  0  0  0  0  0  0  0  0  0  0
  -18.9029   33.0516    0.9536 O   0  0  0  0  0  0  0  0  0  0  0  0
  -20.0227   34.6956    2.5634 N   0  0  0  0  0  0  0  0  0  0  0  0
  -20.3635   34.9656    3.8217 C   0  0  0  0  0  0  0  0  0  0  0  0
  -21.6168   34.5943    4.2978 C   0  0  0  0  0  0  0  0  0  0  0  0
  -21.9780   34.8788    5.6104 C   0  0  0  0  0  0  0  0  0  0  0  0
  -21.0908   35.5474    6.4468 C   0  0  0  0  0  0  0  0  0  0  0  0
  -21.4328   35.8293    7.7185 F   0  0  0  0  0  0  0  0  0  0  0  0
  -19.8425   35.9237    5.9702 C   0  0  0  0  0  0  0  0  0  0  0  0
  -19.4795   35.6391    4.6591 C   0  0  0  0  0  0  0  0  0  0  0  0
  -18.1020   36.0681    4.1584 C   0  0  0  0  0  0  0  0  0  0  0  0
  -17.1182   35.8692    4.9035 O   0  0  0  0  0  0  0  0  0  0  0  0
  -18.0347   36.5603    3.0110 O   0  0  0  0  0  0  0  0  0  0  0  0
  -19.6617   32.6067    4.3590 H   0  0  0  0  0  0  0  0  0  0  0  0
  -19.9637   31.1507    3.3513 H   0  0  0  0  0  0  0  0  0  0  0  0
  -18.3416   31.9222    3.3513 H   0  0  0  0  0  0  0  0  0  0  0  0
  -19.8230   35.4663    1.9099 H   0  0  0  0  0  0  0  0  0  0  0  0
  -22.3238   34.0745    3.6345 H   0  0  0  0  0  0  0  0  0  0  0  0
  -22.9657   34.5749    5.9871 H   0  0  0  0  0  0  0  0  0  0  0  0
  -19.1383   36.4487    6.6323 H   0  0  0  0  0  0  0  0  0  0  0  0
  2  1  1  0
  2  3  2  0
  2  4  2  0
  2  5  1  1
  5  6  1  0
  6  7  2  0
  6 12  1  0
  7  8  1  0
  8  9  2  0
  9 10  1  0
  9 11  1  0
 11 12  2  0
 12 13  1  0
 13 14  2  0
 13 15  1  0
  1 16  1  0
  1 17  1  0
  1 18  1  0
  5 19  1  0
  7 20  1  0
  8 21  1  0
 11 22  1  0
M  CHG  1  15  -1
M  END
>  <filename_input>  (10) 
6ZC3_JOR_docked.sdf

>  <pdb_id>  (10) 
6ZC3_JOR

>  <pose_rank>  (10) 
9

>  <num_atoms_heavy>  (10) 
15

>  <num_torsions>  (10) 
3

>  <pose>  (10) 
[-20.363514219984374, 34.96562863396476, 3.821672715486185, 4.453100781999855, -1.9153607591383974, 0.38767651721046364, 3.45536905135266, -18.669257381032978, -5.715541446263904]

>  <energy>  (10) 
-401.96893612477163

>  <inter_energy>  (10) 
-414.3779017027557

>  <intra_energy>  (10) 
22.159044797421757

>  <rmsd>  (10) 
3.22112

>  <sdf_rank>  (10) 
0

$$$$

     RDKit          3D

 22 22  0  0  0  0  0  0  0  0999 V2000
  -18.0366   31.9814    3.0458 C   0  0  0  0  0  0  0  0  0  0  0  0
  -19.6794   32.6327    3.2636 S   0  0  2  0  0  0  0  0  0  0  0  0
  -20.6754   31.6777    2.6789 O   0  0  0  0  0  0  0  0  0  0  0  0
  -19.7838   33.9580    2.5699 O   0  0  0  0  0  0  0  0  0  0  0  0
  -19.9805   32.8255    4.8562 N   0  0  0  0  0  0  0  0  0  0  0  0
  -20.8067   33.7825    5.2729 C   0  0  0  0  0  0  0  0  0  0  0  0
  -22.1791   33.6433    5.0935 C   0  0  0  0  0  0  0  0  0  0  0  0
  -23.0450   34.6433    5.5236 C   0  0  0  0  0  0  0  0  0  0  0  0
  -22.5389   35.7914    6.1228 C   0  0  0  0  0  0  0  0  0  0  0  0
  -23.3695   36.7660    6.5402 F   0  0  0  0  0  0  0  0  0  0  0  0
  -21.1690   35.9335    6.2964 C   0  0  0  0  0  0  0  0  0  0  0  0
  -20.3025   34.9347    5.8683 C   0  0  0  0  0  0  0  0  0  0  0  0
  -18.7994   35.1180    6.0670 C   0  0  0  0  0  0  0  0  0  0  0  0
  -18.2801   36.1832    5.6692 O   0  0  0  0  0  0  0  0  0  0  0  0
  -18.1809   34.2032    6.6534 O   0  0  0  0  0  0  0  0  0  0  0  0
  -17.5803   31.8006    4.0302 H   0  0  0  0  0  0  0  0  0  0  0  0
  -18.0882   31.0358    2.4863 H   0  0  0  0  0  0  0  0  0  0  0  0
  -17.4263   32.7056    2.4863 H   0  0  0  0  0  0  0  0  0  0  0  0
  -19.5291   32.2036    5.5420 H   0  0  0  0  0  0  0  0  0  0  0  0
  -22.5805   32.7403    4.6103 H   0  0  0  0  0  0  0  0  0  0  0  0
  -24.1305   34.5258    5.3896 H   0  0  0  0  0  0  0  0  0  0  0  0
  -20.7680   36.8394    6.7743 H   0  0  0  0  0  0  0  0  0  0  0  0
  2  1  1  0
  2  3  2  0
  2  4  2  0
  2  5  1  1
  5  6  1  0
  6  7  2  0
  6 12  1  0
  7  8  1  0
  8  9  2  0
  9 10  1  0
  9 11  1  0
 11 12  2  0
 12 13  1  0
 13 14  2  0
 13 15  1  0
  1 16  1  0
  1 17  1  0
  1 18  1  0
  5 19  1  0
  7 20  1  0
  8 21  1  0
 11 22  1  0
M  CHG  1  15  -1
M  END
>  <filename_input>  (11) 
6ZC3_JOR_docked.sdf

>  <pdb_id>  (11) 
6ZC3_JOR

>  <pose_rank>  (11) 
10

>  <num_atoms_heavy>  (11) 
15

>  <num_torsions>  (11) 
3

>  <pose>  (11) 
[-20.80669902214543, 33.78252398744941, 5.272923809420046, -1.8123005341607856, 0.040779812792702735, -0.7981268422325102, -4.490012403600705, -3.7171737455771945, -2.555254455288168]

>  <energy>  (11) 
-381.77648747601904

>  <inter_energy>  (11) 
-376.5065596391389

>  <intra_energy>  (11) 
12.538172085967178

>  <rmsd>  (11) 
2.89845

>  <sdf_rank>  (11) 
0

$$$$

     RDKit          3D

 22 22  0  0  0  0  0  0  0  0999 V2000
  -19.3225   31.1241    2.8199 C   0  0  0  0  0  0  0  0  0  0  0  0
  -20.7231   32.2061    3.0149 S   0  0  2  0  0  0  0  0  0  0  0  0
  -21.9836   31.3955    3.0068 O   0  0  0  0  0  0  0  0  0  0  0  0
  -20.7499   33.1917    1.8852 O   0  0  0  0  0  0  0  0  0  0  0  0
  -20.5991   33.0048    4.4328 N   0  0  0  0  0  0  0  0  0  0  0  0
  -20.4819   34.3309    4.4492 C   0  0  0  0  0  0  0  0  0  0  0  0
  -21.6173   35.1304    4.3672 C   0  0  0  0  0  0  0  0  0  0  0  0
  -21.4984   36.5162    4.3794 C   0  0  0  0  0  0  0  0  0  0  0  0
  -20.2417   37.1059    4.4607 C   0  0  0  0  0  0  0  0  0  0  0  0
  -20.1167   38.4468    4.4707 F   0  0  0  0  0  0  0  0  0  0  0  0
  -19.1081   36.3083    4.5362 C   0  0  0  0  0  0  0  0  0  0  0  0
  -19.2252   34.9235    4.5253 C   0  0  0  0  0  0  0  0  0  0  0  0
  -17.9619   34.0690    4.6047 C   0  0  0  0  0  0  0  0  0  0  0  0
  -17.3412   33.8386    3.5443 O   0  0  0  0  0  0  0  0  0  0  0  0
  -17.6002   33.6808    5.7369 O   0  0  0  0  0  0  0  0  0  0  0  0
  -18.9442   30.8318    3.8106 H   0  0  0  0  0  0  0  0  0  0  0  0
  -19.6281   30.2252    2.2643 H   0  0  0  0  0  0  0  0  0  0  0  0
  -18.5300   31.6467    2.2643 H   0  0  0  0  0  0  0  0  0  0  0  0
  -20.6115   32.4805    5.3193 H   0  0  0  0  0  0  0  0  0  0  0  0
  -22.6115   34.6657    4.2925 H   0  0  0  0  0  0  0  0  0  0  0  0
  -22.3987   37.1458    4.3249 H   0  0  0  0  0  0  0  0  0  0  0  0
  -18.1138   36.7738    4.6048 H   0  0  0  0  0  0  0  0  0  0  0  0
  2  1  1  0
  2  3  2  0
  2  4  2  0
  2  5  1  1
  5  6  1  0
  6  7  2  0
  6 12  1  0
  7  8  1  0
  8  9  2  0
  9 10  1  0
  9 11  1  0
 11 12  2  0
 12 13  1  0
 13 14  2  0
 13 15  1  0
  1 16  1  0
  1 17  1  0
  1 18  1  0
  5 19  1  0
  7 20  1  0
  8 21  1  0
 11 22  1  0
M  CHG  1  15  -1
M  END
>  <filename_input>  (12) 
6ZC3_JOR_docked.sdf

>  <pdb_id>  (12) 
6ZC3_JOR

>  <pose_rank>  (12) 
11

>  <num_atoms_heavy>  (12) 
15

>  <num_torsions>  (12) 
3

>  <pose>  (12) 
[-20.481932828391187, 34.330855940714905, 4.449194266334932, -2.2527082728893064, 0.7544802437735001, -1.2158599272750732, -5.064713394552282, -3.548120903923629, -3.133653696362646]

>  <energy>  (12) 
-372.5268975137478

>  <inter_energy>  (12) 
-388.15848252537245

>  <intra_energy>  (12) 
6.769968702887987

>  <rmsd>  (12) 
3.98658

>  <sdf_rank>  (12) 
0

$$$$

     RDKit          3D

 22 22  0  0  0  0  0  0  0  0999 V2000
  -21.7042   33.0781    6.4769 C   0  0  0  0  0  0  0  0  0  0  0  0
  -21.3641   34.8205    6.6153 S   0  0  2  0  0  0  0  0  0  0  0  0
  -19.9894   35.0164    7.1787 O   0  0  0  0  0  0  0  0  0  0  0  0
  -22.3762   35.4531    7.5231 O   0  0  0  0  0  0  0  0  0  0  0  0
  -21.4501   35.5096    5.1383 N   0  0  0  0  0  0  0  0  0  0  0  0
  -20.6016   35.1489    4.1779 C   0  0  0  0  0  0  0  0  0  0  0  0
  -20.7968   33.9562    3.4892 C   0  0  0  0  0  0  0  0  0  0  0  0
  -19.9098   33.5739    2.4884 C   0  0  0  0  0  0  0  0  0  0  0  0
  -18.8173   34.3780    2.1828 C   0  0  0  0  0  0  0  0  0  0  0  0
  -17.9518   34.0148    1.2169 F   0  0  0  0  0  0  0  0  0  0  0  0
  -18.6186   35.5652    2.8741 C   0  0  0  0  0  0  0  0  0  0  0  0
  -19.5047   35.9493    3.8736 C   0  0  0  0  0  0  0  0  0  0  0  0
  -19.2606   37.2578    4.6221 C   0  0  0  0  0  0  0  0  0  0  0  0
  -18.5037   37.2330    5.6167 O   0  0  0  0  0  0  0  0  0  0  0  0
  -19.8045   38.2891    4.1704 O   0  0  0  0  0  0  0  0  0  0  0  0
  -21.7897   32.6403    7.4824 H   0  0  0  0  0  0  0  0  0  0  0  0
  -22.6481   32.9310    5.9314 H   0  0  0  0  0  0  0  0  0  0  0  0
  -20.8850   32.5868    5.9314 H   0  0  0  0  0  0  0  0  0  0  0  0
  -22.1643   36.2270    4.9482 H   0  0  0  0  0  0  0  0  0  0  0  0
  -21.6548   33.3138    3.7367 H   0  0  0  0  0  0  0  0  0  0  0  0
  -20.0726   32.6352    1.9385 H   0  0  0  0  0  0  0  0  0  0  0  0
  -17.7571   36.2041    2.6301 H   0  0  0  0  0  0  0  0  0  0  0  0
  2  1  1  0
  2  3  2  0
  2  4  2  0
  2  5  1  6
  5  6  1  0
  6  7  2  0
  6 12  1  0
  7  8  1  0
  8  9  2  0
  9 10  1  0
  9 11  1  0
 11 12  2  0
 12 13  1  0
 13 14  2  0
 13 15  1  0
  1 16  1  0
  1 17  1  0
  1 18  1  0
  5 19  1  0
  7 20  1  0
  8 21  1  0
 11 22  1  0
M  CHG  1  15  -1
M  END
>  <filename_input>  (13) 
6ZC3_JOR_docked.sdf

>  <pdb_id>  (13) 
6ZC3_JOR

>  <pose_rank>  (13) 
12

>  <num_atoms_heavy>  (13) 
15

>  <num_torsions>  (13) 
3

>  <pose>  (13) 
[-20.601551135078086, 35.14891417414672, 4.177927136797434, -1.5585110221924228, -1.9398026428035748, -3.116028600469095, -5.1066578271392125, -3.649405124892778, 0.005222763637019623]

>  <energy>  (13) 
-354.2346669299886

>  <inter_energy>  (13) 
-364.70964261380476

>  <intra_energy>  (13) 
14.068888248175961

>  <rmsd>  (13) 
4.26143

>  <sdf_rank>  (13) 
0

$$$$

     RDKit          3D

 22 22  0  0  0  0  0  0  0  0999 V2000
  -18.2985   36.7013    2.2533 C   0  0  0  0  0  0  0  0  0  0  0  0
  -18.6451   36.7846    3.9979 S   0  0  2  0  0  0  0  0  0  0  0  0
  -19.8267   37.6770    4.2289 O   0  0  0  0  0  0  0  0  0  0  0  0
  -17.4492   37.3352    4.7156 O   0  0  0  0  0  0  0  0  0  0  0  0
  -18.9760   35.2878    4.5580 N   0  0  0  0  0  0  0  0  0  0  0  0
  -20.2024   34.9828    4.9769 C   0  0  0  0  0  0  0  0  0  0  0  0
  -21.1497   34.5141    4.0725 C   0  0  0  0  0  0  0  0  0  0  0  0
  -22.4333   34.1988    4.5057 C   0  0  0  0  0  0  0  0  0  0  0  0
  -22.7763   34.3640    5.8431 C   0  0  0  0  0  0  0  0  0  0  0  0
  -24.0174   34.0636    6.2712 F   0  0  0  0  0  0  0  0  0  0  0  0
  -21.8331   34.8376    6.7446 C   0  0  0  0  0  0  0  0  0  0  0  0
  -20.5497   35.1519    6.3137 C   0  0  0  0  0  0  0  0  0  0  0  0
  -19.5323   35.6756    7.3251 C   0  0  0  0  0  0  0  0  0  0  0  0
  -19.8150   36.7164    7.9572 O   0  0  0  0  0  0  0  0  0  0  0  0
  -18.4884   35.0074    7.4896 O   0  0  0  0  0  0  0  0  0  0  0  0
  -17.2393   36.4465    2.1017 H   0  0  0  0  0  0  0  0  0  0  0  0
  -18.9312   35.9297    1.7903 H   0  0  0  0  0  0  0  0  0  0  0  0
  -18.5111   37.6762    1.7903 H   0  0  0  0  0  0  0  0  0  0  0  0
  -18.2325   34.5756    4.5876 H   0  0  0  0  0  0  0  0  0  0  0  0
  -20.8832   34.3926    3.0122 H   0  0  0  0  0  0  0  0  0  0  0  0
  -23.1773   33.8187    3.7901 H   0  0  0  0  0  0  0  0  0  0  0  0
  -22.1022   34.9644    7.8036 H   0  0  0  0  0  0  0  0  0  0  0  0
  2  1  1  0
  2  3  2  0
  2  4  2  0
  2  5  1  1
  5  6  1  0
  6  7  2  0
  6 12  1  0
  7  8  1  0
  8  9  2  0
  9 10  1  0
  9 11  1  0
 11 12  2  0
 12 13  1  0
 13 14  2  0
 13 15  1  0
  1 16  1  0
  1 17  1  0
  1 18  1  0
  5 19  1  0
  7 20  1  0
  8 21  1  0
 11 22  1  0
M  CHG  1  15  -1
M  END
>  <filename_input>  (14) 
6ZC3_JOR_docked.sdf

>  <pdb_id>  (14) 
6ZC3_JOR

>  <pose_rank>  (14) 
13

>  <num_atoms_heavy>  (14) 
15

>  <num_torsions>  (14) 
3

>  <pose>  (14) 
[-20.20235760458981, 34.98279011336087, 4.976880583041339, -0.7104532892214677, -0.33367498734941065, -0.4113147234215292, -4.614295891262563, -3.473161899787799, -0.8522003750165946]

>  <energy>  (14) 
-509.71166547737926

>  <inter_energy>  (14) 
-512.9987271762232

>  <intra_energy>  (14) 
13.017134235114916

>  <rmsd>  (14) 
1.43462

>  <sdf_rank>  (14) 
0

$$$$

     RDKit          3D

 22 22  0  0  0  0  0  0  0  0999 V2000
  -20.6628   29.5209    3.3368 C   0  0  0  0  0  0  0  0  0  0  0  0
  -19.8787   31.1140    3.2034 S   0  0  2  0  0  0  0  0  0  0  0  0
  -20.3606   31.8041    1.9636 O   0  0  0  0  0  0  0  0  0  0  0  0
  -18.3920   30.9310    3.1334 O   0  0  0  0  0  0  0  0  0  0  0  0
  -20.2562   32.0162    4.5101 N   0  0  0  0  0  0  0  0  0  0  0  0
  -20.2161   33.3452    4.4435 C   0  0  0  0  0  0  0  0  0  0  0  0
  -21.3017   34.0491    3.9325 C   0  0  0  0  0  0  0  0  0  0  0  0
  -21.2615   35.4374    3.8572 C   0  0  0  0  0  0  0  0  0  0  0  0
  -20.1294   36.1245    4.2811 C   0  0  0  0  0  0  0  0  0  0  0  0
  -20.0805   37.4686    4.2097 F   0  0  0  0  0  0  0  0  0  0  0  0
  -19.0434   35.4221    4.7852 C   0  0  0  0  0  0  0  0  0  0  0  0
  -19.0824   34.0350    4.8623 C   0  0  0  0  0  0  0  0  0  0  0  0
  -17.8724   33.2861    5.4165 C   0  0  0  0  0  0  0  0  0  0  0  0
  -16.7641   33.4746    4.8698 O   0  0  0  0  0  0  0  0  0  0  0  0
  -18.0559   32.5545    6.4138 O   0  0  0  0  0  0  0  0  0  0  0  0
  -20.7900   29.2625    4.3984 H   0  0  0  0  0  0  0  0  0  0  0  0
  -21.6472   29.5546    2.8471 H   0  0  0  0  0  0  0  0  0  0  0  0
  -20.0356   28.7614    2.8471 H   0  0  0  0  0  0  0  0  0  0  0  0
  -20.5268   31.5551    5.3904 H   0  0  0  0  0  0  0  0  0  0  0  0
  -22.1941   33.5065    3.5872 H   0  0  0  0  0  0  0  0  0  0  0  0
  -22.1255   35.9918    3.4622 H   0  0  0  0  0  0  0  0  0  0  0  0
  -18.1491   35.9651    5.1248 H   0  0  0  0  0  0  0  0  0  0  0  0
  2  1  1  0
  2  3  2  0
  2  4  2  0
  2  5  1  1
  5  6  1  0
  6  7  2  0
  6 12  1  0
  7  8  1  0
  8  9  2  0
  9 10  1  0
  9 11  1  0
 11 12  2  0
 12 13  1  0
 13 14  2  0
 13 15  1  0
  1 16  1  0
  1 17  1  0
  1 18  1  0
  5 19  1  0
  7 20  1  0
  8 21  1  0
 11 22  1  0
M  CHG  1  15  -1
M  END
>  <filename_input>  (15) 
6ZC3_JOR_docked.sdf

>  <pdb_id>  (15) 
6ZC3_JOR

>  <pose_rank>  (15) 
14

>  <num_atoms_heavy>  (15) 
15

>  <num_torsions>  (15) 
3

>  <pose>  (15) 
[-20.21607378441147, 33.34522746991586, 4.4434859565947535, -2.0476521551756486, 0.5121784065785079, -1.5571777258309742, -4.57975260168279, -3.5507190261719916, -1.6105826806043553]

>  <energy>  (15) 
-370.6990203497657

>  <inter_energy>  (15) 
-385.2953131391598

>  <intra_energy>  (15) 
19.003078541907296

>  <rmsd>  (15) 
4.18598

>  <sdf_rank>  (15) 
0

$$$$

     RDKit          3D

 22 22  0  0  0  0  0  0  0  0999 V2000
  -15.5469   26.6113    4.1690 C   0  0  0  0  0  0  0  0  0  0  0  0
  -17.1287   27.4108    3.9977 S   0  0  2  0  0  0  0  0  0  0  0  0
  -16.9425   28.8972    4.0396 O   0  0  0  0  0  0  0  0  0  0  0  0
  -18.0252   26.9828    5.1209 O   0  0  0  0  0  0  0  0  0  0  0  0
  -17.8001   26.9865    2.5719 N   0  0  0  0  0  0  0  0  0  0  0  0
  -19.1237   26.9164    2.4467 C   0  0  0  0  0  0  0  0  0  0  0  0
  -19.8052   25.7872    2.8888 C   0  0  0  0  0  0  0  0  0  0  0  0
  -21.1875   25.7085    2.7556 C   0  0  0  0  0  0  0  0  0  0  0  0
  -21.8903   26.7543    2.1675 C   0  0  0  0  0  0  0  0  0  0  0  0
  -23.2285   26.6860    2.0321 F   0  0  0  0  0  0  0  0  0  0  0  0
  -21.2098   27.8786    1.7205 C   0  0  0  0  0  0  0  0  0  0  0  0
  -19.8288   27.9594    1.8541 C   0  0  0  0  0  0  0  0  0  0  0  0
  -19.1039   29.2054    1.3497 C   0  0  0  0  0  0  0  0  0  0  0  0
  -18.7566   29.2372    0.1493 O   0  0  0  0  0  0  0  0  0  0  0  0
  -18.9340   30.1405    2.1622 O   0  0  0  0  0  0  0  0  0  0  0  0
  -15.3102   26.4916    5.2365 H   0  0  0  0  0  0  0  0  0  0  0  0
  -15.5818   25.6226    3.6881 H   0  0  0  0  0  0  0  0  0  0  0  0
  -14.7715   27.2257    3.6881 H   0  0  0  0  0  0  0  0  0  0  0  0
  -17.1970   26.7720    1.7650 H   0  0  0  0  0  0  0  0  0  0  0  0
  -19.2497   24.9545    3.3449 H   0  0  0  0  0  0  0  0  0  0  0  0
  -21.7248   24.8187    3.1155 H   0  0  0  0  0  0  0  0  0  0  0  0
  -21.7654   28.7084    1.2592 H   0  0  0  0  0  0  0  0  0  0  0  0
  2  1  1  0
  2  3  2  0
  2  4  2  0
  2  5  1  6
  5  6  1  0
  6  7  2  0
  6 12  1  0
  7  8  1  0
  8  9  2  0
  9 10  1  0
  9 11  1  0
 11 12  2  0
 12 13  1  0
 13 14  2  0
 13 15  1  0
  1 16  1  0
  1 17  1  0
  1 18  1  0
  5 19  1  0
  7 20  1  0
  8 21  1  0
 11 22  1  0
M  CHG  1  15  -1
M  END
>  <filename_input>  (16) 
6ZC3_JOR_docked.sdf

>  <pdb_id>  (16) 
6ZC3_JOR

>  <pose_rank>  (16) 
15

>  <num_atoms_heavy>  (16) 
15

>  <num_torsions>  (16) 
3

>  <pose>  (16) 
[-19.12365512875301, 26.916387659732084, 2.4467353827130482, -13.188621621964908, -7.49281928400812, -0.8340171990923608, -5.112603236270941, -6.418917206094565, -2.5681840101580997]

>  <energy>  (16) 
-140.53228628063982

>  <inter_energy>  (16) 
-148.3618540991468

>  <intra_energy>  (16) 
14.00106906162464

>  <rmsd>  (16) 
8.66659

>  <sdf_rank>  (16) 
0

$$$$

     RDKit          3D

 22 22  0  0  0  0  0  0  0  0999 V2000
  -19.6772   32.9144    2.7982 C   0  0  0  0  0  0  0  0  0  0  0  0
  -19.9118   34.1755    1.5632 S   0  0  2  0  0  0  0  0  0  0  0  0
  -20.8939   33.6932    0.5393 O   0  0  0  0  0  0  0  0  0  0  0  0
  -18.5990   34.4729    0.9023 O   0  0  0  0  0  0  0  0  0  0  0  0
  -20.4849   35.5295    2.2716 N   0  0  0  0  0  0  0  0  0  0  0  0
  -21.0806   35.4655    3.4605 C   0  0  0  0  0  0  0  0  0  0  0  0
  -22.3307   34.8672    3.5807 C   0  0  0  0  0  0  0  0  0  0  0  0
  -22.9581   34.8025    4.8204 C   0  0  0  0  0  0  0  0  0  0  0  0
  -22.3418   35.3481    5.9412 C   0  0  0  0  0  0  0  0  0  0  0  0
  -22.9428   35.2923    7.1452 F   0  0  0  0  0  0  0  0  0  0  0  0
  -21.0972   35.9507    5.8205 C   0  0  0  0  0  0  0  0  0  0  0  0
  -20.4684   36.0151    4.5827 C   0  0  0  0  0  0  0  0  0  0  0  0
  -19.1015   36.6878    4.4764 C   0  0  0  0  0  0  0  0  0  0  0  0
  -18.0845   35.9815    4.6481 O   0  0  0  0  0  0  0  0  0  0  0  0
  -19.0797   37.9034    4.1844 O   0  0  0  0  0  0  0  0  0  0  0  0
  -19.7605   33.3619    3.7997 H   0  0  0  0  0  0  0  0  0  0  0  0
  -20.4462   32.1369    2.6790 H   0  0  0  0  0  0  0  0  0  0  0  0
  -18.6802   32.4653    2.6790 H   0  0  0  0  0  0  0  0  0  0  0  0
  -20.3853   36.4380    1.7966 H   0  0  0  0  0  0  0  0  0  0  0  0
  -22.8242   34.4442    2.6933 H   0  0  0  0  0  0  0  0  0  0  0  0
  -23.9419   34.3196    4.9143 H   0  0  0  0  0  0  0  0  0  0  0  0
  -20.6070   36.3787    6.7073 H   0  0  0  0  0  0  0  0  0  0  0  0
  2  1  1  0
  2  3  2  0
  2  4  2  0
  2  5  1  1
  5  6  1  0
  6  7  2  0
  6 12  1  0
  7  8  1  0
  8  9  2  0
  9 10  1  0
  9 11  1  0
 11 12  2  0
 12 13  1  0
 13 14  2  0
 13 15  1  0
  1 16  1  0
  1 17  1  0
  1 18  1  0
  5 19  1  0
  7 20  1  0
  8 21  1  0
 11 22  1  0
M  CHG  1  15  -1
M  END
>  <filename_input>  (17) 
6ZC3_JOR_docked.sdf

>  <pdb_id>  (17) 
6ZC3_JOR

>  <pose_rank>  (17) 
16

>  <num_atoms_heavy>  (17) 
15

>  <num_torsions>  (17) 
3

>  <pose>  (17) 
[-21.080615851531054, 35.46546597409622, 3.4604996703083923, -7.120835440396541, 2.0341834851548612, -0.45764368513501247, 4.243410064650985, -18.793367719969055, -5.53307887136844]

>  <energy>  (17) 
-385.75395647167596

>  <inter_energy>  (17) 
-378.5726941850604

>  <intra_energy>  (17) 
6.6008730592577445

>  <rmsd>  (17) 
2.67793

>  <sdf_rank>  (17) 
0

$$$$

     RDKit          3D

 22 22  0  0  0  0  0  0  0  0999 V2000
  -17.9424   34.5176    6.6027 C   0  0  0  0  0  0  0  0  0  0  0  0
  -18.8593   33.2960    5.6875 S   0  0  2  0  0  0  0  0  0  0  0  0
  -19.2420   32.1721    6.6020 O   0  0  0  0  0  0  0  0  0  0  0  0
  -18.0077   32.7701    4.5709 O   0  0  0  0  0  0  0  0  0  0  0  0
  -20.2074   33.9784    5.0704 N   0  0  0  0  0  0  0  0  0  0  0  0
  -20.6006   33.6891    3.8319 C   0  0  0  0  0  0  0  0  0  0  0  0
  -21.3529   32.5442    3.5905 C   0  0  0  0  0  0  0  0  0  0  0  0
  -21.7616   32.2364    2.2971 C   0  0  0  0  0  0  0  0  0  0  0  0
  -21.4074   33.0669    1.2395 C   0  0  0  0  0  0  0  0  0  0  0  0
  -21.7966   32.7756   -0.0165 F   0  0  0  0  0  0  0  0  0  0  0  0
  -20.6514   34.2061    1.4791 C   0  0  0  0  0  0  0  0  0  0  0  0
  -20.2433   34.5158    2.7710 C   0  0  0  0  0  0  0  0  0  0  0  0
  -19.4084   35.7726    3.0067 C   0  0  0  0  0  0  0  0  0  0  0  0
  -18.1785   35.7094    2.7917 O   0  0  0  0  0  0  0  0  0  0  0  0
  -20.0134   36.8063    3.3657 O   0  0  0  0  0  0  0  0  0  0  0  0
  -18.0736   34.3429    7.6807 H   0  0  0  0  0  0  0  0  0  0  0  0
  -16.8753   34.4432    6.3463 H   0  0  0  0  0  0  0  0  0  0  0  0
  -18.3120   35.5215    6.3463 H   0  0  0  0  0  0  0  0  0  0  0  0
  -20.7567   34.6360    5.6421 H   0  0  0  0  0  0  0  0  0  0  0  0
  -21.6252   31.8806    4.4245 H   0  0  0  0  0  0  0  0  0  0  0  0
  -22.3651   31.3358    2.1108 H   0  0  0  0  0  0  0  0  0  0  0  0
  -20.3745   34.8660    0.6438 H   0  0  0  0  0  0  0  0  0  0  0  0
  2  1  1  0
  2  3  2  0
  2  4  2  0
  2  5  1  6
  5  6  1  0
  6  7  2  0
  6 12  1  0
  7  8  1  0
  8  9  2  0
  9 10  1  0
  9 11  1  0
 11 12  2  0
 12 13  1  0
 13 14  2  0
 13 15  1  0
  1 16  1  0
  1 17  1  0
  1 18  1  0
  5 19  1  0
  7 20  1  0
  8 21  1  0
 11 22  1  0
M  CHG  1  15  -1
M  END
>  <filename_input>  (18) 
6ZC3_JOR_docked.sdf

>  <pdb_id>  (18) 
6ZC3_JOR

>  <pose_rank>  (18) 
17

>  <num_atoms_heavy>  (18) 
15

>  <num_torsions>  (18) 
3

>  <pose>  (18) 
[-20.600616075569153, 33.6891342613766, 3.8318698359257906, -2.341469033403857, -1.936497408671979, -1.574325751751766, -5.02453991742464, -3.5480244264194676, -2.755112856124858]

>  <energy>  (18) 
-298.07348480458126

>  <inter_energy>  (18) 
-308.248266038582

>  <intra_energy>  (18) 
4.504014937853022

>  <rmsd>  (18) 
4.16037

>  <sdf_rank>  (18) 
0

$$$$

     RDKit          3D

 22 22  0  0  0  0  0  0  0  0999 V2000
  -18.1570   34.2577    2.9149 C   0  0  0  0  0  0  0  0  0  0  0  0
  -18.1942   35.9980    3.2896 S   0  0  2  0  0  0  0  0  0  0  0  0
  -18.7304   36.7502    2.1096 O   0  0  0  0  0  0  0  0  0  0  0  0
  -16.8046   36.4688    3.5990 O   0  0  0  0  0  0  0  0  0  0  0  0
  -19.1575   36.2549    4.5819 N   0  0  0  0  0  0  0  0  0  0  0  0
  -20.2036   35.4633    4.8083 C   0  0  0  0  0  0  0  0  0  0  0  0
  -21.1365   35.2385    3.8012 C   0  0  0  0  0  0  0  0  0  0  0  0
  -22.2332   34.4156    4.0355 C   0  0  0  0  0  0  0  0  0  0  0  0
  -22.4063   33.8257    5.2827 C   0  0  0  0  0  0  0  0  0  0  0  0
  -23.4663   33.0294    5.5196 F   0  0  0  0  0  0  0  0  0  0  0  0
  -21.4789   34.0548    6.2899 C   0  0  0  0  0  0  0  0  0  0  0  0
  -20.3819   34.8757    6.0570 C   0  0  0  0  0  0  0  0  0  0  0  0
  -19.3790   35.1151    7.1836 C   0  0  0  0  0  0  0  0  0  0  0  0
  -19.5620   36.0983    7.9336 O   0  0  0  0  0  0  0  0  0  0  0  0
  -18.4510   34.2872    7.3132 O   0  0  0  0  0  0  0  0  0  0  0  0
  -18.1446   33.6811    3.8516 H   0  0  0  0  0  0  0  0  0  0  0  0
  -19.0496   33.9892    2.3308 H   0  0  0  0  0  0  0  0  0  0  0  0
  -17.2537   34.0276    2.3308 H   0  0  0  0  0  0  0  0  0  0  0  0
  -18.9550   37.0332    5.2255 H   0  0  0  0  0  0  0  0  0  0  0  0
  -21.0066   35.7126    2.8171 H   0  0  0  0  0  0  0  0  0  0  0  0
  -22.9637   34.2315    3.2340 H   0  0  0  0  0  0  0  0  0  0  0  0
  -21.6127   33.5850    7.2755 H   0  0  0  0  0  0  0  0  0  0  0  0
  2  1  1  0
  2  3  2  0
  2  4  2  0
  2  5  1  1
  5  6  1  0
  6  7  2  0
  6 12  1  0
  7  8  1  0
  8  9  2  0
  9 10  1  0
  9 11  1  0
 11 12  2  0
 12 13  1  0
 13 14  2  0
 13 15  1  0
  1 16  1  0
  1 17  1  0
  1 18  1  0
  5 19  1  0
  7 20  1  0
  8 21  1  0
 11 22  1  0
M  CHG  1  15  -1
M  END
>  <filename_input>  (19) 
6ZC3_JOR_docked.sdf

>  <pdb_id>  (19) 
6ZC3_JOR

>  <pose_rank>  (19) 
18

>  <num_atoms_heavy>  (19) 
15

>  <num_torsions>  (19) 
3

>  <pose>  (19) 
[-20.203627140222284, 35.46325127918488, 4.8082955458683685, -3.34812648143322, -4.340205797875543, -3.7290116435514857, -5.194640675119413, -5.921869758556233, 0.5647783652961312]

>  <energy>  (19) 
-575.1674641200009

>  <inter_energy>  (19) 
-596.3036228004156

>  <intra_energy>  (19) 
11.87859615292788

>  <rmsd>  (19) 
0.872277

>  <sdf_rank>  (19) 
0

$$$$

     RDKit          3D

 22 22  0  0  0  0  0  0  0  0999 V2000
  -16.9228   31.3182    3.5308 C   0  0  0  0  0  0  0  0  0  0  0  0
  -18.5540   32.0322    3.5226 S   0  0  2  0  0  0  0  0  0  0  0  0
  -19.5322   31.0334    2.9828 O   0  0  0  0  0  0  0  0  0  0  0  0
  -18.5550   33.2574    2.6580 O   0  0  0  0  0  0  0  0  0  0  0  0
  -18.9764   32.4392    5.0457 N   0  0  0  0  0  0  0  0  0  0  0  0
  -19.9754   33.2925    5.2608 C   0  0  0  0  0  0  0  0  0  0  0  0
  -21.2266   33.0538    4.7015 C   0  0  0  0  0  0  0  0  0  0  0  0
  -22.2714   33.9454    4.9204 C   0  0  0  0  0  0  0  0  0  0  0  0
  -22.0636   35.0854    5.6890 C   0  0  0  0  0  0  0  0  0  0  0  0
  -23.0687   35.9557    5.9043 F   0  0  0  0  0  0  0  0  0  0  0  0
  -20.8135   35.3271    6.2421 C   0  0  0  0  0  0  0  0  0  0  0  0
  -19.7688   34.4366    6.0254 C   0  0  0  0  0  0  0  0  0  0  0  0
  -18.4021   34.7285    6.6413 C   0  0  0  0  0  0  0  0  0  0  0  0
  -17.6384   35.5091    6.0329 O   0  0  0  0  0  0  0  0  0  0  0  0
  -18.1421   34.1967    7.7426 O   0  0  0  0  0  0  0  0  0  0  0  0
  -16.5913   31.1731    4.5696 H   0  0  0  0  0  0  0  0  0  0  0  0
  -16.9449   30.3474    3.0140 H   0  0  0  0  0  0  0  0  0  0  0  0
  -16.2246   31.9930    3.0140 H   0  0  0  0  0  0  0  0  0  0  0  0
  -18.4677   32.0339    5.8443 H   0  0  0  0  0  0  0  0  0  0  0  0
  -21.3900   32.1578    4.0847 H   0  0  0  0  0  0  0  0  0  0  0  0
  -23.2624   33.7487    4.4854 H   0  0  0  0  0  0  0  0  0  0  0  0
  -20.6493   36.2265    6.8538 H   0  0  0  0  0  0  0  0  0  0  0  0
  2  1  1  0
  2  3  2  0
  2  4  2  0
  2  5  1  1
  5  6  1  0
  6  7  2  0
  6 12  1  0
  7  8  1  0
  8  9  2  0
  9 10  1  0
  9 11  1  0
 11 12  2  0
 12 13  1  0
 13 14  2  0
 13 15  1  0
  1 16  1  0
  1 17  1  0
  1 18  1  0
  5 19  1  0
  7 20  1  0
  8 21  1  0
 11 22  1  0
M  CHG  1  15  -1
M  END
>  <filename_input>  (20) 
6ZC3_JOR_docked.sdf

>  <pdb_id>  (20) 
6ZC3_JOR

>  <pose_rank>  (20) 
19

>  <num_atoms_heavy>  (20) 
15

>  <num_torsions>  (20) 
3

>  <pose>  (20) 
[-19.975414565280676, 33.29245360508149, 5.260800925850469, -1.6206527406575106, -0.1965352662257766, -0.9658945988564509, -5.047151435016872, -4.060337491887574, -2.341981109230491]

>  <energy>  (20) 
-376.4907521647365

>  <inter_energy>  (20) 
-371.7815549518694

>  <intra_energy>  (20) 
8.648725651176367

>  <rmsd>  (20) 
3.05607

>  <sdf_rank>  (20) 
0

$$$$

     RDKit          3D

 22 22  0  0  0  0  0  0  0  0999 V2000
  -16.4709   30.3205    6.2154 C   0  0  0  0  0  0  0  0  0  0  0  0
  -17.4776   31.3224    5.1414 S   0  0  2  0  0  0  0  0  0  0  0  0
  -17.9247   30.5022    3.9696 O   0  0  0  0  0  0  0  0  0  0  0  0
  -16.6755   32.4944    4.6602 O   0  0  0  0  0  0  0  0  0  0  0  0
  -18.7836   31.8554    5.9625 N   0  0  0  0  0  0  0  0  0  0  0  0
  -19.7604   32.4990    5.3269 C   0  0  0  0  0  0  0  0  0  0  0  0
  -20.4111   31.8933    4.2569 C   0  0  0  0  0  0  0  0  0  0  0  0
  -21.4290   32.5645    3.5877 C   0  0  0  0  0  0  0  0  0  0  0  0
  -21.7899   33.8490    3.9790 C   0  0  0  0  0  0  0  0  0  0  0  0
  -22.7728   34.5075    3.3354 F   0  0  0  0  0  0  0  0  0  0  0  0
  -21.1366   34.4562    5.0427 C   0  0  0  0  0  0  0  0  0  0  0  0
  -20.1201   33.7865    5.7133 C   0  0  0  0  0  0  0  0  0  0  0  0
  -19.4142   34.4788    6.8772 C   0  0  0  0  0  0  0  0  0  0  0  0
  -19.0631   35.6692    6.7267 O   0  0  0  0  0  0  0  0  0  0  0  0
  -19.2628   33.8226    7.9307 O   0  0  0  0  0  0  0  0  0  0  0  0
  -16.7069   30.5554    7.2637 H   0  0  0  0  0  0  0  0  0  0  0  0
  -16.6754   29.2569    6.0229 H   0  0  0  0  0  0  0  0  0  0  0  0
  -15.4083   30.5302    6.0229 H   0  0  0  0  0  0  0  0  0  0  0  0
  -18.8523   31.6931    6.9773 H   0  0  0  0  0  0  0  0  0  0  0  0
  -20.1199   30.8812    3.9394 H   0  0  0  0  0  0  0  0  0  0  0  0
  -21.9487   32.0789    2.7485 H   0  0  0  0  0  0  0  0  0  0  0  0
  -21.4243   35.4706    5.3559 H   0  0  0  0  0  0  0  0  0  0  0  0
  2  1  1  0
  2  3  2  0
  2  4  2  0
  2  5  1  1
  5  6  1  0
  6  7  2  0
  6 12  1  0
  7  8  1  0
  8  9  2  0
  9 10  1  0
  9 11  1  0
 11 12  2  0
 12 13  1  0
 13 14  2  0
 13 15  1  0
  1 16  1  0
  1 17  1  0
  1 18  1  0
  5 19  1  0
  7 20  1  0
  8 21  1  0
 11 22  1  0
M  CHG  1  15  -1
M  END
>  <filename_input>  (21) 
6ZC3_JOR_docked.sdf

>  <pdb_id>  (21) 
6ZC3_JOR

>  <pose_rank>  (21) 
20

>  <num_atoms_heavy>  (21) 
15

>  <num_torsions>  (21) 
3

>  <pose>  (21) 
[-19.760398178413215, 32.49895834687687, 5.326921208413509, -1.455798463409323, -0.889503327822178, -1.351421096299115, -4.392319106070367, -4.01117124660343, -1.9005056104041227]

>  <energy>  (21) 
-388.55188529039964

>  <inter_energy>  (21) 
-412.5716816753546

>  <intra_energy>  (21) 
29.99246950751333

>  <rmsd>  (21) 
3.74724

>  <sdf_rank>  (21) 
0

$$$$

     RDKit          3D

 22 22  0  0  0  0  0  0  0  0999 V2000
  -21.7589   36.4875    5.3846 C   0  0  0  0  0  0  0  0  0  0  0  0
  -20.1906   36.3800    4.5483 S   0  0  2  0  0  0  0  0  0  0  0  0
  -19.0833   36.5688    5.5402 O   0  0  0  0  0  0  0  0  0  0  0  0
  -20.1143   37.4472    3.4977 O   0  0  0  0  0  0  0  0  0  0  0  0
  -20.0485   34.9131    3.8469 N   0  0  0  0  0  0  0  0  0  0  0  0
  -20.9579   33.9680    4.0752 C   0  0  0  0  0  0  0  0  0  0  0  0
  -21.9968   33.7697    3.1716 C   0  0  0  0  0  0  0  0  0  0  0  0
  -22.9513   32.7863    3.4092 C   0  0  0  0  0  0  0  0  0  0  0  0
  -22.8763   32.0072    4.5585 C   0  0  0  0  0  0  0  0  0  0  0  0
  -23.7974   31.0543    4.7980 F   0  0  0  0  0  0  0  0  0  0  0  0
  -21.8433   32.2090    5.4635 C   0  0  0  0  0  0  0  0  0  0  0  0
  -20.8880   33.1903    5.2270 C   0  0  0  0  0  0  0  0  0  0  0  0
  -19.7645   33.3951    6.2410 C   0  0  0  0  0  0  0  0  0  0  0  0
  -20.0597   33.8804    7.3546 O   0  0  0  0  0  0  0  0  0  0  0  0
  -18.6163   33.0274    5.9095 O   0  0  0  0  0  0  0  0  0  0  0  0
  -21.5959   36.4763    6.4724 H   0  0  0  0  0  0  0  0  0  0  0  0
  -22.2634   37.4223    5.0990 H   0  0  0  0  0  0  0  0  0  0  0  0
  -22.3863   35.6302    5.0990 H   0  0  0  0  0  0  0  0  0  0  0  0
  -19.2513   34.7176    3.2246 H   0  0  0  0  0  0  0  0  0  0  0  0
  -22.0636   34.3921    2.2671 H   0  0  0  0  0  0  0  0  0  0  0  0
  -23.7658   32.6249    2.6877 H   0  0  0  0  0  0  0  0  0  0  0  0
  -21.7806   31.5902    6.3708 H   0  0  0  0  0  0  0  0  0  0  0  0
  2  1  1  0
  2  3  2  0
  2  4  2  0
  2  5  1  6
  5  6  1  0
  6  7  2  0
  6 12  1  0
  7  8  1  0
  8  9  2  0
  9 10  1  0
  9 11  1  0
 11 12  2  0
 12 13  1  0
 13 14  2  0
 13 15  1  0
  1 16  1  0
  1 17  1  0
  1 18  1  0
  5 19  1  0
  7 20  1  0
  8 21  1  0
 11 22  1  0
M  CHG  1  15  -1
M  END
>  <filename_input>  (22) 
6ZC3_JOR_docked.sdf

>  <pdb_id>  (22) 
6ZC3_JOR

>  <pose_rank>  (22) 
21

>  <num_atoms_heavy>  (22) 
15

>  <num_torsions>  (22) 
3

>  <pose>  (22) 
[-20.95792568284588, 33.96802868438407, 4.075230527297297, -1.2420788381070411, -4.600170261823408, -4.2751915736611945, -4.813284325465338, -3.314589197560851, 0.9797488915976257]

>  <energy>  (22) 
-376.003744977271

>  <inter_energy>  (22) 
-404.0319011614886

>  <intra_energy>  (22) 
19.05464816734525

>  <rmsd>  (22) 
2.28791

>  <sdf_rank>  (22) 
0

$$$$

     RDKit          3D

 22 22  0  0  0  0  0  0  0  0999 V2000
  -17.2275   32.9348    5.3391 C   0  0  0  0  0  0  0  0  0  0  0  0
  -17.5005   34.0221    3.9557 S   0  0  2  0  0  0  0  0  0  0  0  0
  -17.9007   33.2142    2.7587 O   0  0  0  0  0  0  0  0  0  0  0  0
  -16.2373   34.7731    3.6580 O   0  0  0  0  0  0  0  0  0  0  0  0
  -18.6898   35.0784    4.3215 N   0  0  0  0  0  0  0  0  0  0  0  0
  -19.8903   34.6373    4.6908 C   0  0  0  0  0  0  0  0  0  0  0  0
  -20.1521   34.3728    6.0312 C   0  0  0  0  0  0  0  0  0  0  0  0
  -21.4039   33.9075    6.4200 C   0  0  0  0  0  0  0  0  0  0  0  0
  -22.3933   33.6932    5.4668 C   0  0  0  0  0  0  0  0  0  0  0  0
  -23.6075   33.2406    5.8338 F   0  0  0  0  0  0  0  0  0  0  0  0
  -22.1305   33.9511    4.1285 C   0  0  0  0  0  0  0  0  0  0  0  0
  -20.8807   34.4172    3.7383 C   0  0  0  0  0  0  0  0  0  0  0  0
  -20.6160   34.6886    2.2589 C   0  0  0  0  0  0  0  0  0  0  0  0
  -20.8913   33.7869    1.4381 O   0  0  0  0  0  0  0  0  0  0  0  0
  -20.1734   35.8167    1.9512 O   0  0  0  0  0  0  0  0  0  0  0  0
  -17.3675   33.4924    6.2769 H   0  0  0  0  0  0  0  0  0  0  0  0
  -17.9442   32.1014    5.2975 H   0  0  0  0  0  0  0  0  0  0  0  0
  -16.2020   32.5389    5.2975 H   0  0  0  0  0  0  0  0  0  0  0  0
  -18.5105   36.0912    4.2664 H   0  0  0  0  0  0  0  0  0  0  0  0
  -19.3673   34.5319    6.7853 H   0  0  0  0  0  0  0  0  0  0  0  0
  -21.6111   33.7090    7.4819 H   0  0  0  0  0  0  0  0  0  0  0  0
  -22.9140   33.7861    3.3742 H   0  0  0  0  0  0  0  0  0  0  0  0
  2  1  1  0
  2  3  2  0
  2  4  2  0
  2  5  1  1
  5  6  1  0
  6  7  2  0
  6 12  1  0
  7  8  1  0
  8  9  2  0
  9 10  1  0
  9 11  1  0
 11 12  2  0
 12 13  1  0
 13 14  2  0
 13 15  1  0
  1 16  1  0
  1 17  1  0
  1 18  1  0
  5 19  1  0
  7 20  1  0
  8 21  1  0
 11 22  1  0
M  CHG  1  15  -1
M  END
>  <filename_input>  (23) 
6ZC3_JOR_docked.sdf

>  <pdb_id>  (23) 
6ZC3_JOR

>  <pose_rank>  (23) 
22

>  <num_atoms_heavy>  (23) 
15

>  <num_torsions>  (23) 
3

>  <pose>  (23) 
[-19.890337362424116, 34.637313790992536, 4.690782331877128, -2.672139503558615, -1.9666516191292285, 1.028924148985678, -4.489520256156235, -3.465038907141716, 0.1190200879153439]

>  <energy>  (23) 
-319.2824484898203

>  <inter_energy>  (23) 
-348.22927549405927

>  <intra_energy>  (23) 
28.752055091480692

>  <rmsd>  (23) 
3.29792

>  <sdf_rank>  (23) 
0

$$$$

     RDKit          3D

 22 22  0  0  0  0  0  0  0  0999 V2000
  -22.1309   36.6940    6.7911 C   0  0  0  0  0  0  0  0  0  0  0  0
  -20.7127   35.8331    6.1444 S   0  0  2  0  0  0  0  0  0  0  0  0
  -20.7057   34.4264    6.6609 O   0  0  0  0  0  0  0  0  0  0  0  0
  -19.4630   36.5372    6.5815 O   0  0  0  0  0  0  0  0  0  0  0  0
  -20.7859   35.8138    4.5140 N   0  0  0  0  0  0  0  0  0  0  0  0
  -20.9026   34.6600    3.8601 C   0  0  0  0  0  0  0  0  0  0  0  0
  -22.1616   34.1143    3.6317 C   0  0  0  0  0  0  0  0  0  0  0  0
  -22.2870   32.9067    2.9529 C   0  0  0  0  0  0  0  0  0  0  0  0
  -21.1519   32.2354    2.5121 C   0  0  0  0  0  0  0  0  0  0  0  0
  -21.2635   31.0644    1.8561 F   0  0  0  0  0  0  0  0  0  0  0  0
  -19.8951   32.7766    2.7453 C   0  0  0  0  0  0  0  0  0  0  0  0
  -19.7680   33.9836    3.4224 C   0  0  0  0  0  0  0  0  0  0  0  0
  -18.3736   34.5549    3.6701 C   0  0  0  0  0  0  0  0  0  0  0  0
  -17.4741   33.7690    4.0391 O   0  0  0  0  0  0  0  0  0  0  0  0
  -18.2040   35.7741    3.4509 O   0  0  0  0  0  0  0  0  0  0  0  0
  -22.1009   36.6758    7.8905 H   0  0  0  0  0  0  0  0  0  0  0  0
  -22.1178   37.7368    6.4411 H   0  0  0  0  0  0  0  0  0  0  0  0
  -23.0499   36.2013    6.4411 H   0  0  0  0  0  0  0  0  0  0  0  0
  -20.7417   36.6985    3.9885 H   0  0  0  0  0  0  0  0  0  0  0  0
  -23.0601   34.6389    3.9888 H   0  0  0  0  0  0  0  0  0  0  0  0
  -23.2844   32.4828    2.7647 H   0  0  0  0  0  0  0  0  0  0  0  0
  -18.9968   32.2484    2.3932 H   0  0  0  0  0  0  0  0  0  0  0  0
  2  1  1  0
  2  3  2  0
  2  4  2  0
  2  5  1  6
  5  6  1  0
  6  7  2  0
  6 12  1  0
  7  8  1  0
  8  9  2  0
  9 10  1  0
  9 11  1  0
 11 12  2  0
 12 13  1  0
 13 14  2  0
 13 15  1  0
  1 16  1  0
  1 17  1  0
  1 18  1  0
  5 19  1  0
  7 20  1  0
  8 21  1  0
 11 22  1  0
M  CHG  1  15  -1
M  END
>  <filename_input>  (24) 
6ZC3_JOR_docked.sdf

>  <pdb_id>  (24) 
6ZC3_JOR

>  <pose_rank>  (24) 
23

>  <num_atoms_heavy>  (24) 
15

>  <num_torsions>  (24) 
3

>  <pose>  (24) 
[-20.90258227790099, 34.660039190818345, 3.8601431044934214, -3.461791905570517, -2.5704246610460313, -2.201693810333009, -4.3459610783701486, -3.4927491238830317, -0.9206346150359314]

>  <energy>  (24) 
-337.1486616342328

>  <inter_energy>  (24) 
-352.431144679066

>  <intra_energy>  (24) 
19.812003071639094

>  <rmsd>  (24) 
3.52554

>  <sdf_rank>  (24) 
0

$$$$

     RDKit          3D

 22 22  0  0  0  0  0  0  0  0999 V2000
  -22.6516   32.0694    1.7769 C   0  0  0  0  0  0  0  0  0  0  0  0
  -21.6786   31.9486    3.2633 S   0  0  2  0  0  0  0  0  0  0  0  0
  -20.2333   31.7888    2.9009 O   0  0  0  0  0  0  0  0  0  0  0  0
  -22.1334   30.7618    4.0590 O   0  0  0  0  0  0  0  0  0  0  0  0
  -21.8705   33.3056    4.1497 N   0  0  0  0  0  0  0  0  0  0  0  0
  -21.1045   34.3705    3.9229 C   0  0  0  0  0  0  0  0  0  0  0  0
  -21.3242   35.1582    2.7976 C   0  0  0  0  0  0  0  0  0  0  0  0
  -20.5230   36.2690    2.5549 C   0  0  0  0  0  0  0  0  0  0  0  0
  -19.4910   36.5871    3.4310 C   0  0  0  0  0  0  0  0  0  0  0  0
  -18.7086   37.6593    3.2029 F   0  0  0  0  0  0  0  0  0  0  0  0
  -19.2675   35.7976    4.5507 C   0  0  0  0  0  0  0  0  0  0  0  0
  -20.0680   34.6881    4.7952 C   0  0  0  0  0  0  0  0  0  0  0  0
  -19.7979   33.8335    6.0318 C   0  0  0  0  0  0  0  0  0  0  0  0
  -19.2566   32.7186    5.8682 O   0  0  0  0  0  0  0  0  0  0  0  0
  -20.1006   34.3186    7.1437 O   0  0  0  0  0  0  0  0  0  0  0  0
  -23.7110   32.2009    2.0418 H   0  0  0  0  0  0  0  0  0  0  0  0
  -22.3117   32.9322    1.1853 H   0  0  0  0  0  0  0  0  0  0  0  0
  -22.5329   31.1496    1.1853 H   0  0  0  0  0  0  0  0  0  0  0  0
  -22.5877   33.3381    4.8882 H   0  0  0  0  0  0  0  0  0  0  0  0
  -22.1335   34.9021    2.0980 H   0  0  0  0  0  0  0  0  0  0  0  0
  -20.7057   36.8959    1.6698 H   0  0  0  0  0  0  0  0  0  0  0  0
  -18.4542   36.0509    5.2466 H   0  0  0  0  0  0  0  0  0  0  0  0
  2  1  1  0
  2  3  2  0
  2  4  2  0
  2  5  1  1
  5  6  1  0
  6  7  2  0
  6 12  1  0
  7  8  1  0
  8  9  2  0
  9 10  1  0
  9 11  1  0
 11 12  2  0
 12 13  1  0
 13 14  2  0
 13 15  1  0
  1 16  1  0
  1 17  1  0
  1 18  1  0
  5 19  1  0
  7 20  1  0
  8 21  1  0
 11 22  1  0
M  CHG  1  15  -1
M  END
>  <filename_input>  (25) 
6ZC3_JOR_docked.sdf

>  <pdb_id>  (25) 
6ZC3_JOR

>  <pose_rank>  (25) 
24

>  <num_atoms_heavy>  (25) 
15

>  <num_torsions>  (25) 
3

>  <pose>  (25) 
[-21.104502540506186, 34.370472246419176, 3.9228532320549823, -1.6524503090798421, 0.6379787993038214, -2.519970776502583, -5.446048663359033, -3.709185658326836, -0.401478842944721]

>  <energy>  (25) 
-399.04202369775504

>  <inter_energy>  (25) 
-403.19679069494174

>  <intra_energy>  (25) 
6.91306787117907

>  <rmsd>  (25) 
4.31504

>  <sdf_rank>  (25) 
0

$$$$

     RDKit          3D

 22 22  0  0  0  0  0  0  0  0999 V2000
  -17.6500   35.2340    3.5070 C   0  0  0  0  0  0  0  0  0  0  0  0
  -18.8230   36.5410    3.2130 S   0  0  2  0  0  0  0  0  0  0  0  0
  -19.5860   36.2520    1.9560 O   0  0  0  0  0  0  0  0  0  0  0  0
  -18.0910   37.8420    3.0710 O   0  0  0  0  0  0  0  0  0  0  0  0
  -19.8600   36.6330    4.4700 N   0  0  0  0  0  0  0  0  0  0  0  0
  -20.6700   35.6140    4.7490 C   0  0  0  0  0  0  0  0  0  0  0  0
  -21.7640   35.3510    3.9310 C   0  0  0  0  0  0  0  0  0  0  0  0
  -22.6150   34.2900    4.2220 C   0  0  0  0  0  0  0  0  0  0  0  0
  -22.3810   33.4970    5.3400 C   0  0  0  0  0  0  0  0  0  0  0  0
  -23.2010   32.4690    5.6310 F   0  0  0  0  0  0  0  0  0  0  0  0
  -21.2930   33.7630    6.1600 C   0  0  0  0  0  0  0  0  0  0  0  0
  -20.4410   34.8220    5.8700 C   0  0  0  0  0  0  0  0  0  0  0  0
  -19.2540   35.0960    6.7910 C   0  0  0  0  0  0  0  0  0  0  0  0
  -18.8090   36.2630    6.8440 O   0  0  0  0  0  0  0  0  0  0  0  0
  -18.8200   34.1400    7.4700 O   0  0  0  0  0  0  0  0  0  0  0  0
  -17.5228   35.0923    4.5904 H   0  0  0  0  0  0  0  0  0  0  0  0
  -18.0197   34.3013    3.0561 H   0  0  0  0  0  0  0  0  0  0  0  0
  -16.6828   35.5010    3.0561 H   0  0  0  0  0  0  0  0  0  0  0  0
  -19.8879   37.4836    5.0502 H   0  0  0  0  0  0  0  0  0  0  0  0
  -21.9565   35.9836    3.0520 H   0  0  0  0  0  0  0  0  0  0  0  0
  -23.4734   34.0782    3.5675 H   0  0  0  0  0  0  0  0  0  0  0  0
  -21.1046   33.1335    7.0422 H   0  0  0  0  0  0  0  0  0  0  0  0
  2  1  1  0
  2  3  2  0
  2  4  2  0
  2  5  1  1
  5  6  1  0
  6  7  2  0
  6 12  1  0
  7  8  1  0
  8  9  2  0
  9 10  1  0
  9 11  1  0
 11 12  2  0
 12 13  1  0
 13 14  2  0
 13 15  1  0
  1 16  1  0
  1 17  1  0
  1 18  1  0
  5 19  1  0
  7 20  1  0
  8 21  1  0
 11 22  1  0
M  CHG  1  15  -1
M  END
>  <filename_input>  (26) 
6ZC3_JOR_docked.sdf

>  <pdb_id>  (26) 
6ZC3_JOR

>  <pose_rank>  (26) 
25

>  <num_atoms_heavy>  (26) 
15

>  <num_torsions>  (26) 
3

>  <pose>  (26) 
[-20.67, 35.614, 4.749, 1e-06, 1e-06, 1e-06, 0.0, 0.0, 0.0]

>  <energy>  (26) 
-564.6356944026066

>  <inter_energy>  (26) 
-591.082245435847

>  <intra_energy>  (26) 
32.520126551135625

>  <rmsd>  (26) 
0.0

>  <sdf_rank>  (26) 
0

$$$$
