
     RDKit          3D

 60 64  0  0  0  0  0  0  0  0999 V2000
    5.0468    3.2049   12.7482 C   0  0  0  0  0  0  0  0  0  0  0  0
    3.6408    3.1233   12.5698 C   0  0  0  0  0  0  0  0  0  0  0  0
    3.2400    1.9748   13.2085 C   0  0  0  0  0  0  0  0  0  0  0  0
   -2.9003   -1.9960   13.8423 N   0  0  0  0  0  0  0  0  0  0  0  0
    3.3411   -1.3050   15.7456 C   0  0  0  0  0  0  0  0  0  0  0  0
    0.9172   -2.0615   15.3536 C   0  0  0  0  0  0  0  0  0  0  0  0
    0.0495   -3.0512   15.8237 C   0  0  0  0  0  0  0  0  0  0  0  0
   -1.2631   -3.1143   15.3830 C   0  0  0  0  0  0  0  0  0  0  0  0
   -1.6882   -2.1930   14.4345 C   0  0  0  0  0  0  0  0  0  0  0  0
   -0.8326   -1.2045   13.9374 C   0  0  0  0  0  0  0  0  0  0  0  0
    0.4916   -1.1574   14.3716 C   0  0  0  0  0  0  0  0  0  0  0  0
   -1.6352   -0.4705   12.9968 C   0  0  0  0  0  0  0  0  0  0  0  0
   -4.1211   -2.7708   14.0119 C   0  0  0  0  0  0  0  0  0  0  0  0
   -1.2091    0.6855   12.1539 C   0  0  0  0  0  0  0  0  0  0  0  0
    0.7500    4.8445   11.0220 C   0  0  0  0  0  0  0  0  0  0  0  0
    0.5468    6.3014   11.6478 C   0  0  0  0  0  0  0  0  0  0  0  0
    1.0587    4.8333   13.3983 C   0  0  0  0  0  0  0  0  0  0  0  0
   -0.2231    0.5875   11.4268 O   0  0  0  0  0  0  0  0  0  0  0  0
   -1.9829    1.7709   12.2154 N   0  0  0  0  0  0  0  0  0  0  0  0
   -1.6948    2.9695   11.4383 C   0  0  0  0  0  0  0  0  0  0  0  0
   -2.8634   -0.9756   12.9230 N   0  0  0  0  0  0  0  0  0  0  0  0
    2.2151   -2.0600   15.9137 N   0  0  0  0  0  0  0  0  0  0  0  0
    4.3785   -1.6210   16.5372 N   0  0  0  0  0  0  0  0  0  0  0  0
    5.4996   -0.8994   16.3456 C   0  0  0  0  0  0  0  0  0  0  0  0
    5.6244    0.1164   15.4118 C   0  0  0  0  0  0  0  0  0  0  0  0
    3.3091   -0.3346   14.8209 N   0  0  0  0  0  0  0  0  0  0  0  0
    4.4493    0.3538   14.6630 C   0  0  0  0  0  0  0  0  0  0  0  0
    4.3598    1.4617   13.7767 N   0  0  0  0  0  0  0  0  0  0  0  0
    5.4536    2.2364   13.5432 N   0  0  0  0  0  0  0  0  0  0  0  0
    6.0323    4.2091   12.2444 C   0  0  0  0  0  0  0  0  0  0  0  0
    2.9314    3.9938   11.8381 N   0  0  0  0  0  0  0  0  0  0  0  0
    1.4933    4.0795   12.1202 C   0  0  2  0  0  0  0  0  0  0  0  0
    1.0863    6.2559   13.0233 N   0  0  0  0  0  0  0  0  0  0  0  0
    2.2229    1.5581   13.2504 H   0  0  0  0  0  0  0  0  0  0  0  0
    0.4132   -3.7899   16.5532 H   0  0  0  0  0  0  0  0  0  0  0  0
   -1.9523   -3.8766   15.7754 H   0  0  0  0  0  0  0  0  0  0  0  0
    1.1916   -0.4214   13.9494 H   0  0  0  0  0  0  0  0  0  0  0  0
   -4.3265   -2.9011   15.0847 H   0  0  0  0  0  0  0  0  0  0  0  0
   -4.9609   -2.2400   13.5396 H   0  0  0  0  0  0  0  0  0  0  0  0
   -3.9983   -3.7566   13.5396 H   0  0  0  0  0  0  0  0  0  0  0  0
   -0.2192    4.3730   10.8025 H   0  0  0  0  0  0  0  0  0  0  0  0
    1.2982    4.8623   10.0685 H   0  0  0  0  0  0  0  0  0  0  0  0
    1.0918    7.0485   11.0521 H   0  0  0  0  0  0  0  0  0  0  0  0
   -0.5161    6.5844   11.6505 H   0  0  0  0  0  0  0  0  0  0  0  0
    0.0449    4.5317   13.7002 H   0  0  0  0  0  0  0  0  0  0  0  0
    1.7170    4.6162   14.2524 H   0  0  0  0  0  0  0  0  0  0  0  0
   -2.8088    1.7612   12.8308 H   0  0  0  0  0  0  0  0  0  0  0  0
   -1.4930    3.8088   12.1202 H   0  0  0  0  0  0  0  0  0  0  0  0
   -0.8136    2.7924   10.8042 H   0  0  0  0  0  0  0  0  0  0  0  0
   -2.5602    3.2122   10.8042 H   0  0  0  0  0  0  0  0  0  0  0  0
    2.3419   -2.8043   16.6144 H   0  0  0  0  0  0  0  0  0  0  0  0
    6.3736   -1.1319   16.9718 H   0  0  0  0  0  0  0  0  0  0  0  0
    6.5537    0.6865   15.2664 H   0  0  0  0  0  0  0  0  0  0  0  0
    6.5190    4.7050   13.0972 H   0  0  0  0  0  0  0  0  0  0  0  0
    6.7927    3.7016   11.6326 H   0  0  0  0  0  0  0  0  0  0  0  0
    5.5107    4.9598   11.6326 H   0  0  0  0  0  0  0  0  0  0  0  0
    3.3743    4.5752   11.1124 H   0  0  0  0  0  0  0  0  0  0  0  0
    1.2484    3.0114   12.2154 H   0  0  0  0  0  0  0  0  0  0  0  0
    2.0505    6.6173   13.0458 H   0  0  0  0  0  0  0  0  0  0  0  0
    0.5374    6.8372   13.6728 H   0  0  0  0  0  0  0  0  0  0  0  0
  1  2  1  0
  1 29  2  0
  1 30  1  0
  2  3  2  0
  2 31  1  0
  3 28  1  0
  4  9  1  0
  4 13  1  0
  4 21  1  0
  5 22  1  0
  5 23  2  0
  5 26  1  0
  6  7  2  0
  6 11  1  0
  6 22  1  0
  7  8  1  0
  8  9  2  0
  9 10  1  0
 10 11  2  0
 10 12  1  0
 12 14  1  0
 12 21  2  0
 14 18  2  0
 14 19  1  0
 15 16  1  0
 15 32  1  0
 16 33  1  0
 17 32  1  0
 17 33  1  0
 19 20  1  0
 23 24  1  0
 24 25  2  0
 25 27  1  0
 26 27  2  0
 27 28  1  0
 28 29  1  0
 32 31  1  0
  3 34  1  0
  7 35  1  0
  8 36  1  0
 11 37  1  0
 13 38  1  0
 13 39  1  0
 13 40  1  0
 15 41  1  0
 15 42  1  0
 16 43  1  0
 16 44  1  0
 17 45  1  0
 17 46  1  0
 19 47  1  0
 20 48  1  0
 20 49  1  0
 20 50  1  0
 22 51  1  0
 24 52  1  0
 25 53  1  0
 30 54  1  0
 30 55  1  0
 30 56  1  0
 31 57  1  0
 32 58  1  1
 33 59  1  0
 33 60  1  0
M  CHG  1  33   1
M  END
>  <filename_input>  (1) 
6ZCY_QF8_docked.sdf

>  <pdb_id>  (1) 
6ZCY_QF8

>  <pose_rank>  (1) 
0

>  <num_atoms_heavy>  (1) 
33

>  <num_torsions>  (1) 
4

>  <pose>  (1) 
[5.04679284865156, 3.2049125397384377, 12.748178535003175, 6.131047931936087, -0.4998321965326236, -1.1805814382905506, 12.648256357193342, 0.9866057487097833, 6.354680609265454, 0.2893362277686942]

>  <energy>  (1) 
-2119.3675365443837

>  <inter_energy>  (1) 
-2145.752921805302

>  <intra_energy>  (1) 
35.6533843559299

>  <rmsd>  (1) 
0.395841

>  <sdf_rank>  (1) 
0

$$$$

     RDKit          3D

 60 64  0  0  0  0  0  0  0  0999 V2000
    5.0304    3.2439   12.8322 C   0  0  0  0  0  0  0  0  0  0  0  0
    3.6235    3.1765   12.6552 C   0  0  0  0  0  0  0  0  0  0  0  0
    3.2140    2.0232   13.2795 C   0  0  0  0  0  0  0  0  0  0  0  0
   -2.8537   -1.9813   13.6249 N   0  0  0  0  0  0  0  0  0  0  0  0
    3.2913   -1.2901   15.7734 C   0  0  0  0  0  0  0  0  0  0  0  0
    0.8605   -2.0210   15.3758 C   0  0  0  0  0  0  0  0  0  0  0  0
    0.4191   -0.7867   14.8911 C   0  0  0  0  0  0  0  0  0  0  0  0
   -0.8170   -0.6648   14.2759 C   0  0  0  0  0  0  0  0  0  0  0  0
   -1.6248   -1.7909   14.1839 C   0  0  0  0  0  0  0  0  0  0  0  0
   -1.2108   -3.0326   14.6770 C   0  0  0  0  0  0  0  0  0  0  0  0
    0.0262   -3.1447   15.3106 C   0  0  0  0  0  0  0  0  0  0  0  0
   -2.3080   -3.9182   14.3949 C   0  0  0  0  0  0  0  0  0  0  0  0
   -3.7164   -0.9947   12.9911 C   0  0  0  0  0  0  0  0  0  0  0  0
   -2.4082   -5.3689   14.7326 C   0  0  0  0  0  0  0  0  0  0  0  0
    0.7943    4.7747   10.8775 C   0  0  0  0  0  0  0  0  0  0  0  0
    0.2902    6.0754   11.6581 C   0  0  0  0  0  0  0  0  0  0  0  0
    0.7268    4.4102   13.2449 C   0  0  0  0  0  0  0  0  0  0  0  0
   -2.9493   -5.7221   15.7780 O   0  0  0  0  0  0  0  0  0  0  0  0
   -1.9262   -6.2162   13.8214 N   0  0  0  0  0  0  0  0  0  0  0  0
   -1.9674   -7.6603   14.0119 C   0  0  0  0  0  0  0  0  0  0  0  0
   -3.3014   -3.2690   13.7944 N   0  0  0  0  0  0  0  0  0  0  0  0
    2.1592   -2.0378   15.9337 N   0  0  0  0  0  0  0  0  0  0  0  0
    4.3273   -1.6252   16.5591 N   0  0  0  0  0  0  0  0  0  0  0  0
    5.4541   -0.9107   16.3751 C   0  0  0  0  0  0  0  0  0  0  0  0
    5.5860    0.1161   15.4544 C   0  0  0  0  0  0  0  0  0  0  0  0
    3.2660   -0.3075   14.8615 N   0  0  0  0  0  0  0  0  0  0  0  0
    4.4118    0.3732   14.7107 C   0  0  0  0  0  0  0  0  0  0  0  0
    4.3303    1.4933   13.8391 N   0  0  0  0  0  0  0  0  0  0  0  0
    5.4303    2.2617   13.6139 N   0  0  0  0  0  0  0  0  0  0  0  0
    6.0236    4.2462   12.3399 C   0  0  0  0  0  0  0  0  0  0  0  0
    2.9204    4.0625   11.9361 N   0  0  0  0  0  0  0  0  0  0  0  0
    1.4586    3.9322   11.9695 C   0  0  2  0  0  0  0  0  0  0  0  0
    0.6092    5.8684   13.0865 N   0  0  0  0  0  0  0  0  0  0  0  0
    2.1934    1.6146   13.3177 H   0  0  0  0  0  0  0  0  0  0  0  0
    1.0612    0.0999   14.9992 H   0  0  0  0  0  0  0  0  0  0  0  0
   -1.1505    0.3016   13.8699 H   0  0  0  0  0  0  0  0  0  0  0  0
    0.3423   -4.1011   15.7525 H   0  0  0  0  0  0  0  0  0  0  0  0
   -4.2309   -0.4063   13.7652 H   0  0  0  0  0  0  0  0  0  0  0  0
   -3.1090   -0.3249   12.3647 H   0  0  0  0  0  0  0  0  0  0  0  0
   -4.4612   -1.5073   12.3647 H   0  0  0  0  0  0  0  0  0  0  0  0
   -0.0515    4.2356   10.4259 H   0  0  0  0  0  0  0  0  0  0  0  0
    1.4764    5.0126   10.0479 H   0  0  0  0  0  0  0  0  0  0  0  0
    0.8091    6.9686   11.2800 H   0  0  0  0  0  0  0  0  0  0  0  0
   -0.7896    6.2281   11.5135 H   0  0  0  0  0  0  0  0  0  0  0  0
   -0.2682    3.9468   13.3174 H   0  0  0  0  0  0  0  0  0  0  0  0
    1.2678    4.1344   14.1621 H   0  0  0  0  0  0  0  0  0  0  0  0
   -1.5126   -5.8381   12.9572 H   0  0  0  0  0  0  0  0  0  0  0  0
   -1.9739   -7.8882   15.0881 H   0  0  0  0  0  0  0  0  0  0  0  0
   -2.8775   -8.0659   13.5458 H   0  0  0  0  0  0  0  0  0  0  0  0
   -1.0819   -8.1171   13.5458 H   0  0  0  0  0  0  0  0  0  0  0  0
    2.2808   -2.7922   16.6243 H   0  0  0  0  0  0  0  0  0  0  0  0
    6.3270   -1.1587   16.9967 H   0  0  0  0  0  0  0  0  0  0  0  0
    6.5199    0.6803   15.3148 H   0  0  0  0  0  0  0  0  0  0  0  0
    6.5078    4.7348   13.1983 H   0  0  0  0  0  0  0  0  0  0  0  0
    6.7850    3.7386   11.7295 H   0  0  0  0  0  0  0  0  0  0  0  0
    5.5091    5.0030   11.7295 H   0  0  0  0  0  0  0  0  0  0  0  0
    3.3838    4.7999   11.3861 H   0  0  0  0  0  0  0  0  0  0  0  0
    1.3567    2.8417   11.8673 H   0  0  0  0  0  0  0  0  0  0  0  0
    1.4966    6.3314   13.3297 H   0  0  0  0  0  0  0  0  0  0  0  0
   -0.1115    6.2672   13.7049 H   0  0  0  0  0  0  0  0  0  0  0  0
  1  2  1  0
  1 29  2  0
  1 30  1  0
  2  3  2  0
  2 31  1  0
  3 28  1  0
  4  9  1  0
  4 13  1  0
  4 21  1  0
  5 22  1  0
  5 23  2  0
  5 26  1  0
  6  7  2  0
  6 11  1  0
  6 22  1  0
  7  8  1  0
  8  9  2  0
  9 10  1  0
 10 11  2  0
 10 12  1  0
 12 14  1  0
 12 21  2  0
 14 18  2  0
 14 19  1  0
 15 16  1  0
 15 32  1  0
 16 33  1  0
 17 32  1  0
 17 33  1  0
 19 20  1  0
 23 24  1  0
 24 25  2  0
 25 27  1  0
 26 27  2  0
 27 28  1  0
 28 29  1  0
 32 31  1  0
  3 34  1  0
  7 35  1  0
  8 36  1  0
 11 37  1  0
 13 38  1  0
 13 39  1  0
 13 40  1  0
 15 41  1  0
 15 42  1  0
 16 43  1  0
 16 44  1  0
 17 45  1  0
 17 46  1  0
 19 47  1  0
 20 48  1  0
 20 49  1  0
 20 50  1  0
 22 51  1  0
 24 52  1  0
 25 53  1  0
 30 54  1  0
 30 55  1  0
 30 56  1  0
 31 57  1  0
 32 58  1  6
 33 59  1  0
 33 60  1  0
M  CHG  1  33   1
M  END
>  <filename_input>  (2) 
6ZCY_QF8_docked.sdf

>  <pdb_id>  (2) 
6ZCY_QF8

>  <pose_rank>  (2) 
1

>  <num_atoms_heavy>  (2) 
33

>  <num_torsions>  (2) 
4

>  <pose>  (2) 
[5.030413288744185, 3.243911562531766, 12.832199582847458, 4.551256323304682, -2.4372467637261868, 3.5663990750097394, -3.498506047319483, 1.6771689174361617, -0.18765357316898446, -5.999112384485408]

>  <energy>  (2) 
-1894.0075708693253

>  <inter_energy>  (2) 
-1913.34993732171

>  <intra_energy>  (2) 
23.550209855043985

>  <rmsd>  (2) 
3.2675

>  <sdf_rank>  (2) 
0

$$$$

     RDKit          3D

 60 64  0  0  0  0  0  0  0  0999 V2000
   -0.1400   -3.0442   15.1964 C   0  0  0  0  0  0  0  0  0  0  0  0
   -0.3469   -2.2028   14.0719 C   0  0  0  0  0  0  0  0  0  0  0  0
    0.7245   -1.3436   14.0345 C   0  0  0  0  0  0  0  0  0  0  0  0
    2.6837    4.5868   10.2657 N   0  0  0  0  0  0  0  0  0  0  0  0
    4.4919    0.2144   14.7977 C   0  0  0  0  0  0  0  0  0  0  0  0
    4.3454    2.1757   13.1444 C   0  0  0  0  0  0  0  0  0  0  0  0
    5.2393    2.8001   12.2701 C   0  0  0  0  0  0  0  0  0  0  0  0
    4.7822    3.6291   11.2577 C   0  0  0  0  0  0  0  0  0  0  0  0
    3.4157    3.8554   11.1533 C   0  0  0  0  0  0  0  0  0  0  0  0
    2.5042    3.2546   12.0275 C   0  0  0  0  0  0  0  0  0  0  0  0
    2.9716    2.4359   13.0548 C   0  0  0  0  0  0  0  0  0  0  0  0
    1.2189    3.7338   11.5958 C   0  0  0  0  0  0  0  0  0  0  0  0
    3.1647    5.4125    9.1674 C   0  0  0  0  0  0  0  0  0  0  0  0
   -0.1106    3.4237   12.1997 C   0  0  0  0  0  0  0  0  0  0  0  0
   -3.7644   -3.0030   12.8737 C   0  0  0  0  0  0  0  0  0  0  0  0
   -4.7121   -1.7255   13.0327 C   0  0  0  0  0  0  0  0  0  0  0  0
   -3.3818   -1.8758   14.9534 C   0  0  0  0  0  0  0  0  0  0  0  0
   -0.4445    3.9511   13.2584 O   0  0  0  0  0  0  0  0  0  0  0  0
   -0.8930    2.5999   11.4999 N   0  0  0  0  0  0  0  0  0  0  0  0
   -2.2214    2.2184   11.9620 C   0  0  0  0  0  0  0  0  0  0  0  0
    1.3420    4.5589   10.5599 N   0  0  0  0  0  0  0  0  0  0  0  0
    4.9204    1.3094   14.1022 N   0  0  0  0  0  0  0  0  0  0  0  0
    5.4024   -0.3589   15.6008 N   0  0  0  0  0  0  0  0  0  0  0  0
    4.9685   -1.4167   16.3129 C   0  0  0  0  0  0  0  0  0  0  0  0
    3.6804   -1.9232   16.2526 C   0  0  0  0  0  0  0  0  0  0  0  0
    3.2232   -0.1808   14.6191 N   0  0  0  0  0  0  0  0  0  0  0  0
    2.8356   -1.2348   15.3524 C   0  0  0  0  0  0  0  0  0  0  0  0
    1.5337   -1.7223   15.0552 N   0  0  0  0  0  0  0  0  0  0  0  0
    1.0364   -2.7920   15.7331 N   0  0  0  0  0  0  0  0  0  0  0  0
   -0.9892   -4.1372   15.7601 C   0  0  0  0  0  0  0  0  0  0  0  0
   -1.4407   -2.2493   13.2986 N   0  0  0  0  0  0  0  0  0  0  0  0
   -2.6666   -2.7709   13.9151 C   0  0  2  0  0  0  0  0  0  0  0  0
   -4.1698   -0.9263   14.1518 N   0  0  0  0  0  0  0  0  0  0  0  0
    0.8914   -0.5201   13.3245 H   0  0  0  0  0  0  0  0  0  0  0  0
    6.3199    2.6313   12.3870 H   0  0  0  0  0  0  0  0  0  0  0  0
    5.4854    4.0970   10.5531 H   0  0  0  0  0  0  0  0  0  0  0  0
    2.2723    2.0007   13.7839 H   0  0  0  0  0  0  0  0  0  0  0  0
    3.6797    6.2965    9.5715 H   0  0  0  0  0  0  0  0  0  0  0  0
    3.8650    4.8304    8.5504 H   0  0  0  0  0  0  0  0  0  0  0  0
    2.3129    5.7346    8.5504 H   0  0  0  0  0  0  0  0  0  0  0  0
   -4.3168   -3.9302   13.0858 H   0  0  0  0  0  0  0  0  0  0  0  0
   -3.3680   -3.1159   11.8538 H   0  0  0  0  0  0  0  0  0  0  0  0
   -4.7063   -1.1323   12.1064 H   0  0  0  0  0  0  0  0  0  0  0  0
   -5.7509   -2.0277   13.2314 H   0  0  0  0  0  0  0  0  0  0  0  0
   -4.0393   -2.4785   15.5971 H   0  0  0  0  0  0  0  0  0  0  0  0
   -2.6718   -1.3661   15.6214 H   0  0  0  0  0  0  0  0  0  0  0  0
   -0.5476    2.2221   10.6061 H   0  0  0  0  0  0  0  0  0  0  0  0
   -2.2395    2.2132   13.0619 H   0  0  0  0  0  0  0  0  0  0  0  0
   -2.9615    2.9403   11.5865 H   0  0  0  0  0  0  0  0  0  0  0  0
   -2.4658    1.2138   11.5865 H   0  0  0  0  0  0  0  0  0  0  0  0
    5.8922    1.5640   14.3294 H   0  0  0  0  0  0  0  0  0  0  0  0
    5.6839   -1.9109   16.9866 H   0  0  0  0  0  0  0  0  0  0  0  0
    3.3455   -2.7832   16.8511 H   0  0  0  0  0  0  0  0  0  0  0  0
   -0.9576   -4.0965   16.8589 H   0  0  0  0  0  0  0  0  0  0  0  0
   -2.0268   -4.0088   15.4181 H   0  0  0  0  0  0  0  0  0  0  0  0
   -0.6083   -5.1109   15.4181 H   0  0  0  0  0  0  0  0  0  0  0  0
   -1.4220   -1.9340   12.3183 H   0  0  0  0  0  0  0  0  0  0  0  0
   -2.2704   -3.6709   14.4082 H   0  0  0  0  0  0  0  0  0  0  0  0
   -3.5703   -0.1676   13.7972 H   0  0  0  0  0  0  0  0  0  0  0  0
   -4.9156   -0.4800   14.7046 H   0  0  0  0  0  0  0  0  0  0  0  0
  1  2  1  0
  1 29  2  0
  1 30  1  0
  2  3  2  0
  2 31  1  0
  3 28  1  0
  4  9  1  0
  4 13  1  0
  4 21  1  0
  5 22  1  0
  5 23  2  0
  5 26  1  0
  6  7  2  0
  6 11  1  0
  6 22  1  0
  7  8  1  0
  8  9  2  0
  9 10  1  0
 10 11  2  0
 10 12  1  0
 12 14  1  0
 12 21  2  0
 14 18  2  0
 14 19  1  0
 15 16  1  0
 15 32  1  0
 16 33  1  0
 17 32  1  0
 17 33  1  0
 19 20  1  0
 23 24  1  0
 24 25  2  0
 25 27  1  0
 26 27  2  0
 27 28  1  0
 28 29  1  0
 32 31  1  0
  3 34  1  0
  7 35  1  0
  8 36  1  0
 11 37  1  0
 13 38  1  0
 13 39  1  0
 13 40  1  0
 15 41  1  0
 15 42  1  0
 16 43  1  0
 16 44  1  0
 17 45  1  0
 17 46  1  0
 19 47  1  0
 20 48  1  0
 20 49  1  0
 20 50  1  0
 22 51  1  0
 24 52  1  0
 25 53  1  0
 30 54  1  0
 30 55  1  0
 30 56  1  0
 31 57  1  0
 32 58  1  1
 33 59  1  0
 33 60  1  0
M  CHG  1  33   1
M  END
>  <filename_input>  (3) 
6ZCY_QF8_docked.sdf

>  <pdb_id>  (3) 
6ZCY_QF8

>  <pose_rank>  (3) 
2

>  <num_atoms_heavy>  (3) 
33

>  <num_torsions>  (3) 
4

>  <pose>  (3) 
[-0.13999338300815034, -3.044243134789113, 15.196405372224175, -2.2681623941525713, 1.0586898792376778, -1.8584700033749615, -5.728660610558313, 1.3564740722959112, 3.2807439852186775, 0.23130189212822416]

>  <energy>  (3) 
-746.7486481152854

>  <inter_energy>  (3) 
-780.7530821241396

>  <intra_energy>  (3) 
48.420533183867875

>  <rmsd>  (3) 
6.72795

>  <sdf_rank>  (3) 
0

$$$$

     RDKit          3D

 60 64  0  0  0  0  0  0  0  0999 V2000
    1.6527   -1.5499   15.6738 C   0  0  0  0  0  0  0  0  0  0  0  0
    0.9060   -0.8230   14.7097 C   0  0  0  0  0  0  0  0  0  0  0  0
    1.7481    0.1492   14.2269 C   0  0  0  0  0  0  0  0  0  0  0  0
    1.2730    6.0034    9.8378 N   0  0  0  0  0  0  0  0  0  0  0  0
    5.2614    2.1846   13.3796 C   0  0  0  0  0  0  0  0  0  0  0  0
    4.2088    3.9888   11.8835 C   0  0  0  0  0  0  0  0  0  0  0  0
    4.6386    5.0127   11.0348 C   0  0  0  0  0  0  0  0  0  0  0  0
    3.7295    5.7503   10.2928 C   0  0  0  0  0  0  0  0  0  0  0  0
    2.3762    5.4735   10.4388 C   0  0  0  0  0  0  0  0  0  0  0  0
    1.9222    4.4650   11.2949 C   0  0  0  0  0  0  0  0  0  0  0  0
    2.8406    3.7385   12.0518 C   0  0  0  0  0  0  0  0  0  0  0  0
    0.4905    4.4965   11.1643 C   0  0  0  0  0  0  0  0  0  0  0  0
    1.2092    7.0929    8.8744 C   0  0  0  0  0  0  0  0  0  0  0  0
   -0.5012    3.6405   11.8799 C   0  0  0  0  0  0  0  0  0  0  0  0
   -1.6749   -1.8150   12.4651 C   0  0  0  0  0  0  0  0  0  0  0  0
   -3.0780   -2.3647   12.9984 C   0  0  0  0  0  0  0  0  0  0  0  0
   -1.3825   -3.4201   14.2201 C   0  0  0  0  0  0  0  0  0  0  0  0
   -0.6920    3.7938   13.0843 O   0  0  0  0  0  0  0  0  0  0  0  0
   -1.1704    2.7659   11.1264 N   0  0  0  0  0  0  0  0  0  0  0  0
   -2.1767    1.8740   11.6880 C   0  0  0  0  0  0  0  0  0  0  0  0
    0.1110    5.4459   10.3137 N   0  0  0  0  0  0  0  0  0  0  0  0
    5.2272    3.2677   12.5477 N   0  0  0  0  0  0  0  0  0  0  0  0
    6.4838    1.7811   13.7612 N   0  0  0  0  0  0  0  0  0  0  0  0
    6.5145    0.7355   14.6097 C   0  0  0  0  0  0  0  0  0  0  0  0
    5.3891    0.0803   15.0826 C   0  0  0  0  0  0  0  0  0  0  0  0
    4.0918    1.6332   13.7341 N   0  0  0  0  0  0  0  0  0  0  0  0
    4.1724    0.5982   14.5833 C   0  0  0  0  0  0  0  0  0  0  0  0
    2.9382   -0.0572   14.8444 N   0  0  0  0  0  0  0  0  0  0  0  0
    2.8994   -1.1244   15.6873 N   0  0  0  0  0  0  0  0  0  0  0  0
    1.2522   -2.6893   16.5540 C   0  0  0  0  0  0  0  0  0  0  0  0
   -0.3871   -1.0525   14.4420 N   0  0  0  0  0  0  0  0  0  0  0  0
   -0.6915   -2.1969   13.5744 C   0  0  2  0  0  0  0  0  0  0  0  0
   -2.8085   -3.0612   14.2740 N   0  0  0  0  0  0  0  0  0  0  0  0
    1.5075    0.9321   13.4926 H   0  0  0  0  0  0  0  0  0  0  0  0
    5.7127    5.2361   10.9546 H   0  0  0  0  0  0  0  0  0  0  0  0
    4.0718    6.5367    9.6041 H   0  0  0  0  0  0  0  0  0  0  0  0
    2.4961    2.9803   12.7704 H   0  0  0  0  0  0  0  0  0  0  0  0
    1.1529    8.0525    9.4093 H   0  0  0  0  0  0  0  0  0  0  0  0
    2.1098    7.0773    8.2430 H   0  0  0  0  0  0  0  0  0  0  0  0
    0.3166    6.9722    8.2430 H   0  0  0  0  0  0  0  0  0  0  0  0
   -1.4006   -2.2961   11.5147 H   0  0  0  0  0  0  0  0  0  0  0  0
   -1.6897   -0.7341   12.2614 H   0  0  0  0  0  0  0  0  0  0  0  0
   -3.7740   -1.5289   13.1632 H   0  0  0  0  0  0  0  0  0  0  0  0
   -3.5382   -3.0456   12.2672 H   0  0  0  0  0  0  0  0  0  0  0  0
   -1.2322   -4.3195   13.6049 H   0  0  0  0  0  0  0  0  0  0  0  0
   -0.9743   -3.6502   15.2153 H   0  0  0  0  0  0  0  0  0  0  0  0
   -0.9696    2.7197   10.1172 H   0  0  0  0  0  0  0  0  0  0  0  0
   -2.1308    1.9147   12.7863 H   0  0  0  0  0  0  0  0  0  0  0  0
   -3.1752    2.1892   11.3509 H   0  0  0  0  0  0  0  0  0  0  0  0
   -1.9838    0.8449   11.3509 H   0  0  0  0  0  0  0  0  0  0  0  0
    6.1654    3.6490   12.3600 H   0  0  0  0  0  0  0  0  0  0  0  0
    7.4978    0.3783   14.9496 H   0  0  0  0  0  0  0  0  0  0  0  0
    5.4380   -0.7664   15.7832 H   0  0  0  0  0  0  0  0  0  0  0  0
    1.3564   -2.3927   17.6081 H   0  0  0  0  0  0  0  0  0  0  0  0
    0.2053   -2.9592   16.3508 H   0  0  0  0  0  0  0  0  0  0  0  0
    1.9000   -3.5548   16.3508 H   0  0  0  0  0  0  0  0  0  0  0  0
   -1.1320   -0.4542   14.8269 H   0  0  0  0  0  0  0  0  0  0  0  0
    0.3227   -2.4704   13.2479 H   0  0  0  0  0  0  0  0  0  0  0  0
   -2.9947   -2.4381   15.0727 H   0  0  0  0  0  0  0  0  0  0  0  0
   -3.4104   -3.8879   14.3974 H   0  0  0  0  0  0  0  0  0  0  0  0
  1  2  1  0
  1 29  2  0
  1 30  1  0
  2  3  2  0
  2 31  1  0
  3 28  1  0
  4  9  1  0
  4 13  1  0
  4 21  1  0
  5 22  1  0
  5 23  2  0
  5 26  1  0
  6  7  2  0
  6 11  1  0
  6 22  1  0
  7  8  1  0
  8  9  2  0
  9 10  1  0
 10 11  2  0
 10 12  1  0
 12 14  1  0
 12 21  2  0
 14 18  2  0
 14 19  1  0
 15 16  1  0
 15 32  1  0
 16 33  1  0
 17 32  1  0
 17 33  1  0
 19 20  1  0
 23 24  1  0
 24 25  2  0
 25 27  1  0
 26 27  2  0
 27 28  1  0
 28 29  1  0
 32 31  1  0
  3 34  1  0
  7 35  1  0
  8 36  1  0
 11 37  1  0
 13 38  1  0
 13 39  1  0
 13 40  1  0
 15 41  1  0
 15 42  1  0
 16 43  1  0
 16 44  1  0
 17 45  1  0
 17 46  1  0
 19 47  1  0
 20 48  1  0
 20 49  1  0
 20 50  1  0
 22 51  1  0
 24 52  1  0
 25 53  1  0
 30 54  1  0
 30 55  1  0
 30 56  1  0
 31 57  1  0
 32 58  1  6
 33 59  1  0
 33 60  1  0
M  CHG  1  33   1
M  END
>  <filename_input>  (4) 
6ZCY_QF8_docked.sdf

>  <pdb_id>  (4) 
6ZCY_QF8

>  <pose_rank>  (4) 
3

>  <num_atoms_heavy>  (4) 
33

>  <num_torsions>  (4) 
4

>  <pose>  (4) 
[1.6526640398630263, -1.5498670823882807, 15.673794520938012, 2.622310030597716, -0.837587214013925, 1.354138041638002, 0.16102909825867456, 1.2667423962747852, 1.4621622270203523, 0.8922055495692698]

>  <energy>  (4) 
-824.9461308051023

>  <inter_energy>  (4) 
-778.1454800378278

>  <intra_energy>  (4) 
18.50668846328337

>  <rmsd>  (4) 
6.77424

>  <sdf_rank>  (4) 
0

$$$$

     RDKit          3D

 60 64  0  0  0  0  0  0  0  0999 V2000
    3.8283    1.0406   14.3460 C   0  0  0  0  0  0  0  0  0  0  0  0
    2.4743    0.9407   13.9312 C   0  0  0  0  0  0  0  0  0  0  0  0
    2.2951    1.9088   12.9729 C   0  0  0  0  0  0  0  0  0  0  0  0
   -3.2892    4.8020    9.1759 N   0  0  0  0  0  0  0  0  0  0  0  0
    3.2095    4.7490   10.0919 C   0  0  0  0  0  0  0  0  0  0  0  0
    0.7957    5.1917    9.3310 C   0  0  0  0  0  0  0  0  0  0  0  0
    0.1291    6.0271    8.4305 C   0  0  0  0  0  0  0  0  0  0  0  0
   -1.2491    5.9711    8.2947 C   0  0  0  0  0  0  0  0  0  0  0  0
   -1.9588    5.0904    9.1010 C   0  0  0  0  0  0  0  0  0  0  0  0
   -1.3144    4.2570   10.0209 C   0  0  0  0  0  0  0  0  0  0  0  0
    0.0705    4.3308   10.1653 C   0  0  0  0  0  0  0  0  0  0  0  0
   -2.3773    3.5159   10.6445 C   0  0  0  0  0  0  0  0  0  0  0  0
   -4.3845    5.4086    8.4332 C   0  0  0  0  0  0  0  0  0  0  0  0
   -2.2533    2.4953   11.7268 C   0  0  0  0  0  0  0  0  0  0  0  0
   -0.1173   -1.6854   14.2206 C   0  0  0  0  0  0  0  0  0  0  0  0
    0.4544   -2.9946   14.9379 C   0  0  0  0  0  0  0  0  0  0  0  0
    2.0898   -2.2172   13.4538 C   0  0  0  0  0  0  0  0  0  0  0  0
   -1.4163    2.6382   12.6154 O   0  0  0  0  0  0  0  0  0  0  0  0
   -3.1220    1.4836   11.6791 N   0  0  0  0  0  0  0  0  0  0  0  0
   -3.1252    0.4210   12.6763 C   0  0  0  0  0  0  0  0  0  0  0  0
   -3.5599    3.8758   10.1538 N   0  0  0  0  0  0  0  0  0  0  0  0
    2.2053    5.2966    9.3449 N   0  0  0  0  0  0  0  0  0  0  0  0
    4.4569    5.0915    9.7320 N   0  0  0  0  0  0  0  0  0  0  0  0
    5.4445    4.5793   10.4914 C   0  0  0  0  0  0  0  0  0  0  0  0
    5.2409    3.7448   11.5784 C   0  0  0  0  0  0  0  0  0  0  0  0
    2.8644    3.9345   11.0994 N   0  0  0  0  0  0  0  0  0  0  0  0
    3.8810    3.4527   11.8297 C   0  0  0  0  0  0  0  0  0  0  0  0
    3.5098    2.4895   12.8072 N   0  0  0  0  0  0  0  0  0  0  0  0
    4.4589    1.9277   13.6038 N   0  0  0  0  0  0  0  0  0  0  0  0
    4.5831    0.2792   15.3871 C   0  0  0  0  0  0  0  0  0  0  0  0
    1.5889    0.0953   14.4771 N   0  0  0  0  0  0  0  0  0  0  0  0
    1.1310   -1.0182   13.6372 C   0  0  2  0  0  0  0  0  0  0  0  0
    1.9065   -3.0336   14.6642 N   0  0  0  0  0  0  0  0  0  0  0  0
    1.3612    2.1605   12.4491 H   0  0  0  0  0  0  0  0  0  0  0  0
    0.7060    6.7386    7.8214 H   0  0  0  0  0  0  0  0  0  0  0  0
   -1.7690    6.6095    7.5652 H   0  0  0  0  0  0  0  0  0  0  0  0
    0.5860    3.7222   10.9228 H   0  0  0  0  0  0  0  0  0  0  0  0
   -5.1233    5.8177    9.1381 H   0  0  0  0  0  0  0  0  0  0  0  0
   -3.9939    6.2189    7.8001 H   0  0  0  0  0  0  0  0  0  0  0  0
   -4.8641    4.6475    7.8001 H   0  0  0  0  0  0  0  0  0  0  0  0
   -0.8278   -1.9527   13.4245 H   0  0  0  0  0  0  0  0  0  0  0  0
   -0.6701   -1.0289   14.9086 H   0  0  0  0  0  0  0  0  0  0  0  0
    0.2749   -2.9411   16.0219 H   0  0  0  0  0  0  0  0  0  0  0  0
   -0.0424   -3.9001   14.5595 H   0  0  0  0  0  0  0  0  0  0  0  0
    1.8237   -2.7921   12.5546 H   0  0  0  0  0  0  0  0  0  0  0  0
    3.1342   -1.8974   13.3229 H   0  0  0  0  0  0  0  0  0  0  0  0
   -3.8113    1.4529   10.9143 H   0  0  0  0  0  0  0  0  0  0  0  0
   -3.1239    0.8633   13.6834 H   0  0  0  0  0  0  0  0  0  0  0  0
   -4.0252   -0.1986   12.5490 H   0  0  0  0  0  0  0  0  0  0  0  0
   -2.2289   -0.2039   12.5490 H   0  0  0  0  0  0  0  0  0  0  0  0
    2.5590    5.9376    8.6203 H   0  0  0  0  0  0  0  0  0  0  0  0
    6.4808    4.8409   10.2314 H   0  0  0  0  0  0  0  0  0  0  0  0
    6.0632    3.3457   12.1905 H   0  0  0  0  0  0  0  0  0  0  0  0
    4.2596    0.6055   16.3866 H   0  0  0  0  0  0  0  0  0  0  0  0
    4.3848   -0.7965   15.2706 H   0  0  0  0  0  0  0  0  0  0  0  0
    5.6604    0.4682   15.2706 H   0  0  0  0  0  0  0  0  0  0  0  0
    1.2462    0.2210   15.4402 H   0  0  0  0  0  0  0  0  0  0  0  0
    0.9967   -0.4975   12.6776 H   0  0  0  0  0  0  0  0  0  0  0  0
    2.4342   -2.6341   15.4534 H   0  0  0  0  0  0  0  0  0  0  0  0
    2.2497   -3.9963   14.5363 H   0  0  0  0  0  0  0  0  0  0  0  0
  1  2  1  0
  1 29  2  0
  1 30  1  0
  2  3  2  0
  2 31  1  0
  3 28  1  0
  4  9  1  0
  4 13  1  0
  4 21  1  0
  5 22  1  0
  5 23  2  0
  5 26  1  0
  6  7  2  0
  6 11  1  0
  6 22  1  0
  7  8  1  0
  8  9  2  0
  9 10  1  0
 10 11  2  0
 10 12  1  0
 12 14  1  0
 12 21  2  0
 14 18  2  0
 14 19  1  0
 15 16  1  0
 15 32  1  0
 16 33  1  0
 17 32  1  0
 17 33  1  0
 19 20  1  0
 23 24  1  0
 24 25  2  0
 25 27  1  0
 26 27  2  0
 27 28  1  0
 28 29  1  0
 32 31  1  0
  3 34  1  0
  7 35  1  0
  8 36  1  0
 11 37  1  0
 13 38  1  0
 13 39  1  0
 13 40  1  0
 15 41  1  0
 15 42  1  0
 16 43  1  0
 16 44  1  0
 17 45  1  0
 17 46  1  0
 19 47  1  0
 20 48  1  0
 20 49  1  0
 20 50  1  0
 22 51  1  0
 24 52  1  0
 25 53  1  0
 30 54  1  0
 30 55  1  0
 30 56  1  0
 31 57  1  0
 32 58  1  6
 33 59  1  0
 33 60  1  0
M  CHG  1  33   1
M  END
>  <filename_input>  (5) 
6ZCY_QF8_docked.sdf

>  <pdb_id>  (5) 
6ZCY_QF8

>  <pose_rank>  (5) 
4

>  <num_atoms_heavy>  (5) 
33

>  <num_torsions>  (5) 
4

>  <pose>  (5) 
[3.8282843203557806, 1.040580929740107, 14.345953330841565, 2.873652556870138, 0.15547748838515707, 0.6241369039744179, 0.010403273355285098, 0.6826084986717541, 0.9045483710087745, 0.3114538065937867]

>  <energy>  (5) 
-689.0903490869346

>  <inter_energy>  (5) 
-671.5521713818126

>  <intra_energy>  (5) 
18.09187277634042

>  <rmsd>  (5) 
6.80503

>  <sdf_rank>  (5) 
0

$$$$

     RDKit          3D

 60 64  0  0  0  0  0  0  0  0999 V2000
    0.4449   -2.8097   15.5059 C   0  0  0  0  0  0  0  0  0  0  0  0
   -0.4120   -2.0540   14.6634 C   0  0  0  0  0  0  0  0  0  0  0  0
    0.2742   -0.9055   14.3506 C   0  0  0  0  0  0  0  0  0  0  0  0
   -1.1097    5.6093   11.1674 N   0  0  0  0  0  0  0  0  0  0  0  0
    3.4447    1.7258   13.8738 C   0  0  0  0  0  0  0  0  0  0  0  0
    2.1223    3.5743   12.6758 C   0  0  0  0  0  0  0  0  0  0  0  0
    0.9352    3.4777   13.4071 C   0  0  0  0  0  0  0  0  0  0  0  0
   -0.2130    4.1321   12.9892 C   0  0  0  0  0  0  0  0  0  0  0  0
   -0.1681    4.8578   11.8057 C   0  0  0  0  0  0  0  0  0  0  0  0
    1.0041    4.9544   11.0488 C   0  0  0  0  0  0  0  0  0  0  0  0
    2.1508    4.2793   11.4653 C   0  0  0  0  0  0  0  0  0  0  0  0
    0.6421    5.7736    9.9238 C   0  0  0  0  0  0  0  0  0  0  0  0
   -2.5002    5.8193   11.5440 C   0  0  0  0  0  0  0  0  0  0  0  0
    1.5148    6.1772    8.7819 C   0  0  0  0  0  0  0  0  0  0  0  0
   -1.8686   -0.8077   12.4796 C   0  0  0  0  0  0  0  0  0  0  0  0
   -3.3327   -0.1715   12.5640 C   0  0  0  0  0  0  0  0  0  0  0  0
   -3.5590   -2.5014   12.6061 C   0  0  0  0  0  0  0  0  0  0  0  0
    2.6036    6.7059    8.9955 O   0  0  0  0  0  0  0  0  0  0  0  0
    1.0565    5.8843    7.5634 N   0  0  0  0  0  0  0  0  0  0  0  0
    1.8074    6.2090    6.3575 C   0  0  0  0  0  0  0  0  0  0  0  0
   -0.6371    6.1321    9.9881 N   0  0  0  0  0  0  0  0  0  0  0  0
    3.2431    2.9113   13.2257 N   0  0  0  0  0  0  0  0  0  0  0  0
    4.7177    1.4477   14.1978 N   0  0  0  0  0  0  0  0  0  0  0  0
    4.9107    0.2955   14.8682 C   0  0  0  0  0  0  0  0  0  0  0  0
    3.8983   -0.5827   15.2193 C   0  0  0  0  0  0  0  0  0  0  0  0
    2.3720    0.9614   14.1242 N   0  0  0  0  0  0  0  0  0  0  0  0
    2.6128   -0.1732   14.7975 C   0  0  0  0  0  0  0  0  0  0  0  0
    1.4899   -1.0335   14.9385 N   0  0  0  0  0  0  0  0  0  0  0  0
    1.6172   -2.2160   15.5994 N   0  0  0  0  0  0  0  0  0  0  0  0
    0.2253   -4.1209   16.1884 C   0  0  0  0  0  0  0  0  0  0  0  0
   -1.6620   -2.4224   14.3500 N   0  0  0  0  0  0  0  0  0  0  0  0
   -2.0730   -2.2497   12.9513 C   0  0  2  0  0  0  0  0  0  0  0  0
   -4.2477   -1.2557   12.9790 N   0  0  0  0  0  0  0  0  0  0  0  0
   -0.0871   -0.0586   13.7487 H   0  0  0  0  0  0  0  0  0  0  0  0
    0.9118    2.8744   14.3266 H   0  0  0  0  0  0  0  0  0  0  0  0
   -1.1385    4.0779   13.5812 H   0  0  0  0  0  0  0  0  0  0  0  0
    3.0642    4.3000   10.8528 H   0  0  0  0  0  0  0  0  0  0  0  0
   -2.5851    5.8321   12.6407 H   0  0  0  0  0  0  0  0  0  0  0  0
   -2.8489    6.7803   11.1380 H   0  0  0  0  0  0  0  0  0  0  0  0
   -3.1172    5.0041   11.1380 H   0  0  0  0  0  0  0  0  0  0  0  0
   -1.4886   -0.7825   11.4476 H   0  0  0  0  0  0  0  0  0  0  0  0
   -1.1304   -0.2613   13.0850 H   0  0  0  0  0  0  0  0  0  0  0  0
   -3.3497    0.6421   13.3040 H   0  0  0  0  0  0  0  0  0  0  0  0
   -3.6356    0.2502   11.5942 H   0  0  0  0  0  0  0  0  0  0  0  0
   -3.6783   -2.7034   11.5314 H   0  0  0  0  0  0  0  0  0  0  0  0
   -3.9660   -3.3755   13.1357 H   0  0  0  0  0  0  0  0  0  0  0  0
    0.1444    5.4145    7.4725 H   0  0  0  0  0  0  0  0  0  0  0  0
    2.7840    6.6313    6.6362 H   0  0  0  0  0  0  0  0  0  0  0  0
    1.9589    5.2960    5.7629 H   0  0  0  0  0  0  0  0  0  0  0  0
    1.2459    6.9447    5.7629 H   0  0  0  0  0  0  0  0  0  0  0  0
    4.1138    3.4495   13.1105 H   0  0  0  0  0  0  0  0  0  0  0  0
    5.9399    0.0347   15.1561 H   0  0  0  0  0  0  0  0  0  0  0  0
    4.0786   -1.5143   15.7757 H   0  0  0  0  0  0  0  0  0  0  0  0
    0.2496   -3.9755   17.2785 H   0  0  0  0  0  0  0  0  0  0  0  0
   -0.7535   -4.5278   15.8946 H   0  0  0  0  0  0  0  0  0  0  0  0
    1.0181   -4.8246   15.8946 H   0  0  0  0  0  0  0  0  0  0  0  0
   -2.3039   -2.8084   15.0571 H   0  0  0  0  0  0  0  0  0  0  0  0
   -1.4432   -3.0104   12.4667 H   0  0  0  0  0  0  0  0  0  0  0  0
   -4.4102   -1.2226   13.9956 H   0  0  0  0  0  0  0  0  0  0  0  0
   -5.1708   -1.1753   12.5293 H   0  0  0  0  0  0  0  0  0  0  0  0
  1  2  1  0
  1 29  2  0
  1 30  1  0
  2  3  2  0
  2 31  1  0
  3 28  1  0
  4  9  1  0
  4 13  1  0
  4 21  1  0
  5 22  1  0
  5 23  2  0
  5 26  1  0
  6  7  2  0
  6 11  1  0
  6 22  1  0
  7  8  1  0
  8  9  2  0
  9 10  1  0
 10 11  2  0
 10 12  1  0
 12 14  1  0
 12 21  2  0
 14 18  2  0
 14 19  1  0
 15 16  1  0
 15 32  1  0
 16 33  1  0
 17 32  1  0
 17 33  1  0
 19 20  1  0
 23 24  1  0
 24 25  2  0
 25 27  1  0
 26 27  2  0
 27 28  1  0
 28 29  1  0
 32 31  1  0
  3 34  1  0
  7 35  1  0
  8 36  1  0
 11 37  1  0
 13 38  1  0
 13 39  1  0
 13 40  1  0
 15 41  1  0
 15 42  1  0
 16 43  1  0
 16 44  1  0
 17 45  1  0
 17 46  1  0
 19 47  1  0
 20 48  1  0
 20 49  1  0
 20 50  1  0
 22 51  1  0
 24 52  1  0
 25 53  1  0
 30 54  1  0
 30 55  1  0
 30 56  1  0
 31 57  1  0
 32 58  1  6
 33 59  1  0
 33 60  1  0
M  CHG  1  33   1
M  END
>  <filename_input>  (6) 
6ZCY_QF8_docked.sdf

>  <pdb_id>  (6) 
6ZCY_QF8

>  <pose_rank>  (6) 
5

>  <num_atoms_heavy>  (6) 
33

>  <num_torsions>  (6) 
4

>  <pose>  (6) 
[0.4449108518715618, -2.809659146576035, 15.505883914615847, 2.858055318805981, -0.8011913393891946, 1.3705363997126943, -2.3707090007670706, -0.8755050490060786, 0.4455753001747539, 2.238717743943151]

>  <energy>  (6) 
-727.4520202829938

>  <inter_energy>  (6) 
-728.4232502270808

>  <intra_energy>  (6) 
42.97064689321834

>  <rmsd>  (6) 
6.74109

>  <sdf_rank>  (6) 
0

$$$$

     RDKit          3D

 60 64  0  0  0  0  0  0  0  0999 V2000
    3.0036    5.6966    9.4485 C   0  0  0  0  0  0  0  0  0  0  0  0
    3.1587    4.3591    9.8981 C   0  0  0  0  0  0  0  0  0  0  0  0
    1.9631    4.0088   10.4772 C   0  0  0  0  0  0  0  0  0  0  0  0
   -0.6722   -1.5930   14.3599 N   0  0  0  0  0  0  0  0  0  0  0  0
   -2.0670    4.1135   11.4524 C   0  0  0  0  0  0  0  0  0  0  0  0
   -2.1179    1.8988   12.7537 C   0  0  0  0  0  0  0  0  0  0  0  0
   -3.0640    0.9085   13.0321 C   0  0  0  0  0  0  0  0  0  0  0  0
   -2.6809   -0.3105   13.5692 C   0  0  0  0  0  0  0  0  0  0  0  0
   -1.3378   -0.5136   13.8594 C   0  0  0  0  0  0  0  0  0  0  0  0
   -0.3760    0.4694   13.6049 C   0  0  0  0  0  0  0  0  0  0  0  0
   -0.7701    1.7000   13.0811 C   0  0  0  0  0  0  0  0  0  0  0  0
    0.8639   -0.1170   14.0369 C   0  0  0  0  0  0  0  0  0  0  0  0
   -1.2243   -2.8668   14.7980 C   0  0  0  0  0  0  0  0  0  0  0  0
    2.2174    0.5123   14.0145 C   0  0  0  0  0  0  0  0  0  0  0  0
    4.2274    3.4397   12.2772 C   0  0  0  0  0  0  0  0  0  0  0  0
    5.5836    4.0588   12.8540 C   0  0  0  0  0  0  0  0  0  0  0  0
    6.1510    2.5140   11.1887 C   0  0  0  0  0  0  0  0  0  0  0  0
    2.5492    1.2266   13.0709 O   0  0  0  0  0  0  0  0  0  0  0  0
    2.9860    0.2850   15.0813 N   0  0  0  0  0  0  0  0  0  0  0  0
    4.3260    0.8449   15.2009 C   0  0  0  0  0  0  0  0  0  0  0  0
    0.6689   -1.3410   14.5194 N   0  0  0  0  0  0  0  0  0  0  0  0
   -2.6157    3.0793   12.1564 N   0  0  0  0  0  0  0  0  0  0  0  0
   -2.9311    5.0419   11.0117 N   0  0  0  0  0  0  0  0  0  0  0  0
   -2.3849    6.0793   10.3487 C   0  0  0  0  0  0  0  0  0  0  0  0
   -1.0287    6.2234   10.1052 C   0  0  0  0  0  0  0  0  0  0  0  0
   -0.7387    4.1084   11.2695 N   0  0  0  0  0  0  0  0  0  0  0  0
   -0.2404    5.1633   10.6080 C   0  0  0  0  0  0  0  0  0  0  0  0
    1.1464    5.0785   10.3072 N   0  0  0  0  0  0  0  0  0  0  0  0
    1.7598    6.0892    9.6340 N   0  0  0  0  0  0  0  0  0  0  0  0
    3.9761    6.6159    8.7832 C   0  0  0  0  0  0  0  0  0  0  0  0
    4.3064    3.6724    9.8099 N   0  0  0  0  0  0  0  0  0  0  0  0
    4.6531    2.8118   10.9475 C   0  0  2  0  0  0  0  0  0  0  0  0
    6.6580    3.6942   11.9065 N   0  0  0  0  0  0  0  0  0  0  0  0
    1.7189    3.0588   10.9750 H   0  0  0  0  0  0  0  0  0  0  0  0
   -4.1268    1.0991   12.8222 H   0  0  0  0  0  0  0  0  0  0  0  0
   -3.4235   -1.0990   13.7613 H   0  0  0  0  0  0  0  0  0  0  0  0
   -0.0340    2.5027   12.9271 H   0  0  0  0  0  0  0  0  0  0  0  0
   -1.2393   -2.9013   15.8973 H   0  0  0  0  0  0  0  0  0  0  0  0
   -2.2495   -2.9736   14.4138 H   0  0  0  0  0  0  0  0  0  0  0  0
   -0.6014   -3.6880   14.4138 H   0  0  0  0  0  0  0  0  0  0  0  0
    3.8226    2.6776   12.9594 H   0  0  0  0  0  0  0  0  0  0  0  0
    3.4319    4.1903   12.1594 H   0  0  0  0  0  0  0  0  0  0  0  0
    5.4990    5.1531   12.9274 H   0  0  0  0  0  0  0  0  0  0  0  0
    5.7973    3.6703   13.8607 H   0  0  0  0  0  0  0  0  0  0  0  0
    6.2723    1.6073   11.7996 H   0  0  0  0  0  0  0  0  0  0  0  0
    6.6949    2.3336   10.2498 H   0  0  0  0  0  0  0  0  0  0  0  0
    2.6210   -0.3041   15.8433 H   0  0  0  0  0  0  0  0  0  0  0  0
    4.5846    0.9530   16.2646 H   0  0  0  0  0  0  0  0  0  0  0  0
    5.0487    0.1735   14.7142 H   0  0  0  0  0  0  0  0  0  0  0  0
    4.3562    1.8309   14.7142 H   0  0  0  0  0  0  0  0  0  0  0  0
   -3.6326    3.1846   12.2816 H   0  0  0  0  0  0  0  0  0  0  0  0
   -3.0600    6.8637    9.9759 H   0  0  0  0  0  0  0  0  0  0  0  0
   -0.6038    7.0848    9.5690 H   0  0  0  0  0  0  0  0  0  0  0  0
    4.5503    7.1585    9.5486 H   0  0  0  0  0  0  0  0  0  0  0  0
    4.6639    6.0301    8.1556 H   0  0  0  0  0  0  0  0  0  0  0  0
    3.4301    7.3356    8.1556 H   0  0  0  0  0  0  0  0  0  0  0  0
    4.9163    3.7452    8.9830 H   0  0  0  0  0  0  0  0  0  0  0  0
    4.1303    1.8875   10.6604 H   0  0  0  0  0  0  0  0  0  0  0  0
    6.8388    4.4669   11.2498 H   0  0  0  0  0  0  0  0  0  0  0  0
    7.5480    3.5008   12.3876 H   0  0  0  0  0  0  0  0  0  0  0  0
  1  2  1  0
  1 29  2  0
  1 30  1  0
  2  3  2  0
  2 31  1  0
  3 28  1  0
  4  9  1  0
  4 13  1  0
  4 21  1  0
  5 22  1  0
  5 23  2  0
  5 26  1  0
  6  7  2  0
  6 11  1  0
  6 22  1  0
  7  8  1  0
  8  9  2  0
  9 10  1  0
 10 11  2  0
 10 12  1  0
 12 14  1  0
 12 21  2  0
 14 18  2  0
 14 19  1  0
 15 16  1  0
 15 32  1  0
 16 33  1  0
 17 32  1  0
 17 33  1  0
 19 20  1  0
 23 24  1  0
 24 25  2  0
 25 27  1  0
 26 27  2  0
 27 28  1  0
 28 29  1  0
 32 31  1  0
  3 34  1  0
  7 35  1  0
  8 36  1  0
 11 37  1  0
 13 38  1  0
 13 39  1  0
 13 40  1  0
 15 41  1  0
 15 42  1  0
 16 43  1  0
 16 44  1  0
 17 45  1  0
 17 46  1  0
 19 47  1  0
 20 48  1  0
 20 49  1  0
 20 50  1  0
 22 51  1  0
 24 52  1  0
 25 53  1  0
 30 54  1  0
 30 55  1  0
 30 56  1  0
 31 57  1  0
 32 58  1  6
 33 59  1  0
 33 60  1  0
M  CHG  1  33   1
M  END
>  <filename_input>  (7) 
6ZCY_QF8_docked.sdf

>  <pdb_id>  (7) 
6ZCY_QF8

>  <pose_rank>  (7) 
6

>  <num_atoms_heavy>  (7) 
33

>  <num_torsions>  (7) 
4

>  <pose>  (7) 
[3.0035764968642766, 5.696624410623086, 9.448492073276025, 2.4148903039287513, 2.2951314102272407, -1.373743350089801, 0.4163339812798928, -0.6292064503144712, -0.9864260630171371, 2.5680599956701147]

>  <energy>  (7) 
-679.5374463023401

>  <inter_energy>  (7) 
-720.8918202537366

>  <intra_energy>  (7) 
54.31672732869192

>  <rmsd>  (7) 
5.95159

>  <sdf_rank>  (7) 
0

$$$$

     RDKit          3D

 60 64  0  0  0  0  0  0  0  0999 V2000
    0.1967   -3.2844   15.1008 C   0  0  0  0  0  0  0  0  0  0  0  0
   -0.3527   -2.3456   14.1885 C   0  0  0  0  0  0  0  0  0  0  0  0
    0.5307   -1.2943   14.1428 C   0  0  0  0  0  0  0  0  0  0  0  0
    0.7677    5.5895   11.4283 N   0  0  0  0  0  0  0  0  0  0  0  0
    4.0506    0.8534   14.5915 C   0  0  0  0  0  0  0  0  0  0  0  0
    3.2716    2.9667   13.3554 C   0  0  0  0  0  0  0  0  0  0  0  0
    2.0861    3.2910   14.0206 C   0  0  0  0  0  0  0  0  0  0  0  0
    1.1745    4.1726   13.4610 C   0  0  0  0  0  0  0  0  0  0  0  0
    1.4483    4.6998   12.2054 C   0  0  0  0  0  0  0  0  0  0  0  0
    2.6202    4.3762   11.5140 C   0  0  0  0  0  0  0  0  0  0  0  0
    3.5246    3.4752   12.0745 C   0  0  0  0  0  0  0  0  0  0  0  0
    2.5274    5.1105   10.2810 C   0  0  0  0  0  0  0  0  0  0  0  0
   -0.5196    6.2155   11.6939 C   0  0  0  0  0  0  0  0  0  0  0  0
    3.5063    5.1113    9.1540 C   0  0  0  0  0  0  0  0  0  0  0  0
   -3.0379   -0.7685   14.5623 C   0  0  0  0  0  0  0  0  0  0  0  0
   -4.5409   -1.2665   14.3426 C   0  0  0  0  0  0  0  0  0  0  0  0
   -3.4453   -1.3573   12.2755 C   0  0  0  0  0  0  0  0  0  0  0  0
    4.6856    5.3878    9.3624 O   0  0  0  0  0  0  0  0  0  0  0  0
    3.0256    4.7544    7.9615 N   0  0  0  0  0  0  0  0  0  0  0  0
    3.8687    4.6993    6.7742 C   0  0  0  0  0  0  0  0  0  0  0  0
    1.3961    5.8077   10.2263 N   0  0  0  0  0  0  0  0  0  0  0  0
    4.1512    2.1015   14.0453 N   0  0  0  0  0  0  0  0  0  0  0  0
    5.1767    0.3614   15.1324 N   0  0  0  0  0  0  0  0  0  0  0  0
    5.0675   -0.8542   15.7022 C   0  0  0  0  0  0  0  0  0  0  0  0
    3.8961   -1.5925   15.7485 C   0  0  0  0  0  0  0  0  0  0  0  0
    2.8574    0.2441   14.5398 N   0  0  0  0  0  0  0  0  0  0  0  0
    2.7962   -0.9618   15.1238 C   0  0  0  0  0  0  0  0  0  0  0  0
    1.5651   -1.6497   14.9452 N   0  0  0  0  0  0  0  0  0  0  0  0
    1.3903   -2.8844   15.4893 N   0  0  0  0  0  0  0  0  0  0  0  0
   -0.3356   -4.5950   15.5829 C   0  0  0  0  0  0  0  0  0  0  0  0
   -1.5446   -2.4950   13.5941 N   0  0  0  0  0  0  0  0  0  0  0  0
   -2.3046   -1.2703   13.3156 C   0  0  2  0  0  0  0  0  0  0  0  0
   -4.5872   -1.9168   13.0159 N   0  0  0  0  0  0  0  0  0  0  0  0
    0.4219   -0.3592   13.5738 H   0  0  0  0  0  0  0  0  0  0  0  0
    1.8735    2.8407   15.0014 H   0  0  0  0  0  0  0  0  0  0  0  0
    0.2555    4.4483   13.9988 H   0  0  0  0  0  0  0  0  0  0  0  0
    4.4233    3.1681   11.5195 H   0  0  0  0  0  0  0  0  0  0  0  0
   -0.6736    6.2904   12.7804 H   0  0  0  0  0  0  0  0  0  0  0  0
   -0.5360    7.2222   11.2509 H   0  0  0  0  0  0  0  0  0  0  0  0
   -1.3216    5.6068   11.2509 H   0  0  0  0  0  0  0  0  0  0  0  0
   -2.9937    0.3286   14.6285 H   0  0  0  0  0  0  0  0  0  0  0  0
   -2.5963   -1.1439   15.4972 H   0  0  0  0  0  0  0  0  0  0  0  0
   -4.8196   -1.9860   15.1266 H   0  0  0  0  0  0  0  0  0  0  0  0
   -5.2466   -0.4243   14.3935 H   0  0  0  0  0  0  0  0  0  0  0  0
   -3.6892   -0.3589   11.8835 H   0  0  0  0  0  0  0  0  0  0  0  0
   -3.1700   -1.9752   11.4080 H   0  0  0  0  0  0  0  0  0  0  0  0
    2.0284    4.5105    7.8776 H   0  0  0  0  0  0  0  0  0  0  0  0
    4.9241    4.6302    7.0768 H   0  0  0  0  0  0  0  0  0  0  0  0
    3.6007    3.8167    6.1748 H   0  0  0  0  0  0  0  0  0  0  0  0
    3.7180    5.6092    6.1748 H   0  0  0  0  0  0  0  0  0  0  0  0
    5.0899    2.5083   14.1643 H   0  0  0  0  0  0  0  0  0  0  0  0
    5.9676   -1.2893   16.1610 H   0  0  0  0  0  0  0  0  0  0  0  0
    3.8282   -2.5801   16.2281 H   0  0  0  0  0  0  0  0  0  0  0  0
   -0.3403   -4.6065   16.6828 H   0  0  0  0  0  0  0  0  0  0  0  0
   -1.3613   -4.7335   15.2104 H   0  0  0  0  0  0  0  0  0  0  0  0
    0.3030   -5.4095   15.2104 H   0  0  0  0  0  0  0  0  0  0  0  0
   -1.9100   -3.4251   13.3445 H   0  0  0  0  0  0  0  0  0  0  0  0
   -1.5007   -0.6232   12.9347 H   0  0  0  0  0  0  0  0  0  0  0  0
   -4.4919   -2.9380   13.1101 H   0  0  0  0  0  0  0  0  0  0  0  0
   -5.4811   -1.7465   12.5334 H   0  0  0  0  0  0  0  0  0  0  0  0
  1  2  1  0
  1 29  2  0
  1 30  1  0
  2  3  2  0
  2 31  1  0
  3 28  1  0
  4  9  1  0
  4 13  1  0
  4 21  1  0
  5 22  1  0
  5 23  2  0
  5 26  1  0
  6  7  2  0
  6 11  1  0
  6 22  1  0
  7  8  1  0
  8  9  2  0
  9 10  1  0
 10 11  2  0
 10 12  1  0
 12 14  1  0
 12 21  2  0
 14 18  2  0
 14 19  1  0
 15 16  1  0
 15 32  1  0
 16 33  1  0
 17 32  1  0
 17 33  1  0
 19 20  1  0
 23 24  1  0
 24 25  2  0
 25 27  1  0
 26 27  2  0
 27 28  1  0
 28 29  1  0
 32 31  1  0
  3 34  1  0
  7 35  1  0
  8 36  1  0
 11 37  1  0
 13 38  1  0
 13 39  1  0
 13 40  1  0
 15 41  1  0
 15 42  1  0
 16 43  1  0
 16 44  1  0
 17 45  1  0
 17 46  1  0
 19 47  1  0
 20 48  1  0
 20 49  1  0
 20 50  1  0
 22 51  1  0
 24 52  1  0
 25 53  1  0
 30 54  1  0
 30 55  1  0
 30 56  1  0
 31 57  1  0
 32 58  1  6
 33 59  1  0
 33 60  1  0
M  CHG  1  33   1
M  END
>  <filename_input>  (8) 
6ZCY_QF8_docked.sdf

>  <pdb_id>  (8) 
6ZCY_QF8

>  <pose_rank>  (8) 
7

>  <num_atoms_heavy>  (8) 
33

>  <num_torsions>  (8) 
4

>  <pose>  (8) 
[0.1967136441467074, -3.2843521854095354, 15.10077196056171, 2.6856538710961475, -1.0654310932614113, 1.6743036786871275, -2.0669838738584185, -0.9141323670428384, -0.8714946643111849, 1.7927063549475575]

>  <energy>  (8) 
-709.9972377121809

>  <inter_energy>  (8) 
-702.9307427396958

>  <intra_energy>  (8) 
9.000897568177447

>  <rmsd>  (8) 
6.93057

>  <sdf_rank>  (8) 
0

$$$$

     RDKit          3D

 60 64  0  0  0  0  0  0  0  0999 V2000
   -5.4633   -2.5544   12.4151 C   0  0  0  0  0  0  0  0  0  0  0  0
   -4.5255   -1.5446   12.0741 C   0  0  0  0  0  0  0  0  0  0  0  0
   -3.3864   -1.8227   12.7902 C   0  0  0  0  0  0  0  0  0  0  0  0
    3.0716    1.3975   14.1468 N   0  0  0  0  0  0  0  0  0  0  0  0
   -0.6275   -3.9483   15.0427 C   0  0  0  0  0  0  0  0  0  0  0  0
    1.2124   -2.1551   15.0328 C   0  0  0  0  0  0  0  0  0  0  0  0
    2.5073   -1.9938   15.5332 C   0  0  0  0  0  0  0  0  0  0  0  0
    3.2264   -0.8349   15.2859 C   0  0  0  0  0  0  0  0  0  0  0  0
    2.6172    0.1800   14.5591 C   0  0  0  0  0  0  0  0  0  0  0  0
    1.3163    0.0473   14.0630 C   0  0  0  0  0  0  0  0  0  0  0  0
    0.5919   -1.1137   14.3302 C   0  0  0  0  0  0  0  0  0  0  0  0
    1.0595    1.2885   13.3838 C   0  0  0  0  0  0  0  0  0  0  0  0
    4.3619    2.0150   14.4171 C   0  0  0  0  0  0  0  0  0  0  0  0
   -0.1972    1.6948   12.6881 C   0  0  0  0  0  0  0  0  0  0  0  0
   -6.5106   -0.3476    9.4753 C   0  0  0  0  0  0  0  0  0  0  0  0
   -6.5644    1.1815    9.0125 C   0  0  0  0  0  0  0  0  0  0  0  0
   -6.7920    1.1283   11.3420 C   0  0  0  0  0  0  0  0  0  0  0  0
   -0.8458    2.6548   13.0984 O   0  0  0  0  0  0  0  0  0  0  0  0
   -0.5182    0.9903   11.6013 N   0  0  0  0  0  0  0  0  0  0  0  0
   -1.7106    1.2822   10.8163 C   0  0  0  0  0  0  0  0  0  0  0  0
    2.1069    2.1037   13.4700 N   0  0  0  0  0  0  0  0  0  0  0  0
    0.5965   -3.3990   15.3002 N   0  0  0  0  0  0  0  0  0  0  0  0
   -0.7918   -5.2194   15.4429 N   0  0  0  0  0  0  0  0  0  0  0  0
   -2.0105   -5.7481   15.2205 C   0  0  0  0  0  0  0  0  0  0  0  0
   -3.0574   -5.0705   14.6170 C   0  0  0  0  0  0  0  0  0  0  0  0
   -1.5380   -3.1816   14.4255 N   0  0  0  0  0  0  0  0  0  0  0  0
   -2.7372   -3.7493   14.2298 C   0  0  0  0  0  0  0  0  0  0  0  0
   -3.6459   -2.9741   13.4589 N   0  0  0  0  0  0  0  0  0  0  0  0
   -4.8916   -3.4517   13.1918 N   0  0  0  0  0  0  0  0  0  0  0  0
   -6.8810   -2.7478   11.9835 C   0  0  0  0  0  0  0  0  0  0  0  0
   -4.8043   -0.5116   11.2670 N   0  0  0  0  0  0  0  0  0  0  0  0
   -6.2213   -0.2613   10.9762 C   0  0  2  0  0  0  0  0  0  0  0  0
   -6.3924    2.0037   10.2288 N   0  0  0  0  0  0  0  0  0  0  0  0
   -2.4574   -1.2342   12.8159 H   0  0  0  0  0  0  0  0  0  0  0  0
    2.9619   -2.7973   16.1314 H   0  0  0  0  0  0  0  0  0  0  0  0
    4.2558   -0.7215   15.6568 H   0  0  0  0  0  0  0  0  0  0  0  0
   -0.4511   -1.2106   13.9946 H   0  0  0  0  0  0  0  0  0  0  0  0
    4.5132    2.0874   15.5043 H   0  0  0  0  0  0  0  0  0  0  0  0
    5.1615    1.4020   13.9757 H   0  0  0  0  0  0  0  0  0  0  0  0
    4.3861    3.0222   13.9757 H   0  0  0  0  0  0  0  0  0  0  0  0
   -7.4723   -0.8481    9.2892 H   0  0  0  0  0  0  0  0  0  0  0  0
   -5.7566   -0.9327    8.9284 H   0  0  0  0  0  0  0  0  0  0  0  0
   -5.7545    1.3892    8.2976 H   0  0  0  0  0  0  0  0  0  0  0  0
   -7.5184    1.4092    8.5145 H   0  0  0  0  0  0  0  0  0  0  0  0
   -7.8878    1.0868   11.4282 H   0  0  0  0  0  0  0  0  0  0  0  0
   -6.4157    1.4899   12.3103 H   0  0  0  0  0  0  0  0  0  0  0  0
    0.0955    0.2166   11.3084 H   0  0  0  0  0  0  0  0  0  0  0  0
   -2.5534    1.4885   11.4925 H   0  0  0  0  0  0  0  0  0  0  0  0
   -1.5258    2.1616   10.1819 H   0  0  0  0  0  0  0  0  0  0  0  0
   -1.9529    0.4168   10.1819 H   0  0  0  0  0  0  0  0  0  0  0  0
    1.2174   -4.0437   15.8099 H   0  0  0  0  0  0  0  0  0  0  0  0
   -2.1861   -6.7863   15.5389 H   0  0  0  0  0  0  0  0  0  0  0  0
   -4.0481   -5.5199   14.4541 H   0  0  0  0  0  0  0  0  0  0  0  0
   -7.5255   -2.8358   12.8705 H   0  0  0  0  0  0  0  0  0  0  0  0
   -7.2019   -1.8852   11.3812 H   0  0  0  0  0  0  0  0  0  0  0  0
   -6.9590   -3.6650   11.3812 H   0  0  0  0  0  0  0  0  0  0  0  0
   -4.0597    0.0788   10.8696 H   0  0  0  0  0  0  0  0  0  0  0  0
   -6.6895   -1.0340   11.6036 H   0  0  0  0  0  0  0  0  0  0  0  0
   -5.4099    2.2951   10.3325 H   0  0  0  0  0  0  0  0  0  0  0  0
   -6.9545    2.8661   10.1947 H   0  0  0  0  0  0  0  0  0  0  0  0
  1  2  1  0
  1 29  2  0
  1 30  1  0
  2  3  2  0
  2 31  1  0
  3 28  1  0
  4  9  1  0
  4 13  1  0
  4 21  1  0
  5 22  1  0
  5 23  2  0
  5 26  1  0
  6  7  2  0
  6 11  1  0
  6 22  1  0
  7  8  1  0
  8  9  2  0
  9 10  1  0
 10 11  2  0
 10 12  1  0
 12 14  1  0
 12 21  2  0
 14 18  2  0
 14 19  1  0
 15 16  1  0
 15 32  1  0
 16 33  1  0
 17 32  1  0
 17 33  1  0
 19 20  1  0
 23 24  1  0
 24 25  2  0
 25 27  1  0
 26 27  2  0
 27 28  1  0
 28 29  1  0
 32 31  1  0
  3 34  1  0
  7 35  1  0
  8 36  1  0
 11 37  1  0
 13 38  1  0
 13 39  1  0
 13 40  1  0
 15 41  1  0
 15 42  1  0
 16 43  1  0
 16 44  1  0
 17 45  1  0
 17 46  1  0
 19 47  1  0
 20 48  1  0
 20 49  1  0
 20 50  1  0
 22 51  1  0
 24 52  1  0
 25 53  1  0
 30 54  1  0
 30 55  1  0
 30 56  1  0
 31 57  1  0
 32 58  1  1
 33 59  1  0
 33 60  1  0
M  CHG  1  33   1
M  END
>  <filename_input>  (9) 
6ZCY_QF8_docked.sdf

>  <pdb_id>  (9) 
6ZCY_QF8

>  <pose_rank>  (9) 
8

>  <num_atoms_heavy>  (9) 
33

>  <num_torsions>  (9) 
4

>  <pose>  (9) 
[-5.46330996563012, -2.5543672572180527, 12.415060351248087, 1.2237144954260915, -2.3656338502692855, 1.9306739952761354, -6.232137730452153, 2.0777744785163943, -3.1930269366695643, -5.188130704680211]

>  <energy>  (9) 
-683.9473991293684

>  <inter_energy>  (9) 
-716.1864361214386

>  <intra_energy>  (9) 
51.58308659320332

>  <rmsd>  (9) 
7.49727

>  <sdf_rank>  (9) 
0

$$$$

     RDKit          3D

 60 64  0  0  0  0  0  0  0  0999 V2000
   -0.0732   -2.2860   14.8457 C   0  0  0  0  0  0  0  0  0  0  0  0
    0.8305   -1.2239   14.5795 C   0  0  0  0  0  0  0  0  0  0  0  0
    0.1746   -0.3676   13.7285 C   0  0  0  0  0  0  0  0  0  0  0  0
    1.8690    5.3933    9.6059 N   0  0  0  0  0  0  0  0  0  0  0  0
   -2.9351    1.4566   11.6779 C   0  0  0  0  0  0  0  0  0  0  0  0
   -1.5357    3.3335   10.6197 C   0  0  0  0  0  0  0  0  0  0  0  0
   -0.4399    3.1734   11.4721 C   0  0  0  0  0  0  0  0  0  0  0  0
    0.7600    3.8187   11.2172 C   0  0  0  0  0  0  0  0  0  0  0  0
    0.8388    4.6587   10.1137 C   0  0  0  0  0  0  0  0  0  0  0  0
   -0.2502    4.8472    9.2565 C   0  0  0  0  0  0  0  0  0  0  0  0
   -1.4597    4.2090    9.5284 C   0  0  0  0  0  0  0  0  0  0  0  0
    0.2275    5.7692    8.2618 C   0  0  0  0  0  0  0  0  0  0  0  0
    3.2144    5.5460   10.1406 C   0  0  0  0  0  0  0  0  0  0  0  0
   -0.5382    6.3346    7.1118 C   0  0  0  0  0  0  0  0  0  0  0  0
    4.3724   -0.2215   14.9710 C   0  0  0  0  0  0  0  0  0  0  0  0
    4.2463    1.3253   15.3543 C   0  0  0  0  0  0  0  0  0  0  0  0
    2.7177    0.8845   13.6366 C   0  0  0  0  0  0  0  0  0  0  0  0
   -0.2403    6.0234    5.9607 O   0  0  0  0  0  0  0  0  0  0  0  0
   -1.5604    7.1328    7.4255 N   0  0  0  0  0  0  0  0  0  0  0  0
   -2.4023    7.7460    6.4063 C   0  0  0  0  0  0  0  0  0  0  0  0
    1.4890    6.1161    8.5011 N   0  0  0  0  0  0  0  0  0  0  0  0
   -2.6888    2.5843   10.9473 N   0  0  0  0  0  0  0  0  0  0  0  0
   -4.2249    1.0970   11.7779 N   0  0  0  0  0  0  0  0  0  0  0  0
   -4.4632   -0.0347   12.4684 C   0  0  0  0  0  0  0  0  0  0  0  0
   -3.4795   -0.8096   13.0611 C   0  0  0  0  0  0  0  0  0  0  0  0
   -1.8851    0.8218   12.2185 N   0  0  0  0  0  0  0  0  0  0  0  0
   -2.1711   -0.3018   12.8927 C   0  0  0  0  0  0  0  0  0  0  0  0
   -1.0675   -0.8891   13.5695 N   0  0  0  0  0  0  0  0  0  0  0  0
   -1.2401   -2.0298   14.2907 N   0  0  0  0  0  0  0  0  0  0  0  0
    0.0980   -3.5233   15.6663 C   0  0  0  0  0  0  0  0  0  0  0  0
    2.0878   -1.1828   15.0418 N   0  0  0  0  0  0  0  0  0  0  0  0
    3.0825   -0.5091   14.1982 C   0  0  2  0  0  0  0  0  0  0  0  0
    2.9962    1.8187   14.7389 N   0  0  0  0  0  0  0  0  0  0  0  0
    0.5737    0.5498   13.2713 H   0  0  0  0  0  0  0  0  0  0  0  0
   -0.5308    2.5266   12.3572 H   0  0  0  0  0  0  0  0  0  0  0  0
    1.6299    3.6691   11.8736 H   0  0  0  0  0  0  0  0  0  0  0  0
   -2.3411    4.3903    8.8957 H   0  0  0  0  0  0  0  0  0  0  0  0
    3.1748    5.5415   11.2399 H   0  0  0  0  0  0  0  0  0  0  0  0
    3.8438    4.7135    9.7930 H   0  0  0  0  0  0  0  0  0  0  0  0
    3.6412    6.4984    9.7930 H   0  0  0  0  0  0  0  0  0  0  0  0
    5.2557   -0.3987   14.3400 H   0  0  0  0  0  0  0  0  0  0  0  0
    4.4965   -0.8704   15.8506 H   0  0  0  0  0  0  0  0  0  0  0  0
    4.2018    1.4419   16.4472 H   0  0  0  0  0  0  0  0  0  0  0  0
    5.1154    1.8934   14.9911 H   0  0  0  0  0  0  0  0  0  0  0  0
    3.3379    1.1235   12.7601 H   0  0  0  0  0  0  0  0  0  0  0  0
    1.6709    0.9366   13.3026 H   0  0  0  0  0  0  0  0  0  0  0  0
   -1.7605    7.3212    8.4182 H   0  0  0  0  0  0  0  0  0  0  0  0
   -3.2005    8.3273    6.8911 H   0  0  0  0  0  0  0  0  0  0  0  0
   -1.7922    8.4127    5.7793 H   0  0  0  0  0  0  0  0  0  0  0  0
   -2.8498    6.9607    5.7793 H   0  0  0  0  0  0  0  0  0  0  0  0
   -3.5460    2.9830   10.5384 H   0  0  0  0  0  0  0  0  0  0  0  0
   -5.5075   -0.3654   12.5683 H   0  0  0  0  0  0  0  0  0  0  0  0
   -3.6969   -1.7361   13.6127 H   0  0  0  0  0  0  0  0  0  0  0  0
    0.0620   -3.2628   16.7344 H   0  0  0  0  0  0  0  0  0  0  0  0
   -0.7106   -4.2319   15.4342 H   0  0  0  0  0  0  0  0  0  0  0  0
    1.0687   -3.9858   15.4342 H   0  0  0  0  0  0  0  0  0  0  0  0
    2.3441   -1.6041   15.9462 H   0  0  0  0  0  0  0  0  0  0  0  0
    3.1641   -1.2337   13.3747 H   0  0  0  0  0  0  0  0  0  0  0  0
    2.2273    1.8091   15.4241 H   0  0  0  0  0  0  0  0  0  0  0  0
    3.0857    2.7902   14.4085 H   0  0  0  0  0  0  0  0  0  0  0  0
  1  2  1  0
  1 29  2  0
  1 30  1  0
  2  3  2  0
  2 31  1  0
  3 28  1  0
  4  9  1  0
  4 13  1  0
  4 21  1  0
  5 22  1  0
  5 23  2  0
  5 26  1  0
  6  7  2  0
  6 11  1  0
  6 22  1  0
  7  8  1  0
  8  9  2  0
  9 10  1  0
 10 11  2  0
 10 12  1  0
 12 14  1  0
 12 21  2  0
 14 18  2  0
 14 19  1  0
 15 16  1  0
 15 32  1  0
 16 33  1  0
 17 32  1  0
 17 33  1  0
 19 20  1  0
 23 24  1  0
 24 25  2  0
 25 27  1  0
 26 27  2  0
 27 28  1  0
 28 29  1  0
 32 31  1  0
  3 34  1  0
  7 35  1  0
  8 36  1  0
 11 37  1  0
 13 38  1  0
 13 39  1  0
 13 40  1  0
 15 41  1  0
 15 42  1  0
 16 43  1  0
 16 44  1  0
 17 45  1  0
 17 46  1  0
 19 47  1  0
 20 48  1  0
 20 49  1  0
 20 50  1  0
 22 51  1  0
 24 52  1  0
 25 53  1  0
 30 54  1  0
 30 55  1  0
 30 56  1  0
 31 57  1  0
 32 58  1  6
 33 59  1  0
 33 60  1  0
M  CHG  1  33   1
M  END
>  <filename_input>  (10) 
6ZCY_QF8_docked.sdf

>  <pdb_id>  (10) 
6ZCY_QF8

>  <pose_rank>  (10) 
9

>  <num_atoms_heavy>  (10) 
33

>  <num_torsions>  (10) 
4

>  <pose>  (10) 
[-0.0731613057306856, -2.2859679646125137, 14.84571467297773, -0.9637767158526677, 2.19714901845175, 3.182423346510129, -3.4313882628173014, -1.9176081552377877, -0.8500895809688523, -0.19248113716772836]

>  <energy>  (10) 
-449.0767284476768

>  <inter_energy>  (10) 
-499.1043748114633

>  <intra_energy>  (10) 
49.35342746853993

>  <rmsd>  (10) 
7.79322

>  <sdf_rank>  (10) 
0

$$$$

     RDKit          3D

 60 64  0  0  0  0  0  0  0  0999 V2000
    2.6227   -0.7494   14.5327 C   0  0  0  0  0  0  0  0  0  0  0  0
    2.7517    0.6509   14.3385 C   0  0  0  0  0  0  0  0  0  0  0  0
    1.5979    1.0586   13.7139 C   0  0  0  0  0  0  0  0  0  0  0  0
   -0.8181    7.1058   10.5639 N   0  0  0  0  0  0  0  0  0  0  0  0
   -2.3165    0.9957   12.3436 C   0  0  0  0  0  0  0  0  0  0  0  0
   -2.3582    3.4028   11.4460 C   0  0  0  0  0  0  0  0  0  0  0  0
   -2.5975    4.4109   12.3840 C   0  0  0  0  0  0  0  0  0  0  0  0
   -2.1154    5.6953   12.1865 C   0  0  0  0  0  0  0  0  0  0  0  0
   -1.4191    5.9686   11.0161 C   0  0  0  0  0  0  0  0  0  0  0  0
   -1.1825    4.9797   10.0558 C   0  0  0  0  0  0  0  0  0  0  0  0
   -1.6853    3.6941   10.2522 C   0  0  0  0  0  0  0  0  0  0  0  0
   -0.4474    5.6512    9.0182 C   0  0  0  0  0  0  0  0  0  0  0  0
   -0.7900    8.4191   11.1913 C   0  0  0  0  0  0  0  0  0  0  0  0
    0.0433    5.0667    7.7352 C   0  0  0  0  0  0  0  0  0  0  0  0
    5.5642    2.9353   13.8227 C   0  0  0  0  0  0  0  0  0  0  0  0
    4.8083    4.0135   12.9163 C   0  0  0  0  0  0  0  0  0  0  0  0
    4.1973    1.8841   12.1587 C   0  0  0  0  0  0  0  0  0  0  0  0
   -0.3848    5.4876    6.6628 O   0  0  0  0  0  0  0  0  0  0  0  0
    0.9814    4.1238    7.8430 N   0  0  0  0  0  0  0  0  0  0  0  0
    1.5604    3.4736    6.6744 C   0  0  0  0  0  0  0  0  0  0  0  0
   -0.2646    6.9339    9.3183 N   0  0  0  0  0  0  0  0  0  0  0  0
   -2.8493    2.1196   11.7784 N   0  0  0  0  0  0  0  0  0  0  0  0
   -3.1701   -0.0238   12.5301 N   0  0  0  0  0  0  0  0  0  0  0  0
   -2.6358   -1.1435   13.0543 C   0  0  0  0  0  0  0  0  0  0  0  0
   -1.3019   -1.2838   13.4015 C   0  0  0  0  0  0  0  0  0  0  0  0
   -1.0123    1.0121   12.6544 N   0  0  0  0  0  0  0  0  0  0  0  0
   -0.5246   -0.1263   13.1694 C   0  0  0  0  0  0  0  0  0  0  0  0
    0.8231   -0.0505   13.6153 N   0  0  0  0  0  0  0  0  0  0  0  0
    1.4219   -1.1436   14.1607 N   0  0  0  0  0  0  0  0  0  0  0  0
    3.5749   -1.7393   15.1215 C   0  0  0  0  0  0  0  0  0  0  0  0
    3.8511    1.3484   14.6565 N   0  0  0  0  0  0  0  0  0  0  0  0
    4.7896    1.6401   13.5660 C   0  0  2  0  0  0  0  0  0  0  0  0
    3.7553    3.2876   12.1752 N   0  0  0  0  0  0  0  0  0  0  0  0
    1.3533    2.0731   13.3662 H   0  0  0  0  0  0  0  0  0  0  0  0
   -3.1760    4.1819   13.2911 H   0  0  0  0  0  0  0  0  0  0  0  0
   -2.2806    6.4802   12.9392 H   0  0  0  0  0  0  0  0  0  0  0  0
   -1.5555    2.9201    9.4814 H   0  0  0  0  0  0  0  0  0  0  0  0
   -0.7925    8.3030   12.2852 H   0  0  0  0  0  0  0  0  0  0  0  0
    0.1199    8.9541   10.8814 H   0  0  0  0  0  0  0  0  0  0  0  0
   -1.6760    8.9926   10.8814 H   0  0  0  0  0  0  0  0  0  0  0  0
    6.6152    2.8316   13.5149 H   0  0  0  0  0  0  0  0  0  0  0  0
    5.5887    3.2142   14.8864 H   0  0  0  0  0  0  0  0  0  0  0  0
    4.3573    4.7912   13.5501 H   0  0  0  0  0  0  0  0  0  0  0  0
    5.5075    4.5072   12.2253 H   0  0  0  0  0  0  0  0  0  0  0  0
    4.9623    1.7279   11.3839 H   0  0  0  0  0  0  0  0  0  0  0  0
    3.3737    1.1921   11.9291 H   0  0  0  0  0  0  0  0  0  0  0  0
    1.3060    3.8472    8.7805 H   0  0  0  0  0  0  0  0  0  0  0  0
    2.2592    2.6890    7.0000 H   0  0  0  0  0  0  0  0  0  0  0  0
    0.7588    3.0233    6.0706 H   0  0  0  0  0  0  0  0  0  0  0  0
    2.1003    4.2179    6.0706 H   0  0  0  0  0  0  0  0  0  0  0  0
   -3.8441    2.0047   11.5375 H   0  0  0  0  0  0  0  0  0  0  0  0
   -3.3024   -2.0032   13.2176 H   0  0  0  0  0  0  0  0  0  0  0  0
   -0.8855   -2.2120   13.8198 H   0  0  0  0  0  0  0  0  0  0  0  0
    3.5253   -1.6877   16.2192 H   0  0  0  0  0  0  0  0  0  0  0  0
    3.3029   -2.7521   14.7894 H   0  0  0  0  0  0  0  0  0  0  0  0
    4.5975   -1.5068   14.7894 H   0  0  0  0  0  0  0  0  0  0  0  0
    4.0291    1.6648   15.6204 H   0  0  0  0  0  0  0  0  0  0  0  0
    5.3833    0.7141   13.5655 H   0  0  0  0  0  0  0  0  0  0  0  0
    2.8486    3.3756   12.6558 H   0  0  0  0  0  0  0  0  0  0  0  0
    3.6238    3.6622   11.2248 H   0  0  0  0  0  0  0  0  0  0  0  0
  1  2  1  0
  1 29  2  0
  1 30  1  0
  2  3  2  0
  2 31  1  0
  3 28  1  0
  4  9  1  0
  4 13  1  0
  4 21  1  0
  5 22  1  0
  5 23  2  0
  5 26  1  0
  6  7  2  0
  6 11  1  0
  6 22  1  0
  7  8  1  0
  8  9  2  0
  9 10  1  0
 10 11  2  0
 10 12  1  0
 12 14  1  0
 12 21  2  0
 14 18  2  0
 14 19  1  0
 15 16  1  0
 15 32  1  0
 16 33  1  0
 17 32  1  0
 17 33  1  0
 19 20  1  0
 23 24  1  0
 24 25  2  0
 25 27  1  0
 26 27  2  0
 27 28  1  0
 28 29  1  0
 32 31  1  0
  3 34  1  0
  7 35  1  0
  8 36  1  0
 11 37  1  0
 13 38  1  0
 13 39  1  0
 13 40  1  0
 15 41  1  0
 15 42  1  0
 16 43  1  0
 16 44  1  0
 17 45  1  0
 17 46  1  0
 19 47  1  0
 20 48  1  0
 20 49  1  0
 20 50  1  0
 22 51  1  0
 24 52  1  0
 25 53  1  0
 30 54  1  0
 30 55  1  0
 30 56  1  0
 31 57  1  0
 32 58  1  6
 33 59  1  0
 33 60  1  0
M  CHG  1  33   1
M  END
>  <filename_input>  (11) 
6ZCY_QF8_docked.sdf

>  <pdb_id>  (11) 
6ZCY_QF8

>  <pose_rank>  (11) 
10

>  <num_atoms_heavy>  (11) 
33

>  <num_torsions>  (11) 
4

>  <pose>  (11) 
[2.6226618775284356, -0.7493859849437882, 14.532713008463924, -1.8514964696668463, 1.9588757176391054, 3.5899081024607065, -4.737304615849067, 2.07888203762881, -1.7265971626898364, -0.4417888868099586]

>  <energy>  (11) 
-548.2917988305823

>  <inter_energy>  (11) 
-563.6197195248251

>  <intra_energy>  (11) 
15.639191988613034

>  <rmsd>  (11) 
6.82377

>  <sdf_rank>  (11) 
0

$$$$

     RDKit          3D

 60 64  0  0  0  0  0  0  0  0999 V2000
    2.9160   -1.7020   15.2803 C   0  0  0  0  0  0  0  0  0  0  0  0
    2.9913   -0.4559   14.6043 C   0  0  0  0  0  0  0  0  0  0  0  0
    1.7537   -0.2487   14.0449 C   0  0  0  0  0  0  0  0  0  0  0  0
   -1.3552    4.3637    9.2042 N   0  0  0  0  0  0  0  0  0  0  0  0
   -2.3132   -0.6499   13.3360 C   0  0  0  0  0  0  0  0  0  0  0  0
   -2.5244    1.3086   11.6865 C   0  0  0  0  0  0  0  0  0  0  0  0
   -1.2598    1.1826   11.1050 C   0  0  0  0  0  0  0  0  0  0  0  0
   -0.7719    2.1546   10.2457 C   0  0  0  0  0  0  0  0  0  0  0  0
   -1.5536    3.2768   10.0030 C   0  0  0  0  0  0  0  0  0  0  0  0
   -2.8149    3.4320   10.5871 C   0  0  0  0  0  0  0  0  0  0  0  0
   -3.2924    2.4592   11.4644 C   0  0  0  0  0  0  0  0  0  0  0  0
   -3.2883    4.6977   10.0954 C   0  0  0  0  0  0  0  0  0  0  0  0
   -0.1895    4.6832    8.3929 C   0  0  0  0  0  0  0  0  0  0  0  0
   -4.5808    5.3685   10.4237 C   0  0  0  0  0  0  0  0  0  0  0  0
    5.5869    1.7221   13.1407 C   0  0  0  0  0  0  0  0  0  0  0  0
    5.7498    3.1055   13.9248 C   0  0  0  0  0  0  0  0  0  0  0  0
    3.4609    2.6474   13.7453 C   0  0  0  0  0  0  0  0  0  0  0  0
   -4.5952    6.3500   11.1633 O   0  0  0  0  0  0  0  0  0  0  0  0
   -5.6671    4.8659    9.8338 N   0  0  0  0  0  0  0  0  0  0  0  0
   -6.9940    5.4269   10.0527 C   0  0  0  0  0  0  0  0  0  0  0  0
   -2.3899    5.2630    9.2939 N   0  0  0  0  0  0  0  0  0  0  0  0
   -2.9405    0.2311   12.5013 N   0  0  0  0  0  0  0  0  0  0  0  0
   -3.1136   -1.5177   13.9756 N   0  0  0  0  0  0  0  0  0  0  0  0
   -2.4907   -2.4088   14.7707 C   0  0  0  0  0  0  0  0  0  0  0  0
   -1.1189   -2.4648   14.9560 C   0  0  0  0  0  0  0  0  0  0  0  0
   -0.9787   -0.5701   13.4382 N   0  0  0  0  0  0  0  0  0  0  0  0
   -0.4030   -1.4803   14.2375 C   0  0  0  0  0  0  0  0  0  0  0  0
    0.9927   -1.3001   14.4390 N   0  0  0  0  0  0  0  0  0  0  0  0
    1.6820   -2.1610   15.2358 N   0  0  0  0  0  0  0  0  0  0  0  0
    3.9595   -2.4623   16.0331 C   0  0  0  0  0  0  0  0  0  0  0  0
    4.1121    0.2730   14.5094 N   0  0  0  0  0  0  0  0  0  0  0  0
    4.1511    1.2945   13.4558 C   0  0  2  0  0  0  0  0  0  0  0  0
    4.4397    3.4064   14.5397 N   0  0  0  0  0  0  0  0  0  0  0  0
    1.4444    0.5944   13.4096 H   0  0  0  0  0  0  0  0  0  0  0  0
   -0.6434    0.3004   11.3324 H   0  0  0  0  0  0  0  0  0  0  0  0
    0.2119    2.0399    9.7670 H   0  0  0  0  0  0  0  0  0  0  0  0
   -4.2578    2.5930   11.9746 H   0  0  0  0  0  0  0  0  0  0  0  0
    0.6615    4.9165    9.0496 H   0  0  0  0  0  0  0  0  0  0  0  0
    0.0629    3.8211    7.7580 H   0  0  0  0  0  0  0  0  0  0  0  0
   -0.4120    5.5535    7.7580 H   0  0  0  0  0  0  0  0  0  0  0  0
    5.7253    1.8654   12.0589 H   0  0  0  0  0  0  0  0  0  0  0  0
    6.3317    0.9707   13.4419 H   0  0  0  0  0  0  0  0  0  0  0  0
    6.5206    3.0105   14.7038 H   0  0  0  0  0  0  0  0  0  0  0  0
    6.0593    3.9111   13.2426 H   0  0  0  0  0  0  0  0  0  0  0  0
    3.2314    3.1740   12.8072 H   0  0  0  0  0  0  0  0  0  0  0  0
    2.5050    2.5209   14.2748 H   0  0  0  0  0  0  0  0  0  0  0  0
   -5.5645    4.0568    9.2046 H   0  0  0  0  0  0  0  0  0  0  0  0
   -7.1844    5.5074   11.1331 H   0  0  0  0  0  0  0  0  0  0  0  0
   -7.0499    6.4257    9.5952 H   0  0  0  0  0  0  0  0  0  0  0  0
   -7.7495    4.7712    9.5952 H   0  0  0  0  0  0  0  0  0  0  0  0
   -3.9572    0.0727   12.4547 H   0  0  0  0  0  0  0  0  0  0  0  0
   -3.1121   -3.1401   15.3083 H   0  0  0  0  0  0  0  0  0  0  0  0
   -0.6310   -3.2081   15.6037 H   0  0  0  0  0  0  0  0  0  0  0  0
    3.7933   -2.3412   17.1137 H   0  0  0  0  0  0  0  0  0  0  0  0
    3.8976   -3.5285   15.7698 H   0  0  0  0  0  0  0  0  0  0  0  0
    4.9555   -2.0768   15.7698 H   0  0  0  0  0  0  0  0  0  0  0  0
    4.9082    0.1235   15.1455 H   0  0  0  0  0  0  0  0  0  0  0  0
    3.6166    0.7673   12.6518 H   0  0  0  0  0  0  0  0  0  0  0  0
    4.4228    3.1002   15.5230 H   0  0  0  0  0  0  0  0  0  0  0  0
    4.2364    4.4161   14.5409 H   0  0  0  0  0  0  0  0  0  0  0  0
  1  2  1  0
  1 29  2  0
  1 30  1  0
  2  3  2  0
  2 31  1  0
  3 28  1  0
  4  9  1  0
  4 13  1  0
  4 21  1  0
  5 22  1  0
  5 23  2  0
  5 26  1  0
  6  7  2  0
  6 11  1  0
  6 22  1  0
  7  8  1  0
  8  9  2  0
  9 10  1  0
 10 11  2  0
 10 12  1  0
 12 14  1  0
 12 21  2  0
 14 18  2  0
 14 19  1  0
 15 16  1  0
 15 32  1  0
 16 33  1  0
 17 32  1  0
 17 33  1  0
 19 20  1  0
 23 24  1  0
 24 25  2  0
 25 27  1  0
 26 27  2  0
 27 28  1  0
 28 29  1  0
 32 31  1  0
  3 34  1  0
  7 35  1  0
  8 36  1  0
 11 37  1  0
 13 38  1  0
 13 39  1  0
 13 40  1  0
 15 41  1  0
 15 42  1  0
 16 43  1  0
 16 44  1  0
 17 45  1  0
 17 46  1  0
 19 47  1  0
 20 48  1  0
 20 49  1  0
 20 50  1  0
 22 51  1  0
 24 52  1  0
 25 53  1  0
 30 54  1  0
 30 55  1  0
 30 56  1  0
 31 57  1  0
 32 58  1  6
 33 59  1  0
 33 60  1  0
M  CHG  1  33   1
M  END
>  <filename_input>  (12) 
6ZCY_QF8_docked.sdf

>  <pdb_id>  (12) 
6ZCY_QF8

>  <pose_rank>  (12) 
11

>  <num_atoms_heavy>  (12) 
33

>  <num_torsions>  (12) 
4

>  <pose>  (12) 
[2.916042450046647, -1.7019548716711714, 15.28033351717888, -1.0500490627289665, 2.581471942566825, 3.7435882046793507, 3.8149438536775793, 1.9060623650714859, -0.6225288221933771, 0.38635020864645414]

>  <energy>  (12) 
-498.60762886791497

>  <inter_energy>  (12) 
-532.7377040425056

>  <intra_energy>  (12) 
23.12444866576822

>  <rmsd>  (12) 
6.22316

>  <sdf_rank>  (12) 
0

$$$$

     RDKit          3D

 60 64  0  0  0  0  0  0  0  0999 V2000
    6.7593    0.0003   18.3682 C   0  0  0  0  0  0  0  0  0  0  0  0
    5.8231   -1.0652   18.4265 C   0  0  0  0  0  0  0  0  0  0  0  0
    4.9721   -0.8855   17.3630 C   0  0  0  0  0  0  0  0  0  0  0  0
   -1.3236   -3.6837   15.0966 N   0  0  0  0  0  0  0  0  0  0  0  0
    3.5139    0.5041   13.7373 C   0  0  0  0  0  0  0  0  0  0  0  0
    1.4171   -0.9792   13.6695 C   0  0  0  0  0  0  0  0  0  0  0  0
    1.9374   -2.1509   14.2259 C   0  0  0  0  0  0  0  0  0  0  0  0
    1.0991   -3.1261   14.7430 C   0  0  0  0  0  0  0  0  0  0  0  0
   -0.2737   -2.9296   14.6631 C   0  0  0  0  0  0  0  0  0  0  0  0
   -0.8169   -1.7726   14.0953 C   0  0  0  0  0  0  0  0  0  0  0  0
    0.0313   -0.8036   13.5610 C   0  0  0  0  0  0  0  0  0  0  0  0
   -2.2399   -1.9510   14.2017 C   0  0  0  0  0  0  0  0  0  0  0  0
   -1.2886   -4.9878   15.7427 C   0  0  0  0  0  0  0  0  0  0  0  0
   -3.3053   -1.0201   13.7256 C   0  0  0  0  0  0  0  0  0  0  0  0
    7.8668   -2.8610   20.4445 C   0  0  0  0  0  0  0  0  0  0  0  0
    7.4248   -3.9330   21.5449 C   0  0  0  0  0  0  0  0  0  0  0  0
    6.2333   -1.9583   21.9474 C   0  0  0  0  0  0  0  0  0  0  0  0
   -4.3868   -0.9723   14.3076 O   0  0  0  0  0  0  0  0  0  0  0  0
   -2.9828   -0.2423   12.6905 N   0  0  0  0  0  0  0  0  0  0  0  0
   -3.9195    0.7217   12.1276 C   0  0  0  0  0  0  0  0  0  0  0  0
   -2.5321   -3.1161   14.7728 N   0  0  0  0  0  0  0  0  0  0  0  0
    2.3666   -0.0314   13.2241 N   0  0  0  0  0  0  0  0  0  0  0  0
    4.1608    1.3692   12.9399 N   0  0  0  0  0  0  0  0  0  0  0  0
    5.2724    1.9235   13.4608 C   0  0  0  0  0  0  0  0  0  0  0  0
    5.7621    1.6487   14.7274 C   0  0  0  0  0  0  0  0  0  0  0  0
    3.8826    0.1248   14.9693 N   0  0  0  0  0  0  0  0  0  0  0  0
    4.9927    0.7065   15.4472 C   0  0  0  0  0  0  0  0  0  0  0  0
    5.4430    0.1976   16.6958 N   0  0  0  0  0  0  0  0  0  0  0  0
    6.5630    0.7087   17.2750 N   0  0  0  0  0  0  0  0  0  0  0  0
    7.8901    0.3497   19.2808 C   0  0  0  0  0  0  0  0  0  0  0  0
    5.7948   -1.9785   19.4071 N   0  0  0  0  0  0  0  0  0  0  0  0
    6.7585   -1.8065   20.5011 C   0  0  2  0  0  0  0  0  0  0  0  0
    6.1990   -3.4101   22.1844 N   0  0  0  0  0  0  0  0  0  0  0  0
    4.0920   -1.4934   17.1061 H   0  0  0  0  0  0  0  0  0  0  0  0
    3.0267   -2.3012   14.2538 H   0  0  0  0  0  0  0  0  0  0  0  0
    1.5114   -4.0347   15.2060 H   0  0  0  0  0  0  0  0  0  0  0  0
   -0.3814    0.0855   13.0618 H   0  0  0  0  0  0  0  0  0  0  0  0
   -1.2922   -4.8561   16.8347 H   0  0  0  0  0  0  0  0  0  0  0  0
   -2.1715   -5.5703   15.4407 H   0  0  0  0  0  0  0  0  0  0  0  0
   -0.3759   -5.5222   15.4407 H   0  0  0  0  0  0  0  0  0  0  0  0
    8.8421   -2.4192   20.6966 H   0  0  0  0  0  0  0  0  0  0  0  0
    7.9861   -3.3014   19.4436 H   0  0  0  0  0  0  0  0  0  0  0  0
    7.2187   -4.9023   21.0675 H   0  0  0  0  0  0  0  0  0  0  0  0
    8.2217   -4.0871   22.2874 H   0  0  0  0  0  0  0  0  0  0  0  0
    6.9113   -1.4652   22.6596 H   0  0  0  0  0  0  0  0  0  0  0  0
    5.2460   -1.4922   22.0816 H   0  0  0  0  0  0  0  0  0  0  0  0
   -2.0432   -0.3257   12.2768 H   0  0  0  0  0  0  0  0  0  0  0  0
   -4.4344    1.2515   12.9426 H   0  0  0  0  0  0  0  0  0  0  0  0
   -3.3716    1.4465   11.5077 H   0  0  0  0  0  0  0  0  0  0  0  0
   -4.6598    0.1947   11.5077 H   0  0  0  0  0  0  0  0  0  0  0  0
    2.1398    0.3444   12.2923 H   0  0  0  0  0  0  0  0  0  0  0  0
    5.8279    2.6417   12.8398 H   0  0  0  0  0  0  0  0  0  0  0  0
    6.6676    2.1211   15.1358 H   0  0  0  0  0  0  0  0  0  0  0  0
    7.5625    0.2485   20.3260 H   0  0  0  0  0  0  0  0  0  0  0  0
    8.7352   -0.3292   19.0940 H   0  0  0  0  0  0  0  0  0  0  0  0
    8.2049    1.3870   19.0940 H   0  0  0  0  0  0  0  0  0  0  0  0
    5.1285   -2.7638   19.3937 H   0  0  0  0  0  0  0  0  0  0  0  0
    7.0714   -0.7668   20.3249 H   0  0  0  0  0  0  0  0  0  0  0  0
    5.3609   -3.8271   21.7548 H   0  0  0  0  0  0  0  0  0  0  0  0
    6.1604   -3.6367   23.1884 H   0  0  0  0  0  0  0  0  0  0  0  0
  1  2  1  0
  1 29  2  0
  1 30  1  0
  2  3  2  0
  2 31  1  0
  3 28  1  0
  4  9  1  0
  4 13  1  0
  4 21  1  0
  5 22  1  0
  5 23  2  0
  5 26  1  0
  6  7  2  0
  6 11  1  0
  6 22  1  0
  7  8  1  0
  8  9  2  0
  9 10  1  0
 10 11  2  0
 10 12  1  0
 12 14  1  0
 12 21  2  0
 14 18  2  0
 14 19  1  0
 15 16  1  0
 15 32  1  0
 16 33  1  0
 17 32  1  0
 17 33  1  0
 19 20  1  0
 23 24  1  0
 24 25  2  0
 25 27  1  0
 26 27  2  0
 27 28  1  0
 28 29  1  0
 32 31  1  0
  3 34  1  0
  7 35  1  0
  8 36  1  0
 11 37  1  0
 13 38  1  0
 13 39  1  0
 13 40  1  0
 15 41  1  0
 15 42  1  0
 16 43  1  0
 16 44  1  0
 17 45  1  0
 17 46  1  0
 19 47  1  0
 20 48  1  0
 20 49  1  0
 20 50  1  0
 22 51  1  0
 24 52  1  0
 25 53  1  0
 30 54  1  0
 30 55  1  0
 30 56  1  0
 31 57  1  0
 32 58  1  1
 33 59  1  0
 33 60  1  0
M  CHG  1  33   1
M  END
>  <filename_input>  (13) 
6ZCY_QF8_docked.sdf

>  <pdb_id>  (13) 
6ZCY_QF8

>  <pose_rank>  (13) 
12

>  <num_atoms_heavy>  (13) 
33

>  <num_torsions>  (13) 
4

>  <pose>  (13) 
[6.759337469914494, 0.0003193774483471294, 18.36822834060934, -3.096427721253963, -1.5698402633362927, -0.43076336625013606, 2.4344253009550814, 3.7068548911512793, -3.388893585923415, 1.306054273537858]

>  <energy>  (13) 
-529.5286196899024

>  <inter_energy>  (13) 
-584.2680026325667

>  <intra_energy>  (13) 
58.71406567801706

>  <rmsd>  (13) 
6.49819

>  <sdf_rank>  (13) 
0

$$$$

     RDKit          3D

 60 64  0  0  0  0  0  0  0  0999 V2000
    3.7651    0.6565   13.9264 C   0  0  0  0  0  0  0  0  0  0  0  0
    3.2376    1.8560   13.3804 C   0  0  0  0  0  0  0  0  0  0  0  0
    1.9061    1.6150   13.1422 C   0  0  0  0  0  0  0  0  0  0  0  0
   -3.6517    5.0368    9.8604 N   0  0  0  0  0  0  0  0  0  0  0  0
   -1.8165   -0.2029   13.3439 C   0  0  0  0  0  0  0  0  0  0  0  0
   -3.0904    1.5725   11.9925 C   0  0  0  0  0  0  0  0  0  0  0  0
   -4.3944    2.0743   11.9612 C   0  0  0  0  0  0  0  0  0  0  0  0
   -4.6911    3.2418   11.2756 C   0  0  0  0  0  0  0  0  0  0  0  0
   -3.6691    3.8843   10.5886 C   0  0  0  0  0  0  0  0  0  0  0  0
   -2.3603    3.3912   10.5921 C   0  0  0  0  0  0  0  0  0  0  0  0
   -2.0720    2.2067   11.2689 C   0  0  0  0  0  0  0  0  0  0  0  0
   -1.6209    4.3212    9.7820 C   0  0  0  0  0  0  0  0  0  0  0  0
   -4.7661    5.9190    9.5455 C   0  0  0  0  0  0  0  0  0  0  0  0
   -0.1714    4.2597    9.4303 C   0  0  0  0  0  0  0  0  0  0  0  0
    5.4940    2.2051   11.2854 C   0  0  0  0  0  0  0  0  0  0  0  0
    6.7942    3.1328   11.3500 C   0  0  0  0  0  0  0  0  0  0  0  0
    4.9165    4.5306   11.3086 C   0  0  0  0  0  0  0  0  0  0  0  0
    0.2224    3.4679    8.5767 O   0  0  0  0  0  0  0  0  0  0  0  0
    0.6200    5.1322   10.0570 N   0  0  0  0  0  0  0  0  0  0  0  0
    2.0539    5.1937    9.8045 C   0  0  0  0  0  0  0  0  0  0  0  0
   -2.4130    5.2849    9.3206 N   0  0  0  0  0  0  0  0  0  0  0  0
   -2.8948    0.4068   12.7678 N   0  0  0  0  0  0  0  0  0  0  0  0
   -2.0844   -1.3077   14.0584 N   0  0  0  0  0  0  0  0  0  0  0  0
   -1.0166   -1.9279   14.5961 C   0  0  0  0  0  0  0  0  0  0  0  0
    0.2913   -1.4928   14.4566 C   0  0  0  0  0  0  0  0  0  0  0  0
   -0.6097    0.3468   13.1462 N   0  0  0  0  0  0  0  0  0  0  0  0
    0.4231   -0.3082   13.6968 C   0  0  0  0  0  0  0  0  0  0  0  0
    1.6756    0.3560   13.5915 N   0  0  0  0  0  0  0  0  0  0  0  0
    2.7937   -0.2124   14.1187 N   0  0  0  0  0  0  0  0  0  0  0  0
    5.1585    0.3091   14.3404 C   0  0  0  0  0  0  0  0  0  0  0  0
    3.9791    2.9384   13.1062 N   0  0  0  0  0  0  0  0  0  0  0  0
    4.3589    3.1435   11.7032 C   0  0  2  0  0  0  0  0  0  0  0  0
    6.3335    4.4922   11.7032 N   0  0  0  0  0  0  0  0  0  0  0  0
    1.1786    2.3002   12.6828 H   0  0  0  0  0  0  0  0  0  0  0  0
   -5.1960    1.5354   12.4875 H   0  0  0  0  0  0  0  0  0  0  0  0
   -5.7125    3.6503   11.2757 H   0  0  0  0  0  0  0  0  0  0  0  0
   -1.0601    1.7766   11.2352 H   0  0  0  0  0  0  0  0  0  0  0  0
   -5.2226    6.2805   10.4788 H   0  0  0  0  0  0  0  0  0  0  0  0
   -4.4014    6.7758    8.9600 H   0  0  0  0  0  0  0  0  0  0  0  0
   -5.5163    5.3675    8.9600 H   0  0  0  0  0  0  0  0  0  0  0  0
    5.3336    1.8247   10.2658 H   0  0  0  0  0  0  0  0  0  0  0  0
    5.5716    1.3163   11.9289 H   0  0  0  0  0  0  0  0  0  0  0  0
    7.4890    2.7578   12.1159 H   0  0  0  0  0  0  0  0  0  0  0  0
    7.3254    3.1346   10.3867 H   0  0  0  0  0  0  0  0  0  0  0  0
    4.8203    4.6929   10.2249 H   0  0  0  0  0  0  0  0  0  0  0  0
    4.3714    5.3516   11.7973 H   0  0  0  0  0  0  0  0  0  0  0  0
    0.2049    5.7819   10.7400 H   0  0  0  0  0  0  0  0  0  0  0  0
    2.5943    5.2169   10.7623 H   0  0  0  0  0  0  0  0  0  0  0  0
    2.3634    4.3080    9.2302 H   0  0  0  0  0  0  0  0  0  0  0  0
    2.2864    6.1026    9.2302 H   0  0  0  0  0  0  0  0  0  0  0  0
   -3.7729   -0.1036   12.9388 H   0  0  0  0  0  0  0  0  0  0  0  0
   -1.1946   -2.8400   15.1847 H   0  0  0  0  0  0  0  0  0  0  0  0
    1.1495   -2.0213   14.8973 H   0  0  0  0  0  0  0  0  0  0  0  0
    5.2217    0.2934   15.4384 H   0  0  0  0  0  0  0  0  0  0  0  0
    5.4225   -0.6823   13.9437 H   0  0  0  0  0  0  0  0  0  0  0  0
    5.8570    1.0606   13.9437 H   0  0  0  0  0  0  0  0  0  0  0  0
    4.2687    3.5950   13.8450 H   0  0  0  0  0  0  0  0  0  0  0  0
    3.3891    2.9774   11.2113 H   0  0  0  0  0  0  0  0  0  0  0  0
    6.4316    4.6558   12.7154 H   0  0  0  0  0  0  0  0  0  0  0  0
    6.8858    5.2221   11.2309 H   0  0  0  0  0  0  0  0  0  0  0  0
  1  2  1  0
  1 29  2  0
  1 30  1  0
  2  3  2  0
  2 31  1  0
  3 28  1  0
  4  9  1  0
  4 13  1  0
  4 21  1  0
  5 22  1  0
  5 23  2  0
  5 26  1  0
  6  7  2  0
  6 11  1  0
  6 22  1  0
  7  8  1  0
  8  9  2  0
  9 10  1  0
 10 11  2  0
 10 12  1  0
 12 14  1  0
 12 21  2  0
 14 18  2  0
 14 19  1  0
 15 16  1  0
 15 32  1  0
 16 33  1  0
 17 32  1  0
 17 33  1  0
 19 20  1  0
 23 24  1  0
 24 25  2  0
 25 27  1  0
 26 27  2  0
 27 28  1  0
 28 29  1  0
 32 31  1  0
  3 34  1  0
  7 35  1  0
  8 36  1  0
 11 37  1  0
 13 38  1  0
 13 39  1  0
 13 40  1  0
 15 41  1  0
 15 42  1  0
 16 43  1  0
 16 44  1  0
 17 45  1  0
 17 46  1  0
 19 47  1  0
 20 48  1  0
 20 49  1  0
 20 50  1  0
 22 51  1  0
 24 52  1  0
 25 53  1  0
 30 54  1  0
 30 55  1  0
 30 56  1  0
 31 57  1  0
 32 58  1  6
 33 59  1  0
 33 60  1  0
M  CHG  1  33   1
M  END
>  <filename_input>  (14) 
6ZCY_QF8_docked.sdf

>  <pdb_id>  (14) 
6ZCY_QF8

>  <pose_rank>  (14) 
13

>  <num_atoms_heavy>  (14) 
33

>  <num_torsions>  (14) 
4

>  <pose>  (14) 
[3.765126430202902, 0.6565072002923281, 13.926446845332215, 4.349878603828562, -6.282313546494662, -11.463853002993805, -5.8440840185491645, 1.3747364193068043, -1.6803403265994408, 1.8630705114955317]

>  <energy>  (14) 
-621.2730889009047

>  <inter_energy>  (14) 
-638.9451715201641

>  <intra_energy>  (14) 
25.77018874928472

>  <rmsd>  (14) 
5.64483

>  <sdf_rank>  (14) 
0

$$$$

     RDKit          3D

 60 64  0  0  0  0  0  0  0  0999 V2000
   -5.0206    1.6128   11.7657 C   0  0  0  0  0  0  0  0  0  0  0  0
   -3.9728    0.8221   12.3062 C   0  0  0  0  0  0  0  0  0  0  0  0
   -2.8679    1.6367   12.3612 C   0  0  0  0  0  0  0  0  0  0  0  0
    4.3185    0.9726   13.8385 N   0  0  0  0  0  0  0  0  0  0  0  0
   -0.5818    5.0974   12.3882 C   0  0  0  0  0  0  0  0  0  0  0  0
    1.6595    3.9715   12.9448 C   0  0  0  0  0  0  0  0  0  0  0  0
    3.0149    4.2973   12.8442 C   0  0  0  0  0  0  0  0  0  0  0  0
    3.9950    3.3600   13.1306 C   0  0  0  0  0  0  0  0  0  0  0  0
    3.6003    2.0764   13.4854 C   0  0  0  0  0  0  0  0  0  0  0  0
    2.2500    1.7232   13.5760 C   0  0  0  0  0  0  0  0  0  0  0  0
    1.2692    2.6656   13.2694 C   0  0  0  0  0  0  0  0  0  0  0  0
    2.2632    0.3377   13.9607 C   0  0  0  0  0  0  0  0  0  0  0  0
    5.7653    0.8187   13.8882 C   0  0  0  0  0  0  0  0  0  0  0  0
    1.0838   -0.5517   14.1759 C   0  0  0  0  0  0  0  0  0  0  0  0
   -4.8373   -2.3193   14.0904 C   0  0  0  0  0  0  0  0  0  0  0  0
   -6.3988   -2.5406   13.8292 C   0  0  0  0  0  0  0  0  0  0  0  0
   -6.0589   -0.2650   14.2619 C   0  0  0  0  0  0  0  0  0  0  0  0
    1.0826   -1.3602   15.1016 O   0  0  0  0  0  0  0  0  0  0  0  0
    0.0549   -0.3699   13.3460 N   0  0  0  0  0  0  0  0  0  0  0  0
   -1.1664   -1.1585   13.4459 C   0  0  0  0  0  0  0  0  0  0  0  0
    3.5095   -0.1107   14.0819 N   0  0  0  0  0  0  0  0  0  0  0  0
    0.7500    5.0214   12.6828 N   0  0  0  0  0  0  0  0  0  0  0  0
   -1.0795    6.3373   12.2548 N   0  0  0  0  0  0  0  0  0  0  0  0
   -2.3844    6.4103   11.9293 C   0  0  0  0  0  0  0  0  0  0  0  0
   -3.2046    5.3100   11.7396 C   0  0  0  0  0  0  0  0  0  0  0  0
   -1.2591    3.9473   12.2603 N   0  0  0  0  0  0  0  0  0  0  0  0
   -2.5535    4.0702   11.9315 C   0  0  0  0  0  0  0  0  0  0  0  0
   -3.2871    2.8525   11.9299 N   0  0  0  0  0  0  0  0  0  0  0  0
   -4.6110    2.8560   11.6162 N   0  0  0  0  0  0  0  0  0  0  0  0
   -6.4343    1.2570   11.4365 C   0  0  0  0  0  0  0  0  0  0  0  0
   -4.0987   -0.4793   12.6015 N   0  0  0  0  0  0  0  0  0  0  0  0
   -4.6526   -0.8091   13.9203 C   0  0  2  0  0  0  0  0  0  0  0  0
   -6.9917   -1.2032   13.6177 N   0  0  0  0  0  0  0  0  0  0  0  0
   -1.8542    1.3605   12.6872 H   0  0  0  0  0  0  0  0  0  0  0  0
    3.3077    5.3110   12.5335 H   0  0  0  0  0  0  0  0  0  0  0  0
    5.0609    3.6266   13.0782 H   0  0  0  0  0  0  0  0  0  0  0  0
    0.2049    2.3880   13.2822 H   0  0  0  0  0  0  0  0  0  0  0  0
    6.0945    0.7837   14.9372 H   0  0  0  0  0  0  0  0  0  0  0  0
    6.0523   -0.1151   13.3825 H   0  0  0  0  0  0  0  0  0  0  0  0
    6.2424    1.6711   13.3825 H   0  0  0  0  0  0  0  0  0  0  0  0
   -4.5606   -2.6365   15.1066 H   0  0  0  0  0  0  0  0  0  0  0  0
   -4.2034   -2.9061   13.4094 H   0  0  0  0  0  0  0  0  0  0  0  0
   -6.5483   -3.1663   12.9369 H   0  0  0  0  0  0  0  0  0  0  0  0
   -6.8722   -3.0515   14.6806 H   0  0  0  0  0  0  0  0  0  0  0  0
   -6.2147   -0.2500   15.3507 H   0  0  0  0  0  0  0  0  0  0  0  0
   -6.2009    0.7680   13.9114 H   0  0  0  0  0  0  0  0  0  0  0  0
    0.1261    0.3497   12.6124 H   0  0  0  0  0  0  0  0  0  0  0  0
   -1.4140   -1.3183   14.5057 H   0  0  0  0  0  0  0  0  0  0  0  0
   -1.9908   -0.6217   12.9538 H   0  0  0  0  0  0  0  0  0  0  0  0
   -1.0164   -2.1307   12.9538 H   0  0  0  0  0  0  0  0  0  0  0  0
    1.1972    5.9484   12.7236 H   0  0  0  0  0  0  0  0  0  0  0  0
   -2.8281    7.4093   11.8060 H   0  0  0  0  0  0  0  0  0  0  0  0
   -4.2664    5.3937   11.4646 H   0  0  0  0  0  0  0  0  0  0  0  0
   -7.0027    1.1139   12.3673 H   0  0  0  0  0  0  0  0  0  0  0  0
   -6.8896    2.0685   10.8499 H   0  0  0  0  0  0  0  0  0  0  0  0
   -6.4511    0.3266   10.8499 H   0  0  0  0  0  0  0  0  0  0  0  0
   -3.8199   -1.2131   11.9346 H   0  0  0  0  0  0  0  0  0  0  0  0
   -3.9018   -0.3379   14.5716 H   0  0  0  0  0  0  0  0  0  0  0  0
   -7.0731   -0.9986   12.6115 H   0  0  0  0  0  0  0  0  0  0  0  0
   -7.9411   -1.1350   14.0111 H   0  0  0  0  0  0  0  0  0  0  0  0
  1  2  1  0
  1 29  2  0
  1 30  1  0
  2  3  2  0
  2 31  1  0
  3 28  1  0
  4  9  1  0
  4 13  1  0
  4 21  1  0
  5 22  1  0
  5 23  2  0
  5 26  1  0
  6  7  2  0
  6 11  1  0
  6 22  1  0
  7  8  1  0
  8  9  2  0
  9 10  1  0
 10 11  2  0
 10 12  1  0
 12 14  1  0
 12 21  2  0
 14 18  2  0
 14 19  1  0
 15 16  1  0
 15 32  1  0
 16 33  1  0
 17 32  1  0
 17 33  1  0
 19 20  1  0
 23 24  1  0
 24 25  2  0
 25 27  1  0
 26 27  2  0
 27 28  1  0
 28 29  1  0
 32 31  1  0
  3 34  1  0
  7 35  1  0
  8 36  1  0
 11 37  1  0
 13 38  1  0
 13 39  1  0
 13 40  1  0
 15 41  1  0
 15 42  1  0
 16 43  1  0
 16 44  1  0
 17 45  1  0
 17 46  1  0
 19 47  1  0
 20 48  1  0
 20 49  1  0
 20 50  1  0
 22 51  1  0
 24 52  1  0
 25 53  1  0
 30 54  1  0
 30 55  1  0
 30 56  1  0
 31 57  1  0
 32 58  1  1
 33 59  1  0
 33 60  1  0
M  CHG  1  33   1
M  END
>  <filename_input>  (15) 
6ZCY_QF8_docked.sdf

>  <pdb_id>  (15) 
6ZCY_QF8

>  <pose_rank>  (15) 
14

>  <num_atoms_heavy>  (15) 
33

>  <num_torsions>  (15) 
4

>  <pose>  (15) 
[-5.0206059785775485, 1.6128262343902557, 11.765706544011872, -0.38114179924017627, 0.919323977129224, 2.207681086104201, -0.20637046938024667, -2.408819950886794, 1.356767827602842, -0.01646256682706259]

>  <energy>  (15) 
-504.0517222025388

>  <inter_energy>  (15) 
-516.7130050930119

>  <intra_energy>  (15) 
58.405098117725075

>  <rmsd>  (15) 
8.28014

>  <sdf_rank>  (15) 
0

$$$$

     RDKit          3D

 60 64  0  0  0  0  0  0  0  0999 V2000
   -5.1313   -3.2239   13.1921 C   0  0  0  0  0  0  0  0  0  0  0  0
   -3.8758   -3.2349   13.8546 C   0  0  0  0  0  0  0  0  0  0  0  0
   -3.2382   -2.0752   13.4855 C   0  0  0  0  0  0  0  0  0  0  0  0
    3.4102    0.9138   14.2814 N   0  0  0  0  0  0  0  0  0  0  0  0
   -2.6841    1.7598   12.0057 C   0  0  0  0  0  0  0  0  0  0  0  0
   -0.2106    1.9805   12.6646 C   0  0  0  0  0  0  0  0  0  0  0  0
    0.7703    2.9756   12.6936 C   0  0  0  0  0  0  0  0  0  0  0  0
    2.0252    2.7223   13.2248 C   0  0  0  0  0  0  0  0  0  0  0  0
    2.2994    1.4446   13.6955 C   0  0  0  0  0  0  0  0  0  0  0  0
    1.3388    0.4286   13.6610 C   0  0  0  0  0  0  0  0  0  0  0  0
    0.0842    0.6850   13.1093 C   0  0  0  0  0  0  0  0  0  0  0  0
    2.0014   -0.7155   14.2265 C   0  0  0  0  0  0  0  0  0  0  0  0
    4.6901    1.5600   14.5340 C   0  0  0  0  0  0  0  0  0  0  0  0
    1.4399   -2.0867   14.4080 C   0  0  0  0  0  0  0  0  0  0  0  0
   -4.3061   -6.2732   15.7586 C   0  0  0  0  0  0  0  0  0  0  0  0
   -3.1228   -7.3477   15.7811 C   0  0  0  0  0  0  0  0  0  0  0  0
   -3.3842   -6.6139   13.5732 C   0  0  0  0  0  0  0  0  0  0  0  0
    1.7422   -2.9848   13.6252 O   0  0  0  0  0  0  0  0  0  0  0  0
    0.6554   -2.2613   15.4731 N   0  0  0  0  0  0  0  0  0  0  0  0
    0.0476   -3.5494   15.7815 C   0  0  0  0  0  0  0  0  0  0  0  0
    3.2540   -0.4217   14.5634 N   0  0  0  0  0  0  0  0  0  0  0  0
   -1.4695    2.3678   12.1513 N   0  0  0  0  0  0  0  0  0  0  0  0
   -3.6620    2.5256   11.4957 N   0  0  0  0  0  0  0  0  0  0  0  0
   -4.8494    1.9148   11.3194 C   0  0  0  0  0  0  0  0  0  0  0  0
   -5.0996    0.5887   11.6329 C   0  0  0  0  0  0  0  0  0  0  0  0
   -2.7875    0.4758   12.3778 N   0  0  0  0  0  0  0  0  0  0  0  0
   -3.9870   -0.0907   12.1792 C   0  0  0  0  0  0  0  0  0  0  0  0
   -4.1187   -1.4072   12.6990 N   0  0  0  0  0  0  0  0  0  0  0  0
   -5.2937   -2.0791   12.5607 N   0  0  0  0  0  0  0  0  0  0  0  0
   -6.2304   -4.2364   13.1786 C   0  0  0  0  0  0  0  0  0  0  0  0
   -3.4410   -4.2539   14.6088 N   0  0  0  0  0  0  0  0  0  0  0  0
   -4.1104   -5.5474   14.4250 C   0  0  2  0  0  0  0  0  0  0  0  0
   -2.4119   -7.2294   14.4904 N   0  0  0  0  0  0  0  0  0  0  0  0
   -2.2247   -1.7550   13.7689 H   0  0  0  0  0  0  0  0  0  0  0  0
    0.5434    3.9732   12.2895 H   0  0  0  0  0  0  0  0  0  0  0  0
    2.7865    3.5149   13.2725 H   0  0  0  0  0  0  0  0  0  0  0  0
   -0.6629   -0.1179   13.0244 H   0  0  0  0  0  0  0  0  0  0  0  0
    4.8518    1.6417   15.6189 H   0  0  0  0  0  0  0  0  0  0  0  0
    5.4975    0.9616   14.0869 H   0  0  0  0  0  0  0  0  0  0  0  0
    4.6879    2.5651   14.0869 H   0  0  0  0  0  0  0  0  0  0  0  0
   -5.2873   -6.7692   15.7951 H   0  0  0  0  0  0  0  0  0  0  0  0
   -4.2811   -5.5928   16.6225 H   0  0  0  0  0  0  0  0  0  0  0  0
   -2.4349   -7.1357   16.6128 H   0  0  0  0  0  0  0  0  0  0  0  0
   -3.5168   -8.3650   15.9221 H   0  0  0  0  0  0  0  0  0  0  0  0
   -4.0970   -7.3654   13.2030 H   0  0  0  0  0  0  0  0  0  0  0  0
   -2.9003   -6.1783   12.6865 H   0  0  0  0  0  0  0  0  0  0  0  0
    0.4738   -1.4615   16.0961 H   0  0  0  0  0  0  0  0  0  0  0  0
   -0.0117   -3.6750   16.8727 H   0  0  0  0  0  0  0  0  0  0  0  0
   -0.9645   -3.5894   15.3522 H   0  0  0  0  0  0  0  0  0  0  0  0
    0.6601   -4.3560   15.3522 H   0  0  0  0  0  0  0  0  0  0  0  0
   -1.4715    3.3379   11.8052 H   0  0  0  0  0  0  0  0  0  0  0  0
   -5.6749    2.5079   10.8988 H   0  0  0  0  0  0  0  0  0  0  0  0
   -6.0758    0.1080   11.4714 H   0  0  0  0  0  0  0  0  0  0  0  0
   -6.5070   -4.4912   14.2123 H   0  0  0  0  0  0  0  0  0  0  0  0
   -7.1052   -3.8211   12.6567 H   0  0  0  0  0  0  0  0  0  0  0  0
   -5.8880   -5.1422   12.6567 H   0  0  0  0  0  0  0  0  0  0  0  0
   -2.6735   -4.1351   15.2854 H   0  0  0  0  0  0  0  0  0  0  0  0
   -5.0279   -5.2221   13.9128 H   0  0  0  0  0  0  0  0  0  0  0  0
   -1.5794   -6.6311   14.5896 H   0  0  0  0  0  0  0  0  0  0  0  0
   -2.0809   -8.1421   14.1467 H   0  0  0  0  0  0  0  0  0  0  0  0
  1  2  1  0
  1 29  2  0
  1 30  1  0
  2  3  2  0
  2 31  1  0
  3 28  1  0
  4  9  1  0
  4 13  1  0
  4 21  1  0
  5 22  1  0
  5 23  2  0
  5 26  1  0
  6  7  2  0
  6 11  1  0
  6 22  1  0
  7  8  1  0
  8  9  2  0
  9 10  1  0
 10 11  2  0
 10 12  1  0
 12 14  1  0
 12 21  2  0
 14 18  2  0
 14 19  1  0
 15 16  1  0
 15 32  1  0
 16 33  1  0
 17 32  1  0
 17 33  1  0
 19 20  1  0
 23 24  1  0
 24 25  2  0
 25 27  1  0
 26 27  2  0
 27 28  1  0
 28 29  1  0
 32 31  1  0
  3 34  1  0
  7 35  1  0
  8 36  1  0
 11 37  1  0
 13 38  1  0
 13 39  1  0
 13 40  1  0
 15 41  1  0
 15 42  1  0
 16 43  1  0
 16 44  1  0
 17 45  1  0
 17 46  1  0
 19 47  1  0
 20 48  1  0
 20 49  1  0
 20 50  1  0
 22 51  1  0
 24 52  1  0
 25 53  1  0
 30 54  1  0
 30 55  1  0
 30 56  1  0
 31 57  1  0
 32 58  1  6
 33 59  1  0
 33 60  1  0
M  CHG  1  33   1
M  END
>  <filename_input>  (16) 
6ZCY_QF8_docked.sdf

>  <pdb_id>  (16) 
6ZCY_QF8

>  <pose_rank>  (16) 
15

>  <num_atoms_heavy>  (16) 
33

>  <num_torsions>  (16) 
4

>  <pose>  (16) 
[-5.131309468913753, -3.223864334966871, 13.192099551285988, 0.9279837728421221, -1.6099315006493327, -2.806533301227308, 0.15523015242710178, 1.8211281859894692, 3.1579427026915194, 0.7390958172337634]

>  <energy>  (16) 
-579.5316930633167

>  <inter_energy>  (16) 
-584.4580155123124

>  <intra_energy>  (16) 
46.895473655513285

>  <rmsd>  (16) 
9.27245

>  <sdf_rank>  (16) 
0

$$$$

     RDKit          3D

 60 64  0  0  0  0  0  0  0  0999 V2000
   -6.1706   -0.6847   12.9487 C   0  0  0  0  0  0  0  0  0  0  0  0
   -4.9259   -1.0180   13.5445 C   0  0  0  0  0  0  0  0  0  0  0  0
   -4.0529   -0.0172   13.1926 C   0  0  0  0  0  0  0  0  0  0  0  0
    3.1539    1.3500   13.7564 N   0  0  0  0  0  0  0  0  0  0  0  0
   -2.6877    3.6621   11.8500 C   0  0  0  0  0  0  0  0  0  0  0  0
   -0.2056    3.2755   12.3892 C   0  0  0  0  0  0  0  0  0  0  0  0
    1.0165    3.8963   12.1164 C   0  0  0  0  0  0  0  0  0  0  0  0
    2.2104    3.3336   12.5397 C   0  0  0  0  0  0  0  0  0  0  0  0
    2.1685    2.1181   13.2106 C   0  0  0  0  0  0  0  0  0  0  0  0
    0.9584    1.4705   13.4797 C   0  0  0  0  0  0  0  0  0  0  0  0
   -0.2377    2.0329   13.0358 C   0  0  0  0  0  0  0  0  0  0  0  0
    1.3372    0.2692   14.1734 C   0  0  0  0  0  0  0  0  0  0  0  0
    4.5911    1.5808   13.7340 C   0  0  0  0  0  0  0  0  0  0  0  0
    0.4333   -0.8077   14.6752 C   0  0  0  0  0  0  0  0  0  0  0  0
   -6.1676   -4.1517   14.2970 C   0  0  0  0  0  0  0  0  0  0  0  0
   -5.3903   -5.2756   15.1264 C   0  0  0  0  0  0  0  0  0  0  0  0
   -3.9477   -4.4871   13.4594 C   0  0  0  0  0  0  0  0  0  0  0  0
    0.2022   -0.9072   15.8783 O   0  0  0  0  0  0  0  0  0  0  0  0
   -0.1182   -1.5892   13.7449 N   0  0  0  0  0  0  0  0  0  0  0  0
   -1.0294   -2.6733   14.0883 C   0  0  0  0  0  0  0  0  0  0  0  0
    2.6585    0.1912   14.3033 N   0  0  0  0  0  0  0  0  0  0  0  0
   -1.3605    3.9673   11.9584 N   0  0  0  0  0  0  0  0  0  0  0  0
   -3.4818    4.6574   11.4239 N   0  0  0  0  0  0  0  0  0  0  0  0
   -4.7844    4.3449   11.2833 C   0  0  0  0  0  0  0  0  0  0  0  0
   -5.3215    3.0966   11.5529 C   0  0  0  0  0  0  0  0  0  0  0  0
   -3.0700    2.4180   12.1721 N   0  0  0  0  0  0  0  0  0  0  0  0
   -4.3749    2.1525   12.0118 C   0  0  0  0  0  0  0  0  0  0  0  0
   -4.7862    0.8754   12.4815 N   0  0  0  0  0  0  0  0  0  0  0  0
   -6.0893    0.4987   12.3756 N   0  0  0  0  0  0  0  0  0  0  0  0
   -7.4736   -1.4166   12.9489 C   0  0  0  0  0  0  0  0  0  0  0  0
   -4.7083   -2.1481   14.2315 N   0  0  0  0  0  0  0  0  0  0  0  0
   -5.0505   -3.4081   13.5603 C   0  0  2  0  0  0  0  0  0  0  0  0
   -3.9609   -5.1615   14.7672 N   0  0  0  0  0  0  0  0  0  0  0  0
   -2.9823    0.0470   13.4366 H   0  0  0  0  0  0  0  0  0  0  0  0
    1.0310    4.8441   11.5584 H   0  0  0  0  0  0  0  0  0  0  0  0
    3.1691    3.8380   12.3487 H   0  0  0  0  0  0  0  0  0  0  0  0
   -1.1924    1.5089   13.1909 H   0  0  0  0  0  0  0  0  0  0  0  0
    4.9688    1.6415   14.7653 H   0  0  0  0  0  0  0  0  0  0  0  0
    5.0876    0.7509   13.2099 H   0  0  0  0  0  0  0  0  0  0  0  0
    4.8028    2.5244   13.2099 H   0  0  0  0  0  0  0  0  0  0  0  0
   -6.8723   -4.6062   13.5850 H   0  0  0  0  0  0  0  0  0  0  0  0
   -6.7710   -3.4904   14.9362 H   0  0  0  0  0  0  0  0  0  0  0  0
   -5.5237   -5.1097   16.2056 H   0  0  0  0  0  0  0  0  0  0  0  0
   -5.7772   -6.2779   14.8903 H   0  0  0  0  0  0  0  0  0  0  0  0
   -4.1758   -5.2001   12.6534 H   0  0  0  0  0  0  0  0  0  0  0  0
   -2.9638   -4.0547   13.2252 H   0  0  0  0  0  0  0  0  0  0  0  0
    0.1069   -1.4211   12.7539 H   0  0  0  0  0  0  0  0  0  0  0  0
   -1.1014   -2.7589   15.1826 H   0  0  0  0  0  0  0  0  0  0  0  0
   -2.0249   -2.4617   13.6708 H   0  0  0  0  0  0  0  0  0  0  0  0
   -0.6498   -3.6175   13.6708 H   0  0  0  0  0  0  0  0  0  0  0  0
   -1.1522    4.9291   11.6543 H   0  0  0  0  0  0  0  0  0  0  0  0
   -5.4667    5.1327   10.9313 H   0  0  0  0  0  0  0  0  0  0  0  0
   -6.3880    2.8614   11.4216 H   0  0  0  0  0  0  0  0  0  0  0  0
   -7.7931   -1.5961   13.9861 H   0  0  0  0  0  0  0  0  0  0  0  0
   -8.2332   -0.8132   12.4304 H   0  0  0  0  0  0  0  0  0  0  0  0
   -7.3535   -2.3793   12.4304 H   0  0  0  0  0  0  0  0  0  0  0  0
   -4.3194   -2.1332   15.1851 H   0  0  0  0  0  0  0  0  0  0  0  0
   -5.2995   -3.0339   12.5563 H   0  0  0  0  0  0  0  0  0  0  0  0
   -3.4554   -4.6013   15.4682 H   0  0  0  0  0  0  0  0  0  0  0  0
   -3.4969   -6.0804   14.7325 H   0  0  0  0  0  0  0  0  0  0  0  0
  1  2  1  0
  1 29  2  0
  1 30  1  0
  2  3  2  0
  2 31  1  0
  3 28  1  0
  4  9  1  0
  4 13  1  0
  4 21  1  0
  5 22  1  0
  5 23  2  0
  5 26  1  0
  6  7  2  0
  6 11  1  0
  6 22  1  0
  7  8  1  0
  8  9  2  0
  9 10  1  0
 10 11  2  0
 10 12  1  0
 12 14  1  0
 12 21  2  0
 14 18  2  0
 14 19  1  0
 15 16  1  0
 15 32  1  0
 16 33  1  0
 17 32  1  0
 17 33  1  0
 19 20  1  0
 23 24  1  0
 24 25  2  0
 25 27  1  0
 26 27  2  0
 27 28  1  0
 28 29  1  0
 32 31  1  0
  3 34  1  0
  7 35  1  0
  8 36  1  0
 11 37  1  0
 13 38  1  0
 13 39  1  0
 13 40  1  0
 15 41  1  0
 15 42  1  0
 16 43  1  0
 16 44  1  0
 17 45  1  0
 17 46  1  0
 19 47  1  0
 20 48  1  0
 20 49  1  0
 20 50  1  0
 22 51  1  0
 24 52  1  0
 25 53  1  0
 30 54  1  0
 30 55  1  0
 30 56  1  0
 31 57  1  0
 32 58  1  6
 33 59  1  0
 33 60  1  0
M  CHG  1  33   1
M  END
>  <filename_input>  (17) 
6ZCY_QF8_docked.sdf

>  <pdb_id>  (17) 
6ZCY_QF8

>  <pose_rank>  (17) 
16

>  <num_atoms_heavy>  (17) 
33

>  <num_torsions>  (17) 
4

>  <pose>  (17) 
[-6.170576952022067, -0.6847275733416059, 12.948668480291452, -0.5443523971919849, 1.3572328199825354, 2.3092722705988162, -0.09949048128630099, -1.80106662680659, -2.512529962399847, 1.1615958123035028]

>  <energy>  (17) 
-561.6145228451771

>  <inter_energy>  (17) 
-569.6604089296621

>  <intra_energy>  (17) 
36.273626088560434

>  <rmsd>  (17) 
9.08215

>  <sdf_rank>  (17) 
0

$$$$

     RDKit          3D

 60 64  0  0  0  0  0  0  0  0999 V2000
   -7.4617   -5.3952   11.0570 C   0  0  0  0  0  0  0  0  0  0  0  0
   -6.0647   -5.3730   10.8054 C   0  0  0  0  0  0  0  0  0  0  0  0
   -5.5010   -4.6640   11.8384 C   0  0  0  0  0  0  0  0  0  0  0  0
    1.0042   -1.9099   13.3848 N   0  0  0  0  0  0  0  0  0  0  0  0
   -5.0970   -2.8384   15.5407 C   0  0  0  0  0  0  0  0  0  0  0  0
   -2.6171   -2.2126   15.2971 C   0  0  0  0  0  0  0  0  0  0  0  0
   -1.7816   -3.3302   15.3757 C   0  0  0  0  0  0  0  0  0  0  0  0
   -0.5401   -3.3351   14.7592 C   0  0  0  0  0  0  0  0  0  0  0  0
   -0.1282   -2.1893   14.0908 C   0  0  0  0  0  0  0  0  0  0  0  0
   -0.9405   -1.0534   14.0136 C   0  0  0  0  0  0  0  0  0  0  0  0
   -2.1807   -1.0486   14.6508 C   0  0  0  0  0  0  0  0  0  0  0  0
   -0.1682   -0.1069   13.2549 C   0  0  0  0  0  0  0  0  0  0  0  0
    2.1679   -2.7598   13.1774 C   0  0  0  0  0  0  0  0  0  0  0  0
   -0.5520    1.2898   12.8940 C   0  0  0  0  0  0  0  0  0  0  0  0
   -4.5478   -7.8215    8.4704 C   0  0  0  0  0  0  0  0  0  0  0  0
   -5.7575   -8.8122    8.1379 C   0  0  0  0  0  0  0  0  0  0  0  0
   -5.8197   -8.3479   10.4319 C   0  0  0  0  0  0  0  0  0  0  0  0
   -0.6858    2.1386   13.7728 O   0  0  0  0  0  0  0  0  0  0  0  0
   -0.6840    1.5419   11.5904 N   0  0  0  0  0  0  0  0  0  0  0  0
   -1.0435    2.8632   11.0920 C   0  0  0  0  0  0  0  0  0  0  0  0
    1.0102   -0.6198   12.9126 N   0  0  0  0  0  0  0  0  0  0  0  0
   -3.8814   -2.3408   15.9162 N   0  0  0  0  0  0  0  0  0  0  0  0
   -6.0548   -2.8084   16.4812 N   0  0  0  0  0  0  0  0  0  0  0  0
   -7.2624   -3.2662   16.0988 C   0  0  0  0  0  0  0  0  0  0  0  0
   -7.5484   -3.7523   14.8334 C   0  0  0  0  0  0  0  0  0  0  0  0
   -5.2216   -3.3023   14.2889 N   0  0  0  0  0  0  0  0  0  0  0  0
   -6.4428   -3.7433   13.9528 C   0  0  0  0  0  0  0  0  0  0  0  0
   -6.5255   -4.3523   12.6709 N   0  0  0  0  0  0  0  0  0  0  0  0
   -7.7143   -4.8416   12.2255 N   0  0  0  0  0  0  0  0  0  0  0  0
   -8.5822   -5.9808   10.2601 C   0  0  0  0  0  0  0  0  0  0  0  0
   -5.4975   -5.8946    9.7087 N   0  0  0  0  0  0  0  0  0  0  0  0
   -4.9220   -7.2391    9.8359 C   0  0  2  0  0  0  0  0  0  0  0  0
   -6.6590   -8.7959    9.3093 N   0  0  0  0  0  0  0  0  0  0  0  0
   -4.4397   -4.4034   11.9642 H   0  0  0  0  0  0  0  0  0  0  0  0
   -2.1136   -4.2177   15.9343 H   0  0  0  0  0  0  0  0  0  0  0  0
    0.1040   -4.2259   14.7984 H   0  0  0  0  0  0  0  0  0  0  0  0
   -2.8071   -0.1444   14.6463 H   0  0  0  0  0  0  0  0  0  0  0  0
    2.5803   -3.0610   14.1517 H   0  0  0  0  0  0  0  0  0  0  0  0
    1.8715   -3.6556   12.6119 H   0  0  0  0  0  0  0  0  0  0  0  0
    2.9310   -2.2050   12.6119 H   0  0  0  0  0  0  0  0  0  0  0  0
   -3.5956   -8.3694    8.5251 H   0  0  0  0  0  0  0  0  0  0  0  0
   -4.4058   -7.0482    7.7011 H   0  0  0  0  0  0  0  0  0  0  0  0
   -6.2945   -8.4665    7.2423 H   0  0  0  0  0  0  0  0  0  0  0  0
   -5.3901   -9.8294    7.9375 H   0  0  0  0  0  0  0  0  0  0  0  0
   -5.2078   -9.1784   10.8137 H   0  0  0  0  0  0  0  0  0  0  0  0
   -6.4193   -7.9856   11.2799 H   0  0  0  0  0  0  0  0  0  0  0  0
   -0.5271    0.7794   10.9159 H   0  0  0  0  0  0  0  0  0  0  0  0
   -1.2270    3.5379   11.9411 H   0  0  0  0  0  0  0  0  0  0  0  0
   -0.2207    3.2603   10.4793 H   0  0  0  0  0  0  0  0  0  0  0  0
   -1.9540    2.7888   10.4793 H   0  0  0  0  0  0  0  0  0  0  0  0
   -3.8875   -1.9719   16.8778 H   0  0  0  0  0  0  0  0  0  0  0  0
   -8.0751   -3.2533   16.8401 H   0  0  0  0  0  0  0  0  0  0  0  0
   -8.5456   -4.1126   14.5405 H   0  0  0  0  0  0  0  0  0  0  0  0
   -9.3472   -6.3806   10.9420 H   0  0  0  0  0  0  0  0  0  0  0  0
   -9.0280   -5.2004    9.6259 H   0  0  0  0  0  0  0  0  0  0  0  0
   -8.1960   -6.7924    9.6259 H   0  0  0  0  0  0  0  0  0  0  0  0
   -5.4668   -5.3767    8.8190 H   0  0  0  0  0  0  0  0  0  0  0  0
   -4.0846   -7.0301   10.5179 H   0  0  0  0  0  0  0  0  0  0  0  0
   -7.4387   -8.1405    9.1566 H   0  0  0  0  0  0  0  0  0  0  0  0
   -7.0794   -9.7195    9.4860 H   0  0  0  0  0  0  0  0  0  0  0  0
  1  2  1  0
  1 29  2  0
  1 30  1  0
  2  3  2  0
  2 31  1  0
  3 28  1  0
  4  9  1  0
  4 13  1  0
  4 21  1  0
  5 22  1  0
  5 23  2  0
  5 26  1  0
  6  7  2  0
  6 11  1  0
  6 22  1  0
  7  8  1  0
  8  9  2  0
  9 10  1  0
 10 11  2  0
 10 12  1  0
 12 14  1  0
 12 21  2  0
 14 18  2  0
 14 19  1  0
 15 16  1  0
 15 32  1  0
 16 33  1  0
 17 32  1  0
 17 33  1  0
 19 20  1  0
 23 24  1  0
 24 25  2  0
 25 27  1  0
 26 27  2  0
 27 28  1  0
 28 29  1  0
 32 31  1  0
  3 34  1  0
  7 35  1  0
  8 36  1  0
 11 37  1  0
 13 38  1  0
 13 39  1  0
 13 40  1  0
 15 41  1  0
 15 42  1  0
 16 43  1  0
 16 44  1  0
 17 45  1  0
 17 46  1  0
 19 47  1  0
 20 48  1  0
 20 49  1  0
 20 50  1  0
 22 51  1  0
 24 52  1  0
 25 53  1  0
 30 54  1  0
 30 55  1  0
 30 56  1  0
 31 57  1  0
 32 58  1  1
 33 59  1  0
 33 60  1  0
M  CHG  1  33   1
M  END
>  <filename_input>  (18) 
6ZCY_QF8_docked.sdf

>  <pdb_id>  (18) 
6ZCY_QF8

>  <pose_rank>  (18) 
17

>  <num_atoms_heavy>  (18) 
33

>  <num_torsions>  (18) 
4

>  <pose>  (18) 
[-7.461662805603135, -5.395174325098822, 11.0570034155942, -0.10423058433104926, 0.7589983193497871, -3.157369282881482, 1.7452298427747348, 1.1893035899359095, 1.1306597142580004, -0.13133138620188234]

>  <energy>  (18) 
-461.8186182404273

>  <inter_energy>  (18) 
-463.161188359265

>  <intra_energy>  (18) 
5.754332147567079

>  <rmsd>  (18) 
10.3218

>  <sdf_rank>  (18) 
0

$$$$

     RDKit          3D

 60 64  0  0  0  0  0  0  0  0999 V2000
    7.6579   -6.0021   22.8581 C   0  0  0  0  0  0  0  0  0  0  0  0
    6.9931   -6.1351   21.6109 C   0  0  0  0  0  0  0  0  0  0  0  0
    6.9545   -4.8764   21.0616 C   0  0  0  0  0  0  0  0  0  0  0  0
    3.6380   -1.5013   15.4361 N   0  0  0  0  0  0  0  0  0  0  0  0
    7.8795   -0.8868   20.4052 C   0  0  0  0  0  0  0  0  0  0  0  0
    6.4210   -0.5817   18.3121 C   0  0  0  0  0  0  0  0  0  0  0  0
    5.5948   -1.6767   18.5795 C   0  0  0  0  0  0  0  0  0  0  0  0
    4.6174   -2.0674   17.6778 C   0  0  0  0  0  0  0  0  0  0  0  0
    4.5006   -1.3680   16.4835 C   0  0  0  0  0  0  0  0  0  0  0  0
    5.3275   -0.2796   16.1873 C   0  0  0  0  0  0  0  0  0  0  0  0
    6.3205    0.0973   17.0907 C   0  0  0  0  0  0  0  0  0  0  0  0
    4.8979    0.1580   14.8866 C   0  0  0  0  0  0  0  0  0  0  0  0
    2.5911   -2.4963   15.2537 C   0  0  0  0  0  0  0  0  0  0  0  0
    5.4621    1.2791   14.0784 C   0  0  0  0  0  0  0  0  0  0  0  0
    4.3644   -6.6017   22.2956 C   0  0  0  0  0  0  0  0  0  0  0  0
    4.0020   -7.7453   23.3521 C   0  0  0  0  0  0  0  0  0  0  0  0
    4.3617   -8.7714   21.2786 C   0  0  0  0  0  0  0  0  0  0  0  0
    5.6182    1.1473   12.8664 O   0  0  0  0  0  0  0  0  0  0  0  0
    5.7257    2.4052   14.7440 N   0  0  0  0  0  0  0  0  0  0  0  0
    6.2685    3.5844   14.0820 C   0  0  0  0  0  0  0  0  0  0  0  0
    3.9070   -0.6035   14.4315 N   0  0  0  0  0  0  0  0  0  0  0  0
    7.3441   -0.2409   19.3270 N   0  0  0  0  0  0  0  0  0  0  0  0
    8.7876   -0.1920   21.1090 N   0  0  0  0  0  0  0  0  0  0  0  0
    9.2883   -0.8165   22.1923 C   0  0  0  0  0  0  0  0  0  0  0  0
    8.9286   -2.0927   22.5937 C   0  0  0  0  0  0  0  0  0  0  0  0
    7.4562   -2.1335   20.6589 N   0  0  0  0  0  0  0  0  0  0  0  0
    7.9793   -2.7127   21.7497 C   0  0  0  0  0  0  0  0  0  0  0  0
    7.6229   -4.0770   21.9301 N   0  0  0  0  0  0  0  0  0  0  0  0
    8.0991   -4.7690   23.0003 N   0  0  0  0  0  0  0  0  0  0  0  0
    7.9555   -7.0185   23.9125 C   0  0  0  0  0  0  0  0  0  0  0  0
    6.4645   -7.2844   21.1679 N   0  0  0  0  0  0  0  0  0  0  0  0
    4.9994   -7.3704   21.1339 C   0  0  2  0  0  0  0  0  0  0  0  0
    4.3597   -9.0358   22.7262 N   0  0  0  0  0  0  0  0  0  0  0  0
    6.4802   -4.5788   20.1148 H   0  0  0  0  0  0  0  0  0  0  0  0
    5.7220   -2.2360   19.5182 H   0  0  0  0  0  0  0  0  0  0  0  0
    3.9495   -2.9120   17.9028 H   0  0  0  0  0  0  0  0  0  0  0  0
    7.0145    0.9155   16.8480 H   0  0  0  0  0  0  0  0  0  0  0  0
    2.2332   -2.8364   16.2366 H   0  0  0  0  0  0  0  0  0  0  0  0
    1.7558   -2.0511   14.6933 H   0  0  0  0  0  0  0  0  0  0  0  0
    2.9932   -3.3531   14.6933 H   0  0  0  0  0  0  0  0  0  0  0  0
    3.4593   -6.0704   21.9665 H   0  0  0  0  0  0  0  0  0  0  0  0
    5.0302   -5.8314   22.7122 H   0  0  0  0  0  0  0  0  0  0  0  0
    4.5780   -7.6014   24.2781 H   0  0  0  0  0  0  0  0  0  0  0  0
    2.9338   -7.7165   23.6131 H   0  0  0  0  0  0  0  0  0  0  0  0
    3.3353   -8.7727   20.8831 H   0  0  0  0  0  0  0  0  0  0  0  0
    4.9142   -9.5392   20.7171 H   0  0  0  0  0  0  0  0  0  0  0  0
    5.5398    2.4420   15.7565 H   0  0  0  0  0  0  0  0  0  0  0  0
    6.6021    4.3091   14.8393 H   0  0  0  0  0  0  0  0  0  0  0  0
    7.1224    3.2916   13.4534 H   0  0  0  0  0  0  0  0  0  0  0  0
    5.4907    4.0427   13.4534 H   0  0  0  0  0  0  0  0  0  0  0  0
    7.6963    0.7222   19.2309 H   0  0  0  0  0  0  0  0  0  0  0  0
   10.0318   -0.2777   22.7981 H   0  0  0  0  0  0  0  0  0  0  0  0
    9.3442   -2.5796   23.4883 H   0  0  0  0  0  0  0  0  0  0  0  0
    7.8229   -6.5657   24.9062 H   0  0  0  0  0  0  0  0  0  0  0  0
    7.2693   -7.8714   23.8038 H   0  0  0  0  0  0  0  0  0  0  0  0
    8.9933   -7.3667   23.8038 H   0  0  0  0  0  0  0  0  0  0  0  0
    7.0581   -8.0700   20.8656 H   0  0  0  0  0  0  0  0  0  0  0  0
    4.8031   -6.9732   20.1271 H   0  0  0  0  0  0  0  0  0  0  0  0
    5.2915   -9.3436   23.0390 H   0  0  0  0  0  0  0  0  0  0  0  0
    3.7000   -9.7846   22.9811 H   0  0  0  0  0  0  0  0  0  0  0  0
  1  2  1  0
  1 29  2  0
  1 30  1  0
  2  3  2  0
  2 31  1  0
  3 28  1  0
  4  9  1  0
  4 13  1  0
  4 21  1  0
  5 22  1  0
  5 23  2  0
  5 26  1  0
  6  7  2  0
  6 11  1  0
  6 22  1  0
  7  8  1  0
  8  9  2  0
  9 10  1  0
 10 11  2  0
 10 12  1  0
 12 14  1  0
 12 21  2  0
 14 18  2  0
 14 19  1  0
 15 16  1  0
 15 32  1  0
 16 33  1  0
 17 32  1  0
 17 33  1  0
 19 20  1  0
 23 24  1  0
 24 25  2  0
 25 27  1  0
 26 27  2  0
 27 28  1  0
 28 29  1  0
 32 31  1  0
  3 34  1  0
  7 35  1  0
  8 36  1  0
 11 37  1  0
 13 38  1  0
 13 39  1  0
 13 40  1  0
 15 41  1  0
 15 42  1  0
 16 43  1  0
 16 44  1  0
 17 45  1  0
 17 46  1  0
 19 47  1  0
 20 48  1  0
 20 49  1  0
 20 50  1  0
 22 51  1  0
 24 52  1  0
 25 53  1  0
 30 54  1  0
 30 55  1  0
 30 56  1  0
 31 57  1  0
 32 58  1  6
 33 59  1  0
 33 60  1  0
M  CHG  1  33   1
M  END
>  <filename_input>  (19) 
6ZCY_QF8_docked.sdf

>  <pdb_id>  (19) 
6ZCY_QF8

>  <pose_rank>  (19) 
18

>  <num_atoms_heavy>  (19) 
33

>  <num_torsions>  (19) 
4

>  <pose>  (19) 
[7.657917197544758, -6.0021155649573315, 22.85811794154076, 2.7669033710013724, 0.4940734181864154, 1.8973848238465023, -2.719740598890927, -3.8169655391716297, -1.5357049458954284, -3.6894218675124617]

>  <energy>  (19) 
-252.7387951351913

>  <inter_energy>  (19) 
-230.37008661033622

>  <intra_energy>  (19) 
37.670128242621956

>  <rmsd>  (19) 
10.5753

>  <sdf_rank>  (19) 
0

$$$$

     RDKit          3D

 60 64  0  0  0  0  0  0  0  0999 V2000
   -4.6339   -6.7737    8.9195 C   0  0  0  0  0  0  0  0  0  0  0  0
   -4.3415   -6.5283   10.2868 C   0  0  0  0  0  0  0  0  0  0  0  0
   -5.0040   -5.3712   10.6182 C   0  0  0  0  0  0  0  0  0  0  0  0
   -5.2440   -0.8403   16.2956 N   0  0  0  0  0  0  0  0  0  0  0  0
   -7.7111   -2.2366   10.3954 C   0  0  0  0  0  0  0  0  0  0  0  0
   -7.1556   -1.1983   12.6789 C   0  0  0  0  0  0  0  0  0  0  0  0
   -7.9734   -0.9794   13.7910 C   0  0  0  0  0  0  0  0  0  0  0  0
   -7.4297   -0.8512   15.0596 C   0  0  0  0  0  0  0  0  0  0  0  0
   -6.0488   -0.9088   15.1971 C   0  0  0  0  0  0  0  0  0  0  0  0
   -5.2100   -1.1102   14.0962 C   0  0  0  0  0  0  0  0  0  0  0  0
   -5.7619   -1.2206   12.8205 C   0  0  0  0  0  0  0  0  0  0  0  0
   -3.8819   -1.1060   14.6474 C   0  0  0  0  0  0  0  0  0  0  0  0
   -5.6308   -0.6228   17.6821 C   0  0  0  0  0  0  0  0  0  0  0  0
   -2.5952   -1.2571   13.9057 C   0  0  0  0  0  0  0  0  0  0  0  0
   -2.1832   -6.5204   12.9700 C   0  0  0  0  0  0  0  0  0  0  0  0
   -1.4490   -7.8059   13.5733 C   0  0  0  0  0  0  0  0  0  0  0  0
   -3.7265   -8.3092   13.3706 C   0  0  0  0  0  0  0  0  0  0  0  0
   -2.5908   -1.7214   12.7678 O   0  0  0  0  0  0  0  0  0  0  0  0
   -1.5027   -0.8194   14.5346 N   0  0  0  0  0  0  0  0  0  0  0  0
   -0.1804   -0.8928   13.9267 C   0  0  0  0  0  0  0  0  0  0  0  0
   -3.9130   -0.9093   15.9625 N   0  0  0  0  0  0  0  0  0  0  0  0
   -7.8230   -1.3688   11.4445 N   0  0  0  0  0  0  0  0  0  0  0  0
   -8.6036   -2.0729    9.4057 N   0  0  0  0  0  0  0  0  0  0  0  0
   -8.4698   -2.9059    8.3558 C   0  0  0  0  0  0  0  0  0  0  0  0
   -7.4973   -3.8877    8.2569 C   0  0  0  0  0  0  0  0  0  0  0  0
   -6.7368   -3.1563   10.4477 N   0  0  0  0  0  0  0  0  0  0  0  0
   -6.6398   -3.9598    9.3783 C   0  0  0  0  0  0  0  0  0  0  0  0
   -5.6916   -5.0113    9.5057 N   0  0  0  0  0  0  0  0  0  0  0  0
   -5.5109   -5.8921    8.4846 N   0  0  0  0  0  0  0  0  0  0  0  0
   -4.1629   -7.8586    8.0059 C   0  0  0  0  0  0  0  0  0  0  0  0
   -3.5070   -7.2817   11.0165 N   0  0  0  0  0  0  0  0  0  0  0  0
   -3.5214   -7.0699   12.4691 C   0  0  2  0  0  0  0  0  0  0  0  0
   -2.3971   -8.9341   13.4587 N   0  0  0  0  0  0  0  0  0  0  0  0
   -4.9814   -4.8460   11.5844 H   0  0  0  0  0  0  0  0  0  0  0  0
   -9.0629   -0.9079   13.6577 H   0  0  0  0  0  0  0  0  0  0  0  0
   -8.0771   -0.7072   15.9372 H   0  0  0  0  0  0  0  0  0  0  0  0
   -5.1128   -1.3238   11.9385 H   0  0  0  0  0  0  0  0  0  0  0  0
   -4.8673   -1.0522   18.3474 H   0  0  0  0  0  0  0  0  0  0  0  0
   -5.7183    0.4569   17.8733 H   0  0  0  0  0  0  0  0  0  0  0  0
   -6.5989   -1.1087   17.8733 H   0  0  0  0  0  0  0  0  0  0  0  0
   -2.3384   -5.7567   13.7464 H   0  0  0  0  0  0  0  0  0  0  0  0
   -1.6002   -6.0288   12.1773 H   0  0  0  0  0  0  0  0  0  0  0  0
   -0.5336   -8.0214   13.0027 H   0  0  0  0  0  0  0  0  0  0  0  0
   -1.1598   -7.6389   14.6214 H   0  0  0  0  0  0  0  0  0  0  0  0
   -4.0802   -8.0087   14.3678 H   0  0  0  0  0  0  0  0  0  0  0  0
   -4.4826   -8.9974   12.9647 H   0  0  0  0  0  0  0  0  0  0  0  0
   -1.5969   -0.4174   15.4782 H   0  0  0  0  0  0  0  0  0  0  0  0
    0.5843   -0.9353   14.7162 H   0  0  0  0  0  0  0  0  0  0  0  0
   -0.1134   -1.7961   13.3024 H   0  0  0  0  0  0  0  0  0  0  0  0
   -0.0138   -0.0025   13.3024 H   0  0  0  0  0  0  0  0  0  0  0  0
   -8.5704   -0.6745   11.3025 H   0  0  0  0  0  0  0  0  0  0  0  0
   -9.1794   -2.7997    7.5220 H   0  0  0  0  0  0  0  0  0  0  0  0
   -7.4012   -4.5510    7.3846 H   0  0  0  0  0  0  0  0  0  0  0  0
   -3.7949   -8.7063    8.6025 H   0  0  0  0  0  0  0  0  0  0  0  0
   -4.9974   -8.1917    7.3714 H   0  0  0  0  0  0  0  0  0  0  0  0
   -3.3497   -7.4763    7.3714 H   0  0  0  0  0  0  0  0  0  0  0  0
   -2.8851   -7.9764   10.5788 H   0  0  0  0  0  0  0  0  0  0  0  0
   -4.3853   -6.3951   12.5602 H   0  0  0  0  0  0  0  0  0  0  0  0
   -2.2006   -9.4872   12.6123 H   0  0  0  0  0  0  0  0  0  0  0  0
   -2.3265   -9.5806   14.2574 H   0  0  0  0  0  0  0  0  0  0  0  0
  1  2  1  0
  1 29  2  0
  1 30  1  0
  2  3  2  0
  2 31  1  0
  3 28  1  0
  4  9  1  0
  4 13  1  0
  4 21  1  0
  5 22  1  0
  5 23  2  0
  5 26  1  0
  6  7  2  0
  6 11  1  0
  6 22  1  0
  7  8  1  0
  8  9  2  0
  9 10  1  0
 10 11  2  0
 10 12  1  0
 12 14  1  0
 12 21  2  0
 14 18  2  0
 14 19  1  0
 15 16  1  0
 15 32  1  0
 16 33  1  0
 17 32  1  0
 17 33  1  0
 19 20  1  0
 23 24  1  0
 24 25  2  0
 25 27  1  0
 26 27  2  0
 27 28  1  0
 28 29  1  0
 32 31  1  0
  3 34  1  0
  7 35  1  0
  8 36  1  0
 11 37  1  0
 13 38  1  0
 13 39  1  0
 13 40  1  0
 15 41  1  0
 15 42  1  0
 16 43  1  0
 16 44  1  0
 17 45  1  0
 17 46  1  0
 19 47  1  0
 20 48  1  0
 20 49  1  0
 20 50  1  0
 22 51  1  0
 24 52  1  0
 25 53  1  0
 30 54  1  0
 30 55  1  0
 30 56  1  0
 31 57  1  0
 32 58  1  6
 33 59  1  0
 33 60  1  0
M  CHG  1  33   1
M  END
>  <filename_input>  (20) 
6ZCY_QF8_docked.sdf

>  <pdb_id>  (20) 
6ZCY_QF8

>  <pose_rank>  (20) 
19

>  <num_atoms_heavy>  (20) 
33

>  <num_torsions>  (20) 
4

>  <pose>  (20) 
[-4.633890134992325, -6.7737321407163265, 8.91952642080738, -2.208135687501847, 0.05167013244908925, 2.410043737437831, 0.8753769600008721, -0.2642631683051067, -0.084511735508861, 1.184546686197848]

>  <energy>  (20) 
-247.19178374711825

>  <inter_energy>  (20) 
-229.83514378585647

>  <intra_energy>  (20) 
11.642431178408998

>  <rmsd>  (20) 
10.9312

>  <sdf_rank>  (20) 
0

$$$$

     RDKit          3D

 60 64  0  0  0  0  0  0  0  0999 V2000
    6.2741    0.1116    4.7343 C   0  0  0  0  0  0  0  0  0  0  0  0
    5.7613   -0.3170    5.9868 C   0  0  0  0  0  0  0  0  0  0  0  0
    5.1659    0.7838    6.5536 C   0  0  0  0  0  0  0  0  0  0  0  0
    2.3180    2.5019   12.9852 N   0  0  0  0  0  0  0  0  0  0  0  0
    3.4483    4.5453    6.8767 C   0  0  0  0  0  0  0  0  0  0  0  0
    2.7185    4.3315    9.3308 C   0  0  0  0  0  0  0  0  0  0  0  0
    1.4337    3.8953    9.6659 C   0  0  0  0  0  0  0  0  0  0  0  0
    1.1907    3.2590   10.8730 C   0  0  0  0  0  0  0  0  0  0  0  0
    2.2469    3.0965   11.7603 C   0  0  0  0  0  0  0  0  0  0  0  0
    3.5373    3.5402   11.4534 C   0  0  0  0  0  0  0  0  0  0  0  0
    3.7715    4.1952   10.2450 C   0  0  0  0  0  0  0  0  0  0  0  0
    4.3234    3.1925   12.6062 C   0  0  0  0  0  0  0  0  0  0  0  0
    1.2412    1.8958   13.7549 C   0  0  0  0  0  0  0  0  0  0  0  0
    5.7760    3.4598   12.8234 C   0  0  0  0  0  0  0  0  0  0  0  0
    5.3235   -3.9488    6.3531 C   0  0  0  0  0  0  0  0  0  0  0  0
    5.3939   -4.3732    4.8135 C   0  0  0  0  0  0  0  0  0  0  0  0
    4.0576   -2.4570    4.9695 C   0  0  0  0  0  0  0  0  0  0  0  0
    6.3131    3.1254   13.8771 O   0  0  0  0  0  0  0  0  0  0  0  0
    6.4261    4.0231   11.8033 N   0  0  0  0  0  0  0  0  0  0  0  0
    7.8489    4.3306   11.8700 C   0  0  0  0  0  0  0  0  0  0  0  0
    3.5743    2.6011   13.5324 N   0  0  0  0  0  0  0  0  0  0  0  0
    2.8590    4.9169    8.0518 N   0  0  0  0  0  0  0  0  0  0  0  0
    3.3044    5.4048    5.8552 N   0  0  0  0  0  0  0  0  0  0  0  0
    3.9160    5.0544    4.7074 C   0  0  0  0  0  0  0  0  0  0  0  0
    4.6514    3.8926    4.5376 C   0  0  0  0  0  0  0  0  0  0  0  0
    4.1062    3.3774    6.8507 N   0  0  0  0  0  0  0  0  0  0  0  0
    4.7023    3.0733    5.6883 C   0  0  0  0  0  0  0  0  0  0  0  0
    5.2811    1.7760    5.6357 N   0  0  0  0  0  0  0  0  0  0  0  0
    5.9089    1.3563    4.5040 N   0  0  0  0  0  0  0  0  0  0  0  0
    7.0536   -0.6324    3.6988 C   0  0  0  0  0  0  0  0  0  0  0  0
    5.9386   -1.5501    6.4812 N   0  0  0  0  0  0  0  0  0  0  0  0
    4.8325   -2.4995    6.3068 C   0  0  2  0  0  0  0  0  0  0  0  0
    4.8877   -3.2268    4.0295 N   0  0  0  0  0  0  0  0  0  0  0  0
    4.6939    0.8474    7.5451 H   0  0  0  0  0  0  0  0  0  0  0  0
    0.6043    4.0590    8.9621 H   0  0  0  0  0  0  0  0  0  0  0  0
    0.1845    2.8912   11.1227 H   0  0  0  0  0  0  0  0  0  0  0  0
    4.7680    4.5990   10.0129 H   0  0  0  0  0  0  0  0  0  0  0  0
    1.4479    2.0121   14.8291 H   0  0  0  0  0  0  0  0  0  0  0  0
    0.2905    2.3913   13.5087 H   0  0  0  0  0  0  0  0  0  0  0  0
    1.1716    0.8260   13.5087 H   0  0  0  0  0  0  0  0  0  0  0  0
    4.6154   -4.5855    6.9037 H   0  0  0  0  0  0  0  0  0  0  0  0
    6.2886   -4.0561    6.8698 H   0  0  0  0  0  0  0  0  0  0  0  0
    6.4329   -4.5965    4.5297 H   0  0  0  0  0  0  0  0  0  0  0  0
    4.7931   -5.2752    4.6255 H   0  0  0  0  0  0  0  0  0  0  0  0
    3.0666   -2.9211    5.0810 H   0  0  0  0  0  0  0  0  0  0  0  0
    3.8837   -1.4276    4.6229 H   0  0  0  0  0  0  0  0  0  0  0  0
    5.9064    4.2473   10.9428 H   0  0  0  0  0  0  0  0  0  0  0  0
    8.1606    4.3980   12.9227 H   0  0  0  0  0  0  0  0  0  0  0  0
    8.4198    3.5351   11.3687 H   0  0  0  0  0  0  0  0  0  0  0  0
    8.0404    5.2909   11.3687 H   0  0  0  0  0  0  0  0  0  0  0  0
    2.4111    5.8424    7.9916 H   0  0  0  0  0  0  0  0  0  0  0  0
    3.8256    5.7354    3.8483 H   0  0  0  0  0  0  0  0  0  0  0  0
    5.1506    3.6314    3.5928 H   0  0  0  0  0  0  0  0  0  0  0  0
    7.7647   -1.3111    4.1926 H   0  0  0  0  0  0  0  0  0  0  0  0
    6.3648   -1.2166    3.0709 H   0  0  0  0  0  0  0  0  0  0  0  0
    7.6051    0.0828    3.0709 H   0  0  0  0  0  0  0  0  0  0  0  0
    6.8096   -1.8190    6.9607 H   0  0  0  0  0  0  0  0  0  0  0  0
    4.1737   -2.1860    7.1300 H   0  0  0  0  0  0  0  0  0  0  0  0
    5.6693   -2.6523    3.6830 H   0  0  0  0  0  0  0  0  0  0  0  0
    4.3543   -3.5301    3.2022 H   0  0  0  0  0  0  0  0  0  0  0  0
  1  2  1  0
  1 29  2  0
  1 30  1  0
  2  3  2  0
  2 31  1  0
  3 28  1  0
  4  9  1  0
  4 13  1  0
  4 21  1  0
  5 22  1  0
  5 23  2  0
  5 26  1  0
  6  7  2  0
  6 11  1  0
  6 22  1  0
  7  8  1  0
  8  9  2  0
  9 10  1  0
 10 11  2  0
 10 12  1  0
 12 14  1  0
 12 21  2  0
 14 18  2  0
 14 19  1  0
 15 16  1  0
 15 32  1  0
 16 33  1  0
 17 32  1  0
 17 33  1  0
 19 20  1  0
 23 24  1  0
 24 25  2  0
 25 27  1  0
 26 27  2  0
 27 28  1  0
 28 29  1  0
 32 31  1  0
  3 34  1  0
  7 35  1  0
  8 36  1  0
 11 37  1  0
 13 38  1  0
 13 39  1  0
 13 40  1  0
 15 41  1  0
 15 42  1  0
 16 43  1  0
 16 44  1  0
 17 45  1  0
 17 46  1  0
 19 47  1  0
 20 48  1  0
 20 49  1  0
 20 50  1  0
 22 51  1  0
 24 52  1  0
 25 53  1  0
 30 54  1  0
 30 55  1  0
 30 56  1  0
 31 57  1  0
 32 58  1  1
 33 59  1  0
 33 60  1  0
M  CHG  1  33   1
M  END
>  <filename_input>  (21) 
6ZCY_QF8_docked.sdf

>  <pdb_id>  (21) 
6ZCY_QF8

>  <pose_rank>  (21) 
20

>  <num_atoms_heavy>  (21) 
33

>  <num_torsions>  (21) 
4

>  <pose>  (21) 
[6.27406535168266, 0.11159967316359619, 4.734340316926439, -2.3163603056540403, -0.1636420431722564, 1.4018513076604542, 1.3265614793382856, 3.1614854252877267, 1.1218161211826434, -0.3614642147405173]

>  <energy>  (21) 
-207.6268667742257

>  <inter_energy>  (21) 
-193.32179501745694

>  <intra_energy>  (21) 
20.48555876426039

>  <rmsd>  (21) 
9.45765

>  <sdf_rank>  (21) 
0

$$$$

     RDKit          3D

 60 64  0  0  0  0  0  0  0  0999 V2000
   -6.6954    0.8492   18.7448 C   0  0  0  0  0  0  0  0  0  0  0  0
   -6.2686   -0.3932   19.2831 C   0  0  0  0  0  0  0  0  0  0  0  0
   -5.7460   -1.1066   18.2316 C   0  0  0  0  0  0  0  0  0  0  0  0
   -3.3622   -7.8836   17.0705 N   0  0  0  0  0  0  0  0  0  0  0  0
   -4.1539   -1.9184   14.4887 C   0  0  0  0  0  0  0  0  0  0  0  0
   -3.6075   -4.3906   14.9255 C   0  0  0  0  0  0  0  0  0  0  0  0
   -2.4361   -5.1351   14.7619 C   0  0  0  0  0  0  0  0  0  0  0  0
   -2.2490   -6.3263   15.4454 C   0  0  0  0  0  0  0  0  0  0  0  0
   -3.2686   -6.7836   16.2705 C   0  0  0  0  0  0  0  0  0  0  0  0
   -4.4562   -6.0637   16.4362 C   0  0  0  0  0  0  0  0  0  0  0  0
   -4.6455   -4.8752   15.7322 C   0  0  0  0  0  0  0  0  0  0  0  0
   -5.2360   -6.8566   17.3478 C   0  0  0  0  0  0  0  0  0  0  0  0
   -2.3933   -8.9564   17.2421 C   0  0  0  0  0  0  0  0  0  0  0  0
   -6.6105   -6.5646   17.8515 C   0  0  0  0  0  0  0  0  0  0  0  0
   -5.2499   -2.4329   21.9329 C   0  0  0  0  0  0  0  0  0  0  0  0
   -5.7098   -2.2213   23.4492 C   0  0  0  0  0  0  0  0  0  0  0  0
   -5.0145   -0.1476   22.6140 C   0  0  0  0  0  0  0  0  0  0  0  0
   -7.5926   -6.9445   17.2176 O   0  0  0  0  0  0  0  0  0  0  0  0
   -6.6816   -5.9273   19.0217 N   0  0  0  0  0  0  0  0  0  0  0  0
   -7.9569   -5.5872   19.6394 C   0  0  0  0  0  0  0  0  0  0  0  0
   -4.5835   -7.9625   17.6947 N   0  0  0  0  0  0  0  0  0  0  0  0
   -3.6652   -3.1659   14.2219 N   0  0  0  0  0  0  0  0  0  0  0  0
   -3.9547   -0.9975   13.5321 N   0  0  0  0  0  0  0  0  0  0  0  0
   -4.4682    0.2226   13.7810 C   0  0  0  0  0  0  0  0  0  0  0  0
   -5.1589    0.5588   14.9339 C   0  0  0  0  0  0  0  0  0  0  0  0
   -4.7781   -1.7304   15.6603 N   0  0  0  0  0  0  0  0  0  0  0  0
   -5.2762   -0.5014   15.8613 C   0  0  0  0  0  0  0  0  0  0  0  0
   -5.8163   -0.2809   17.1577 N   0  0  0  0  0  0  0  0  0  0  0  0
   -6.3455    0.9311   17.4773 N   0  0  0  0  0  0  0  0  0  0  0  0
   -7.3749    2.0083   19.3991 C   0  0  0  0  0  0  0  0  0  0  0  0
   -6.4516   -0.7529   20.5612 N   0  0  0  0  0  0  0  0  0  0  0  0
   -5.2450   -1.0152   21.3552 C   0  0  2  0  0  0  0  0  0  0  0  0
   -5.8526   -0.7644   23.6543 N   0  0  0  0  0  0  0  0  0  0  0  0
   -5.3525   -2.1335   18.2557 H   0  0  0  0  0  0  0  0  0  0  0  0
   -1.6522   -4.7709   14.0816 H   0  0  0  0  0  0  0  0  0  0  0  0
   -1.3146   -6.8965   15.3370 H   0  0  0  0  0  0  0  0  0  0  0  0
   -5.5956   -4.3261   15.8089 H   0  0  0  0  0  0  0  0  0  0  0  0
   -2.2311   -9.1360   18.3152 H   0  0  0  0  0  0  0  0  0  0  0  0
   -2.7748   -9.8740   16.7704 H   0  0  0  0  0  0  0  0  0  0  0  0
   -1.4417   -8.6701   16.7704 H   0  0  0  0  0  0  0  0  0  0  0  0
   -4.2456   -2.8792   21.8861 H   0  0  0  0  0  0  0  0  0  0  0  0
   -5.9090   -3.1173   21.3787 H   0  0  0  0  0  0  0  0  0  0  0  0
   -6.6717   -2.7246   23.6267 H   0  0  0  0  0  0  0  0  0  0  0  0
   -4.9741   -2.6473   24.1473 H   0  0  0  0  0  0  0  0  0  0  0  0
   -3.9549   -0.1661   22.9087 H   0  0  0  0  0  0  0  0  0  0  0  0
   -5.2734    0.9079   22.4439 H   0  0  0  0  0  0  0  0  0  0  0  0
   -5.8087   -5.6678   19.5029 H   0  0  0  0  0  0  0  0  0  0  0  0
   -7.8529   -5.6149   20.7342 H   0  0  0  0  0  0  0  0  0  0  0  0
   -8.2587   -4.5772   19.3252 H   0  0  0  0  0  0  0  0  0  0  0  0
   -8.7216   -6.3128   19.3252 H   0  0  0  0  0  0  0  0  0  0  0  0
   -3.2376   -3.2290   13.2870 H   0  0  0  0  0  0  0  0  0  0  0  0
   -4.3301    1.0034   13.0186 H   0  0  0  0  0  0  0  0  0  0  0  0
   -5.5780    1.5602   15.1115 H   0  0  0  0  0  0  0  0  0  0  0  0
   -7.3119    1.9009   20.4921 H   0  0  0  0  0  0  0  0  0  0  0  0
   -6.8816    2.9428   19.0935 H   0  0  0  0  0  0  0  0  0  0  0  0
   -8.4312    2.0343   19.0935 H   0  0  0  0  0  0  0  0  0  0  0  0
   -7.3941   -0.8410   20.9671 H   0  0  0  0  0  0  0  0  0  0  0  0
   -4.4677   -0.8011   20.6069 H   0  0  0  0  0  0  0  0  0  0  0  0
   -6.8359   -0.4782   23.5435 H   0  0  0  0  0  0  0  0  0  0  0  0
   -5.5662   -0.4778   24.6013 H   0  0  0  0  0  0  0  0  0  0  0  0
  1  2  1  0
  1 29  2  0
  1 30  1  0
  2  3  2  0
  2 31  1  0
  3 28  1  0
  4  9  1  0
  4 13  1  0
  4 21  1  0
  5 22  1  0
  5 23  2  0
  5 26  1  0
  6  7  2  0
  6 11  1  0
  6 22  1  0
  7  8  1  0
  8  9  2  0
  9 10  1  0
 10 11  2  0
 10 12  1  0
 12 14  1  0
 12 21  2  0
 14 18  2  0
 14 19  1  0
 15 16  1  0
 15 32  1  0
 16 33  1  0
 17 32  1  0
 17 33  1  0
 19 20  1  0
 23 24  1  0
 24 25  2  0
 25 27  1  0
 26 27  2  0
 27 28  1  0
 28 29  1  0
 32 31  1  0
  3 34  1  0
  7 35  1  0
  8 36  1  0
 11 37  1  0
 13 38  1  0
 13 39  1  0
 13 40  1  0
 15 41  1  0
 15 42  1  0
 16 43  1  0
 16 44  1  0
 17 45  1  0
 17 46  1  0
 19 47  1  0
 20 48  1  0
 20 49  1  0
 20 50  1  0
 22 51  1  0
 24 52  1  0
 25 53  1  0
 30 54  1  0
 30 55  1  0
 30 56  1  0
 31 57  1  0
 32 58  1  6
 33 59  1  0
 33 60  1  0
M  CHG  1  33   1
M  END
>  <filename_input>  (22) 
6ZCY_QF8_docked.sdf

>  <pdb_id>  (22) 
6ZCY_QF8

>  <pose_rank>  (22) 
21

>  <num_atoms_heavy>  (22) 
33

>  <num_torsions>  (22) 
4

>  <pose>  (22) 
[-6.69537530830781, 0.8491560662286072, 18.74477343469533, 0.8238189672122938, 1.8840105583011846, 0.9622215011475996, 0.7549240749868611, 1.5765050723584735, 0.7698581824233992, 1.0631478259292102]

>  <energy>  (22) 
-199.60849475426514

>  <inter_energy>  (22) 
-176.59433978669531

>  <intra_energy>  (22) 
9.12819539703484

>  <rmsd>  (22) 
10.5305

>  <sdf_rank>  (22) 
0

$$$$

     RDKit          3D

 60 64  0  0  0  0  0  0  0  0999 V2000
   -1.0804   -8.4030   22.7030 C   0  0  0  0  0  0  0  0  0  0  0  0
   -0.5868   -7.5599   21.6730 C   0  0  0  0  0  0  0  0  0  0  0  0
   -1.6628   -7.2653   20.8711 C   0  0  0  0  0  0  0  0  0  0  0  0
   -2.7254   -4.0795   14.4667 N   0  0  0  0  0  0  0  0  0  0  0  0
   -5.6026   -6.8452   19.6443 C   0  0  0  0  0  0  0  0  0  0  0  0
   -5.0996   -5.6531   17.4246 C   0  0  0  0  0  0  0  0  0  0  0  0
   -4.6190   -4.3587   17.6412 C   0  0  0  0  0  0  0  0  0  0  0  0
   -3.8034   -3.7373   16.7086 C   0  0  0  0  0  0  0  0  0  0  0  0
   -3.5031   -4.4163   15.5346 C   0  0  0  0  0  0  0  0  0  0  0  0
   -3.9868   -5.7055   15.2891 C   0  0  0  0  0  0  0  0  0  0  0  0
   -4.8211   -6.3181   16.2233 C   0  0  0  0  0  0  0  0  0  0  0  0
   -3.4629   -6.0482   13.9945 C   0  0  0  0  0  0  0  0  0  0  0  0
   -2.0091   -2.8339   14.2325 C   0  0  0  0  0  0  0  0  0  0  0  0
   -3.6905   -7.3119   13.2331 C   0  0  0  0  0  0  0  0  0  0  0  0
    2.3945   -5.5170   22.1324 C   0  0  0  0  0  0  0  0  0  0  0  0
    3.7638   -6.2864   22.4298 C   0  0  0  0  0  0  0  0  0  0  0  0
    2.0828   -7.2904   23.7135 C   0  0  0  0  0  0  0  0  0  0  0  0
   -3.2980   -8.3842   13.6876 O   0  0  0  0  0  0  0  0  0  0  0  0
   -4.3696   -7.1923   12.0907 N   0  0  0  0  0  0  0  0  0  0  0  0
   -4.6750   -8.3427   11.2500 C   0  0  0  0  0  0  0  0  0  0  0  0
   -2.7361   -5.0519   13.4962 N   0  0  0  0  0  0  0  0  0  0  0  0
   -5.8762   -6.2071   18.4678 N   0  0  0  0  0  0  0  0  0  0  0  0
   -6.6694   -7.1785   20.3884 N   0  0  0  0  0  0  0  0  0  0  0  0
   -6.4002   -7.8392   21.5309 C   0  0  0  0  0  0  0  0  0  0  0  0
   -5.1252   -8.1717   21.9589 C   0  0  0  0  0  0  0  0  0  0  0  0
   -4.3165   -7.0777   19.9434 N   0  0  0  0  0  0  0  0  0  0  0  0
   -4.0982   -7.7419   21.0880 C   0  0  0  0  0  0  0  0  0  0  0  0
   -2.7305   -7.8635   21.4561 N   0  0  0  0  0  0  0  0  0  0  0  0
   -2.3892   -8.5136   22.6015 N   0  0  0  0  0  0  0  0  0  0  0  0
   -0.3690   -9.0703   23.8353 C   0  0  0  0  0  0  0  0  0  0  0  0
    0.7052   -7.2310   21.5354 N   0  0  0  0  0  0  0  0  0  0  0  0
    1.3196   -6.4824   22.6386 C   0  0  2  0  0  0  0  0  0  0  0  0
    3.4077   -7.5416   23.1247 N   0  0  0  0  0  0  0  0  0  0  0  0
   -1.6592   -6.6685   19.9471 H   0  0  0  0  0  0  0  0  0  0  0  0
   -4.8916   -3.8260   18.5642 H   0  0  0  0  0  0  0  0  0  0  0  0
   -3.4032   -2.7296   16.8938 H   0  0  0  0  0  0  0  0  0  0  0  0
   -5.2542   -7.3086   16.0202 H   0  0  0  0  0  0  0  0  0  0  0  0
   -1.7455   -2.3756   15.1972 H   0  0  0  0  0  0  0  0  0  0  0  0
   -1.0917   -3.0403   13.6618 H   0  0  0  0  0  0  0  0  0  0  0  0
   -2.6489   -2.1448   13.6618 H   0  0  0  0  0  0  0  0  0  0  0  0
    2.3538   -4.5630   22.6786 H   0  0  0  0  0  0  0  0  0  0  0  0
    2.2714   -5.2603   21.0699 H   0  0  0  0  0  0  0  0  0  0  0  0
    4.2845   -6.5104   21.4871 H   0  0  0  0  0  0  0  0  0  0  0  0
    4.4355   -5.6714   23.0466 H   0  0  0  0  0  0  0  0  0  0  0  0
    2.1755   -6.7085   24.6424 H   0  0  0  0  0  0  0  0  0  0  0  0
    1.5629   -8.2227   23.9791 H   0  0  0  0  0  0  0  0  0  0  0  0
   -4.6876   -6.2586   11.7942 H   0  0  0  0  0  0  0  0  0  0  0  0
   -4.9054   -9.2105   11.8856 H   0  0  0  0  0  0  0  0  0  0  0  0
   -5.5432   -8.1126   10.6149 H   0  0  0  0  0  0  0  0  0  0  0  0
   -3.8070   -8.5735   10.6149 H   0  0  0  0  0  0  0  0  0  0  0  0
   -6.8876   -6.1056   18.3015 H   0  0  0  0  0  0  0  0  0  0  0  0
   -7.2486   -8.1342   22.1659 H   0  0  0  0  0  0  0  0  0  0  0  0
   -4.9298   -8.7206   22.8919 H   0  0  0  0  0  0  0  0  0  0  0  0
   -0.7676   -8.6964   24.7900 H   0  0  0  0  0  0  0  0  0  0  0  0
   -0.5224  -10.1579   23.7747 H   0  0  0  0  0  0  0  0  0  0  0  0
    0.7065   -8.8477   23.7747 H   0  0  0  0  0  0  0  0  0  0  0  0
    1.2415   -7.4911   20.6954 H   0  0  0  0  0  0  0  0  0  0  0  0
    0.4260   -6.0203   23.0835 H   0  0  0  0  0  0  0  0  0  0  0  0
    3.3643   -8.3248   22.4572 H   0  0  0  0  0  0  0  0  0  0  0  0
    4.1047   -7.7992   23.8380 H   0  0  0  0  0  0  0  0  0  0  0  0
  1  2  1  0
  1 29  2  0
  1 30  1  0
  2  3  2  0
  2 31  1  0
  3 28  1  0
  4  9  1  0
  4 13  1  0
  4 21  1  0
  5 22  1  0
  5 23  2  0
  5 26  1  0
  6  7  2  0
  6 11  1  0
  6 22  1  0
  7  8  1  0
  8  9  2  0
  9 10  1  0
 10 11  2  0
 10 12  1  0
 12 14  1  0
 12 21  2  0
 14 18  2  0
 14 19  1  0
 15 16  1  0
 15 32  1  0
 16 33  1  0
 17 32  1  0
 17 33  1  0
 19 20  1  0
 23 24  1  0
 24 25  2  0
 25 27  1  0
 26 27  2  0
 27 28  1  0
 28 29  1  0
 32 31  1  0
  3 34  1  0
  7 35  1  0
  8 36  1  0
 11 37  1  0
 13 38  1  0
 13 39  1  0
 13 40  1  0
 15 41  1  0
 15 42  1  0
 16 43  1  0
 16 44  1  0
 17 45  1  0
 17 46  1  0
 19 47  1  0
 20 48  1  0
 20 49  1  0
 20 50  1  0
 22 51  1  0
 24 52  1  0
 25 53  1  0
 30 54  1  0
 30 55  1  0
 30 56  1  0
 31 57  1  0
 32 58  1  1
 33 59  1  0
 33 60  1  0
M  CHG  1  33   1
M  END
>  <filename_input>  (23) 
6ZCY_QF8_docked.sdf

>  <pdb_id>  (23) 
6ZCY_QF8

>  <pose_rank>  (23) 
22

>  <num_atoms_heavy>  (23) 
33

>  <num_torsions>  (23) 
4

>  <pose>  (23) 
[-1.0804127186289418, -8.403025374408445, 22.702980548100182, 0.026420700682698146, -1.3022227444578702, -1.3475871807610318, 1.7863779303622376, -1.0560092157487466, 1.760720817194079, 0.6231879111364654]

>  <energy>  (23) 
-52.17033227926877

>  <inter_energy>  (23) 
-83.75791414143362

>  <intra_energy>  (23) 
27.903793136213558

>  <rmsd>  (23) 
12.0083

>  <sdf_rank>  (23) 
0

$$$$

     RDKit          3D

 60 64  0  0  0  0  0  0  0  0999 V2000
    5.8426   -8.6067   19.2581 C   0  0  0  0  0  0  0  0  0  0  0  0
    4.5160   -8.2101   19.5711 C   0  0  0  0  0  0  0  0  0  0  0  0
    3.9111   -7.9178   18.3727 C   0  0  0  0  0  0  0  0  0  0  0  0
   -2.2791   -4.8583   16.2131 N   0  0  0  0  0  0  0  0  0  0  0  0
    3.2239   -7.8136   14.2836 C   0  0  0  0  0  0  0  0  0  0  0  0
    0.9216   -6.6787   14.3956 C   0  0  0  0  0  0  0  0  0  0  0  0
    0.1133   -7.4979   15.1885 C   0  0  0  0  0  0  0  0  0  0  0  0
   -0.9888   -6.9819   15.8521 C   0  0  0  0  0  0  0  0  0  0  0  0
   -1.2942   -5.6375   15.6826 C   0  0  0  0  0  0  0  0  0  0  0  0
   -0.5093   -4.8028   14.8806 C   0  0  0  0  0  0  0  0  0  0  0  0
    0.5876   -5.3319   14.2016 C   0  0  0  0  0  0  0  0  0  0  0  0
   -1.1467   -3.5165   14.9643 C   0  0  0  0  0  0  0  0  0  0  0  0
   -3.3619   -5.2570   17.1008 C   0  0  0  0  0  0  0  0  0  0  0  0
   -0.7351   -2.2575   14.2758 C   0  0  0  0  0  0  0  0  0  0  0  0
    5.2979   -6.6381   22.3964 C   0  0  0  0  0  0  0  0  0  0  0  0
    4.6282   -6.8169   23.8368 C   0  0  0  0  0  0  0  0  0  0  0  0
    2.9253   -6.3129   22.3111 C   0  0  0  0  0  0  0  0  0  0  0  0
   -1.4582   -1.7615   13.4147 O   0  0  0  0  0  0  0  0  0  0  0  0
    0.4102   -1.7120   14.6897 N   0  0  0  0  0  0  0  0  0  0  0  0
    0.9290   -0.4772   14.1157 C   0  0  0  0  0  0  0  0  0  0  0  0
   -2.2265   -3.5699   15.7389 N   0  0  0  0  0  0  0  0  0  0  0  0
    2.0488   -7.3008   13.8120 N   0  0  0  0  0  0  0  0  0  0  0  0
    4.0258   -8.3746   13.3642 N   0  0  0  0  0  0  0  0  0  0  0  0
    5.1997   -8.8478   13.8248 C   0  0  0  0  0  0  0  0  0  0  0  0
    5.5988   -8.7902   15.1503 C   0  0  0  0  0  0  0  0  0  0  0  0
    3.4662   -7.7111   15.5983 N   0  0  0  0  0  0  0  0  0  0  0  0
    4.6489   -8.1920   16.0092 C   0  0  0  0  0  0  0  0  0  0  0  0
    4.8342   -8.1967   17.4187 N   0  0  0  0  0  0  0  0  0  0  0  0
    5.9946   -8.6671   17.9509 N   0  0  0  0  0  0  0  0  0  0  0  0
    6.9748   -8.9985   20.1516 C   0  0  0  0  0  0  0  0  0  0  0  0
    4.0499   -8.0917   20.8222 N   0  0  0  0  0  0  0  0  0  0  0  0
    4.1160   -6.7573   21.4306 C   0  0  2  0  0  0  0  0  0  0  0  0
    3.1711   -6.9393   23.6197 N   0  0  0  0  0  0  0  0  0  0  0  0
    2.8906   -7.5370   18.2188 H   0  0  0  0  0  0  0  0  0  0  0  0
    0.3548   -8.5665   15.2872 H   0  0  0  0  0  0  0  0  0  0  0  0
   -1.6073   -7.6222   16.4982 H   0  0  0  0  0  0  0  0  0  0  0  0
    1.1818   -4.7015   13.5238 H   0  0  0  0  0  0  0  0  0  0  0  0
   -3.0412   -5.1389   18.1464 H   0  0  0  0  0  0  0  0  0  0  0  0
   -4.2417   -4.6238   16.9134 H   0  0  0  0  0  0  0  0  0  0  0  0
   -3.6210   -6.3095   16.9134 H   0  0  0  0  0  0  0  0  0  0  0  0
    5.7798   -5.6533   22.3071 H   0  0  0  0  0  0  0  0  0  0  0  0
    6.0873   -7.3779   22.1980 H   0  0  0  0  0  0  0  0  0  0  0  0
    5.0157   -7.7236   24.3244 H   0  0  0  0  0  0  0  0  0  0  0  0
    4.8591   -5.9608   24.4878 H   0  0  0  0  0  0  0  0  0  0  0  0
    2.9002   -5.2172   22.4046 H   0  0  0  0  0  0  0  0  0  0  0  0
    1.9575   -6.6125   21.8826 H   0  0  0  0  0  0  0  0  0  0  0  0
    0.9437   -2.1778   15.4376 H   0  0  0  0  0  0  0  0  0  0  0  0
    1.2178    0.2102   14.9244 H   0  0  0  0  0  0  0  0  0  0  0  0
    1.8085   -0.7027   13.4946 H   0  0  0  0  0  0  0  0  0  0  0  0
    0.1524   -0.0069   13.4946 H   0  0  0  0  0  0  0  0  0  0  0  0
    1.9642   -7.3881   12.7892 H   0  0  0  0  0  0  0  0  0  0  0  0
    5.8867   -9.3105   13.1010 H   0  0  0  0  0  0  0  0  0  0  0  0
    6.5673   -9.1751   15.5023 H   0  0  0  0  0  0  0  0  0  0  0  0
    6.6667   -8.8919   21.2021 H   0  0  0  0  0  0  0  0  0  0  0  0
    7.2518  -10.0448   19.9551 H   0  0  0  0  0  0  0  0  0  0  0  0
    7.8392   -8.3472   19.9551 H   0  0  0  0  0  0  0  0  0  0  0  0
    3.6637   -8.8987   21.3326 H   0  0  0  0  0  0  0  0  0  0  0  0
    4.1656   -6.1321   20.5269 H   0  0  0  0  0  0  0  0  0  0  0  0
    2.8896   -7.9300   23.6052 H   0  0  0  0  0  0  0  0  0  0  0  0
    2.6295   -6.4890   24.3713 H   0  0  0  0  0  0  0  0  0  0  0  0
  1  2  1  0
  1 29  2  0
  1 30  1  0
  2  3  2  0
  2 31  1  0
  3 28  1  0
  4  9  1  0
  4 13  1  0
  4 21  1  0
  5 22  1  0
  5 23  2  0
  5 26  1  0
  6  7  2  0
  6 11  1  0
  6 22  1  0
  7  8  1  0
  8  9  2  0
  9 10  1  0
 10 11  2  0
 10 12  1  0
 12 14  1  0
 12 21  2  0
 14 18  2  0
 14 19  1  0
 15 16  1  0
 15 32  1  0
 16 33  1  0
 17 32  1  0
 17 33  1  0
 19 20  1  0
 23 24  1  0
 24 25  2  0
 25 27  1  0
 26 27  2  0
 27 28  1  0
 28 29  1  0
 32 31  1  0
  3 34  1  0
  7 35  1  0
  8 36  1  0
 11 37  1  0
 13 38  1  0
 13 39  1  0
 13 40  1  0
 15 41  1  0
 15 42  1  0
 16 43  1  0
 16 44  1  0
 17 45  1  0
 17 46  1  0
 19 47  1  0
 20 48  1  0
 20 49  1  0
 20 50  1  0
 22 51  1  0
 24 52  1  0
 25 53  1  0
 30 54  1  0
 30 55  1  0
 30 56  1  0
 31 57  1  0
 32 58  1  6
 33 59  1  0
 33 60  1  0
M  CHG  1  33   1
M  END
>  <filename_input>  (24) 
6ZCY_QF8_docked.sdf

>  <pdb_id>  (24) 
6ZCY_QF8

>  <pose_rank>  (24) 
23

>  <num_atoms_heavy>  (24) 
33

>  <num_torsions>  (24) 
4

>  <pose>  (24) 
[5.842622265730065, -8.606736932505695, 19.25814429479425, 2.2110611212444424, -0.06410060960942901, -0.293651156324022, 2.0285139497300624, 2.0299837632686932, -1.7976711038135766, 1.4304009322479374]

>  <energy>  (24) 
-2.6312109892692868

>  <inter_energy>  (24) 
28.999845164476834

>  <intra_energy>  (24) 
3.689162598159227

>  <rmsd>  (24) 
9.79898

>  <sdf_rank>  (24) 
0

$$$$

     RDKit          3D

 60 64  0  0  0  0  0  0  0  0999 V2000
    0.2440   -7.0932    7.9761 C   0  0  0  0  0  0  0  0  0  0  0  0
   -1.0064   -7.2490    8.6300 C   0  0  0  0  0  0  0  0  0  0  0  0
   -0.7790   -6.9843    9.9588 C   0  0  0  0  0  0  0  0  0  0  0  0
   -4.3862   -7.5850   16.4115 N   0  0  0  0  0  0  0  0  0  0  0  0
    1.0982   -5.5845   13.3823 C   0  0  0  0  0  0  0  0  0  0  0  0
   -0.8127   -6.1232   15.0131 C   0  0  0  0  0  0  0  0  0  0  0  0
   -0.9288   -7.5145   15.0762 C   0  0  0  0  0  0  0  0  0  0  0  0
   -2.0908   -8.1111   15.5401 C   0  0  0  0  0  0  0  0  0  0  0  0
   -3.1530   -7.2950   15.9075 C   0  0  0  0  0  0  0  0  0  0  0  0
   -3.0653   -5.9009   15.8368 C   0  0  0  0  0  0  0  0  0  0  0  0
   -1.9001   -5.3075   15.3526 C   0  0  0  0  0  0  0  0  0  0  0  0
   -4.3463   -5.4340   16.2935 C   0  0  0  0  0  0  0  0  0  0  0  0
   -4.9710   -8.8946   16.6611 C   0  0  0  0  0  0  0  0  0  0  0  0
   -4.8074   -4.0180   16.3975 C   0  0  0  0  0  0  0  0  0  0  0  0
   -2.4705   -6.3938    5.9071 C   0  0  0  0  0  0  0  0  0  0  0  0
   -3.9924   -6.6127    5.4698 C   0  0  0  0  0  0  0  0  0  0  0  0
   -3.0452   -8.7194    5.8518 C   0  0  0  0  0  0  0  0  0  0  0  0
   -5.4797   -3.5212   15.4965 O   0  0  0  0  0  0  0  0  0  0  0  0
   -4.4848   -3.3790   17.5237 N   0  0  0  0  0  0  0  0  0  0  0  0
   -4.8781   -1.9971   17.7670 C   0  0  0  0  0  0  0  0  0  0  0  0
   -5.1420   -6.4538   16.6030 N   0  0  0  0  0  0  0  0  0  0  0  0
    0.4366   -5.6260   14.5768 N   0  0  0  0  0  0  0  0  0  0  0  0
    2.2855   -4.9578   13.3951 N   0  0  0  0  0  0  0  0  0  0  0  0
    2.9530   -4.9487   12.2252 C   0  0  0  0  0  0  0  0  0  0  0  0
    2.4871   -5.5273   11.0558 C   0  0  0  0  0  0  0  0  0  0  0  0
    0.5127   -6.1641   12.3245 N   0  0  0  0  0  0  0  0  0  0  0  0
    1.2167   -6.1339   11.1833 C   0  0  0  0  0  0  0  0  0  0  0  0
    0.5284   -6.6329   10.0439 N   0  0  0  0  0  0  0  0  0  0  0  0
    1.1425   -6.6467    8.8299 N   0  0  0  0  0  0  0  0  0  0  0  0
    0.6213   -7.2903    6.5435 C   0  0  0  0  0  0  0  0  0  0  0  0
   -2.1237   -7.6571    8.0123 N   0  0  0  0  0  0  0  0  0  0  0  0
   -2.0822   -7.7294    6.5467 C   0  0  2  0  0  0  0  0  0  0  0  0
   -4.3349   -8.0130    5.7964 N   0  0  0  0  0  0  0  0  0  0  0  0
   -1.5059   -7.0446   10.7822 H   0  0  0  0  0  0  0  0  0  0  0  0
   -0.0869   -8.1445   14.7533 H   0  0  0  0  0  0  0  0  0  0  0  0
   -2.1698   -9.2056   15.6155 H   0  0  0  0  0  0  0  0  0  0  0  0
   -1.8357   -4.2153   15.2387 H   0  0  0  0  0  0  0  0  0  0  0  0
   -5.0457   -9.0620   17.7457 H   0  0  0  0  0  0  0  0  0  0  0  0
   -5.9746   -8.9394   16.2131 H   0  0  0  0  0  0  0  0  0  0  0  0
   -4.3344   -9.6718   16.2131 H   0  0  0  0  0  0  0  0  0  0  0  0
   -1.8381   -6.1786    5.0331 H   0  0  0  0  0  0  0  0  0  0  0  0
   -2.3410   -5.5404    6.5890 H   0  0  0  0  0  0  0  0  0  0  0  0
   -4.6479   -5.9239    6.0230 H   0  0  0  0  0  0  0  0  0  0  0  0
   -4.1264   -6.4143    4.3962 H   0  0  0  0  0  0  0  0  0  0  0  0
   -2.6905   -8.9584    4.8383 H   0  0  0  0  0  0  0  0  0  0  0  0
   -3.1182   -9.6754    6.3911 H   0  0  0  0  0  0  0  0  0  0  0  0
   -3.9414   -3.8775   18.2427 H   0  0  0  0  0  0  0  0  0  0  0  0
   -4.9297   -1.8160   18.8508 H   0  0  0  0  0  0  0  0  0  0  0  0
   -4.1369   -1.3202   17.3170 H   0  0  0  0  0  0  0  0  0  0  0  0
   -5.8646   -1.8119   17.3170 H   0  0  0  0  0  0  0  0  0  0  0  0
    0.9755   -5.1924   15.3400 H   0  0  0  0  0  0  0  0  0  0  0  0
    3.9325   -4.4490   12.1964 H   0  0  0  0  0  0  0  0  0  0  0  0
    3.0544   -5.5157   10.1134 H   0  0  0  0  0  0  0  0  0  0  0  0
    1.5950   -7.7990    6.4875 H   0  0  0  0  0  0  0  0  0  0  0  0
   -0.1426   -7.9046    6.0444 H   0  0  0  0  0  0  0  0  0  0  0  0
    0.6892   -6.3124    6.0444 H   0  0  0  0  0  0  0  0  0  0  0  0
   -2.9713   -7.9081    8.5409 H   0  0  0  0  0  0  0  0  0  0  0  0
   -1.0417   -8.0528    6.3959 H   0  0  0  0  0  0  0  0  0  0  0  0
   -4.8152   -8.0652    6.7061 H   0  0  0  0  0  0  0  0  0  0  0  0
   -4.9724   -8.4269    5.1013 H   0  0  0  0  0  0  0  0  0  0  0  0
  1  2  1  0
  1 29  2  0
  1 30  1  0
  2  3  2  0
  2 31  1  0
  3 28  1  0
  4  9  1  0
  4 13  1  0
  4 21  1  0
  5 22  1  0
  5 23  2  0
  5 26  1  0
  6  7  2  0
  6 11  1  0
  6 22  1  0
  7  8  1  0
  8  9  2  0
  9 10  1  0
 10 11  2  0
 10 12  1  0
 12 14  1  0
 12 21  2  0
 14 18  2  0
 14 19  1  0
 15 16  1  0
 15 32  1  0
 16 33  1  0
 17 32  1  0
 17 33  1  0
 19 20  1  0
 23 24  1  0
 24 25  2  0
 25 27  1  0
 26 27  2  0
 27 28  1  0
 28 29  1  0
 32 31  1  0
  3 34  1  0
  7 35  1  0
  8 36  1  0
 11 37  1  0
 13 38  1  0
 13 39  1  0
 13 40  1  0
 15 41  1  0
 15 42  1  0
 16 43  1  0
 16 44  1  0
 17 45  1  0
 17 46  1  0
 19 47  1  0
 20 48  1  0
 20 49  1  0
 20 50  1  0
 22 51  1  0
 24 52  1  0
 25 53  1  0
 30 54  1  0
 30 55  1  0
 30 56  1  0
 31 57  1  0
 32 58  1  1
 33 59  1  0
 33 60  1  0
M  CHG  1  33   1
M  END
>  <filename_input>  (25) 
6ZCY_QF8_docked.sdf

>  <pdb_id>  (25) 
6ZCY_QF8

>  <pose_rank>  (25) 
24

>  <num_atoms_heavy>  (25) 
33

>  <num_torsions>  (25) 
4

>  <pose>  (25) 
[0.2440191731453736, -7.093208573376905, 7.976118752573007, 4.574690709079226, -1.532624432266861, -1.0035168247026067, -1.8021158160943247, 1.7349637398103763, 2.664859451630143, -4.6238842482867115]

>  <energy>  (25) 
206.79271425130992

>  <inter_energy>  (25) 
152.65871350249873

>  <intra_energy>  (25) 
47.774746196619915

>  <rmsd>  (25) 
9.58391

>  <sdf_rank>  (25) 
0

$$$$

     RDKit          3D

 60 64  0  0  0  0  0  0  0  0999 V2000
    5.0900    3.3160   12.7810 C   0  0  0  0  0  0  0  0  0  0  0  0
    3.6840    3.2430   12.5990 C   0  0  0  0  0  0  0  0  0  0  0  0
    3.2780    2.0840   13.2150 C   0  0  0  0  0  0  0  0  0  0  0  0
   -2.8800   -1.8860   13.7680 N   0  0  0  0  0  0  0  0  0  0  0  0
    3.3630   -1.2440   15.6890 C   0  0  0  0  0  0  0  0  0  0  0  0
    0.9370   -1.9840   15.2790 C   0  0  0  0  0  0  0  0  0  0  0  0
    0.0980   -3.0380   15.6510 C   0  0  0  0  0  0  0  0  0  0  0  0
   -1.2120   -3.0970   15.2020 C   0  0  0  0  0  0  0  0  0  0  0  0
   -1.6630   -2.1030   14.3430 C   0  0  0  0  0  0  0  0  0  0  0  0
   -0.8360   -1.0480   13.9440 C   0  0  0  0  0  0  0  0  0  0  0  0
    0.4860   -1.0040   14.3850 C   0  0  0  0  0  0  0  0  0  0  0  0
   -1.6590   -0.2520   13.0740 C   0  0  0  0  0  0  0  0  0  0  0  0
   -4.0780   -2.7080   13.8600 C   0  0  0  0  0  0  0  0  0  0  0  0
   -1.2660    0.9900   12.3450 C   0  0  0  0  0  0  0  0  0  0  0  0
    0.8540    5.2570   11.2810 C   0  0  0  0  0  0  0  0  0  0  0  0
    0.6200    6.4250   12.3470 C   0  0  0  0  0  0  0  0  0  0  0  0
    1.0200    4.4440   13.5290 C   0  0  0  0  0  0  0  0  0  0  0  0
   -0.1410    1.4620   12.4940 O   0  0  0  0  0  0  0  0  0  0  0  0
   -2.1810    1.4960   11.5160 N   0  0  0  0  0  0  0  0  0  0  0  0
   -1.9310    2.6980   10.7310 C   0  0  0  0  0  0  0  0  0  0  0  0
   -2.8720   -0.7830   12.9490 N   0  0  0  0  0  0  0  0  0  0  0  0
    2.2340   -1.9980   15.8410 N   0  0  0  0  0  0  0  0  0  0  0  0
    4.3980   -1.5790   16.4760 N   0  0  0  0  0  0  0  0  0  0  0  0
    5.5220   -0.8580   16.3000 C   0  0  0  0  0  0  0  0  0  0  0  0
    5.6520    0.1750   15.3860 C   0  0  0  0  0  0  0  0  0  0  0  0
    3.3360   -0.2560   14.7830 N   0  0  0  0  0  0  0  0  0  0  0  0
    4.4790    0.4310   14.6400 C   0  0  0  0  0  0  0  0  0  0  0  0
    4.3950    1.5560   13.7750 N   0  0  0  0  0  0  0  0  0  0  0  0
    5.4920    2.3310   13.5580 N   0  0  0  0  0  0  0  0  0  0  0  0
    6.0800    4.3260   12.2980 C   0  0  0  0  0  0  0  0  0  0  0  0
    2.9790    4.1300   11.8830 N   0  0  0  0  0  0  0  0  0  0  0  0
    1.5270    4.1510   12.0980 C   0  0  2  0  0  0  0  0  0  0  0  0
    1.0760    5.9090   13.6550 N   0  0  0  0  0  0  0  0  0  0  0  0
    2.2593    1.6703   13.2474 H   0  0  0  0  0  0  0  0  0  0  0  0
    0.4824   -3.8314   16.3089 H   0  0  0  0  0  0  0  0  0  0  0  0
   -1.8791   -3.9123   15.5187 H   0  0  0  0  0  0  0  0  0  0  0  0
    1.1647   -0.2117   14.0362 H   0  0  0  0  0  0  0  0  0  0  0  0
   -4.3257   -2.8780   14.9182 H   0  0  0  0  0  0  0  0  0  0  0  0
   -4.9149   -2.1930   13.3657 H   0  0  0  0  0  0  0  0  0  0  0  0
   -3.8986   -3.6742   13.3657 H   0  0  0  0  0  0  0  0  0  0  0  0
   -0.1024    4.9096   10.8632 H   0  0  0  0  0  0  0  0  0  0  0  0
    1.4583    5.5796   10.4203 H   0  0  0  0  0  0  0  0  0  0  0  0
    1.2028    7.3150   12.0673 H   0  0  0  0  0  0  0  0  0  0  0  0
   -0.4400    6.7163   12.3861 H   0  0  0  0  0  0  0  0  0  0  0  0
   -0.0114    4.0833   13.6561 H   0  0  0  0  0  0  0  0  0  0  0  0
    1.6251    3.9379   14.2956 H   0  0  0  0  0  0  0  0  0  0  0  0
   -3.0916    1.0226   11.4283 H   0  0  0  0  0  0  0  0  0  0  0  0
   -1.7543    3.5474   11.4072 H   0  0  0  0  0  0  0  0  0  0  0  0
   -1.0456    2.5441   10.0966 H   0  0  0  0  0  0  0  0  0  0  0  0
   -2.8043    2.9098   10.0966 H   0  0  0  0  0  0  0  0  0  0  0  0
    2.3569   -2.7560   16.5275 H   0  0  0  0  0  0  0  0  0  0  0  0
    6.3941   -1.1057   16.9230 H   0  0  0  0  0  0  0  0  0  0  0  0
    6.5837    0.7444   15.2529 H   0  0  0  0  0  0  0  0  0  0  0  0
    6.5575    4.8132   13.1609 H   0  0  0  0  0  0  0  0  0  0  0  0
    6.8470    3.8254   11.6888 H   0  0  0  0  0  0  0  0  0  0  0  0
    5.5642    5.0828   11.6888 H   0  0  0  0  0  0  0  0  0  0  0  0
    3.4344    4.7667   11.2136 H   0  0  0  0  0  0  0  0  0  0  0  0
    1.2722    3.1188   11.8158 H   0  0  0  0  0  0  0  0  0  0  0  0
    2.0387    6.2187   13.8503 H   0  0  0  0  0  0  0  0  0  0  0  0
    0.4918    6.2525   14.4306 H   0  0  0  0  0  0  0  0  0  0  0  0
  1  2  1  0
  1 29  2  0
  1 30  1  0
  2  3  2  0
  2 31  1  0
  3 28  1  0
  4  9  1  0
  4 13  1  0
  4 21  1  0
  5 22  1  0
  5 23  2  0
  5 26  1  0
  6  7  2  0
  6 11  1  0
  6 22  1  0
  7  8  1  0
  8  9  2  0
  9 10  1  0
 10 11  2  0
 10 12  1  0
 12 14  1  0
 12 21  2  0
 14 18  2  0
 14 19  1  0
 15 16  1  0
 15 32  1  0
 16 33  1  0
 17 32  1  0
 17 33  1  0
 19 20  1  0
 23 24  1  0
 24 25  2  0
 25 27  1  0
 26 27  2  0
 27 28  1  0
 28 29  1  0
 32 31  1  0
  3 34  1  0
  7 35  1  0
  8 36  1  0
 11 37  1  0
 13 38  1  0
 13 39  1  0
 13 40  1  0
 15 41  1  0
 15 42  1  0
 16 43  1  0
 16 44  1  0
 17 45  1  0
 17 46  1  0
 19 47  1  0
 20 48  1  0
 20 49  1  0
 20 50  1  0
 22 51  1  0
 24 52  1  0
 25 53  1  0
 30 54  1  0
 30 55  1  0
 30 56  1  0
 31 57  1  0
 32 58  1  6
 33 59  1  0
 33 60  1  0
M  CHG  1  33   1
M  END
>  <filename_input>  (26) 
6ZCY_QF8_docked.sdf

>  <pdb_id>  (26) 
6ZCY_QF8

>  <pose_rank>  (26) 
25

>  <num_atoms_heavy>  (26) 
33

>  <num_torsions>  (26) 
4

>  <pose>  (26) 
[5.09, 3.316, 12.781, 1e-06, 1e-06, 1e-06, 0.0, 0.0, 0.0, 0.0]

>  <energy>  (26) 
-2060.5682253772957

>  <inter_energy>  (26) 
-2130.3043445470335

>  <intra_energy>  (26) 
36.284301674463144

>  <rmsd>  (26) 
0.0

>  <sdf_rank>  (26) 
0

$$$$
