
     RDKit          3D

 34 36  0  0  0  0  0  0  0  0999 V2000
  -10.7102   -7.2298   -2.4113 O   0  0  0  0  0  0  0  0  0  0  0  0
  -11.5484   -6.9937   -1.2820 C   0  0  0  0  0  0  0  0  0  0  0  0
  -13.0083   -6.9885   -1.7128 C   0  0  1  0  0  0  0  0  0  0  0  0
  -13.3869   -8.1277   -2.5740 N   0  0  0  0  0  0  0  0  0  0  0  0
  -14.0215   -7.0890   -0.5724 C   0  0  1  0  0  0  0  0  0  0  0  0
  -15.1741   -6.2895   -0.8126 O   0  0  0  0  0  0  0  0  0  0  0  0
  -14.3865   -8.5827   -0.4605 C   0  0  1  0  0  0  0  0  0  0  0  0
  -15.7944   -8.7808   -0.4076 O   0  0  0  0  0  0  0  0  0  0  0  0
  -13.8289   -9.2428   -1.7364 C   0  0  2  0  0  0  0  0  0  0  0  0
  -12.6887  -10.1892   -1.5298 C   0  0  0  0  0  0  0  0  0  0  0  0
  -12.0336  -10.4934   -0.3717 C   0  0  0  0  0  0  0  0  0  0  0  0
  -10.9552  -11.2924   -0.6360 N   0  0  0  0  0  0  0  0  0  0  0  0
  -10.8974  -11.5249   -1.9889 C   0  0  0  0  0  0  0  0  0  0  0  0
  -10.0617  -12.2274   -2.8716 C   0  0  0  0  0  0  0  0  0  0  0  0
   -8.9916  -12.7849   -2.3978 O   0  0  0  0  0  0  0  0  0  0  0  0
  -10.3293  -12.3096   -4.2000 N   0  0  0  0  0  0  0  0  0  0  0  0
  -11.4248  -11.6756   -4.6858 C   0  0  0  0  0  0  0  0  0  0  0  0
  -12.2632  -10.9375   -3.9172 N   0  0  0  0  0  0  0  0  0  0  0  0
  -11.9838  -10.8676   -2.5910 C   0  0  0  0  0  0  0  0  0  0  0  0
   -9.8048   -7.4849   -2.1027 H   0  0  0  0  0  0  0  0  0  0  0  0
  -11.3905   -7.7884   -0.5380 H   0  0  0  0  0  0  0  0  0  0  0  0
  -11.2970   -6.0174   -0.8420 H   0  0  0  0  0  0  0  0  0  0  0  0
  -13.0545   -6.0177   -2.2281 H   0  0  0  0  0  0  0  0  0  0  0  0
  -14.1528   -7.8445   -3.2017 H   0  0  0  0  0  0  0  0  0  0  0  0
  -12.5745   -8.4197   -3.1359 H   0  0  0  0  0  0  0  0  0  0  0  0
  -13.5934   -6.7084    0.3666 H   0  0  0  0  0  0  0  0  0  0  0  0
  -15.5708   -6.0143    0.0517 H   0  0  0  0  0  0  0  0  0  0  0  0
  -13.9686   -9.0115    0.4623 H   0  0  0  0  0  0  0  0  0  0  0  0
  -16.0866   -8.8219    0.5374 H   0  0  0  0  0  0  0  0  0  0  0  0
  -14.6176   -9.8694   -2.1783 H   0  0  0  0  0  0  0  0  0  0  0  0
  -12.3299  -10.1463    0.6292 H   0  0  0  0  0  0  0  0  0  0  0  0
  -10.2950  -11.6595    0.0642 H   0  0  0  0  0  0  0  0  0  0  0  0
   -8.3863  -13.2859   -3.0000 H   0  0  0  0  0  0  0  0  0  0  0  0
  -11.6450  -11.7647   -5.7598 H   0  0  0  0  0  0  0  0  0  0  0  0
  1  2  1  0
  3  2  1  0
  3  4  1  0
  3  5  1  0
  4  9  1  0
  5  6  1  0
  5  7  1  0
  7  8  1  0
  7  9  1  0
  9 10  1  0
 10 11  2  0
 10 19  1  0
 11 12  1  0
 12 13  1  0
 13 14  2  0
 13 19  1  0
 14 15  1  0
 14 16  1  0
 16 17  2  0
 17 18  1  0
 18 19  2  0
  1 20  1  0
  2 21  1  0
  2 22  1  0
  3 23  1  6
  4 24  1  0
  4 25  1  0
  5 26  1  1
  6 27  1  0
  7 28  1  1
  8 29  1  0
  9 30  1  6
 11 31  1  0
 12 32  1  0
 15 33  1  0
 17 34  1  0
M  CHG  1   4   1
M  END
>  <filename_input>  (1) 
6ZK5_IMH_docked.sdf

>  <pdb_id>  (1) 
6ZK5_IMH

>  <pose_rank>  (1) 
0

>  <num_atoms_heavy>  (1) 
19

>  <num_torsions>  (1) 
2

>  <pose>  (1) 
[-12.688741842511805, -10.189157015983827, -1.5297985549330402, 1.067473847226044, -3.0743448628452916, 5.34457604196449, -0.20618759414130375, 0.021224941841040283]

>  <energy>  (1) 
-832.4706821910258

>  <inter_energy>  (1) 
-830.2488593650991

>  <intra_energy>  (1) 
3.1958407810469347

>  <rmsd>  (1) 
0.4147

>  <sdf_rank>  (1) 
0

$$$$

     RDKit          3D

 34 36  0  0  0  0  0  0  0  0999 V2000
  -13.6190  -11.0133   -4.0956 O   0  0  0  0  0  0  0  0  0  0  0  0
  -12.9123  -12.2235   -3.8319 C   0  0  0  0  0  0  0  0  0  0  0  0
  -11.4169  -11.9979   -4.0041 C   0  0  1  0  0  0  0  0  0  0  0  0
  -10.9553  -10.6618   -3.5748 N   0  0  0  0  0  0  0  0  0  0  0  0
  -10.5219  -12.9313   -3.1887 C   0  0  1  0  0  0  0  0  0  0  0  0
   -9.3507  -13.3059   -3.9052 O   0  0  0  0  0  0  0  0  0  0  0  0
  -10.1706  -12.1622   -1.8996 C   0  0  1  0  0  0  0  0  0  0  0  0
   -8.7750  -12.1987   -1.6253 O   0  0  0  0  0  0  0  0  0  0  0  0
  -10.5992  -10.7045   -2.1563 C   0  0  2  0  0  0  0  0  0  0  0  0
  -11.7547  -10.2167   -1.3408 C   0  0  0  0  0  0  0  0  0  0  0  0
  -12.3450  -10.8078   -0.2615 C   0  0  0  0  0  0  0  0  0  0  0  0
  -13.4639  -10.1109    0.1044 N   0  0  0  0  0  0  0  0  0  0  0  0
  -13.6148   -9.0395   -0.7423 C   0  0  0  0  0  0  0  0  0  0  0  0
  -14.5274   -7.9852   -0.9060 C   0  0  0  0  0  0  0  0  0  0  0  0
  -15.5832   -7.9595   -0.1544 O   0  0  0  0  0  0  0  0  0  0  0  0
  -14.3471   -7.0198   -1.8433 N   0  0  0  0  0  0  0  0  0  0  0  0
  -13.2641   -7.0926   -2.6556 C   0  0  0  0  0  0  0  0  0  0  0  0
  -12.3549   -8.0968   -2.6005 N   0  0  0  0  0  0  0  0  0  0  0  0
  -12.5474   -9.0525   -1.6563 C   0  0  0  0  0  0  0  0  0  0  0  0
  -13.8696  -10.5842   -3.2394 H   0  0  0  0  0  0  0  0  0  0  0  0
  -13.1160  -12.5475   -2.8006 H   0  0  0  0  0  0  0  0  0  0  0  0
  -13.2454  -12.9988   -4.5376 H   0  0  0  0  0  0  0  0  0  0  0  0
  -11.3192  -12.1662   -5.0868 H   0  0  0  0  0  0  0  0  0  0  0  0
  -10.1307  -10.3886   -4.1282 H   0  0  0  0  0  0  0  0  0  0  0  0
  -11.7080   -9.9740   -3.7204 H   0  0  0  0  0  0  0  0  0  0  0  0
  -11.0408  -13.8750   -2.9649 H   0  0  0  0  0  0  0  0  0  0  0  0
   -8.6316  -13.5360   -3.2649 H   0  0  0  0  0  0  0  0  0  0  0  0
  -10.6782  -12.6127   -1.0339 H   0  0  0  0  0  0  0  0  0  0  0  0
   -8.6311  -12.2025   -0.6458 H   0  0  0  0  0  0  0  0  0  0  0  0
   -9.7709  -10.0411   -1.8668 H   0  0  0  0  0  0  0  0  0  0  0  0
  -11.9748  -11.7134    0.2414 H   0  0  0  0  0  0  0  0  0  0  0  0
  -14.0903  -10.3501    0.8862 H   0  0  0  0  0  0  0  0  0  0  0  0
  -16.2417   -7.2266   -0.2507 H   0  0  0  0  0  0  0  0  0  0  0  0
  -13.1153   -6.2950   -3.3984 H   0  0  0  0  0  0  0  0  0  0  0  0
  1  2  1  0
  3  2  1  0
  3  4  1  0
  3  5  1  0
  4  9  1  0
  5  6  1  0
  5  7  1  0
  7  8  1  0
  7  9  1  0
  9 10  1  0
 10 11  2  0
 10 19  1  0
 11 12  1  0
 12 13  1  0
 13 14  2  0
 13 19  1  0
 14 15  1  0
 14 16  1  0
 16 17  2  0
 17 18  1  0
 18 19  2  0
  1 20  1  0
  2 21  1  0
  2 22  1  0
  3 23  1  6
  4 24  1  0
  4 25  1  0
  5 26  1  1
  6 27  1  0
  7 28  1  1
  8 29  1  0
  9 30  1  6
 11 31  1  0
 12 32  1  0
 15 33  1  0
 17 34  1  0
M  CHG  1   4   1
M  END
>  <filename_input>  (2) 
6ZK5_IMH_docked.sdf

>  <pdb_id>  (2) 
6ZK5_IMH

>  <pose_rank>  (2) 
1

>  <num_atoms_heavy>  (2) 
19

>  <num_torsions>  (2) 
2

>  <pose>  (2) 
[-11.754723220637798, -10.216735685320707, -1.3408412729200059, 0.06869944059905671, -1.1422792384262885, 2.956303000888395, 6.338616375133661, -0.18983592758094195]

>  <energy>  (2) 
-721.9520070599569

>  <inter_energy>  (2) 
-724.1248203695118

>  <intra_energy>  (2) 
11.633746418969233

>  <rmsd>  (2) 
5.53159

>  <sdf_rank>  (2) 
0

$$$$

     RDKit          3D

 34 36  0  0  0  0  0  0  0  0999 V2000
  -10.9557   -6.2832   -1.1146 O   0  0  0  0  0  0  0  0  0  0  0  0
  -11.5832   -7.2524   -1.9514 C   0  0  0  0  0  0  0  0  0  0  0  0
  -13.0941   -7.0723   -1.9092 C   0  0  1  0  0  0  0  0  0  0  0  0
  -13.8207   -7.8273   -2.9508 N   0  0  0  0  0  0  0  0  0  0  0  0
  -13.7692   -7.5537   -0.6248 C   0  0  1  0  0  0  0  0  0  0  0  0
  -14.8418   -6.7030   -0.2363 O   0  0  0  0  0  0  0  0  0  0  0  0
  -14.2634   -8.9845   -0.9166 C   0  0  1  0  0  0  0  0  0  0  0  0
  -15.6189   -9.1665   -0.5240 O   0  0  0  0  0  0  0  0  0  0  0  0
  -14.1497   -9.1595   -2.4434 C   0  0  2  0  0  0  0  0  0  0  0  0
  -13.1151  -10.1355   -2.9074 C   0  0  0  0  0  0  0  0  0  0  0  0
  -13.0452  -10.8013   -4.0968 C   0  0  0  0  0  0  0  0  0  0  0  0
  -12.0247  -11.7119   -4.0681 N   0  0  0  0  0  0  0  0  0  0  0  0
  -11.4063  -11.6454   -2.8431 C   0  0  0  0  0  0  0  0  0  0  0  0
  -10.3419  -12.2947   -2.1975 C   0  0  0  0  0  0  0  0  0  0  0  0
   -9.7627  -13.2836   -2.8032 O   0  0  0  0  0  0  0  0  0  0  0  0
   -9.9301  -11.9346   -0.9551 N   0  0  0  0  0  0  0  0  0  0  0  0
  -10.5824  -10.9328   -0.3157 C   0  0  0  0  0  0  0  0  0  0  0  0
  -11.6478  -10.2797   -0.8417 N   0  0  0  0  0  0  0  0  0  0  0  0
  -12.0454  -10.6490   -2.0856 C   0  0  0  0  0  0  0  0  0  0  0  0
  -11.1081   -6.5186   -0.1652 H   0  0  0  0  0  0  0  0  0  0  0  0
  -11.2295   -7.1256   -2.9852 H   0  0  0  0  0  0  0  0  0  0  0  0
  -11.3284   -8.2605   -1.5924 H   0  0  0  0  0  0  0  0  0  0  0  0
  -13.1626   -5.9815   -2.0334 H   0  0  0  0  0  0  0  0  0  0  0  0
  -14.6881   -7.3285   -3.1950 H   0  0  0  0  0  0  0  0  0  0  0  0
  -13.2287   -7.9145   -3.7892 H   0  0  0  0  0  0  0  0  0  0  0  0
  -13.0634   -7.5365    0.2188 H   0  0  0  0  0  0  0  0  0  0  0  0
  -14.8909   -6.6640    0.7517 H   0  0  0  0  0  0  0  0  0  0  0  0
  -13.6669   -9.7184   -0.3549 H   0  0  0  0  0  0  0  0  0  0  0  0
  -15.6780   -9.1744    0.4642 H   0  0  0  0  0  0  0  0  0  0  0  0
  -15.0958   -9.5770   -2.8182 H   0  0  0  0  0  0  0  0  0  0  0  0
  -13.7128  -10.6305   -4.9542 H   0  0  0  0  0  0  0  0  0  0  0  0
  -11.7630  -12.3436   -4.8384 H   0  0  0  0  0  0  0  0  0  0  0  0
   -9.0099  -13.7575   -2.3688 H   0  0  0  0  0  0  0  0  0  0  0  0
  -10.2288  -10.6341    0.6822 H   0  0  0  0  0  0  0  0  0  0  0  0
  1  2  1  0
  3  2  1  0
  3  4  1  0
  3  5  1  0
  4  9  1  0
  5  6  1  0
  5  7  1  0
  7  8  1  0
  7  9  1  0
  9 10  1  0
 10 11  2  0
 10 19  1  0
 11 12  1  0
 12 13  1  0
 13 14  2  0
 13 19  1  0
 14 15  1  0
 14 16  1  0
 16 17  2  0
 17 18  1  0
 18 19  2  0
  1 20  1  0
  2 21  1  0
  2 22  1  0
  3 23  1  6
  4 24  1  0
  4 25  1  0
  5 26  1  1
  6 27  1  0
  7 28  1  1
  8 29  1  0
  9 30  1  6
 11 31  1  0
 12 32  1  0
 15 33  1  0
 17 34  1  0
M  CHG  1   4   1
M  END
>  <filename_input>  (3) 
6ZK5_IMH_docked.sdf

>  <pdb_id>  (3) 
6ZK5_IMH

>  <pose_rank>  (3) 
2

>  <num_atoms_heavy>  (3) 
19

>  <num_torsions>  (3) 
2

>  <pose>  (3) 
[-13.11511867328209, -10.13549225318573, -2.9073949501270446, 2.2349864323489927, -1.8239004474403266, -0.26056652311611866, 15.179899019432506, -4.1688628795603275]

>  <energy>  (3) 
-740.1970896508022

>  <inter_energy>  (3) 
-759.6763632602062

>  <intra_energy>  (3) 
31.005487571585437

>  <rmsd>  (3) 
2.08587

>  <sdf_rank>  (3) 
0

$$$$

     RDKit          3D

 34 36  0  0  0  0  0  0  0  0999 V2000
  -10.7206   -5.7889   -1.7693 O   0  0  0  0  0  0  0  0  0  0  0  0
  -11.5136   -6.9734   -1.7265 C   0  0  0  0  0  0  0  0  0  0  0  0
  -12.9548   -6.6450   -2.0896 C   0  0  1  0  0  0  0  0  0  0  0  0
  -13.6292   -7.6906   -2.8863 N   0  0  0  0  0  0  0  0  0  0  0  0
  -13.9012   -6.4776   -0.9007 C   0  0  1  0  0  0  0  0  0  0  0  0
  -14.8523   -5.4417   -1.1194 O   0  0  0  0  0  0  0  0  0  0  0  0
  -14.5907   -7.8436   -0.7125 C   0  0  1  0  0  0  0  0  0  0  0  0
  -16.0018   -7.7112   -0.5870 O   0  0  0  0  0  0  0  0  0  0  0  0
  -14.2681   -8.6501   -1.9853 C   0  0  2  0  0  0  0  0  0  0  0  0
  -13.3644   -9.8269   -1.7938 C   0  0  0  0  0  0  0  0  0  0  0  0
  -12.8191  -10.3024   -0.6364 C   0  0  0  0  0  0  0  0  0  0  0  0
  -11.9323  -11.3072   -0.9111 N   0  0  0  0  0  0  0  0  0  0  0  0
  -11.8927  -11.5035   -2.2703 C   0  0  0  0  0  0  0  0  0  0  0  0
  -11.2068  -12.3418   -3.1635 C   0  0  0  0  0  0  0  0  0  0  0  0
  -10.2942  -13.1325   -2.6920 O   0  0  0  0  0  0  0  0  0  0  0  0
  -11.4531  -12.3218   -4.4984 N   0  0  0  0  0  0  0  0  0  0  0  0
  -12.3737  -11.4505   -4.9796 C   0  0  0  0  0  0  0  0  0  0  0  0
  -13.0517  -10.5733   -4.1992 N   0  0  0  0  0  0  0  0  0  0  0  0
  -12.7966  -10.6078   -2.8666 C   0  0  0  0  0  0  0  0  0  0  0  0
  -10.5215   -5.4916   -0.8462 H   0  0  0  0  0  0  0  0  0  0  0  0
  -11.1145   -7.7057   -2.4438 H   0  0  0  0  0  0  0  0  0  0  0  0
  -11.4827   -7.3936   -0.7104 H   0  0  0  0  0  0  0  0  0  0  0  0
  -12.8062   -5.7046   -2.6406 H   0  0  0  0  0  0  0  0  0  0  0  0
  -14.3431   -7.2568   -3.4889 H   0  0  0  0  0  0  0  0  0  0  0  0
  -12.9364   -8.1773   -3.4728 H   0  0  0  0  0  0  0  0  0  0  0  0
  -13.3476   -6.1791    0.0017 H   0  0  0  0  0  0  0  0  0  0  0  0
  -15.1698   -5.0959   -0.2477 H   0  0  0  0  0  0  0  0  0  0  0  0
  -14.2325   -8.3306    0.2065 H   0  0  0  0  0  0  0  0  0  0  0  0
  -16.2471   -7.6882    0.3719 H   0  0  0  0  0  0  0  0  0  0  0  0
  -15.2016   -9.0909   -2.3650 H   0  0  0  0  0  0  0  0  0  0  0  0
  -13.0580   -9.9314    0.3712 H   0  0  0  0  0  0  0  0  0  0  0  0
  -11.3843  -11.8305   -0.2135 H   0  0  0  0  0  0  0  0  0  0  0  0
   -9.7966  -13.7332   -3.3016 H   0  0  0  0  0  0  0  0  0  0  0  0
  -12.5814  -11.4556   -6.0598 H   0  0  0  0  0  0  0  0  0  0  0  0
  1  2  1  0
  3  2  1  0
  3  4  1  0
  3  5  1  0
  4  9  1  0
  5  6  1  0
  5  7  1  0
  7  8  1  0
  7  9  1  0
  9 10  1  0
 10 11  2  0
 10 19  1  0
 11 12  1  0
 12 13  1  0
 13 14  2  0
 13 19  1  0
 14 15  1  0
 14 16  1  0
 16 17  2  0
 17 18  1  0
 18 19  2  0
  1 20  1  0
  2 21  1  0
  2 22  1  0
  3 23  1  6
  4 24  1  0
  4 25  1  0
  5 26  1  1
  6 27  1  0
  7 28  1  1
  8 29  1  0
  9 30  1  6
 11 31  1  0
 12 32  1  0
 15 33  1  0
 17 34  1  0
M  CHG  1   4   1
M  END
>  <filename_input>  (4) 
6ZK5_IMH_docked.sdf

>  <pdb_id>  (4) 
6ZK5_IMH

>  <pose_rank>  (4) 
3

>  <num_atoms_heavy>  (4) 
19

>  <num_torsions>  (4) 
2

>  <pose>  (4) 
[-13.364403015950275, -9.826888479575056, -1.793750873785825, 0.03161742381878441, -0.007607297517765011, -0.23970630111777694, 18.743322676833326, 1.6860741546414713]

>  <energy>  (4) 
-799.1069324672798

>  <inter_energy>  (4) 
-812.431870302825

>  <intra_energy>  (4) 
4.450359766503632

>  <rmsd>  (4) 
0.906194

>  <sdf_rank>  (4) 
0

$$$$

     RDKit          3D

 34 36  0  0  0  0  0  0  0  0999 V2000
  -11.7186   -6.9193   -1.7586 O   0  0  0  0  0  0  0  0  0  0  0  0
  -12.2816   -7.5933   -2.8821 C   0  0  0  0  0  0  0  0  0  0  0  0
  -13.8009   -7.5709   -2.7914 C   0  0  1  0  0  0  0  0  0  0  0  0
  -14.4268   -8.9087   -2.8277 N   0  0  0  0  0  0  0  0  0  0  0  0
  -14.3649   -6.9804   -1.4990 C   0  0  1  0  0  0  0  0  0  0  0  0
  -15.5460   -6.2214   -1.7318 O   0  0  0  0  0  0  0  0  0  0  0  0
  -14.6409   -8.1796   -0.5703 C   0  0  1  0  0  0  0  0  0  0  0  0
  -15.9432   -8.1189   -0.0005 O   0  0  0  0  0  0  0  0  0  0  0  0
  -14.5364   -9.4299   -1.4650 C   0  0  2  0  0  0  0  0  0  0  0  0
  -13.3755  -10.3309   -1.1846 C   0  0  0  0  0  0  0  0  0  0  0  0
  -12.7585  -10.5789    0.0072 C   0  0  0  0  0  0  0  0  0  0  0  0
  -11.6448  -11.3486   -0.1896 N   0  0  0  0  0  0  0  0  0  0  0  0
  -11.5245  -11.6184   -1.5314 C   0  0  0  0  0  0  0  0  0  0  0  0
  -10.6313  -12.3179   -2.3584 C   0  0  0  0  0  0  0  0  0  0  0  0
   -9.5639  -12.8250   -1.8258 O   0  0  0  0  0  0  0  0  0  0  0  0
  -10.8420  -12.4477   -3.6933 N   0  0  0  0  0  0  0  0  0  0  0  0
  -11.9369  -11.8654   -4.2412 C   0  0  0  0  0  0  0  0  0  0  0  0
  -12.8292  -11.1338   -3.5294 N   0  0  0  0  0  0  0  0  0  0  0  0
  -12.6064  -11.0159   -2.1958 C   0  0  0  0  0  0  0  0  0  0  0  0
  -12.0598   -7.3277   -0.9238 H   0  0  0  0  0  0  0  0  0  0  0  0
  -11.9639   -7.0891   -3.8067 H   0  0  0  0  0  0  0  0  0  0  0  0
  -11.9345   -8.6370   -2.8898 H   0  0  0  0  0  0  0  0  0  0  0  0
  -14.0383   -6.9542   -3.6707 H   0  0  0  0  0  0  0  0  0  0  0  0
  -15.3657   -8.8378   -3.2453 H   0  0  0  0  0  0  0  0  0  0  0  0
  -13.8478   -9.5448   -3.3943 H   0  0  0  0  0  0  0  0  0  0  0  0
  -13.6511   -6.2768   -1.0456 H   0  0  0  0  0  0  0  0  0  0  0  0
  -15.9483   -5.9628   -0.8649 H   0  0  0  0  0  0  0  0  0  0  0  0
  -13.9264   -8.1894    0.2660 H   0  0  0  0  0  0  0  0  0  0  0  0
  -15.8718   -8.1222    0.9869 H   0  0  0  0  0  0  0  0  0  0  0  0
  -15.4158  -10.0647   -1.2815 H   0  0  0  0  0  0  0  0  0  0  0  0
  -13.1063  -10.2130    0.9845 H   0  0  0  0  0  0  0  0  0  0  0  0
  -11.0021  -11.6727    0.5471 H   0  0  0  0  0  0  0  0  0  0  0  0
   -8.9187  -13.3226   -2.3880 H   0  0  0  0  0  0  0  0  0  0  0  0
  -12.1103  -11.9931   -5.3200 H   0  0  0  0  0  0  0  0  0  0  0  0
  1  2  1  0
  3  2  1  0
  3  4  1  0
  3  5  1  0
  4  9  1  0
  5  6  1  0
  5  7  1  0
  7  8  1  0
  7  9  1  0
  9 10  1  0
 10 11  2  0
 10 19  1  0
 11 12  1  0
 12 13  1  0
 13 14  2  0
 13 19  1  0
 14 15  1  0
 14 16  1  0
 16 17  2  0
 17 18  1  0
 18 19  2  0
  1 20  1  0
  2 21  1  0
  2 22  1  0
  3 23  1  6
  4 24  1  0
  4 25  1  0
  5 26  1  1
  6 27  1  0
  7 28  1  1
  8 29  1  0
  9 30  1  6
 11 31  1  0
 12 32  1  0
 15 33  1  0
 17 34  1  0
M  CHG  1   4   1
M  END
>  <filename_input>  (5) 
6ZK5_IMH_docked.sdf

>  <pdb_id>  (5) 
6ZK5_IMH

>  <pose_rank>  (5) 
4

>  <num_atoms_heavy>  (5) 
19

>  <num_torsions>  (5) 
2

>  <pose>  (5) 
[-13.375515240023635, -10.330878000745695, -1.1846307335519821, 4.68371900550317, 3.841472829098023, -1.4889556814362472, -5.869797736858254, -2.969951336393791]

>  <energy>  (5) 
-788.1490002850314

>  <inter_energy>  (5) 
-802.8160845407124

>  <intra_energy>  (5) 
22.16584543741842

>  <rmsd>  (5) 
0.687601

>  <sdf_rank>  (5) 
0

$$$$

     RDKit          3D

 34 36  0  0  0  0  0  0  0  0999 V2000
  -11.3862   -6.9956   -0.8678 O   0  0  0  0  0  0  0  0  0  0  0  0
  -11.8205   -7.0902   -2.2228 C   0  0  0  0  0  0  0  0  0  0  0  0
  -13.3409   -7.0522   -2.2831 C   0  0  1  0  0  0  0  0  0  0  0  0
  -13.9467   -8.2159   -2.9625 N   0  0  0  0  0  0  0  0  0  0  0  0
  -14.0444   -7.0627   -0.9258 C   0  0  1  0  0  0  0  0  0  0  0  0
  -15.2014   -6.2340   -0.9196 O   0  0  0  0  0  0  0  0  0  0  0  0
  -14.4057   -8.5353   -0.6472 C   0  0  1  0  0  0  0  0  0  0  0  0
  -15.7616   -8.6796   -0.2408 O   0  0  0  0  0  0  0  0  0  0  0  0
  -14.1951   -9.2740   -1.9831 C   0  0  2  0  0  0  0  0  0  0  0  0
  -13.0619  -10.2503   -2.0107 C   0  0  0  0  0  0  0  0  0  0  0  0
  -12.2445  -10.6355   -0.9878 C   0  0  0  0  0  0  0  0  0  0  0  0
  -11.2409  -11.4351   -1.4618 N   0  0  0  0  0  0  0  0  0  0  0  0
  -11.3980  -11.5857   -2.8184 C   0  0  0  0  0  0  0  0  0  0  0  0
  -10.7268  -12.2472   -3.8591 C   0  0  0  0  0  0  0  0  0  0  0  0
   -9.6115  -12.8505   -3.5899 O   0  0  0  0  0  0  0  0  0  0  0  0
  -11.1977  -12.2438   -5.1323 N   0  0  0  0  0  0  0  0  0  0  0  0
  -12.3380  -11.5629   -5.4049 C   0  0  0  0  0  0  0  0  0  0  0  0
  -13.0285  -10.8590   -4.4744 N   0  0  0  0  0  0  0  0  0  0  0  0
  -12.5467  -10.8747   -3.2057 C   0  0  0  0  0  0  0  0  0  0  0  0
  -12.1523   -7.1625   -0.2633 H   0  0  0  0  0  0  0  0  0  0  0  0
  -11.4114   -6.2456   -2.7968 H   0  0  0  0  0  0  0  0  0  0  0  0
  -11.4644   -8.0384   -2.6520 H   0  0  0  0  0  0  0  0  0  0  0  0
  -13.4897   -6.1055   -2.8232 H   0  0  0  0  0  0  0  0  0  0  0  0
  -14.8367   -7.9348   -3.3982 H   0  0  0  0  0  0  0  0  0  0  0  0
  -13.3048   -8.5631   -3.6894 H   0  0  0  0  0  0  0  0  0  0  0  0
  -13.3894   -6.6543   -0.1420 H   0  0  0  0  0  0  0  0  0  0  0  0
  -15.4664   -6.0442    0.0152 H   0  0  0  0  0  0  0  0  0  0  0  0
  -13.7838   -8.9354    0.1672 H   0  0  0  0  0  0  0  0  0  0  0  0
  -15.8110   -8.6849    0.7479 H   0  0  0  0  0  0  0  0  0  0  0  0
  -15.0829   -9.8916   -2.1840 H   0  0  0  0  0  0  0  0  0  0  0  0
  -12.3740  -10.3451    0.0652 H   0  0  0  0  0  0  0  0  0  0  0  0
  -10.4906  -11.8553   -0.8949 H   0  0  0  0  0  0  0  0  0  0  0  0
   -9.1194  -13.3240   -4.3066 H   0  0  0  0  0  0  0  0  0  0  0  0
  -12.7232  -11.5827   -6.4351 H   0  0  0  0  0  0  0  0  0  0  0  0
  1  2  1  0
  3  2  1  0
  3  4  1  0
  3  5  1  0
  4  9  1  0
  5  6  1  0
  5  7  1  0
  7  8  1  0
  7  9  1  0
  9 10  1  0
 10 11  2  0
 10 19  1  0
 11 12  1  0
 12 13  1  0
 13 14  2  0
 13 19  1  0
 14 15  1  0
 14 16  1  0
 16 17  2  0
 17 18  1  0
 18 19  2  0
  1 20  1  0
  2 21  1  0
  2 22  1  0
  3 23  1  6
  4 24  1  0
  4 25  1  0
  5 26  1  1
  6 27  1  0
  7 28  1  1
  8 29  1  0
  9 30  1  6
 11 31  1  0
 12 32  1  0
 15 33  1  0
 17 34  1  0
M  CHG  1   4   1
M  END
>  <filename_input>  (6) 
6ZK5_IMH_docked.sdf

>  <pdb_id>  (6) 
6ZK5_IMH

>  <pose_rank>  (6) 
5

>  <num_atoms_heavy>  (6) 
19

>  <num_torsions>  (6) 
2

>  <pose>  (6) 
[-13.061880945477771, -10.25030453204897, -2.010744686741747, 1.9022159542044563, 5.988757325882979, -1.5216619005824683, -6.344990801692251, -2.969261578434331]

>  <energy>  (6) 
-766.9264035934173

>  <inter_energy>  (6) 
-773.5191727522705

>  <intra_energy>  (6) 
6.539473251441225

>  <rmsd>  (6) 
0.910191

>  <sdf_rank>  (6) 
0

$$$$

     RDKit          3D

 34 36  0  0  0  0  0  0  0  0999 V2000
   -8.7587  -10.3725   -0.6053 O   0  0  0  0  0  0  0  0  0  0  0  0
   -9.6802  -11.3961   -0.2358 C   0  0  0  0  0  0  0  0  0  0  0  0
   -9.9883  -12.2747   -1.4400 C   0  0  1  0  0  0  0  0  0  0  0  0
  -11.4209  -12.5991   -1.5989 N   0  0  0  0  0  0  0  0  0  0  0  0
   -9.6388  -11.6621   -2.7963 C   0  0  1  0  0  0  0  0  0  0  0  0
   -9.1313  -12.6336   -3.7041 O   0  0  0  0  0  0  0  0  0  0  0  0
  -10.9412  -11.0268   -3.3225 C   0  0  1  0  0  0  0  0  0  0  0  0
  -11.2051  -11.3998   -4.6700 O   0  0  0  0  0  0  0  0  0  0  0  0
  -12.0633  -11.5699   -2.4167 C   0  0  2  0  0  0  0  0  0  0  0  0
  -12.7172  -10.5640   -1.5230 C   0  0  0  0  0  0  0  0  0  0  0  0
  -12.7354  -10.5212   -0.1590 C   0  0  0  0  0  0  0  0  0  0  0  0
  -13.5669   -9.5233    0.2703 N   0  0  0  0  0  0  0  0  0  0  0  0
  -14.1042   -8.8925   -0.8256 C   0  0  0  0  0  0  0  0  0  0  0  0
  -15.0014   -7.8389   -1.0620 C   0  0  0  0  0  0  0  0  0  0  0  0
  -15.5910   -7.2897   -0.0467 O   0  0  0  0  0  0  0  0  0  0  0  0
  -15.2855   -7.4072   -2.3174 N   0  0  0  0  0  0  0  0  0  0  0  0
  -14.6993   -8.0288   -3.3700 C   0  0  0  0  0  0  0  0  0  0  0  0
  -13.8558   -9.0823   -3.2404 N   0  0  0  0  0  0  0  0  0  0  0  0
  -13.5794   -9.5001   -1.9790 C   0  0  0  0  0  0  0  0  0  0  0  0
   -8.3836   -9.9558    0.2106 H   0  0  0  0  0  0  0  0  0  0  0  0
   -9.2403  -12.0122    0.5623 H   0  0  0  0  0  0  0  0  0  0  0  0
  -10.6114  -10.9331    0.1226 H   0  0  0  0  0  0  0  0  0  0  0  0
   -9.3662  -13.1508   -1.2047 H   0  0  0  0  0  0  0  0  0  0  0  0
  -11.5170  -13.5148   -2.0606 H   0  0  0  0  0  0  0  0  0  0  0  0
  -11.8710  -12.6341   -0.6731 H   0  0  0  0  0  0  0  0  0  0  0  0
   -8.8393  -10.9136   -2.6937 H   0  0  0  0  0  0  0  0  0  0  0  0
   -8.7380  -13.3866   -3.1958 H   0  0  0  0  0  0  0  0  0  0  0  0
  -10.8675   -9.9294   -3.3034 H   0  0  0  0  0  0  0  0  0  0  0  0
  -11.7768  -12.2080   -4.6827 H   0  0  0  0  0  0  0  0  0  0  0  0
  -12.8831  -11.9309   -3.0551 H   0  0  0  0  0  0  0  0  0  0  0  0
  -12.1643  -11.1920    0.4998 H   0  0  0  0  0  0  0  0  0  0  0  0
  -13.7586   -9.2841    1.2537 H   0  0  0  0  0  0  0  0  0  0  0  0
  -16.2280   -6.5450   -0.1874 H   0  0  0  0  0  0  0  0  0  0  0  0
  -14.9195   -7.6590   -4.3823 H   0  0  0  0  0  0  0  0  0  0  0  0
  1  2  1  0
  3  2  1  0
  3  4  1  0
  3  5  1  0
  4  9  1  0
  5  6  1  0
  5  7  1  0
  7  8  1  0
  7  9  1  0
  9 10  1  0
 10 11  2  0
 10 19  1  0
 11 12  1  0
 12 13  1  0
 13 14  2  0
 13 19  1  0
 14 15  1  0
 14 16  1  0
 16 17  2  0
 17 18  1  0
 18 19  2  0
  1 20  1  0
  2 21  1  0
  2 22  1  0
  3 23  1  1
  4 24  1  0
  4 25  1  0
  5 26  1  1
  6 27  1  0
  7 28  1  6
  8 29  1  0
  9 30  1  6
 11 31  1  0
 12 32  1  0
 15 33  1  0
 17 34  1  0
M  CHG  1   4   1
M  END
>  <filename_input>  (7) 
6ZK5_IMH_docked.sdf

>  <pdb_id>  (7) 
6ZK5_IMH

>  <pose_rank>  (7) 
6

>  <num_atoms_heavy>  (7) 
19

>  <num_torsions>  (7) 
2

>  <pose>  (7) 
[-12.717168137633134, -10.563996153378097, -1.5230380071538978, 0.6475426240943588, -0.37319707340380076, 2.7972014468332604, -2.1784155214872514, -3.1853450594891135]

>  <energy>  (7) 
-734.8650468129681

>  <inter_energy>  (7) 
-730.5082199195773

>  <intra_energy>  (7) 
15.472367770241966

>  <rmsd>  (7) 
5.43046

>  <sdf_rank>  (7) 
0

$$$$

     RDKit          3D

 34 36  0  0  0  0  0  0  0  0999 V2000
  -10.7388   -7.4332   -2.8762 O   0  0  0  0  0  0  0  0  0  0  0  0
  -11.5785   -7.1649   -1.7553 C   0  0  0  0  0  0  0  0  0  0  0  0
  -13.0366   -7.1514   -2.1922 C   0  0  1  0  0  0  0  0  0  0  0  0
  -13.5116   -8.4357   -2.7470 N   0  0  0  0  0  0  0  0  0  0  0  0
  -14.0459   -6.8836   -1.0756 C   0  0  1  0  0  0  0  0  0  0  0  0
  -15.1326   -6.0804   -1.5220 O   0  0  0  0  0  0  0  0  0  0  0  0
  -14.5283   -8.2682   -0.5994 C   0  0  1  0  0  0  0  0  0  0  0  0
  -15.9472   -8.3345   -0.5166 O   0  0  0  0  0  0  0  0  0  0  0  0
  -14.0350   -9.2679   -1.6634 C   0  0  2  0  0  0  0  0  0  0  0  0
  -12.9727  -10.2202   -1.2131 C   0  0  0  0  0  0  0  0  0  0  0  0
  -12.4066  -10.3421    0.0229 C   0  0  0  0  0  0  0  0  0  0  0  0
  -11.3691  -11.2326   -0.0196 N   0  0  0  0  0  0  0  0  0  0  0  0
  -11.2486  -11.7113   -1.3017 C   0  0  0  0  0  0  0  0  0  0  0  0
  -10.4109  -12.6072   -1.9850 C   0  0  0  0  0  0  0  0  0  0  0  0
   -9.4085  -13.1251   -1.3468 O   0  0  0  0  0  0  0  0  0  0  0  0
  -10.6063  -12.9164   -3.2923 N   0  0  0  0  0  0  0  0  0  0  0  0
  -11.6284  -12.3242   -3.9577 C   0  0  0  0  0  0  0  0  0  0  0  0
  -12.4598  -11.4142   -3.3930 N   0  0  0  0  0  0  0  0  0  0  0  0
  -12.2534  -11.1180   -2.0847 C   0  0  0  0  0  0  0  0  0  0  0  0
   -9.8456   -7.7186   -2.5585 H   0  0  0  0  0  0  0  0  0  0  0  0
  -11.4328   -7.9463   -0.9949 H   0  0  0  0  0  0  0  0  0  0  0  0
  -11.3175   -6.1829   -1.3339 H   0  0  0  0  0  0  0  0  0  0  0  0
  -13.0090   -6.3395   -2.9338 H   0  0  0  0  0  0  0  0  0  0  0  0
  -14.2573   -8.2582   -3.4350 H   0  0  0  0  0  0  0  0  0  0  0  0
  -12.7296   -8.9222   -3.2080 H   0  0  0  0  0  0  0  0  0  0  0  0
  -13.5816   -6.3159   -0.2558 H   0  0  0  0  0  0  0  0  0  0  0  0
  -15.6200   -5.7201   -0.7392 H   0  0  0  0  0  0  0  0  0  0  0  0
  -14.1391   -8.4850    0.4063 H   0  0  0  0  0  0  0  0  0  0  0  0
  -16.2219   -8.3474    0.4344 H   0  0  0  0  0  0  0  0  0  0  0  0
  -14.8747   -9.9203   -1.9450 H   0  0  0  0  0  0  0  0  0  0  0  0
  -12.7369   -9.8025    0.9227 H   0  0  0  0  0  0  0  0  0  0  0  0
  -10.7756  -11.5003    0.7786 H   0  0  0  0  0  0  0  0  0  0  0  0
   -8.8033  -13.7594   -1.8067 H   0  0  0  0  0  0  0  0  0  0  0  0
  -11.7917  -12.5963   -5.0110 H   0  0  0  0  0  0  0  0  0  0  0  0
  1  2  1  0
  3  2  1  0
  3  4  1  0
  3  5  1  0
  4  9  1  0
  5  6  1  0
  5  7  1  0
  7  8  1  0
  7  9  1  0
  9 10  1  0
 10 11  2  0
 10 19  1  0
 11 12  1  0
 12 13  1  0
 13 14  2  0
 13 19  1  0
 14 15  1  0
 14 16  1  0
 16 17  2  0
 17 18  1  0
 18 19  2  0
  1 20  1  0
  2 21  1  0
  2 22  1  0
  3 23  1  6
  4 24  1  0
  4 25  1  0
  5 26  1  1
  6 27  1  0
  7 28  1  1
  8 29  1  0
  9 30  1  6
 11 31  1  0
 12 32  1  0
 15 33  1  0
 17 34  1  0
M  CHG  1   4   1
M  END
>  <filename_input>  (8) 
6ZK5_IMH_docked.sdf

>  <pdb_id>  (8) 
6ZK5_IMH

>  <pose_rank>  (8) 
7

>  <num_atoms_heavy>  (8) 
19

>  <num_torsions>  (8) 
2

>  <pose>  (8) 
[-12.972705672563691, -10.220176700888969, -1.2130668945720213, 5.366683374896419, 1.5261180582143234, 2.3986860181237883, -0.11106852983313488, 0.26358116490096584]

>  <energy>  (8) 
-820.690134365709

>  <inter_energy>  (8) 
-819.8819351698118

>  <intra_energy>  (8) 
4.368589629285839

>  <rmsd>  (8) 
0.573471

>  <sdf_rank>  (8) 
0

$$$$

     RDKit          3D

 34 36  0  0  0  0  0  0  0  0999 V2000
  -11.8336  -11.9173    0.4422 O   0  0  0  0  0  0  0  0  0  0  0  0
  -10.7817  -11.6145   -0.4718 C   0  0  0  0  0  0  0  0  0  0  0  0
  -10.9651  -12.4124   -1.7550 C   0  0  1  0  0  0  0  0  0  0  0  0
  -12.3766  -12.6282   -2.1344 N   0  0  0  0  0  0  0  0  0  0  0  0
  -10.3838  -11.7633   -3.0112 C   0  0  1  0  0  0  0  0  0  0  0  0
   -9.8110  -12.7246   -3.8905 O   0  0  0  0  0  0  0  0  0  0  0  0
  -11.5533  -11.0147   -3.6811 C   0  0  1  0  0  0  0  0  0  0  0  0
  -11.6405  -11.3053   -5.0712 O   0  0  0  0  0  0  0  0  0  0  0  0
  -12.8272  -11.5197   -2.9763 C   0  0  2  0  0  0  0  0  0  0  0  0
  -13.5404  -10.5132   -2.1299 C   0  0  0  0  0  0  0  0  0  0  0  0
  -14.7849  -10.5955   -1.5755 C   0  0  0  0  0  0  0  0  0  0  0  0
  -15.1234   -9.4027   -0.9975 N   0  0  0  0  0  0  0  0  0  0  0  0
  -14.0859   -8.5181   -1.1675 C   0  0  0  0  0  0  0  0  0  0  0  0
  -13.8157   -7.1815   -0.8336 C   0  0  0  0  0  0  0  0  0  0  0  0
  -14.7534   -6.4825   -0.2745 O   0  0  0  0  0  0  0  0  0  0  0  0
  -12.6190   -6.6019   -1.1071 N   0  0  0  0  0  0  0  0  0  0  0  0
  -11.6688   -7.3332   -1.7400 C   0  0  0  0  0  0  0  0  0  0  0  0
  -11.8557   -8.6151   -2.1401 N   0  0  0  0  0  0  0  0  0  0  0  0
  -13.0562   -9.1812   -1.8566 C   0  0  0  0  0  0  0  0  0  0  0  0
  -11.5021  -11.8219    1.3701 H   0  0  0  0  0  0  0  0  0  0  0  0
  -10.7992  -10.5396   -0.7050 H   0  0  0  0  0  0  0  0  0  0  0  0
   -9.8170  -11.8800   -0.0148 H   0  0  0  0  0  0  0  0  0  0  0  0
  -10.4398  -13.3398   -1.4830 H   0  0  0  0  0  0  0  0  0  0  0  0
  -12.4612  -13.5124   -2.6557 H   0  0  0  0  0  0  0  0  0  0  0  0
  -12.9582  -12.6746   -1.2856 H   0  0  0  0  0  0  0  0  0  0  0  0
   -9.5627  -11.0781   -2.7539 H   0  0  0  0  0  0  0  0  0  0  0  0
   -9.3830  -13.4429   -3.3605 H   0  0  0  0  0  0  0  0  0  0  0  0
  -11.4149   -9.9273   -3.5902 H   0  0  0  0  0  0  0  0  0  0  0  0
  -11.9231  -12.2461   -5.1945 H   0  0  0  0  0  0  0  0  0  0  0  0
  -13.5660  -11.7924   -3.7443 H   0  0  0  0  0  0  0  0  0  0  0  0
  -15.4233  -11.4912   -1.5912 H   0  0  0  0  0  0  0  0  0  0  0  0
  -16.0103   -9.2008   -0.5143 H   0  0  0  0  0  0  0  0  0  0  0  0
  -14.5874   -5.5378   -0.0296 H   0  0  0  0  0  0  0  0  0  0  0  0
  -10.6950   -6.8619   -1.9392 H   0  0  0  0  0  0  0  0  0  0  0  0
  1  2  1  0
  3  2  1  0
  3  4  1  0
  3  5  1  0
  4  9  1  0
  5  6  1  0
  5  7  1  0
  7  8  1  0
  7  9  1  0
  9 10  1  0
 10 11  2  0
 10 19  1  0
 11 12  1  0
 12 13  1  0
 13 14  2  0
 13 19  1  0
 14 15  1  0
 14 16  1  0
 16 17  2  0
 17 18  1  0
 18 19  2  0
  1 20  1  0
  2 21  1  0
  2 22  1  0
  3 23  1  1
  4 24  1  0
  4 25  1  0
  5 26  1  1
  6 27  1  0
  7 28  1  6
  8 29  1  0
  9 30  1  6
 11 31  1  0
 12 32  1  0
 15 33  1  0
 17 34  1  0
M  CHG  1   4   1
M  END
>  <filename_input>  (9) 
6ZK5_IMH_docked.sdf

>  <pdb_id>  (9) 
6ZK5_IMH

>  <pose_rank>  (9) 
8

>  <num_atoms_heavy>  (9) 
19

>  <num_torsions>  (9) 
2

>  <pose>  (9) 
[-13.540427533645875, -10.51318676058922, -2.1299136089265738, 1.188291563572643, 2.1140091503561638, -2.94449316402343, -3.4911153868716625, -0.21465280572463813]

>  <energy>  (9) 
-636.773983410447

>  <inter_energy>  (9) 
-662.4049965299835

>  <intra_energy>  (9) 
23.943806095022993

>  <rmsd>  (9) 
5.44706

>  <sdf_rank>  (9) 
0

$$$$

     RDKit          3D

 34 36  0  0  0  0  0  0  0  0999 V2000
  -10.3245  -11.9349    0.3122 O   0  0  0  0  0  0  0  0  0  0  0  0
  -10.1573  -11.3629   -0.9834 C   0  0  0  0  0  0  0  0  0  0  0  0
  -10.7915  -12.2644   -2.0331 C   0  0  1  0  0  0  0  0  0  0  0  0
  -12.2031  -11.9445   -2.3293 N   0  0  0  0  0  0  0  0  0  0  0  0
  -10.1445  -12.2035   -3.4169 C   0  0  1  0  0  0  0  0  0  0  0  0
  -10.1121  -13.4797   -4.0459 O   0  0  0  0  0  0  0  0  0  0  0  0
  -10.9802  -11.1960   -4.2314 C   0  0  1  0  0  0  0  0  0  0  0  0
  -11.3345  -11.7129   -5.5087 O   0  0  0  0  0  0  0  0  0  0  0  0
  -12.2605  -10.9574   -3.4077 C   0  0  2  0  0  0  0  0  0  0  0  0
  -12.4058   -9.5895   -2.8196 C   0  0  0  0  0  0  0  0  0  0  0  0
  -11.5161   -8.5546   -2.8405 C   0  0  0  0  0  0  0  0  0  0  0  0
  -11.9712   -7.5259   -2.0620 N   0  0  0  0  0  0  0  0  0  0  0  0
  -13.1826   -7.8825   -1.5207 C   0  0  0  0  0  0  0  0  0  0  0  0
  -14.1292   -7.3036   -0.6606 C   0  0  0  0  0  0  0  0  0  0  0  0
  -13.8548   -6.1571   -0.1216 O   0  0  0  0  0  0  0  0  0  0  0  0
  -15.2987   -7.9240   -0.3598 N   0  0  0  0  0  0  0  0  0  0  0  0
  -15.5448   -9.1466   -0.8915 C   0  0  0  0  0  0  0  0  0  0  0  0
  -14.6711   -9.8016   -1.6950 N   0  0  0  0  0  0  0  0  0  0  0  0
  -13.5079   -9.1670   -1.9888 C   0  0  0  0  0  0  0  0  0  0  0  0
  -10.1253  -11.2533    1.0020 H   0  0  0  0  0  0  0  0  0  0  0  0
  -10.6403  -10.3749   -1.0110 H   0  0  0  0  0  0  0  0  0  0  0  0
   -9.0834  -11.2577   -1.1971 H   0  0  0  0  0  0  0  0  0  0  0  0
  -10.6579  -13.2448   -1.5525 H   0  0  0  0  0  0  0  0  0  0  0  0
  -12.6960  -12.8008   -2.6204 H   0  0  0  0  0  0  0  0  0  0  0  0
  -12.6536  -11.5604   -1.4864 H   0  0  0  0  0  0  0  0  0  0  0  0
   -9.0933  -11.8878   -3.3442 H   0  0  0  0  0  0  0  0  0  0  0  0
  -10.0942  -14.1880   -3.3545 H   0  0  0  0  0  0  0  0  0  0  0  0
  -10.4054  -10.2749   -4.4077 H   0  0  0  0  0  0  0  0  0  0  0  0
  -11.8905  -12.5240   -5.3939 H   0  0  0  0  0  0  0  0  0  0  0  0
  -13.1286  -11.0526   -4.0767 H   0  0  0  0  0  0  0  0  0  0  0  0
  -10.5702   -8.5487   -3.4019 H   0  0  0  0  0  0  0  0  0  0  0  0
  -11.4854   -6.6310   -1.9070 H   0  0  0  0  0  0  0  0  0  0  0  0
  -14.5061   -5.7284    0.4885 H   0  0  0  0  0  0  0  0  0  0  0  0
  -16.5038   -9.6327   -0.6587 H   0  0  0  0  0  0  0  0  0  0  0  0
  1  2  1  0
  3  2  1  0
  3  4  1  0
  3  5  1  0
  4  9  1  0
  5  6  1  0
  5  7  1  0
  7  8  1  0
  7  9  1  0
  9 10  1  0
 10 11  2  0
 10 19  1  0
 11 12  1  0
 12 13  1  0
 13 14  2  0
 13 19  1  0
 14 15  1  0
 14 16  1  0
 16 17  2  0
 17 18  1  0
 18 19  2  0
  1 20  1  0
  2 21  1  0
  2 22  1  0
  3 23  1  1
  4 24  1  0
  4 25  1  0
  5 26  1  1
  6 27  1  0
  7 28  1  6
  8 29  1  0
  9 30  1  6
 11 31  1  0
 12 32  1  0
 15 33  1  0
 17 34  1  0
M  CHG  1   4   1
M  END
>  <filename_input>  (10) 
6ZK5_IMH_docked.sdf

>  <pdb_id>  (10) 
6ZK5_IMH

>  <pose_rank>  (10) 
9

>  <num_atoms_heavy>  (10) 
19

>  <num_torsions>  (10) 
2

>  <pose>  (10) 
[-12.405820593371523, -9.589457342107398, -2.819610299433017, -2.3571445617075293, -1.06907754475737, -1.6812941512596011, -0.22612464008049657, 0.7802228978186699]

>  <energy>  (10) 
-669.0882568268216

>  <inter_energy>  (10) 
-673.9524057738913

>  <intra_energy>  (10) 
3.0578282497832543

>  <rmsd>  (10) 
5.67925

>  <sdf_rank>  (10) 
0

$$$$

     RDKit          3D

 34 36  0  0  0  0  0  0  0  0999 V2000
  -11.6571  -12.3235   -8.0925 O   0  0  0  0  0  0  0  0  0  0  0  0
  -11.8336  -12.5024   -6.6888 C   0  0  0  0  0  0  0  0  0  0  0  0
  -10.4898  -12.4009   -5.9810 C   0  0  1  0  0  0  0  0  0  0  0  0
  -10.3036  -11.1499   -5.2173 N   0  0  0  0  0  0  0  0  0  0  0  0
  -10.2319  -13.4727   -4.9219 C   0  0  1  0  0  0  0  0  0  0  0  0
   -8.8729  -13.8950   -4.9120 O   0  0  0  0  0  0  0  0  0  0  0  0
  -10.6348  -12.8421   -3.5740 C   0  0  1  0  0  0  0  0  0  0  0  0
   -9.6312  -13.0266   -2.5825 O   0  0  0  0  0  0  0  0  0  0  0  0
  -10.8005  -11.3358   -3.8538 C   0  0  2  0  0  0  0  0  0  0  0  0
  -12.1981  -10.8104   -3.7602 C   0  0  0  0  0  0  0  0  0  0  0  0
  -13.2626  -11.0724   -4.5732 C   0  0  0  0  0  0  0  0  0  0  0  0
  -14.3230  -10.2781   -4.2324 N   0  0  0  0  0  0  0  0  0  0  0  0
  -13.9571   -9.4809   -3.1749 C   0  0  0  0  0  0  0  0  0  0  0  0
  -14.5556   -8.4803   -2.3927 C   0  0  0  0  0  0  0  0  0  0  0  0
  -15.7453   -8.0759   -2.7111 O   0  0  0  0  0  0  0  0  0  0  0  0
  -13.9123   -7.9115   -1.3413 N   0  0  0  0  0  0  0  0  0  0  0  0
  -12.6482   -8.3101   -1.0559 C   0  0  0  0  0  0  0  0  0  0  0  0
  -11.9749   -9.2361   -1.7821 N   0  0  0  0  0  0  0  0  0  0  0  0
  -12.6326   -9.7976   -2.8281 C   0  0  0  0  0  0  0  0  0  0  0  0
  -10.9712  -11.6279   -8.2529 H   0  0  0  0  0  0  0  0  0  0  0  0
  -12.5084  -11.7237   -6.3038 H   0  0  0  0  0  0  0  0  0  0  0  0
  -12.2673  -13.4958   -6.5019 H   0  0  0  0  0  0  0  0  0  0  0  0
   -9.8105  -12.4920   -6.8413 H   0  0  0  0  0  0  0  0  0  0  0  0
   -9.3023  -10.9103   -5.1886 H   0  0  0  0  0  0  0  0  0  0  0  0
  -10.8248  -10.3873   -5.6729 H   0  0  0  0  0  0  0  0  0  0  0  0
  -10.8173  -14.3800   -5.1320 H   0  0  0  0  0  0  0  0  0  0  0  0
   -8.5640  -13.9910   -3.9763 H   0  0  0  0  0  0  0  0  0  0  0  0
  -11.5529  -13.3109   -3.1904 H   0  0  0  0  0  0  0  0  0  0  0  0
  -10.0381  -12.9518   -1.6831 H   0  0  0  0  0  0  0  0  0  0  0  0
  -10.2536  -10.7752   -3.0813 H   0  0  0  0  0  0  0  0  0  0  0  0
  -13.2673  -11.8148   -5.3849 H   0  0  0  0  0  0  0  0  0  0  0  0
  -15.2443  -10.2777   -4.6929 H   0  0  0  0  0  0  0  0  0  0  0  0
  -16.1885   -7.3714   -2.1751 H   0  0  0  0  0  0  0  0  0  0  0  0
  -12.1424   -7.8584   -0.1898 H   0  0  0  0  0  0  0  0  0  0  0  0
  1  2  1  0
  3  2  1  0
  3  4  1  0
  3  5  1  0
  4  9  1  0
  5  6  1  0
  5  7  1  0
  7  8  1  0
  7  9  1  0
  9 10  1  0
 10 11  2  0
 10 19  1  0
 11 12  1  0
 12 13  1  0
 13 14  2  0
 13 19  1  0
 14 15  1  0
 14 16  1  0
 16 17  2  0
 17 18  1  0
 18 19  2  0
  1 20  1  0
  2 21  1  0
  2 22  1  0
  3 23  1  6
  4 24  1  0
  4 25  1  0
  5 26  1  6
  6 27  1  0
  7 28  1  1
  8 29  1  0
  9 30  1  1
 11 31  1  0
 12 32  1  0
 15 33  1  0
 17 34  1  0
M  CHG  1   4   1
M  END
>  <filename_input>  (11) 
6ZK5_IMH_docked.sdf

>  <pdb_id>  (11) 
6ZK5_IMH

>  <pose_rank>  (11) 
10

>  <num_atoms_heavy>  (11) 
19

>  <num_torsions>  (11) 
2

>  <pose>  (11) 
[-12.198141742363127, -10.810389092625178, -3.7601784373896256, -1.436142863929742, -2.433234598652862, 1.2020636136503904, 11.23978205833258, 1.0523269985927148]

>  <energy>  (11) 
-462.6271587306047

>  <inter_energy>  (11) 
-490.87381259346364

>  <intra_energy>  (11) 
28.157068954263266

>  <rmsd>  (11) 
6.23511

>  <sdf_rank>  (11) 
0

$$$$

     RDKit          3D

 34 36  0  0  0  0  0  0  0  0999 V2000
   -7.9491  -10.3372   -0.2785 O   0  0  0  0  0  0  0  0  0  0  0  0
   -7.2038   -9.2380    0.2409 C   0  0  0  0  0  0  0  0  0  0  0  0
   -6.2087   -8.7485   -0.8017 C   0  0  1  0  0  0  0  0  0  0  0  0
   -5.7580   -7.3562   -0.5982 N   0  0  0  0  0  0  0  0  0  0  0  0
   -4.8878   -9.5168   -0.8489 C   0  0  1  0  0  0  0  0  0  0  0  0
   -4.4083   -9.6696   -2.1801 O   0  0  0  0  0  0  0  0  0  0  0  0
   -3.8982   -8.7115    0.0165 C   0  0  1  0  0  0  0  0  0  0  0  0
   -2.6596   -8.5024   -0.6518 O   0  0  0  0  0  0  0  0  0  0  0  0
   -4.5767   -7.3504    0.2649 C   0  0  2  0  0  0  0  0  0  0  0  0
   -4.9959   -7.0845    1.6762 C   0  0  0  0  0  0  0  0  0  0  0  0
   -6.0687   -6.3705    2.1258 C   0  0  0  0  0  0  0  0  0  0  0  0
   -6.0127   -6.2419    3.4866 N   0  0  0  0  0  0  0  0  0  0  0  0
   -4.8885   -6.8842    3.9461 C   0  0  0  0  0  0  0  0  0  0  0  0
   -4.2720   -7.1054    5.1879 C   0  0  0  0  0  0  0  0  0  0  0  0
   -4.7781   -6.5396    6.2386 O   0  0  0  0  0  0  0  0  0  0  0  0
   -3.1531   -7.8648    5.3078 N   0  0  0  0  0  0  0  0  0  0  0  0
   -2.6078   -8.4052    4.1903 C   0  0  0  0  0  0  0  0  0  0  0  0
   -3.1074   -8.2090    2.9452 N   0  0  0  0  0  0  0  0  0  0  0  0
   -4.2279   -7.4501    2.8423 C   0  0  0  0  0  0  0  0  0  0  0  0
   -8.3124  -10.8730    0.4705 H   0  0  0  0  0  0  0  0  0  0  0  0
   -7.8924   -8.4204    0.5002 H   0  0  0  0  0  0  0  0  0  0  0  0
   -6.6575   -9.5627    1.1387 H   0  0  0  0  0  0  0  0  0  0  0  0
   -6.8040   -8.8849   -1.7166 H   0  0  0  0  0  0  0  0  0  0  0  0
   -5.5214   -6.9350   -1.5078 H   0  0  0  0  0  0  0  0  0  0  0  0
   -6.5114   -6.8116   -0.1547 H   0  0  0  0  0  0  0  0  0  0  0  0
   -5.0160  -10.5400   -0.4661 H   0  0  0  0  0  0  0  0  0  0  0  0
   -3.4652   -9.9701   -2.1586 H   0  0  0  0  0  0  0  0  0  0  0  0
   -3.6720   -9.2543    0.9461 H   0  0  0  0  0  0  0  0  0  0  0  0
   -1.9401   -8.3809    0.0172 H   0  0  0  0  0  0  0  0  0  0  0  0
   -3.8497   -6.5536    0.0491 H   0  0  0  0  0  0  0  0  0  0  0  0
   -6.8632   -5.9581    1.4865 H   0  0  0  0  0  0  0  0  0  0  0  0
   -6.7005   -5.7452    4.0707 H   0  0  0  0  0  0  0  0  0  0  0  0
   -4.3615   -6.6802    7.1257 H   0  0  0  0  0  0  0  0  0  0  0  0
   -1.7132   -9.0358    4.2994 H   0  0  0  0  0  0  0  0  0  0  0  0
  1  2  1  0
  3  2  1  0
  3  4  1  0
  3  5  1  0
  4  9  1  0
  5  6  1  0
  5  7  1  0
  7  8  1  0
  7  9  1  0
  9 10  1  0
 10 11  2  0
 10 19  1  0
 11 12  1  0
 12 13  1  0
 13 14  2  0
 13 19  1  0
 14 15  1  0
 14 16  1  0
 16 17  2  0
 17 18  1  0
 18 19  2  0
  1 20  1  0
  2 21  1  0
  2 22  1  0
  3 23  1  6
  4 24  1  0
  4 25  1  0
  5 26  1  1
  6 27  1  0
  7 28  1  1
  8 29  1  0
  9 30  1  6
 11 31  1  0
 12 32  1  0
 15 33  1  0
 17 34  1  0
M  CHG  1   4   1
M  END
>  <filename_input>  (12) 
6ZK5_IMH_docked.sdf

>  <pdb_id>  (12) 
6ZK5_IMH

>  <pose_rank>  (12) 
11

>  <num_atoms_heavy>  (12) 
19

>  <num_torsions>  (12) 
2

>  <pose>  (12) 
[-4.995897530255598, -7.084530382688053, 1.67622390424392, 2.426966276260372, 3.7584461465072985, -0.533021677150169, -2.708957785740512, 1.949526973616901]

>  <energy>  (12) 
-165.85644066882622

>  <inter_energy>  (12) 
-169.01951128537604

>  <intra_energy>  (12) 
12.775128572774237

>  <rmsd>  (12) 
10.1326

>  <sdf_rank>  (12) 
0

$$$$

     RDKit          3D

 34 36  0  0  0  0  0  0  0  0999 V2000
  -18.4530  -19.6058   -0.3388 O   0  0  0  0  0  0  0  0  0  0  0  0
  -18.9927  -18.2904   -0.4479 C   0  0  0  0  0  0  0  0  0  0  0  0
  -20.2967  -18.3293   -1.2322 C   0  0  1  0  0  0  0  0  0  0  0  0
  -21.5088  -18.3224   -0.3875 N   0  0  0  0  0  0  0  0  0  0  0  0
  -20.5342  -17.1342   -2.1556 C   0  0  1  0  0  0  0  0  0  0  0  0
  -21.1637  -17.5189   -3.3726 O   0  0  0  0  0  0  0  0  0  0  0  0
  -21.4098  -16.1487   -1.3563 C   0  0  1  0  0  0  0  0  0  0  0  0
  -22.5248  -15.6960   -2.1155 O   0  0  0  0  0  0  0  0  0  0  0  0
  -21.9157  -16.9400   -0.1346 C   0  0  2  0  0  0  0  0  0  0  0  0
  -21.3768  -16.4996    1.1897 C   0  0  0  0  0  0  0  0  0  0  0  0
  -20.4747  -15.5105    1.4557 C   0  0  0  0  0  0  0  0  0  0  0  0
  -20.1361  -15.5252    2.7811 N   0  0  0  0  0  0  0  0  0  0  0  0
  -20.8274  -16.5362    3.4035 C   0  0  0  0  0  0  0  0  0  0  0  0
  -20.9187  -17.0658    4.7006 C   0  0  0  0  0  0  0  0  0  0  0  0
  -20.1335  -16.5935    5.6175 O   0  0  0  0  0  0  0  0  0  0  0  0
  -21.7789  -18.0706    5.0059 N   0  0  0  0  0  0  0  0  0  0  0  0
  -22.5546  -18.5879    4.0215 C   0  0  0  0  0  0  0  0  0  0  0  0
  -22.5026  -18.1709    2.7324 N   0  0  0  0  0  0  0  0  0  0  0  0
  -21.6400  -17.1637    2.4439 C   0  0  0  0  0  0  0  0  0  0  0  0
  -18.3552  -19.8442    0.6171 H   0  0  0  0  0  0  0  0  0  0  0  0
  -19.1842  -17.8900    0.5586 H   0  0  0  0  0  0  0  0  0  0  0  0
  -18.2729  -17.6459   -0.9736 H   0  0  0  0  0  0  0  0  0  0  0  0
  -20.1591  -19.2672   -1.7902 H   0  0  0  0  0  0  0  0  0  0  0  0
  -22.2685  -18.8212   -0.8721 H   0  0  0  0  0  0  0  0  0  0  0  0
  -21.3079  -18.7915    0.5072 H   0  0  0  0  0  0  0  0  0  0  0  0
  -19.5806  -16.6739   -2.4536 H   0  0  0  0  0  0  0  0  0  0  0  0
  -21.9908  -18.0242   -3.1709 H   0  0  0  0  0  0  0  0  0  0  0  0
  -20.8286  -15.2569   -1.0794 H   0  0  0  0  0  0  0  0  0  0  0  0
  -23.2448  -15.4036   -1.5022 H   0  0  0  0  0  0  0  0  0  0  0  0
  -23.0011  -16.7861   -0.0442 H   0  0  0  0  0  0  0  0  0  0  0  0
  -20.0774  -14.8039    0.7121 H   0  0  0  0  0  0  0  0  0  0  0  0
  -19.4719  -14.8837    3.2374 H   0  0  0  0  0  0  0  0  0  0  0  0
  -20.1787  -16.9505    6.5398 H   0  0  0  0  0  0  0  0  0  0  0  0
  -23.2632  -19.3877    4.2824 H   0  0  0  0  0  0  0  0  0  0  0  0
  1  2  1  0
  3  2  1  0
  3  4  1  0
  3  5  1  0
  4  9  1  0
  5  6  1  0
  5  7  1  0
  7  8  1  0
  7  9  1  0
  9 10  1  0
 10 11  2  0
 10 19  1  0
 11 12  1  0
 12 13  1  0
 13 14  2  0
 13 19  1  0
 14 15  1  0
 14 16  1  0
 16 17  2  0
 17 18  1  0
 18 19  2  0
  1 20  1  0
  2 21  1  0
  2 22  1  0
  3 23  1  6
  4 24  1  0
  4 25  1  0
  5 26  1  6
  6 27  1  0
  7 28  1  1
  8 29  1  0
  9 30  1  1
 11 31  1  0
 12 32  1  0
 15 33  1  0
 17 34  1  0
M  CHG  1   4   1
M  END
>  <filename_input>  (13) 
6ZK5_IMH_docked.sdf

>  <pdb_id>  (13) 
6ZK5_IMH

>  <pose_rank>  (13) 
12

>  <num_atoms_heavy>  (13) 
19

>  <num_torsions>  (13) 
2

>  <pose>  (13) 
[-21.376768146793495, -16.499578312259676, 1.1897048961448535, 3.7801082570632154, 0.3914445741896647, 1.6318100531282678, -0.17024710343945618, 0.9137260336151748]

>  <energy>  (13) 
-167.15593272180632

>  <inter_energy>  (13) 
-168.49553010584825

>  <intra_energy>  (13) 
3.5400113380867553

>  <rmsd>  (13) 
12.6308

>  <sdf_rank>  (13) 
0

$$$$

     RDKit          3D

 34 36  0  0  0  0  0  0  0  0999 V2000
  -16.3275  -15.9055    8.2949 O   0  0  0  0  0  0  0  0  0  0  0  0
  -15.6052  -16.1715    7.0945 C   0  0  0  0  0  0  0  0  0  0  0  0
  -14.8576  -17.4913    7.2218 C   0  0  1  0  0  0  0  0  0  0  0  0
  -15.4869  -18.6133    6.4953 N   0  0  0  0  0  0  0  0  0  0  0  0
  -13.4376  -17.4897    6.6554 C   0  0  1  0  0  0  0  0  0  0  0  0
  -12.5469  -18.2650    7.4496 O   0  0  0  0  0  0  0  0  0  0  0  0
  -13.5514  -18.0534    5.2250 C   0  0  1  0  0  0  0  0  0  0  0  0
  -12.5873  -19.0704    4.9787 O   0  0  0  0  0  0  0  0  0  0  0  0
  -14.9647  -18.6603    5.1294 C   0  0  2  0  0  0  0  0  0  0  0  0
  -15.9119  -17.9529    4.2126 C   0  0  0  0  0  0  0  0  0  0  0  0
  -15.6669  -16.8942    3.3867 C   0  0  0  0  0  0  0  0  0  0  0  0
  -16.8346  -16.4521    2.8280 N   0  0  0  0  0  0  0  0  0  0  0  0
  -17.8683  -17.2321    3.2870 C   0  0  0  0  0  0  0  0  0  0  0  0
  -19.2601  -17.2926    3.1127 C   0  0  0  0  0  0  0  0  0  0  0  0
  -19.8347  -16.3719    2.4038 O   0  0  0  0  0  0  0  0  0  0  0  0
  -20.0132  -18.2646    3.6880 N   0  0  0  0  0  0  0  0  0  0  0  0
  -19.4012  -19.1883    4.4693 C   0  0  0  0  0  0  0  0  0  0  0  0
  -18.0707  -19.1826    4.7304 N   0  0  0  0  0  0  0  0  0  0  0  0
  -17.3312  -18.2065    4.1454 C   0  0  0  0  0  0  0  0  0  0  0  0
  -15.7573  -16.1155    9.0765 H   0  0  0  0  0  0  0  0  0  0  0  0
  -16.3087  -16.2307    6.2510 H   0  0  0  0  0  0  0  0  0  0  0  0
  -14.8823  -15.3611    6.9194 H   0  0  0  0  0  0  0  0  0  0  0  0
  -14.8711  -17.6168    8.3145 H   0  0  0  0  0  0  0  0  0  0  0  0
  -15.2716  -19.4983    6.9764 H   0  0  0  0  0  0  0  0  0  0  0  0
  -16.5076  -18.4777    6.4694 H   0  0  0  0  0  0  0  0  0  0  0  0
  -13.0174  -16.4731    6.6545 H   0  0  0  0  0  0  0  0  0  0  0  0
  -12.7333  -18.1028    8.4083 H   0  0  0  0  0  0  0  0  0  0  0  0
  -13.3744  -17.2594    4.4846 H   0  0  0  0  0  0  0  0  0  0  0  0
  -12.2526  -19.4235    5.8409 H   0  0  0  0  0  0  0  0  0  0  0  0
  -14.8827  -19.6695    4.6997 H   0  0  0  0  0  0  0  0  0  0  0  0
  -14.6742  -16.4596    3.1977 H   0  0  0  0  0  0  0  0  0  0  0  0
  -16.9242  -15.6638    2.1711 H   0  0  0  0  0  0  0  0  0  0  0  0
  -20.8149  -16.3926    2.2663 H   0  0  0  0  0  0  0  0  0  0  0  0
  -20.0163  -19.9841    4.9147 H   0  0  0  0  0  0  0  0  0  0  0  0
  1  2  1  0
  3  2  1  0
  3  4  1  0
  3  5  1  0
  4  9  1  0
  5  6  1  0
  5  7  1  0
  7  8  1  0
  7  9  1  0
  9 10  1  0
 10 11  2  0
 10 19  1  0
 11 12  1  0
 12 13  1  0
 13 14  2  0
 13 19  1  0
 14 15  1  0
 14 16  1  0
 16 17  2  0
 17 18  1  0
 18 19  2  0
  1 20  1  0
  2 21  1  0
  2 22  1  0
  3 23  1  1
  4 24  1  0
  4 25  1  0
  5 26  1  6
  6 27  1  0
  7 28  1  6
  8 29  1  0
  9 30  1  6
 11 31  1  0
 12 32  1  0
 15 33  1  0
 17 34  1  0
M  CHG  1   4   1
M  END
>  <filename_input>  (14) 
6ZK5_IMH_docked.sdf

>  <pdb_id>  (14) 
6ZK5_IMH

>  <pose_rank>  (14) 
13

>  <num_atoms_heavy>  (14) 
19

>  <num_torsions>  (14) 
2

>  <pose>  (14) 
[-15.911852276806934, -17.952898390883817, 4.212596844678752, 0.9949259313249771, 2.1745003032473256, 1.2775893384142705, -0.06192108681410027, 0.9954251986684407]

>  <energy>  (14) 
-144.86426981299076

>  <inter_energy>  (14) 
-145.2788321344886

>  <intra_energy>  (14) 
5.295577031857511

>  <rmsd>  (14) 
12.3262

>  <sdf_rank>  (14) 
0

$$$$

     RDKit          3D

 34 36  0  0  0  0  0  0  0  0999 V2000
   -6.9890   -0.3202  -11.7633 O   0  0  0  0  0  0  0  0  0  0  0  0
   -7.6440    0.5108  -10.8073 C   0  0  0  0  0  0  0  0  0  0  0  0
   -7.1336    0.1929   -9.4090 C   0  0  1  0  0  0  0  0  0  0  0  0
   -8.2021   -0.0289   -8.4130 N   0  0  0  0  0  0  0  0  0  0  0  0
   -6.3087   -1.0892   -9.2954 C   0  0  1  0  0  0  0  0  0  0  0  0
   -5.2309   -0.9490   -8.3767 O   0  0  0  0  0  0  0  0  0  0  0  0
   -7.2924   -2.1875   -8.8451 C   0  0  1  0  0  0  0  0  0  0  0  0
   -6.7824   -2.9375   -7.7488 O   0  0  0  0  0  0  0  0  0  0  0  0
   -8.5683   -1.4454   -8.4021 C   0  0  2  0  0  0  0  0  0  0  0  0
   -9.7706   -1.6526   -9.2679 C   0  0  0  0  0  0  0  0  0  0  0  0
   -9.8733   -2.3681  -10.4256 C   0  0  0  0  0  0  0  0  0  0  0  0
  -11.1082   -2.1849  -10.9850 N   0  0  0  0  0  0  0  0  0  0  0  0
  -11.8363   -1.3391  -10.1838 C   0  0  0  0  0  0  0  0  0  0  0  0
  -13.1181   -0.7666  -10.1984 C   0  0  0  0  0  0  0  0  0  0  0  0
  -13.8739   -0.9697  -11.2317 O   0  0  0  0  0  0  0  0  0  0  0  0
  -13.5677    0.0111   -9.1805 N   0  0  0  0  0  0  0  0  0  0  0  0
  -12.7432    0.2557   -8.1323 C   0  0  0  0  0  0  0  0  0  0  0  0
  -11.4750   -0.2171   -8.0531 N   0  0  0  0  0  0  0  0  0  0  0  0
  -11.0414   -0.9954   -9.0770 C   0  0  0  0  0  0  0  0  0  0  0  0
   -6.4500   -1.0039  -11.2920 H   0  0  0  0  0  0  0  0  0  0  0  0
   -7.4384    1.5661  -11.0395 H   0  0  0  0  0  0  0  0  0  0  0  0
   -8.7275    0.3255  -10.8482 H   0  0  0  0  0  0  0  0  0  0  0  0
   -6.5341    1.0939   -9.2122 H   0  0  0  0  0  0  0  0  0  0  0  0
   -7.8645    0.2461   -7.4795 H   0  0  0  0  0  0  0  0  0  0  0  0
   -9.0259    0.5380   -8.6595 H   0  0  0  0  0  0  0  0  0  0  0  0
   -5.8398   -1.3399  -10.2584 H   0  0  0  0  0  0  0  0  0  0  0  0
   -5.5785   -0.9942   -7.4508 H   0  0  0  0  0  0  0  0  0  0  0  0
   -7.4726   -2.9001   -9.6634 H   0  0  0  0  0  0  0  0  0  0  0  0
   -7.0685   -2.5168   -6.8996 H   0  0  0  0  0  0  0  0  0  0  0  0
   -8.8765   -1.8363   -7.4212 H   0  0  0  0  0  0  0  0  0  0  0  0
   -9.0783   -3.0003  -10.8478 H   0  0  0  0  0  0  0  0  0  0  0  0
  -11.4380   -2.6112  -11.8628 H   0  0  0  0  0  0  0  0  0  0  0  0
  -14.7819   -0.5767  -11.2658 H   0  0  0  0  0  0  0  0  0  0  0  0
  -13.1232    0.8700   -7.3027 H   0  0  0  0  0  0  0  0  0  0  0  0
  1  2  1  0
  3  2  1  0
  3  4  1  0
  3  5  1  0
  4  9  1  0
  5  6  1  0
  5  7  1  0
  7  8  1  0
  7  9  1  0
  9 10  1  0
 10 11  2  0
 10 19  1  0
 11 12  1  0
 12 13  1  0
 13 14  2  0
 13 19  1  0
 14 15  1  0
 14 16  1  0
 16 17  2  0
 17 18  1  0
 18 19  2  0
  1 20  1  0
  2 21  1  0
  2 22  1  0
  3 23  1  1
  4 24  1  0
  4 25  1  0
  5 26  1  6
  6 27  1  0
  7 28  1  6
  8 29  1  0
  9 30  1  1
 11 31  1  0
 12 32  1  0
 15 33  1  0
 17 34  1  0
M  CHG  1   4   1
M  END
>  <filename_input>  (15) 
6ZK5_IMH_docked.sdf

>  <pdb_id>  (15) 
6ZK5_IMH

>  <pose_rank>  (15) 
14

>  <num_atoms_heavy>  (15) 
19

>  <num_torsions>  (15) 
2

>  <pose>  (15) 
[-9.770649528030606, -1.6526174275650125, -9.267857231407676, 0.9573510011015751, 2.113734754112397, -0.6916081766821097, -0.19219961660745435, -3.089858332567442]

>  <energy>  (15) 
-133.52079553229208

>  <inter_energy>  (15) 
-141.84552318268868

>  <intra_energy>  (15) 
3.763491737331039

>  <rmsd>  (15) 
12.8881

>  <sdf_rank>  (15) 
0

$$$$

     RDKit          3D

 34 36  0  0  0  0  0  0  0  0999 V2000
  -21.4079  -13.5570   -2.1813 O   0  0  0  0  0  0  0  0  0  0  0  0
  -21.0564  -14.8827   -1.7905 C   0  0  0  0  0  0  0  0  0  0  0  0
  -21.8341  -15.2782   -0.5433 C   0  0  1  0  0  0  0  0  0  0  0  0
  -22.4670  -16.6108   -0.6247 N   0  0  0  0  0  0  0  0  0  0  0  0
  -21.0002  -15.3890    0.7332 C   0  0  1  0  0  0  0  0  0  0  0  0
  -21.7097  -14.9210    1.8747 O   0  0  0  0  0  0  0  0  0  0  0  0
  -20.6332  -16.8800    0.8714 C   0  0  1  0  0  0  0  0  0  0  0  0
  -20.8960  -17.3704    2.1810 O   0  0  0  0  0  0  0  0  0  0  0  0
  -21.5296  -17.6232   -0.1379 C   0  0  2  0  0  0  0  0  0  0  0  0
  -20.8199  -18.2408   -1.3011 C   0  0  0  0  0  0  0  0  0  0  0  0
  -19.6156  -18.8829   -1.3207 C   0  0  0  0  0  0  0  0  0  0  0  0
  -19.2548  -19.1690   -2.6088 N   0  0  0  0  0  0  0  0  0  0  0  0
  -20.2366  -18.7138   -3.4552 C   0  0  0  0  0  0  0  0  0  0  0  0
  -20.4614  -18.6864   -4.8408 C   0  0  0  0  0  0  0  0  0  0  0  0
  -19.5257  -19.1181   -5.6273 O   0  0  0  0  0  0  0  0  0  0  0  0
  -21.6107  -18.1957   -5.3712 N   0  0  0  0  0  0  0  0  0  0  0  0
  -22.5560  -17.6999   -4.5354 C   0  0  0  0  0  0  0  0  0  0  0  0
  -22.4077  -17.6440   -3.1888 N   0  0  0  0  0  0  0  0  0  0  0  0
  -21.2547  -18.1412   -2.6738 C   0  0  0  0  0  0  0  0  0  0  0  0
  -21.5548  -13.0031   -1.3740 H   0  0  0  0  0  0  0  0  0  0  0  0
  -21.2971  -15.5796   -2.6068 H   0  0  0  0  0  0  0  0  0  0  0  0
  -19.9787  -14.9226   -1.5734 H   0  0  0  0  0  0  0  0  0  0  0  0
  -22.5597  -14.4527   -0.4977 H   0  0  0  0  0  0  0  0  0  0  0  0
  -23.3181  -16.6232   -0.0448 H   0  0  0  0  0  0  0  0  0  0  0  0
  -22.7167  -16.8144   -1.6030 H   0  0  0  0  0  0  0  0  0  0  0  0
  -20.1014  -14.7581    0.6700 H   0  0  0  0  0  0  0  0  0  0  0  0
  -21.2493  -15.2247    2.6968 H   0  0  0  0  0  0  0  0  0  0  0  0
  -19.5598  -17.0298    0.6837 H   0  0  0  0  0  0  0  0  0  0  0  0
  -20.5512  -16.7270    2.8497 H   0  0  0  0  0  0  0  0  0  0  0  0
  -21.9961  -18.4783    0.3732 H   0  0  0  0  0  0  0  0  0  0  0  0
  -19.0213  -19.1339   -0.4298 H   0  0  0  0  0  0  0  0  0  0  0  0
  -18.3892  -19.6472   -2.8969 H   0  0  0  0  0  0  0  0  0  0  0  0
  -19.6602  -19.1091   -6.6080 H   0  0  0  0  0  0  0  0  0  0  0  0
  -23.4925  -17.3233   -4.9726 H   0  0  0  0  0  0  0  0  0  0  0  0
  1  2  1  0
  3  2  1  0
  3  4  1  0
  3  5  1  0
  4  9  1  0
  5  6  1  0
  5  7  1  0
  7  8  1  0
  7  9  1  0
  9 10  1  0
 10 11  2  0
 10 19  1  0
 11 12  1  0
 12 13  1  0
 13 14  2  0
 13 19  1  0
 14 15  1  0
 14 16  1  0
 16 17  2  0
 17 18  1  0
 18 19  2  0
  1 20  1  0
  2 21  1  0
  2 22  1  0
  3 23  1  1
  4 24  1  0
  4 25  1  0
  5 26  1  6
  6 27  1  0
  7 28  1  6
  8 29  1  0
  9 30  1  1
 11 31  1  0
 12 32  1  0
 15 33  1  0
 17 34  1  0
M  CHG  1   4   1
M  END
>  <filename_input>  (16) 
6ZK5_IMH_docked.sdf

>  <pdb_id>  (16) 
6ZK5_IMH

>  <pose_rank>  (16) 
15

>  <num_atoms_heavy>  (16) 
19

>  <num_torsions>  (16) 
2

>  <pose>  (16) 
[-20.81985706510597, -18.240809940857897, -1.3011018455708367, 0.5654104813520938, 0.8755581614375222, 0.009465301601384306, 0.5405632257355781, 1.4991028408245708]

>  <energy>  (16) 
-107.96067995892875

>  <inter_energy>  (16) 
-137.06768719086804

>  <intra_energy>  (16) 
30.626867909138817

>  <rmsd>  (16) 
11.6292

>  <sdf_rank>  (16) 
0

$$$$

     RDKit          3D

 34 36  0  0  0  0  0  0  0  0999 V2000
  -16.8133    0.5742  -10.7066 O   0  0  0  0  0  0  0  0  0  0  0  0
  -15.9623    0.5801   -9.5623 C   0  0  0  0  0  0  0  0  0  0  0  0
  -16.5661   -0.2834   -8.4638 C   0  0  1  0  0  0  0  0  0  0  0  0
  -15.7394   -1.4496   -8.0906 N   0  0  0  0  0  0  0  0  0  0  0  0
  -16.7648    0.4203   -7.1212 C   0  0  1  0  0  0  0  0  0  0  0  0
  -17.9637    0.0064   -6.4758 O   0  0  0  0  0  0  0  0  0  0  0  0
  -15.5229    0.0766   -6.2748 C   0  0  1  0  0  0  0  0  0  0  0  0
  -15.8779   -0.3695   -4.9712 O   0  0  0  0  0  0  0  0  0  0  0  0
  -14.8122   -1.0659   -7.0259 C   0  0  2  0  0  0  0  0  0  0  0  0
  -13.4860   -0.7193   -7.6253 C   0  0  0  0  0  0  0  0  0  0  0  0
  -12.4701    0.0115   -7.0807 C   0  0  0  0  0  0  0  0  0  0  0  0
  -11.4893    0.2219   -8.0108 N   0  0  0  0  0  0  0  0  0  0  0  0
  -11.8587   -0.3824   -9.1881 C   0  0  0  0  0  0  0  0  0  0  0  0
  -11.3225   -0.5237  -10.4780 C   0  0  0  0  0  0  0  0  0  0  0  0
  -10.2220    0.0999  -10.7615 O   0  0  0  0  0  0  0  0  0  0  0  0
  -11.9389   -1.2653  -11.4334 N   0  0  0  0  0  0  0  0  0  0  0  0
  -13.1164   -1.8672  -11.1343 C   0  0  0  0  0  0  0  0  0  0  0  0
  -13.7310   -1.7501   -9.9315 N   0  0  0  0  0  0  0  0  0  0  0  0
  -13.1007   -1.0080   -8.9860 C   0  0  0  0  0  0  0  0  0  0  0  0
  -17.7591    0.5678  -10.4145 H   0  0  0  0  0  0  0  0  0  0  0  0
  -14.9756    0.1806   -9.8395 H   0  0  0  0  0  0  0  0  0  0  0  0
  -15.8559    1.6115   -9.1952 H   0  0  0  0  0  0  0  0  0  0  0  0
  -17.5205   -0.5585   -8.9363 H   0  0  0  0  0  0  0  0  0  0  0  0
  -16.3486   -2.2107   -7.7582 H   0  0  0  0  0  0  0  0  0  0  0  0
  -15.2071   -1.7714   -8.9116 H   0  0  0  0  0  0  0  0  0  0  0  0
  -16.8686    1.5066   -7.2598 H   0  0  0  0  0  0  0  0  0  0  0  0
  -17.8416    0.0486   -5.4942 H   0  0  0  0  0  0  0  0  0  0  0  0
  -14.8883    0.9658   -6.1463 H   0  0  0  0  0  0  0  0  0  0  0  0
  -15.4278    0.1962   -4.2948 H   0  0  0  0  0  0  0  0  0  0  0  0
  -14.5780   -1.8640   -6.3061 H   0  0  0  0  0  0  0  0  0  0  0  0
  -12.4438    0.3783   -6.0440 H   0  0  0  0  0  0  0  0  0  0  0  0
  -10.6172    0.7470   -7.8543 H   0  0  0  0  0  0  0  0  0  0  0  0
   -9.8241    0.0162  -11.6641 H   0  0  0  0  0  0  0  0  0  0  0  0
  -13.5984   -2.4828  -11.9081 H   0  0  0  0  0  0  0  0  0  0  0  0
  1  2  1  0
  3  2  1  0
  3  4  1  0
  3  5  1  0
  4  9  1  0
  5  6  1  0
  5  7  1  0
  7  8  1  0
  7  9  1  0
  9 10  1  0
 10 11  2  0
 10 19  1  0
 11 12  1  0
 12 13  1  0
 13 14  2  0
 13 19  1  0
 14 15  1  0
 14 16  1  0
 16 17  2  0
 17 18  1  0
 18 19  2  0
  1 20  1  0
  2 21  1  0
  2 22  1  0
  3 23  1  6
  4 24  1  0
  4 25  1  0
  5 26  1  6
  6 27  1  0
  7 28  1  1
  8 29  1  0
  9 30  1  1
 11 31  1  0
 12 32  1  0
 15 33  1  0
 17 34  1  0
M  CHG  1   4   1
M  END
>  <filename_input>  (17) 
6ZK5_IMH_docked.sdf

>  <pdb_id>  (17) 
6ZK5_IMH

>  <pose_rank>  (17) 
16

>  <num_atoms_heavy>  (17) 
19

>  <num_torsions>  (17) 
2

>  <pose>  (17) 
[-13.48598969247553, -0.7193475903986265, -7.625322944422163, 0.727281094184344, -2.8267244588235974, -4.242199155734072, 0.6028541710408984, 1.2365459146904059]

>  <energy>  (17) 
-147.24350971408458

>  <inter_energy>  (17) 
-173.63347329237976

>  <intra_energy>  (17) 
37.63025098429824

>  <rmsd>  (17) 
11.7196

>  <sdf_rank>  (17) 
0

$$$$

     RDKit          3D

 34 36  0  0  0  0  0  0  0  0999 V2000
  -21.0117  -13.7456   -2.4466 O   0  0  0  0  0  0  0  0  0  0  0  0
  -20.8157  -15.1326   -2.1791 C   0  0  0  0  0  0  0  0  0  0  0  0
  -21.7426  -15.5795   -1.0574 C   0  0  1  0  0  0  0  0  0  0  0  0
  -22.4756  -16.8301   -1.3431 N   0  0  0  0  0  0  0  0  0  0  0  0
  -21.0501  -15.9010    0.2671 C   0  0  1  0  0  0  0  0  0  0  0  0
  -21.8254  -15.4884    1.3869 O   0  0  0  0  0  0  0  0  0  0  0  0
  -20.8266  -17.4264    0.2690 C   0  0  1  0  0  0  0  0  0  0  0  0
  -21.2571  -18.0227    1.4870 O   0  0  0  0  0  0  0  0  0  0  0  0
  -21.6799  -17.9721   -0.8924 C   0  0  2  0  0  0  0  0  0  0  0  0
  -20.9149  -18.5305   -2.0504 C   0  0  0  0  0  0  0  0  0  0  0  0
  -19.7283  -19.2048   -2.0416 C   0  0  0  0  0  0  0  0  0  0  0  0
  -19.2953  -19.4140   -3.3223 N   0  0  0  0  0  0  0  0  0  0  0  0
  -20.2108  -18.8742   -4.1929 C   0  0  0  0  0  0  0  0  0  0  0  0
  -20.3481  -18.7470   -5.5843 C   0  0  0  0  0  0  0  0  0  0  0  0
  -19.3765  -19.1519   -6.3408 O   0  0  0  0  0  0  0  0  0  0  0  0
  -21.4495  -18.1882   -6.1480 N   0  0  0  0  0  0  0  0  0  0  0  0
  -22.4323  -17.7223   -5.3385 C   0  0  0  0  0  0  0  0  0  0  0  0
  -22.3667  -17.7616   -3.9849 N   0  0  0  0  0  0  0  0  0  0  0  0
  -21.2608  -18.3260   -3.4367 C   0  0  0  0  0  0  0  0  0  0  0  0
  -21.0815  -13.2513   -1.5917 H   0  0  0  0  0  0  0  0  0  0  0  0
  -21.0350  -15.7137   -3.0869 H   0  0  0  0  0  0  0  0  0  0  0  0
  -19.7719  -15.2988   -1.8744 H   0  0  0  0  0  0  0  0  0  0  0  0
  -22.3963  -14.6978   -0.9836 H   0  0  0  0  0  0  0  0  0  0  0  0
  -23.3773  -16.8214   -0.8455 H   0  0  0  0  0  0  0  0  0  0  0  0
  -22.6447  -16.9064   -2.3563 H   0  0  0  0  0  0  0  0  0  0  0  0
  -20.0989  -15.3553    0.3543 H   0  0  0  0  0  0  0  0  0  0  0  0
  -21.3568  -15.7378    2.2226 H   0  0  0  0  0  0  0  0  0  0  0  0
  -19.7566  -17.6574    0.1608 H   0  0  0  0  0  0  0  0  0  0  0  0
  -20.8892  -17.5131    2.2519 H   0  0  0  0  0  0  0  0  0  0  0  0
  -22.2652  -18.8273   -0.5234 H   0  0  0  0  0  0  0  0  0  0  0  0
  -19.1970  -19.5326   -1.1358 H   0  0  0  0  0  0  0  0  0  0  0  0
  -18.4257  -19.8969   -3.5899 H   0  0  0  0  0  0  0  0  0  0  0  0
  -19.4494  -19.0730   -7.3249 H   0  0  0  0  0  0  0  0  0  0  0  0
  -23.3299  -17.2898   -5.8045 H   0  0  0  0  0  0  0  0  0  0  0  0
  1  2  1  0
  3  2  1  0
  3  4  1  0
  3  5  1  0
  4  9  1  0
  5  6  1  0
  5  7  1  0
  7  8  1  0
  7  9  1  0
  9 10  1  0
 10 11  2  0
 10 19  1  0
 11 12  1  0
 12 13  1  0
 13 14  2  0
 13 19  1  0
 14 15  1  0
 14 16  1  0
 16 17  2  0
 17 18  1  0
 18 19  2  0
  1 20  1  0
  2 21  1  0
  2 22  1  0
  3 23  1  1
  4 24  1  0
  4 25  1  0
  5 26  1  6
  6 27  1  0
  7 28  1  6
  8 29  1  0
  9 30  1  1
 11 31  1  0
 12 32  1  0
 15 33  1  0
 17 34  1  0
M  CHG  1   4   1
M  END
>  <filename_input>  (18) 
6ZK5_IMH_docked.sdf

>  <pdb_id>  (18) 
6ZK5_IMH

>  <pose_rank>  (18) 
17

>  <num_atoms_heavy>  (18) 
19

>  <num_torsions>  (18) 
2

>  <pose>  (18) 
[-20.91488923730175, -18.53052830941368, -2.0504334469703096, 0.6377844293286352, 0.8100357312522027, 0.031916083701298364, 0.45906552049287425, 1.5008107871519087]

>  <energy>  (18) 
-121.71324396646774

>  <inter_energy>  (18) 
-145.7362497008042

>  <intra_energy>  (18) 
23.74024723018489

>  <rmsd>  (18) 
11.8095

>  <sdf_rank>  (18) 
0

$$$$

     RDKit          3D

 34 36  0  0  0  0  0  0  0  0999 V2000
   -5.0579    0.4405   -9.1519 O   0  0  0  0  0  0  0  0  0  0  0  0
   -5.6739   -0.2137  -10.2592 C   0  0  0  0  0  0  0  0  0  0  0  0
   -5.3719   -1.7049  -10.2129 C   0  0  1  0  0  0  0  0  0  0  0  0
   -6.1804   -2.4536   -9.2287 N   0  0  0  0  0  0  0  0  0  0  0  0
   -5.6502   -2.4637  -11.5105 C   0  0  1  0  0  0  0  0  0  0  0  0
   -4.6793   -3.4752  -11.7543 O   0  0  0  0  0  0  0  0  0  0  0  0
   -7.0616   -3.0645  -11.3556 C   0  0  1  0  0  0  0  0  0  0  0  0
   -7.0908   -4.4437  -11.7041 O   0  0  0  0  0  0  0  0  0  0  0  0
   -7.4166   -2.9105   -9.8640 C   0  0  2  0  0  0  0  0  0  0  0  0
   -8.5172   -1.9446   -9.5574 C   0  0  0  0  0  0  0  0  0  0  0  0
   -8.5986   -1.0424   -8.5365 C   0  0  0  0  0  0  0  0  0  0  0  0
   -9.8332   -0.4535   -8.5250 N   0  0  0  0  0  0  0  0  0  0  0  0
  -10.5797   -0.9699   -9.5564 C   0  0  0  0  0  0  0  0  0  0  0  0
  -11.8778   -0.8018  -10.0642 C   0  0  0  0  0  0  0  0  0  0  0  0
  -12.6964   -0.0272   -9.4237 O   0  0  0  0  0  0  0  0  0  0  0  0
  -12.3002   -1.4481  -11.1807 N   0  0  0  0  0  0  0  0  0  0  0  0
  -11.4468   -2.2951  -11.8072 C   0  0  0  0  0  0  0  0  0  0  0  0
  -10.1917   -2.5539  -11.3646 N   0  0  0  0  0  0  0  0  0  0  0  0
   -9.7832   -1.8976  -10.2490 C   0  0  0  0  0  0  0  0  0  0  0  0
   -5.4122    0.0643   -8.3075 H   0  0  0  0  0  0  0  0  0  0  0  0
   -6.7623   -0.0604  -10.2141 H   0  0  0  0  0  0  0  0  0  0  0  0
   -5.2777    0.2073  -11.1950 H   0  0  0  0  0  0  0  0  0  0  0  0
   -4.3002   -1.6778   -9.9667 H   0  0  0  0  0  0  0  0  0  0  0  0
   -5.6458   -3.2671   -8.8922 H   0  0  0  0  0  0  0  0  0  0  0  0
   -6.4082   -1.8410   -8.4326 H   0  0  0  0  0  0  0  0  0  0  0  0
   -5.5932   -1.7900  -12.3782 H   0  0  0  0  0  0  0  0  0  0  0  0
   -4.3434   -3.8251  -10.8912 H   0  0  0  0  0  0  0  0  0  0  0  0
   -7.7718   -2.5518  -12.0210 H   0  0  0  0  0  0  0  0  0  0  0  0
   -7.1023   -4.9921  -10.8800 H   0  0  0  0  0  0  0  0  0  0  0  0
   -7.7981   -3.8739   -9.4949 H   0  0  0  0  0  0  0  0  0  0  0  0
   -7.7887   -0.8210   -7.8258 H   0  0  0  0  0  0  0  0  0  0  0  0
  -10.1511    0.2598   -7.8534 H   0  0  0  0  0  0  0  0  0  0  0  0
  -13.6171    0.1075   -9.7616 H   0  0  0  0  0  0  0  0  0  0  0  0
  -11.7907   -2.7987  -12.7227 H   0  0  0  0  0  0  0  0  0  0  0  0
  1  2  1  0
  3  2  1  0
  3  4  1  0
  3  5  1  0
  4  9  1  0
  5  6  1  0
  5  7  1  0
  7  8  1  0
  7  9  1  0
  9 10  1  0
 10 11  2  0
 10 19  1  0
 11 12  1  0
 12 13  1  0
 13 14  2  0
 13 19  1  0
 14 15  1  0
 14 16  1  0
 16 17  2  0
 17 18  1  0
 18 19  2  0
  1 20  1  0
  2 21  1  0
  2 22  1  0
  3 23  1  1
  4 24  1  0
  4 25  1  0
  5 26  1  6
  6 27  1  0
  7 28  1  6
  8 29  1  0
  9 30  1  1
 11 31  1  0
 12 32  1  0
 15 33  1  0
 17 34  1  0
M  CHG  1   4   1
M  END
>  <filename_input>  (19) 
6ZK5_IMH_docked.sdf

>  <pdb_id>  (19) 
6ZK5_IMH

>  <pose_rank>  (19) 
18

>  <num_atoms_heavy>  (19) 
19

>  <num_torsions>  (19) 
2

>  <pose>  (19) 
[-8.517191459727808, -1.9446349332490425, -9.557387360249235, 0.8536446110388659, 0.8792399112598424, 2.990396431314802, -2.5728174405647377, 0.5392897463733357]

>  <energy>  (19) 
-111.23957569033209

>  <inter_energy>  (19) 
-114.95124394346796

>  <intra_energy>  (19) 
11.513915452105561

>  <rmsd>  (19) 
13.2066

>  <sdf_rank>  (19) 
0

$$$$

     RDKit          3D

 34 36  0  0  0  0  0  0  0  0999 V2000
  -17.5635  -18.3732    4.0505 O   0  0  0  0  0  0  0  0  0  0  0  0
  -16.7202  -17.2300    4.1749 C   0  0  0  0  0  0  0  0  0  0  0  0
  -15.3907  -17.6327    4.7972 C   0  0  1  0  0  0  0  0  0  0  0  0
  -14.7340  -16.5555    5.5661 N   0  0  0  0  0  0  0  0  0  0  0  0
  -15.4703  -18.7646    5.8216 C   0  0  1  0  0  0  0  0  0  0  0  0
  -14.3492  -19.6373    5.7386 O   0  0  0  0  0  0  0  0  0  0  0  0
  -15.5510  -18.0822    7.2016 C   0  0  1  0  0  0  0  0  0  0  0  0
  -14.6247  -18.6434    8.1244 O   0  0  0  0  0  0  0  0  0  0  0  0
  -15.1896  -16.6045    6.9555 C   0  0  2  0  0  0  0  0  0  0  0  0
  -16.3048  -15.6255    7.1457 C   0  0  0  0  0  0  0  0  0  0  0  0
  -16.2327  -14.2704    7.2916 C   0  0  0  0  0  0  0  0  0  0  0  0
  -17.4673  -13.7619    7.5894 N   0  0  0  0  0  0  0  0  0  0  0  0
  -18.3718  -14.7949    7.6371 C   0  0  0  0  0  0  0  0  0  0  0  0
  -19.7445  -14.9420    7.8923 C   0  0  0  0  0  0  0  0  0  0  0  0
  -20.4206  -13.8980    8.2572 O   0  0  0  0  0  0  0  0  0  0  0  0
  -20.3668  -16.1447    7.7963 N   0  0  0  0  0  0  0  0  0  0  0  0
  -19.6326  -17.2352    7.4647 C   0  0  0  0  0  0  0  0  0  0  0  0
  -18.2953  -17.1968    7.2446 N   0  0  0  0  0  0  0  0  0  0  0  0
  -17.6884  -15.9867    7.3413 C   0  0  0  0  0  0  0  0  0  0  0  0
  -17.8070  -18.7032    4.9516 H   0  0  0  0  0  0  0  0  0  0  0  0
  -16.5411  -16.7987    3.1790 H   0  0  0  0  0  0  0  0  0  0  0  0
  -17.2112  -16.4859    4.8193 H   0  0  0  0  0  0  0  0  0  0  0  0
  -14.8350  -17.9252    3.8940 H   0  0  0  0  0  0  0  0  0  0  0  0
  -13.7125  -16.6841    5.5344 H   0  0  0  0  0  0  0  0  0  0  0  0
  -14.9766  -15.6423    5.1560 H   0  0  0  0  0  0  0  0  0  0  0  0
  -16.3487  -19.4002    5.6356 H   0  0  0  0  0  0  0  0  0  0  0  0
  -14.0464  -19.8731    6.6512 H   0  0  0  0  0  0  0  0  0  0  0  0
  -16.5532  -18.2123    7.6359 H   0  0  0  0  0  0  0  0  0  0  0  0
  -14.9276  -18.4599    9.0489 H   0  0  0  0  0  0  0  0  0  0  0  0
  -14.4390  -16.3002    7.6998 H   0  0  0  0  0  0  0  0  0  0  0  0
  -15.3148  -13.6736    7.1852 H   0  0  0  0  0  0  0  0  0  0  0  0
  -17.6832  -12.7679    7.7512 H   0  0  0  0  0  0  0  0  0  0  0  0
  -21.3899  -13.9760    8.4430 H   0  0  0  0  0  0  0  0  0  0  0  0
  -20.1489  -18.2018    7.3693 H   0  0  0  0  0  0  0  0  0  0  0  0
  1  2  1  0
  3  2  1  0
  3  4  1  0
  3  5  1  0
  4  9  1  0
  5  6  1  0
  5  7  1  0
  7  8  1  0
  7  9  1  0
  9 10  1  0
 10 11  2  0
 10 19  1  0
 11 12  1  0
 12 13  1  0
 13 14  2  0
 13 19  1  0
 14 15  1  0
 14 16  1  0
 16 17  2  0
 17 18  1  0
 18 19  2  0
  1 20  1  0
  2 21  1  0
  2 22  1  0
  3 23  1  6
  4 24  1  0
  4 25  1  0
  5 26  1  6
  6 27  1  0
  7 28  1  1
  8 29  1  0
  9 30  1  1
 11 31  1  0
 12 32  1  0
 15 33  1  0
 17 34  1  0
M  CHG  1   4   1
M  END
>  <filename_input>  (20) 
6ZK5_IMH_docked.sdf

>  <pdb_id>  (20) 
6ZK5_IMH

>  <pose_rank>  (20) 
19

>  <num_atoms_heavy>  (20) 
19

>  <num_torsions>  (20) 
2

>  <pose>  (20) 
[-16.304770241296858, -15.625530484611229, 7.1457187725395475, 1.5712633214607108, 1.9099486526474563, 2.2062344596671557, 2.72157490350772, -3.454624024709697]

>  <energy>  (20) 
-96.00150914574806

>  <inter_energy>  (20) 
-120.29108117269358

>  <intra_energy>  (20) 
24.799145444322562

>  <rmsd>  (20) 
13.1219

>  <sdf_rank>  (20) 
0

$$$$

     RDKit          3D

 34 36  0  0  0  0  0  0  0  0999 V2000
  -15.6243    0.5491  -11.1966 O   0  0  0  0  0  0  0  0  0  0  0  0
  -14.7995    0.5831  -10.0338 C   0  0  0  0  0  0  0  0  0  0  0  0
  -15.4200   -0.2666   -8.9338 C   0  0  1  0  0  0  0  0  0  0  0  0
  -14.6002   -1.4293   -8.5352 N   0  0  0  0  0  0  0  0  0  0  0  0
  -15.6370    0.4531   -7.6026 C   0  0  1  0  0  0  0  0  0  0  0  0
  -16.8455    0.0482   -6.9695 O   0  0  0  0  0  0  0  0  0  0  0  0
  -14.4077    0.1181   -6.7346 C   0  0  1  0  0  0  0  0  0  0  0  0
  -14.7819   -0.3122   -5.4310 O   0  0  0  0  0  0  0  0  0  0  0  0
  -13.6878   -1.0340   -7.4619 C   0  0  2  0  0  0  0  0  0  0  0  0
  -12.3527   -0.6960   -8.0464 C   0  0  0  0  0  0  0  0  0  0  0  0
  -11.3427    0.0377   -7.4947 C   0  0  0  0  0  0  0  0  0  0  0  0
  -10.3488    0.2371   -8.4133 N   0  0  0  0  0  0  0  0  0  0  0  0
  -10.7035   -0.3773   -9.5899 C   0  0  0  0  0  0  0  0  0  0  0  0
  -10.1501   -0.5319  -10.8709 C   0  0  0  0  0  0  0  0  0  0  0  0
   -9.0444    0.0867  -11.1452 O   0  0  0  0  0  0  0  0  0  0  0  0
  -10.7552   -1.2810  -11.8277 N   0  0  0  0  0  0  0  0  0  0  0  0
  -11.9380   -1.8774  -11.5392 C   0  0  0  0  0  0  0  0  0  0  0  0
  -12.5687   -1.7478  -10.3460 N   0  0  0  0  0  0  0  0  0  0  0  0
  -11.9496   -0.9983   -9.3989 C   0  0  0  0  0  0  0  0  0  0  0  0
  -16.5756    0.5097  -10.9254 H   0  0  0  0  0  0  0  0  0  0  0  0
  -13.8031    0.1883  -10.2816 H   0  0  0  0  0  0  0  0  0  0  0  0
  -14.7109    1.6219   -9.6827 H   0  0  0  0  0  0  0  0  0  0  0  0
  -16.3679   -0.5462   -9.4167 H   0  0  0  0  0  0  0  0  0  0  0  0
  -15.2151   -2.1857   -8.2026 H   0  0  0  0  0  0  0  0  0  0  0  0
  -14.0566   -1.7613   -9.3446 H   0  0  0  0  0  0  0  0  0  0  0  0
  -15.7374    1.5378   -7.7555 H   0  0  0  0  0  0  0  0  0  0  0  0
  -16.7321    0.0862   -5.9868 H   0  0  0  0  0  0  0  0  0  0  0  0
  -13.7738    1.0081   -6.6076 H   0  0  0  0  0  0  0  0  0  0  0  0
  -14.3075    0.2333   -4.7546 H   0  0  0  0  0  0  0  0  0  0  0  0
  -13.4649   -1.8238   -6.7295 H   0  0  0  0  0  0  0  0  0  0  0  0
  -11.3296    0.4141   -6.4612 H   0  0  0  0  0  0  0  0  0  0  0  0
   -9.4776    0.7618   -8.2498 H   0  0  0  0  0  0  0  0  0  0  0  0
   -8.6343   -0.0064  -12.0414 H   0  0  0  0  0  0  0  0  0  0  0  0
  -12.4109   -2.4992  -12.3137 H   0  0  0  0  0  0  0  0  0  0  0  0
  1  2  1  0
  3  2  1  0
  3  4  1  0
  3  5  1  0
  4  9  1  0
  5  6  1  0
  5  7  1  0
  7  8  1  0
  7  9  1  0
  9 10  1  0
 10 11  2  0
 10 19  1  0
 11 12  1  0
 12 13  1  0
 13 14  2  0
 13 19  1  0
 14 15  1  0
 14 16  1  0
 16 17  2  0
 17 18  1  0
 18 19  2  0
  1 20  1  0
  2 21  1  0
  2 22  1  0
  3 23  1  6
  4 24  1  0
  4 25  1  0
  5 26  1  6
  6 27  1  0
  7 28  1  1
  8 29  1  0
  9 30  1  1
 11 31  1  0
 12 32  1  0
 15 33  1  0
 17 34  1  0
M  CHG  1   4   1
M  END
>  <filename_input>  (21) 
6ZK5_IMH_docked.sdf

>  <pdb_id>  (21) 
6ZK5_IMH

>  <pose_rank>  (21) 
20

>  <num_atoms_heavy>  (21) 
19

>  <num_torsions>  (21) 
2

>  <pose>  (21) 
[-12.352722780131437, -0.6960193693150962, -8.046374403893582, 0.7969170113485807, -2.81402489606063, -4.247812966356141, 0.605636071992078, 1.2219120278606692]

>  <energy>  (21) 
-133.77885447417648

>  <inter_energy>  (21) 
-174.32400727200343

>  <intra_energy>  (21) 
37.97662283452738

>  <rmsd>  (21) 
11.885

>  <sdf_rank>  (21) 
0

$$$$

     RDKit          3D

 34 36  0  0  0  0  0  0  0  0999 V2000
  -12.2874   -2.6197  -11.0913 O   0  0  0  0  0  0  0  0  0  0  0  0
  -12.0635   -1.2315  -11.3287 C   0  0  0  0  0  0  0  0  0  0  0  0
  -11.7798   -0.5205  -10.0131 C   0  0  1  0  0  0  0  0  0  0  0  0
  -12.7023    0.5957   -9.7198 N   0  0  0  0  0  0  0  0  0  0  0  0
  -11.9115   -1.3913   -8.7635 C   0  0  1  0  0  0  0  0  0  0  0  0
  -10.9263   -1.0733   -7.7870 O   0  0  0  0  0  0  0  0  0  0  0  0
  -13.3356   -1.1478   -8.2257 C   0  0  1  0  0  0  0  0  0  0  0  0
  -13.3343   -0.8747   -6.8293 O   0  0  0  0  0  0  0  0  0  0  0  0
  -13.8599    0.0871   -8.9837 C   0  0  2  0  0  0  0  0  0  0  0  0
  -14.9815   -0.1688   -9.9401 C   0  0  0  0  0  0  0  0  0  0  0  0
  -15.2647    0.4718  -11.1115 C   0  0  0  0  0  0  0  0  0  0  0  0
  -16.4605    0.0339  -11.6112 N   0  0  0  0  0  0  0  0  0  0  0  0
  -16.9753   -0.9142  -10.7605 C   0  0  0  0  0  0  0  0  0  0  0  0
  -18.1286   -1.7122  -10.6952 C   0  0  0  0  0  0  0  0  0  0  0  0
  -19.0513   -1.5391  -11.5891 O   0  0  0  0  0  0  0  0  0  0  0  0
  -18.3113   -2.6291   -9.7109 N   0  0  0  0  0  0  0  0  0  0  0  0
  -17.3591   -2.7589   -8.7545 C   0  0  0  0  0  0  0  0  0  0  0  0
  -16.2354   -2.0015   -8.7113 N   0  0  0  0  0  0  0  0  0  0  0  0
  -16.0659   -1.0916   -9.7039 C   0  0  0  0  0  0  0  0  0  0  0  0
  -12.3145   -2.7875  -10.1160 H   0  0  0  0  0  0  0  0  0  0  0  0
  -11.2018   -1.1109  -12.0018 H   0  0  0  0  0  0  0  0  0  0  0  0
  -12.9604   -0.7937  -11.7911 H   0  0  0  0  0  0  0  0  0  0  0  0
  -10.7436   -0.1954  -10.1883 H   0  0  0  0  0  0  0  0  0  0  0  0
  -12.2162    1.3029   -9.1503 H   0  0  0  0  0  0  0  0  0  0  0  0
  -13.0163    1.0241  -10.6023 H   0  0  0  0  0  0  0  0  0  0  0  0
  -11.7494   -2.4518   -9.0063 H   0  0  0  0  0  0  0  0  0  0  0  0
  -11.3073   -1.1963   -6.8816 H   0  0  0  0  0  0  0  0  0  0  0  0
  -13.9602   -2.0408   -8.3759 H   0  0  0  0  0  0  0  0  0  0  0  0
  -13.3384   -1.7273   -6.3263 H   0  0  0  0  0  0  0  0  0  0  0  0
  -14.2886    0.7889   -8.2531 H   0  0  0  0  0  0  0  0  0  0  0  0
  -14.6242    1.2303  -11.5852 H   0  0  0  0  0  0  0  0  0  0  0  0
  -16.9024    0.3613  -12.4821 H   0  0  0  0  0  0  0  0  0  0  0  0
  -19.8738   -2.0894  -11.5644 H   0  0  0  0  0  0  0  0  0  0  0  0
  -17.5060   -3.5186   -7.9726 H   0  0  0  0  0  0  0  0  0  0  0  0
  1  2  1  0
  3  2  1  0
  3  4  1  0
  3  5  1  0
  4  9  1  0
  5  6  1  0
  5  7  1  0
  7  8  1  0
  7  9  1  0
  9 10  1  0
 10 11  2  0
 10 19  1  0
 11 12  1  0
 12 13  1  0
 13 14  2  0
 13 19  1  0
 14 15  1  0
 14 16  1  0
 16 17  2  0
 17 18  1  0
 18 19  2  0
  1 20  1  0
  2 21  1  0
  2 22  1  0
  3 23  1  6
  4 24  1  0
  4 25  1  0
  5 26  1  6
  6 27  1  0
  7 28  1  1
  8 29  1  0
  9 30  1  1
 11 31  1  0
 12 32  1  0
 15 33  1  0
 17 34  1  0
M  CHG  1   4   1
M  END
>  <filename_input>  (22) 
6ZK5_IMH_docked.sdf

>  <pdb_id>  (22) 
6ZK5_IMH

>  <pose_rank>  (22) 
21

>  <num_atoms_heavy>  (22) 
19

>  <num_torsions>  (22) 
2

>  <pose>  (22) 
[-14.981482785983358, -0.16883450432267338, -9.940072556070803, 0.2921137670513098, 2.699295574268967, 0.9646429578151919, 3.553857068353925, 3.327616601384447]

>  <energy>  (22) 
-126.83425955192078

>  <inter_energy>  (22) 
-116.66961321397368

>  <intra_energy>  (22) 
14.422913092890296

>  <rmsd>  (22) 
12.7279

>  <sdf_rank>  (22) 
0

$$$$

     RDKit          3D

 34 36  0  0  0  0  0  0  0  0999 V2000
  -15.5986   -5.3656  -11.0820 O   0  0  0  0  0  0  0  0  0  0  0  0
  -16.5391   -4.3565  -10.7201 C   0  0  0  0  0  0  0  0  0  0  0  0
  -16.1176   -3.0195  -11.3130 C   0  0  1  0  0  0  0  0  0  0  0  0
  -17.2312   -2.0682  -11.5075 N   0  0  0  0  0  0  0  0  0  0  0  0
  -15.1410   -2.2103  -10.4595 C   0  0  1  0  0  0  0  0  0  0  0  0
  -14.1785   -1.5274  -11.2549 O   0  0  0  0  0  0  0  0  0  0  0  0
  -16.0041   -1.2225   -9.6495 C   0  0  1  0  0  0  0  0  0  0  0  0
  -15.4978    0.1052   -9.7220 O   0  0  0  0  0  0  0  0  0  0  0  0
  -17.4027   -1.2681  -10.2947 C   0  0  2  0  0  0  0  0  0  0  0  0
  -18.4839   -1.8694   -9.4535 C   0  0  0  0  0  0  0  0  0  0  0  0
  -19.2390   -2.9788   -9.7025 C   0  0  0  0  0  0  0  0  0  0  0  0
  -20.2178   -3.1053   -8.7552 N   0  0  0  0  0  0  0  0  0  0  0  0
  -20.1069   -2.0668   -7.8625 C   0  0  0  0  0  0  0  0  0  0  0  0
  -20.7835   -1.6289   -6.7130 C   0  0  0  0  0  0  0  0  0  0  0  0
  -21.8544   -2.2614   -6.3477 O   0  0  0  0  0  0  0  0  0  0  0  0
  -20.3642   -0.5520   -6.0007 N   0  0  0  0  0  0  0  0  0  0  0  0
  -19.2725    0.1288   -6.4282 C   0  0  0  0  0  0  0  0  0  0  0  0
  -18.5832   -0.1933   -7.5504 N   0  0  0  0  0  0  0  0  0  0  0  0
  -19.0130   -1.2741   -8.2498 C   0  0  0  0  0  0  0  0  0  0  0  0
  -15.2195   -5.7724  -10.2629 H   0  0  0  0  0  0  0  0  0  0  0  0
  -17.5329   -4.6292  -11.1049 H   0  0  0  0  0  0  0  0  0  0  0  0
  -16.5754   -4.2714   -9.6240 H   0  0  0  0  0  0  0  0  0  0  0  0
  -15.6650   -3.3599  -12.2560 H   0  0  0  0  0  0  0  0  0  0  0  0
  -17.0187   -1.4477  -12.3016 H   0  0  0  0  0  0  0  0  0  0  0  0
  -18.0986   -2.5884  -11.7025 H   0  0  0  0  0  0  0  0  0  0  0  0
  -14.5583   -2.8698   -9.7994 H   0  0  0  0  0  0  0  0  0  0  0  0
  -13.5299   -1.0672  -10.6653 H   0  0  0  0  0  0  0  0  0  0  0  0
  -16.0127   -1.5035   -8.5860 H   0  0  0  0  0  0  0  0  0  0  0  0
  -15.3634    0.4576   -8.8067 H   0  0  0  0  0  0  0  0  0  0  0  0
  -17.7420   -0.2357  -10.4654 H   0  0  0  0  0  0  0  0  0  0  0  0
  -19.0831   -3.6708  -10.5432 H   0  0  0  0  0  0  0  0  0  0  0  0
  -20.9221   -3.8558   -8.7174 H   0  0  0  0  0  0  0  0  0  0  0  0
  -22.3493   -1.9719   -5.5406 H   0  0  0  0  0  0  0  0  0  0  0  0
  -18.9280    0.9876   -5.8334 H   0  0  0  0  0  0  0  0  0  0  0  0
  1  2  1  0
  3  2  1  0
  3  4  1  0
  3  5  1  0
  4  9  1  0
  5  6  1  0
  5  7  1  0
  7  8  1  0
  7  9  1  0
  9 10  1  0
 10 11  2  0
 10 19  1  0
 11 12  1  0
 12 13  1  0
 13 14  2  0
 13 19  1  0
 14 15  1  0
 14 16  1  0
 16 17  2  0
 17 18  1  0
 18 19  2  0
  1 20  1  0
  2 21  1  0
  2 22  1  0
  3 23  1  6
  4 24  1  0
  4 25  1  0
  5 26  1  1
  6 27  1  0
  7 28  1  1
  8 29  1  0
  9 30  1  6
 11 31  1  0
 12 32  1  0
 15 33  1  0
 17 34  1  0
M  CHG  1   4   1
M  END
>  <filename_input>  (23) 
6ZK5_IMH_docked.sdf

>  <pdb_id>  (23) 
6ZK5_IMH

>  <pose_rank>  (23) 
22

>  <num_atoms_heavy>  (23) 
19

>  <num_torsions>  (23) 
2

>  <pose>  (23) 
[-18.483924968455888, -1.8693928351183293, -9.453508719490957, -0.03902795047345438, 2.8743216700875807, -1.6166747759315017, 4.078580503571594, 1.9001134865930014]

>  <energy>  (23) 
-124.8641011693915

>  <inter_energy>  (23) 
-128.24164203579892

>  <intra_energy>  (23) 
14.81047130465085

>  <rmsd>  (23) 
12.9908

>  <sdf_rank>  (23) 
0

$$$$

     RDKit          3D

 34 36  0  0  0  0  0  0  0  0999 V2000
  -18.4454  -18.6697    7.9440 O   0  0  0  0  0  0  0  0  0  0  0  0
  -17.9632  -17.3715    8.2841 C   0  0  0  0  0  0  0  0  0  0  0  0
  -18.3630  -16.3723    7.2077 C   0  0  1  0  0  0  0  0  0  0  0  0
  -17.3738  -15.2978    6.9850 N   0  0  0  0  0  0  0  0  0  0  0  0
  -18.5291  -16.9602    5.8063 C   0  0  1  0  0  0  0  0  0  0  0  0
  -19.6103  -16.3599    5.1020 O   0  0  0  0  0  0  0  0  0  0  0  0
  -17.1872  -16.7227    5.0855 C   0  0  1  0  0  0  0  0  0  0  0  0
  -17.3735  -16.1550    3.7941 O   0  0  0  0  0  0  0  0  0  0  0  0
  -16.4116  -15.7274    5.9700 C   0  0  2  0  0  0  0  0  0  0  0  0
  -15.1926  -16.2741    6.6433 C   0  0  0  0  0  0  0  0  0  0  0  0
  -14.4639  -15.7278    7.6598 C   0  0  0  0  0  0  0  0  0  0  0  0
  -13.3392  -16.4727    7.8870 N   0  0  0  0  0  0  0  0  0  0  0  0
  -13.3247  -17.5310    7.0109 C   0  0  0  0  0  0  0  0  0  0  0  0
  -12.4773  -18.6143    6.7289 C   0  0  0  0  0  0  0  0  0  0  0  0
  -11.3465  -18.6943    7.3575 O   0  0  0  0  0  0  0  0  0  0  0  0
  -12.7976  -19.5526    5.8015 N   0  0  0  0  0  0  0  0  0  0  0  0
  -13.9603  -19.4232    5.1163 C   0  0  0  0  0  0  0  0  0  0  0  0
  -14.8182  -18.3877    5.2892 N   0  0  0  0  0  0  0  0  0  0  0  0
  -14.4855  -17.4597    6.2220 C   0  0  0  0  0  0  0  0  0  0  0  0
  -18.6345  -19.1788    8.7718 H   0  0  0  0  0  0  0  0  0  0  0  0
  -18.3954  -17.0626    9.2473 H   0  0  0  0  0  0  0  0  0  0  0  0
  -16.8663  -17.4012    8.3614 H   0  0  0  0  0  0  0  0  0  0  0  0
  -19.3146  -16.0099    7.6239 H   0  0  0  0  0  0  0  0  0  0  0  0
  -17.8569  -14.4471    6.6627 H   0  0  0  0  0  0  0  0  0  0  0  0
  -16.8790  -15.0971    7.8658 H   0  0  0  0  0  0  0  0  0  0  0  0
  -18.7737  -18.0315    5.8574 H   0  0  0  0  0  0  0  0  0  0  0  0
  -20.2648  -15.9965    5.7498 H   0  0  0  0  0  0  0  0  0  0  0  0
  -16.6550  -17.6746    4.9422 H   0  0  0  0  0  0  0  0  0  0  0  0
  -17.6809  -15.2185    3.8866 H   0  0  0  0  0  0  0  0  0  0  0  0
  -16.0229  -14.9214    5.3302 H   0  0  0  0  0  0  0  0  0  0  0  0
  -14.7408  -14.8200    8.2159 H   0  0  0  0  0  0  0  0  0  0  0  0
  -12.6213  -16.2730    8.5980 H   0  0  0  0  0  0  0  0  0  0  0  0
  -10.7317  -19.4488    7.1761 H   0  0  0  0  0  0  0  0  0  0  0  0
  -14.2213  -20.1991    4.3815 H   0  0  0  0  0  0  0  0  0  0  0  0
  1  2  1  0
  3  2  1  0
  3  4  1  0
  3  5  1  0
  4  9  1  0
  5  6  1  0
  5  7  1  0
  7  8  1  0
  7  9  1  0
  9 10  1  0
 10 11  2  0
 10 19  1  0
 11 12  1  0
 12 13  1  0
 13 14  2  0
 13 19  1  0
 14 15  1  0
 14 16  1  0
 16 17  2  0
 17 18  1  0
 18 19  2  0
  1 20  1  0
  2 21  1  0
  2 22  1  0
  3 23  1  1
  4 24  1  0
  4 25  1  0
  5 26  1  1
  6 27  1  0
  7 28  1  6
  8 29  1  0
  9 30  1  6
 11 31  1  0
 12 32  1  0
 15 33  1  0
 17 34  1  0
M  CHG  1   4   1
M  END
>  <filename_input>  (24) 
6ZK5_IMH_docked.sdf

>  <pdb_id>  (24) 
6ZK5_IMH

>  <pose_rank>  (24) 
23

>  <num_atoms_heavy>  (24) 
19

>  <num_torsions>  (24) 
2

>  <pose>  (24) 
[-15.192607263770995, -16.274094208486666, 6.643289538745073, 5.525388340198226, -0.5824226032697218, -0.2595326798646102, 3.2362817680037312, -3.3641882654249864]

>  <energy>  (24) 
-122.07698396441083

>  <inter_energy>  (24) 
-131.57536571860868

>  <intra_energy>  (24) 
19.068067035633014

>  <rmsd>  (24) 
12.0643

>  <sdf_rank>  (24) 
0

$$$$

     RDKit          3D

 34 36  0  0  0  0  0  0  0  0999 V2000
   -3.6686    0.2042   -7.7234 O   0  0  0  0  0  0  0  0  0  0  0  0
   -2.6980   -0.5438   -6.9941 C   0  0  0  0  0  0  0  0  0  0  0  0
   -3.3011   -1.0393   -5.6873 C   0  0  1  0  0  0  0  0  0  0  0  0
   -4.6697   -1.5792   -5.8213 N   0  0  0  0  0  0  0  0  0  0  0  0
   -2.5548   -2.1986   -5.0268 C   0  0  1  0  0  0  0  0  0  0  0  0
   -2.5431   -2.0848   -3.6083 O   0  0  0  0  0  0  0  0  0  0  0  0
   -3.2776   -3.4820   -5.4822 C   0  0  1  0  0  0  0  0  0  0  0  0
   -3.5660   -4.3436   -4.3873 O   0  0  0  0  0  0  0  0  0  0  0  0
   -4.5995   -3.0101   -6.1183 C   0  0  2  0  0  0  0  0  0  0  0  0
   -4.7161   -3.2155   -7.5956 C   0  0  0  0  0  0  0  0  0  0  0  0
   -3.7898   -3.7219   -8.4607 C   0  0  0  0  0  0  0  0  0  0  0  0
   -4.2345   -3.6049   -9.7491 N   0  0  0  0  0  0  0  0  0  0  0  0
   -5.4759   -3.0164   -9.7373 C   0  0  0  0  0  0  0  0  0  0  0  0
   -6.4304   -2.6222  -10.6884 C   0  0  0  0  0  0  0  0  0  0  0  0
   -6.1341   -2.7358  -11.9452 O   0  0  0  0  0  0  0  0  0  0  0  0
   -7.6310   -2.1022  -10.3262 N   0  0  0  0  0  0  0  0  0  0  0  0
   -7.9022   -1.9418   -9.0075 C   0  0  0  0  0  0  0  0  0  0  0  0
   -7.0251   -2.2520   -8.0213 N   0  0  0  0  0  0  0  0  0  0  0  0
   -5.8305   -2.7736   -8.3993 C   0  0  0  0  0  0  0  0  0  0  0  0
   -4.2714    0.6687   -7.0901 H   0  0  0  0  0  0  0  0  0  0  0  0
   -2.3738   -1.4055   -7.5960 H   0  0  0  0  0  0  0  0  0  0  0  0
   -1.8347    0.1011   -6.7731 H   0  0  0  0  0  0  0  0  0  0  0  0
   -3.2525   -0.1170   -5.0897 H   0  0  0  0  0  0  0  0  0  0  0  0
   -5.1838   -1.4357   -4.9404 H   0  0  0  0  0  0  0  0  0  0  0  0
   -5.1589   -1.0923   -6.5859 H   0  0  0  0  0  0  0  0  0  0  0  0
   -1.4966   -2.2052   -5.3273 H   0  0  0  0  0  0  0  0  0  0  0  0
   -2.6354   -2.9839   -3.2043 H   0  0  0  0  0  0  0  0  0  0  0  0
   -2.6453   -4.0516   -6.1791 H   0  0  0  0  0  0  0  0  0  0  0  0
   -3.4049   -3.8624   -3.5373 H   0  0  0  0  0  0  0  0  0  0  0  0
   -5.4214   -3.6104   -5.7009 H   0  0  0  0  0  0  0  0  0  0  0  0
   -2.8254   -4.1605   -8.1648 H   0  0  0  0  0  0  0  0  0  0  0  0
   -3.7227   -3.9083  -10.5899 H   0  0  0  0  0  0  0  0  0  0  0  0
   -6.7903   -2.4645  -12.6350 H   0  0  0  0  0  0  0  0  0  0  0  0
   -8.8854   -1.5389   -8.7229 H   0  0  0  0  0  0  0  0  0  0  0  0
  1  2  1  0
  3  2  1  0
  3  4  1  0
  3  5  1  0
  4  9  1  0
  5  6  1  0
  5  7  1  0
  7  8  1  0
  7  9  1  0
  9 10  1  0
 10 11  2  0
 10 19  1  0
 11 12  1  0
 12 13  1  0
 13 14  2  0
 13 19  1  0
 14 15  1  0
 14 16  1  0
 16 17  2  0
 17 18  1  0
 18 19  2  0
  1 20  1  0
  2 21  1  0
  2 22  1  0
  3 23  1  1
  4 24  1  0
  4 25  1  0
  5 26  1  6
  6 27  1  0
  7 28  1  6
  8 29  1  0
  9 30  1  1
 11 31  1  0
 12 32  1  0
 15 33  1  0
 17 34  1  0
M  CHG  1   4   1
M  END
>  <filename_input>  (25) 
6ZK5_IMH_docked.sdf

>  <pdb_id>  (25) 
6ZK5_IMH

>  <pose_rank>  (25) 
24

>  <num_atoms_heavy>  (25) 
19

>  <num_torsions>  (25) 
2

>  <pose>  (25) 
[-4.716077738026422, -3.215524966476358, -7.595551997143399, -2.329068698910445, -3.9321934065800384, 0.08895052435641781, -0.18614313031072416, -0.054803324863301896]

>  <energy>  (25) 
-109.44909549637684

>  <inter_energy>  (25) 
-110.38077385103773

>  <intra_energy>  (25) 
3.3862003314166342

>  <rmsd>  (25) 
12.7689

>  <sdf_rank>  (25) 
0

$$$$

     RDKit          3D

 34 36  0  0  0  0  0  0  0  0999 V2000
  -11.1860   -7.4700   -2.9370 O   0  0  0  0  0  0  0  0  0  0  0  0
  -11.8870   -7.0240   -1.7780 C   0  0  0  0  0  0  0  0  0  0  0  0
  -13.3870   -7.0610   -2.0340 C   0  0  1  0  0  0  0  0  0  0  0  0
  -13.8610   -8.3120   -2.6610 N   0  0  0  0  0  0  0  0  0  0  0  0
  -14.2610   -6.9700   -0.7830 C   0  0  1  0  0  0  0  0  0  0  0  0
  -15.4350   -6.1980   -1.0090 O   0  0  0  0  0  0  0  0  0  0  0  0
  -14.6080   -8.4230   -0.4020 C   0  0  1  0  0  0  0  0  0  0  0  0
  -16.0000   -8.5880   -0.1580 O   0  0  0  0  0  0  0  0  0  0  0  0
  -14.2010   -9.2790   -1.6170 C   0  0  2  0  0  0  0  0  0  0  0  0
  -13.0430  -10.2010   -1.4000 C   0  0  0  0  0  0  0  0  0  0  0  0
  -12.3960  -10.4960   -0.2350 C   0  0  0  0  0  0  0  0  0  0  0  0
  -11.2970  -11.2700   -0.4890 N   0  0  0  0  0  0  0  0  0  0  0  0
  -11.2170  -11.4950   -1.8420 C   0  0  0  0  0  0  0  0  0  0  0  0
  -10.3550  -12.1750   -2.7170 C   0  0  0  0  0  0  0  0  0  0  0  0
   -9.2790  -12.7110   -2.2320 O   0  0  0  0  0  0  0  0  0  0  0  0
  -10.6040  -12.2570   -4.0490 N   0  0  0  0  0  0  0  0  0  0  0  0
  -11.7070  -11.6450   -4.5460 C   0  0  0  0  0  0  0  0  0  0  0  0
  -12.5710  -10.9290   -3.7850 N   0  0  0  0  0  0  0  0  0  0  0  0
  -12.3100  -10.8590   -2.4550 C   0  0  0  0  0  0  0  0  0  0  0  0
  -10.3838   -7.9804   -2.6614 H   0  0  0  0  0  0  0  0  0  0  0  0
  -11.6453   -7.6816   -0.9299 H   0  0  0  0  0  0  0  0  0  0  0  0
  -11.5844   -5.9922   -1.5462 H   0  0  0  0  0  0  0  0  0  0  0  0
  -13.4944   -6.1796   -2.6834 H   0  0  0  0  0  0  0  0  0  0  0  0
  -14.6951   -8.1156   -3.2326 H   0  0  0  0  0  0  0  0  0  0  0  0
  -13.1188   -8.6994   -3.2609 H   0  0  0  0  0  0  0  0  0  0  0  0
  -13.7276   -6.4575    0.0311 H   0  0  0  0  0  0  0  0  0  0  0  0
  -15.8311   -5.9376   -0.1399 H   0  0  0  0  0  0  0  0  0  0  0  0
  -14.0852   -8.7126    0.5215 H   0  0  0  0  0  0  0  0  0  0  0  0
  -16.1639   -8.6074    0.8182 H   0  0  0  0  0  0  0  0  0  0  0  0
  -15.0346   -9.9529   -1.8640 H   0  0  0  0  0  0  0  0  0  0  0  0
  -12.7124  -10.1601    0.7635 H   0  0  0  0  0  0  0  0  0  0  0  0
  -10.6378  -11.6257    0.2180 H   0  0  0  0  0  0  0  0  0  0  0  0
   -8.6552  -13.1958   -2.8287 H   0  0  0  0  0  0  0  0  0  0  0  0
  -11.9117  -11.7340   -5.6231 H   0  0  0  0  0  0  0  0  0  0  0  0
  1  2  1  0
  3  2  1  0
  3  4  1  0
  3  5  1  0
  4  9  1  0
  5  6  1  0
  5  7  1  0
  7  8  1  0
  7  9  1  0
  9 10  1  0
 10 11  2  0
 10 19  1  0
 11 12  1  0
 12 13  1  0
 13 14  2  0
 13 19  1  0
 14 15  1  0
 14 16  1  0
 16 17  2  0
 17 18  1  0
 18 19  2  0
  1 20  1  0
  2 21  1  0
  2 22  1  0
  3 23  1  6
  4 24  1  0
  4 25  1  0
  5 26  1  1
  6 27  1  0
  7 28  1  1
  8 29  1  0
  9 30  1  6
 11 31  1  0
 12 32  1  0
 15 33  1  0
 17 34  1  0
M  CHG  1   4   1
M  END
>  <filename_input>  (26) 
6ZK5_IMH_docked.sdf

>  <pdb_id>  (26) 
6ZK5_IMH

>  <pose_rank>  (26) 
25

>  <num_atoms_heavy>  (26) 
19

>  <num_torsions>  (26) 
2

>  <pose>  (26) 
[-13.043, -10.201, -1.4, 1e-06, 1e-06, 1e-06, 0.0, 0.0]

>  <energy>  (26) 
-815.0310006866057

>  <inter_energy>  (26) 
-823.9401449891975

>  <intra_energy>  (26) 
6.720785972035556

>  <rmsd>  (26) 
0.0

>  <sdf_rank>  (26) 
0

$$$$
