
     RDKit          3D

 31 33  0  0  0  0  0  0  0  0999 V2000
   -3.6758   20.9043   -8.0703 O   0  0  0  0  0  0  0  0  0  0  0  0
   -3.3431   19.5275   -8.0342 C   0  0  0  0  0  0  0  0  0  0  0  0
   -4.4398   18.7433   -7.3692 C   0  0  1  0  0  0  0  0  0  0  0  0
   -5.6222   18.8205   -8.1927 O   0  0  0  0  0  0  0  0  0  0  0  0
   -5.9733   17.5323   -8.6670 C   0  0  1  0  0  0  0  0  0  0  0  0
   -6.4405   17.6794  -10.0394 N   0  0  0  0  0  0  0  0  0  0  0  0
   -7.5427   17.0807  -10.6035 C   0  0  0  0  0  0  0  0  0  0  0  0
   -8.3350   16.1510  -10.0581 N   0  0  0  0  0  0  0  0  0  0  0  0
   -9.3361   15.8276  -10.8833 C   0  0  0  0  0  0  0  0  0  0  0  0
   -9.5969   16.2972  -12.1123 N   0  0  0  0  0  0  0  0  0  0  0  0
   -8.7701   17.2293  -12.6416 C   0  0  0  0  0  0  0  0  0  0  0  0
   -9.0267   17.6856  -13.8772 N   0  0  0  0  0  0  0  0  0  0  0  0
   -7.6803   17.6551  -11.8597 C   0  0  0  0  0  0  0  0  0  0  0  0
   -6.6659   18.5721  -12.0934 N   0  0  0  0  0  0  0  0  0  0  0  0
   -5.9618   18.5446  -10.9872 C   0  0  0  0  0  0  0  0  0  0  0  0
   -4.7382   16.6613   -8.4729 C   0  0  0  0  0  0  0  0  0  0  0  0
   -4.1447   17.2496   -7.2021 C   0  0  2  0  0  0  0  0  0  0  0  0
   -4.8496   16.7489   -6.0650 O   0  0  0  0  0  0  0  0  0  0  0  0
   -3.7588   21.2481   -7.1456 H   0  0  0  0  0  0  0  0  0  0  0  0
   -3.2062   19.1601   -9.0620 H   0  0  0  0  0  0  0  0  0  0  0  0
   -2.4130   19.3989   -7.4612 H   0  0  0  0  0  0  0  0  0  0  0  0
   -4.5536   19.1859   -6.3686 H   0  0  0  0  0  0  0  0  0  0  0  0
   -6.7988   17.0418   -8.1304 H   0  0  0  0  0  0  0  0  0  0  0  0
  -10.0415   15.0743  -10.5025 H   0  0  0  0  0  0  0  0  0  0  0  0
   -8.4125   18.3949  -14.3021 H   0  0  0  0  0  0  0  0  0  0  0  0
   -9.8379   17.3266  -14.4006 H   0  0  0  0  0  0  0  0  0  0  0  0
   -5.0648   19.1626  -10.8340 H   0  0  0  0  0  0  0  0  0  0  0  0
   -5.0101   15.6041   -8.3367 H   0  0  0  0  0  0  0  0  0  0  0  0
   -4.0497   16.6639   -9.3308 H   0  0  0  0  0  0  0  0  0  0  0  0
   -3.0802   17.0145   -7.0551 H   0  0  0  0  0  0  0  0  0  0  0  0
   -4.4067   17.0635   -5.2373 H   0  0  0  0  0  0  0  0  0  0  0  0
  1  2  1  0
  3  2  1  0
  3  4  1  0
  3 17  1  0
  4  5  1  0
  5  6  1  0
  5 16  1  0
  6  7  1  0
  6 15  1  0
  7  8  2  0
  7 13  1  0
  8  9  1  0
  9 10  2  0
 10 11  1  0
 11 12  1  0
 11 13  2  0
 13 14  1  0
 14 15  2  0
 16 17  1  0
 17 18  1  0
  1 19  1  0
  2 20  1  0
  2 21  1  0
  3 22  1  1
  5 23  1  1
  9 24  1  0
 12 25  1  0
 12 26  1  0
 15 27  1  0
 16 28  1  0
 16 29  1  0
 17 30  1  1
 18 31  1  0
M  END
>  <filename_input>  (1) 
6ZPB_3D1_docked.sdf

>  <pdb_id>  (1) 
6ZPB_3D1

>  <pose_rank>  (1) 
0

>  <num_atoms_heavy>  (1) 
18

>  <num_torsions>  (1) 
2

>  <pose>  (1) 
[-6.4404936399964825, 17.679352687950114, -10.039406672167535, 4.195180969907708, 4.596937043253183, 0.45484764304637937, -0.6624008710513581, -1.8865715946093984]

>  <energy>  (1) 
-587.8894352063899

>  <inter_energy>  (1) 
-581.9348673151395

>  <intra_energy>  (1) 
0.0

>  <rmsd>  (1) 
1.01662

>  <sdf_rank>  (1) 
0

$$$$

     RDKit          3D

 31 33  0  0  0  0  0  0  0  0999 V2000
   -2.9092   16.2428   -6.1426 O   0  0  0  0  0  0  0  0  0  0  0  0
   -3.8950   17.1656   -6.5720 C   0  0  0  0  0  0  0  0  0  0  0  0
   -3.2815   18.2042   -7.4692 C   0  0  1  0  0  0  0  0  0  0  0  0
   -3.7287   17.9643   -8.8200 O   0  0  0  0  0  0  0  0  0  0  0  0
   -4.4993   19.0599   -9.2823 C   0  0  1  0  0  0  0  0  0  0  0  0
   -5.5959   18.5238  -10.0781 N   0  0  0  0  0  0  0  0  0  0  0  0
   -6.4348   17.4895   -9.7346 C   0  0  0  0  0  0  0  0  0  0  0  0
   -6.3439   16.6843   -8.6702 N   0  0  0  0  0  0  0  0  0  0  0  0
   -7.3589   15.8145   -8.6367 C   0  0  0  0  0  0  0  0  0  0  0  0
   -8.3726   15.6725   -9.5034 N   0  0  0  0  0  0  0  0  0  0  0  0
   -8.4307   16.4950  -10.5771 C   0  0  0  0  0  0  0  0  0  0  0  0
   -9.4387   16.3398  -11.4491 N   0  0  0  0  0  0  0  0  0  0  0  0
   -7.4164   17.4606  -10.7157 C   0  0  0  0  0  0  0  0  0  0  0  0
   -7.1806   18.4354  -11.6741 N   0  0  0  0  0  0  0  0  0  0  0  0
   -6.0925   19.0317  -11.2492 C   0  0  0  0  0  0  0  0  0  0  0  0
   -4.8994   19.8468   -8.0402 C   0  0  0  0  0  0  0  0  0  0  0  0
   -3.6860   19.6456   -7.1456 C   0  0  2  0  0  0  0  0  0  0  0  0
   -2.6413   20.5346   -7.5443 O   0  0  0  0  0  0  0  0  0  0  0  0
   -2.8862   16.2212   -5.1531 H   0  0  0  0  0  0  0  0  0  0  0  0
   -4.6800   16.6275   -7.1237 H   0  0  0  0  0  0  0  0  0  0  0  0
   -4.3272   17.6633   -5.6914 H   0  0  0  0  0  0  0  0  0  0  0  0
   -2.1947   18.1113   -7.3273 H   0  0  0  0  0  0  0  0  0  0  0  0
   -3.9720   19.7588   -9.9482 H   0  0  0  0  0  0  0  0  0  0  0  0
   -7.3631   15.1216   -7.7824 H   0  0  0  0  0  0  0  0  0  0  0  0
   -9.5051   16.9531  -12.2740 H   0  0  0  0  0  0  0  0  0  0  0  0
  -10.1460   15.6074  -11.2937 H   0  0  0  0  0  0  0  0  0  0  0  0
   -5.6198   19.8670  -11.7866 H   0  0  0  0  0  0  0  0  0  0  0  0
   -5.0549   20.9108   -8.2722 H   0  0  0  0  0  0  0  0  0  0  0  0
   -5.8472   19.5184   -7.5888 H   0  0  0  0  0  0  0  0  0  0  0  0
   -3.8813   19.8300   -6.0789 H   0  0  0  0  0  0  0  0  0  0  0  0
   -2.2015   20.9088   -6.7402 H   0  0  0  0  0  0  0  0  0  0  0  0
  1  2  1  0
  3  2  1  0
  3  4  1  0
  3 17  1  0
  4  5  1  0
  5  6  1  0
  5 16  1  0
  6  7  1  0
  6 15  1  0
  7  8  2  0
  7 13  1  0
  8  9  1  0
  9 10  2  0
 10 11  1  0
 11 12  1  0
 11 13  2  0
 13 14  1  0
 14 15  2  0
 16 17  1  0
 17 18  1  0
  1 19  1  0
  2 20  1  0
  2 21  1  0
  3 22  1  6
  5 23  1  6
  9 24  1  0
 12 25  1  0
 12 26  1  0
 15 27  1  0
 16 28  1  0
 16 29  1  0
 17 30  1  1
 18 31  1  0
M  END
>  <filename_input>  (2) 
6ZPB_3D1_docked.sdf

>  <pdb_id>  (2) 
6ZPB_3D1

>  <pose_rank>  (2) 
1

>  <num_atoms_heavy>  (2) 
18

>  <num_torsions>  (2) 
2

>  <pose>  (2) 
[-5.595865584235985, 18.523764527381424, -10.078092957940358, -0.3377983952976454, 0.5824398793886726, 0.39952513428416875, -3.7358979897865305, 5.14586663607297]

>  <energy>  (2) 
-527.8969392848884

>  <inter_energy>  (2) 
-535.876300528559

>  <intra_energy>  (2) 
17.04715530073752

>  <rmsd>  (2) 
2.42713

>  <sdf_rank>  (2) 
0

$$$$

     RDKit          3D

 31 33  0  0  0  0  0  0  0  0999 V2000
   -4.9430   19.9830   -6.6694 O   0  0  0  0  0  0  0  0  0  0  0  0
   -4.6638   18.6166   -6.4193 C   0  0  0  0  0  0  0  0  0  0  0  0
   -3.9780   17.9988   -7.6059 C   0  0  1  0  0  0  0  0  0  0  0  0
   -4.8539   17.0022   -8.1733 O   0  0  0  0  0  0  0  0  0  0  0  0
   -5.2260   17.3703   -9.4900 C   0  0  1  0  0  0  0  0  0  0  0  0
   -6.6243   17.0034   -9.6726 N   0  0  0  0  0  0  0  0  0  0  0  0
   -7.3384   17.0357  -10.8475 C   0  0  0  0  0  0  0  0  0  0  0  0
   -6.9441   17.5243  -12.0288 N   0  0  0  0  0  0  0  0  0  0  0  0
   -7.8871   17.3505  -12.9605 C   0  0  0  0  0  0  0  0  0  0  0  0
   -9.0992   16.7900  -12.8348 N   0  0  0  0  0  0  0  0  0  0  0  0
   -9.4739   16.3150  -11.6238 C   0  0  0  0  0  0  0  0  0  0  0  0
  -10.6929   15.7681  -11.4994 N   0  0  0  0  0  0  0  0  0  0  0  0
   -8.5574   16.4359  -10.5627 C   0  0  0  0  0  0  0  0  0  0  0  0
   -8.6209   16.0640   -9.2277 N   0  0  0  0  0  0  0  0  0  0  0  0
   -7.4542   16.4247   -8.7493 C   0  0  0  0  0  0  0  0  0  0  0  0
   -4.9036   18.8541   -9.6192 C   0  0  0  0  0  0  0  0  0  0  0  0
   -3.6666   18.9765   -8.7429 C   0  0  2  0  0  0  0  0  0  0  0  0
   -2.5199   18.5208   -9.4626 O   0  0  0  0  0  0  0  0  0  0  0  0
   -5.0410   20.4627   -5.8089 H   0  0  0  0  0  0  0  0  0  0  0  0
   -4.0094   18.5351   -5.5388 H   0  0  0  0  0  0  0  0  0  0  0  0
   -5.6097   18.0857   -6.2360 H   0  0  0  0  0  0  0  0  0  0  0  0
   -3.0265   17.6018   -7.2226 H   0  0  0  0  0  0  0  0  0  0  0  0
   -4.6828   16.8533  -10.2948 H   0  0  0  0  0  0  0  0  0  0  0  0
   -7.6347   17.7168  -13.9665 H   0  0  0  0  0  0  0  0  0  0  0  0
  -11.0015   15.3995  -10.5884 H   0  0  0  0  0  0  0  0  0  0  0  0
  -11.3200   15.7168  -12.3149 H   0  0  0  0  0  0  0  0  0  0  0  0
   -7.1672   16.2753   -7.6980 H   0  0  0  0  0  0  0  0  0  0  0  0
   -4.6854   19.1280  -10.6620 H   0  0  0  0  0  0  0  0  0  0  0  0
   -5.7289   19.5184   -9.3232 H   0  0  0  0  0  0  0  0  0  0  0  0
   -3.4549   20.0031   -8.4090 H   0  0  0  0  0  0  0  0  0  0  0  0
   -1.8180   18.2418   -8.8226 H   0  0  0  0  0  0  0  0  0  0  0  0
  1  2  1  0
  3  2  1  0
  3  4  1  0
  3 17  1  0
  4  5  1  0
  5  6  1  0
  5 16  1  0
  6  7  1  0
  6 15  1  0
  7  8  2  0
  7 13  1  0
  8  9  1  0
  9 10  2  0
 10 11  1  0
 11 12  1  0
 11 13  2  0
 13 14  1  0
 14 15  2  0
 16 17  1  0
 17 18  1  0
  1 19  1  0
  2 20  1  0
  2 21  1  0
  3 22  1  1
  5 23  1  6
  9 24  1  0
 12 25  1  0
 12 26  1  0
 15 27  1  0
 16 28  1  0
 16 29  1  0
 17 30  1  1
 18 31  1  0
M  END
>  <filename_input>  (3) 
6ZPB_3D1_docked.sdf

>  <pdb_id>  (3) 
6ZPB_3D1

>  <pose_rank>  (3) 
2

>  <num_atoms_heavy>  (3) 
18

>  <num_torsions>  (3) 
2

>  <pose>  (3) 
[-6.624314758949193, 17.003406550025765, -9.672566745822598, 2.101854895966673, 0.4790104531460355, 1.8208234671222312, -1.2820593325682446, 1.2576125830551617]

>  <energy>  (3) 
-609.1081984850994

>  <inter_energy>  (3) 
-604.5872973098049

>  <intra_energy>  (3) 
8.092850114911467

>  <rmsd>  (3) 
2.53314

>  <sdf_rank>  (3) 
0

$$$$

     RDKit          3D

 31 33  0  0  0  0  0  0  0  0999 V2000
   -5.3179   20.0472   -7.1679 O   0  0  0  0  0  0  0  0  0  0  0  0
   -3.9869   20.5247   -7.2579 C   0  0  0  0  0  0  0  0  0  0  0  0
   -3.0998   19.4824   -7.8797 C   0  0  1  0  0  0  0  0  0  0  0  0
   -3.9343   18.4822   -8.5006 O   0  0  0  0  0  0  0  0  0  0  0  0
   -3.7185   18.4653   -9.9010 C   0  0  1  0  0  0  0  0  0  0  0  0
   -5.0077   18.2464  -10.5438 N   0  0  0  0  0  0  0  0  0  0  0  0
   -6.0688   17.5308  -10.0404 C   0  0  0  0  0  0  0  0  0  0  0  0
   -6.0979   16.7884   -8.9279 N   0  0  0  0  0  0  0  0  0  0  0  0
   -7.3131   16.2675   -8.7286 C   0  0  0  0  0  0  0  0  0  0  0  0
   -8.4158   16.3954   -9.4814 N   0  0  0  0  0  0  0  0  0  0  0  0
   -8.3516   17.1440  -10.6075 C   0  0  0  0  0  0  0  0  0  0  0  0
   -9.4534   17.2573  -11.3651 N   0  0  0  0  0  0  0  0  0  0  0  0
   -7.1208   17.7512  -10.9188 C   0  0  0  0  0  0  0  0  0  0  0  0
   -6.7198   18.5620  -11.9706 N   0  0  0  0  0  0  0  0  0  0  0  0
   -5.4632   18.8226  -11.6999 C   0  0  0  0  0  0  0  0  0  0  0  0
   -3.0212   19.7784  -10.2352 C   0  0  0  0  0  0  0  0  0  0  0  0
   -2.1810   20.0056   -8.9878 C   0  0  2  0  0  0  0  0  0  0  0  0
   -1.0020   19.2013   -9.0486 O   0  0  0  0  0  0  0  0  0  0  0  0
   -5.5721   19.9560   -6.2155 H   0  0  0  0  0  0  0  0  0  0  0  0
   -3.9685   21.4334   -7.8775 H   0  0  0  0  0  0  0  0  0  0  0  0
   -3.6186   20.7509   -6.2464 H   0  0  0  0  0  0  0  0  0  0  0  0
   -2.4707   19.1041   -7.0605 H   0  0  0  0  0  0  0  0  0  0  0  0
   -3.0700   17.6560  -10.2677 H   0  0  0  0  0  0  0  0  0  0  0  0
   -7.4234   15.6504   -7.8248 H   0  0  0  0  0  0  0  0  0  0  0  0
   -9.4302   17.8213  -12.2267 H   0  0  0  0  0  0  0  0  0  0  0  0
  -10.3223   16.7805  -11.0850 H   0  0  0  0  0  0  0  0  0  0  0  0
   -4.8303   19.4496  -12.3451 H   0  0  0  0  0  0  0  0  0  0  0  0
   -2.3908   19.6812  -11.1314 H   0  0  0  0  0  0  0  0  0  0  0  0
   -3.7100   20.6041  -10.4669 H   0  0  0  0  0  0  0  0  0  0  0  0
   -1.8577   21.0480   -8.8502 H   0  0  0  0  0  0  0  0  0  0  0  0
   -0.6968   18.9932   -8.1301 H   0  0  0  0  0  0  0  0  0  0  0  0
  1  2  1  0
  3  2  1  0
  3  4  1  0
  3 17  1  0
  4  5  1  0
  5  6  1  0
  5 16  1  0
  6  7  1  0
  6 15  1  0
  7  8  2  0
  7 13  1  0
  8  9  1  0
  9 10  2  0
 10 11  1  0
 11 12  1  0
 11 13  2  0
 13 14  1  0
 14 15  2  0
 16 17  1  0
 17 18  1  0
  1 19  1  0
  2 20  1  0
  2 21  1  0
  3 22  1  1
  5 23  1  1
  9 24  1  0
 12 25  1  0
 12 26  1  0
 15 27  1  0
 16 28  1  0
 16 29  1  0
 17 30  1  1
 18 31  1  0
M  END
>  <filename_input>  (4) 
6ZPB_3D1_docked.sdf

>  <pdb_id>  (4) 
6ZPB_3D1

>  <pose_rank>  (4) 
3

>  <num_atoms_heavy>  (4) 
18

>  <num_torsions>  (4) 
2

>  <pose>  (4) 
[-5.007668307239799, 18.24635667653011, -10.54381082427636, -0.28669917783811394, 0.7399033383250772, 0.10686557017583306, 7.457756670072345, -2.7696261815236936]

>  <energy>  (4) 
-551.2469653037361

>  <inter_energy>  (4) 
-558.1722065426833

>  <intra_energy>  (4) 
15.627135914979307

>  <rmsd>  (4) 
2.33717

>  <sdf_rank>  (4) 
0

$$$$

     RDKit          3D

 31 33  0  0  0  0  0  0  0  0999 V2000
   -9.8444   17.5285  -14.0834 O   0  0  0  0  0  0  0  0  0  0  0  0
   -8.9117   17.8456  -13.0650 C   0  0  0  0  0  0  0  0  0  0  0  0
   -8.7039   16.6624  -12.1612 C   0  0  1  0  0  0  0  0  0  0  0  0
   -7.3551   16.7076  -11.6504 O   0  0  0  0  0  0  0  0  0  0  0  0
   -7.3700   16.8677  -10.2426 C   0  0  1  0  0  0  0  0  0  0  0  0
   -6.2781   17.7655   -9.8889 N   0  0  0  0  0  0  0  0  0  0  0  0
   -5.7010   17.9129   -8.6493 C   0  0  0  0  0  0  0  0  0  0  0  0
   -6.0971   17.3660   -7.4945 N   0  0  0  0  0  0  0  0  0  0  0  0
   -5.2719   17.6983   -6.4964 C   0  0  0  0  0  0  0  0  0  0  0  0
   -4.1790   18.4751   -6.5332 N   0  0  0  0  0  0  0  0  0  0  0  0
   -3.8102   19.0236   -7.7146 C   0  0  0  0  0  0  0  0  0  0  0  0
   -2.7244   19.8116   -7.7438 N   0  0  0  0  0  0  0  0  0  0  0  0
   -4.6016   18.7380   -8.8427 C   0  0  0  0  0  0  0  0  0  0  0  0
   -4.5087   19.1279  -10.1708 N   0  0  0  0  0  0  0  0  0  0  0  0
   -5.5246   18.5268  -10.7424 C   0  0  0  0  0  0  0  0  0  0  0  0
   -8.7714   17.3503   -9.8887 C   0  0  0  0  0  0  0  0  0  0  0  0
   -9.6152   16.6322  -10.9305 C   0  0  2  0  0  0  0  0  0  0  0  0
   -9.8274   15.2781  -10.5279 O   0  0  0  0  0  0  0  0  0  0  0  0
  -10.6968   17.2387  -13.6715 H   0  0  0  0  0  0  0  0  0  0  0  0
   -7.9521   18.1235  -13.5255 H   0  0  0  0  0  0  0  0  0  0  0  0
   -9.3018   18.6854  -12.4712 H   0  0  0  0  0  0  0  0  0  0  0  0
   -8.9270   15.7785  -12.7768 H   0  0  0  0  0  0  0  0  0  0  0  0
   -7.1911   15.9504   -9.6625 H   0  0  0  0  0  0  0  0  0  0  0  0
   -5.5232   17.2776   -5.5116 H   0  0  0  0  0  0  0  0  0  0  0  0
   -2.4233   20.2408   -8.6304 H   0  0  0  0  0  0  0  0  0  0  0  0
   -2.1922   19.9874   -6.8796 H   0  0  0  0  0  0  0  0  0  0  0  0
   -5.7517   18.6255  -11.8142 H   0  0  0  0  0  0  0  0  0  0  0  0
   -9.0531   17.0510   -8.8684 H   0  0  0  0  0  0  0  0  0  0  0  0
   -8.8834   18.4446   -9.8994 H   0  0  0  0  0  0  0  0  0  0  0  0
  -10.6055   17.0831  -11.0921 H   0  0  0  0  0  0  0  0  0  0  0  0
   -9.8357   15.2252   -9.5393 H   0  0  0  0  0  0  0  0  0  0  0  0
  1  2  1  0
  3  2  1  0
  3  4  1  0
  3 17  1  0
  4  5  1  0
  5  6  1  0
  5 16  1  0
  6  7  1  0
  6 15  1  0
  7  8  2  0
  7 13  1  0
  8  9  1  0
  9 10  2  0
 10 11  1  0
 11 12  1  0
 11 13  2  0
 13 14  1  0
 14 15  2  0
 16 17  1  0
 17 18  1  0
  1 19  1  0
  2 20  1  0
  2 21  1  0
  3 22  1  6
  5 23  1  1
  9 24  1  0
 12 25  1  0
 12 26  1  0
 15 27  1  0
 16 28  1  0
 16 29  1  0
 17 30  1  6
 18 31  1  0
M  END
>  <filename_input>  (5) 
6ZPB_3D1_docked.sdf

>  <pdb_id>  (5) 
6ZPB_3D1

>  <pose_rank>  (5) 
4

>  <num_atoms_heavy>  (5) 
18

>  <num_torsions>  (5) 
2

>  <pose>  (5) 
[-6.278125020964322, 17.765456667466566, -9.888855627980595, -1.448896205459429, -1.9823935545279, 2.1897880048841425, -7.380882822948396, -6.702792598853798]

>  <energy>  (5) 
-536.1866366211124

>  <inter_energy>  (5) 
-534.4845138234255

>  <intra_energy>  (5) 
0.3667461816511128

>  <rmsd>  (5) 
5.96829

>  <sdf_rank>  (5) 
0

$$$$

     RDKit          3D

 31 33  0  0  0  0  0  0  0  0999 V2000
   -4.0439   23.1206   -7.8268 O   0  0  0  0  0  0  0  0  0  0  0  0
   -4.3042   21.8115   -7.3511 C   0  0  0  0  0  0  0  0  0  0  0  0
   -3.2542   20.8575   -7.8486 C   0  0  1  0  0  0  0  0  0  0  0  0
   -3.7417   19.5102   -7.6776 O   0  0  0  0  0  0  0  0  0  0  0  0
   -3.8848   18.8779   -8.9375 C   0  0  1  0  0  0  0  0  0  0  0  0
   -5.0923   18.0637   -8.8884 N   0  0  0  0  0  0  0  0  0  0  0  0
   -5.9658   17.8216   -9.9226 C   0  0  0  0  0  0  0  0  0  0  0  0
   -5.9627   18.3761  -11.1400 N   0  0  0  0  0  0  0  0  0  0  0  0
   -6.9392   17.8713  -11.9013 C   0  0  0  0  0  0  0  0  0  0  0  0
   -7.8572   16.9458  -11.5856 N   0  0  0  0  0  0  0  0  0  0  0  0
   -7.8416   16.4115  -10.3419 C   0  0  0  0  0  0  0  0  0  0  0  0
   -8.7708   15.4964  -10.0260 N   0  0  0  0  0  0  0  0  0  0  0  0
   -6.8502   16.8616   -9.4502 C   0  0  0  0  0  0  0  0  0  0  0  0
   -6.5587   16.5314   -8.1347 N   0  0  0  0  0  0  0  0  0  0  0  0
   -5.5137   17.2721   -7.8530 C   0  0  0  0  0  0  0  0  0  0  0  0
   -3.8761   19.9959   -9.9729 C   0  0  0  0  0  0  0  0  0  0  0  0
   -2.9216   20.9950   -9.3374 C   0  0  2  0  0  0  0  0  0  0  0  0
   -1.5726   20.5833   -9.5642 O   0  0  0  0  0  0  0  0  0  0  0  0
   -3.9222   23.7328   -7.0584 H   0  0  0  0  0  0  0  0  0  0  0  0
   -4.2976   21.8171   -6.2512 H   0  0  0  0  0  0  0  0  0  0  0  0
   -5.2878   21.4855   -7.7203 H   0  0  0  0  0  0  0  0  0  0  0  0
   -2.3477   21.0893   -7.2703 H   0  0  0  0  0  0  0  0  0  0  0  0
   -3.0769   18.1827   -9.2100 H   0  0  0  0  0  0  0  0  0  0  0  0
   -6.9975   18.2690  -12.9252 H   0  0  0  0  0  0  0  0  0  0  0  0
   -8.7801   15.0751   -9.0862 H   0  0  0  0  0  0  0  0  0  0  0  0
   -9.4748   15.2154  -10.7234 H   0  0  0  0  0  0  0  0  0  0  0  0
   -5.0188   17.2589   -6.8708 H   0  0  0  0  0  0  0  0  0  0  0  0
   -3.4982   19.6412  -10.9432 H   0  0  0  0  0  0  0  0  0  0  0  0
   -4.8717   20.4075  -10.1949 H   0  0  0  0  0  0  0  0  0  0  0  0
   -3.0200   22.0185   -9.7283 H   0  0  0  0  0  0  0  0  0  0  0  0
   -1.1192   20.4450   -8.6951 H   0  0  0  0  0  0  0  0  0  0  0  0
  1  2  1  0
  3  2  1  0
  3  4  1  0
  3 17  1  0
  4  5  1  0
  5  6  1  0
  5 16  1  0
  6  7  1  0
  6 15  1  0
  7  8  2  0
  7 13  1  0
  8  9  1  0
  9 10  2  0
 10 11  1  0
 11 12  1  0
 11 13  2  0
 13 14  1  0
 14 15  2  0
 16 17  1  0
 17 18  1  0
  1 19  1  0
  2 20  1  0
  2 21  1  0
  3 22  1  1
  5 23  1  6
  9 24  1  0
 12 25  1  0
 12 26  1  0
 15 27  1  0
 16 28  1  0
 16 29  1  0
 17 30  1  6
 18 31  1  0
M  END
>  <filename_input>  (6) 
6ZPB_3D1_docked.sdf

>  <pdb_id>  (6) 
6ZPB_3D1

>  <pose_rank>  (6) 
5

>  <num_atoms_heavy>  (6) 
18

>  <num_torsions>  (6) 
2

>  <pose>  (6) 
[-5.092254325779028, 18.06372994942971, -8.888357964573046, 2.301835014821807, 0.9307178434333097, 1.8078424226924839, -14.593899511477728, 0.39365763055510716]

>  <energy>  (6) 
-525.0096594558424

>  <inter_energy>  (6) 
-552.1096456367169

>  <intra_energy>  (6) 
19.785774301040266

>  <rmsd>  (6) 
3.0391

>  <sdf_rank>  (6) 
0

$$$$

     RDKit          3D

 31 33  0  0  0  0  0  0  0  0999 V2000
   -6.4339   18.0136  -13.7593 O   0  0  0  0  0  0  0  0  0  0  0  0
   -7.2688   18.3049  -12.6521 C   0  0  0  0  0  0  0  0  0  0  0  0
   -7.9531   17.0554  -12.1720 C   0  0  1  0  0  0  0  0  0  0  0  0
   -7.1148   16.4264  -11.1801 O   0  0  0  0  0  0  0  0  0  0  0  0
   -7.7730   16.4047   -9.9255 C   0  0  1  0  0  0  0  0  0  0  0  0
   -6.7732   16.6647   -8.8979 N   0  0  0  0  0  0  0  0  0  0  0  0
   -5.7306   17.5588   -8.9696 C   0  0  0  0  0  0  0  0  0  0  0  0
   -5.3426   18.2764  -10.0298 N   0  0  0  0  0  0  0  0  0  0  0  0
   -4.3134   19.0724   -9.7216 C   0  0  0  0  0  0  0  0  0  0  0  0
   -3.6738   19.2030   -8.5499 N   0  0  0  0  0  0  0  0  0  0  0  0
   -4.0826   18.4547   -7.4985 C   0  0  0  0  0  0  0  0  0  0  0  0
   -3.4305   18.5782   -6.3323 N   0  0  0  0  0  0  0  0  0  0  0  0
   -5.1670   17.5809   -7.7012 C   0  0  0  0  0  0  0  0  0  0  0  0
   -5.8212   16.6943   -6.8584 N   0  0  0  0  0  0  0  0  0  0  0  0
   -6.7587   16.1791   -7.6172 C   0  0  0  0  0  0  0  0  0  0  0  0
   -8.9049   17.4199  -10.0265 C   0  0  0  0  0  0  0  0  0  0  0  0
   -9.3035   17.2903  -11.4886 C   0  0  2  0  0  0  0  0  0  0  0  0
  -10.1317   16.1392  -11.6614 O   0  0  0  0  0  0  0  0  0  0  0  0
   -5.5509   17.7055  -13.4347 H   0  0  0  0  0  0  0  0  0  0  0  0
   -6.6584   18.7205  -11.8368 H   0  0  0  0  0  0  0  0  0  0  0  0
   -8.0317   19.0345  -12.9612 H   0  0  0  0  0  0  0  0  0  0  0  0
   -8.1241   16.4482  -13.0732 H   0  0  0  0  0  0  0  0  0  0  0  0
   -8.2293   15.4426   -9.6497 H   0  0  0  0  0  0  0  0  0  0  0  0
   -3.9408   19.7060  -10.5399 H   0  0  0  0  0  0  0  0  0  0  0  0
   -3.7223   18.0198   -5.5174 H   0  0  0  0  0  0  0  0  0  0  0  0
   -2.6382   19.2314   -6.2519 H   0  0  0  0  0  0  0  0  0  0  0  0
   -7.4714   15.4229   -7.2565 H   0  0  0  0  0  0  0  0  0  0  0  0
   -9.7389   17.1587   -9.3586 H   0  0  0  0  0  0  0  0  0  0  0  0
   -8.6187   18.4397   -9.7298 H   0  0  0  0  0  0  0  0  0  0  0  0
   -9.8614   18.1545  -11.8783 H   0  0  0  0  0  0  0  0  0  0  0  0
  -10.3889   15.7816  -10.7748 H   0  0  0  0  0  0  0  0  0  0  0  0
  1  2  1  0
  3  2  1  0
  3  4  1  0
  3 17  1  0
  4  5  1  0
  5  6  1  0
  5 16  1  0
  6  7  1  0
  6 15  1  0
  7  8  2  0
  7 13  1  0
  8  9  1  0
  9 10  2  0
 10 11  1  0
 11 12  1  0
 11 13  2  0
 13 14  1  0
 14 15  2  0
 16 17  1  0
 17 18  1  0
  1 19  1  0
  2 20  1  0
  2 21  1  0
  3 22  1  6
  5 23  1  1
  9 24  1  0
 12 25  1  0
 12 26  1  0
 15 27  1  0
 16 28  1  0
 16 29  1  0
 17 30  1  6
 18 31  1  0
M  END
>  <filename_input>  (7) 
6ZPB_3D1_docked.sdf

>  <pdb_id>  (7) 
6ZPB_3D1

>  <pose_rank>  (7) 
6

>  <num_atoms_heavy>  (7) 
18

>  <num_torsions>  (7) 
2

>  <pose>  (7) 
[-6.773174734912464, 16.664707367785276, -8.897859827121795, -2.1200925539997497, 2.6906133814541477, 1.261248210330754, 2.4005649368635495, -1.4641950328565678]

>  <energy>  (7) 
-536.8275683491738

>  <inter_energy>  (7) 
-537.0046192304047

>  <intra_energy>  (7) 
20.722266150044824

>  <rmsd>  (7) 
5.91906

>  <sdf_rank>  (7) 
0

$$$$

     RDKit          3D

 31 33  0  0  0  0  0  0  0  0999 V2000
   -7.0817   16.8153   -5.8992 O   0  0  0  0  0  0  0  0  0  0  0  0
   -6.3786   16.1797   -6.9524 C   0  0  0  0  0  0  0  0  0  0  0  0
   -5.2489   17.0512   -7.4258 C   0  0  1  0  0  0  0  0  0  0  0  0
   -5.1017   16.8764   -8.8506 O   0  0  0  0  0  0  0  0  0  0  0  0
   -5.3678   18.0948   -9.5233 C   0  0  1  0  0  0  0  0  0  0  0  0
   -6.0902   17.7746  -10.7475 N   0  0  0  0  0  0  0  0  0  0  0  0
   -7.2837   17.0987  -10.8475 C   0  0  0  0  0  0  0  0  0  0  0  0
   -7.9608   16.4891   -9.8679 N   0  0  0  0  0  0  0  0  0  0  0  0
   -9.1040   15.9679  -10.3251 C   0  0  0  0  0  0  0  0  0  0  0  0
   -9.5946   15.9837  -11.5733 N   0  0  0  0  0  0  0  0  0  0  0  0
   -8.8806   16.5985  -12.5453 C   0  0  0  0  0  0  0  0  0  0  0  0
   -9.3684   16.5993  -13.7954 N   0  0  0  0  0  0  0  0  0  0  0  0
   -7.6581   17.1929  -12.1809 C   0  0  0  0  0  0  0  0  0  0  0  0
   -6.7030   17.8855  -12.9106 N   0  0  0  0  0  0  0  0  0  0  0  0
   -5.7988   18.2035  -12.0153 C   0  0  0  0  0  0  0  0  0  0  0  0
   -6.1076   18.9748   -8.5232 C   0  0  0  0  0  0  0  0  0  0  0  0
   -5.4674   18.5517   -7.2100 C   0  0  2  0  0  0  0  0  0  0  0  0
   -4.2036   19.2005   -7.0596 O   0  0  0  0  0  0  0  0  0  0  0  0
   -6.7308   16.4981   -5.0295 H   0  0  0  0  0  0  0  0  0  0  0  0
   -5.9726   15.2230   -6.5922 H   0  0  0  0  0  0  0  0  0  0  0  0
   -7.0702   16.0041   -7.7896 H   0  0  0  0  0  0  0  0  0  0  0  0
   -4.3722   16.7426   -6.8375 H   0  0  0  0  0  0  0  0  0  0  0  0
   -4.4798   18.6566   -9.8487 H   0  0  0  0  0  0  0  0  0  0  0  0
   -9.7267   15.4569   -9.5759 H   0  0  0  0  0  0  0  0  0  0  0  0
   -8.8440   17.0604  -14.5525 H   0  0  0  0  0  0  0  0  0  0  0  0
  -10.2672   16.1388  -13.9977 H   0  0  0  0  0  0  0  0  0  0  0  0
   -4.8859   18.7656  -12.2612 H   0  0  0  0  0  0  0  0  0  0  0  0
   -5.9385   20.0426   -8.7263 H   0  0  0  0  0  0  0  0  0  0  0  0
   -7.2009   18.8562   -8.5463 H   0  0  0  0  0  0  0  0  0  0  0  0
   -6.0671   18.7964   -6.3209 H   0  0  0  0  0  0  0  0  0  0  0  0
   -3.9991   19.3055   -6.0967 H   0  0  0  0  0  0  0  0  0  0  0  0
  1  2  1  0
  3  2  1  0
  3  4  1  0
  3 17  1  0
  4  5  1  0
  5  6  1  0
  5 16  1  0
  6  7  1  0
  6 15  1  0
  7  8  2  0
  7 13  1  0
  8  9  1  0
  9 10  2  0
 10 11  1  0
 11 12  1  0
 11 13  2  0
 13 14  1  0
 14 15  2  0
 16 17  1  0
 17 18  1  0
  1 19  1  0
  2 20  1  0
  2 21  1  0
  3 22  1  1
  5 23  1  6
  9 24  1  0
 12 25  1  0
 12 26  1  0
 15 27  1  0
 16 28  1  0
 16 29  1  0
 17 30  1  1
 18 31  1  0
M  END
>  <filename_input>  (8) 
6ZPB_3D1_docked.sdf

>  <pdb_id>  (8) 
6ZPB_3D1

>  <pose_rank>  (8) 
7

>  <num_atoms_heavy>  (8) 
18

>  <num_torsions>  (8) 
2

>  <pose>  (8) 
[-6.090218374138928, 17.774637249819943, -10.747516679145516, 5.418526533008484, -2.145639766442131, 0.48465735189728965, 2.7219372753253332, 0.7224399389146264]

>  <energy>  (8) 
-552.6078983631155

>  <inter_energy>  (8) 
-561.5093965264829

>  <intra_energy>  (8) 
13.111384892799956

>  <rmsd>  (8) 
2.28633

>  <sdf_rank>  (8) 
0

$$$$

     RDKit          3D

 31 33  0  0  0  0  0  0  0  0999 V2000
  -10.1269   16.1352  -11.9092 O   0  0  0  0  0  0  0  0  0  0  0  0
   -8.8269   16.4764  -11.4604 C   0  0  0  0  0  0  0  0  0  0  0  0
   -8.4224   17.8178  -12.0056 C   0  0  1  0  0  0  0  0  0  0  0  0
   -7.7698   18.5611  -10.9550 O   0  0  0  0  0  0  0  0  0  0  0  0
   -6.4204   18.8179  -11.3027 C   0  0  1  0  0  0  0  0  0  0  0  0
   -5.6195   18.6837  -10.0928 N   0  0  0  0  0  0  0  0  0  0  0  0
   -5.9125   17.9137   -8.9916 C   0  0  0  0  0  0  0  0  0  0  0  0
   -7.0390   17.2349   -8.7469 N   0  0  0  0  0  0  0  0  0  0  0  0
   -6.9559   16.5646   -7.5930 C   0  0  0  0  0  0  0  0  0  0  0  0
   -5.9395   16.5191   -6.7190 N   0  0  0  0  0  0  0  0  0  0  0  0
   -4.8171   17.2260   -6.9892 C   0  0  0  0  0  0  0  0  0  0  0  0
   -3.8083   17.1890   -6.1050 N   0  0  0  0  0  0  0  0  0  0  0  0
   -4.7845   17.9683   -8.1843 C   0  0  0  0  0  0  0  0  0  0  0  0
   -3.8149   18.7826   -8.7511 N   0  0  0  0  0  0  0  0  0  0  0  0
   -4.3616   19.1801   -9.8750 C   0  0  0  0  0  0  0  0  0  0  0  0
   -6.0864   17.8531  -12.4339 C   0  0  0  0  0  0  0  0  0  0  0  0
   -7.4189   17.7602  -13.1612 C   0  0  2  0  0  0  0  0  0  0  0  0
   -7.5908   18.9045  -13.9990 O   0  0  0  0  0  0  0  0  0  0  0  0
  -10.7156   15.9806  -11.1284 H   0  0  0  0  0  0  0  0  0  0  0  0
   -8.8209   16.5147  -10.3611 H   0  0  0  0  0  0  0  0  0  0  0  0
   -8.1149   15.7165  -11.8149 H   0  0  0  0  0  0  0  0  0  0  0  0
   -9.3503   18.2767  -12.3776 H   0  0  0  0  0  0  0  0  0  0  0  0
   -6.2151   19.8322  -11.6757 H   0  0  0  0  0  0  0  0  0  0  0  0
   -7.8413   15.9697   -7.3240 H   0  0  0  0  0  0  0  0  0  0  0  0
   -2.9438   17.7183   -6.2876 H   0  0  0  0  0  0  0  0  0  0  0  0
   -3.8985   16.6313   -5.2438 H   0  0  0  0  0  0  0  0  0  0  0  0
   -3.8541   19.8535  -10.5814 H   0  0  0  0  0  0  0  0  0  0  0  0
   -5.2998   18.2581  -13.0876 H   0  0  0  0  0  0  0  0  0  0  0  0
   -5.6942   16.8834  -12.0935 H   0  0  0  0  0  0  0  0  0  0  0  0
   -7.5185   16.8705  -13.8004 H   0  0  0  0  0  0  0  0  0  0  0  0
   -7.7118   19.7101  -13.4365 H   0  0  0  0  0  0  0  0  0  0  0  0
  1  2  1  0
  3  2  1  0
  3  4  1  0
  3 17  1  0
  4  5  1  0
  5  6  1  0
  5 16  1  0
  6  7  1  0
  6 15  1  0
  7  8  2  0
  7 13  1  0
  8  9  1  0
  9 10  2  0
 10 11  1  0
 11 12  1  0
 11 13  2  0
 13 14  1  0
 14 15  2  0
 16 17  1  0
 17 18  1  0
  1 19  1  0
  2 20  1  0
  2 21  1  0
  3 22  1  6
  5 23  1  6
  9 24  1  0
 12 25  1  0
 12 26  1  0
 15 27  1  0
 16 28  1  0
 16 29  1  0
 17 30  1  6
 18 31  1  0
M  END
>  <filename_input>  (9) 
6ZPB_3D1_docked.sdf

>  <pdb_id>  (9) 
6ZPB_3D1

>  <pose_rank>  (9) 
8

>  <num_atoms_heavy>  (9) 
18

>  <num_torsions>  (9) 
2

>  <pose>  (9) 
[-5.619502586550698, 18.683666631437163, -10.092820143203305, -2.186255861281097, -1.9004269931079159, 0.8827297478784558, -4.106263077440059, -0.6234065687285331]

>  <energy>  (9) 
-465.0389218138767

>  <inter_energy>  (9) 
-477.79173901206786

>  <intra_energy>  (9) 
24.62727068663551

>  <rmsd>  (9) 
5.75529

>  <sdf_rank>  (9) 
0

$$$$

     RDKit          3D

 31 33  0  0  0  0  0  0  0  0999 V2000
   -2.1362   20.4955   -8.4206 O   0  0  0  0  0  0  0  0  0  0  0  0
   -3.2468   20.6349   -7.5518 C   0  0  0  0  0  0  0  0  0  0  0  0
   -3.7584   19.2831   -7.1383 C   0  0  1  0  0  0  0  0  0  0  0  0
   -4.9488   18.9914   -7.8999 O   0  0  0  0  0  0  0  0  0  0  0  0
   -4.7364   17.8597   -8.7257 C   0  0  1  0  0  0  0  0  0  0  0  0
   -5.4080   18.1070   -9.9950 N   0  0  0  0  0  0  0  0  0  0  0  0
   -6.6088   17.5795  -10.4087 C   0  0  0  0  0  0  0  0  0  0  0  0
   -7.3422   16.6424   -9.7975 N   0  0  0  0  0  0  0  0  0  0  0  0
   -8.4733   16.4027  -10.4690 C   0  0  0  0  0  0  0  0  0  0  0  0
   -8.9054   16.9563  -11.6116 N   0  0  0  0  0  0  0  0  0  0  0  0
   -8.1354   17.8937  -12.2124 C   0  0  0  0  0  0  0  0  0  0  0  0
   -8.5650   18.4345  -13.3629 N   0  0  0  0  0  0  0  0  0  0  0  0
   -6.9194   18.2356  -11.5919 C   0  0  0  0  0  0  0  0  0  0  0  0
   -5.9182   19.1335  -11.9321 N   0  0  0  0  0  0  0  0  0  0  0  0
   -5.0500   19.0147  -10.9563 C   0  0  0  0  0  0  0  0  0  0  0  0
   -3.2264   17.6678   -8.7965 C   0  0  0  0  0  0  0  0  0  0  0  0
   -2.7938   18.1252   -7.4119 C   0  0  2  0  0  0  0  0  0  0  0  0
   -3.0238   17.0798   -6.4660 O   0  0  0  0  0  0  0  0  0  0  0  0
   -1.3097   20.3918   -7.8857 H   0  0  0  0  0  0  0  0  0  0  0  0
   -2.9394   21.1959   -6.6569 H   0  0  0  0  0  0  0  0  0  0  0  0
   -4.0476   21.1749   -8.0783 H   0  0  0  0  0  0  0  0  0  0  0  0
   -3.9189   19.3484   -6.0521 H   0  0  0  0  0  0  0  0  0  0  0  0
   -5.1618   16.9170   -8.3511 H   0  0  0  0  0  0  0  0  0  0  0  0
   -9.1398   15.6492  -10.0239 H   0  0  0  0  0  0  0  0  0  0  0  0
   -7.9972   19.1496  -13.8394 H   0  0  0  0  0  0  0  0  0  0  0  0
   -9.4625   18.1344  -13.7695 H   0  0  0  0  0  0  0  0  0  0  0  0
   -4.1157   19.5937  -10.9135 H   0  0  0  0  0  0  0  0  0  0  0  0
   -2.9636   16.6140   -8.9712 H   0  0  0  0  0  0  0  0  0  0  0  0
   -2.7441   18.2157   -9.6194 H   0  0  0  0  0  0  0  0  0  0  0  0
   -1.7306   18.3987   -7.3433 H   0  0  0  0  0  0  0  0  0  0  0  0
   -2.9441   17.4419   -5.5481 H   0  0  0  0  0  0  0  0  0  0  0  0
  1  2  1  0
  3  2  1  0
  3  4  1  0
  3 17  1  0
  4  5  1  0
  5  6  1  0
  5 16  1  0
  6  7  1  0
  6 15  1  0
  7  8  2  0
  7 13  1  0
  8  9  1  0
  9 10  2  0
 10 11  1  0
 11 12  1  0
 11 13  2  0
 13 14  1  0
 14 15  2  0
 16 17  1  0
 17 18  1  0
  1 19  1  0
  2 20  1  0
  2 21  1  0
  3 22  1  1
  5 23  1  1
  9 24  1  0
 12 25  1  0
 12 26  1  0
 15 27  1  0
 16 28  1  0
 16 29  1  0
 17 30  1  6
 18 31  1  0
M  END
>  <filename_input>  (10) 
6ZPB_3D1_docked.sdf

>  <pdb_id>  (10) 
6ZPB_3D1

>  <pose_rank>  (10) 
9

>  <num_atoms_heavy>  (10) 
18

>  <num_torsions>  (10) 
2

>  <pose>  (10) 
[-5.407950684374799, 18.10698759770915, -9.99497033830365, 1.422420616449769, 6.006868973182701, -1.7657549050930184, -0.08083063465964137, 1.4641300560599304]

>  <energy>  (10) 
-525.24531048301

>  <inter_energy>  (10) 
-521.8920032292476

>  <intra_energy>  (10) 
8.949328910073552

>  <rmsd>  (10) 
1.16084

>  <sdf_rank>  (10) 
0

$$$$

     RDKit          3D

 31 33  0  0  0  0  0  0  0  0999 V2000
  -13.1726   15.3539  -13.6324 O   0  0  0  0  0  0  0  0  0  0  0  0
  -12.7526   16.6764  -13.3457 C   0  0  0  0  0  0  0  0  0  0  0  0
  -12.0919   17.2865  -14.5504 C   0  0  1  0  0  0  0  0  0  0  0  0
  -10.9839   18.0961  -14.1042 O   0  0  0  0  0  0  0  0  0  0  0  0
   -9.7639   17.5708  -14.5974 C   0  0  1  0  0  0  0  0  0  0  0  0
   -8.7640   17.7161  -13.5474 N   0  0  0  0  0  0  0  0  0  0  0  0
   -8.6164   16.9221  -12.4342 C   0  0  0  0  0  0  0  0  0  0  0  0
   -9.4253   15.9410  -12.0187 N   0  0  0  0  0  0  0  0  0  0  0  0
   -8.9462   15.3570  -10.9154 C   0  0  0  0  0  0  0  0  0  0  0  0
   -7.8289   15.6435  -10.2308 N   0  0  0  0  0  0  0  0  0  0  0  0
   -7.0367   16.6495  -10.6699 C   0  0  0  0  0  0  0  0  0  0  0  0
   -5.9275   16.9420   -9.9737 N   0  0  0  0  0  0  0  0  0  0  0  0
   -7.4363   17.3359  -11.8317 C   0  0  0  0  0  0  0  0  0  0  0  0
   -6.8709   18.3905  -12.5336 N   0  0  0  0  0  0  0  0  0  0  0  0
   -7.6972   18.5750  -13.5353 C   0  0  0  0  0  0  0  0  0  0  0  0
  -10.0672   16.1434  -15.0364 C   0  0  0  0  0  0  0  0  0  0  0  0
  -11.4986   16.2732  -15.5339 C   0  0  2  0  0  0  0  0  0  0  0  0
  -11.5022   16.8284  -16.8501 O   0  0  0  0  0  0  0  0  0  0  0  0
  -13.3276   14.8659  -12.7851 H   0  0  0  0  0  0  0  0  0  0  0  0
  -13.6270   17.2823  -13.0656 H   0  0  0  0  0  0  0  0  0  0  0  0
  -12.0307   16.6508  -12.5161 H   0  0  0  0  0  0  0  0  0  0  0  0
  -12.8839   17.8467  -15.0689 H   0  0  0  0  0  0  0  0  0  0  0  0
   -9.3455   18.0924  -15.4708 H   0  0  0  0  0  0  0  0  0  0  0  0
   -9.5501   14.5295  -10.5150 H   0  0  0  0  0  0  0  0  0  0  0  0
   -5.3083   17.7030  -10.2873 H   0  0  0  0  0  0  0  0  0  0  0  0
   -5.6952   16.4054   -9.1258 H   0  0  0  0  0  0  0  0  0  0  0  0
   -7.5465   19.3520  -14.2992 H   0  0  0  0  0  0  0  0  0  0  0  0
   -9.3907   15.8186  -15.8406 H   0  0  0  0  0  0  0  0  0  0  0  0
   -9.9362   15.3939  -14.2420 H   0  0  0  0  0  0  0  0  0  0  0  0
  -12.0438   15.3190  -15.5813 H   0  0  0  0  0  0  0  0  0  0  0  0
  -11.5085   17.8167  -16.7914 H   0  0  0  0  0  0  0  0  0  0  0  0
  1  2  1  0
  3  2  1  0
  3  4  1  0
  3 17  1  0
  4  5  1  0
  5  6  1  0
  5 16  1  0
  6  7  1  0
  6 15  1  0
  7  8  2  0
  7 13  1  0
  8  9  1  0
  9 10  2  0
 10 11  1  0
 11 12  1  0
 11 13  2  0
 13 14  1  0
 14 15  2  0
 16 17  1  0
 17 18  1  0
  1 19  1  0
  2 20  1  0
  2 21  1  0
  3 22  1  6
  5 23  1  6
  9 24  1  0
 12 25  1  0
 12 26  1  0
 15 27  1  0
 16 28  1  0
 16 29  1  0
 17 30  1  6
 18 31  1  0
M  END
>  <filename_input>  (11) 
6ZPB_3D1_docked.sdf

>  <pdb_id>  (11) 
6ZPB_3D1

>  <pose_rank>  (11) 
10

>  <num_atoms_heavy>  (11) 
18

>  <num_torsions>  (11) 
2

>  <pose>  (11) 
[-8.76404543421577, 17.716084420248375, -13.547432770247033, 1.9286726810519093, 2.3710843567118727, -1.17397234163492, 3.077253856379366, 0.7698960468899125]

>  <energy>  (11) 
-375.9618002477811

>  <inter_energy>  (11) 
-384.3630837388397

>  <intra_energy>  (11) 
11.895016331154457

>  <rmsd>  (11) 
7.63494

>  <sdf_rank>  (11) 
0

$$$$

     RDKit          3D

 31 33  0  0  0  0  0  0  0  0999 V2000
  -15.9376   18.6971   -1.2285 O   0  0  0  0  0  0  0  0  0  0  0  0
  -14.8556   18.2133   -0.4521 C   0  0  0  0  0  0  0  0  0  0  0  0
  -13.5473   18.5773   -1.0969 C   0  0  1  0  0  0  0  0  0  0  0  0
  -12.5520   17.6159   -0.6877 O   0  0  0  0  0  0  0  0  0  0  0  0
  -12.0791   16.8929   -1.8109 C   0  0  1  0  0  0  0  0  0  0  0  0
  -11.8837   15.5100   -1.3954 N   0  0  0  0  0  0  0  0  0  0  0  0
  -10.8032   14.9983   -0.7157 C   0  0  0  0  0  0  0  0  0  0  0  0
   -9.6616   15.6243   -0.4083 N   0  0  0  0  0  0  0  0  0  0  0  0
   -8.8498   14.8274    0.2942 C   0  0  0  0  0  0  0  0  0  0  0  0
   -9.0461   13.5578    0.6800 N   0  0  0  0  0  0  0  0  0  0  0  0
  -10.2069   12.9478    0.3437 C   0  0  0  0  0  0  0  0  0  0  0  0
  -10.3929   11.6731    0.7195 N   0  0  0  0  0  0  0  0  0  0  0  0
  -11.1466   13.6926   -0.3930 C   0  0  0  0  0  0  0  0  0  0  0  0
  -12.4039   13.3795   -0.8885 N   0  0  0  0  0  0  0  0  0  0  0  0
  -12.7919   14.4875   -1.4731 C   0  0  0  0  0  0  0  0  0  0  0  0
  -13.1018   17.1185   -2.9177 C   0  0  0  0  0  0  0  0  0  0  0  0
  -13.5587   18.5400   -2.6280 C   0  0  2  0  0  0  0  0  0  0  0  0
  -12.5972   19.4672   -3.1344 O   0  0  0  0  0  0  0  0  0  0  0  0
  -16.6565   19.0186   -0.6286 H   0  0  0  0  0  0  0  0  0  0  0  0
  -14.9017   18.6594    0.5524 H   0  0  0  0  0  0  0  0  0  0  0  0
  -14.9273   17.1179   -0.3815 H   0  0  0  0  0  0  0  0  0  0  0  0
  -13.3391   19.6096   -0.7790 H   0  0  0  0  0  0  0  0  0  0  0  0
  -11.1046   17.2183   -2.2040 H   0  0  0  0  0  0  0  0  0  0  0  0
   -7.8908   15.2733    0.5967 H   0  0  0  0  0  0  0  0  0  0  0  0
  -11.2676   11.1868    0.4759 H   0  0  0  0  0  0  0  0  0  0  0  0
   -9.6611   11.1810    1.2516 H   0  0  0  0  0  0  0  0  0  0  0  0
  -13.7622   14.5871   -1.9816 H   0  0  0  0  0  0  0  0  0  0  0  0
  -12.6398   17.0405   -3.9129 H   0  0  0  0  0  0  0  0  0  0  0  0
  -13.9174   16.3805   -2.9302 H   0  0  0  0  0  0  0  0  0  0  0  0
  -14.5288   18.7983   -3.0777 H   0  0  0  0  0  0  0  0  0  0  0  0
  -12.1369   19.9111   -2.3787 H   0  0  0  0  0  0  0  0  0  0  0  0
  1  2  1  0
  3  2  1  0
  3  4  1  0
  3 17  1  0
  4  5  1  0
  5  6  1  0
  5 16  1  0
  6  7  1  0
  6 15  1  0
  7  8  2  0
  7 13  1  0
  8  9  1  0
  9 10  2  0
 10 11  1  0
 11 12  1  0
 11 13  2  0
 13 14  1  0
 14 15  2  0
 16 17  1  0
 17 18  1  0
  1 19  1  0
  2 20  1  0
  2 21  1  0
  3 22  1  6
  5 23  1  6
  9 24  1  0
 12 25  1  0
 12 26  1  0
 15 27  1  0
 16 28  1  0
 16 29  1  0
 17 30  1  6
 18 31  1  0
M  END
>  <filename_input>  (12) 
6ZPB_3D1_docked.sdf

>  <pdb_id>  (12) 
6ZPB_3D1

>  <pose_rank>  (12) 
11

>  <num_atoms_heavy>  (12) 
18

>  <num_torsions>  (12) 
2

>  <pose>  (12) 
[-11.883733346283766, 15.509978003197386, -1.3954397768904037, 1.571344104096431, -2.31124123063422, -2.6783369172221603, 0.3024858456673251, 0.5657212940835841]

>  <energy>  (12) 
-163.22905392534727

>  <inter_energy>  (12) 
-169.6120435473888

>  <intra_energy>  (12) 
0.0

>  <rmsd>  (12) 
11.5168

>  <sdf_rank>  (12) 
0

$$$$

     RDKit          3D

 31 33  0  0  0  0  0  0  0  0999 V2000
  -11.5620   14.6320    0.3154 O   0  0  0  0  0  0  0  0  0  0  0  0
  -10.7305   15.7788    0.2787 C   0  0  0  0  0  0  0  0  0  0  0  0
   -9.4051   15.4828    0.9234 C   0  0  1  0  0  0  0  0  0  0  0  0
   -9.2709   14.0524    1.0586 O   0  0  0  0  0  0  0  0  0  0  0  0
   -8.1817   13.5874    0.2807 C   0  0  1  0  0  0  0  0  0  0  0  0
   -8.5707   12.3112   -0.3053 N   0  0  0  0  0  0  0  0  0  0  0  0
   -7.7342   11.3656   -0.8509 C   0  0  0  0  0  0  0  0  0  0  0  0
   -6.4191   11.4700   -1.0722 N   0  0  0  0  0  0  0  0  0  0  0  0
   -5.9251   10.3362   -1.5805 C   0  0  0  0  0  0  0  0  0  0  0  0
   -6.5696    9.1984   -1.8788 N   0  0  0  0  0  0  0  0  0  0  0  0
   -7.9026    9.1276   -1.6541 C   0  0  0  0  0  0  0  0  0  0  0  0
   -8.5457    7.9922   -1.9674 N   0  0  0  0  0  0  0  0  0  0  0  0
   -8.5347   10.2620   -1.1118 C   0  0  0  0  0  0  0  0  0  0  0  0
   -9.8535   10.5204   -0.7677 N   0  0  0  0  0  0  0  0  0  0  0  0
   -9.8178   11.7449   -0.2993 C   0  0  0  0  0  0  0  0  0  0  0  0
   -7.8617   14.7041   -0.7055 C   0  0  0  0  0  0  0  0  0  0  0  0
   -8.1868   15.9417    0.1166 C   0  0  2  0  0  0  0  0  0  0  0  0
   -7.1058   16.2263    1.0061 O   0  0  0  0  0  0  0  0  0  0  0  0
  -11.7414   14.3845    1.2570 H   0  0  0  0  0  0  0  0  0  0  0  0
  -10.5669   16.0751   -0.7679 H   0  0  0  0  0  0  0  0  0  0  0  0
  -11.2218   16.5948    0.8288 H   0  0  0  0  0  0  0  0  0  0  0  0
   -9.4126   16.0303    1.8775 H   0  0  0  0  0  0  0  0  0  0  0  0
   -7.2578   13.3801    0.8406 H   0  0  0  0  0  0  0  0  0  0  0  0
   -4.8436   10.3368   -1.7813 H   0  0  0  0  0  0  0  0  0  0  0  0
   -9.5599    7.9134   -1.8060 H   0  0  0  0  0  0  0  0  0  0  0  0
   -8.0251    7.1995   -2.3693 H   0  0  0  0  0  0  0  0  0  0  0  0
  -10.7117   12.2713    0.0667 H   0  0  0  0  0  0  0  0  0  0  0  0
   -6.8026   14.6862   -1.0021 H   0  0  0  0  0  0  0  0  0  0  0  0
   -8.4177   14.6374   -1.6523 H   0  0  0  0  0  0  0  0  0  0  0  0
   -8.3599   16.8458   -0.4856 H   0  0  0  0  0  0  0  0  0  0  0  0
   -7.4182   16.1440    1.9419 H   0  0  0  0  0  0  0  0  0  0  0  0
  1  2  1  0
  3  2  1  0
  3  4  1  0
  3 17  1  0
  4  5  1  0
  5  6  1  0
  5 16  1  0
  6  7  1  0
  6 15  1  0
  7  8  2  0
  7 13  1  0
  8  9  1  0
  9 10  2  0
 10 11  1  0
 11 12  1  0
 11 13  2  0
 13 14  1  0
 14 15  2  0
 16 17  1  0
 17 18  1  0
  1 19  1  0
  2 20  1  0
  2 21  1  0
  3 22  1  1
  5 23  1  1
  9 24  1  0
 12 25  1  0
 12 26  1  0
 15 27  1  0
 16 28  1  0
 16 29  1  0
 17 30  1  6
 18 31  1  0
M  END
>  <filename_input>  (13) 
6ZPB_3D1_docked.sdf

>  <pdb_id>  (13) 
6ZPB_3D1

>  <pose_rank>  (13) 
12

>  <num_atoms_heavy>  (13) 
18

>  <num_torsions>  (13) 
2

>  <pose>  (13) 
[-8.570661187751776, 12.311220396202453, -0.30527749703251766, 0.20061690153530837, 1.0925222339088472, 2.052030985316714, -1.1305263253239421, -2.772340718010111]

>  <energy>  (13) 
-188.99545298561222

>  <inter_energy>  (13) 
-172.8856232875683

>  <intra_energy>  (13) 
1.5819618704361467

>  <rmsd>  (13) 
11.2771

>  <sdf_rank>  (13) 
0

$$$$

     RDKit          3D

 31 33  0  0  0  0  0  0  0  0999 V2000
  -13.0093   25.0832   -3.1426 O   0  0  0  0  0  0  0  0  0  0  0  0
  -14.2050   24.4401   -3.5481 C   0  0  0  0  0  0  0  0  0  0  0  0
  -14.9809   23.9764   -2.3469 C   0  0  1  0  0  0  0  0  0  0  0  0
  -15.1426   22.5449   -2.4309 O   0  0  0  0  0  0  0  0  0  0  0  0
  -14.4812   21.9133   -1.3486 C   0  0  1  0  0  0  0  0  0  0  0  0
  -13.8720   20.6909   -1.8563 N   0  0  0  0  0  0  0  0  0  0  0  0
  -13.5529   19.5664   -1.1316 C   0  0  0  0  0  0  0  0  0  0  0  0
  -13.6151   19.4057    0.1950 N   0  0  0  0  0  0  0  0  0  0  0  0
  -13.2659   18.1639    0.5463 C   0  0  0  0  0  0  0  0  0  0  0  0
  -12.8777   17.1468   -0.2373 N   0  0  0  0  0  0  0  0  0  0  0  0
  -12.8138   17.3439   -1.5751 C   0  0  0  0  0  0  0  0  0  0  0  0
  -12.4112   16.3279   -2.3537 N   0  0  0  0  0  0  0  0  0  0  0  0
  -13.1666   18.6148   -2.0656 C   0  0  0  0  0  0  0  0  0  0  0  0
  -13.2103   19.1409   -3.3485 N   0  0  0  0  0  0  0  0  0  0  0  0
  -13.6310   20.3697   -3.1658 C   0  0  0  0  0  0  0  0  0  0  0  0
  -13.5208   22.9503   -0.7793 C   0  0  0  0  0  0  0  0  0  0  0  0
  -14.2945   24.2405   -1.0034 C   0  0  2  0  0  0  0  0  0  0  0  0
  -15.2840   24.3915    0.0158 O   0  0  0  0  0  0  0  0  0  0  0  0
  -12.9660   25.1065   -2.1538 H   0  0  0  0  0  0  0  0  0  0  0  0
  -14.8189   25.1464   -4.1262 H   0  0  0  0  0  0  0  0  0  0  0  0
  -13.9498   23.5679   -4.1679 H   0  0  0  0  0  0  0  0  0  0  0  0
  -15.9240   24.5420   -2.3689 H   0  0  0  0  0  0  0  0  0  0  0  0
  -15.1320   21.5917   -0.5221 H   0  0  0  0  0  0  0  0  0  0  0  0
  -13.3017   17.9468    1.6241 H   0  0  0  0  0  0  0  0  0  0  0  0
  -12.3542   16.4527   -3.3746 H   0  0  0  0  0  0  0  0  0  0  0  0
  -12.1592   15.4232   -1.9306 H   0  0  0  0  0  0  0  0  0  0  0  0
  -13.7775   21.0805   -3.9924 H   0  0  0  0  0  0  0  0  0  0  0  0
  -13.3308   22.7769    0.2902 H   0  0  0  0  0  0  0  0  0  0  0  0
  -12.5242   22.9400   -1.2448 H   0  0  0  0  0  0  0  0  0  0  0  0
  -13.6692   25.1454   -0.9872 H   0  0  0  0  0  0  0  0  0  0  0  0
  -14.8543   24.3259    0.9052 H   0  0  0  0  0  0  0  0  0  0  0  0
  1  2  1  0
  3  2  1  0
  3  4  1  0
  3 17  1  0
  4  5  1  0
  5  6  1  0
  5 16  1  0
  6  7  1  0
  6 15  1  0
  7  8  2  0
  7 13  1  0
  8  9  1  0
  9 10  2  0
 10 11  1  0
 11 12  1  0
 11 13  2  0
 13 14  1  0
 14 15  2  0
 16 17  1  0
 17 18  1  0
  1 19  1  0
  2 20  1  0
  2 21  1  0
  3 22  1  1
  5 23  1  1
  9 24  1  0
 12 25  1  0
 12 26  1  0
 15 27  1  0
 16 28  1  0
 16 29  1  0
 17 30  1  6
 18 31  1  0
M  END
>  <filename_input>  (14) 
6ZPB_3D1_docked.sdf

>  <pdb_id>  (14) 
6ZPB_3D1

>  <pose_rank>  (14) 
13

>  <num_atoms_heavy>  (14) 
18

>  <num_torsions>  (14) 
2

>  <pose>  (14) 
[-13.871992048617157, 20.690864184795835, -1.8563008268140986, 3.097499814517035, 0.48801245339720206, -3.2962383787516982, -0.9986775561134297, 1.1505338171698276]

>  <energy>  (14) 
-117.0134560066329

>  <inter_energy>  (14) 
-123.90404485513173

>  <intra_energy>  (14) 
4.250482048018009

>  <rmsd>  (14) 
11.8118

>  <sdf_rank>  (14) 
0

$$$$

     RDKit          3D

 31 33  0  0  0  0  0  0  0  0999 V2000
   -6.2263    8.7306    0.8846 O   0  0  0  0  0  0  0  0  0  0  0  0
   -6.1967    8.7437   -0.5320 C   0  0  0  0  0  0  0  0  0  0  0  0
   -7.5936    8.6778   -1.0835 C   0  0  1  0  0  0  0  0  0  0  0  0
   -8.3895    9.6933   -0.4371 O   0  0  0  0  0  0  0  0  0  0  0  0
   -8.8323   10.6466   -1.3874 C   0  0  1  0  0  0  0  0  0  0  0  0
   -8.7741   11.9587   -0.7564 N   0  0  0  0  0  0  0  0  0  0  0  0
   -9.6081   13.0259   -0.9953 C   0  0  0  0  0  0  0  0  0  0  0  0
  -10.5550   13.1271   -1.9348 N   0  0  0  0  0  0  0  0  0  0  0  0
  -11.1975   14.2964   -1.8465 C   0  0  0  0  0  0  0  0  0  0  0  0
  -10.9940   15.3039   -0.9848 N   0  0  0  0  0  0  0  0  0  0  0  0
  -10.0206   15.1763   -0.0528 C   0  0  0  0  0  0  0  0  0  0  0  0
   -9.8110   16.1926    0.7980 N   0  0  0  0  0  0  0  0  0  0  0  0
   -9.2785   13.9806   -0.0429 C   0  0  0  0  0  0  0  0  0  0  0  0
   -8.2362   13.5356    0.7571 N   0  0  0  0  0  0  0  0  0  0  0  0
   -7.9763   12.3378    0.2904 C   0  0  0  0  0  0  0  0  0  0  0  0
   -7.9503   10.4576   -2.6155 C   0  0  0  0  0  0  0  0  0  0  0  0
   -7.7002    8.9576   -2.5856 C   0  0  2  0  0  0  0  0  0  0  0  0
   -8.8329    8.2700   -3.1192 O   0  0  0  0  0  0  0  0  0  0  0  0
   -5.3796    9.1045    1.2358 H   0  0  0  0  0  0  0  0  0  0  0  0
   -5.7139    9.6702   -0.8763 H   0  0  0  0  0  0  0  0  0  0  0  0
   -5.6304    7.8697   -0.8862 H   0  0  0  0  0  0  0  0  0  0  0  0
   -7.9347    7.6483   -0.8998 H   0  0  0  0  0  0  0  0  0  0  0  0
   -9.8742   10.5306   -1.7204 H   0  0  0  0  0  0  0  0  0  0  0  0
  -12.0020   14.4533   -2.5801 H   0  0  0  0  0  0  0  0  0  0  0  0
   -9.0763   16.1199    1.5162 H   0  0  0  0  0  0  0  0  0  0  0  0
  -10.3849   17.0454    0.7328 H   0  0  0  0  0  0  0  0  0  0  0  0
   -7.1862   11.6936    0.7038 H   0  0  0  0  0  0  0  0  0  0  0  0
   -8.4731   10.7589   -3.5352 H   0  0  0  0  0  0  0  0  0  0  0  0
   -7.0328   11.0642   -2.6048 H   0  0  0  0  0  0  0  0  0  0  0  0
   -6.8221    8.6390   -3.1665 H   0  0  0  0  0  0  0  0  0  0  0  0
   -9.3926    7.9302   -2.3767 H   0  0  0  0  0  0  0  0  0  0  0  0
  1  2  1  0
  3  2  1  0
  3  4  1  0
  3 17  1  0
  4  5  1  0
  5  6  1  0
  5 16  1  0
  6  7  1  0
  6 15  1  0
  7  8  2  0
  7 13  1  0
  8  9  1  0
  9 10  2  0
 10 11  1  0
 11 12  1  0
 11 13  2  0
 13 14  1  0
 14 15  2  0
 16 17  1  0
 17 18  1  0
  1 19  1  0
  2 20  1  0
  2 21  1  0
  3 22  1  6
  5 23  1  6
  9 24  1  0
 12 25  1  0
 12 26  1  0
 15 27  1  0
 16 28  1  0
 16 29  1  0
 17 30  1  6
 18 31  1  0
M  END
>  <filename_input>  (15) 
6ZPB_3D1_docked.sdf

>  <pdb_id>  (15) 
6ZPB_3D1

>  <pose_rank>  (15) 
14

>  <num_atoms_heavy>  (15) 
18

>  <num_torsions>  (15) 
2

>  <pose>  (15) 
[-8.774099718365717, 11.958738285480022, -0.7564079847334235, -4.237143523711605, 0.56127576176844, 0.8971367305345925, -0.868192895073717, -2.1440361663542014]

>  <energy>  (15) 
-175.02745049262606

>  <inter_energy>  (15) 
-162.55641367858232

>  <intra_energy>  (15) 
0.0

>  <rmsd>  (15) 
11.623

>  <sdf_rank>  (15) 
0

$$$$

     RDKit          3D

 31 33  0  0  0  0  0  0  0  0999 V2000
   -7.6847    8.9636   -3.6608 O   0  0  0  0  0  0  0  0  0  0  0  0
   -6.9079    8.0093   -2.9583 C   0  0  0  0  0  0  0  0  0  0  0  0
   -5.6537    8.6462   -2.4281 C   0  0  1  0  0  0  0  0  0  0  0  0
   -5.8494   10.0752   -2.3835 O   0  0  0  0  0  0  0  0  0  0  0  0
   -5.7883   10.5360   -1.0449 C   0  0  1  0  0  0  0  0  0  0  0  0
   -6.7942   11.5788   -0.8906 N   0  0  0  0  0  0  0  0  0  0  0  0
   -7.9957   11.4738   -0.2296 C   0  0  0  0  0  0  0  0  0  0  0  0
   -8.5451   10.3724    0.2945 N   0  0  0  0  0  0  0  0  0  0  0  0
   -9.7045   10.6535    0.8982 C   0  0  0  0  0  0  0  0  0  0  0  0
  -10.3283   11.8356    1.0106 N   0  0  0  0  0  0  0  0  0  0  0  0
   -9.7526   12.9300    0.4598 C   0  0  0  0  0  0  0  0  0  0  0  0
  -10.3873   14.1079    0.5623 N   0  0  0  0  0  0  0  0  0  0  0  0
   -8.5209   12.7584   -0.1990 C   0  0  0  0  0  0  0  0  0  0  0  0
   -7.6824   13.6468   -0.8563 N   0  0  0  0  0  0  0  0  0  0  0  0
   -6.6799   12.8965   -1.2465 C   0  0  0  0  0  0  0  0  0  0  0  0
   -5.9658    9.3032   -0.1669 C   0  0  0  0  0  0  0  0  0  0  0  0
   -5.2816    8.2313   -1.0015 C   0  0  2  0  0  0  0  0  0  0  0  0
   -3.8659    8.3208   -0.8330 O   0  0  0  0  0  0  0  0  0  0  0  0
   -8.1578    9.5448   -3.0138 H   0  0  0  0  0  0  0  0  0  0  0  0
   -7.4955    7.6105   -2.1182 H   0  0  0  0  0  0  0  0  0  0  0  0
   -6.6331    7.1956   -3.6457 H   0  0  0  0  0  0  0  0  0  0  0  0
   -4.8490    8.3190   -3.1029 H   0  0  0  0  0  0  0  0  0  0  0  0
   -4.8373   11.0042   -0.7510 H   0  0  0  0  0  0  0  0  0  0  0  0
  -10.2161    9.7996    1.3662 H   0  0  0  0  0  0  0  0  0  0  0  0
   -9.9699   14.9552    0.1516 H   0  0  0  0  0  0  0  0  0  0  0  0
  -11.2918   14.1646    1.0518 H   0  0  0  0  0  0  0  0  0  0  0  0
   -5.8220   13.2912   -1.8105 H   0  0  0  0  0  0  0  0  0  0  0  0
   -5.4710    9.4298    0.8073 H   0  0  0  0  0  0  0  0  0  0  0  0
   -7.0136    9.0769    0.0797 H   0  0  0  0  0  0  0  0  0  0  0  0
   -5.5767    7.2045   -0.7395 H   0  0  0  0  0  0  0  0  0  0  0  0
   -3.6487    8.3345    0.1328 H   0  0  0  0  0  0  0  0  0  0  0  0
  1  2  1  0
  3  2  1  0
  3  4  1  0
  3 17  1  0
  4  5  1  0
  5  6  1  0
  5 16  1  0
  6  7  1  0
  6 15  1  0
  7  8  2  0
  7 13  1  0
  8  9  1  0
  9 10  2  0
 10 11  1  0
 11 12  1  0
 11 13  2  0
 13 14  1  0
 14 15  2  0
 16 17  1  0
 17 18  1  0
  1 19  1  0
  2 20  1  0
  2 21  1  0
  3 22  1  6
  5 23  1  1
  9 24  1  0
 12 25  1  0
 12 26  1  0
 15 27  1  0
 16 28  1  0
 16 29  1  0
 17 30  1  1
 18 31  1  0
M  END
>  <filename_input>  (16) 
6ZPB_3D1_docked.sdf

>  <pdb_id>  (16) 
6ZPB_3D1

>  <pose_rank>  (16) 
15

>  <num_atoms_heavy>  (16) 
18

>  <num_torsions>  (16) 
2

>  <pose>  (16) 
[-6.794230759135671, 11.578819337862539, -0.8906098679823449, -2.598876076270532, -3.9431666665748897, 1.391731638898338, -2.7199442527370534, -2.6814082875907377]

>  <energy>  (16) 
-140.5669541982725

>  <inter_energy>  (16) 
-153.82213677605336

>  <intra_energy>  (16) 
22.70555579492079

>  <rmsd>  (16) 
11.9087

>  <sdf_rank>  (16) 
0

$$$$

     RDKit          3D

 31 33  0  0  0  0  0  0  0  0999 V2000
  -16.2235   15.0352   -7.4973 O   0  0  0  0  0  0  0  0  0  0  0  0
  -16.1394   15.5562   -6.1823 C   0  0  0  0  0  0  0  0  0  0  0  0
  -15.9996   17.0525   -6.2221 C   0  0  1  0  0  0  0  0  0  0  0  0
  -15.6085   17.5109   -4.9110 O   0  0  0  0  0  0  0  0  0  0  0  0
  -14.3261   18.1113   -4.9648 C   0  0  1  0  0  0  0  0  0  0  0  0
  -13.6098   17.7320   -3.7540 N   0  0  0  0  0  0  0  0  0  0  0  0
  -13.2073   18.5676   -2.7385 C   0  0  0  0  0  0  0  0  0  0  0  0
  -13.2735   19.9033   -2.7062 N   0  0  0  0  0  0  0  0  0  0  0  0
  -12.8261   20.3794   -1.5397 C   0  0  0  0  0  0  0  0  0  0  0  0
  -12.3435   19.7039   -0.4861 N   0  0  0  0  0  0  0  0  0  0  0  0
  -12.2785   18.3534   -0.5535 C   0  0  0  0  0  0  0  0  0  0  0  0
  -11.7817   17.6827    0.4972 N   0  0  0  0  0  0  0  0  0  0  0  0
  -12.7301   17.7359   -1.7347 C   0  0  0  0  0  0  0  0  0  0  0  0
  -12.8006   16.4065   -2.1247 N   0  0  0  0  0  0  0  0  0  0  0  0
  -13.3252   16.4626   -3.3254 C   0  0  0  0  0  0  0  0  0  0  0  0
  -13.7029   17.6557   -6.2786 C   0  0  0  0  0  0  0  0  0  0  0  0
  -14.9231   17.5671   -7.1824 C   0  0  2  0  0  0  0  0  0  0  0  0
  -15.2782   18.8725   -7.6410 O   0  0  0  0  0  0  0  0  0  0  0  0
  -16.3811   14.0587   -7.4559 H   0  0  0  0  0  0  0  0  0  0  0  0
  -17.0519   15.2915   -5.6280 H   0  0  0  0  0  0  0  0  0  0  0  0
  -15.2578   15.1275   -5.6832 H   0  0  0  0  0  0  0  0  0  0  0  0
  -16.9747   17.4305   -6.5632 H   0  0  0  0  0  0  0  0  0  0  0  0
  -14.3212   19.2113   -4.9725 H   0  0  0  0  0  0  0  0  0  0  0  0
  -12.8580   21.4733   -1.4289 H   0  0  0  0  0  0  0  0  0  0  0  0
  -11.7217   16.6548    0.4705 H   0  0  0  0  0  0  0  0  0  0  0  0
  -11.4604   18.1958    1.3305 H   0  0  0  0  0  0  0  0  0  0  0  0
  -13.5197   15.5681   -3.9352 H   0  0  0  0  0  0  0  0  0  0  0  0
  -12.9773   18.3918   -6.6551 H   0  0  0  0  0  0  0  0  0  0  0  0
  -13.1341   16.7173   -6.2020 H   0  0  0  0  0  0  0  0  0  0  0  0
  -14.7754   16.9380   -8.0725 H   0  0  0  0  0  0  0  0  0  0  0  0
  -15.4389   19.4632   -6.8629 H   0  0  0  0  0  0  0  0  0  0  0  0
  1  2  1  0
  3  2  1  0
  3  4  1  0
  3 17  1  0
  4  5  1  0
  5  6  1  0
  5 16  1  0
  6  7  1  0
  6 15  1  0
  7  8  2  0
  7 13  1  0
  8  9  1  0
  9 10  2  0
 10 11  1  0
 11 12  1  0
 11 13  2  0
 13 14  1  0
 14 15  2  0
 16 17  1  0
 17 18  1  0
  1 19  1  0
  2 20  1  0
  2 21  1  0
  3 22  1  6
  5 23  1  6
  9 24  1  0
 12 25  1  0
 12 26  1  0
 15 27  1  0
 16 28  1  0
 16 29  1  0
 17 30  1  6
 18 31  1  0
M  END
>  <filename_input>  (17) 
6ZPB_3D1_docked.sdf

>  <pdb_id>  (17) 
6ZPB_3D1

>  <pose_rank>  (17) 
16

>  <num_atoms_heavy>  (17) 
18

>  <num_torsions>  (17) 
2

>  <pose>  (17) 
[-13.609800950464862, 17.73204910997994, -3.753955233392183, -2.492561793187783, 1.0910376304199623, 1.4338743897457302, -0.27946440547620444, 0.3417529837537997]

>  <energy>  (17) 
-143.8813679641795

>  <inter_energy>  (17) 
-144.4140749506898

>  <intra_energy>  (17) 
0.0

>  <rmsd>  (17) 
11.2518

>  <sdf_rank>  (17) 
0

$$$$

     RDKit          3D

 31 33  0  0  0  0  0  0  0  0999 V2000
  -13.7279   10.5564   -5.2044 O   0  0  0  0  0  0  0  0  0  0  0  0
  -13.6182   11.7953   -4.5256 C   0  0  0  0  0  0  0  0  0  0  0  0
  -14.0671   11.6495   -3.0984 C   0  0  1  0  0  0  0  0  0  0  0  0
  -12.9835   12.0509   -2.2342 O   0  0  0  0  0  0  0  0  0  0  0  0
  -13.3563   13.1901   -1.4785 C   0  0  1  0  0  0  0  0  0  0  0  0
  -12.1899   14.0584   -1.3842 N   0  0  0  0  0  0  0  0  0  0  0  0
  -10.9725   13.7457   -0.8260 C   0  0  0  0  0  0  0  0  0  0  0  0
  -10.6458   12.6401   -0.1475 N   0  0  0  0  0  0  0  0  0  0  0  0
   -9.3588   12.6600    0.2141 C   0  0  0  0  0  0  0  0  0  0  0  0
   -8.4383   13.6100   -0.0079 N   0  0  0  0  0  0  0  0  0  0  0  0
   -8.8024   14.7225   -0.6877 C   0  0  0  0  0  0  0  0  0  0  0  0
   -7.8819   15.6767   -0.8950 N   0  0  0  0  0  0  0  0  0  0  0  0
  -10.1362   14.8119   -1.1276 C   0  0  0  0  0  0  0  0  0  0  0  0
  -10.8230   15.7897   -1.8324 N   0  0  0  0  0  0  0  0  0  0  0  0
  -12.0311   15.2939   -1.9539 C   0  0  0  0  0  0  0  0  0  0  0  0
  -14.5726   13.7812   -2.1807 C   0  0  0  0  0  0  0  0  0  0  0  0
  -15.2580   12.5314   -2.7112 C   0  0  2  0  0  0  0  0  0  0  0  0
  -15.9942   11.9034   -1.6603 O   0  0  0  0  0  0  0  0  0  0  0  0
  -13.7930    9.8225   -4.5432 H   0  0  0  0  0  0  0  0  0  0  0  0
  -12.5697   12.1276   -4.5442 H   0  0  0  0  0  0  0  0  0  0  0  0
  -14.2572   12.5365   -5.0279 H   0  0  0  0  0  0  0  0  0  0  0  0
  -14.3682   10.5971   -2.9902 H   0  0  0  0  0  0  0  0  0  0  0  0
  -13.6532   12.9888   -0.4386 H   0  0  0  0  0  0  0  0  0  0  0  0
   -9.0071   11.7776    0.7688 H   0  0  0  0  0  0  0  0  0  0  0  0
   -8.1342   16.5326   -1.4094 H   0  0  0  0  0  0  0  0  0  0  0  0
   -6.9231   15.5531   -0.5396 H   0  0  0  0  0  0  0  0  0  0  0  0
  -12.8460   15.8241   -2.4685 H   0  0  0  0  0  0  0  0  0  0  0  0
  -15.2186   14.3244   -1.4752 H   0  0  0  0  0  0  0  0  0  0  0  0
  -14.3254   14.5196   -2.9577 H   0  0  0  0  0  0  0  0  0  0  0  0
  -15.9630   12.7228   -3.5336 H   0  0  0  0  0  0  0  0  0  0  0  0
  -15.6419   12.2039   -0.7853 H   0  0  0  0  0  0  0  0  0  0  0  0
  1  2  1  0
  3  2  1  0
  3  4  1  0
  3 17  1  0
  4  5  1  0
  5  6  1  0
  5 16  1  0
  6  7  1  0
  6 15  1  0
  7  8  2  0
  7 13  1  0
  8  9  1  0
  9 10  2  0
 10 11  1  0
 11 12  1  0
 11 13  2  0
 13 14  1  0
 14 15  2  0
 16 17  1  0
 17 18  1  0
  1 19  1  0
  2 20  1  0
  2 21  1  0
  3 22  1  1
  5 23  1  1
  9 24  1  0
 12 25  1  0
 12 26  1  0
 15 27  1  0
 16 28  1  0
 16 29  1  0
 17 30  1  6
 18 31  1  0
M  END
>  <filename_input>  (18) 
6ZPB_3D1_docked.sdf

>  <pdb_id>  (18) 
6ZPB_3D1

>  <pose_rank>  (18) 
17

>  <num_atoms_heavy>  (18) 
18

>  <num_torsions>  (18) 
2

>  <pose>  (18) 
[-12.18992253518055, 14.058400226081336, -1.3842181408727159, 0.6637069271949197, 2.81905182942093, -2.1016024088741494, 0.6655540068899019, -0.8910737378242798]

>  <energy>  (18) 
-168.47478911718636

>  <inter_energy>  (18) 
-145.18663634069352

>  <intra_energy>  (18) 
2.913029540119311

>  <rmsd>  (18) 
11.9489

>  <sdf_rank>  (18) 
0

$$$$

     RDKit          3D

 31 33  0  0  0  0  0  0  0  0999 V2000
  -15.0249   18.3157   -8.3305 O   0  0  0  0  0  0  0  0  0  0  0  0
  -15.7282   18.2076   -9.5559 C   0  0  0  0  0  0  0  0  0  0  0  0
  -14.9219   17.4221  -10.5524 C   0  0  1  0  0  0  0  0  0  0  0  0
  -14.4962   16.1922   -9.9293 O   0  0  0  0  0  0  0  0  0  0  0  0
  -15.0667   15.0813  -10.5988 C   0  0  1  0  0  0  0  0  0  0  0  0
  -15.4222   14.0924   -9.5894 N   0  0  0  0  0  0  0  0  0  0  0  0
  -14.9680   12.7967   -9.5089 C   0  0  0  0  0  0  0  0  0  0  0  0
  -14.2148   12.1394  -10.3979 N   0  0  0  0  0  0  0  0  0  0  0  0
  -13.9313   10.9051   -9.9693 C   0  0  0  0  0  0  0  0  0  0  0  0
  -14.3082   10.3037   -8.8312 N   0  0  0  0  0  0  0  0  0  0  0  0
  -15.0798   10.9910   -7.9567 C   0  0  0  0  0  0  0  0  0  0  0  0
  -15.4664   10.3803   -6.8261 N   0  0  0  0  0  0  0  0  0  0  0  0
  -15.4381   12.3086   -8.2975 C   0  0  0  0  0  0  0  0  0  0  0  0
  -16.1999   13.2669   -7.6451 N   0  0  0  0  0  0  0  0  0  0  0  0
  -16.1590   14.2989   -8.4534 C   0  0  0  0  0  0  0  0  0  0  0  0
  -16.2209   15.6353  -11.4251 C   0  0  0  0  0  0  0  0  0  0  0  0
  -15.6912   17.0080  -11.8104 C   0  0  2  0  0  0  0  0  0  0  0  0
  -14.7822   16.8831  -12.9053 O   0  0  0  0  0  0  0  0  0  0  0  0
  -15.6589   18.2182   -7.5765 H   0  0  0  0  0  0  0  0  0  0  0  0
  -16.6862   17.6964   -9.3806 H   0  0  0  0  0  0  0  0  0  0  0  0
  -15.9072   19.2165   -9.9560 H   0  0  0  0  0  0  0  0  0  0  0  0
  -14.0990   18.0865  -10.8548 H   0  0  0  0  0  0  0  0  0  0  0  0
  -14.3966   14.5567  -11.2958 H   0  0  0  0  0  0  0  0  0  0  0  0
  -13.3038   10.3010  -10.6411 H   0  0  0  0  0  0  0  0  0  0  0  0
  -16.0537   10.8820   -6.1448 H   0  0  0  0  0  0  0  0  0  0  0  0
  -15.1757    9.4099   -6.6396 H   0  0  0  0  0  0  0  0  0  0  0  0
  -16.6719   15.2479   -8.2378 H   0  0  0  0  0  0  0  0  0  0  0  0
  -16.4124   15.0153  -12.3133 H   0  0  0  0  0  0  0  0  0  0  0  0
  -17.1819   15.6608  -10.8904 H   0  0  0  0  0  0  0  0  0  0  0  0
  -16.4727   17.7195  -12.1152 H   0  0  0  0  0  0  0  0  0  0  0  0
  -13.8634   16.7570  -12.5587 H   0  0  0  0  0  0  0  0  0  0  0  0
  1  2  1  0
  3  2  1  0
  3  4  1  0
  3 17  1  0
  4  5  1  0
  5  6  1  0
  5 16  1  0
  6  7  1  0
  6 15  1  0
  7  8  2  0
  7 13  1  0
  8  9  1  0
  9 10  2  0
 10 11  1  0
 11 12  1  0
 11 13  2  0
 13 14  1  0
 14 15  2  0
 16 17  1  0
 17 18  1  0
  1 19  1  0
  2 20  1  0
  2 21  1  0
  3 22  1  6
  5 23  1  6
  9 24  1  0
 12 25  1  0
 12 26  1  0
 15 27  1  0
 16 28  1  0
 16 29  1  0
 17 30  1  6
 18 31  1  0
M  END
>  <filename_input>  (19) 
6ZPB_3D1_docked.sdf

>  <pdb_id>  (19) 
6ZPB_3D1

>  <pose_rank>  (19) 
18

>  <num_atoms_heavy>  (19) 
18

>  <num_torsions>  (19) 
2

>  <pose>  (19) 
[-15.422175716354756, 14.092365382615172, -9.589402843422318, 0.6077579135081533, 2.3367152284205934, 1.1216732205486772, -0.40353887332099486, -2.1469492599945186]

>  <energy>  (19) 
-121.44683214158015

>  <inter_energy>  (19) 
-117.30841394872562

>  <intra_energy>  (19) 
0.0

>  <rmsd>  (19) 
10.751

>  <sdf_rank>  (19) 
0

$$$$

     RDKit          3D

 31 33  0  0  0  0  0  0  0  0999 V2000
  -15.1476   18.0452   -2.8943 O   0  0  0  0  0  0  0  0  0  0  0  0
  -14.6522   19.3675   -2.7767 C   0  0  0  0  0  0  0  0  0  0  0  0
  -13.6825   19.4612   -1.6317 C   0  0  1  0  0  0  0  0  0  0  0  0
  -12.7374   20.5135   -1.9170 O   0  0  0  0  0  0  0  0  0  0  0  0
  -12.8556   21.5506   -0.9587 C   0  0  1  0  0  0  0  0  0  0  0  0
  -12.6855   22.8183   -1.6568 N   0  0  0  0  0  0  0  0  0  0  0  0
  -11.8588   23.8553   -1.2927 C   0  0  0  0  0  0  0  0  0  0  0  0
  -11.1419   23.9715   -0.1693 N   0  0  0  0  0  0  0  0  0  0  0  0
  -10.4214   25.0978   -0.1724 C   0  0  0  0  0  0  0  0  0  0  0  0
  -10.3608   26.0538   -1.1114 N   0  0  0  0  0  0  0  0  0  0  0  0
  -11.1068   25.9131   -2.2322 C   0  0  0  0  0  0  0  0  0  0  0  0
  -11.0540   26.8789   -3.1623 N   0  0  0  0  0  0  0  0  0  0  0  0
  -11.9039   24.7588   -2.3456 C   0  0  0  0  0  0  0  0  0  0  0  0
  -12.7670   24.3144   -3.3365 N   0  0  0  0  0  0  0  0  0  0  0  0
  -13.2022   23.1658   -2.8768 C   0  0  0  0  0  0  0  0  0  0  0  0
  -14.2014   21.3409   -0.2755 C   0  0  0  0  0  0  0  0  0  0  0  0
  -14.3177   19.8244   -0.2861 C   0  0  2  0  0  0  0  0  0  0  0  0
  -13.5348   19.2741    0.7744 O   0  0  0  0  0  0  0  0  0  0  0  0
  -15.2901   17.6647   -1.9916 H   0  0  0  0  0  0  0  0  0  0  0  0
  -14.1407   19.6477   -3.7093 H   0  0  0  0  0  0  0  0  0  0  0  0
  -15.4944   20.0499   -2.5892 H   0  0  0  0  0  0  0  0  0  0  0  0
  -13.2346   18.4605   -1.5422 H   0  0  0  0  0  0  0  0  0  0  0  0
  -12.0912   21.5500   -0.1676 H   0  0  0  0  0  0  0  0  0  0  0  0
   -9.7932   25.2629    0.7153 H   0  0  0  0  0  0  0  0  0  0  0  0
  -11.6122   26.7952   -4.0239 H   0  0  0  0  0  0  0  0  0  0  0  0
  -10.4551   27.7038   -3.0147 H   0  0  0  0  0  0  0  0  0  0  0  0
  -13.9197   22.5362   -3.4234 H   0  0  0  0  0  0  0  0  0  0  0  0
  -14.1960   21.7357    0.7512 H   0  0  0  0  0  0  0  0  0  0  0  0
  -15.0384   21.8571   -0.7684 H   0  0  0  0  0  0  0  0  0  0  0  0
  -15.3456   19.4539   -0.1585 H   0  0  0  0  0  0  0  0  0  0  0  0
  -13.9209   19.5455    1.6447 H   0  0  0  0  0  0  0  0  0  0  0  0
  1  2  1  0
  3  2  1  0
  3  4  1  0
  3 17  1  0
  4  5  1  0
  5  6  1  0
  5 16  1  0
  6  7  1  0
  6 15  1  0
  7  8  2  0
  7 13  1  0
  8  9  1  0
  9 10  2  0
 10 11  1  0
 11 12  1  0
 11 13  2  0
 13 14  1  0
 14 15  2  0
 16 17  1  0
 17 18  1  0
  1 19  1  0
  2 20  1  0
  2 21  1  0
  3 22  1  1
  5 23  1  1
  9 24  1  0
 12 25  1  0
 12 26  1  0
 15 27  1  0
 16 28  1  0
 16 29  1  0
 17 30  1  6
 18 31  1  0
M  END
>  <filename_input>  (20) 
6ZPB_3D1_docked.sdf

>  <pdb_id>  (20) 
6ZPB_3D1

>  <pose_rank>  (20) 
19

>  <num_atoms_heavy>  (20) 
18

>  <num_torsions>  (20) 
2

>  <pose>  (20) 
[-12.685525115332185, 22.81828474189847, -1.6567541715379743, -0.18172120506426892, 1.5573577685116105, -2.389196460041473, -0.5704137118263044, -0.3819533513561613]

>  <energy>  (20) 
-151.44102994277293

>  <inter_energy>  (20) 
-141.21398240530212

>  <intra_energy>  (20) 
0.0

>  <rmsd>  (20) 
12.1599

>  <sdf_rank>  (20) 
0

$$$$

     RDKit          3D

 31 33  0  0  0  0  0  0  0  0999 V2000
  -14.8697   15.4530   -2.2475 O   0  0  0  0  0  0  0  0  0  0  0  0
  -14.3182   15.7987   -3.5061 C   0  0  0  0  0  0  0  0  0  0  0  0
  -15.2664   16.6843   -4.2655 C   0  0  1  0  0  0  0  0  0  0  0  0
  -15.3989   17.9315   -3.5520 O   0  0  0  0  0  0  0  0  0  0  0  0
  -14.9072   19.0011   -4.3407 C   0  0  1  0  0  0  0  0  0  0  0  0
  -14.2145   19.9238   -3.4507 N   0  0  0  0  0  0  0  0  0  0  0  0
  -14.7543   20.5991   -2.3811 C   0  0  0  0  0  0  0  0  0  0  0  0
  -16.0394   20.6510   -2.0133 N   0  0  0  0  0  0  0  0  0  0  0  0
  -16.1921   21.3726   -0.8981 C   0  0  0  0  0  0  0  0  0  0  0  0
  -15.2590   22.0099   -0.1755 N   0  0  0  0  0  0  0  0  0  0  0  0
  -13.9685   21.9483   -0.5798 C   0  0  0  0  0  0  0  0  0  0  0  0
  -13.0405   22.5993    0.1382 N   0  0  0  0  0  0  0  0  0  0  0  0
  -13.6830   21.2080   -1.7421 C   0  0  0  0  0  0  0  0  0  0  0  0
  -12.4982   20.9478   -2.4152 N   0  0  0  0  0  0  0  0  0  0  0  0
  -12.8708   20.1875   -3.4168 C   0  0  0  0  0  0  0  0  0  0  0  0
  -14.0571   18.3628   -5.4324 C   0  0  0  0  0  0  0  0  0  0  0  0
  -14.7994   17.0578   -5.6755 C   0  0  2  0  0  0  0  0  0  0  0  0
  -15.9366   17.2984   -6.5060 O   0  0  0  0  0  0  0  0  0  0  0  0
  -14.2957   15.8128   -1.5256 H   0  0  0  0  0  0  0  0  0  0  0  0
  -13.3684   16.3318   -3.3521 H   0  0  0  0  0  0  0  0  0  0  0  0
  -14.1448   14.8799   -4.0855 H   0  0  0  0  0  0  0  0  0  0  0  0
  -16.2003   16.1096   -4.3528 H   0  0  0  0  0  0  0  0  0  0  0  0
  -15.6752   19.6059   -4.8452 H   0  0  0  0  0  0  0  0  0  0  0  0
  -17.2226   21.4546   -0.5222 H   0  0  0  0  0  0  0  0  0  0  0  0
  -12.0517   22.5678   -0.1488 H   0  0  0  0  0  0  0  0  0  0  0  0
  -13.3168   23.1306    0.9762 H   0  0  0  0  0  0  0  0  0  0  0  0
  -12.1656   19.7957   -4.1645 H   0  0  0  0  0  0  0  0  0  0  0  0
  -14.0337   18.9860   -6.3386 H   0  0  0  0  0  0  0  0  0  0  0  0
  -13.0003   18.2315   -5.1569 H   0  0  0  0  0  0  0  0  0  0  0  0
  -14.1933   16.2838   -6.1692 H   0  0  0  0  0  0  0  0  0  0  0  0
  -16.7301   17.4663   -5.9384 H   0  0  0  0  0  0  0  0  0  0  0  0
  1  2  1  0
  3  2  1  0
  3  4  1  0
  3 17  1  0
  4  5  1  0
  5  6  1  0
  5 16  1  0
  6  7  1  0
  6 15  1  0
  7  8  2  0
  7 13  1  0
  8  9  1  0
  9 10  2  0
 10 11  1  0
 11 12  1  0
 11 13  2  0
 13 14  1  0
 14 15  2  0
 16 17  1  0
 17 18  1  0
  1 19  1  0
  2 20  1  0
  2 21  1  0
  3 22  1  6
  5 23  1  6
  9 24  1  0
 12 25  1  0
 12 26  1  0
 15 27  1  0
 16 28  1  0
 16 29  1  0
 17 30  1  6
 18 31  1  0
M  END
>  <filename_input>  (21) 
6ZPB_3D1_docked.sdf

>  <pdb_id>  (21) 
6ZPB_3D1

>  <pose_rank>  (21) 
20

>  <num_atoms_heavy>  (21) 
18

>  <num_torsions>  (21) 
2

>  <pose>  (21) 
[-14.214510269431944, 19.923776885771126, -3.4506984635299713, 1.928993910169301, 0.7644198905496377, -1.287202877307136, 0.6642220990423351, -1.8928439921968119]

>  <energy>  (21) 
-136.25377042101357

>  <inter_energy>  (21) 
-123.37323491978432

>  <intra_energy>  (21) 
2.890607365344577

>  <rmsd>  (21) 
11.8562

>  <sdf_rank>  (21) 
0

$$$$

     RDKit          3D

 31 33  0  0  0  0  0  0  0  0999 V2000
   -3.0431   10.2438   -4.5985 O   0  0  0  0  0  0  0  0  0  0  0  0
   -2.5504    9.1999   -3.7767 C   0  0  0  0  0  0  0  0  0  0  0  0
   -2.7093    9.5593   -2.3257 C   0  0  1  0  0  0  0  0  0  0  0  0
   -3.9876   10.2057   -2.1514 O   0  0  0  0  0  0  0  0  0  0  0  0
   -4.8177    9.4287   -1.3057 C   0  0  1  0  0  0  0  0  0  0  0  0
   -6.1756    9.5050   -1.8286 N   0  0  0  0  0  0  0  0  0  0  0  0
   -6.6312    8.9861   -3.0180 C   0  0  0  0  0  0  0  0  0  0  0  0
   -5.9086    8.4212   -3.9918 N   0  0  0  0  0  0  0  0  0  0  0  0
   -6.6927    7.9936   -4.9868 C   0  0  0  0  0  0  0  0  0  0  0  0
   -8.0263    8.0796   -5.1017 N   0  0  0  0  0  0  0  0  0  0  0  0
   -8.7288    8.6669   -4.1046 C   0  0  0  0  0  0  0  0  0  0  0  0
  -10.0612    8.7635   -4.2305 N   0  0  0  0  0  0  0  0  0  0  0  0
   -8.0092    9.1515   -2.9965 C   0  0  0  0  0  0  0  0  0  0  0  0
   -8.4082    9.7912   -1.8320 N   0  0  0  0  0  0  0  0  0  0  0  0
   -7.2855    9.9784   -1.1805 C   0  0  0  0  0  0  0  0  0  0  0  0
   -4.1951    8.0384   -1.2668 C   0  0  0  0  0  0  0  0  0  0  0  0
   -2.7128    8.3632   -1.3690 C   0  0  2  0  0  0  0  0  0  0  0  0
   -2.2206    8.7729   -0.0921 O   0  0  0  0  0  0  0  0  0  0  0  0
   -3.3889   10.9764   -4.0295 H   0  0  0  0  0  0  0  0  0  0  0  0
   -3.1123    8.2776   -3.9858 H   0  0  0  0  0  0  0  0  0  0  0  0
   -1.4827    9.0478   -3.9929 H   0  0  0  0  0  0  0  0  0  0  0  0
   -1.8434   10.1925   -2.0824 H   0  0  0  0  0  0  0  0  0  0  0  0
   -4.8875    9.7776   -0.2648 H   0  0  0  0  0  0  0  0  0  0  0  0
   -6.1738    7.5051   -5.8247 H   0  0  0  0  0  0  0  0  0  0  0  0
  -10.6181    9.2062   -3.4856 H   0  0  0  0  0  0  0  0  0  0  0  0
  -10.5271    8.3950   -5.0719 H   0  0  0  0  0  0  0  0  0  0  0  0
   -7.2392   10.4728   -0.1989 H   0  0  0  0  0  0  0  0  0  0  0  0
   -4.4284    7.5205   -0.3249 H   0  0  0  0  0  0  0  0  0  0  0  0
   -4.5603    7.3628   -2.0544 H   0  0  0  0  0  0  0  0  0  0  0  0
   -2.0918    7.5184   -1.7019 H   0  0  0  0  0  0  0  0  0  0  0  0
   -2.7482    8.3337    0.6213 H   0  0  0  0  0  0  0  0  0  0  0  0
  1  2  1  0
  3  2  1  0
  3  4  1  0
  3 17  1  0
  4  5  1  0
  5  6  1  0
  5 16  1  0
  6  7  1  0
  6 15  1  0
  7  8  2  0
  7 13  1  0
  8  9  1  0
  9 10  2  0
 10 11  1  0
 11 12  1  0
 11 13  2  0
 13 14  1  0
 14 15  2  0
 16 17  1  0
 17 18  1  0
  1 19  1  0
  2 20  1  0
  2 21  1  0
  3 22  1  1
  5 23  1  1
  9 24  1  0
 12 25  1  0
 12 26  1  0
 15 27  1  0
 16 28  1  0
 16 29  1  0
 17 30  1  6
 18 31  1  0
M  END
>  <filename_input>  (22) 
6ZPB_3D1_docked.sdf

>  <pdb_id>  (22) 
6ZPB_3D1

>  <pose_rank>  (22) 
21

>  <num_atoms_heavy>  (22) 
18

>  <num_torsions>  (22) 
2

>  <pose>  (22) 
[-6.175586504786652, 9.504967717065911, -1.828599566699492, -2.8989178066417356, -0.8648768565805607, -3.0748881165001762, 2.884724171969466, -2.325614499774135]

>  <energy>  (22) 
-148.43382591142807

>  <inter_energy>  (22) 
-133.1502689420066

>  <intra_energy>  (22) 
10.836510046926119

>  <rmsd>  (22) 
11.3194

>  <sdf_rank>  (22) 
0

$$$$

     RDKit          3D

 31 33  0  0  0  0  0  0  0  0999 V2000
   -0.2398    9.1013  -10.8047 O   0  0  0  0  0  0  0  0  0  0  0  0
    0.2202    8.5240  -12.0142 C   0  0  0  0  0  0  0  0  0  0  0  0
    1.6913    8.7802  -12.1878 C   0  0  1  0  0  0  0  0  0  0  0  0
    1.9944    8.7709  -13.5986 O   0  0  0  0  0  0  0  0  0  0  0  0
    2.4581   10.0457  -14.0080 C   0  0  1  0  0  0  0  0  0  0  0  0
    1.9050   10.3134  -15.3292 N   0  0  0  0  0  0  0  0  0  0  0  0
    0.6341   10.0205  -15.7656 C   0  0  0  0  0  0  0  0  0  0  0  0
   -0.3091    9.3235  -15.1222 N   0  0  0  0  0  0  0  0  0  0  0  0
   -1.4394    9.2716  -15.8346 C   0  0  0  0  0  0  0  0  0  0  0  0
   -1.6966    9.7974  -17.0415 N   0  0  0  0  0  0  0  0  0  0  0  0
   -0.7180   10.4877  -17.6725 C   0  0  0  0  0  0  0  0  0  0  0  0
   -0.9753   10.9996  -18.8859 N   0  0  0  0  0  0  0  0  0  0  0  0
    0.5193   10.6159  -17.0143 C   0  0  0  0  0  0  0  0  0  0  0  0
    1.7050   11.2422  -17.3698 N   0  0  0  0  0  0  0  0  0  0  0  0
    2.4889   11.0302  -16.3399 C   0  0  0  0  0  0  0  0  0  0  0  0
    2.0507   11.0157  -12.9056 C   0  0  0  0  0  0  0  0  0  0  0  0
    2.1677   10.1397  -11.6677 C   0  0  2  0  0  0  0  0  0  0  0  0
    3.5372   10.0455  -11.2725 O   0  0  0  0  0  0  0  0  0  0  0  0
    0.1496    8.6126  -10.0368 H   0  0  0  0  0  0  0  0  0  0  0  0
    0.0412    7.4390  -11.9896 H   0  0  0  0  0  0  0  0  0  0  0  0
   -0.3237    8.9766  -12.8564 H   0  0  0  0  0  0  0  0  0  0  0  0
    2.1977    7.9934  -11.6094 H   0  0  0  0  0  0  0  0  0  0  0  0
    3.5481   10.1347  -14.1261 H   0  0  0  0  0  0  0  0  0  0  0  0
   -2.2710    8.7235  -15.3677 H   0  0  0  0  0  0  0  0  0  0  0  0
   -0.2472   11.5288  -19.3866 H   0  0  0  0  0  0  0  0  0  0  0  0
   -1.9009   10.8632  -19.3167 H   0  0  0  0  0  0  0  0  0  0  0  0
    3.5251   11.3962  -16.2919 H   0  0  0  0  0  0  0  0  0  0  0  0
    2.7347   11.8756  -12.8548 H   0  0  0  0  0  0  0  0  0  0  0  0
    1.0543   11.4599  -13.0465 H   0  0  0  0  0  0  0  0  0  0  0  0
    1.6033   10.5133  -10.8006 H   0  0  0  0  0  0  0  0  0  0  0  0
    3.5960   10.0415  -10.2842 H   0  0  0  0  0  0  0  0  0  0  0  0
  1  2  1  0
  3  2  1  0
  3  4  1  0
  3 17  1  0
  4  5  1  0
  5  6  1  0
  5 16  1  0
  6  7  1  0
  6 15  1  0
  7  8  2  0
  7 13  1  0
  8  9  1  0
  9 10  2  0
 10 11  1  0
 11 12  1  0
 11 13  2  0
 13 14  1  0
 14 15  2  0
 16 17  1  0
 17 18  1  0
  1 19  1  0
  2 20  1  0
  2 21  1  0
  3 22  1  1
  5 23  1  6
  9 24  1  0
 12 25  1  0
 12 26  1  0
 15 27  1  0
 16 28  1  0
 16 29  1  0
 17 30  1  1
 18 31  1  0
M  END
>  <filename_input>  (23) 
6ZPB_3D1_docked.sdf

>  <pdb_id>  (23) 
6ZPB_3D1

>  <pose_rank>  (23) 
22

>  <num_atoms_heavy>  (23) 
18

>  <num_torsions>  (23) 
2

>  <pose>  (23) 
[1.9050296180796233, 10.313381474120423, -15.329238984027935, 0.9292524853324948, -1.6476907232392661, 5.7022246156161875, -3.8705633332524934, 0.576371213646939]

>  <energy>  (23) 
-148.18182319775934

>  <inter_energy>  (23) 
-135.7205624536289

>  <intra_energy>  (23) 
20.431885738002602

>  <rmsd>  (23) 
12.2536

>  <sdf_rank>  (23) 
0

$$$$

     RDKit          3D

 31 33  0  0  0  0  0  0  0  0999 V2000
  -13.9129   17.6012   -4.8007 O   0  0  0  0  0  0  0  0  0  0  0  0
  -14.1539   18.8091   -4.1003 C   0  0  0  0  0  0  0  0  0  0  0  0
  -12.9162   19.2413   -3.3647 C   0  0  1  0  0  0  0  0  0  0  0  0
  -12.9020   20.6827   -3.2995 O   0  0  0  0  0  0  0  0  0  0  0  0
  -12.9808   21.1125   -1.9516 C   0  0  1  0  0  0  0  0  0  0  0  0
  -13.8323   22.2944   -1.9141 N   0  0  0  0  0  0  0  0  0  0  0  0
  -13.6168   23.4429   -1.1889 C   0  0  0  0  0  0  0  0  0  0  0  0
  -12.6617   23.6664   -0.2793 N   0  0  0  0  0  0  0  0  0  0  0  0
  -12.7323   24.9141    0.1961 C   0  0  0  0  0  0  0  0  0  0  0  0
  -13.6053   25.8836   -0.1152 N   0  0  0  0  0  0  0  0  0  0  0  0
  -14.5676   25.6232   -1.0310 C   0  0  0  0  0  0  0  0  0  0  0  0
  -15.4476   26.5915   -1.3287 N   0  0  0  0  0  0  0  0  0  0  0  0
  -14.5893   24.3401   -1.6087 C   0  0  0  0  0  0  0  0  0  0  0  0
  -15.4195   23.7563   -2.5544 N   0  0  0  0  0  0  0  0  0  0  0  0
  -14.9285   22.5483   -2.6951 C   0  0  0  0  0  0  0  0  0  0  0  0
  -13.4730   19.9105   -1.1547 C   0  0  0  0  0  0  0  0  0  0  0  0
  -12.8350   18.7573   -1.9138 C   0  0  2  0  0  0  0  0  0  0  0  0
  -11.4649   18.6281   -1.5305 O   0  0  0  0  0  0  0  0  0  0  0  0
  -13.7665   16.8674   -4.1523 H   0  0  0  0  0  0  0  0  0  0  0  0
  -14.4425   19.5925   -4.8166 H   0  0  0  0  0  0  0  0  0  0  0  0
  -14.9636   18.6462   -3.3738 H   0  0  0  0  0  0  0  0  0  0  0  0
  -12.0745   18.8036   -3.9214 H   0  0  0  0  0  0  0  0  0  0  0  0
  -12.0278   21.4270   -1.5012 H   0  0  0  0  0  0  0  0  0  0  0  0
  -11.9712   25.1817    0.9438 H   0  0  0  0  0  0  0  0  0  0  0  0
  -16.1891   26.4181   -2.0223 H   0  0  0  0  0  0  0  0  0  0  0  0
  -15.3815   27.5082   -0.8637 H   0  0  0  0  0  0  0  0  0  0  0  0
  -15.3596   21.8039   -3.3806 H   0  0  0  0  0  0  0  0  0  0  0  0
  -13.1215   19.9485   -0.1131 H   0  0  0  0  0  0  0  0  0  0  0  0
  -14.5682   19.8434   -1.0773 H   0  0  0  0  0  0  0  0  0  0  0  0
  -13.3162   17.7842   -1.7359 H   0  0  0  0  0  0  0  0  0  0  0  0
  -11.3978   18.6218   -0.5428 H   0  0  0  0  0  0  0  0  0  0  0  0
  1  2  1  0
  3  2  1  0
  3  4  1  0
  3 17  1  0
  4  5  1  0
  5  6  1  0
  5 16  1  0
  6  7  1  0
  6 15  1  0
  7  8  2  0
  7 13  1  0
  8  9  1  0
  9 10  2  0
 10 11  1  0
 11 12  1  0
 11 13  2  0
 13 14  1  0
 14 15  2  0
 16 17  1  0
 17 18  1  0
  1 19  1  0
  2 20  1  0
  2 21  1  0
  3 22  1  6
  5 23  1  1
  9 24  1  0
 12 25  1  0
 12 26  1  0
 15 27  1  0
 16 28  1  0
 16 29  1  0
 17 30  1  6
 18 31  1  0
M  END
>  <filename_input>  (24) 
6ZPB_3D1_docked.sdf

>  <pdb_id>  (24) 
6ZPB_3D1

>  <pose_rank>  (24) 
23

>  <num_atoms_heavy>  (24) 
18

>  <num_torsions>  (24) 
2

>  <pose>  (24) 
[-13.832270079070362, 22.29438672621252, -1.9141239983295473, -0.8828696723314683, 1.7657106745956173, -1.4831337904085995, -0.6904036442384613, -0.4294589319436753]

>  <energy>  (24) 
-140.1326897942998

>  <inter_energy>  (24) 
-132.94703130155074

>  <intra_energy>  (24) 
0.0

>  <rmsd>  (24) 
12.3296

>  <sdf_rank>  (24) 
0

$$$$

     RDKit          3D

 31 33  0  0  0  0  0  0  0  0999 V2000
  -14.2379   17.6522   -3.2835 O   0  0  0  0  0  0  0  0  0  0  0  0
  -14.3117   19.0661   -3.3379 C   0  0  0  0  0  0  0  0  0  0  0  0
  -13.2678   19.6775   -2.4454 C   0  0  1  0  0  0  0  0  0  0  0  0
  -12.8893   20.9575   -2.9937 O   0  0  0  0  0  0  0  0  0  0  0  0
  -13.2330   21.9965   -2.0936 C   0  0  1  0  0  0  0  0  0  0  0  0
  -13.7125   23.1237   -2.8827 N   0  0  0  0  0  0  0  0  0  0  0  0
  -13.0272   24.2817   -3.1670 C   0  0  0  0  0  0  0  0  0  0  0  0
  -11.8424   24.6689   -2.6812 N   0  0  0  0  0  0  0  0  0  0  0  0
  -11.4636   25.8367   -3.2106 C   0  0  0  0  0  0  0  0  0  0  0  0
  -12.1091   26.6043   -4.1011 N   0  0  0  0  0  0  0  0  0  0  0  0
  -13.3117   26.1911   -4.5655 C   0  0  0  0  0  0  0  0  0  0  0  0
  -13.9605   26.9692   -5.4454 N   0  0  0  0  0  0  0  0  0  0  0  0
  -13.8124   24.9673   -4.0837 C   0  0  0  0  0  0  0  0  0  0  0  0
  -14.9828   24.2700   -4.3452 N   0  0  0  0  0  0  0  0  0  0  0  0
  -14.8724   23.1909   -3.6081 C   0  0  0  0  0  0  0  0  0  0  0  0
  -14.2343   21.3926   -1.1165 C   0  0  0  0  0  0  0  0  0  0  0  0
  -13.7373   19.9588   -1.0149 C   0  0  2  0  0  0  0  0  0  0  0  0
  -12.6204   19.8984   -0.1263 O   0  0  0  0  0  0  0  0  0  0  0  0
  -14.2226   17.3587   -2.3381 H   0  0  0  0  0  0  0  0  0  0  0  0
  -14.1442   19.3987   -4.3730 H   0  0  0  0  0  0  0  0  0  0  0  0
  -15.3070   19.3861   -2.9959 H   0  0  0  0  0  0  0  0  0  0  0  0
  -12.4505   18.9427   -2.4016 H   0  0  0  0  0  0  0  0  0  0  0  0
  -12.4010   22.3947   -1.4943 H   0  0  0  0  0  0  0  0  0  0  0  0
  -10.4905   26.2199   -2.8696 H   0  0  0  0  0  0  0  0  0  0  0  0
  -14.8769   26.6769   -5.8136 H   0  0  0  0  0  0  0  0  0  0  0  0
  -13.5420   27.8588   -5.7527 H   0  0  0  0  0  0  0  0  0  0  0  0
  -15.6443   22.4078   -3.5751 H   0  0  0  0  0  0  0  0  0  0  0  0
  -14.1988   21.8997   -0.1409 H   0  0  0  0  0  0  0  0  0  0  0  0
  -15.2824   21.4808   -1.4386 H   0  0  0  0  0  0  0  0  0  0  0  0
  -14.4904   19.2499   -0.6403 H   0  0  0  0  0  0  0  0  0  0  0  0
  -12.9421   19.9158    0.8098 H   0  0  0  0  0  0  0  0  0  0  0  0
  1  2  1  0
  3  2  1  0
  3  4  1  0
  3 17  1  0
  4  5  1  0
  5  6  1  0
  5 16  1  0
  6  7  1  0
  6 15  1  0
  7  8  2  0
  7 13  1  0
  8  9  1  0
  9 10  2  0
 10 11  1  0
 11 12  1  0
 11 13  2  0
 13 14  1  0
 14 15  2  0
 16 17  1  0
 17 18  1  0
  1 19  1  0
  2 20  1  0
  2 21  1  0
  3 22  1  1
  5 23  1  1
  9 24  1  0
 12 25  1  0
 12 26  1  0
 15 27  1  0
 16 28  1  0
 16 29  1  0
 17 30  1  1
 18 31  1  0
M  END
>  <filename_input>  (25) 
6ZPB_3D1_docked.sdf

>  <pdb_id>  (25) 
6ZPB_3D1

>  <pose_rank>  (25) 
24

>  <num_atoms_heavy>  (25) 
18

>  <num_torsions>  (25) 
2

>  <pose>  (25) 
[-13.712475751142376, 23.123669995455497, -2.88273190951481, -1.0991349401589503, 1.5054877133751223, -2.458603187096859, -0.10032844625025537, -0.39842466527252324]

>  <energy>  (25) 
-125.05640169519336

>  <inter_energy>  (25) 
-127.00744701047405

>  <intra_energy>  (25) 
0.0

>  <rmsd>  (25) 
11.6366

>  <sdf_rank>  (25) 
0

$$$$

     RDKit          3D

 31 33  0  0  0  0  0  0  0  0999 V2000
   -3.6150   21.0130   -5.8810 O   0  0  0  0  0  0  0  0  0  0  0  0
   -4.5220   20.5150   -6.8490 C   0  0  0  0  0  0  0  0  0  0  0  0
   -4.9340   19.1110   -6.5040 C   0  0  1  0  0  0  0  0  0  0  0  0
   -5.9670   18.6980   -7.4230 O   0  0  0  0  0  0  0  0  0  0  0  0
   -5.5180   17.6050   -8.2050 C   0  0  1  0  0  0  0  0  0  0  0  0
   -6.0290   17.7900   -9.5570 N   0  0  0  0  0  0  0  0  0  0  0  0
   -7.1470   17.2040  -10.1030 C   0  0  0  0  0  0  0  0  0  0  0  0
   -7.9190   16.2560   -9.5600 N   0  0  0  0  0  0  0  0  0  0  0  0
   -8.9450   15.9530  -10.3620 C   0  0  0  0  0  0  0  0  0  0  0  0
   -9.2460   16.4570  -11.5680 N   0  0  0  0  0  0  0  0  0  0  0  0
   -8.4390   17.4070  -12.0960 C   0  0  0  0  0  0  0  0  0  0  0  0
   -8.7360   17.8980  -13.3090 N   0  0  0  0  0  0  0  0  0  0  0  0
   -7.3260   17.8140  -11.3370 C   0  0  0  0  0  0  0  0  0  0  0  0
   -6.3220   18.7410  -11.5760 N   0  0  0  0  0  0  0  0  0  0  0  0
   -5.5830   18.6840  -10.4940 C   0  0  0  0  0  0  0  0  0  0  0  0
   -4.0010   17.5810   -8.0630 C   0  0  0  0  0  0  0  0  0  0  0  0
   -3.8190   18.0690   -6.6340 C   0  0  2  0  0  0  0  0  0  0  0  0
   -4.0620   16.9950   -5.7240 O   0  0  0  0  0  0  0  0  0  0  0  0
   -3.9627   20.8221   -4.9739 H   0  0  0  0  0  0  0  0  0  0  0  0
   -5.4136   21.1586   -6.8759 H   0  0  0  0  0  0  0  0  0  0  0  0
   -4.0297   20.5121   -7.8327 H   0  0  0  0  0  0  0  0  0  0  0  0
   -5.2507   19.1471   -5.4512 H   0  0  0  0  0  0  0  0  0  0  0  0
   -5.8850   16.6175   -7.8886 H   0  0  0  0  0  0  0  0  0  0  0  0
   -9.6359   15.1865   -9.9811 H   0  0  0  0  0  0  0  0  0  0  0  0
   -8.1375   18.6215  -13.7324 H   0  0  0  0  0  0  0  0  0  0  0  0
   -9.5624   17.5514  -13.8167 H   0  0  0  0  0  0  0  0  0  0  0  0
   -4.6833   19.3005  -10.3514 H   0  0  0  0  0  0  0  0  0  0  0  0
   -3.6018   16.5644   -8.1937 H   0  0  0  0  0  0  0  0  0  0  0  0
   -3.4720   18.1870   -8.8133 H   0  0  0  0  0  0  0  0  0  0  0  0
   -2.8125   18.4570   -6.4188 H   0  0  0  0  0  0  0  0  0  0  0  0
   -3.9869   17.3268   -4.7943 H   0  0  0  0  0  0  0  0  0  0  0  0
  1  2  1  0
  3  2  1  0
  3  4  1  0
  3 17  1  0
  4  5  1  0
  5  6  1  0
  5 16  1  0
  6  7  1  0
  6 15  1  0
  7  8  2  0
  7 13  1  0
  8  9  1  0
  9 10  2  0
 10 11  1  0
 11 12  1  0
 11 13  2  0
 13 14  1  0
 14 15  2  0
 16 17  1  0
 17 18  1  0
  1 19  1  0
  2 20  1  0
  2 21  1  0
  3 22  1  1
  5 23  1  1
  9 24  1  0
 12 25  1  0
 12 26  1  0
 15 27  1  0
 16 28  1  0
 16 29  1  0
 17 30  1  6
 18 31  1  0
M  END
>  <filename_input>  (26) 
6ZPB_3D1_docked.sdf

>  <pdb_id>  (26) 
6ZPB_3D1

>  <pose_rank>  (26) 
25

>  <num_atoms_heavy>  (26) 
18

>  <num_torsions>  (26) 
2

>  <pose>  (26) 
[-6.029, 17.79, -9.557, 1e-06, 1e-06, 1e-06, 0.0, 0.0]

>  <energy>  (26) 
-534.1920792077899

>  <inter_energy>  (26) 
-537.5741844170773

>  <intra_energy>  (26) 
0.0

>  <rmsd>  (26) 
0.0

>  <sdf_rank>  (26) 
0

$$$$
