
     RDKit          3D

 23 22  0  0  0  0  0  0  0  0999 V2000
   19.3366  -24.4945    6.3180 C   0  0  0  0  0  0  0  0  0  0  0  0
   19.5408  -25.1639    4.9869 C   0  0  0  0  0  0  0  0  0  0  0  0
   20.5183  -24.3383    4.1501 C   0  0  0  0  0  0  0  0  0  0  0  0
   22.0868  -24.8976    9.6757 C   0  0  0  0  0  0  0  0  0  0  0  0
   17.4469  -25.3697    7.6377 C   0  0  0  0  0  0  0  0  0  0  0  0
   19.0022  -25.4716    7.4885 C   0  0  2  0  0  0  0  0  0  0  0  0
   19.7995  -25.1377    8.7553 C   0  0  0  0  0  0  0  0  0  0  0  0
   21.3357  -25.2780    8.5770 C   0  0  0  0  0  0  0  0  0  0  0  0
   21.7486  -25.7183    7.5184 O   0  0  0  0  0  0  0  0  0  0  0  0
   21.9797  -23.7575   10.1442 O   0  0  0  0  0  0  0  0  0  0  0  0
   22.9725  -25.6985   10.2357 O   0  0  0  0  0  0  0  0  0  0  0  0
   16.8350  -24.3377    7.8570 O   0  0  0  0  0  0  0  0  0  0  0  0
   16.7962  -26.5299    7.5594 O   0  0  0  0  0  0  0  0  0  0  0  0
   20.2588  -23.9527    6.5753 H   0  0  0  0  0  0  0  0  0  0  0  0
   18.4662  -23.8315    6.2050 H   0  0  0  0  0  0  0  0  0  0  0  0
   19.9511  -26.1727    5.1421 H   0  0  0  0  0  0  0  0  0  0  0  0
   18.5776  -25.2388    4.4608 H   0  0  0  0  0  0  0  0  0  0  0  0
   21.1864  -23.7740    4.8174 H   0  0  0  0  0  0  0  0  0  0  0  0
   21.1155  -25.0096    3.5154 H   0  0  0  0  0  0  0  0  0  0  0  0
   19.9564  -23.6372    3.5154 H   0  0  0  0  0  0  0  0  0  0  0  0
   19.2990  -26.5124    7.2920 H   0  0  0  0  0  0  0  0  0  0  0  0
   19.5760  -24.0999    9.0435 H   0  0  0  0  0  0  0  0  0  0  0  0
   19.4966  -25.8603    9.5273 H   0  0  0  0  0  0  0  0  0  0  0  0
  1  2  1  0
  6  1  1  0
  2  3  1  0
  4  8  1  0
  4 10  2  0
  4 11  1  0
  5  6  1  0
  5 12  2  0
  5 13  1  0
  6  7  1  0
  7  8  1  0
  8  9  2  0
  1 14  1  0
  1 15  1  0
  2 16  1  0
  2 17  1  0
  3 18  1  0
  3 19  1  0
  3 20  1  0
  6 21  1  6
  7 22  1  0
  7 23  1  0
M  CHG  2  11  -1  13  -1
M  END
>  <filename_input>  (1) 
7A1P_QW2_docked.sdf

>  <pdb_id>  (1) 
7A1P_QW2

>  <pose_rank>  (1) 
0

>  <num_atoms_heavy>  (1) 
13

>  <num_torsions>  (1) 
6

>  <pose>  (1) 
[19.00218875473028, -25.47155387883652, 7.488477796331131, -4.129814610634773, 3.76066543693105, -2.1962738110317135, -2.1616617147770536, 1.425875894051907, 0.6641151528984226, -5.93940448415563, 0.4660578964098424, -4.179899977561652]

>  <energy>  (1) 
-520.9570623168838

>  <inter_energy>  (1) 
-524.4212926630377

>  <intra_energy>  (1) 
13.469936743466295

>  <rmsd>  (1) 
0.905767

>  <sdf_rank>  (1) 
0

$$$$

     RDKit          3D

 23 22  0  0  0  0  0  0  0  0999 V2000
   18.9821  -24.3847    7.2694 C   0  0  0  0  0  0  0  0  0  0  0  0
   18.3077  -25.3176    8.2371 C   0  0  0  0  0  0  0  0  0  0  0  0
   16.8154  -24.9905    8.2986 C   0  0  0  0  0  0  0  0  0  0  0  0
   22.0845  -24.8860    9.1723 C   0  0  0  0  0  0  0  0  0  0  0  0
   19.7204  -25.4080    5.1513 C   0  0  0  0  0  0  0  0  0  0  0  0
   20.2405  -24.9826    6.5655 C   0  0  2  0  0  0  0  0  0  0  0  0
   20.8738  -26.1095    7.3906 C   0  0  0  0  0  0  0  0  0  0  0  0
   21.0458  -25.7574    8.8933 C   0  0  0  0  0  0  0  0  0  0  0  0
   20.2618  -26.2479    9.6868 O   0  0  0  0  0  0  0  0  0  0  0  0
   23.2596  -25.2646    9.0915 O   0  0  0  0  0  0  0  0  0  0  0  0
   21.8767  -23.6484    9.5781 O   0  0  0  0  0  0  0  0  0  0  0  0
   20.2495  -26.2437    4.4377 O   0  0  0  0  0  0  0  0  0  0  0  0
   18.6474  -24.7444    4.7225 O   0  0  0  0  0  0  0  0  0  0  0  0
   18.2530  -24.1084    6.4935 H   0  0  0  0  0  0  0  0  0  0  0  0
   19.3316  -23.5230    7.8570 H   0  0  0  0  0  0  0  0  0  0  0  0
   18.4425  -26.3562    7.9007 H   0  0  0  0  0  0  0  0  0  0  0  0
   18.7526  -25.1969    9.2358 H   0  0  0  0  0  0  0  0  0  0  0  0
   16.4983  -24.9209    9.3496 H   0  0  0  0  0  0  0  0  0  0  0  0
   16.6295  -24.0302    7.7952 H   0  0  0  0  0  0  0  0  0  0  0  0
   16.2448  -25.7849    7.7952 H   0  0  0  0  0  0  0  0  0  0  0  0
   21.0714  -24.2684    6.4672 H   0  0  0  0  0  0  0  0  0  0  0  0
   20.2327  -27.0000    7.3131 H   0  0  0  0  0  0  0  0  0  0  0  0
   21.8804  -26.2824    6.9822 H   0  0  0  0  0  0  0  0  0  0  0  0
  1  2  1  0
  6  1  1  0
  2  3  1  0
  4  8  1  0
  4 10  2  0
  4 11  1  0
  5  6  1  0
  5 12  2  0
  5 13  1  0
  6  7  1  0
  7  8  1  0
  8  9  2  0
  1 14  1  0
  1 15  1  0
  2 16  1  0
  2 17  1  0
  3 18  1  0
  3 19  1  0
  3 20  1  0
  6 21  1  6
  7 22  1  0
  7 23  1  0
M  CHG  2  11  -1  13  -1
M  END
>  <filename_input>  (2) 
7A1P_QW2_docked.sdf

>  <pdb_id>  (2) 
7A1P_QW2

>  <pose_rank>  (2) 
1

>  <num_atoms_heavy>  (2) 
13

>  <num_torsions>  (2) 
6

>  <pose>  (2) 
[20.24051417627759, -24.982585490966027, 6.565484537566416, -3.0435784458696844, 1.044528897933955, -2.070066349637642, 2.3749749046925017, -1.3626185622632867, -5.622642946202928, 13.187911047851687, 2.3671949836085338, 1.840456509113789]

>  <energy>  (2) 
-478.21864854242426

>  <inter_energy>  (2) 
-538.4240392618178

>  <intra_energy>  (2) 
59.812403230663364

>  <rmsd>  (2) 
2.96818

>  <sdf_rank>  (2) 
0

$$$$

     RDKit          3D

 23 22  0  0  0  0  0  0  0  0999 V2000
   21.6038  -25.9801    7.2615 C   0  0  0  0  0  0  0  0  0  0  0  0
   21.4784  -25.8027    5.7734 C   0  0  0  0  0  0  0  0  0  0  0  0
   20.8365  -24.4468    5.4780 C   0  0  0  0  0  0  0  0  0  0  0  0
   16.9347  -25.1756    8.2223 C   0  0  0  0  0  0  0  0  0  0  0  0
   21.3658  -24.7560    9.3884 C   0  0  0  0  0  0  0  0  0  0  0  0
   20.5737  -25.1596    8.0995 C   0  0  2  0  0  0  0  0  0  0  0  0
   19.2841  -25.9506    8.3507 C   0  0  0  0  0  0  0  0  0  0  0  0
   18.0803  -25.4619    7.5000 C   0  0  0  0  0  0  0  0  0  0  0  0
   18.2397  -25.3532    6.2969 O   0  0  0  0  0  0  0  0  0  0  0  0
   15.8676  -25.7424    7.9562 O   0  0  0  0  0  0  0  0  0  0  0  0
   16.9123  -24.2665    9.1775 O   0  0  0  0  0  0  0  0  0  0  0  0
   21.3274  -25.3610   10.4467 O   0  0  0  0  0  0  0  0  0  0  0  0
   22.0802  -23.6361    9.2832 O   0  0  0  0  0  0  0  0  0  0  0  0
   21.4642  -27.0463    7.4935 H   0  0  0  0  0  0  0  0  0  0  0  0
   22.6009  -25.6071    7.5385 H   0  0  0  0  0  0  0  0  0  0  0  0
   22.4765  -25.8447    5.3130 H   0  0  0  0  0  0  0  0  0  0  0  0
   20.8511  -26.6053    5.3584 H   0  0  0  0  0  0  0  0  0  0  0  0
   20.5968  -23.9406    6.4247 H   0  0  0  0  0  0  0  0  0  0  0  0
   21.5372  -23.8279    4.8984 H   0  0  0  0  0  0  0  0  0  0  0  0
   19.9137  -24.5965    4.8984 H   0  0  0  0  0  0  0  0  0  0  0  0
   20.2016  -24.2620    7.5839 H   0  0  0  0  0  0  0  0  0  0  0  0
   19.4724  -27.0078    8.1120 H   0  0  0  0  0  0  0  0  0  0  0  0
   19.0147  -25.8022    9.4068 H   0  0  0  0  0  0  0  0  0  0  0  0
  1  2  1  0
  6  1  1  0
  2  3  1  0
  4  8  1  0
  4 10  2  0
  4 11  1  0
  5  6  1  0
  5 12  2  0
  5 13  1  0
  6  7  1  0
  7  8  1  0
  8  9  2  0
  1 14  1  0
  1 15  1  0
  2 16  1  0
  2 17  1  0
  3 18  1  0
  3 19  1  0
  3 20  1  0
  6 21  1  6
  7 22  1  0
  7 23  1  0
M  CHG  2  11  -1  13  -1
M  END
>  <filename_input>  (3) 
7A1P_QW2_docked.sdf

>  <pdb_id>  (3) 
7A1P_QW2

>  <pose_rank>  (3) 
2

>  <num_atoms_heavy>  (3) 
13

>  <num_torsions>  (3) 
6

>  <pose>  (3) 
[20.57372285855276, -25.15961915936767, 8.099483744701626, -1.3148530526304951, 0.4377580129269971, 3.2487162236230653, -2.835704567641868, 0.6289571737551867, -2.548608073978714, -0.4114315082173192, 1.4537146040522366, 0.9471417318139438]

>  <energy>  (3) 
-514.3089824853498

>  <inter_energy>  (3) 
-523.9218212050229

>  <intra_energy>  (3) 
21.46368116176248

>  <rmsd>  (3) 
4.25213

>  <sdf_rank>  (3) 
0

$$$$

     RDKit          3D

 23 22  0  0  0  0  0  0  0  0999 V2000
   19.1735  -24.4047    8.1280 C   0  0  0  0  0  0  0  0  0  0  0  0
   17.9600  -24.6657    8.9772 C   0  0  0  0  0  0  0  0  0  0  0  0
   16.9773  -25.5414    8.1995 C   0  0  0  0  0  0  0  0  0  0  0  0
   20.3305  -25.3752    4.6773 C   0  0  0  0  0  0  0  0  0  0  0  0
   21.5801  -24.6965    8.5773 C   0  0  0  0  0  0  0  0  0  0  0  0
   20.2815  -25.4995    8.2302 C   0  0  2  0  0  0  0  0  0  0  0  0
   20.3638  -26.3480    6.9553 C   0  0  0  0  0  0  0  0  0  0  0  0
   21.1100  -25.6451    5.7888 C   0  0  0  0  0  0  0  0  0  0  0  0
   22.2880  -25.3760    5.9461 O   0  0  0  0  0  0  0  0  0  0  0  0
   19.8020  -26.2968    4.0432 O   0  0  0  0  0  0  0  0  0  0  0  0
   20.1566  -24.1509    4.2187 O   0  0  0  0  0  0  0  0  0  0  0  0
   22.4563  -25.0831    9.3325 O   0  0  0  0  0  0  0  0  0  0  0  0
   21.6622  -23.4893    8.0191 O   0  0  0  0  0  0  0  0  0  0  0  0
   18.8509  -24.3391    7.0784 H   0  0  0  0  0  0  0  0  0  0  0  0
   19.6207  -23.4708    8.4993 H   0  0  0  0  0  0  0  0  0  0  0  0
   18.2618  -25.1825    9.9001 H   0  0  0  0  0  0  0  0  0  0  0  0
   17.4784  -23.7108    9.2345 H   0  0  0  0  0  0  0  0  0  0  0  0
   16.3477  -26.1024    8.9059 H   0  0  0  0  0  0  0  0  0  0  0  0
   16.3409  -24.9055    7.5665 H   0  0  0  0  0  0  0  0  0  0  0  0
   17.5360  -26.2465    7.5665 H   0  0  0  0  0  0  0  0  0  0  0  0
   20.0831  -26.2564    9.0033 H   0  0  0  0  0  0  0  0  0  0  0  0
   20.8923  -27.2829    7.1932 H   0  0  0  0  0  0  0  0  0  0  0  0
   19.3319  -26.5253    6.6183 H   0  0  0  0  0  0  0  0  0  0  0  0
  1  2  1  0
  6  1  1  0
  2  3  1  0
  4  8  1  0
  4 10  2  0
  4 11  1  0
  5  6  1  0
  5 12  2  0
  5 13  1  0
  6  7  1  0
  7  8  1  0
  8  9  2  0
  1 14  1  0
  1 15  1  0
  2 16  1  0
  2 17  1  0
  3 18  1  0
  3 19  1  0
  3 20  1  0
  6 21  1  1
  7 22  1  0
  7 23  1  0
M  CHG  2  11  -1  13  -1
M  END
>  <filename_input>  (4) 
7A1P_QW2_docked.sdf

>  <pdb_id>  (4) 
7A1P_QW2

>  <pose_rank>  (4) 
3

>  <num_atoms_heavy>  (4) 
13

>  <num_torsions>  (4) 
6

>  <pose>  (4) 
[20.281512906877833, -25.499450899426407, 8.230154723986459, -0.38248188997862165, 2.0986071155931185, -1.0358086287566808, -4.947891831247072, 7.229687476538229, 1.7792454617481672, -3.480085278340452, 1.6593908013965466, 2.0215047850677195]

>  <energy>  (4) 
-481.2057625518958

>  <inter_energy>  (4) 
-508.8876930765174

>  <intra_energy>  (4) 
33.58014028275735

>  <rmsd>  (4) 
4.35486

>  <sdf_rank>  (4) 
0

$$$$

     RDKit          3D

 23 22  0  0  0  0  0  0  0  0999 V2000
   18.9020  -25.3213    8.5994 C   0  0  0  0  0  0  0  0  0  0  0  0
   17.5029  -24.8612    8.9035 C   0  0  0  0  0  0  0  0  0  0  0  0
   16.5382  -25.4678    7.8842 C   0  0  0  0  0  0  0  0  0  0  0  0
   22.4849  -24.6671    9.0722 C   0  0  0  0  0  0  0  0  0  0  0  0
   19.8056  -26.0011    6.4085 C   0  0  0  0  0  0  0  0  0  0  0  0
   19.5026  -24.7376    7.2821 C   0  0  2  0  0  0  0  0  0  0  0  0
   20.7104  -23.8337    7.5578 C   0  0  0  0  0  0  0  0  0  0  0  0
   22.0365  -24.6151    7.7637 C   0  0  0  0  0  0  0  0  0  0  0  0
   22.5554  -25.1243    6.7858 O   0  0  0  0  0  0  0  0  0  0  0  0
   23.1054  -25.6553    9.4837 O   0  0  0  0  0  0  0  0  0  0  0  0
   22.2349  -23.7075    9.9418 O   0  0  0  0  0  0  0  0  0  0  0  0
   19.8516  -26.0097    5.1898 O   0  0  0  0  0  0  0  0  0  0  0  0
   19.9696  -27.1329    7.0924 O   0  0  0  0  0  0  0  0  0  0  0  0
   19.5515  -25.0223    9.4353 H   0  0  0  0  0  0  0  0  0  0  0  0
   18.8507  -26.4117    8.4640 H   0  0  0  0  0  0  0  0  0  0  0  0
   17.2208  -25.1871    9.9155 H   0  0  0  0  0  0  0  0  0  0  0  0
   17.4558  -23.7636    8.8472 H   0  0  0  0  0  0  0  0  0  0  0  0
   15.7216  -25.9813    8.4128 H   0  0  0  0  0  0  0  0  0  0  0  0
   16.1214  -24.6689    7.2532 H   0  0  0  0  0  0  0  0  0  0  0  0
   17.0776  -26.1896    7.2532 H   0  0  0  0  0  0  0  0  0  0  0  0
   18.8195  -24.0601    6.7488 H   0  0  0  0  0  0  0  0  0  0  0  0
   20.8371  -23.1523    6.7036 H   0  0  0  0  0  0  0  0  0  0  0  0
   20.5039  -23.2955    8.4947 H   0  0  0  0  0  0  0  0  0  0  0  0
  1  2  1  0
  6  1  1  0
  2  3  1  0
  4  8  1  0
  4 10  2  0
  4 11  1  0
  5  6  1  0
  5 12  2  0
  5 13  1  0
  6  7  1  0
  7  8  1  0
  8  9  2  0
  1 14  1  0
  1 15  1  0
  2 16  1  0
  2 17  1  0
  3 18  1  0
  3 19  1  0
  3 20  1  0
  6 21  1  6
  7 22  1  0
  7 23  1  0
M  CHG  2  11  -1  13  -1
M  END
>  <filename_input>  (5) 
7A1P_QW2_docked.sdf

>  <pdb_id>  (5) 
7A1P_QW2

>  <pose_rank>  (5) 
4

>  <num_atoms_heavy>  (5) 
13

>  <num_torsions>  (5) 
6

>  <pose>  (5) 
[19.50257242186261, -24.73760687955175, 7.282145557971104, 2.18685036841161, 1.431124090073567, 1.3261413892739655, 1.5329660130749505, -24.059567264538696, 4.496243924625738, 9.150691595011487, -4.460573080272039, -0.6070175883751947]

>  <energy>  (5) 
-527.3868799055606

>  <inter_energy>  (5) 
-543.6645024713782

>  <intra_energy>  (5) 
18.854407463291864

>  <rmsd>  (5) 
3.00083

>  <sdf_rank>  (5) 
0

$$$$

     RDKit          3D

 23 22  0  0  0  0  0  0  0  0999 V2000
   21.3833  -24.3996    6.5287 C   0  0  0  0  0  0  0  0  0  0  0  0
   21.0263  -23.8276    7.8729 C   0  0  0  0  0  0  0  0  0  0  0  0
   21.6493  -24.6897    8.9712 C   0  0  0  0  0  0  0  0  0  0  0  0
   17.0880  -25.4359    7.9956 C   0  0  0  0  0  0  0  0  0  0  0  0
   20.5484  -25.2530    4.3715 C   0  0  0  0  0  0  0  0  0  0  0  0
   20.2950  -25.3349    5.9144 C   0  0  2  0  0  0  0  0  0  0  0  0
   18.8832  -24.9379    6.3628 C   0  0  0  0  0  0  0  0  0  0  0  0
   18.3197  -25.8302    7.5020 C   0  0  0  0  0  0  0  0  0  0  0  0
   18.9795  -26.7934    7.8506 O   0  0  0  0  0  0  0  0  0  0  0  0
   16.0515  -25.9926    7.6127 O   0  0  0  0  0  0  0  0  0  0  0  0
   16.9561  -24.4344    8.8436 O   0  0  0  0  0  0  0  0  0  0  0  0
   20.8894  -24.2454    3.7749 O   0  0  0  0  0  0  0  0  0  0  0  0
   20.3136  -26.3805    3.7013 O   0  0  0  0  0  0  0  0  0  0  0  0
   21.5509  -23.5641    5.8331 H   0  0  0  0  0  0  0  0  0  0  0  0
   22.2796  -25.0191    6.6800 H   0  0  0  0  0  0  0  0  0  0  0  0
   21.4120  -22.8002    7.9491 H   0  0  0  0  0  0  0  0  0  0  0  0
   19.9326  -23.8163    7.9896 H   0  0  0  0  0  0  0  0  0  0  0  0
   21.3624  -24.2926    9.9561 H   0  0  0  0  0  0  0  0  0  0  0  0
   21.2890  -25.7244    8.8738 H   0  0  0  0  0  0  0  0  0  0  0  0
   22.7449  -24.6723    8.8738 H   0  0  0  0  0  0  0  0  0  0  0  0
   20.3655  -26.3776    6.2576 H   0  0  0  0  0  0  0  0  0  0  0  0
   18.9105  -23.8970    6.7173 H   0  0  0  0  0  0  0  0  0  0  0  0
   18.2205  -25.0663    5.4942 H   0  0  0  0  0  0  0  0  0  0  0  0
  1  2  1  0
  6  1  1  0
  2  3  1  0
  4  8  1  0
  4 10  2  0
  4 11  1  0
  5  6  1  0
  5 12  2  0
  5 13  1  0
  6  7  1  0
  7  8  1  0
  8  9  2  0
  1 14  1  0
  1 15  1  0
  2 16  1  0
  2 17  1  0
  3 18  1  0
  3 19  1  0
  3 20  1  0
  6 21  1  1
  7 22  1  0
  7 23  1  0
M  CHG  2  11  -1  13  -1
M  END
>  <filename_input>  (6) 
7A1P_QW2_docked.sdf

>  <pdb_id>  (6) 
7A1P_QW2

>  <pose_rank>  (6) 
5

>  <num_atoms_heavy>  (6) 
13

>  <num_torsions>  (6) 
6

>  <pose>  (6) 
[20.294990475326983, -25.33491306038742, 5.914432006836232, 0.005488149142558397, 4.247491106931026, -0.5012393683525982, -1.800782605653207, -0.41802163554097416, 4.97079794060424, -0.3215653900592144, 0.4586408797268336, -1.457112493408171]

>  <energy>  (6) 
-440.4433095264761

>  <inter_energy>  (6) 
-444.7622993633677

>  <intra_energy>  (6) 
5.1226877224442715

>  <rmsd>  (6) 
4.56961

>  <sdf_rank>  (6) 
0

$$$$

     RDKit          3D

 23 22  0  0  0  0  0  0  0  0999 V2000
   19.0097  -24.7791    7.6612 C   0  0  0  0  0  0  0  0  0  0  0  0
   18.5336  -25.6953    8.7545 C   0  0  0  0  0  0  0  0  0  0  0  0
   19.3807  -26.9682    8.7525 C   0  0  0  0  0  0  0  0  0  0  0  0
   20.0858  -25.2114    3.7167 C   0  0  0  0  0  0  0  0  0  0  0  0
   21.2108  -24.0445    8.4945 C   0  0  0  0  0  0  0  0  0  0  0  0
   20.5368  -24.8786    7.3537 C   0  0  2  0  0  0  0  0  0  0  0  0
   20.8630  -24.4132    5.9293 C   0  0  0  0  0  0  0  0  0  0  0  0
   19.7052  -24.6437    4.9204 C   0  0  0  0  0  0  0  0  0  0  0  0
   18.5787  -24.3325    5.2651 O   0  0  0  0  0  0  0  0  0  0  0  0
   20.6452  -24.5281    2.8501 O   0  0  0  0  0  0  0  0  0  0  0  0
   19.8317  -26.4711    3.4197 O   0  0  0  0  0  0  0  0  0  0  0  0
   21.0663  -22.8445    8.6576 O   0  0  0  0  0  0  0  0  0  0  0  0
   22.0299  -24.7338    9.2880 O   0  0  0  0  0  0  0  0  0  0  0  0
   18.4573  -25.0244    6.7422 H   0  0  0  0  0  0  0  0  0  0  0  0
   18.8270  -23.7524    8.0112 H   0  0  0  0  0  0  0  0  0  0  0  0
   18.6324  -25.1899    9.7265 H   0  0  0  0  0  0  0  0  0  0  0  0
   17.4784  -25.9550    8.5839 H   0  0  0  0  0  0  0  0  0  0  0  0
   19.5846  -27.2745    9.7891 H   0  0  0  0  0  0  0  0  0  0  0  0
   18.8357  -27.7704    8.2334 H   0  0  0  0  0  0  0  0  0  0  0  0
   20.3311  -26.7752    8.2334 H   0  0  0  0  0  0  0  0  0  0  0  0
   20.9207  -25.9094    7.3573 H   0  0  0  0  0  0  0  0  0  0  0  0
   21.0902  -23.3373    5.9583 H   0  0  0  0  0  0  0  0  0  0  0  0
   21.7181  -25.0116    5.5819 H   0  0  0  0  0  0  0  0  0  0  0  0
  1  2  1  0
  6  1  1  0
  2  3  1  0
  4  8  1  0
  4 10  2  0
  4 11  1  0
  5  6  1  0
  5 12  2  0
  5 13  1  0
  6  7  1  0
  7  8  1  0
  8  9  2  0
  1 14  1  0
  1 15  1  0
  2 16  1  0
  2 17  1  0
  3 18  1  0
  3 19  1  0
  3 20  1  0
  6 21  1  6
  7 22  1  0
  7 23  1  0
M  CHG  2  11  -1  13  -1
M  END
>  <filename_input>  (7) 
7A1P_QW2_docked.sdf

>  <pdb_id>  (7) 
7A1P_QW2

>  <pose_rank>  (7) 
6

>  <num_atoms_heavy>  (7) 
13

>  <num_torsions>  (7) 
6

>  <pose>  (7) 
[20.536838636062903, -24.878599570959377, 7.3536783826407675, -0.5228345666901609, 1.9333348440246478, 0.15542903938238847, 4.003335583661438, 1.7869182705248343, -3.540153439404363, -5.3598594482450315, 1.347689209950713, 1.7563558462791902]

>  <energy>  (7) 
-392.0142964212705

>  <inter_energy>  (7) 
-433.01847687148415

>  <intra_energy>  (7) 
41.711155689309706

>  <rmsd>  (7) 
4.72459

>  <sdf_rank>  (7) 
0

$$$$

     RDKit          3D

 23 22  0  0  0  0  0  0  0  0999 V2000
   20.2620  -26.4745    5.1713 C   0  0  0  0  0  0  0  0  0  0  0  0
   19.5362  -26.5058    3.8545 C   0  0  0  0  0  0  0  0  0  0  0  0
   20.2519  -25.5905    2.8607 C   0  0  0  0  0  0  0  0  0  0  0  0
   21.5495  -24.9153    9.1722 C   0  0  0  0  0  0  0  0  0  0  0  0
   19.1996  -24.4365    6.0639 C   0  0  0  0  0  0  0  0  0  0  0  0
   19.4051  -25.9583    6.3696 C   0  0  2  0  0  0  0  0  0  0  0  0
   20.0671  -26.2663    7.7182 C   0  0  0  0  0  0  0  0  0  0  0  0
   21.4115  -25.5199    7.9347 C   0  0  0  0  0  0  0  0  0  0  0  0
   22.2266  -25.5401    7.0292 O   0  0  0  0  0  0  0  0  0  0  0  0
   21.9905  -25.5532   10.1362 O   0  0  0  0  0  0  0  0  0  0  0  0
   21.1786  -23.6691    9.3932 O   0  0  0  0  0  0  0  0  0  0  0  0
   20.1005  -23.6238    5.9398 O   0  0  0  0  0  0  0  0  0  0  0  0
   17.9285  -24.0430    5.9917 O   0  0  0  0  0  0  0  0  0  0  0  0
   20.5972  -27.4962    5.4034 H   0  0  0  0  0  0  0  0  0  0  0  0
   21.0946  -25.7655    5.0533 H   0  0  0  0  0  0  0  0  0  0  0  0
   19.5260  -27.5344    3.4650 H   0  0  0  0  0  0  0  0  0  0  0  0
   18.5020  -26.1589    3.9958 H   0  0  0  0  0  0  0  0  0  0  0  0
   20.8388  -24.8400    3.4104 H   0  0  0  0  0  0  0  0  0  0  0  0
   20.9234  -26.1898    2.2283 H   0  0  0  0  0  0  0  0  0  0  0  0
   19.5084  -25.0833    2.2283 H   0  0  0  0  0  0  0  0  0  0  0  0
   18.4323  -26.4628    6.4652 H   0  0  0  0  0  0  0  0  0  0  0  0
   19.3738  -25.9742    8.5208 H   0  0  0  0  0  0  0  0  0  0  0  0
   20.2901  -27.3434    7.7301 H   0  0  0  0  0  0  0  0  0  0  0  0
  1  2  1  0
  6  1  1  0
  2  3  1  0
  4  8  1  0
  4 10  2  0
  4 11  1  0
  5  6  1  0
  5 12  2  0
  5 13  1  0
  6  7  1  0
  7  8  1  0
  8  9  2  0
  1 14  1  0
  1 15  1  0
  2 16  1  0
  2 17  1  0
  3 18  1  0
  3 19  1  0
  3 20  1  0
  6 21  1  1
  7 22  1  0
  7 23  1  0
M  CHG  2  11  -1  13  -1
M  END
>  <filename_input>  (8) 
7A1P_QW2_docked.sdf

>  <pdb_id>  (8) 
7A1P_QW2

>  <pose_rank>  (8) 
7

>  <num_atoms_heavy>  (8) 
13

>  <num_torsions>  (8) 
6

>  <pose>  (8) 
[19.405078748350462, -25.958344354576088, 6.369605338375485, -0.3137393376206744, -0.35225396890680116, -1.2101496790945014, 4.086092070824682, -4.324866057447688, -0.9073818849155932, -9.991355905859415, -6.555367790885251, -1.6702078386618628]

>  <energy>  (8) 
-416.13554325281433

>  <inter_energy>  (8) 
-440.2212974817737

>  <intra_energy>  (8) 
32.28422800227053

>  <rmsd>  (8) 
2.29801

>  <sdf_rank>  (8) 
0

$$$$

     RDKit          3D

 23 22  0  0  0  0  0  0  0  0999 V2000
   20.5273  -23.9266    8.6281 C   0  0  0  0  0  0  0  0  0  0  0  0
   21.2216  -24.7451    9.6815 C   0  0  0  0  0  0  0  0  0  0  0  0
   22.7331  -24.5514    9.5578 C   0  0  0  0  0  0  0  0  0  0  0  0
   19.0628  -25.1539    4.1828 C   0  0  0  0  0  0  0  0  0  0  0  0
   20.3768  -26.1120    7.4966 C   0  0  0  0  0  0  0  0  0  0  0  0
   19.6198  -24.7515    7.6624 C   0  0  2  0  0  0  0  0  0  0  0  0
   19.3449  -23.9977    6.3554 C   0  0  0  0  0  0  0  0  0  0  0  0
   18.4437  -24.7826    5.3638 C   0  0  0  0  0  0  0  0  0  0  0  0
   17.2975  -25.0207    5.7017 O   0  0  0  0  0  0  0  0  0  0  0  0
   18.7099  -26.1779    3.5846 O   0  0  0  0  0  0  0  0  0  0  0  0
   20.0726  -24.4759    3.6727 O   0  0  0  0  0  0  0  0  0  0  0  0
   20.0637  -27.1542    8.0472 O   0  0  0  0  0  0  0  0  0  0  0  0
   21.4629  -26.0621    6.7260 O   0  0  0  0  0  0  0  0  0  0  0  0
   19.9000  -23.1772    9.1331 H   0  0  0  0  0  0  0  0  0  0  0  0
   21.3177  -23.4780    8.0084 H   0  0  0  0  0  0  0  0  0  0  0  0
   20.8897  -24.4188   10.6782 H   0  0  0  0  0  0  0  0  0  0  0  0
   20.9741  -25.8081    9.5444 H   0  0  0  0  0  0  0  0  0  0  0  0
   23.1788  -24.4943   10.5618 H   0  0  0  0  0  0  0  0  0  0  0  0
   23.1682  -25.4012    9.0113 H   0  0  0  0  0  0  0  0  0  0  0  0
   22.9399  -23.6194    9.0113 H   0  0  0  0  0  0  0  0  0  0  0  0
   18.6054  -24.9245    8.0512 H   0  0  0  0  0  0  0  0  0  0  0  0
   18.8477  -23.0474    6.5998 H   0  0  0  0  0  0  0  0  0  0  0  0
   20.3151  -23.8464    5.8597 H   0  0  0  0  0  0  0  0  0  0  0  0
  1  2  1  0
  6  1  1  0
  2  3  1  0
  4  8  1  0
  4 10  2  0
  4 11  1  0
  5  6  1  0
  5 12  2  0
  5 13  1  0
  6  7  1  0
  7  8  1  0
  8  9  2  0
  1 14  1  0
  1 15  1  0
  2 16  1  0
  2 17  1  0
  3 18  1  0
  3 19  1  0
  3 20  1  0
  6 21  1  1
  7 22  1  0
  7 23  1  0
M  CHG  2  11  -1  13  -1
M  END
>  <filename_input>  (9) 
7A1P_QW2_docked.sdf

>  <pdb_id>  (9) 
7A1P_QW2

>  <pose_rank>  (9) 
8

>  <num_atoms_heavy>  (9) 
13

>  <num_torsions>  (9) 
6

>  <pose>  (9) 
[19.61977683431137, -24.75147154044913, 7.662375043281318, -1.7067212624049712, -2.5033433283417774, 0.6503304761956549, 0.6464293639401341, 2.552838017819525, -0.861812633328935, 4.580487337052739, -4.604810911652199, -0.5615162476519708]

>  <energy>  (9) 
-461.7731346792716

>  <inter_energy>  (9) 
-470.0854756079158

>  <intra_energy>  (9) 
14.155891406420418

>  <rmsd>  (9) 
4.71024

>  <sdf_rank>  (9) 
0

$$$$

     RDKit          3D

 23 22  0  0  0  0  0  0  0  0999 V2000
   21.0717  -24.1871    5.1318 C   0  0  0  0  0  0  0  0  0  0  0  0
   20.4647  -24.4781    3.7870 C   0  0  0  0  0  0  0  0  0  0  0  0
   20.7898  -23.3335    2.8269 C   0  0  0  0  0  0  0  0  0  0  0  0
   22.0959  -25.2348    9.5147 C   0  0  0  0  0  0  0  0  0  0  0  0
   18.9171  -25.0768    5.9349 C   0  0  0  0  0  0  0  0  0  0  0  0
   20.4330  -24.9805    6.3147 C   0  0  2  0  0  0  0  0  0  0  0  0
   20.7229  -24.3187    7.6674 C   0  0  0  0  0  0  0  0  0  0  0  0
   20.8968  -25.3331    8.8303 C   0  0  0  0  0  0  0  0  0  0  0  0
   19.9803  -26.1038    9.0559 O   0  0  0  0  0  0  0  0  0  0  0  0
   22.8178  -24.2396    9.3753 O   0  0  0  0  0  0  0  0  0  0  0  0
   22.5435  -26.1993   10.2950 O   0  0  0  0  0  0  0  0  0  0  0  0
   18.4685  -25.7602    5.0298 O   0  0  0  0  0  0  0  0  0  0  0  0
   18.1062  -24.2994    6.6517 O   0  0  0  0  0  0  0  0  0  0  0  0
   22.1417  -24.4382    5.0875 H   0  0  0  0  0  0  0  0  0  0  0  0
   20.8884  -23.1215    5.3342 H   0  0  0  0  0  0  0  0  0  0  0  0
   20.8791  -25.4175    3.3924 H   0  0  0  0  0  0  0  0  0  0  0  0
   19.3736  -24.5749    3.8886 H   0  0  0  0  0  0  0  0  0  0  0  0
   21.0457  -22.4326    3.4038 H   0  0  0  0  0  0  0  0  0  0  0  0
   21.6427  -23.6177    2.1931 H   0  0  0  0  0  0  0  0  0  0  0  0
   19.9148  -23.1268    2.1931 H   0  0  0  0  0  0  0  0  0  0  0  0
   20.8568  -25.9865    6.4502 H   0  0  0  0  0  0  0  0  0  0  0  0
   21.6488  -23.7318    7.5763 H   0  0  0  0  0  0  0  0  0  0  0  0
   19.8532  -23.6917    7.9131 H   0  0  0  0  0  0  0  0  0  0  0  0
  1  2  1  0
  6  1  1  0
  2  3  1  0
  4  8  1  0
  4 10  2  0
  4 11  1  0
  5  6  1  0
  5 12  2  0
  5 13  1  0
  6  7  1  0
  7  8  1  0
  8  9  2  0
  1 14  1  0
  1 15  1  0
  2 16  1  0
  2 17  1  0
  3 18  1  0
  3 19  1  0
  3 20  1  0
  6 21  1  1
  7 22  1  0
  7 23  1  0
M  CHG  2  11  -1  13  -1
M  END
>  <filename_input>  (10) 
7A1P_QW2_docked.sdf

>  <pdb_id>  (10) 
7A1P_QW2

>  <pose_rank>  (10) 
9

>  <num_atoms_heavy>  (10) 
13

>  <num_torsions>  (10) 
6

>  <pose>  (10) 
[20.4330398945756, -24.98052307774398, 6.314686294636984, 0.16115470993141875, 5.039912729762011, -2.711621103155932, 0.07448477905210739, -3.735014900479206, -0.20052859970464135, -1.1090491553214639, 5.839833889495004, 3.3479405963202242]

>  <energy>  (10) 
-435.6960229331401

>  <inter_energy>  (10) 
-455.61914770371834

>  <intra_energy>  (10) 
26.13953334668298

>  <rmsd>  (10) 
2.07597

>  <sdf_rank>  (10) 
0

$$$$

     RDKit          3D

 23 22  0  0  0  0  0  0  0  0999 V2000
   20.0906  -24.1010    9.0590 C   0  0  0  0  0  0  0  0  0  0  0  0
   20.2981  -25.3932    9.7997 C   0  0  0  0  0  0  0  0  0  0  0  0
   21.7959  -25.6276    9.9982 C   0  0  0  0  0  0  0  0  0  0  0  0
   20.4968  -25.0423    4.4144 C   0  0  0  0  0  0  0  0  0  0  0  0
   17.9492  -24.4740    7.8955 C   0  0  0  0  0  0  0  0  0  0  0  0
   19.4784  -24.2646    7.6325 C   0  0  2  0  0  0  0  0  0  0  0  0
   20.1618  -25.3887    6.8444 C   0  0  0  0  0  0  0  0  0  0  0  0
   21.0459  -24.8779    5.6743 C   0  0  0  0  0  0  0  0  0  0  0  0
   22.1178  -24.3683    5.9506 O   0  0  0  0  0  0  0  0  0  0  0  0
   19.3336  -24.6877    4.1862 O   0  0  0  0  0  0  0  0  0  0  0  0
   21.1556  -25.6188    3.4280 O   0  0  0  0  0  0  0  0  0  0  0  0
   17.3010  -25.4313    7.5070 O   0  0  0  0  0  0  0  0  0  0  0  0
   17.3497  -23.4826    8.5538 O   0  0  0  0  0  0  0  0  0  0  0  0
   19.4139  -23.4692    9.6531 H   0  0  0  0  0  0  0  0  0  0  0  0
   21.0866  -23.6544    8.9231 H   0  0  0  0  0  0  0  0  0  0  0  0
   19.8018  -25.3387   10.7798 H   0  0  0  0  0  0  0  0  0  0  0  0
   19.8693  -26.2234    9.2192 H   0  0  0  0  0  0  0  0  0  0  0  0
   22.0221  -25.6630   11.0741 H   0  0  0  0  0  0  0  0  0  0  0  0
   22.0828  -26.5815    9.5316 H   0  0  0  0  0  0  0  0  0  0  0  0
   22.3604  -24.8068    9.5316 H   0  0  0  0  0  0  0  0  0  0  0  0
   19.6374  -23.3919    6.9820 H   0  0  0  0  0  0  0  0  0  0  0  0
   20.7969  -25.9620    7.5357 H   0  0  0  0  0  0  0  0  0  0  0  0
   19.3644  -26.0038    6.4019 H   0  0  0  0  0  0  0  0  0  0  0  0
  1  2  1  0
  6  1  1  0
  2  3  1  0
  4  8  1  0
  4 10  2  0
  4 11  1  0
  5  6  1  0
  5 12  2  0
  5 13  1  0
  6  7  1  0
  7  8  1  0
  8  9  2  0
  1 14  1  0
  1 15  1  0
  2 16  1  0
  2 17  1  0
  3 18  1  0
  3 19  1  0
  3 20  1  0
  6 21  1  6
  7 22  1  0
  7 23  1  0
M  CHG  2  11  -1  13  -1
M  END
>  <filename_input>  (11) 
7A1P_QW2_docked.sdf

>  <pdb_id>  (11) 
7A1P_QW2

>  <pose_rank>  (11) 
10

>  <num_atoms_heavy>  (11) 
13

>  <num_torsions>  (11) 
6

>  <pose>  (11) 
[19.478381056561965, -24.264597293079415, 7.632495404436398, 2.494371165412279, -0.11481553559283708, -0.3926514823710197, 9.250442859642835, -14.301046523457067, -7.283377781260745, 12.095938488111168, 14.420002766707741, -8.616644194844755]

>  <energy>  (11) 
-433.61718005914094

>  <inter_energy>  (11) 
-418.180733723573

>  <intra_energy>  (11) 
2.194531336950284

>  <rmsd>  (11) 
3.81283

>  <sdf_rank>  (11) 
0

$$$$

     RDKit          3D

 23 22  0  0  0  0  0  0  0  0999 V2000
   19.7124  -26.4359    6.2558 C   0  0  0  0  0  0  0  0  0  0  0  0
   20.0766  -26.7897    4.8403 C   0  0  0  0  0  0  0  0  0  0  0  0
   20.4376  -25.5151    4.0771 C   0  0  0  0  0  0  0  0  0  0  0  0
   17.2569  -24.8426    7.8853 C   0  0  0  0  0  0  0  0  0  0  0  0
   21.2063  -25.6923    8.0708 C   0  0  0  0  0  0  0  0  0  0  0  0
   20.4357  -25.1694    6.8121 C   0  0  2  0  0  0  0  0  0  0  0  0
   19.4526  -24.0238    7.0819 C   0  0  0  0  0  0  0  0  0  0  0  0
   17.9730  -24.3935    6.7892 C   0  0  0  0  0  0  0  0  0  0  0  0
   17.5632  -24.2453    5.6512 O   0  0  0  0  0  0  0  0  0  0  0  0
   17.5386  -24.4472    9.0233 O   0  0  0  0  0  0  0  0  0  0  0  0
   16.2909  -25.7343    7.7791 O   0  0  0  0  0  0  0  0  0  0  0  0
   22.1708  -25.1417    8.5747 O   0  0  0  0  0  0  0  0  0  0  0  0
   20.7666  -26.8515    8.5592 O   0  0  0  0  0  0  0  0  0  0  0  0
   18.6276  -26.2582    6.2974 H   0  0  0  0  0  0  0  0  0  0  0  0
   20.0338  -27.2808    6.8825 H   0  0  0  0  0  0  0  0  0  0  0  0
   20.9386  -27.4731    4.8426 H   0  0  0  0  0  0  0  0  0  0  0  0
   19.2223  -27.2817    4.3522 H   0  0  0  0  0  0  0  0  0  0  0  0
   20.6653  -24.7113    4.7927 H   0  0  0  0  0  0  0  0  0  0  0  0
   21.3178  -25.7032    3.4447 H   0  0  0  0  0  0  0  0  0  0  0  0
   19.5895  -25.2136    3.4447 H   0  0  0  0  0  0  0  0  0  0  0  0
   21.1371  -24.7133    6.0979 H   0  0  0  0  0  0  0  0  0  0  0  0
   19.5363  -23.7355    8.1402 H   0  0  0  0  0  0  0  0  0  0  0  0
   19.7205  -23.2014    6.4023 H   0  0  0  0  0  0  0  0  0  0  0  0
  1  2  1  0
  6  1  1  0
  2  3  1  0
  4  8  1  0
  4 10  2  0
  4 11  1  0
  5  6  1  0
  5 12  2  0
  5 13  1  0
  6  7  1  0
  7  8  1  0
  8  9  2  0
  1 14  1  0
  1 15  1  0
  2 16  1  0
  2 17  1  0
  3 18  1  0
  3 19  1  0
  3 20  1  0
  6 21  1  6
  7 22  1  0
  7 23  1  0
M  CHG  2  11  -1  13  -1
M  END
>  <filename_input>  (12) 
7A1P_QW2_docked.sdf

>  <pdb_id>  (12) 
7A1P_QW2

>  <pose_rank>  (12) 
11

>  <num_atoms_heavy>  (12) 
13

>  <num_torsions>  (12) 
6

>  <pose>  (12) 
[20.435717992415086, -25.169407406001536, 6.812081337435409, -0.41532150259071005, 1.0629839885683208, 2.0734054244962277, 1.6105595466269402, 1.0479844838916985, -3.5114609690412335, -23.661381457223385, 5.322938191855344, -2.6677471614170534]

>  <energy>  (12) 
-459.05864701830683

>  <inter_energy>  (12) 
-471.3526256542766

>  <intra_energy>  (12) 
15.868700718186448

>  <rmsd>  (12) 
4.13881

>  <sdf_rank>  (12) 
0

$$$$

     RDKit          3D

 23 22  0  0  0  0  0  0  0  0999 V2000
   20.2917  -24.1775    8.8114 C   0  0  0  0  0  0  0  0  0  0  0  0
   20.9609  -25.2193    9.6649 C   0  0  0  0  0  0  0  0  0  0  0  0
   22.4604  -25.2309    9.3663 C   0  0  0  0  0  0  0  0  0  0  0  0
   20.0577  -25.4541    4.7355 C   0  0  0  0  0  0  0  0  0  0  0  0
   18.1177  -24.7051    7.7752 C   0  0  0  0  0  0  0  0  0  0  0  0
   19.6581  -24.7291    7.4959 C   0  0  2  0  0  0  0  0  0  0  0  0
   20.2287  -26.1022    7.1203 C   0  0  0  0  0  0  0  0  0  0  0  0
   20.7849  -26.1684    5.6720 C   0  0  0  0  0  0  0  0  0  0  0  0
   21.8022  -26.8114    5.4812 O   0  0  0  0  0  0  0  0  0  0  0  0
   18.8214  -25.5034    4.7310 O   0  0  0  0  0  0  0  0  0  0  0  0
   20.6357  -24.7397    3.7894 O   0  0  0  0  0  0  0  0  0  0  0  0
   17.2710  -24.3433    6.9753 O   0  0  0  0  0  0  0  0  0  0  0  0
   17.7626  -25.0696    9.0067 O   0  0  0  0  0  0  0  0  0  0  0  0
   19.4948  -23.7065    9.4056 H   0  0  0  0  0  0  0  0  0  0  0  0
   21.0770  -23.4695    8.5080 H   0  0  0  0  0  0  0  0  0  0  0  0
   20.7997  -24.9831   10.7270 H   0  0  0  0  0  0  0  0  0  0  0  0
   20.5334  -26.2081    9.4421 H   0  0  0  0  0  0  0  0  0  0  0  0
   23.0225  -25.2353   10.3118 H   0  0  0  0  0  0  0  0  0  0  0  0
   22.7118  -26.1311    8.7861 H   0  0  0  0  0  0  0  0  0  0  0  0
   22.7257  -24.3348    8.7861 H   0  0  0  0  0  0  0  0  0  0  0  0
   19.8938  -24.1260    6.6067 H   0  0  0  0  0  0  0  0  0  0  0  0
   21.0447  -26.3424    7.8177 H   0  0  0  0  0  0  0  0  0  0  0  0
   19.4007  -26.8237    7.1816 H   0  0  0  0  0  0  0  0  0  0  0  0
  1  2  1  0
  6  1  1  0
  2  3  1  0
  4  8  1  0
  4 10  2  0
  4 11  1  0
  5  6  1  0
  5 12  2  0
  5 13  1  0
  6  7  1  0
  7  8  1  0
  8  9  2  0
  1 14  1  0
  1 15  1  0
  2 16  1  0
  2 17  1  0
  3 18  1  0
  3 19  1  0
  3 20  1  0
  6 21  1  6
  7 22  1  0
  7 23  1  0
M  CHG  2  11  -1  13  -1
M  END
>  <filename_input>  (13) 
7A1P_QW2_docked.sdf

>  <pdb_id>  (13) 
7A1P_QW2

>  <pose_rank>  (13) 
12

>  <num_atoms_heavy>  (13) 
13

>  <num_torsions>  (13) 
6

>  <pose>  (13) 
[19.658082652018894, -24.729131276160988, 7.495854424085102, 2.177618357774573, -0.27713062306540726, -0.36958982029796267, 7.533839107343857, -13.831686916392927, -7.593326315833886, 11.795453706804924, 15.592099276833077, -10.229228916171223]

>  <energy>  (13) 
-418.77129716599393

>  <inter_energy>  (13) 
-436.7592979023115

>  <intra_energy>  (13) 
32.745456849291855

>  <rmsd>  (13) 
3.68262

>  <sdf_rank>  (13) 
0

$$$$

     RDKit          3D

 23 22  0  0  0  0  0  0  0  0999 V2000
   21.0341  -23.6351    6.3106 C   0  0  0  0  0  0  0  0  0  0  0  0
   20.0292  -23.9105    5.2262 C   0  0  0  0  0  0  0  0  0  0  0  0
   20.6710  -24.7910    4.1536 C   0  0  0  0  0  0  0  0  0  0  0  0
   17.4048  -25.3880    8.3175 C   0  0  0  0  0  0  0  0  0  0  0  0
   22.2170  -24.9625    8.0186 C   0  0  0  0  0  0  0  0  0  0  0  0
   20.7955  -24.4329    7.6309 C   0  0  2  0  0  0  0  0  0  0  0  0
   19.7241  -25.5162    7.4566 C   0  0  0  0  0  0  0  0  0  0  0  0
   18.7314  -25.6049    8.6475 C   0  0  0  0  0  0  0  0  0  0  0  0
   19.1835  -25.8703    9.7475 O   0  0  0  0  0  0  0  0  0  0  0  0
   17.0127  -25.5519    7.1555 O   0  0  0  0  0  0  0  0  0  0  0  0
   16.5211  -24.9565    9.1964 O   0  0  0  0  0  0  0  0  0  0  0  0
   22.7381  -24.8204    9.1121 O   0  0  0  0  0  0  0  0  0  0  0  0
   22.8832  -25.5621    7.0326 O   0  0  0  0  0  0  0  0  0  0  0  0
   22.0324  -23.8942    5.9280 H   0  0  0  0  0  0  0  0  0  0  0  0
   20.9351  -22.5698    6.5661 H   0  0  0  0  0  0  0  0  0  0  0  0
   19.1590  -24.4291    5.6549 H   0  0  0  0  0  0  0  0  0  0  0  0
   19.7031  -22.9611    4.7766 H   0  0  0  0  0  0  0  0  0  0  0  0
   21.2534  -25.5901    4.6355 H   0  0  0  0  0  0  0  0  0  0  0  0
   19.8848  -25.2372    3.5269 H   0  0  0  0  0  0  0  0  0  0  0  0
   21.3365  -24.1792    3.5269 H   0  0  0  0  0  0  0  0  0  0  0  0
   20.3808  -23.8219    8.4461 H   0  0  0  0  0  0  0  0  0  0  0  0
   19.1524  -25.2963    6.5428 H   0  0  0  0  0  0  0  0  0  0  0  0
   20.2475  -26.4820    7.3998 H   0  0  0  0  0  0  0  0  0  0  0  0
  1  2  1  0
  6  1  1  0
  2  3  1  0
  4  8  1  0
  4 10  2  0
  4 11  1  0
  5  6  1  0
  5 12  2  0
  5 13  1  0
  6  7  1  0
  7  8  1  0
  8  9  2  0
  1 14  1  0
  1 15  1  0
  2 16  1  0
  2 17  1  0
  3 18  1  0
  3 19  1  0
  3 20  1  0
  6 21  1  1
  7 22  1  0
  7 23  1  0
M  CHG  2  11  -1  13  -1
M  END
>  <filename_input>  (14) 
7A1P_QW2_docked.sdf

>  <pdb_id>  (14) 
7A1P_QW2

>  <pose_rank>  (14) 
13

>  <num_atoms_heavy>  (14) 
13

>  <num_torsions>  (14) 
6

>  <pose>  (14) 
[20.79551407226407, -24.43291612312344, 7.630853580967371, 0.42636177487763294, 1.4478405122869287, -2.61473221588976, 1.0849142937659797, -0.7656262030453072, 1.4555781701701354, -0.9607577550596099, 5.7766986677436645, 3.487725947563434]

>  <energy>  (14) 
-462.15794433515543

>  <inter_energy>  (14) 
-463.34639392289637

>  <intra_energy>  (14) 
2.4935125496102346

>  <rmsd>  (14) 
4.19794

>  <sdf_rank>  (14) 
0

$$$$

     RDKit          3D

 23 22  0  0  0  0  0  0  0  0999 V2000
   19.2352  -25.5227    6.4058 C   0  0  0  0  0  0  0  0  0  0  0  0
   20.4290  -26.3736    6.0703 C   0  0  0  0  0  0  0  0  0  0  0  0
   20.8807  -26.0706    4.6414 C   0  0  0  0  0  0  0  0  0  0  0  0
   22.2453  -24.4074    8.8848 C   0  0  0  0  0  0  0  0  0  0  0  0
   17.7098  -24.8073    8.2058 C   0  0  0  0  0  0  0  0  0  0  0  0
   19.2296  -24.9625    7.8627 C   0  0  2  0  0  0  0  0  0  0  0  0
   20.0570  -23.6768    7.9823 C   0  0  0  0  0  0  0  0  0  0  0  0
   21.5810  -23.8984    7.7823 C   0  0  0  0  0  0  0  0  0  0  0  0
   22.0573  -23.6318    6.6929 O   0  0  0  0  0  0  0  0  0  0  0  0
   21.8650  -24.1303   10.0291 O   0  0  0  0  0  0  0  0  0  0  0  0
   23.3246  -25.1572    8.7735 O   0  0  0  0  0  0  0  0  0  0  0  0
   17.1824  -23.7722    8.5770 O   0  0  0  0  0  0  0  0  0  0  0  0
   16.9947  -25.9281    8.1161 O   0  0  0  0  0  0  0  0  0  0  0  0
   19.2137  -24.6711    5.7099 H   0  0  0  0  0  0  0  0  0  0  0  0
   18.3523  -26.1728    6.3167 H   0  0  0  0  0  0  0  0  0  0  0  0
   21.2479  -26.1496    6.7698 H   0  0  0  0  0  0  0  0  0  0  0  0
   20.1586  -27.4366    6.1535 H   0  0  0  0  0  0  0  0  0  0  0  0
   21.7939  -25.4579    4.6677 H   0  0  0  0  0  0  0  0  0  0  0  0
   21.0870  -27.0137    4.1143 H   0  0  0  0  0  0  0  0  0  0  0  0
   20.0862  -25.5220    4.1143 H   0  0  0  0  0  0  0  0  0  0  0  0
   19.7192  -25.6252    8.5915 H   0  0  0  0  0  0  0  0  0  0  0  0
   19.7060  -22.9651    7.2206 H   0  0  0  0  0  0  0  0  0  0  0  0
   19.9174  -23.2969    9.0051 H   0  0  0  0  0  0  0  0  0  0  0  0
  1  2  1  0
  6  1  1  0
  2  3  1  0
  4  8  1  0
  4 10  2  0
  4 11  1  0
  5  6  1  0
  5 12  2  0
  5 13  1  0
  6  7  1  0
  7  8  1  0
  8  9  2  0
  1 14  1  0
  1 15  1  0
  2 16  1  0
  2 17  1  0
  3 18  1  0
  3 19  1  0
  3 20  1  0
  6 21  1  1
  7 22  1  0
  7 23  1  0
M  CHG  2  11  -1  13  -1
M  END
>  <filename_input>  (15) 
7A1P_QW2_docked.sdf

>  <pdb_id>  (15) 
7A1P_QW2

>  <pose_rank>  (15) 
14

>  <num_atoms_heavy>  (15) 
13

>  <num_torsions>  (15) 
6

>  <pose>  (15) 
[19.229582660343734, -24.962498092253583, 7.862707901692111, -0.8483530004497082, 0.10928802585424821, 0.3001634536656355, -9.611976540965705, -5.7601777570764545, 0.8361552182217282, 6.540844688655861, 2.2967979240328282, -3.7364093538747736]

>  <energy>  (15) 
-497.03331989036906

>  <inter_energy>  (15) 
-501.04186268649977

>  <intra_energy>  (15) 
16.26340707071879

>  <rmsd>  (15) 
1.55423

>  <sdf_rank>  (15) 
0

$$$$

     RDKit          3D

 23 22  0  0  0  0  0  0  0  0999 V2000
   18.3603  -24.6744    6.1012 C   0  0  0  0  0  0  0  0  0  0  0  0
   19.0981  -25.4356    5.0345 C   0  0  0  0  0  0  0  0  0  0  0  0
   20.0053  -24.4760    4.2640 C   0  0  0  0  0  0  0  0  0  0  0  0
   21.8946  -25.3788    7.9112 C   0  0  0  0  0  0  0  0  0  0  0  0
   17.3540  -25.1311    8.3052 C   0  0  0  0  0  0  0  0  0  0  0  0
   18.7308  -25.0842    7.5612 C   0  0  2  0  0  0  0  0  0  0  0  0
   19.7682  -24.1353    8.1738 C   0  0  0  0  0  0  0  0  0  0  0  0
   21.1770  -24.2576    7.5319 C   0  0  0  0  0  0  0  0  0  0  0  0
   21.5242  -23.3897    6.7503 O   0  0  0  0  0  0  0  0  0  0  0  0
   21.3947  -26.2150    8.6739 O   0  0  0  0  0  0  0  0  0  0  0  0
   23.1396  -25.5825    7.5264 O   0  0  0  0  0  0  0  0  0  0  0  0
   17.0346  -24.3964    9.2248 O   0  0  0  0  0  0  0  0  0  0  0  0
   16.5261  -26.0927    7.8983 O   0  0  0  0  0  0  0  0  0  0  0  0
   18.5842  -23.6046    5.9772 H   0  0  0  0  0  0  0  0  0  0  0  0
   17.2933  -24.9080    5.9715 H   0  0  0  0  0  0  0  0  0  0  0  0
   19.7081  -26.2234    5.5006 H   0  0  0  0  0  0  0  0  0  0  0  0
   18.3758  -25.8945    4.3433 H   0  0  0  0  0  0  0  0  0  0  0  0
   20.5819  -23.8661    4.9750 H   0  0  0  0  0  0  0  0  0  0  0  0
   20.6960  -25.0528    3.6313 H   0  0  0  0  0  0  0  0  0  0  0  0
   19.3907  -23.8187    3.6313 H   0  0  0  0  0  0  0  0  0  0  0  0
   19.2351  -26.0594    7.6306 H   0  0  0  0  0  0  0  0  0  0  0  0
   19.4147  -23.1020    8.0427 H   0  0  0  0  0  0  0  0  0  0  0  0
   19.8713  -24.4105    9.2338 H   0  0  0  0  0  0  0  0  0  0  0  0
  1  2  1  0
  6  1  1  0
  2  3  1  0
  4  8  1  0
  4 10  2  0
  4 11  1  0
  5  6  1  0
  5 12  2  0
  5 13  1  0
  6  7  1  0
  7  8  1  0
  8  9  2  0
  1 14  1  0
  1 15  1  0
  2 16  1  0
  2 17  1  0
  3 18  1  0
  3 19  1  0
  3 20  1  0
  6 21  1  6
  7 22  1  0
  7 23  1  0
M  CHG  2  11  -1  13  -1
M  END
>  <filename_input>  (16) 
7A1P_QW2_docked.sdf

>  <pdb_id>  (16) 
7A1P_QW2

>  <pose_rank>  (16) 
15

>  <num_atoms_heavy>  (16) 
13

>  <num_torsions>  (16) 
6

>  <pose>  (16) 
[18.730823647104224, -25.084237003238886, 7.561159252519158, -0.18191963003051714, 0.2673445688344649, 0.31694146796232375, -9.458900255747723, -5.521372458807748, 1.2917701986447108, 6.510064470255525, 2.3630843415512097, -3.147615637664308]

>  <energy>  (16) 
-486.34330145902317

>  <inter_energy>  (16) 
-502.9972863986775

>  <intra_energy>  (16) 
21.811569686071994

>  <rmsd>  (16) 
1.59699

>  <sdf_rank>  (16) 
0

$$$$

     RDKit          3D

 23 22  0  0  0  0  0  0  0  0999 V2000
   20.2831  -25.4057    8.7026 C   0  0  0  0  0  0  0  0  0  0  0  0
   21.2596  -24.4141    9.2725 C   0  0  0  0  0  0  0  0  0  0  0  0
   21.5442  -23.3298    8.2329 C   0  0  0  0  0  0  0  0  0  0  0  0
   21.6899  -24.6294    5.5063 C   0  0  0  0  0  0  0  0  0  0  0  0
   17.9058  -24.9441    8.2402 C   0  0  0  0  0  0  0  0  0  0  0  0
   19.3337  -24.8228    7.6093 C   0  0  2  0  0  0  0  0  0  0  0  0
   19.5111  -25.5339    6.2622 C   0  0  0  0  0  0  0  0  0  0  0  0
   20.3359  -24.7154    5.2320 C   0  0  0  0  0  0  0  0  0  0  0  0
   19.7455  -24.2411    4.2774 O   0  0  0  0  0  0  0  0  0  0  0  0
   22.2733  -25.5564    6.0818 O   0  0  0  0  0  0  0  0  0  0  0  0
   22.4007  -23.5563    5.2187 O   0  0  0  0  0  0  0  0  0  0  0  0
   16.9428  -24.2688    7.9174 O   0  0  0  0  0  0  0  0  0  0  0  0
   17.8006  -25.8298    9.2301 O   0  0  0  0  0  0  0  0  0  0  0  0
   20.8544  -26.2330    8.2562 H   0  0  0  0  0  0  0  0  0  0  0  0
   19.6411  -25.7274    9.5359 H   0  0  0  0  0  0  0  0  0  0  0  0
   20.8313  -23.9541   10.1753 H   0  0  0  0  0  0  0  0  0  0  0  0
   22.1962  -24.9282    9.5342 H   0  0  0  0  0  0  0  0  0  0  0  0
   21.7915  -22.3876    8.7440 H   0  0  0  0  0  0  0  0  0  0  0  0
   22.3917  -23.6388    7.6033 H   0  0  0  0  0  0  0  0  0  0  0  0
   20.6542  -23.1827    7.6033 H   0  0  0  0  0  0  0  0  0  0  0  0
   19.5490  -23.7753    7.3517 H   0  0  0  0  0  0  0  0  0  0  0  0
   20.0253  -26.4902    6.4386 H   0  0  0  0  0  0  0  0  0  0  0  0
   18.5068  -25.6720    5.8352 H   0  0  0  0  0  0  0  0  0  0  0  0
  1  2  1  0
  6  1  1  0
  2  3  1  0
  4  8  1  0
  4 10  2  0
  4 11  1  0
  5  6  1  0
  5 12  2  0
  5 13  1  0
  6  7  1  0
  7  8  1  0
  8  9  2  0
  1 14  1  0
  1 15  1  0
  2 16  1  0
  2 17  1  0
  3 18  1  0
  3 19  1  0
  3 20  1  0
  6 21  1  6
  7 22  1  0
  7 23  1  0
M  CHG  2  11  -1  13  -1
M  END
>  <filename_input>  (17) 
7A1P_QW2_docked.sdf

>  <pdb_id>  (17) 
7A1P_QW2

>  <pose_rank>  (17) 
16

>  <num_atoms_heavy>  (17) 
13

>  <num_torsions>  (17) 
6

>  <pose>  (17) 
[19.33366252417181, -24.822817059569136, 7.609324828754214, -3.107904698096486, 0.1821952327916579, 1.042222959382307, 1.5851384080326643, 1.1363393085821007, -3.462817099019961, -25.49011032692488, 4.934796501184249, -2.63393435079498]

>  <energy>  (17) 
-426.98376231955245

>  <inter_energy>  (17) 
-463.1840123583053

>  <intra_energy>  (17) 
39.04850392202807

>  <rmsd>  (17) 
3.17305

>  <sdf_rank>  (17) 
0

$$$$

     RDKit          3D

 23 22  0  0  0  0  0  0  0  0999 V2000
   19.7052  -25.5923    6.2494 C   0  0  0  0  0  0  0  0  0  0  0  0
   19.6576  -25.5637    4.7465 C   0  0  0  0  0  0  0  0  0  0  0  0
   19.7392  -24.1148    4.2654 C   0  0  0  0  0  0  0  0  0  0  0  0
   20.8286  -25.5666    9.8720 C   0  0  0  0  0  0  0  0  0  0  0  0
   21.9860  -25.0451    7.0090 C   0  0  0  0  0  0  0  0  0  0  0  0
   20.5451  -24.4439    6.8915 C   0  0  2  0  0  0  0  0  0  0  0  0
   19.9335  -23.9602    8.2121 C   0  0  0  0  0  0  0  0  0  0  0  0
   19.6899  -25.1004    9.2379 C   0  0  0  0  0  0  0  0  0  0  0  0
   18.5432  -25.4730    9.4140 O   0  0  0  0  0  0  0  0  0  0  0  0
   21.4932  -24.8173   10.5984 O   0  0  0  0  0  0  0  0  0  0  0  0
   21.2806  -26.7932    9.6975 O   0  0  0  0  0  0  0  0  0  0  0  0
   22.8794  -24.5815    7.6978 O   0  0  0  0  0  0  0  0  0  0  0  0
   22.2157  -26.1116    6.2438 O   0  0  0  0  0  0  0  0  0  0  0  0
   18.6749  -25.5174    6.6274 H   0  0  0  0  0  0  0  0  0  0  0  0
   20.1980  -26.5351    6.5292 H   0  0  0  0  0  0  0  0  0  0  0  0
   20.5066  -26.1337    4.3412 H   0  0  0  0  0  0  0  0  0  0  0  0
   18.7163  -26.0146    4.3992 H   0  0  0  0  0  0  0  0  0  0  0  0
   19.7771  -23.4414    5.1344 H   0  0  0  0  0  0  0  0  0  0  0  0
   20.6463  -23.9807    3.6578 H   0  0  0  0  0  0  0  0  0  0  0  0
   18.8529  -23.8797    3.6578 H   0  0  0  0  0  0  0  0  0  0  0  0
   20.5640  -23.5228    6.2905 H   0  0  0  0  0  0  0  0  0  0  0  0
   20.6169  -23.2260    8.6637 H   0  0  0  0  0  0  0  0  0  0  0  0
   18.9517  -23.5256    7.9732 H   0  0  0  0  0  0  0  0  0  0  0  0
  1  2  1  0
  6  1  1  0
  2  3  1  0
  4  8  1  0
  4 10  2  0
  4 11  1  0
  5  6  1  0
  5 12  2  0
  5 13  1  0
  6  7  1  0
  7  8  1  0
  8  9  2  0
  1 14  1  0
  1 15  1  0
  2 16  1  0
  2 17  1  0
  3 18  1  0
  3 19  1  0
  3 20  1  0
  6 21  1  6
  7 22  1  0
  7 23  1  0
M  CHG  2  11  -1  13  -1
M  END
>  <filename_input>  (18) 
7A1P_QW2_docked.sdf

>  <pdb_id>  (18) 
7A1P_QW2

>  <pose_rank>  (18) 
17

>  <num_atoms_heavy>  (18) 
13

>  <num_torsions>  (18) 
6

>  <pose>  (18) 
[20.54506337441264, -24.443946924548747, 6.891536156421744, 0.49176678476200897, 0.8039967317276595, 2.701329897289092, 2.258416506070656, 1.5815795263817622, -3.537753055138059, -22.753687639258192, 4.997329643828249, -2.0842481661124044]

>  <energy>  (18) 
-393.8837207100424

>  <inter_energy>  (18) 
-427.87933308151776

>  <intra_energy>  (18) 
35.886474227019804

>  <rmsd>  (18) 
3.20529

>  <sdf_rank>  (18) 
0

$$$$

     RDKit          3D

 23 22  0  0  0  0  0  0  0  0999 V2000
   20.0951  -23.9443    7.8811 C   0  0  0  0  0  0  0  0  0  0  0  0
   21.5753  -24.2051    7.9323 C   0  0  0  0  0  0  0  0  0  0  0  0
   21.9538  -25.1908    6.8266 C   0  0  0  0  0  0  0  0  0  0  0  0
   18.6845  -25.8173    3.8034 C   0  0  0  0  0  0  0  0  0  0  0  0
   19.5241  -26.1984    8.7009 C   0  0  0  0  0  0  0  0  0  0  0  0
   19.2297  -25.1963    7.5344 C   0  0  2  0  0  0  0  0  0  0  0  0
   19.5344  -25.7283    6.1287 C   0  0  0  0  0  0  0  0  0  0  0  0
   18.5443  -25.2214    5.0449 C   0  0  0  0  0  0  0  0  0  0  0  0
   17.7302  -24.3745    5.3684 O   0  0  0  0  0  0  0  0  0  0  0  0
   18.2018  -26.9357    3.5865 O   0  0  0  0  0  0  0  0  0  0  0  0
   19.3684  -25.2561    2.8253 O   0  0  0  0  0  0  0  0  0  0  0  0
   19.2146  -27.3781    8.6996 O   0  0  0  0  0  0  0  0  0  0  0  0
   20.1139  -25.6623    9.7688 O   0  0  0  0  0  0  0  0  0  0  0  0
   19.7779  -23.5691    8.8653 H   0  0  0  0  0  0  0  0  0  0  0  0
   19.9329  -23.2175    7.0715 H   0  0  0  0  0  0  0  0  0  0  0  0
   22.1199  -23.2608    7.7850 H   0  0  0  0  0  0  0  0  0  0  0  0
   21.8406  -24.6304    8.9115 H   0  0  0  0  0  0  0  0  0  0  0  0
   22.3134  -26.1274    7.2776 H   0  0  0  0  0  0  0  0  0  0  0  0
   21.0717  -25.3991    6.2033 H   0  0  0  0  0  0  0  0  0  0  0  0
   22.7486  -24.7551    6.2033 H   0  0  0  0  0  0  0  0  0  0  0  0
   18.1518  -24.9846    7.4765 H   0  0  0  0  0  0  0  0  0  0  0  0
   20.5495  -25.4102    5.8487 H   0  0  0  0  0  0  0  0  0  0  0  0
   19.4358  -26.8231    6.1693 H   0  0  0  0  0  0  0  0  0  0  0  0
  1  2  1  0
  6  1  1  0
  2  3  1  0
  4  8  1  0
  4 10  2  0
  4 11  1  0
  5  6  1  0
  5 12  2  0
  5 13  1  0
  6  7  1  0
  7  8  1  0
  8  9  2  0
  1 14  1  0
  1 15  1  0
  2 16  1  0
  2 17  1  0
  3 18  1  0
  3 19  1  0
  3 20  1  0
  6 21  1  6
  7 22  1  0
  7 23  1  0
M  CHG  2  11  -1  13  -1
M  END
>  <filename_input>  (19) 
7A1P_QW2_docked.sdf

>  <pdb_id>  (19) 
7A1P_QW2

>  <pose_rank>  (19) 
18

>  <num_atoms_heavy>  (19) 
13

>  <num_torsions>  (19) 
6

>  <pose>  (19) 
[19.229704134095048, -25.196283114996287, 7.534361397344691, 1.5952196373679324, 1.5051177724048888, -1.0989538675479231, 8.486687176070351, -14.613301263279608, -8.611578103434724, 12.318447795535917, 13.244513553970577, -8.073598453997867]

>  <energy>  (19) 
-333.24162197778105

>  <inter_energy>  (19) 
-398.03863374915665

>  <intra_energy>  (19) 
76.57065202286577

>  <rmsd>  (19) 
4.44587

>  <sdf_rank>  (19) 
0

$$$$

     RDKit          3D

 23 22  0  0  0  0  0  0  0  0999 V2000
   20.8719  -24.2522    7.8438 C   0  0  0  0  0  0  0  0  0  0  0  0
   21.7785  -24.4078    9.0335 C   0  0  0  0  0  0  0  0  0  0  0  0
   21.3346  -25.6202    9.8525 C   0  0  0  0  0  0  0  0  0  0  0  0
   17.7258  -24.5878    8.5905 C   0  0  0  0  0  0  0  0  0  0  0  0
   21.0142  -25.2199    5.5806 C   0  0  0  0  0  0  0  0  0  0  0  0
   20.6118  -25.5721    7.0522 C   0  0  2  0  0  0  0  0  0  0  0  0
   19.1721  -26.0695    7.2305 C   0  0  0  0  0  0  0  0  0  0  0  0
   18.1252  -24.9252    7.3088 C   0  0  0  0  0  0  0  0  0  0  0  0
   17.7606  -24.4141    6.2645 O   0  0  0  0  0  0  0  0  0  0  0  0
   17.8451  -25.3978    9.5182 O   0  0  0  0  0  0  0  0  0  0  0  0
   17.1635  -23.4284    8.8714 O   0  0  0  0  0  0  0  0  0  0  0  0
   20.5210  -25.7228    4.5849 O   0  0  0  0  0  0  0  0  0  0  0  0
   22.0053  -24.3370    5.4634 O   0  0  0  0  0  0  0  0  0  0  0  0
   19.9041  -23.8669    8.1972 H   0  0  0  0  0  0  0  0  0  0  0  0
   21.3803  -23.5660    7.1503 H   0  0  0  0  0  0  0  0  0  0  0  0
   22.8131  -24.5553    8.6902 H   0  0  0  0  0  0  0  0  0  0  0  0
   21.7264  -23.5031    9.6571 H   0  0  0  0  0  0  0  0  0  0  0  0
   21.4191  -25.3893   10.9247 H   0  0  0  0  0  0  0  0  0  0  0  0
   20.2892  -25.8630    9.6110 H   0  0  0  0  0  0  0  0  0  0  0  0
   21.9760  -26.4806    9.6110 H   0  0  0  0  0  0  0  0  0  0  0  0
   21.2018  -26.4268    7.4146 H   0  0  0  0  0  0  0  0  0  0  0  0
   18.9188  -26.7150    6.3766 H   0  0  0  0  0  0  0  0  0  0  0  0
   19.1332  -26.6090    8.1883 H   0  0  0  0  0  0  0  0  0  0  0  0
  1  2  1  0
  6  1  1  0
  2  3  1  0
  4  8  1  0
  4 10  2  0
  4 11  1  0
  5  6  1  0
  5 12  2  0
  5 13  1  0
  6  7  1  0
  7  8  1  0
  8  9  2  0
  1 14  1  0
  1 15  1  0
  2 16  1  0
  2 17  1  0
  3 18  1  0
  3 19  1  0
  3 20  1  0
  6 21  1  1
  7 22  1  0
  7 23  1  0
M  CHG  2  11  -1  13  -1
M  END
>  <filename_input>  (20) 
7A1P_QW2_docked.sdf

>  <pdb_id>  (20) 
7A1P_QW2

>  <pose_rank>  (20) 
19

>  <num_atoms_heavy>  (20) 
13

>  <num_torsions>  (20) 
6

>  <pose>  (20) 
[20.611817444011773, -25.572108395760555, 7.052158950887124, -1.0796994840486147, 3.6942096742131816, -1.0200658770916304, 2.5063120374225267, 0.9761068947681468, -3.8131533069445855, -23.059130899727517, 8.233348565722121, -3.576092853379473]

>  <energy>  (20) 
-407.27895777792344

>  <inter_energy>  (20) 
-415.8300269101154

>  <intra_energy>  (20) 
14.73817638016502

>  <rmsd>  (20) 
4.42598

>  <sdf_rank>  (20) 
0

$$$$

     RDKit          3D

 23 22  0  0  0  0  0  0  0  0999 V2000
   20.5358  -24.7729    4.8520 C   0  0  0  0  0  0  0  0  0  0  0  0
   19.8895  -25.9668    4.2050 C   0  0  0  0  0  0  0  0  0  0  0  0
   20.3515  -26.0661    2.7509 C   0  0  0  0  0  0  0  0  0  0  0  0
   16.9682  -25.3862    8.1073 C   0  0  0  0  0  0  0  0  0  0  0  0
   21.4498  -24.5295    7.1288 C   0  0  0  0  0  0  0  0  0  0  0  0
   20.1026  -24.5257    6.3311 C   0  0  2  0  0  0  0  0  0  0  0  0
   19.0665  -25.5540    6.8011 C   0  0  0  0  0  0  0  0  0  0  0  0
   17.6402  -24.9643    6.9730 C   0  0  0  0  0  0  0  0  0  0  0  0
   17.2415  -24.1821    6.1281 O   0  0  0  0  0  0  0  0  0  0  0  0
   17.5600  -25.4748    9.1902 O   0  0  0  0  0  0  0  0  0  0  0  0
   15.7022  -25.7549    8.0805 O   0  0  0  0  0  0  0  0  0  0  0  0
   21.7563  -23.7125    7.9809 O   0  0  0  0  0  0  0  0  0  0  0  0
   22.3088  -25.4864    6.7794 O   0  0  0  0  0  0  0  0  0  0  0  0
   21.6258  -24.9197    4.8330 H   0  0  0  0  0  0  0  0  0  0  0  0
   20.2109  -23.8920    4.2790 H   0  0  0  0  0  0  0  0  0  0  0  0
   20.1797  -26.8797    4.7458 H   0  0  0  0  0  0  0  0  0  0  0  0
   18.7956  -25.8559    4.2371 H   0  0  0  0  0  0  0  0  0  0  0  0
   21.4266  -26.2971    2.7227 H   0  0  0  0  0  0  0  0  0  0  0  0
   19.7914  -26.8644    2.2420 H   0  0  0  0  0  0  0  0  0  0  0  0
   20.1688  -25.1082    2.2420 H   0  0  0  0  0  0  0  0  0  0  0  0
   19.5729  -23.5734    6.4817 H   0  0  0  0  0  0  0  0  0  0  0  0
   19.0205  -26.3654    6.0598 H   0  0  0  0  0  0  0  0  0  0  0  0
   19.3903  -25.9096    7.7904 H   0  0  0  0  0  0  0  0  0  0  0  0
  1  2  1  0
  6  1  1  0
  2  3  1  0
  4  8  1  0
  4 10  2  0
  4 11  1  0
  5  6  1  0
  5 12  2  0
  5 13  1  0
  6  7  1  0
  7  8  1  0
  8  9  2  0
  1 14  1  0
  1 15  1  0
  2 16  1  0
  2 17  1  0
  3 18  1  0
  3 19  1  0
  3 20  1  0
  6 21  1  6
  7 22  1  0
  7 23  1  0
M  CHG  2  11  -1  13  -1
M  END
>  <filename_input>  (21) 
7A1P_QW2_docked.sdf

>  <pdb_id>  (21) 
7A1P_QW2

>  <pose_rank>  (21) 
20

>  <num_atoms_heavy>  (21) 
13

>  <num_torsions>  (21) 
6

>  <pose>  (21) 
[20.102555066779857, -24.52565439553084, 6.331077989579918, -0.5549658320214066, -0.4899228499526085, 3.387817903530437, 1.193787547258383, -0.9648983782721922, 0.11230835512099721, -0.4569946173748096, 7.558910141329741, 3.8280296436983074]

>  <energy>  (21) 
-468.38762812541387

>  <inter_energy>  (21) 
-444.0011656330566

>  <intra_energy>  (21) 
0.3172618855588164

>  <rmsd>  (21) 
4.42215

>  <sdf_rank>  (21) 
0

$$$$

     RDKit          3D

 23 22  0  0  0  0  0  0  0  0999 V2000
   19.1307  -25.6420    4.8992 C   0  0  0  0  0  0  0  0  0  0  0  0
   19.3702  -26.3784    3.6101 C   0  0  0  0  0  0  0  0  0  0  0  0
   20.5458  -25.7371    2.8721 C   0  0  0  0  0  0  0  0  0  0  0  0
   21.3600  -24.2519    8.4901 C   0  0  0  0  0  0  0  0  0  0  0  0
   19.1335  -26.0790    7.3257 C   0  0  0  0  0  0  0  0  0  0  0  0
   20.0700  -26.0675    6.0710 C   0  0  2  0  0  0  0  0  0  0  0  0
   21.2939  -25.1502    6.1824 C   0  0  0  0  0  0  0  0  0  0  0  0
   21.0927  -23.9630    7.1630 C   0  0  0  0  0  0  0  0  0  0  0  0
   20.7428  -22.8926    6.6976 O   0  0  0  0  0  0  0  0  0  0  0  0
   21.5514  -25.4196    8.8515 O   0  0  0  0  0  0  0  0  0  0  0  0
   21.3743  -23.3217    9.4250 O   0  0  0  0  0  0  0  0  0  0  0  0
   19.1955  -26.8917    8.2329 O   0  0  0  0  0  0  0  0  0  0  0  0
   18.1864  -25.1416    7.3304 O   0  0  0  0  0  0  0  0  0  0  0  0
   19.2774  -24.5677    4.7138 H   0  0  0  0  0  0  0  0  0  0  0  0
   18.1058  -25.8875    5.2144 H   0  0  0  0  0  0  0  0  0  0  0  0
   19.6027  -27.4316    3.8263 H   0  0  0  0  0  0  0  0  0  0  0  0
   18.4684  -26.3253    2.9825 H   0  0  0  0  0  0  0  0  0  0  0  0
   21.2671  -25.3437    3.6035 H   0  0  0  0  0  0  0  0  0  0  0  0
   21.0381  -26.4917    2.2410 H   0  0  0  0  0  0  0  0  0  0  0  0
   20.1779  -24.9147    2.2410 H   0  0  0  0  0  0  0  0  0  0  0  0
   20.5303  -27.0566    5.9297 H   0  0  0  0  0  0  0  0  0  0  0  0
   22.1473  -25.7496    6.5322 H   0  0  0  0  0  0  0  0  0  0  0  0
   21.4666  -24.7195    5.1850 H   0  0  0  0  0  0  0  0  0  0  0  0
  1  2  1  0
  6  1  1  0
  2  3  1  0
  4  8  1  0
  4 10  2  0
  4 11  1  0
  5  6  1  0
  5 12  2  0
  5 13  1  0
  6  7  1  0
  7  8  1  0
  8  9  2  0
  1 14  1  0
  1 15  1  0
  2 16  1  0
  2 17  1  0
  3 18  1  0
  3 19  1  0
  3 20  1  0
  6 21  1  6
  7 22  1  0
  7 23  1  0
M  CHG  2  11  -1  13  -1
M  END
>  <filename_input>  (22) 
7A1P_QW2_docked.sdf

>  <pdb_id>  (22) 
7A1P_QW2

>  <pose_rank>  (22) 
21

>  <num_atoms_heavy>  (22) 
13

>  <num_torsions>  (22) 
6

>  <pose>  (22) 
[20.070031167010864, -26.067549189754136, 6.070970966756969, -0.1095929310015141, 0.6992616732798229, 0.32635115453122104, 1.3309738198640375, 0.7181418036219857, -4.417426680843958, -22.07771981299888, 5.166765552955337, -3.3566455976706733]

>  <energy>  (22) 
-359.65119745814513

>  <inter_energy>  (22) 
-408.7633530882702

>  <intra_energy>  (22) 
52.74372010743559

>  <rmsd>  (22) 
2.47613

>  <sdf_rank>  (22) 
0

$$$$

     RDKit          3D

 23 22  0  0  0  0  0  0  0  0999 V2000
   18.8657  -24.3063    7.7811 C   0  0  0  0  0  0  0  0  0  0  0  0
   17.5891  -23.8721    8.4469 C   0  0  0  0  0  0  0  0  0  0  0  0
   16.7848  -25.1074    8.8530 C   0  0  0  0  0  0  0  0  0  0  0  0
   21.5466  -25.1582    5.9409 C   0  0  0  0  0  0  0  0  0  0  0  0
   20.5053  -25.4104    9.2547 C   0  0  0  0  0  0  0  0  0  0  0  0
   19.3744  -25.7165    8.2160 C   0  0  2  0  0  0  0  0  0  0  0  0
   19.8093  -26.5618    7.0126 C   0  0  0  0  0  0  0  0  0  0  0  0
   20.2879  -25.7167    5.8008 C   0  0  0  0  0  0  0  0  0  0  0  0
   19.5454  -25.6290    4.8386 O   0  0  0  0  0  0  0  0  0  0  0  0
   22.4392  -25.7669    6.5440 O   0  0  0  0  0  0  0  0  0  0  0  0
   21.8372  -23.9529    5.4912 O   0  0  0  0  0  0  0  0  0  0  0  0
   20.7346  -26.0764   10.2503 O   0  0  0  0  0  0  0  0  0  0  0  0
   21.2078  -24.3042    9.0131 O   0  0  0  0  0  0  0  0  0  0  0  0
   18.6985  -24.3214    6.6940 H   0  0  0  0  0  0  0  0  0  0  0  0
   19.6391  -23.5863    8.0869 H   0  0  0  0  0  0  0  0  0  0  0  0
   17.8253  -23.2772    9.3415 H   0  0  0  0  0  0  0  0  0  0  0  0
   16.9985  -23.2615    7.7481 H   0  0  0  0  0  0  0  0  0  0  0  0
   16.7423  -25.1728    9.9502 H   0  0  0  0  0  0  0  0  0  0  0  0
   15.7642  -25.0290    8.4504 H   0  0  0  0  0  0  0  0  0  0  0  0
   17.2695  -26.0091    8.4504 H   0  0  0  0  0  0  0  0  0  0  0  0
   18.5956  -26.3439    8.6741 H   0  0  0  0  0  0  0  0  0  0  0  0
   20.6349  -27.2169    7.3277 H   0  0  0  0  0  0  0  0  0  0  0  0
   18.9276  -27.1303    6.6817 H   0  0  0  0  0  0  0  0  0  0  0  0
  1  2  1  0
  6  1  1  0
  2  3  1  0
  4  8  1  0
  4 10  2  0
  4 11  1  0
  5  6  1  0
  5 12  2  0
  5 13  1  0
  6  7  1  0
  7  8  1  0
  8  9  2  0
  1 14  1  0
  1 15  1  0
  2 16  1  0
  2 17  1  0
  3 18  1  0
  3 19  1  0
  3 20  1  0
  6 21  1  1
  7 22  1  0
  7 23  1  0
M  CHG  2  11  -1  13  -1
M  END
>  <filename_input>  (23) 
7A1P_QW2_docked.sdf

>  <pdb_id>  (23) 
7A1P_QW2

>  <pose_rank>  (23) 
22

>  <num_atoms_heavy>  (23) 
13

>  <num_torsions>  (23) 
6

>  <pose>  (23) 
[19.374398575108525, -25.716514383220705, 8.216002331863791, 0.28184149303702033, 1.754359796867311, -1.105443091501575, 1.3548234191399462, 1.4087974157437968, -3.4508520197516734, -23.220629815381624, 4.992249314512138, -2.570537957871175]

>  <energy>  (23) 
-433.1218112304755

>  <inter_energy>  (23) 
-446.19082285119987

>  <intra_energy>  (23) 
20.79809471898116

>  <rmsd>  (23) 
3.63315

>  <sdf_rank>  (23) 
0

$$$$

     RDKit          3D

 23 22  0  0  0  0  0  0  0  0999 V2000
   20.5540  -24.4116    5.6531 C   0  0  0  0  0  0  0  0  0  0  0  0
   19.3851  -24.7603    4.7735 C   0  0  0  0  0  0  0  0  0  0  0  0
   19.7818  -25.8980    3.8324 C   0  0  0  0  0  0  0  0  0  0  0  0
   17.1714  -25.0121    8.7618 C   0  0  0  0  0  0  0  0  0  0  0  0
   21.7000  -25.0392    7.7439 C   0  0  0  0  0  0  0  0  0  0  0  0
   20.3005  -24.6226    7.1788 C   0  0  2  0  0  0  0  0  0  0  0  0
   19.1710  -25.6277    7.4354 C   0  0  0  0  0  0  0  0  0  0  0  0
   17.7642  -24.9746    7.5115 C   0  0  0  0  0  0  0  0  0  0  0  0
   17.3117  -24.4763    6.4957 O   0  0  0  0  0  0  0  0  0  0  0  0
   17.8500  -24.8457    9.7829 O   0  0  0  0  0  0  0  0  0  0  0  0
   15.8887  -25.2713    8.9264 O   0  0  0  0  0  0  0  0  0  0  0  0
   22.3690  -24.3670    8.5108 O   0  0  0  0  0  0  0  0  0  0  0  0
   22.1706  -26.1983    7.2849 O   0  0  0  0  0  0  0  0  0  0  0  0
   21.4069  -25.0397    5.3563 H   0  0  0  0  0  0  0  0  0  0  0  0
   20.7422  -23.3370    5.5125 H   0  0  0  0  0  0  0  0  0  0  0  0
   18.5375  -25.0788    5.3981 H   0  0  0  0  0  0  0  0  0  0  0  0
   19.0926  -23.8792    4.1834 H   0  0  0  0  0  0  0  0  0  0  0  0
   20.0871  -26.7737    4.4240 H   0  0  0  0  0  0  0  0  0  0  0  0
   18.9238  -26.1652    3.1980 H   0  0  0  0  0  0  0  0  0  0  0  0
   20.6199  -25.5738    3.1980 H   0  0  0  0  0  0  0  0  0  0  0  0
   19.9343  -23.7219    7.6933 H   0  0  0  0  0  0  0  0  0  0  0  0
   19.1688  -26.3646    6.6187 H   0  0  0  0  0  0  0  0  0  0  0  0
   19.3660  -26.0896    8.4145 H   0  0  0  0  0  0  0  0  0  0  0  0
  1  2  1  0
  6  1  1  0
  2  3  1  0
  4  8  1  0
  4 10  2  0
  4 11  1  0
  5  6  1  0
  5 12  2  0
  5 13  1  0
  6  7  1  0
  7  8  1  0
  8  9  2  0
  1 14  1  0
  1 15  1  0
  2 16  1  0
  2 17  1  0
  3 18  1  0
  3 19  1  0
  3 20  1  0
  6 21  1  1
  7 22  1  0
  7 23  1  0
M  CHG  2  11  -1  13  -1
M  END
>  <filename_input>  (24) 
7A1P_QW2_docked.sdf

>  <pdb_id>  (24) 
7A1P_QW2

>  <pose_rank>  (24) 
23

>  <num_atoms_heavy>  (24) 
13

>  <num_torsions>  (24) 
6

>  <pose>  (24) 
[20.30051013535968, -24.62256453116439, 7.178809617620042, 0.4087698700535231, 0.8915974910108915, -2.853863080525662, 0.8176537520363161, -0.5472096960805186, 1.229411126740182, -0.1201843871726988, 8.001969972745801, 3.7677478995633313]

>  <energy>  (24) 
-422.5463475711317

>  <inter_energy>  (24) 
-456.9618962888261

>  <intra_energy>  (24) 
37.37050533835972

>  <rmsd>  (24) 
4.22667

>  <sdf_rank>  (24) 
0

$$$$

     RDKit          3D

 23 22  0  0  0  0  0  0  0  0999 V2000
   19.0148  -24.9769    6.4698 C   0  0  0  0  0  0  0  0  0  0  0  0
   19.6839  -25.8326    5.4298 C   0  0  0  0  0  0  0  0  0  0  0  0
   20.4693  -24.9395    4.4689 C   0  0  0  0  0  0  0  0  0  0  0  0
   22.2385  -25.0672    8.1553 C   0  0  0  0  0  0  0  0  0  0  0  0
   17.3387  -25.3489    8.2393 C   0  0  0  0  0  0  0  0  0  0  0  0
   18.8209  -25.6738    7.8531 C   0  0  2  0  0  0  0  0  0  0  0  0
   19.8723  -25.2192    8.8728 C   0  0  0  0  0  0  0  0  0  0  0  0
   21.0308  -24.3970    8.2455 C   0  0  0  0  0  0  0  0  0  0  0  0
   20.7879  -23.2622    7.8741 O   0  0  0  0  0  0  0  0  0  0  0  0
   22.5071  -25.7437    7.1547 O   0  0  0  0  0  0  0  0  0  0  0  0
   23.1241  -25.0590    9.1326 O   0  0  0  0  0  0  0  0  0  0  0  0
   16.4197  -26.1502    8.2075 O   0  0  0  0  0  0  0  0  0  0  0  0
   17.1087  -24.0795    8.5731 O   0  0  0  0  0  0  0  0  0  0  0  0
   19.6289  -24.0769    6.6215 H   0  0  0  0  0  0  0  0  0  0  0  0
   18.0079  -24.7509    6.0890 H   0  0  0  0  0  0  0  0  0  0  0  0
   20.3710  -26.5376    5.9206 H   0  0  0  0  0  0  0  0  0  0  0  0
   18.9222  -26.3952    4.8702 H   0  0  0  0  0  0  0  0  0  0  0  0
   21.0881  -24.2359    5.0452 H   0  0  0  0  0  0  0  0  0  0  0  0
   21.1169  -25.5632    3.8352 H   0  0  0  0  0  0  0  0  0  0  0  0
   19.7681  -24.3769    3.8352 H   0  0  0  0  0  0  0  0  0  0  0  0
   18.9776  -26.7622    7.8239 H   0  0  0  0  0  0  0  0  0  0  0  0
   19.3750  -24.5970    9.6314 H   0  0  0  0  0  0  0  0  0  0  0  0
   20.3178  -26.1278    9.3041 H   0  0  0  0  0  0  0  0  0  0  0  0
  1  2  1  0
  6  1  1  0
  2  3  1  0
  4  8  1  0
  4 10  2  0
  4 11  1  0
  5  6  1  0
  5 12  2  0
  5 13  1  0
  6  7  1  0
  7  8  1  0
  8  9  2  0
  1 14  1  0
  1 15  1  0
  2 16  1  0
  2 17  1  0
  3 18  1  0
  3 19  1  0
  3 20  1  0
  6 21  1  6
  7 22  1  0
  7 23  1  0
M  CHG  2  11  -1  13  -1
M  END
>  <filename_input>  (25) 
7A1P_QW2_docked.sdf

>  <pdb_id>  (25) 
7A1P_QW2

>  <pose_rank>  (25) 
24

>  <num_atoms_heavy>  (25) 
13

>  <num_torsions>  (25) 
6

>  <pose>  (25) 
[18.8208961530187, -25.67376074296437, 7.8530871316302635, -1.0547023782557505, 3.1598725792204228, -5.339712215132525, 0.7013124174787951, 0.8322962221180531, 0.6734185201795408, 1.2483491932125705, 8.095195546722158, 4.651010312427732]

>  <energy>  (25) 
-475.5404659322549

>  <inter_energy>  (25) 
-480.12763768096954

>  <intra_energy>  (25) 
25.238914050916115

>  <rmsd>  (25) 
1.41862

>  <sdf_rank>  (25) 
0

$$$$

     RDKit          3D

 23 22  0  0  0  0  0  0  0  0999 V2000
   18.8540  -24.7890    6.3450 C   0  0  0  0  0  0  0  0  0  0  0  0
   20.2380  -24.9180    5.7710 C   0  0  0  0  0  0  0  0  0  0  0  0
   20.2430  -24.3850    4.3380 C   0  0  0  0  0  0  0  0  0  0  0  0
   22.1660  -25.0190    8.9980 C   0  0  0  0  0  0  0  0  0  0  0  0
   17.1720  -25.1790    8.1050 C   0  0  0  0  0  0  0  0  0  0  0  0
   18.6590  -25.4900    7.7260 C   0  0  2  0  0  0  0  0  0  0  0  0
   19.7010  -25.0280    8.7520 C   0  0  0  0  0  0  0  0  0  0  0  0
   21.0610  -25.7680    8.6320 C   0  0  0  0  0  0  0  0  0  0  0  0
   21.0480  -26.9260    8.2530 O   0  0  0  0  0  0  0  0  0  0  0  0
   23.3050  -25.4920    8.8990 O   0  0  0  0  0  0  0  0  0  0  0  0
   22.0590  -23.8070    9.5070 O   0  0  0  0  0  0  0  0  0  0  0  0
   16.1980  -25.5990    7.5030 O   0  0  0  0  0  0  0  0  0  0  0  0
   17.0150  -24.3520    9.1380 O   0  0  0  0  0  0  0  0  0  0  0  0
   18.6314  -23.7188    6.4683 H   0  0  0  0  0  0  0  0  0  0  0  0
   18.1746  -25.2908    5.6403 H   0  0  0  0  0  0  0  0  0  0  0  0
   20.9446  -24.3367    6.3816 H   0  0  0  0  0  0  0  0  0  0  0  0
   20.5398  -25.9758    5.7715 H   0  0  0  0  0  0  0  0  0  0  0  0
   20.2533  -23.2852    4.3559 H   0  0  0  0  0  0  0  0  0  0  0  0
   21.1377  -24.7516    3.8136 H   0  0  0  0  0  0  0  0  0  0  0  0
   19.3415  -24.7347    3.8136 H   0  0  0  0  0  0  0  0  0  0  0  0
   18.8255  -26.5769    7.6958 H   0  0  0  0  0  0  0  0  0  0  0  0
   19.8768  -23.9516    8.6088 H   0  0  0  0  0  0  0  0  0  0  0  0
   19.2960  -25.2563    9.7489 H   0  0  0  0  0  0  0  0  0  0  0  0
  1  2  1  0
  6  1  1  0
  2  3  1  0
  4  8  1  0
  4 10  2  0
  4 11  1  0
  5  6  1  0
  5 12  2  0
  5 13  1  0
  6  7  1  0
  7  8  1  0
  8  9  2  0
  1 14  1  0
  1 15  1  0
  2 16  1  0
  2 17  1  0
  3 18  1  0
  3 19  1  0
  3 20  1  0
  6 21  1  6
  7 22  1  0
  7 23  1  0
M  CHG  2  11  -1  13  -1
M  END
>  <filename_input>  (26) 
7A1P_QW2_docked.sdf

>  <pdb_id>  (26) 
7A1P_QW2

>  <pose_rank>  (26) 
25

>  <num_atoms_heavy>  (26) 
13

>  <num_torsions>  (26) 
6

>  <pose>  (26) 
[18.659, -25.49, 7.726, 1e-06, 1e-06, 1e-06, 0.0, 0.0, 0.0, 0.0, 0.0, 0.0]

>  <energy>  (26) 
-540.1941645831193

>  <inter_energy>  (26) 
-561.190427448141

>  <intra_energy>  (26) 
17.73039052456693

>  <rmsd>  (26) 
0.0

>  <sdf_rank>  (26) 
0

$$$$
