
     RDKit          3D

 14 13  0  0  0  0  0  0  0  0999 V2000
   21.2744   30.7613   -8.0424 C   0  0  0  0  0  0  0  0  0  0  0  0
   21.0036   34.0978   -9.7422 C   0  0  0  0  0  0  0  0  0  0  0  0
   18.9677   32.5807  -10.1469 O   0  0  0  0  0  0  0  0  0  0  0  0
   21.1171   31.3626   -9.3937 C   0  0  0  0  0  0  0  0  0  0  0  0
   19.7237   32.8905   -7.8665 O   0  0  0  0  0  0  0  0  0  0  0  0
   20.0403   32.7416   -9.2340 S   0  0  1  0  0  0  0  0  0  0  0  0
   21.0747   31.5246   -7.2760 H   0  0  0  0  0  0  0  0  0  0  0  0
   20.5636   29.9300   -7.9260 H   0  0  0  0  0  0  0  0  0  0  0  0
   22.3014   30.3847   -7.9260 H   0  0  0  0  0  0  0  0  0  0  0  0
   21.3821   34.6307   -8.8574 H   0  0  0  0  0  0  0  0  0  0  0  0
   21.8511   33.7400  -10.3452 H   0  0  0  0  0  0  0  0  0  0  0  0
   20.3867   34.7802  -10.3452 H   0  0  0  0  0  0  0  0  0  0  0  0
   22.0951   31.6915   -9.7749 H   0  0  0  0  0  0  0  0  0  0  0  0
   20.7040   30.6273  -10.0999 H   0  0  0  0  0  0  0  0  0  0  0  0
  1  4  1  0
  6  2  1  6
  3  6  2  0
  4  6  1  0
  5  6  2  0
  1  7  1  0
  1  8  1  0
  1  9  1  0
  2 10  1  0
  2 11  1  0
  2 12  1  0
  4 13  1  0
  4 14  1  0
M  END
>  <filename_input>  (1) 
7A9E_R4W_docked.sdf

>  <pdb_id>  (1) 
7A9E_R4W

>  <pose_rank>  (1) 
0

>  <num_atoms_heavy>  (1) 
6

>  <num_torsions>  (1) 
1

>  <pose>  (1) 
[21.003578754569496, 34.0977679786461, -9.742163935117437, -6.178470604499158, -0.7590951280252647, 1.8905227165106544, 0.9923649225715269]

>  <energy>  (1) 
-227.16040763977554

>  <inter_energy>  (1) 
-227.75052348518597

>  <intra_energy>  (1) 
0.0

>  <rmsd>  (1) 
0.722485

>  <sdf_rank>  (1) 
0

$$$$

     RDKit          3D

 14 13  0  0  0  0  0  0  0  0999 V2000
   20.2768   34.5362   -9.2316 C   0  0  0  0  0  0  0  0  0  0  0  0
   19.0627   32.9858  -11.0008 C   0  0  0  0  0  0  0  0  0  0  0  0
   20.4679   31.0582  -10.0418 O   0  0  0  0  0  0  0  0  0  0  0  0
   20.3994   33.1973   -8.5958 C   0  0  0  0  0  0  0  0  0  0  0  0
   18.3940   31.6230   -8.9249 O   0  0  0  0  0  0  0  0  0  0  0  0
   19.5476   32.0495   -9.6175 S   0  0  1  0  0  0  0  0  0  0  0  0
   20.2061   35.3078   -8.4508 H   0  0  0  0  0  0  0  0  0  0  0  0
   21.1612   34.7275   -9.8571 H   0  0  0  0  0  0  0  0  0  0  0  0
   19.3724   34.5637   -9.8571 H   0  0  0  0  0  0  0  0  0  0  0  0
   18.5812   33.9156  -10.6638 H   0  0  0  0  0  0  0  0  0  0  0  0
   19.9477   33.2300  -11.6068 H   0  0  0  0  0  0  0  0  0  0  0  0
   18.3526   32.4040  -11.6068 H   0  0  0  0  0  0  0  0  0  0  0  0
   21.4596   32.9148   -8.5160 H   0  0  0  0  0  0  0  0  0  0  0  0
   19.9707   33.2079   -7.5828 H   0  0  0  0  0  0  0  0  0  0  0  0
  1  4  1  0
  6  2  1  6
  3  6  2  0
  4  6  1  0
  5  6  2  0
  1  7  1  0
  1  8  1  0
  1  9  1  0
  2 10  1  0
  2 11  1  0
  2 12  1  0
  4 13  1  0
  4 14  1  0
M  END
>  <filename_input>  (2) 
7A9E_R4W_docked.sdf

>  <pdb_id>  (2) 
7A9E_R4W

>  <pose_rank>  (2) 
1

>  <num_atoms_heavy>  (2) 
6

>  <num_torsions>  (2) 
1

>  <pose>  (2) 
[19.062746246232834, 32.98581544077269, -11.000818780897216, 1.8642306739223233, 2.0430509475335814, -3.2806128881868637, -13.563854319899136]

>  <energy>  (2) 
-279.1765950133943

>  <inter_energy>  (2) 
-266.59291168341673

>  <intra_energy>  (2) 
0.0

>  <rmsd>  (2) 
2.66527

>  <sdf_rank>  (2) 
0

$$$$

     RDKit          3D

 14 13  0  0  0  0  0  0  0  0999 V2000
   17.9851   32.1288   -9.0402 C   0  0  0  0  0  0  0  0  0  0  0  0
   21.5160   32.0541  -10.2836 C   0  0  0  0  0  0  0  0  0  0  0  0
   20.9057   34.2683   -9.1283 O   0  0  0  0  0  0  0  0  0  0  0  0
   18.8994   32.8661   -9.9527 C   0  0  0  0  0  0  0  0  0  0  0  0
   20.3977   32.2011   -7.9724 O   0  0  0  0  0  0  0  0  0  0  0  0
   20.4793   32.9176   -9.1859 S   0  0  1  0  0  0  0  0  0  0  0  0
   18.2550   32.3465   -7.9963 H   0  0  0  0  0  0  0  0  0  0  0  0
   16.9483   32.4465   -9.2248 H   0  0  0  0  0  0  0  0  0  0  0  0
   18.0759   31.0482   -9.2248 H   0  0  0  0  0  0  0  0  0  0  0  0
   22.2375   31.4532   -9.7105 H   0  0  0  0  0  0  0  0  0  0  0  0
   20.9083   31.3914  -10.9172 H   0  0  0  0  0  0  0  0  0  0  0  0
   22.0579   32.7717  -10.9172 H   0  0  0  0  0  0  0  0  0  0  0  0
   18.9673   32.3445  -10.9188 H   0  0  0  0  0  0  0  0  0  0  0  0
   18.5248   33.8836  -10.1384 H   0  0  0  0  0  0  0  0  0  0  0  0
  1  4  1  0
  6  2  1  6
  3  6  2  0
  4  6  1  0
  5  6  2  0
  1  7  1  0
  1  8  1  0
  1  9  1  0
  2 10  1  0
  2 11  1  0
  2 12  1  0
  4 13  1  0
  4 14  1  0
M  END
>  <filename_input>  (3) 
7A9E_R4W_docked.sdf

>  <pdb_id>  (3) 
7A9E_R4W

>  <pose_rank>  (3) 
2

>  <num_atoms_heavy>  (3) 
6

>  <num_torsions>  (3) 
1

>  <pose>  (3) 
[21.516040660037145, 32.054102563517745, -10.283589109340625, -1.201684977884445, -1.4767447976290458, 3.877019042354199, 7.257659417223751]

>  <energy>  (3) 
-273.8081939244203

>  <inter_energy>  (3) 
-262.42955771237325

>  <intra_energy>  (3) 
0.0

>  <rmsd>  (3) 
2.6452

>  <sdf_rank>  (3) 
0

$$$$

     RDKit          3D

 14 13  0  0  0  0  0  0  0  0999 V2000
   22.2058   32.3100  -10.3213 C   0  0  0  0  0  0  0  0  0  0  0  0
   18.6562   33.6269  -10.1864 C   0  0  0  0  0  0  0  0  0  0  0  0
   19.5315   32.6821   -7.9613 O   0  0  0  0  0  0  0  0  0  0  0  0
   20.8005   31.8938  -10.0683 C   0  0  0  0  0  0  0  0  0  0  0  0
   20.9100   34.2883   -9.1393 O   0  0  0  0  0  0  0  0  0  0  0  0
   20.0157   33.1975   -9.1900 S   0  0  1  0  0  0  0  0  0  0  0  0
   22.7214   32.4626   -9.3617 H   0  0  0  0  0  0  0  0  0  0  0  0
   22.7227   31.5263  -10.8947 H   0  0  0  0  0  0  0  0  0  0  0  0
   22.2127   33.2487  -10.8947 H   0  0  0  0  0  0  0  0  0  0  0  0
   17.8031   33.8964   -9.5463 H   0  0  0  0  0  0  0  0  0  0  0  0
   18.9234   34.4844  -10.8215 H   0  0  0  0  0  0  0  0  0  0  0  0
   18.3823   32.7716  -10.8215 H   0  0  0  0  0  0  0  0  0  0  0  0
   20.2827   31.7187  -11.0229 H   0  0  0  0  0  0  0  0  0  0  0  0
   20.7708   30.9608   -9.4863 H   0  0  0  0  0  0  0  0  0  0  0  0
  1  4  1  0
  6  2  1  6
  3  6  2  0
  4  6  1  0
  5  6  2  0
  1  7  1  0
  1  8  1  0
  1  9  1  0
  2 10  1  0
  2 11  1  0
  2 12  1  0
  4 13  1  0
  4 14  1  0
M  END
>  <filename_input>  (4) 
7A9E_R4W_docked.sdf

>  <pdb_id>  (4) 
7A9E_R4W

>  <pose_rank>  (4) 
3

>  <num_atoms_heavy>  (4) 
6

>  <num_torsions>  (4) 
1

>  <pose>  (4) 
[18.656155263986133, 33.626934165670875, -10.18638943138851, -0.8390342754553156, 1.5796430056642954, 0.7022689026430057, 1.0552642707049626]

>  <energy>  (4) 
-273.68578087398396

>  <inter_energy>  (4) 
-262.9957662903886

>  <intra_energy>  (4) 
0.0

>  <rmsd>  (4) 
1.9651

>  <sdf_rank>  (4) 
0

$$$$

     RDKit          3D

 14 13  0  0  0  0  0  0  0  0999 V2000
   17.7036   32.1565   -7.7674 C   0  0  0  0  0  0  0  0  0  0  0  0
   18.6985   33.5148  -10.3675 C   0  0  0  0  0  0  0  0  0  0  0  0
   20.3550   33.1894   -8.4284 O   0  0  0  0  0  0  0  0  0  0  0  0
   18.5638   31.3441   -8.6687 C   0  0  0  0  0  0  0  0  0  0  0  0
   20.5042   31.6841  -10.3203 O   0  0  0  0  0  0  0  0  0  0  0  0
   19.7016   32.4394   -9.4385 S   0  0  1  0  0  0  0  0  0  0  0  0
   17.9484   31.9253   -6.7202 H   0  0  0  0  0  0  0  0  0  0  0  0
   17.8797   33.2255   -7.9577 H   0  0  0  0  0  0  0  0  0  0  0  0
   16.6464   31.9195   -7.9577 H   0  0  0  0  0  0  0  0  0  0  0  0
   18.1093   34.1465   -9.6865 H   0  0  0  0  0  0  0  0  0  0  0  0
   19.3328   34.1515  -11.0017 H   0  0  0  0  0  0  0  0  0  0  0  0
   18.0192   32.9263  -11.0017 H   0  0  0  0  0  0  0  0  0  0  0  0
   19.1076   30.5857   -8.0863 H   0  0  0  0  0  0  0  0  0  0  0  0
   17.9543   30.8248   -9.4228 H   0  0  0  0  0  0  0  0  0  0  0  0
  1  4  1  0
  6  2  1  6
  3  6  2  0
  4  6  1  0
  5  6  2  0
  1  7  1  0
  1  8  1  0
  1  9  1  0
  2 10  1  0
  2 11  1  0
  2 12  1  0
  4 13  1  0
  4 14  1  0
M  END
>  <filename_input>  (5) 
7A9E_R4W_docked.sdf

>  <pdb_id>  (5) 
7A9E_R4W

>  <pose_rank>  (5) 
4

>  <num_atoms_heavy>  (5) 
6

>  <num_torsions>  (5) 
1

>  <pose>  (5) 
[18.698528696740524, 33.51477225716884, -10.367452153586887, -0.11510511100090369, 2.61898329317481, -0.7879566140826472, -2.1824603657912585]

>  <energy>  (5) 
-273.123608473217

>  <inter_energy>  (5) 
-268.9822830120861

>  <intra_energy>  (5) 
0.0

>  <rmsd>  (5) 
2.71732

>  <sdf_rank>  (5) 
0

$$$$

     RDKit          3D

 14 13  0  0  0  0  0  0  0  0999 V2000
   20.1072   34.9388  -10.7696 C   0  0  0  0  0  0  0  0  0  0  0  0
   18.8502   32.3874   -8.0652 C   0  0  0  0  0  0  0  0  0  0  0  0
   18.2579   32.9742  -10.4972 O   0  0  0  0  0  0  0  0  0  0  0  0
   20.4031   34.0876   -9.5863 C   0  0  0  0  0  0  0  0  0  0  0  0
   20.1969   31.5774  -10.1009 O   0  0  0  0  0  0  0  0  0  0  0  0
   19.3855   32.6597   -9.6976 S   0  0  1  0  0  0  0  0  0  0  0  0
   19.7635   35.9280  -10.4330 H   0  0  0  0  0  0  0  0  0  0  0  0
   21.0181   35.0538  -11.3755 H   0  0  0  0  0  0  0  0  0  0  0  0
   19.3214   34.4642  -11.3755 H   0  0  0  0  0  0  0  0  0  0  0  0
   19.6049   32.7713   -7.3630 H   0  0  0  0  0  0  0  0  0  0  0  0
   17.8964   32.9099   -7.9001 H   0  0  0  0  0  0  0  0  0  0  0  0
   18.7108   31.3089   -7.9001 H   0  0  0  0  0  0  0  0  0  0  0  0
   21.4633   33.7948   -9.5896 H   0  0  0  0  0  0  0  0  0  0  0  0
   20.2020   34.6357   -8.6540 H   0  0  0  0  0  0  0  0  0  0  0  0
  1  4  1  0
  6  2  1  1
  3  6  2  0
  4  6  1  0
  5  6  2  0
  1  7  1  0
  1  8  1  0
  1  9  1  0
  2 10  1  0
  2 11  1  0
  2 12  1  0
  4 13  1  0
  4 14  1  0
M  END
>  <filename_input>  (6) 
7A9E_R4W_docked.sdf

>  <pdb_id>  (6) 
7A9E_R4W

>  <pose_rank>  (6) 
5

>  <num_atoms_heavy>  (6) 
6

>  <num_torsions>  (6) 
1

>  <pose>  (6) 
[18.850203906970428, 32.38744773209109, -8.065220889513633, -3.319719591542194, 0.5340463176751737, -2.321596611536565, 2.7669454106835607]

>  <energy>  (6) 
-266.1755750865243

>  <inter_energy>  (6) 
-239.51410626928063

>  <intra_energy>  (6) 
0.0

>  <rmsd>  (6) 
3.04538

>  <sdf_rank>  (6) 
0

$$$$

     RDKit          3D

 14 13  0  0  0  0  0  0  0  0999 V2000
   19.8824   33.7372  -10.8577 C   0  0  0  0  0  0  0  0  0  0  0  0
   18.7126   32.2982   -8.1752 C   0  0  0  0  0  0  0  0  0  0  0  0
   21.2015   31.7166   -7.8977 O   0  0  0  0  0  0  0  0  0  0  0  0
   20.5174   32.5378  -10.2491 C   0  0  0  0  0  0  0  0  0  0  0  0
   20.5984   34.0469   -8.1695 O   0  0  0  0  0  0  0  0  0  0  0  0
   20.3739   32.6943   -8.5050 S   0  0  1  0  0  0  0  0  0  0  0  0
   19.5273   34.4079  -10.0615 H   0  0  0  0  0  0  0  0  0  0  0  0
   20.6189   34.2656  -11.4809 H   0  0  0  0  0  0  0  0  0  0  0  0
   19.0314   33.4251  -11.4809 H   0  0  0  0  0  0  0  0  0  0  0  0
   18.5538   32.2603   -7.0874 H   0  0  0  0  0  0  0  0  0  0  0  0
   18.0585   33.0656   -8.6148 H   0  0  0  0  0  0  0  0  0  0  0  0
   18.4751   31.3183   -8.6148 H   0  0  0  0  0  0  0  0  0  0  0  0
   20.0025   31.6269  -10.5883 H   0  0  0  0  0  0  0  0  0  0  0  0
   21.5739   32.4650  -10.5465 H   0  0  0  0  0  0  0  0  0  0  0  0
  1  4  1  0
  6  2  1  6
  3  6  2  0
  4  6  1  0
  5  6  2  0
  1  7  1  0
  1  8  1  0
  1  9  1  0
  2 10  1  0
  2 11  1  0
  2 12  1  0
  4 13  1  0
  4 14  1  0
M  END
>  <filename_input>  (7) 
7A9E_R4W_docked.sdf

>  <pdb_id>  (7) 
7A9E_R4W

>  <pose_rank>  (7) 
6

>  <num_atoms_heavy>  (7) 
6

>  <num_torsions>  (7) 
1

>  <pose>  (7) 
[18.712639505536185, 32.298218478272645, -8.175172363948363, -0.6388431137003042, 1.624957047865139, 1.990934362554734, 12.812145457384618]

>  <energy>  (7) 
-229.4310056039268

>  <inter_energy>  (7) 
-223.59821627368322

>  <intra_energy>  (7) 
0.0

>  <rmsd>  (7) 
2.65387

>  <sdf_rank>  (7) 
0

$$$$

     RDKit          3D

 14 13  0  0  0  0  0  0  0  0999 V2000
   19.5412   33.4662  -10.7934 C   0  0  0  0  0  0  0  0  0  0  0  0
   18.7669   30.4549   -8.3425 C   0  0  0  0  0  0  0  0  0  0  0  0
   20.0225   32.5581   -7.5618 O   0  0  0  0  0  0  0  0  0  0  0  0
   19.9489   32.2046  -10.1193 C   0  0  0  0  0  0  0  0  0  0  0  0
   17.9048   32.8512   -8.7007 O   0  0  0  0  0  0  0  0  0  0  0  0
   19.1189   32.1427   -8.5720 S   0  0  1  0  0  0  0  0  0  0  0  0
   19.2962   34.2245  -10.0351 H   0  0  0  0  0  0  0  0  0  0  0  0
   20.3676   33.8297  -11.4218 H   0  0  0  0  0  0  0  0  0  0  0  0
   18.6584   33.2774  -11.4218 H   0  0  0  0  0  0  0  0  0  0  0  0
   18.7206   30.2331   -7.2661 H   0  0  0  0  0  0  0  0  0  0  0  0
   17.7995   30.2154   -8.8081 H   0  0  0  0  0  0  0  0  0  0  0  0
   19.5579   29.8487   -8.8081 H   0  0  0  0  0  0  0  0  0  0  0  0
   19.6613   31.3396  -10.7349 H   0  0  0  0  0  0  0  0  0  0  0  0
   21.0392   32.1758   -9.9762 H   0  0  0  0  0  0  0  0  0  0  0  0
  1  4  1  0
  6  2  1  1
  3  6  2  0
  4  6  1  0
  5  6  2  0
  1  7  1  0
  1  8  1  0
  1  9  1  0
  2 10  1  0
  2 11  1  0
  2 12  1  0
  4 13  1  0
  4 14  1  0
M  END
>  <filename_input>  (8) 
7A9E_R4W_docked.sdf

>  <pdb_id>  (8) 
7A9E_R4W

>  <pose_rank>  (8) 
7

>  <num_atoms_heavy>  (8) 
6

>  <num_torsions>  (8) 
1

>  <pose>  (8) 
[18.766871717003095, 30.45488357180514, -8.342477706392424, -2.2675550010962424, 1.368645243800763, 2.160996534058124, -11.127323521105584]

>  <energy>  (8) 
-260.45220078355845

>  <inter_energy>  (8) 
-252.06512903655948

>  <intra_energy>  (8) 
0.0

>  <rmsd>  (8) 
2.73365

>  <sdf_rank>  (8) 
0

$$$$

     RDKit          3D

 14 13  0  0  0  0  0  0  0  0999 V2000
   17.9087   31.5736   -8.4562 C   0  0  0  0  0  0  0  0  0  0  0  0
   20.9072   34.0846   -9.4593 C   0  0  0  0  0  0  0  0  0  0  0  0
   20.1884   31.7223  -10.1754 O   0  0  0  0  0  0  0  0  0  0  0  0
   18.7199   32.8160   -8.3537 C   0  0  0  0  0  0  0  0  0  0  0  0
   18.7740   33.5849  -10.8061 O   0  0  0  0  0  0  0  0  0  0  0  0
   19.6216   32.9809   -9.8526 S   0  0  1  0  0  0  0  0  0  0  0  0
   17.6696   31.2074   -7.4468 H   0  0  0  0  0  0  0  0  0  0  0  0
   16.9762   31.7882   -8.9988 H   0  0  0  0  0  0  0  0  0  0  0  0
   18.4803   30.8062   -8.9988 H   0  0  0  0  0  0  0  0  0  0  0  0
   21.0003   34.1645   -8.3662 H   0  0  0  0  0  0  0  0  0  0  0  0
   21.8521   33.7121   -9.8816 H   0  0  0  0  0  0  0  0  0  0  0  0
   20.6821   35.0751   -9.8816 H   0  0  0  0  0  0  0  0  0  0  0  0
   18.0603   33.6851   -8.2143 H   0  0  0  0  0  0  0  0  0  0  0  0
   19.4034   32.7633   -7.4934 H   0  0  0  0  0  0  0  0  0  0  0  0
  1  4  1  0
  6  2  1  1
  3  6  2  0
  4  6  1  0
  5  6  2  0
  1  7  1  0
  1  8  1  0
  1  9  1  0
  2 10  1  0
  2 11  1  0
  2 12  1  0
  4 13  1  0
  4 14  1  0
M  END
>  <filename_input>  (9) 
7A9E_R4W_docked.sdf

>  <pdb_id>  (9) 
7A9E_R4W

>  <pose_rank>  (9) 
8

>  <num_atoms_heavy>  (9) 
6

>  <num_torsions>  (9) 
1

>  <pose>  (9) 
[20.907158511620683, 34.084570149383744, -9.459334289632638, 2.486085401307178, 3.209368711604722, 0.3954793421701087, -10.179970049637337]

>  <energy>  (9) 
-250.19026007946718

>  <inter_energy>  (9) 
-256.37331859015

>  <intra_energy>  (9) 
0.0

>  <rmsd>  (9) 
2.6594

>  <sdf_rank>  (9) 
0

$$$$

     RDKit          3D

 14 13  0  0  0  0  0  0  0  0999 V2000
   17.7722   32.9164   -8.5633 C   0  0  0  0  0  0  0  0  0  0  0  0
   18.8164   30.4139   -8.3805 C   0  0  0  0  0  0  0  0  0  0  0  0
   20.5934   31.0814  -10.1145 O   0  0  0  0  0  0  0  0  0  0  0  0
   19.0407   32.9931   -9.3360 C   0  0  0  0  0  0  0  0  0  0  0  0
   20.8395   31.9112   -7.8520 O   0  0  0  0  0  0  0  0  0  0  0  0
   19.9917   31.5730   -8.9287 S   0  0  1  0  0  0  0  0  0  0  0  0
   17.9973   32.9300   -7.4866 H   0  0  0  0  0  0  0  0  0  0  0  0
   17.1363   33.7777   -8.8158 H   0  0  0  0  0  0  0  0  0  0  0  0
   17.2447   31.9847   -8.8158 H   0  0  0  0  0  0  0  0  0  0  0  0
   18.8014   30.3991   -7.2807 H   0  0  0  0  0  0  0  0  0  0  0  0
   17.8216   30.6942   -8.7570 H   0  0  0  0  0  0  0  0  0  0  0  0
   19.0830   29.4153   -8.7570 H   0  0  0  0  0  0  0  0  0  0  0  0
   18.8238   33.0036  -10.4144 H   0  0  0  0  0  0  0  0  0  0  0  0
   19.5910   33.9128   -9.0884 H   0  0  0  0  0  0  0  0  0  0  0  0
  1  4  1  0
  6  2  1  1
  3  6  2  0
  4  6  1  0
  5  6  2  0
  1  7  1  0
  1  8  1  0
  1  9  1  0
  2 10  1  0
  2 11  1  0
  2 12  1  0
  4 13  1  0
  4 14  1  0
M  END
>  <filename_input>  (10) 
7A9E_R4W_docked.sdf

>  <pdb_id>  (10) 
7A9E_R4W

>  <pose_rank>  (10) 
9

>  <num_atoms_heavy>  (10) 
6

>  <num_torsions>  (10) 
1

>  <pose>  (10) 
[18.81644152527459, 30.41386493876754, -8.380488665248992, -0.6920916605897087, -0.3954900571306308, -3.1959305623821144, 11.891948054435428]

>  <energy>  (10) 
-233.7919112598987

>  <inter_energy>  (10) 
-235.38553337402672

>  <intra_energy>  (10) 
0.0

>  <rmsd>  (10) 
3.07859

>  <sdf_rank>  (10) 
0

$$$$

     RDKit          3D

 14 13  0  0  0  0  0  0  0  0999 V2000
   18.6543   32.9806  -10.2909 C   0  0  0  0  0  0  0  0  0  0  0  0
   20.9423   34.1373   -8.6254 C   0  0  0  0  0  0  0  0  0  0  0  0
   19.9428   31.8932   -7.8672 O   0  0  0  0  0  0  0  0  0  0  0  0
   19.9622   32.2843  -10.4202 C   0  0  0  0  0  0  0  0  0  0  0  0
   22.0745   31.8617   -9.0173 O   0  0  0  0  0  0  0  0  0  0  0  0
   20.7871   32.4230   -8.8752 S   0  0  1  0  0  0  0  0  0  0  0  0
   18.4114   33.1099   -9.2259 H   0  0  0  0  0  0  0  0  0  0  0  0
   18.7141   33.9662  -10.7756 H   0  0  0  0  0  0  0  0  0  0  0  0
   17.8700   32.3806  -10.7756 H   0  0  0  0  0  0  0  0  0  0  0  0
   20.9616   34.3504   -7.5464 H   0  0  0  0  0  0  0  0  0  0  0  0
   21.8762   34.4919   -9.0859 H   0  0  0  0  0  0  0  0  0  0  0  0
   20.0872   34.6538   -9.0859 H   0  0  0  0  0  0  0  0  0  0  0  0
   19.8010   31.2244  -10.6664 H   0  0  0  0  0  0  0  0  0  0  0  0
   20.5639   32.7347  -11.2233 H   0  0  0  0  0  0  0  0  0  0  0  0
  1  4  1  0
  6  2  1  1
  3  6  2  0
  4  6  1  0
  5  6  2  0
  1  7  1  0
  1  8  1  0
  1  9  1  0
  2 10  1  0
  2 11  1  0
  2 12  1  0
  4 13  1  0
  4 14  1  0
M  END
>  <filename_input>  (11) 
7A9E_R4W_docked.sdf

>  <pdb_id>  (11) 
7A9E_R4W

>  <pose_rank>  (11) 
10

>  <num_atoms_heavy>  (11) 
6

>  <num_torsions>  (11) 
1

>  <pose>  (11) 
[20.942298079641663, 34.13732976224124, -8.625400155218347, 0.8345853707428584, 1.5665307155477377, 0.40883713661072973, -2.1233328515320213]

>  <energy>  (11) 
-249.68913312060076

>  <inter_energy>  (11) 
-240.93996680597778

>  <intra_energy>  (11) 
0.0

>  <rmsd>  (11) 
2.4648

>  <sdf_rank>  (11) 
0

$$$$

     RDKit          3D

 14 13  0  0  0  0  0  0  0  0999 V2000
   20.1398   34.7351  -10.3150 C   0  0  0  0  0  0  0  0  0  0  0  0
   21.7593   32.3698   -9.2569 C   0  0  0  0  0  0  0  0  0  0  0  0
   19.5491   32.9170   -8.0632 O   0  0  0  0  0  0  0  0  0  0  0  0
   19.5761   33.3890  -10.6024 C   0  0  0  0  0  0  0  0  0  0  0  0
   19.5883   31.0298   -9.5813 O   0  0  0  0  0  0  0  0  0  0  0  0
   20.0203   32.3365   -9.2676 S   0  0  1  0  0  0  0  0  0  0  0  0
   20.2014   34.8821   -9.2266 H   0  0  0  0  0  0  0  0  0  0  0  0
   21.1459   34.8124  -10.7529 H   0  0  0  0  0  0  0  0  0  0  0  0
   19.4891   35.5063  -10.7529 H   0  0  0  0  0  0  0  0  0  0  0  0
   22.1196   32.3766   -8.2175 H   0  0  0  0  0  0  0  0  0  0  0  0
   22.1463   31.4788   -9.7732 H   0  0  0  0  0  0  0  0  0  0  0  0
   22.1120   33.2748   -9.7732 H   0  0  0  0  0  0  0  0  0  0  0  0
   18.4809   33.4499  -10.6846 H   0  0  0  0  0  0  0  0  0  0  0  0
   19.9697   32.9982  -11.5523 H   0  0  0  0  0  0  0  0  0  0  0  0
  1  4  1  0
  6  2  1  1
  3  6  2  0
  4  6  1  0
  5  6  2  0
  1  7  1  0
  1  8  1  0
  1  9  1  0
  2 10  1  0
  2 11  1  0
  2 12  1  0
  4 13  1  0
  4 14  1  0
M  END
>  <filename_input>  (12) 
7A9E_R4W_docked.sdf

>  <pdb_id>  (12) 
7A9E_R4W

>  <pose_rank>  (12) 
11

>  <num_atoms_heavy>  (12) 
6

>  <num_torsions>  (12) 
1

>  <pose>  (12) 
[21.75934993110268, 32.369755497341906, -9.256875636812987, 1.8135492229126717, 0.8059812056499925, -0.7268729355774356, -2.120907830310279]

>  <energy>  (12) 
-242.39894415341794

>  <inter_energy>  (12) 
-239.01157052914652

>  <intra_energy>  (12) 
0.0

>  <rmsd>  (12) 
2.52944

>  <sdf_rank>  (12) 
0

$$$$

     RDKit          3D

 14 13  0  0  0  0  0  0  0  0999 V2000
   21.2959   31.6848   -9.7349 C   0  0  0  0  0  0  0  0  0  0  0  0
   19.9826   33.8844   -9.0781 C   0  0  0  0  0  0  0  0  0  0  0  0
   17.8602   32.6014   -9.7559 O   0  0  0  0  0  0  0  0  0  0  0  0
   19.9575   31.1414   -9.3804 C   0  0  0  0  0  0  0  0  0  0  0  0
   18.6816   32.3323   -7.4930 O   0  0  0  0  0  0  0  0  0  0  0  0
   18.9597   32.4934   -8.8675 S   0  0  1  0  0  0  0  0  0  0  0  0
   21.8548   31.9117   -8.8150 H   0  0  0  0  0  0  0  0  0  0  0  0
   21.8492   30.9401  -10.3259 H   0  0  0  0  0  0  0  0  0  0  0  0
   21.1735   32.6045  -10.3259 H   0  0  0  0  0  0  0  0  0  0  0  0
   20.2726   34.2787   -8.0930 H   0  0  0  0  0  0  0  0  0  0  0  0
   20.8846   33.5949   -9.6372 H   0  0  0  0  0  0  0  0  0  0  0  0
   19.4375   34.6591   -9.6372 H   0  0  0  0  0  0  0  0  0  0  0  0
   19.5064   30.6524  -10.2564 H   0  0  0  0  0  0  0  0  0  0  0  0
   20.0421   30.3948   -8.5771 H   0  0  0  0  0  0  0  0  0  0  0  0
  1  4  1  0
  6  2  1  1
  3  6  2  0
  4  6  1  0
  5  6  2  0
  1  7  1  0
  1  8  1  0
  1  9  1  0
  2 10  1  0
  2 11  1  0
  2 12  1  0
  4 13  1  0
  4 14  1  0
M  END
>  <filename_input>  (13) 
7A9E_R4W_docked.sdf

>  <pdb_id>  (13) 
7A9E_R4W

>  <pose_rank>  (13) 
12

>  <num_atoms_heavy>  (13) 
6

>  <num_torsions>  (13) 
1

>  <pose>  (13) 
[19.982604899608155, 33.88435950654507, -9.078063949354299, -5.470299301884543, 0.0029692296897952915, -3.0327053351391386, 5.242135717058577]

>  <energy>  (13) 
-222.75477803468067

>  <inter_energy>  (13) 
-218.39200098505455

>  <intra_energy>  (13) 
0.0

>  <rmsd>  (13) 
1.35139

>  <sdf_rank>  (13) 
0

$$$$

     RDKit          3D

 14 13  0  0  0  0  0  0  0  0999 V2000
   22.2760   31.9999   -9.8076 C   0  0  0  0  0  0  0  0  0  0  0  0
   19.4909   31.3505   -7.6881 C   0  0  0  0  0  0  0  0  0  0  0  0
   20.3379   33.5240   -8.7690 O   0  0  0  0  0  0  0  0  0  0  0  0
   20.9542   31.3546  -10.0279 C   0  0  0  0  0  0  0  0  0  0  0  0
   18.5700   32.3061   -9.8909 O   0  0  0  0  0  0  0  0  0  0  0  0
   19.7601   32.2815   -9.1325 S   0  0  1  0  0  0  0  0  0  0  0  0
   22.4637   32.0916   -8.7276 H   0  0  0  0  0  0  0  0  0  0  0  0
   23.0649   31.3857  -10.2661 H   0  0  0  0  0  0  0  0  0  0  0  0
   22.2768   32.9998  -10.2661 H   0  0  0  0  0  0  0  0  0  0  0  0
   19.6734   31.9815   -6.8058 H   0  0  0  0  0  0  0  0  0  0  0  0
   18.4518   30.9901   -7.6726 H   0  0  0  0  0  0  0  0  0  0  0  0
   20.1774   30.4911   -7.6726 H   0  0  0  0  0  0  0  0  0  0  0  0
   20.7074   31.3598  -11.0999 H   0  0  0  0  0  0  0  0  0  0  0  0
   20.9707   30.3094   -9.6854 H   0  0  0  0  0  0  0  0  0  0  0  0
  1  4  1  0
  6  2  1  1
  3  6  2  0
  4  6  1  0
  5  6  2  0
  1  7  1  0
  1  8  1  0
  1  9  1  0
  2 10  1  0
  2 11  1  0
  2 12  1  0
  4 13  1  0
  4 14  1  0
M  END
>  <filename_input>  (14) 
7A9E_R4W_docked.sdf

>  <pdb_id>  (14) 
7A9E_R4W

>  <pose_rank>  (14) 
13

>  <num_atoms_heavy>  (14) 
6

>  <num_torsions>  (14) 
1

>  <pose>  (14) 
[19.490938496442695, 31.350504727742734, -7.688108459415684, 1.5570841846600827, -1.4470432701970048, -0.7633013081474785, -2.8436722878423786]

>  <energy>  (14) 
-252.2067554938675

>  <inter_energy>  (14) 
-253.6633868006723

>  <intra_energy>  (14) 
0.0

>  <rmsd>  (14) 
1.7597

>  <sdf_rank>  (14) 
0

$$$$

     RDKit          3D

 14 13  0  0  0  0  0  0  0  0999 V2000
   21.8137   30.9575  -10.1854 C   0  0  0  0  0  0  0  0  0  0  0  0
   19.5191   32.5033   -8.0389 C   0  0  0  0  0  0  0  0  0  0  0  0
   21.5717   33.4708   -9.2476 O   0  0  0  0  0  0  0  0  0  0  0  0
   20.4392   31.4717  -10.4274 C   0  0  0  0  0  0  0  0  0  0  0  0
   19.3926   33.8129  -10.2487 O   0  0  0  0  0  0  0  0  0  0  0  0
   20.2746   32.9749   -9.5330 S   0  0  1  0  0  0  0  0  0  0  0  0
   21.9944   30.8898   -9.1025 H   0  0  0  0  0  0  0  0  0  0  0  0
   21.9168   29.9599  -10.6374 H   0  0  0  0  0  0  0  0  0  0  0  0
   22.5462   31.6423  -10.6374 H   0  0  0  0  0  0  0  0  0  0  0  0
   20.1155   32.8756   -7.1930 H   0  0  0  0  0  0  0  0  0  0  0  0
   18.5064   32.9300   -7.9895 H   0  0  0  0  0  0  0  0  0  0  0  0
   19.4575   31.4062   -7.9895 H   0  0  0  0  0  0  0  0  0  0  0  0
   20.2903   31.6553  -11.5017 H   0  0  0  0  0  0  0  0  0  0  0  0
   19.6873   30.7396  -10.0977 H   0  0  0  0  0  0  0  0  0  0  0  0
  1  4  1  0
  6  2  1  1
  3  6  2  0
  4  6  1  0
  5  6  2  0
  1  7  1  0
  1  8  1  0
  1  9  1  0
  2 10  1  0
  2 11  1  0
  2 12  1  0
  4 13  1  0
  4 14  1  0
M  END
>  <filename_input>  (15) 
7A9E_R4W_docked.sdf

>  <pdb_id>  (15) 
7A9E_R4W

>  <pose_rank>  (15) 
14

>  <num_atoms_heavy>  (15) 
6

>  <num_torsions>  (15) 
1

>  <pose>  (15) 
[19.51909882457029, 32.50333806018661, -8.038933954425989, 3.2098639440787053, -7.061737460661515, -4.1642841202050835, 3.5257281995382486]

>  <energy>  (15) 
-214.3977534305178

>  <inter_energy>  (15) 
-210.88942896074627

>  <intra_energy>  (15) 
0.0

>  <rmsd>  (15) 
1.88892

>  <sdf_rank>  (15) 
0

$$$$

     RDKit          3D

 14 13  0  0  0  0  0  0  0  0999 V2000
   22.1823   31.3013   -9.3201 C   0  0  0  0  0  0  0  0  0  0  0  0
   19.9274   32.7415  -10.8558 C   0  0  0  0  0  0  0  0  0  0  0  0
   19.4030   30.4786   -9.7539 O   0  0  0  0  0  0  0  0  0  0  0  0
   21.1210   31.9431   -8.4992 C   0  0  0  0  0  0  0  0  0  0  0  0
   18.6143   32.4901   -8.6589 O   0  0  0  0  0  0  0  0  0  0  0  0
   19.6187   31.8352   -9.4036 S   0  0  1  0  0  0  0  0  0  0  0  0
   22.9338   30.8468   -8.6576 H   0  0  0  0  0  0  0  0  0  0  0  0
   21.7343   30.5226   -9.9549 H   0  0  0  0  0  0  0  0  0  0  0  0
   22.6638   32.0597   -9.9549 H   0  0  0  0  0  0  0  0  0  0  0  0
   20.2717   33.7521  -10.5910 H   0  0  0  0  0  0  0  0  0  0  0  0
   20.7030   32.2331  -11.4473 H   0  0  0  0  0  0  0  0  0  0  0  0
   19.0027   32.8123  -11.4473 H   0  0  0  0  0  0  0  0  0  0  0  0
   21.0198   31.4175   -7.5382 H   0  0  0  0  0  0  0  0  0  0  0  0
   21.3737   32.9931   -8.2903 H   0  0  0  0  0  0  0  0  0  0  0  0
  1  4  1  0
  6  2  1  6
  3  6  2  0
  4  6  1  0
  5  6  2  0
  1  7  1  0
  1  8  1  0
  1  9  1  0
  2 10  1  0
  2 11  1  0
  2 12  1  0
  4 13  1  0
  4 14  1  0
M  END
>  <filename_input>  (16) 
7A9E_R4W_docked.sdf

>  <pdb_id>  (16) 
7A9E_R4W

>  <pose_rank>  (16) 
15

>  <num_atoms_heavy>  (16) 
6

>  <num_torsions>  (16) 
1

>  <pose>  (16) 
[19.927391536074467, 32.74147276519132, -10.855766431062772, 13.5728675940625, 4.513100670611134, -9.982042420839893, 4.119092870296983]

>  <energy>  (16) 
-206.72411566373052

>  <inter_energy>  (16) 
-204.78816605390472

>  <intra_energy>  (16) 
0.0

>  <rmsd>  (16) 
1.66415

>  <sdf_rank>  (16) 
0

$$$$

     RDKit          3D

 14 13  0  0  0  0  0  0  0  0999 V2000
   20.0980   33.9593  -11.4421 C   0  0  0  0  0  0  0  0  0  0  0  0
   19.5645   30.8979   -8.8992 C   0  0  0  0  0  0  0  0  0  0  0  0
   21.5694   31.9769  -10.0933 O   0  0  0  0  0  0  0  0  0  0  0  0
   19.2865   33.0995  -10.5397 C   0  0  0  0  0  0  0  0  0  0  0  0
   20.5215   33.2052   -8.2876 O   0  0  0  0  0  0  0  0  0  0  0  0
   20.3896   32.3452   -9.3991 S   0  0  1  0  0  0  0  0  0  0  0  0
   20.7300   34.6289  -10.8402 H   0  0  0  0  0  0  0  0  0  0  0  0
   20.7353   33.3260  -12.0768 H   0  0  0  0  0  0  0  0  0  0  0  0
   19.4290   34.5589  -12.0768 H   0  0  0  0  0  0  0  0  0  0  0  0
   19.5382   30.8517   -7.8005 H   0  0  0  0  0  0  0  0  0  0  0  0
   18.5365   30.9081   -9.2905 H   0  0  0  0  0  0  0  0  0  0  0  0
   20.0971   30.0185   -9.2905 H   0  0  0  0  0  0  0  0  0  0  0  0
   18.5488   33.7117  -10.0003 H   0  0  0  0  0  0  0  0  0  0  0  0
   18.7427   32.3366  -11.1160 H   0  0  0  0  0  0  0  0  0  0  0  0
  1  4  1  0
  6  2  1  1
  3  6  2  0
  4  6  1  0
  5  6  2  0
  1  7  1  0
  1  8  1  0
  1  9  1  0
  2 10  1  0
  2 11  1  0
  2 12  1  0
  4 13  1  0
  4 14  1  0
M  END
>  <filename_input>  (17) 
7A9E_R4W_docked.sdf

>  <pdb_id>  (17) 
7A9E_R4W

>  <pose_rank>  (17) 
16

>  <num_atoms_heavy>  (17) 
6

>  <num_torsions>  (17) 
1

>  <pose>  (17) 
[19.56452778198259, 30.897885525055138, -8.899177230866574, 0.080710378008942, -0.813315619347165, -2.87500699096679, -3.7960186064179564]

>  <energy>  (17) 
-234.9693890035719

>  <inter_energy>  (17) 
-231.09058921439845

>  <intra_energy>  (17) 
0.0

>  <rmsd>  (17) 
2.95841

>  <sdf_rank>  (17) 
0

$$$$

     RDKit          3D

 14 13  0  0  0  0  0  0  0  0999 V2000
   17.7983   33.5822  -10.3484 C   0  0  0  0  0  0  0  0  0  0  0  0
   20.9770   31.5439   -8.9491 C   0  0  0  0  0  0  0  0  0  0  0  0
   20.5953   33.8672   -9.9815 O   0  0  0  0  0  0  0  0  0  0  0  0
   18.4775   32.4094   -9.7357 C   0  0  0  0  0  0  0  0  0  0  0  0
   19.7380   33.4544   -7.7539 O   0  0  0  0  0  0  0  0  0  0  0  0
   19.9956   32.9759   -9.0566 S   0  0  1  0  0  0  0  0  0  0  0  0
   17.4168   34.2411   -9.5545 H   0  0  0  0  0  0  0  0  0  0  0  0
   18.5152   34.1366  -10.9720 H   0  0  0  0  0  0  0  0  0  0  0  0
   16.9607   33.2364  -10.9720 H   0  0  0  0  0  0  0  0  0  0  0  0
   21.1476   31.2949   -7.8913 H   0  0  0  0  0  0  0  0  0  0  0  0
   20.4612   30.7078   -9.4439 H   0  0  0  0  0  0  0  0  0  0  0  0
   21.9429   31.7233   -9.4439 H   0  0  0  0  0  0  0  0  0  0  0  0
   17.8469   31.9822   -8.9420 H   0  0  0  0  0  0  0  0  0  0  0  0
   18.6568   31.6277  -10.4886 H   0  0  0  0  0  0  0  0  0  0  0  0
  1  4  1  0
  6  2  1  1
  3  6  2  0
  4  6  1  0
  5  6  2  0
  1  7  1  0
  1  8  1  0
  1  9  1  0
  2 10  1  0
  2 11  1  0
  2 12  1  0
  4 13  1  0
  4 14  1  0
M  END
>  <filename_input>  (18) 
7A9E_R4W_docked.sdf

>  <pdb_id>  (18) 
7A9E_R4W

>  <pose_rank>  (18) 
17

>  <num_atoms_heavy>  (18) 
6

>  <num_torsions>  (18) 
1

>  <pose>  (18) 
[20.97700772207534, 31.543851531729846, -8.949057264609468, 0.07347823986867448, -0.23872564442440422, -1.8853606043055493, -3.8456846572372085]

>  <energy>  (18) 
-236.18436325203487

>  <inter_energy>  (18) 
-237.32063200272992

>  <intra_energy>  (18) 
0.0

>  <rmsd>  (18) 
2.93923

>  <sdf_rank>  (18) 
0

$$$$

     RDKit          3D

 14 13  0  0  0  0  0  0  0  0999 V2000
   19.6828   32.8526  -10.6631 C   0  0  0  0  0  0  0  0  0  0  0  0
   19.6315   31.9741   -6.9058 C   0  0  0  0  0  0  0  0  0  0  0  0
   19.9728   34.0988   -8.3126 O   0  0  0  0  0  0  0  0  0  0  0  0
   19.0059   32.0740   -9.5917 C   0  0  0  0  0  0  0  0  0  0  0  0
   17.7034   33.4082   -7.8220 O   0  0  0  0  0  0  0  0  0  0  0  0
   19.0335   33.0523   -8.1327 S   0  0  1  0  0  0  0  0  0  0  0  0
   20.3399   33.6082  -10.2078 H   0  0  0  0  0  0  0  0  0  0  0  0
   20.2824   32.1733  -11.2869 H   0  0  0  0  0  0  0  0  0  0  0  0
   18.9269   33.3520  -11.2869 H   0  0  0  0  0  0  0  0  0  0  0  0
   19.4028   32.3865   -5.9120 H   0  0  0  0  0  0  0  0  0  0  0  0
   19.1496   30.9913   -7.0147 H   0  0  0  0  0  0  0  0  0  0  0  0
   20.7204   31.8626   -7.0147 H   0  0  0  0  0  0  0  0  0  0  0  0
   17.9664   31.8608   -9.8817 H   0  0  0  0  0  0  0  0  0  0  0  0
   19.5187   31.1151   -9.4258 H   0  0  0  0  0  0  0  0  0  0  0  0
  1  4  1  0
  6  2  1  1
  3  6  2  0
  4  6  1  0
  5  6  2  0
  1  7  1  0
  1  8  1  0
  1  9  1  0
  2 10  1  0
  2 11  1  0
  2 12  1  0
  4 13  1  0
  4 14  1  0
M  END
>  <filename_input>  (19) 
7A9E_R4W_docked.sdf

>  <pdb_id>  (19) 
7A9E_R4W

>  <pose_rank>  (19) 
18

>  <num_atoms_heavy>  (19) 
6

>  <num_torsions>  (19) 
1

>  <pose>  (19) 
[19.63154934628954, 31.97409698633233, -6.905801670677681, 0.9526566877852396, -1.0076959619546804, -1.3894549611365634, -3.3648143487427435]

>  <energy>  (19) 
-209.2282266238507

>  <inter_energy>  (19) 
-206.86064898650702

>  <intra_energy>  (19) 
0.0

>  <rmsd>  (19) 
2.73391

>  <sdf_rank>  (19) 
0

$$$$

     RDKit          3D

 14 13  0  0  0  0  0  0  0  0999 V2000
   24.7096   30.6492  -17.3025 C   0  0  0  0  0  0  0  0  0  0  0  0
   27.0539   31.4733  -14.3194 C   0  0  0  0  0  0  0  0  0  0  0  0
   25.8999   32.7912  -16.2012 O   0  0  0  0  0  0  0  0  0  0  0  0
   25.0731   30.3643  -15.8887 C   0  0  0  0  0  0  0  0  0  0  0  0
   24.6088   32.2644  -14.2205 O   0  0  0  0  0  0  0  0  0  0  0  0
   25.5873   31.8791  -15.1620 S   0  0  1  0  0  0  0  0  0  0  0  0
   23.8440   31.3276  -17.3290 H   0  0  0  0  0  0  0  0  0  0  0  0
   25.5619   31.1223  -17.8120 H   0  0  0  0  0  0  0  0  0  0  0  0
   24.4539   29.7085  -17.8120 H   0  0  0  0  0  0  0  0  0  0  0  0
   26.8788   31.5217  -13.2345 H   0  0  0  0  0  0  0  0  0  0  0  0
   27.3656   30.4551  -14.5954 H   0  0  0  0  0  0  0  0  0  0  0  0
   27.8446   32.1864  -14.5954 H   0  0  0  0  0  0  0  0  0  0  0  0
   24.2012   29.9657  -15.3494 H   0  0  0  0  0  0  0  0  0  0  0  0
   25.8783   29.6166  -15.8381 H   0  0  0  0  0  0  0  0  0  0  0  0
  1  4  1  0
  6  2  1  1
  3  6  2  0
  4  6  1  0
  5  6  2  0
  1  7  1  0
  1  8  1  0
  1  9  1  0
  2 10  1  0
  2 11  1  0
  2 12  1  0
  4 13  1  0
  4 14  1  0
M  END
>  <filename_input>  (20) 
7A9E_R4W_docked.sdf

>  <pdb_id>  (20) 
7A9E_R4W

>  <pose_rank>  (20) 
19

>  <num_atoms_heavy>  (20) 
6

>  <num_torsions>  (20) 
1

>  <pose>  (20) 
[27.053853790651036, 31.473297864272308, -14.319381705833864, -0.9215178701262866, 2.3778315356541073, 4.244059753128759, -3.4161263128540993]

>  <energy>  (20) 
-123.06616877407836

>  <inter_energy>  (20) 
-106.80684136699061

>  <intra_energy>  (20) 
0.0

>  <rmsd>  (20) 
8.52608

>  <sdf_rank>  (20) 
0

$$$$

     RDKit          3D

 14 13  0  0  0  0  0  0  0  0999 V2000
   26.5442   29.0192  -13.9949 C   0  0  0  0  0  0  0  0  0  0  0  0
   27.7420   31.5758  -15.9875 C   0  0  0  0  0  0  0  0  0  0  0  0
   25.9520   31.6606  -14.1440 O   0  0  0  0  0  0  0  0  0  0  0  0
   27.7675   29.8497  -13.8344 C   0  0  0  0  0  0  0  0  0  0  0  0
   28.1992   32.3717  -13.5851 O   0  0  0  0  0  0  0  0  0  0  0  0
   27.3517   31.4936  -14.2944 S   0  0  1  0  0  0  0  0  0  0  0  0
   26.1500   28.7516  -13.0035 H   0  0  0  0  0  0  0  0  0  0  0  0
   25.7844   29.5890  -14.5500 H   0  0  0  0  0  0  0  0  0  0  0  0
   26.7934   28.1028  -14.5500 H   0  0  0  0  0  0  0  0  0  0  0  0
   28.8121   31.8012  -16.1065 H   0  0  0  0  0  0  0  0  0  0  0  0
   27.5156   30.6102  -16.4633 H   0  0  0  0  0  0  0  0  0  0  0  0
   27.1453   32.3679  -16.4633 H   0  0  0  0  0  0  0  0  0  0  0  0
   28.1031   29.8260  -12.7871 H   0  0  0  0  0  0  0  0  0  0  0  0
   28.5832   29.4650  -14.4642 H   0  0  0  0  0  0  0  0  0  0  0  0
  1  4  1  0
  6  2  1  6
  3  6  2  0
  4  6  1  0
  5  6  2  0
  1  7  1  0
  1  8  1  0
  1  9  1  0
  2 10  1  0
  2 11  1  0
  2 12  1  0
  4 13  1  0
  4 14  1  0
M  END
>  <filename_input>  (21) 
7A9E_R4W_docked.sdf

>  <pdb_id>  (21) 
7A9E_R4W

>  <pose_rank>  (21) 
20

>  <num_atoms_heavy>  (21) 
6

>  <num_torsions>  (21) 
1

>  <pose>  (21) 
[27.742048767093262, 31.575784778104172, -15.987453820222253, 3.620078794460618, -3.239436234335913, 1.2539918944083546, -2.690222578310656]

>  <energy>  (21) 
-119.9284158816913

>  <inter_energy>  (21) 
-108.09824286704979

>  <intra_energy>  (21) 
0.0

>  <rmsd>  (21) 
8.83755

>  <sdf_rank>  (21) 
0

$$$$

     RDKit          3D

 14 13  0  0  0  0  0  0  0  0999 V2000
   25.3133   31.5706  -15.9470 C   0  0  0  0  0  0  0  0  0  0  0  0
   29.1626   31.3114  -14.7941 C   0  0  0  0  0  0  0  0  0  0  0  0
   27.0741   32.5547  -13.9561 O   0  0  0  0  0  0  0  0  0  0  0  0
   26.7129   31.0765  -16.0430 C   0  0  0  0  0  0  0  0  0  0  0  0
   27.1537   30.1488  -13.6864 O   0  0  0  0  0  0  0  0  0  0  0  0
   27.4549   31.2874  -14.4645 S   0  0  1  0  0  0  0  0  0  0  0  0
   25.0314   31.6702  -14.8885 H   0  0  0  0  0  0  0  0  0  0  0  0
   25.2358   32.5505  -16.4408 H   0  0  0  0  0  0  0  0  0  0  0  0
   24.6378   30.8567  -16.4408 H   0  0  0  0  0  0  0  0  0  0  0  0
   29.7190   31.3192  -13.8453 H   0  0  0  0  0  0  0  0  0  0  0  0
   29.4369   30.4170  -15.3727 H   0  0  0  0  0  0  0  0  0  0  0  0
   29.4117   32.2131  -15.3727 H   0  0  0  0  0  0  0  0  0  0  0  0
   26.7175   30.0123  -16.3214 H   0  0  0  0  0  0  0  0  0  0  0  0
   27.2694   31.6338  -16.8110 H   0  0  0  0  0  0  0  0  0  0  0  0
  1  4  1  0
  6  2  1  6
  3  6  2  0
  4  6  1  0
  5  6  2  0
  1  7  1  0
  1  8  1  0
  1  9  1  0
  2 10  1  0
  2 11  1  0
  2 12  1  0
  4 13  1  0
  4 14  1  0
M  END
>  <filename_input>  (22) 
7A9E_R4W_docked.sdf

>  <pdb_id>  (22) 
7A9E_R4W

>  <pose_rank>  (22) 
21

>  <num_atoms_heavy>  (22) 
6

>  <num_torsions>  (22) 
1

>  <pose>  (22) 
[29.162554689463576, 31.311392432520112, -14.794082607206105, -3.1611296175201278, -1.7559519641295047, 3.0837014283246633, 2.439869355765968]

>  <energy>  (22) 
-116.78693355449289

>  <inter_energy>  (22) 
-103.72236404798231

>  <intra_energy>  (22) 
0.0

>  <rmsd>  (22) 
9.19269

>  <sdf_rank>  (22) 
0

$$$$

     RDKit          3D

 14 13  0  0  0  0  0  0  0  0999 V2000
   12.3058   38.8483  -17.6785 C   0  0  0  0  0  0  0  0  0  0  0  0
   14.6145   41.2415  -15.8675 C   0  0  0  0  0  0  0  0  0  0  0  0
   12.0692   40.9974  -16.1349 O   0  0  0  0  0  0  0  0  0  0  0  0
   13.4458   38.8930  -16.7243 C   0  0  0  0  0  0  0  0  0  0  0  0
   13.1477   39.7893  -14.3334 O   0  0  0  0  0  0  0  0  0  0  0  0
   13.1883   40.2676  -15.6609 S   0  0  1  0  0  0  0  0  0  0  0  0
   11.3599   38.8111  -17.1183 H   0  0  0  0  0  0  0  0  0  0  0  0
   12.3219   39.7477  -18.3115 H   0  0  0  0  0  0  0  0  0  0  0  0
   12.3924   37.9528  -18.3115 H   0  0  0  0  0  0  0  0  0  0  0  0
   15.0169   41.5163  -14.8813 H   0  0  0  0  0  0  0  0  0  0  0  0
   15.3708   40.6704  -16.4259 H   0  0  0  0  0  0  0  0  0  0  0  0
   14.3578   42.1538  -16.4259 H   0  0  0  0  0  0  0  0  0  0  0  0
   13.4803   37.9641  -16.1362 H   0  0  0  0  0  0  0  0  0  0  0  0
   14.3994   38.9927  -17.2634 H   0  0  0  0  0  0  0  0  0  0  0  0
  1  4  1  0
  6  2  1  1
  3  6  2  0
  4  6  1  0
  5  6  2  0
  1  7  1  0
  1  8  1  0
  1  9  1  0
  2 10  1  0
  2 11  1  0
  2 12  1  0
  4 13  1  0
  4 14  1  0
M  END
>  <filename_input>  (23) 
7A9E_R4W_docked.sdf

>  <pdb_id>  (23) 
7A9E_R4W

>  <pose_rank>  (23) 
22

>  <num_atoms_heavy>  (23) 
6

>  <num_torsions>  (23) 
1

>  <pose>  (23) 
[14.614525983338963, 41.24153596497321, -15.86746807731573, -3.194928861972167, -2.712064605706227, 3.9280946363006204, 3.0623942127642234]

>  <energy>  (23) 
-109.95043838548177

>  <inter_energy>  (23) 
-58.42476921469264

>  <intra_energy>  (23) 
0.0

>  <rmsd>  (23) 
13.1744

>  <sdf_rank>  (23) 
0

$$$$

     RDKit          3D

 14 13  0  0  0  0  0  0  0  0999 V2000
   27.0473   30.7419  -14.0199 C   0  0  0  0  0  0  0  0  0  0  0  0
   28.0497   32.3173  -16.2608 C   0  0  0  0  0  0  0  0  0  0  0  0
   25.4841   32.1516  -16.2619 O   0  0  0  0  0  0  0  0  0  0  0  0
   26.5872   32.1532  -13.9264 C   0  0  0  0  0  0  0  0  0  0  0  0
   26.4938   34.2063  -15.4706 O   0  0  0  0  0  0  0  0  0  0  0  0
   26.5323   32.7981  -15.5597 S   0  0  1  0  0  0  0  0  0  0  0  0
   27.1809   30.3320  -13.0079 H   0  0  0  0  0  0  0  0  0  0  0  0
   26.2967   30.1466  -14.5605 H   0  0  0  0  0  0  0  0  0  0  0  0
   28.0045   30.7034  -14.5605 H   0  0  0  0  0  0  0  0  0  0  0  0
   28.7681   32.0896  -15.4595 H   0  0  0  0  0  0  0  0  0  0  0  0
   27.8991   31.4229  -16.8832 H   0  0  0  0  0  0  0  0  0  0  0  0
   28.4417   33.1352  -16.8832 H   0  0  0  0  0  0  0  0  0  0  0  0
   25.5858   32.1928  -13.4728 H   0  0  0  0  0  0  0  0  0  0  0  0
   27.2710   32.7436  -13.2988 H   0  0  0  0  0  0  0  0  0  0  0  0
  1  4  1  0
  6  2  1  6
  3  6  2  0
  4  6  1  0
  5  6  2  0
  1  7  1  0
  1  8  1  0
  1  9  1  0
  2 10  1  0
  2 11  1  0
  2 12  1  0
  4 13  1  0
  4 14  1  0
M  END
>  <filename_input>  (24) 
7A9E_R4W_docked.sdf

>  <pdb_id>  (24) 
7A9E_R4W

>  <pose_rank>  (24) 
23

>  <num_atoms_heavy>  (24) 
6

>  <num_torsions>  (24) 
1

>  <pose>  (24) 
[28.049742704130278, 32.31728157801674, -16.260840998857468, 4.314266562482215, 0.7028502326077384, 1.6435122524176409, -1.9041225931367998]

>  <energy>  (24) 
-102.07999015806614

>  <inter_energy>  (24) 
-83.30886373518084

>  <intra_energy>  (24) 
0.0

>  <rmsd>  (24) 
9.00695

>  <sdf_rank>  (24) 
0

$$$$

     RDKit          3D

 14 13  0  0  0  0  0  0  0  0999 V2000
   18.6641   32.2685  -18.7697 C   0  0  0  0  0  0  0  0  0  0  0  0
   18.5349   35.9339  -18.1566 C   0  0  0  0  0  0  0  0  0  0  0  0
   16.9326   33.9738  -17.7092 O   0  0  0  0  0  0  0  0  0  0  0  0
   19.4108   33.3201  -18.0288 C   0  0  0  0  0  0  0  0  0  0  0  0
   18.5115   34.5750  -15.9733 O   0  0  0  0  0  0  0  0  0  0  0  0
   18.2269   34.4252  -17.3478 S   0  0  1  0  0  0  0  0  0  0  0  0
   18.1810   31.5881  -18.0531 H   0  0  0  0  0  0  0  0  0  0  0  0
   17.8973   32.7399  -19.4020 H   0  0  0  0  0  0  0  0  0  0  0  0
   19.3619   31.6999  -19.4020 H   0  0  0  0  0  0  0  0  0  0  0  0
   18.6963   36.7245  -17.4089 H   0  0  0  0  0  0  0  0  0  0  0  0
   19.4316   35.8361  -18.7862 H   0  0  0  0  0  0  0  0  0  0  0  0
   17.6716   36.1954  -18.7862 H   0  0  0  0  0  0  0  0  0  0  0  0
   20.0048   32.8628  -17.2238 H   0  0  0  0  0  0  0  0  0  0  0  0
   20.0986   33.8541  -18.7009 H   0  0  0  0  0  0  0  0  0  0  0  0
  1  4  1  0
  6  2  1  6
  3  6  2  0
  4  6  1  0
  5  6  2  0
  1  7  1  0
  1  8  1  0
  1  9  1  0
  2 10  1  0
  2 11  1  0
  2 12  1  0
  4 13  1  0
  4 14  1  0
M  END
>  <filename_input>  (25) 
7A9E_R4W_docked.sdf

>  <pdb_id>  (25) 
7A9E_R4W

>  <pose_rank>  (25) 
24

>  <num_atoms_heavy>  (25) 
6

>  <num_torsions>  (25) 
1

>  <pose>  (25) 
[18.534936956911693, 35.93393379820061, -18.15658265347736, -0.19231683151856366, 0.4026106815436905, 0.3487070690343805, -3.098926545668492]

>  <energy>  (25) 
-81.8835686863771

>  <inter_energy>  (25) 
-73.93272126560919

>  <intra_energy>  (25) 
0.0

>  <rmsd>  (25) 
9.41741

>  <sdf_rank>  (25) 
0

$$$$

     RDKit          3D

 14 13  0  0  0  0  0  0  0  0999 V2000
   22.3360   30.9540   -8.4030 C   0  0  0  0  0  0  0  0  0  0  0  0
   21.2260   33.7550   -9.0820 C   0  0  0  0  0  0  0  0  0  0  0  0
   19.0860   32.4850   -9.7280 O   0  0  0  0  0  0  0  0  0  0  0  0
   21.1630   31.0060   -9.3160 C   0  0  0  0  0  0  0  0  0  0  0  0
   19.9040   32.2610   -7.4590 O   0  0  0  0  0  0  0  0  0  0  0  0
   20.1840   32.3840   -8.8370 S   0  0  1  0  0  0  0  0  0  0  0  0
   21.9892   30.9694   -7.3592 H   0  0  0  0  0  0  0  0  0  0  0  0
   22.9034   30.0298   -8.5873 H   0  0  0  0  0  0  0  0  0  0  0  0
   22.9829   31.8243   -8.5873 H   0  0  0  0  0  0  0  0  0  0  0  0
   21.5340   34.1603   -8.1069 H   0  0  0  0  0  0  0  0  0  0  0  0
   22.1165   33.4424   -9.6470 H   0  0  0  0  0  0  0  0  0  0  0  0
   20.6864   34.5293   -9.6470 H   0  0  0  0  0  0  0  0  0  0  0  0
   21.5010   31.1283  -10.3556 H   0  0  0  0  0  0  0  0  0  0  0  0
   20.5803   30.0752   -9.2526 H   0  0  0  0  0  0  0  0  0  0  0  0
  1  4  1  0
  6  2  1  1
  3  6  2  0
  4  6  1  0
  5  6  2  0
  1  7  1  0
  1  8  1  0
  1  9  1  0
  2 10  1  0
  2 11  1  0
  2 12  1  0
  4 13  1  0
  4 14  1  0
M  END
>  <filename_input>  (26) 
7A9E_R4W_docked.sdf

>  <pdb_id>  (26) 
7A9E_R4W

>  <pose_rank>  (26) 
25

>  <num_atoms_heavy>  (26) 
6

>  <num_torsions>  (26) 
1

>  <pose>  (26) 
[21.226, 33.755, -9.082, 1e-06, 1e-06, 1e-06, 0.0]

>  <energy>  (26) 
-218.50463647156593

>  <inter_energy>  (26) 
-216.49157170768189

>  <intra_energy>  (26) 
0.0

>  <rmsd>  (26) 
0.0

>  <sdf_rank>  (26) 
0

$$$$
