
     RDKit          3D

 42 43  0  0  0  0  0  0  0  0999 V2000
   -1.0338    8.3946  -23.8494 N   0  0  0  0  0  0  0  0  0  0  0  0
    0.0130    7.7570  -24.4060 C   0  0  0  0  0  0  0  0  0  0  0  0
   -0.2406    6.4849  -25.1536 C   0  0  0  0  0  0  0  0  0  0  0  0
    1.2829    8.1567  -24.2922 N   0  0  0  0  0  0  0  0  0  0  0  0
    1.5170    9.3043  -23.6125 C   0  0  0  0  0  0  0  0  0  0  0  0
    2.7948    9.7204  -23.5548 N   0  0  0  0  0  0  0  0  0  0  0  0
    0.4860   10.0227  -22.9560 C   0  0  0  0  0  0  0  0  0  0  0  0
   -0.7842    9.5247  -23.1638 C   0  0  0  0  0  0  0  0  0  0  0  0
    0.7410   11.3245  -22.1869 C   0  0  0  0  0  0  0  0  0  0  0  0
    1.2892   11.1476  -20.8140 N   0  0  0  0  0  0  0  0  0  0  0  0
    2.5711   11.3903  -20.5209 C   0  0  0  0  0  0  0  0  0  0  0  0
    2.9356   11.0640  -18.8819 S   0  0  0  0  0  0  0  0  0  0  0  0
    1.2596   10.7877  -18.5480 C   0  0  0  0  0  0  0  0  0  0  0  0
    0.5189   10.8294  -19.6931 C   0  0  0  0  0  0  0  0  0  0  0  0
   -0.9611   10.6407  -19.8010 C   0  0  0  0  0  0  0  0  0  0  0  0
    0.7632   10.5916  -17.1352 C   0  0  0  0  0  0  0  0  0  0  0  0
    1.1800    9.3162  -16.4215 C   0  0  0  0  0  0  0  0  0  0  0  0
    2.5786    9.0670  -16.6679 O   0  0  0  0  0  0  0  0  0  0  0  0
    3.5318    8.3428  -15.5982 P   0  0  2  0  0  0  0  0  0  0  0  0
    4.1617    7.2477  -16.4008 O   0  0  0  0  0  0  0  0  0  0  0  0
    2.7374    7.9453  -14.3951 O   0  0  0  0  0  0  0  0  0  0  0  0
    4.6180    9.4651  -15.2407 O   0  0  0  0  0  0  0  0  0  0  0  0
    5.8354    9.5001  -14.1314 P   0  0  1  0  0  0  0  0  0  0  0  0
    6.2818   10.9119  -14.0446 O   0  0  0  0  0  0  0  0  0  0  0  0
    5.1953    8.9946  -12.8328 O   0  0  0  0  0  0  0  0  0  0  0  0
    6.8886    8.5505  -14.6995 O   0  0  0  0  0  0  0  0  0  0  0  0
   -0.4039    5.6654  -24.4382 H   0  0  0  0  0  0  0  0  0  0  0  0
   -1.1329    6.6028  -25.7860 H   0  0  0  0  0  0  0  0  0  0  0  0
    0.6287    6.2517  -25.7860 H   0  0  0  0  0  0  0  0  0  0  0  0
    3.0320   10.5870  -23.0511 H   0  0  0  0  0  0  0  0  0  0  0  0
    3.5361    9.1724  -24.0142 H   0  0  0  0  0  0  0  0  0  0  0  0
   -1.6369   10.0808  -22.7471 H   0  0  0  0  0  0  0  0  0  0  0  0
    1.4566   11.9277  -22.7649 H   0  0  0  0  0  0  0  0  0  0  0  0
   -0.2400   11.8073  -22.0661 H   0  0  0  0  0  0  0  0  0  0  0  0
    3.3074   11.7581  -21.2508 H   0  0  0  0  0  0  0  0  0  0  0  0
   -1.3980   10.5850  -18.7930 H   0  0  0  0  0  0  0  0  0  0  0  0
   -1.4004   11.4901  -20.3446 H   0  0  0  0  0  0  0  0  0  0  0  0
   -1.1732    9.7083  -20.3446 H   0  0  0  0  0  0  0  0  0  0  0  0
    1.1270   11.4396  -16.5364 H   0  0  0  0  0  0  0  0  0  0  0  0
   -0.3306   10.5196  -17.2273 H   0  0  0  0  0  0  0  0  0  0  0  0
    1.0117    9.4286  -15.3402 H   0  0  0  0  0  0  0  0  0  0  0  0
    0.5836    8.4720  -16.7977 H   0  0  0  0  0  0  0  0  0  0  0  0
  1  2  2  0
  1  8  1  0
  2  3  1  0
  2  4  1  0
  4  5  2  0
  5  6  1  0
  5  7  1  0
  7  8  2  0
  7  9  1  0
  9 10  1  0
 10 11  2  0
 10 14  1  0
 11 12  1  0
 12 13  1  0
 13 14  2  0
 13 16  1  0
 14 15  1  0
 16 17  1  0
 17 18  1  0
 18 19  1  0
 19 20  2  0
 19 21  1  1
 19 22  1  0
 22 23  1  0
 23 24  2  0
 23 25  1  1
 23 26  1  0
  3 27  1  0
  3 28  1  0
  3 29  1  0
  6 30  1  0
  6 31  1  0
  8 32  1  0
  9 33  1  0
  9 34  1  0
 11 35  1  0
 15 36  1  0
 15 37  1  0
 15 38  1  0
 16 39  1  0
 16 40  1  0
 17 41  1  0
 17 42  1  0
M  CHG  4  10   1  21  -1  25  -1  26  -1
M  END
>  <filename_input>  (1) 
7A9H_TPP_docked.sdf

>  <pdb_id>  (1) 
7A9H_TPP

>  <pose_rank>  (1) 
0

>  <num_atoms_heavy>  (1) 
26

>  <num_torsions>  (1) 
8

>  <pose>  (1) 
[1.2892462149083126, 11.147556581579892, -20.814049637858066, -0.5814477088498866, -6.177529140208037, -0.3515991475722734, -0.0034347527444803985, -0.05918263400107623, -0.8509048858645112, 1.9135576664868674, -0.5043647497182142, -1.096030850681624, 1.3273998688242707, -0.6785756317213938]

>  <energy>  (1) 
-814.2937060270981

>  <inter_energy>  (1) 
-827.2963864244877

>  <intra_energy>  (1) 
23.904275224239658

>  <rmsd>  (1) 
0.963967

>  <sdf_rank>  (1) 
0

$$$$

     RDKit          3D

 42 43  0  0  0  0  0  0  0  0999 V2000
   -0.9142    8.8581  -23.6428 N   0  0  0  0  0  0  0  0  0  0  0  0
    0.1074    8.1591  -24.1717 C   0  0  0  0  0  0  0  0  0  0  0  0
   -0.2032    6.9199  -24.9523 C   0  0  0  0  0  0  0  0  0  0  0  0
    1.3963    8.4685  -24.0027 N   0  0  0  0  0  0  0  0  0  0  0  0
    1.6816    9.5860  -23.2931 C   0  0  0  0  0  0  0  0  0  0  0  0
    2.9816    9.9121  -23.1796 N   0  0  0  0  0  0  0  0  0  0  0  0
    0.6773   10.3628  -22.6622 C   0  0  0  0  0  0  0  0  0  0  0  0
   -0.6149    9.9569  -22.9270 C   0  0  0  0  0  0  0  0  0  0  0  0
    0.9905   11.6313  -21.8595 C   0  0  0  0  0  0  0  0  0  0  0  0
    1.5328   11.3939  -20.4935 N   0  0  0  0  0  0  0  0  0  0  0  0
    2.8376   11.4904  -20.2171 C   0  0  0  0  0  0  0  0  0  0  0  0
    3.1838   11.1254  -18.5823 S   0  0  0  0  0  0  0  0  0  0  0  0
    1.4917   11.0403  -18.2266 C   0  0  0  0  0  0  0  0  0  0  0  0
    0.7459   11.1651  -19.3623 C   0  0  0  0  0  0  0  0  0  0  0  0
   -0.7472   11.1448  -19.4510 C   0  0  0  0  0  0  0  0  0  0  0  0
    0.9945   10.9020  -16.8073 C   0  0  0  0  0  0  0  0  0  0  0  0
    1.5022   11.9108  -15.7903 C   0  0  0  0  0  0  0  0  0  0  0  0
    2.8356   11.5456  -15.3808 O   0  0  0  0  0  0  0  0  0  0  0  0
    3.1993   11.1455  -13.8693 P   0  0  2  0  0  0  0  0  0  0  0  0
    2.0474   10.2783  -13.4677 O   0  0  0  0  0  0  0  0  0  0  0  0
    3.4468   12.3794  -13.0613 O   0  0  0  0  0  0  0  0  0  0  0  0
    4.5301   10.2663  -14.0220 O   0  0  0  0  0  0  0  0  0  0  0  0
    4.8080    8.8127  -14.7456 P   0  0  1  0  0  0  0  0  0  0  0  0
    4.4099    8.9694  -16.1658 O   0  0  0  0  0  0  0  0  0  0  0  0
    6.3119    8.5699  -14.5695 O   0  0  0  0  0  0  0  0  0  0  0  0
    3.9382    7.8310  -13.9625 O   0  0  0  0  0  0  0  0  0  0  0  0
   -0.4107    6.0918  -24.2585 H   0  0  0  0  0  0  0  0  0  0  0  0
   -1.0847    7.0970  -25.5860 H   0  0  0  0  0  0  0  0  0  0  0  0
    0.6577    6.6603  -25.5860 H   0  0  0  0  0  0  0  0  0  0  0  0
    3.2576   10.7519  -22.6510 H   0  0  0  0  0  0  0  0  0  0  0  0
    3.7010    9.3220  -23.6212 H   0  0  0  0  0  0  0  0  0  0  0  0
   -1.4432   10.5635  -22.5321 H   0  0  0  0  0  0  0  0  0  0  0  0
    1.7309   12.2177  -22.4234 H   0  0  0  0  0  0  0  0  0  0  0  0
    0.0318   12.1531  -21.7232 H   0  0  0  0  0  0  0  0  0  0  0  0
    3.6012   11.7724  -20.9569 H   0  0  0  0  0  0  0  0  0  0  0  0
   -1.1747   11.1390  -18.4375 H   0  0  0  0  0  0  0  0  0  0  0  0
   -1.0947   12.0383  -19.9904 H   0  0  0  0  0  0  0  0  0  0  0  0
   -1.0702   10.2422  -19.9904 H   0  0  0  0  0  0  0  0  0  0  0  0
   -0.1024   10.9809  -16.8321 H   0  0  0  0  0  0  0  0  0  0  0  0
    1.3857    9.9329  -16.4638 H   0  0  0  0  0  0  0  0  0  0  0  0
    1.5186   12.9129  -16.2436 H   0  0  0  0  0  0  0  0  0  0  0  0
    0.8368   11.9175  -14.9144 H   0  0  0  0  0  0  0  0  0  0  0  0
  1  2  2  0
  1  8  1  0
  2  3  1  0
  2  4  1  0
  4  5  2  0
  5  6  1  0
  5  7  1  0
  7  8  2  0
  7  9  1  0
  9 10  1  0
 10 11  2  0
 10 14  1  0
 11 12  1  0
 12 13  1  0
 13 14  2  0
 13 16  1  0
 14 15  1  0
 16 17  1  0
 17 18  1  0
 18 19  1  0
 19 20  2  0
 19 21  1  1
 19 22  1  0
 22 23  1  0
 23 24  2  0
 23 25  1  6
 23 26  1  0
  3 27  1  0
  3 28  1  0
  3 29  1  0
  6 30  1  0
  6 31  1  0
  8 32  1  0
  9 33  1  0
  9 34  1  0
 11 35  1  0
 15 36  1  0
 15 37  1  0
 15 38  1  0
 16 39  1  0
 16 40  1  0
 17 41  1  0
 17 42  1  0
M  CHG  4  10   1  21  -1  25  -1  26  -1
M  END
>  <filename_input>  (2) 
7A9H_TPP_docked.sdf

>  <pdb_id>  (2) 
7A9H_TPP

>  <pose_rank>  (2) 
1

>  <num_atoms_heavy>  (2) 
26

>  <num_torsions>  (2) 
8

>  <pose>  (2) 
[1.532793706348474, 11.393877387283913, -20.493466526357487, -0.4183124221316931, -3.6307125037900656, 4.942713474501346, -0.07882315744814875, -0.01091159301712142, 1.2649044729515027, -0.21852145841473028, 1.1471534162689607, -2.597085051225327, -2.8384726861330805, -3.0398346403259597]

>  <energy>  (2) 
-779.4552617937775

>  <inter_energy>  (2) 
-794.7371101980796

>  <intra_energy>  (2) 
18.836341014293914

>  <rmsd>  (2) 
1.83639

>  <sdf_rank>  (2) 
0

$$$$

     RDKit          3D

 42 43  0  0  0  0  0  0  0  0999 V2000
   -1.3254    9.0729  -23.5596 N   0  0  0  0  0  0  0  0  0  0  0  0
   -0.2252    8.4436  -24.0130 C   0  0  0  0  0  0  0  0  0  0  0  0
   -0.3991    7.2593  -24.9124 C   0  0  0  0  0  0  0  0  0  0  0  0
    1.0236    8.7735  -23.6708 N   0  0  0  0  0  0  0  0  0  0  0  0
    1.1850    9.8411  -22.8535 C   0  0  0  0  0  0  0  0  0  0  0  0
    2.4507   10.1921  -22.5637 N   0  0  0  0  0  0  0  0  0  0  0  0
    0.0875   10.5407  -22.2914 C   0  0  0  0  0  0  0  0  0  0  0  0
   -1.1501   10.1218  -22.7359 C   0  0  0  0  0  0  0  0  0  0  0  0
    0.2604   11.7524  -21.3678 C   0  0  0  0  0  0  0  0  0  0  0  0
    0.6449   11.4264  -19.9669 N   0  0  0  0  0  0  0  0  0  0  0  0
   -0.2610   11.1302  -19.0290 C   0  0  0  0  0  0  0  0  0  0  0  0
    0.4553   10.8394  -17.5032 S   0  0  0  0  0  0  0  0  0  0  0  0
    2.0332   10.9238  -18.2104 C   0  0  0  0  0  0  0  0  0  0  0  0
    1.9622   11.2858  -19.5240 C   0  0  0  0  0  0  0  0  0  0  0  0
    3.1150   11.4575  -20.4615 C   0  0  0  0  0  0  0  0  0  0  0  0
    3.2685   10.5701  -17.4168 C   0  0  0  0  0  0  0  0  0  0  0  0
    3.3384    9.1726  -16.8236 C   0  0  0  0  0  0  0  0  0  0  0  0
    4.4860    9.0798  -15.9556 O   0  0  0  0  0  0  0  0  0  0  0  0
    4.4939    9.6703  -14.4628 P   0  0  2  0  0  0  0  0  0  0  0  0
    5.1701   10.9948  -14.6319 O   0  0  0  0  0  0  0  0  0  0  0  0
    5.1273    8.6880  -13.5298 O   0  0  0  0  0  0  0  0  0  0  0  0
    2.9401    9.8778  -14.1314 O   0  0  0  0  0  0  0  0  0  0  0  0
    2.0870   11.2045  -13.6562 P   0  0  1  0  0  0  0  0  0  0  0  0
    0.8176   10.7006  -13.0777 O   0  0  0  0  0  0  0  0  0  0  0  0
    2.9833   11.8949  -12.6208 O   0  0  0  0  0  0  0  0  0  0  0  0
    1.9058   12.0140  -14.9390 O   0  0  0  0  0  0  0  0  0  0  0  0
   -0.5322    6.3529  -24.3035 H   0  0  0  0  0  0  0  0  0  0  0  0
   -1.2850    7.4080  -25.5472 H   0  0  0  0  0  0  0  0  0  0  0  0
    0.4922    7.1470  -25.5472 H   0  0  0  0  0  0  0  0  0  0  0  0
    2.6337   10.9964  -21.9469 H   0  0  0  0  0  0  0  0  0  0  0  0
    3.2369    9.6566  -22.9586 H   0  0  0  0  0  0  0  0  0  0  0  0
   -2.0396   10.6744  -22.3989 H   0  0  0  0  0  0  0  0  0  0  0  0
    1.0420   12.3981  -21.7947 H   0  0  0  0  0  0  0  0  0  0  0  0
   -0.7248   12.2384  -21.3108 H   0  0  0  0  0  0  0  0  0  0  0  0
   -1.3436   11.0795  -19.2172 H   0  0  0  0  0  0  0  0  0  0  0  0
    4.0405   11.5954  -19.8833 H   0  0  0  0  0  0  0  0  0  0  0  0
    3.2085   10.5634  -21.0954 H   0  0  0  0  0  0  0  0  0  0  0  0
    2.9438   12.3401  -21.0954 H   0  0  0  0  0  0  0  0  0  0  0  0
    4.1352   10.6901  -18.0833 H   0  0  0  0  0  0  0  0  0  0  0  0
    3.2496   11.2452  -16.5485 H   0  0  0  0  0  0  0  0  0  0  0  0
    2.4239    8.9724  -16.2462 H   0  0  0  0  0  0  0  0  0  0  0  0
    3.4281    8.4330  -17.6330 H   0  0  0  0  0  0  0  0  0  0  0  0
  1  2  2  0
  1  8  1  0
  2  3  1  0
  2  4  1  0
  4  5  2  0
  5  6  1  0
  5  7  1  0
  7  8  2  0
  7  9  1  0
  9 10  1  0
 10 11  2  0
 10 14  1  0
 11 12  1  0
 12 13  1  0
 13 14  2  0
 13 16  1  0
 14 15  1  0
 16 17  1  0
 17 18  1  0
 18 19  1  0
 19 20  2  0
 19 21  1  1
 19 22  1  0
 22 23  1  0
 23 24  2  0
 23 25  1  1
 23 26  1  0
  3 27  1  0
  3 28  1  0
  3 29  1  0
  6 30  1  0
  6 31  1  0
  8 32  1  0
  9 33  1  0
  9 34  1  0
 11 35  1  0
 15 36  1  0
 15 37  1  0
 15 38  1  0
 16 39  1  0
 16 40  1  0
 17 41  1  0
 17 42  1  0
M  CHG  4  10   1  21  -1  25  -1  26  -1
M  END
>  <filename_input>  (3) 
7A9H_TPP_docked.sdf

>  <pdb_id>  (3) 
7A9H_TPP

>  <pose_rank>  (3) 
2

>  <num_atoms_heavy>  (3) 
26

>  <num_torsions>  (3) 
8

>  <pose>  (3) 
[0.6448735320416136, 11.426372039114543, -19.966929398889594, -0.9417620175478133, 0.5556243987337204, -3.110568460375889, -9.618267035542376, -6.296934126475301, 7.642923685475204, -1.85034898145269, 4.566660044725065, 1.2411858079268892, -3.876861601394, -0.5912176726403896]

>  <energy>  (3) 
-675.3202735843917

>  <inter_energy>  (3) 
-743.6000966959947

>  <intra_energy>  (3) 
71.06707215385413

>  <rmsd>  (3) 
2.25948

>  <sdf_rank>  (3) 
0

$$$$

     RDKit          3D

 42 43  0  0  0  0  0  0  0  0999 V2000
    1.2852    8.6915  -23.9126 N   0  0  0  0  0  0  0  0  0  0  0  0
   -0.0175    8.5251  -24.2085 C   0  0  0  0  0  0  0  0  0  0  0  0
   -0.3864    7.5603  -25.2923 C   0  0  0  0  0  0  0  0  0  0  0  0
   -1.0117    9.2068  -23.6321 N   0  0  0  0  0  0  0  0  0  0  0  0
   -0.6818   10.0840  -22.6546 C   0  0  0  0  0  0  0  0  0  0  0  0
   -1.6995   10.7208  -22.0480 N   0  0  0  0  0  0  0  0  0  0  0  0
    0.6637   10.3588  -22.3024 C   0  0  0  0  0  0  0  0  0  0  0  0
    1.5989    9.5779  -22.9506 C   0  0  0  0  0  0  0  0  0  0  0  0
    1.0467   11.3479  -21.1950 C   0  0  0  0  0  0  0  0  0  0  0  0
    1.7738   10.7504  -20.0413 N   0  0  0  0  0  0  0  0  0  0  0  0
    3.1045   10.6199  -20.0268 C   0  0  0  0  0  0  0  0  0  0  0  0
    3.6675    9.8645  -18.5991 S   0  0  0  0  0  0  0  0  0  0  0  0
    2.0737    9.9157  -17.9250 C   0  0  0  0  0  0  0  0  0  0  0  0
    1.1710   10.3791  -18.8371 C   0  0  0  0  0  0  0  0  0  0  0  0
   -0.2969   10.5657  -18.6181 C   0  0  0  0  0  0  0  0  0  0  0  0
    1.8177    9.5325  -16.4868 C   0  0  0  0  0  0  0  0  0  0  0  0
    2.9386    9.7790  -15.4904 C   0  0  0  0  0  0  0  0  0  0  0  0
    2.3714   10.0879  -14.2012 O   0  0  0  0  0  0  0  0  0  0  0  0
    2.5024   11.5360  -13.5209 P   0  0  2  0  0  0  0  0  0  0  0  0
    2.2588   12.4663  -14.6677 O   0  0  0  0  0  0  0  0  0  0  0  0
    3.8132   11.6479  -12.8098 O   0  0  0  0  0  0  0  0  0  0  0  0
    1.2718   11.5834  -12.4957 O   0  0  0  0  0  0  0  0  0  0  0  0
   -0.3573   11.5274  -12.7335 P   0  0  1  0  0  0  0  0  0  0  0  0
   -0.9793   11.6055  -11.3893 O   0  0  0  0  0  0  0  0  0  0  0  0
   -0.6667   12.7492  -13.6072 O   0  0  0  0  0  0  0  0  0  0  0  0
   -0.5873   10.1964  -13.4469 O   0  0  0  0  0  0  0  0  0  0  0  0
   -0.7449    6.6228  -24.8422 H   0  0  0  0  0  0  0  0  0  0  0  0
   -1.1816    7.9955  -25.9155 H   0  0  0  0  0  0  0  0  0  0  0  0
    0.4962    7.3539  -25.9155 H   0  0  0  0  0  0  0  0  0  0  0  0
   -1.5080   11.3994  -21.2971 H   0  0  0  0  0  0  0  0  0  0  0  0
   -2.6703   10.5299  -22.3343 H   0  0  0  0  0  0  0  0  0  0  0  0
    2.6559    9.6859  -22.6658 H   0  0  0  0  0  0  0  0  0  0  0  0
    1.6883   12.1240  -21.6376 H   0  0  0  0  0  0  0  0  0  0  0  0
    0.1010   11.7399  -20.7925 H   0  0  0  0  0  0  0  0  0  0  0  0
    3.7623   10.9597  -20.8403 H   0  0  0  0  0  0  0  0  0  0  0  0
   -0.5061   10.5923  -17.5385 H   0  0  0  0  0  0  0  0  0  0  0  0
   -0.6188   11.5120  -19.0774 H   0  0  0  0  0  0  0  0  0  0  0  0
   -0.8453    9.7300  -19.0774 H   0  0  0  0  0  0  0  0  0  0  0  0
    0.9402   10.1006  -16.1444 H   0  0  0  0  0  0  0  0  0  0  0  0
    1.6898    8.4401  -16.5038 H   0  0  0  0  0  0  0  0  0  0  0  0
    3.5638    8.8775  -15.4103 H   0  0  0  0  0  0  0  0  0  0  0  0
    3.5565   10.6223  -15.8325 H   0  0  0  0  0  0  0  0  0  0  0  0
  1  2  2  0
  1  8  1  0
  2  3  1  0
  2  4  1  0
  4  5  2  0
  5  6  1  0
  5  7  1  0
  7  8  2  0
  7  9  1  0
  9 10  1  0
 10 11  2  0
 10 14  1  0
 11 12  1  0
 12 13  1  0
 13 14  2  0
 13 16  1  0
 14 15  1  0
 16 17  1  0
 17 18  1  0
 18 19  1  0
 19 20  2  0
 19 21  1  1
 19 22  1  0
 22 23  1  0
 23 24  2  0
 23 25  1  6
 23 26  1  0
  3 27  1  0
  3 28  1  0
  3 29  1  0
  6 30  1  0
  6 31  1  0
  8 32  1  0
  9 33  1  0
  9 34  1  0
 11 35  1  0
 15 36  1  0
 15 37  1  0
 15 38  1  0
 16 39  1  0
 16 40  1  0
 17 41  1  0
 17 42  1  0
M  CHG  4  10   1  21  -1  25  -1  26  -1
M  END
>  <filename_input>  (4) 
7A9H_TPP_docked.sdf

>  <pdb_id>  (4) 
7A9H_TPP

>  <pose_rank>  (4) 
3

>  <num_atoms_heavy>  (4) 
26

>  <num_torsions>  (4) 
8

>  <pose>  (4) 
[1.7737768797994709, 10.750424728021352, -20.041251118323554, 0.2136686170347559, 0.2852233362382493, -0.2491400757901956, 5.976667840756426, -2.8959703202663425, -5.412911059426546, 10.021329308329694, -5.058421522790496, -2.5956242106529186, 3.470987499124791, -0.9185225714281339]

>  <energy>  (4) 
-626.6322961137892

>  <inter_energy>  (4) 
-635.535555091197

>  <intra_energy>  (4) 
9.949848818822582

>  <rmsd>  (4) 
3.23314

>  <sdf_rank>  (4) 
0

$$$$

     RDKit          3D

 42 43  0  0  0  0  0  0  0  0999 V2000
   -1.0799    8.5862  -23.8682 N   0  0  0  0  0  0  0  0  0  0  0  0
   -0.0982    7.8520  -24.4243 C   0  0  0  0  0  0  0  0  0  0  0  0
   -0.4763    6.6607  -25.2485 C   0  0  0  0  0  0  0  0  0  0  0  0
    1.2057    8.0842  -24.2472 N   0  0  0  0  0  0  0  0  0  0  0  0
    1.5520    9.1580  -23.4983 C   0  0  0  0  0  0  0  0  0  0  0  0
    2.8679    9.4082  -23.3761 N   0  0  0  0  0  0  0  0  0  0  0  0
    0.5919    9.9652  -22.8375 C   0  0  0  0  0  0  0  0  0  0  0  0
   -0.7207    9.6404  -23.1138 C   0  0  0  0  0  0  0  0  0  0  0  0
    0.9742   11.1847  -21.9902 C   0  0  0  0  0  0  0  0  0  0  0  0
    1.5531   10.8675  -20.6557 N   0  0  0  0  0  0  0  0  0  0  0  0
    2.8614   10.9763  -20.4015 C   0  0  0  0  0  0  0  0  0  0  0  0
    3.2534   10.5087  -18.8035 S   0  0  0  0  0  0  0  0  0  0  0  0
    1.5723   10.3588  -18.4183 C   0  0  0  0  0  0  0  0  0  0  0  0
    0.7978   10.5430  -19.5263 C   0  0  0  0  0  0  0  0  0  0  0  0
   -0.6961   10.4929  -19.5842 C   0  0  0  0  0  0  0  0  0  0  0  0
    1.1113   10.1117  -17.0015 C   0  0  0  0  0  0  0  0  0  0  0  0
    2.1625   10.1766  -15.9059 C   0  0  0  0  0  0  0  0  0  0  0  0
    1.9854   11.3892  -15.1460 O   0  0  0  0  0  0  0  0  0  0  0  0
    3.0425   12.5968  -15.1816 P   0  0  2  0  0  0  0  0  0  0  0  0
    4.3326   11.9207  -14.8372 O   0  0  0  0  0  0  0  0  0  0  0  0
    2.5835   13.7021  -14.2849 O   0  0  0  0  0  0  0  0  0  0  0  0
    3.0455   13.0498  -16.7185 O   0  0  0  0  0  0  0  0  0  0  0  0
    3.1800   14.5317  -17.4255 P   0  0  1  0  0  0  0  0  0  0  0  0
    3.4355   14.2865  -18.8658 O   0  0  0  0  0  0  0  0  0  0  0  0
    1.8308   15.2126  -17.1652 O   0  0  0  0  0  0  0  0  0  0  0  0
    4.3458   15.1931  -16.6926 O   0  0  0  0  0  0  0  0  0  0  0  0
   -0.7416    5.8248  -24.5846 H   0  0  0  0  0  0  0  0  0  0  0  0
   -1.3386    6.9127  -25.8833 H   0  0  0  0  0  0  0  0  0  0  0  0
    0.3735    6.3693  -25.8833 H   0  0  0  0  0  0  0  0  0  0  0  0
    3.1896   10.2120  -22.8181 H   0  0  0  0  0  0  0  0  0  0  0  0
    3.5538    8.7960  -23.8404 H   0  0  0  0  0  0  0  0  0  0  0  0
   -1.5145   10.2766  -22.6953 H   0  0  0  0  0  0  0  0  0  0  0  0
    1.7149   11.7722  -22.5525 H   0  0  0  0  0  0  0  0  0  0  0  0
    0.0387   11.7305  -21.7975 H   0  0  0  0  0  0  0  0  0  0  0  0
    3.6012   11.3265  -21.1363 H   0  0  0  0  0  0  0  0  0  0  0  0
   -1.1023   10.4792  -18.5620 H   0  0  0  0  0  0  0  0  0  0  0  0
   -1.0724   11.3789  -20.1165 H   0  0  0  0  0  0  0  0  0  0  0  0
   -1.0121    9.5836  -20.1165 H   0  0  0  0  0  0  0  0  0  0  0  0
    0.3434   10.8640  -16.7678 H   0  0  0  0  0  0  0  0  0  0  0  0
    0.7610    9.0690  -16.9959 H   0  0  0  0  0  0  0  0  0  0  0  0
    2.0541    9.3071  -15.2409 H   0  0  0  0  0  0  0  0  0  0  0  0
    3.1657   10.1680  -16.3571 H   0  0  0  0  0  0  0  0  0  0  0  0
  1  2  2  0
  1  8  1  0
  2  3  1  0
  2  4  1  0
  4  5  2  0
  5  6  1  0
  5  7  1  0
  7  8  2  0
  7  9  1  0
  9 10  1  0
 10 11  2  0
 10 14  1  0
 11 12  1  0
 12 13  1  0
 13 14  2  0
 13 16  1  0
 14 15  1  0
 16 17  1  0
 17 18  1  0
 18 19  1  0
 19 20  2  0
 19 21  1  1
 19 22  1  0
 22 23  1  0
 23 24  2  0
 23 25  1  6
 23 26  1  0
  3 27  1  0
  3 28  1  0
  3 29  1  0
  6 30  1  0
  6 31  1  0
  8 32  1  0
  9 33  1  0
  9 34  1  0
 11 35  1  0
 15 36  1  0
 15 37  1  0
 15 38  1  0
 16 39  1  0
 16 40  1  0
 17 41  1  0
 17 42  1  0
M  CHG  4  10   1  21  -1  25  -1  26  -1
M  END
>  <filename_input>  (5) 
7A9H_TPP_docked.sdf

>  <pdb_id>  (5) 
7A9H_TPP

>  <pose_rank>  (5) 
4

>  <num_atoms_heavy>  (5) 
26

>  <num_torsions>  (5) 
8

>  <pose>  (5) 
[1.5530812331960324, 10.867532369603621, -20.65572464801651, -2.9948694083364, -4.209309203461271, 3.296590389118339, -0.01664025547082534, 0.02923808390512851, -12.089937249098325, 3.0175897557901425, 1.242095634676171, 2.012954378660835, 0.7931428667583528, -1.1408086886218263]

>  <energy>  (5) 
-669.9069148351728

>  <inter_energy>  (5) 
-680.721773192181

>  <intra_energy>  (5) 
13.718390377583958

>  <rmsd>  (5) 
3.01946

>  <sdf_rank>  (5) 
0

$$$$

     RDKit          3D

 42 43  0  0  0  0  0  0  0  0999 V2000
   -0.6719    8.5168  -23.3098 N   0  0  0  0  0  0  0  0  0  0  0  0
    0.1804    8.2950  -24.3279 C   0  0  0  0  0  0  0  0  0  0  0  0
   -0.2831    7.4557  -25.4778 C   0  0  0  0  0  0  0  0  0  0  0  0
    1.4424    8.7328  -24.3600 N   0  0  0  0  0  0  0  0  0  0  0  0
    1.8671    9.4882  -23.3194 C   0  0  0  0  0  0  0  0  0  0  0  0
    3.1223    9.9659  -23.3944 N   0  0  0  0  0  0  0  0  0  0  0  0
    1.0578    9.7404  -22.1830 C   0  0  0  0  0  0  0  0  0  0  0  0
   -0.2310    9.2554  -22.2758 C   0  0  0  0  0  0  0  0  0  0  0  0
    1.5288   10.5971  -21.0017 C   0  0  0  0  0  0  0  0  0  0  0  0
    2.1475    9.8376  -19.8806 N   0  0  0  0  0  0  0  0  0  0  0  0
    2.3499    8.5172  -19.9394 C   0  0  0  0  0  0  0  0  0  0  0  0
    3.0354    7.9005  -18.4987 S   0  0  0  0  0  0  0  0  0  0  0  0
    3.2360    9.5078  -17.8876 C   0  0  0  0  0  0  0  0  0  0  0  0
    2.6733   10.4244  -18.7271 C   0  0  0  0  0  0  0  0  0  0  0  0
    2.6508   11.9078  -18.5358 C   0  0  0  0  0  0  0  0  0  0  0  0
    3.9986    9.7722  -16.6112 C   0  0  0  0  0  0  0  0  0  0  0  0
    3.2596    9.5554  -15.3010 C   0  0  0  0  0  0  0  0  0  0  0  0
    3.6707   10.5583  -14.3499 O   0  0  0  0  0  0  0  0  0  0  0  0
    2.7020   11.7438  -13.8669 P   0  0  2  0  0  0  0  0  0  0  0  0
    2.7584   12.7073  -15.0109 O   0  0  0  0  0  0  0  0  0  0  0  0
    3.1362   12.2416  -12.5252 O   0  0  0  0  0  0  0  0  0  0  0  0
    1.2604   11.0477  -13.7972 O   0  0  0  0  0  0  0  0  0  0  0  0
   -0.2077   11.6114  -13.3068 P   0  0  1  0  0  0  0  0  0  0  0  0
   -0.4198   11.0886  -11.9351 O   0  0  0  0  0  0  0  0  0  0  0  0
   -0.0743   13.1385  -13.3505 O   0  0  0  0  0  0  0  0  0  0  0  0
   -1.1871   11.0572  -14.3400 O   0  0  0  0  0  0  0  0  0  0  0  0
   -0.7818    6.5529  -25.0953 H   0  0  0  0  0  0  0  0  0  0  0  0
   -0.9903    8.0330  -26.0915 H   0  0  0  0  0  0  0  0  0  0  0  0
    0.5821    7.1646  -26.0915 H   0  0  0  0  0  0  0  0  0  0  0  0
    3.4988   10.5466  -22.6316 H   0  0  0  0  0  0  0  0  0  0  0  0
    3.7070    9.7509  -24.2147 H   0  0  0  0  0  0  0  0  0  0  0  0
   -0.9342    9.4849  -21.4616 H   0  0  0  0  0  0  0  0  0  0  0  0
    2.2712   11.3169  -21.3769 H   0  0  0  0  0  0  0  0  0  0  0  0
    0.6275   11.0741  -20.5893 H   0  0  0  0  0  0  0  0  0  0  0  0
    2.1037    7.8980  -20.8146 H   0  0  0  0  0  0  0  0  0  0  0  0
    2.6472   12.1388  -17.4604 H   0  0  0  0  0  0  0  0  0  0  0  0
    3.5423   12.3514  -19.0032 H   0  0  0  0  0  0  0  0  0  0  0  0
    1.7462   12.3241  -19.0032 H   0  0  0  0  0  0  0  0  0  0  0  0
    4.8777    9.1109  -16.6083 H   0  0  0  0  0  0  0  0  0  0  0  0
    4.2237   10.8487  -16.6341 H   0  0  0  0  0  0  0  0  0  0  0  0
    2.1761    9.6345  -15.4730 H   0  0  0  0  0  0  0  0  0  0  0  0
    3.4945    8.5557  -14.9068 H   0  0  0  0  0  0  0  0  0  0  0  0
  1  2  2  0
  1  8  1  0
  2  3  1  0
  2  4  1  0
  4  5  2  0
  5  6  1  0
  5  7  1  0
  7  8  2  0
  7  9  1  0
  9 10  1  0
 10 11  2  0
 10 14  1  0
 11 12  1  0
 12 13  1  0
 13 14  2  0
 13 16  1  0
 14 15  1  0
 16 17  1  0
 17 18  1  0
 18 19  1  0
 19 20  2  0
 19 21  1  1
 19 22  1  0
 22 23  1  0
 23 24  2  0
 23 25  1  1
 23 26  1  0
  3 27  1  0
  3 28  1  0
  3 29  1  0
  6 30  1  0
  6 31  1  0
  8 32  1  0
  9 33  1  0
  9 34  1  0
 11 35  1  0
 15 36  1  0
 15 37  1  0
 15 38  1  0
 16 39  1  0
 16 40  1  0
 17 41  1  0
 17 42  1  0
M  CHG  4  10   1  21  -1  25  -1  26  -1
M  END
>  <filename_input>  (6) 
7A9H_TPP_docked.sdf

>  <pdb_id>  (6) 
7A9H_TPP

>  <pose_rank>  (6) 
5

>  <num_atoms_heavy>  (6) 
26

>  <num_torsions>  (6) 
8

>  <pose>  (6) 
[2.1474910322575287, 9.837644029917088, -19.880571481637435, -0.34723074818587213, 0.6861744614649569, -1.610724116007402, -8.049889553171607, -6.575102313872095, 5.218147886810522, -1.3460473003054316, 5.106741156031211, 1.5845418225091212, -4.919183366360286, 0.4688929918643169]

>  <energy>  (6) 
-650.5212303014615

>  <inter_energy>  (6) 
-644.490064115709

>  <intra_energy>  (6) 
3.8938917701282585

>  <rmsd>  (6) 
3.28969

>  <sdf_rank>  (6) 
0

$$$$

     RDKit          3D

 42 43  0  0  0  0  0  0  0  0999 V2000
    2.0886   15.3898  -22.4429 N   0  0  0  0  0  0  0  0  0  0  0  0
    3.2590   15.5361  -23.0916 C   0  0  0  0  0  0  0  0  0  0  0  0
    3.6919   16.9151  -23.4822 C   0  0  0  0  0  0  0  0  0  0  0  0
    4.0449   14.5206  -23.4613 N   0  0  0  0  0  0  0  0  0  0  0  0
    3.6545   13.2713  -23.1141 C   0  0  0  0  0  0  0  0  0  0  0  0
    4.4846   12.2665  -23.4464 N   0  0  0  0  0  0  0  0  0  0  0  0
    2.4191   13.0130  -22.4682 C   0  0  0  0  0  0  0  0  0  0  0  0
    1.7059   14.1417  -22.1186 C   0  0  0  0  0  0  0  0  0  0  0  0
    1.9701   11.6024  -22.0685 C   0  0  0  0  0  0  0  0  0  0  0  0
    2.1638   11.2637  -20.6317 N   0  0  0  0  0  0  0  0  0  0  0  0
    3.3627   11.3160  -20.0417 C   0  0  0  0  0  0  0  0  0  0  0  0
    3.3007   10.8358  -18.4012 S   0  0  0  0  0  0  0  0  0  0  0  0
    1.5726   10.7602  -18.4725 C   0  0  0  0  0  0  0  0  0  0  0  0
    1.1252   10.9752  -19.7433 C   0  0  0  0  0  0  0  0  0  0  0  0
   -0.3017   10.9901  -20.1920 C   0  0  0  0  0  0  0  0  0  0  0  0
    0.7453   10.5371  -17.2289 C   0  0  0  0  0  0  0  0  0  0  0  0
    0.8183    9.1642  -16.5811 C   0  0  0  0  0  0  0  0  0  0  0  0
    1.5865    9.2513  -15.3640 O   0  0  0  0  0  0  0  0  0  0  0  0
    3.0579    8.6254  -15.2208 P   0  0  2  0  0  0  0  0  0  0  0  0
    3.1659    7.7482  -16.4287 O   0  0  0  0  0  0  0  0  0  0  0  0
    3.2069    7.9756  -13.8822 O   0  0  0  0  0  0  0  0  0  0  0  0
    4.0236    9.8955  -15.3683 O   0  0  0  0  0  0  0  0  0  0  0  0
    4.2670   11.2070  -14.4017 P   0  0  1  0  0  0  0  0  0  0  0  0
    3.2660   11.1145  -13.3111 O   0  0  0  0  0  0  0  0  0  0  0  0
    5.7098   11.0622  -13.9027 O   0  0  0  0  0  0  0  0  0  0  0  0
    4.0626   12.4019  -15.3312 O   0  0  0  0  0  0  0  0  0  0  0  0
    3.8790   17.5109  -22.5767 H   0  0  0  0  0  0  0  0  0  0  0  0
    4.6143   16.8547  -24.0785 H   0  0  0  0  0  0  0  0  0  0  0  0
    2.9005   17.3927  -24.0785 H   0  0  0  0  0  0  0  0  0  0  0  0
    4.2390   11.2952  -23.2075 H   0  0  0  0  0  0  0  0  0  0  0  0
    5.3660   12.4684  -23.9398 H   0  0  0  0  0  0  0  0  0  0  0  0
    0.7761   14.0139  -21.5449 H   0  0  0  0  0  0  0  0  0  0  0  0
    0.8991   11.5068  -22.3001 H   0  0  0  0  0  0  0  0  0  0  0  0
    2.6039   10.9056  -22.6366 H   0  0  0  0  0  0  0  0  0  0  0  0
    4.2839   11.6319  -20.5532 H   0  0  0  0  0  0  0  0  0  0  0  0
   -0.9625   10.9969  -19.3127 H   0  0  0  0  0  0  0  0  0  0  0  0
   -0.4866   11.8902  -20.7967 H   0  0  0  0  0  0  0  0  0  0  0  0
   -0.5053   10.0940  -20.7967 H   0  0  0  0  0  0  0  0  0  0  0  0
    1.0697   11.2739  -16.4793 H   0  0  0  0  0  0  0  0  0  0  0  0
   -0.2983   10.6375  -17.5617 H   0  0  0  0  0  0  0  0  0  0  0  0
   -0.1980    8.8126  -16.3497 H   0  0  0  0  0  0  0  0  0  0  0  0
    1.3008    8.4565  -17.2713 H   0  0  0  0  0  0  0  0  0  0  0  0
  1  2  2  0
  1  8  1  0
  2  3  1  0
  2  4  1  0
  4  5  2  0
  5  6  1  0
  5  7  1  0
  7  8  2  0
  7  9  1  0
  9 10  1  0
 10 11  2  0
 10 14  1  0
 11 12  1  0
 12 13  1  0
 13 14  2  0
 13 16  1  0
 14 15  1  0
 16 17  1  0
 17 18  1  0
 18 19  1  0
 19 20  2  0
 19 21  1  1
 19 22  1  0
 22 23  1  0
 23 24  2  0
 23 25  1  1
 23 26  1  0
  3 27  1  0
  3 28  1  0
  3 29  1  0
  6 30  1  0
  6 31  1  0
  8 32  1  0
  9 33  1  0
  9 34  1  0
 11 35  1  0
 15 36  1  0
 15 37  1  0
 15 38  1  0
 16 39  1  0
 16 40  1  0
 17 41  1  0
 17 42  1  0
M  CHG  4  10   1  21  -1  25  -1  26  -1
M  END
>  <filename_input>  (7) 
7A9H_TPP_docked.sdf

>  <pdb_id>  (7) 
7A9H_TPP

>  <pose_rank>  (7) 
6

>  <num_atoms_heavy>  (7) 
26

>  <num_torsions>  (7) 
8

>  <pose>  (7) 
[2.1638416566460283, 11.26370888467575, -20.631688910675457, -2.5479474947856073, 4.464545601785797, 3.2181506479283417, -2.843209728945385, -3.1890353378147456, 5.411237845656227, -3.2656720646741566, 1.292286796992979, 2.7190408477618115, -0.5374169018150317, 2.125031131822065]

>  <energy>  (7) 
-564.1664295999759

>  <inter_energy>  (7) 
-575.7750733226839

>  <intra_energy>  (7) 
10.956266336016506

>  <rmsd>  (7) 
3.78495

>  <sdf_rank>  (7) 
0

$$$$

     RDKit          3D

 42 43  0  0  0  0  0  0  0  0999 V2000
    5.5455   10.2009  -13.7034 N   0  0  0  0  0  0  0  0  0  0  0  0
    6.2303    9.3157  -14.4514 C   0  0  0  0  0  0  0  0  0  0  0  0
    7.7035    9.1763  -14.2236 C   0  0  0  0  0  0  0  0  0  0  0  0
    5.6907    8.5824  -15.4294 N   0  0  0  0  0  0  0  0  0  0  0  0
    4.3593    8.7092  -15.6420 C   0  0  0  0  0  0  0  0  0  0  0  0
    3.8236    7.9235  -16.5933 N   0  0  0  0  0  0  0  0  0  0  0  0
    3.5624    9.6446  -14.9349 C   0  0  0  0  0  0  0  0  0  0  0  0
    4.2268   10.3276  -13.9365 C   0  0  0  0  0  0  0  0  0  0  0  0
    2.0539    9.7930  -15.1664 C   0  0  0  0  0  0  0  0  0  0  0  0
    1.6141   11.1468  -15.6027 N   0  0  0  0  0  0  0  0  0  0  0  0
    1.9908   12.2596  -14.9640 C   0  0  0  0  0  0  0  0  0  0  0  0
    1.3058   13.6673  -15.6530 S   0  0  0  0  0  0  0  0  0  0  0  0
    0.6597   12.7326  -16.9591 C   0  0  0  0  0  0  0  0  0  0  0  0
    0.8764   11.4001  -16.7615 C   0  0  0  0  0  0  0  0  0  0  0  0
    0.4664   10.2886  -17.6748 C   0  0  0  0  0  0  0  0  0  0  0  0
    0.0075   13.3943  -18.1497 C   0  0  0  0  0  0  0  0  0  0  0  0
    0.9252   13.9688  -19.2163 C   0  0  0  0  0  0  0  0  0  0  0  0
    0.6722   13.3051  -20.4711 O   0  0  0  0  0  0  0  0  0  0  0  0
    1.8274   13.0173  -21.5480 P   0  0  2  0  0  0  0  0  0  0  0  0
    2.9435   12.4844  -20.7051 O   0  0  0  0  0  0  0  0  0  0  0  0
    2.0974   14.2519  -22.3476 O   0  0  0  0  0  0  0  0  0  0  0  0
    1.2123   11.8507  -22.4579 O   0  0  0  0  0  0  0  0  0  0  0  0
    1.3852   10.2132  -22.4076 P   0  0  1  0  0  0  0  0  0  0  0  0
    1.3808    9.8359  -20.9732 O   0  0  0  0  0  0  0  0  0  0  0  0
    0.1728    9.6687  -23.1727 O   0  0  0  0  0  0  0  0  0  0  0  0
    2.7152    9.9540  -23.1129 O   0  0  0  0  0  0  0  0  0  0  0  0
    7.9071    9.1570  -13.1428 H   0  0  0  0  0  0  0  0  0  0  0  0
    8.0582    8.2406  -14.6803 H   0  0  0  0  0  0  0  0  0  0  0  0
    8.2274   10.0289  -14.6803 H   0  0  0  0  0  0  0  0  0  0  0  0
    2.8155    7.9772  -16.7981 H   0  0  0  0  0  0  0  0  0  0  0  0
    4.4213    7.2683  -17.1170 H   0  0  0  0  0  0  0  0  0  0  0  0
    3.6478   11.0112  -13.2982 H   0  0  0  0  0  0  0  0  0  0  0  0
    1.7549    9.0711  -15.9408 H   0  0  0  0  0  0  0  0  0  0  0  0
    1.5744    9.6130  -14.1929 H   0  0  0  0  0  0  0  0  0  0  0  0
    2.6645   12.2686  -14.0945 H   0  0  0  0  0  0  0  0  0  0  0  0
    0.1468    9.4221  -17.0772 H   0  0  0  0  0  0  0  0  0  0  0  0
   -0.3672   10.6240  -18.3093 H   0  0  0  0  0  0  0  0  0  0  0  0
    1.3181   10.0023  -18.3093 H   0  0  0  0  0  0  0  0  0  0  0  0
   -0.6339   12.6437  -18.6348 H   0  0  0  0  0  0  0  0  0  0  0  0
   -0.5227   14.2640  -17.7345 H   0  0  0  0  0  0  0  0  0  0  0  0
    0.7324   15.0463  -19.3252 H   0  0  0  0  0  0  0  0  0  0  0  0
    1.9738   13.8136  -18.9224 H   0  0  0  0  0  0  0  0  0  0  0  0
  1  2  2  0
  1  8  1  0
  2  3  1  0
  2  4  1  0
  4  5  2  0
  5  6  1  0
  5  7  1  0
  7  8  2  0
  7  9  1  0
  9 10  1  0
 10 11  2  0
 10 14  1  0
 11 12  1  0
 12 13  1  0
 13 14  2  0
 13 16  1  0
 14 15  1  0
 16 17  1  0
 17 18  1  0
 18 19  1  0
 19 20  2  0
 19 21  1  6
 19 22  1  0
 22 23  1  0
 23 24  2  0
 23 25  1  6
 23 26  1  0
  3 27  1  0
  3 28  1  0
  3 29  1  0
  6 30  1  0
  6 31  1  0
  8 32  1  0
  9 33  1  0
  9 34  1  0
 11 35  1  0
 15 36  1  0
 15 37  1  0
 15 38  1  0
 16 39  1  0
 16 40  1  0
 17 41  1  0
 17 42  1  0
M  CHG  4  10   1  21  -1  25  -1  26  -1
M  END
>  <filename_input>  (8) 
7A9H_TPP_docked.sdf

>  <pdb_id>  (8) 
7A9H_TPP

>  <pose_rank>  (8) 
7

>  <num_atoms_heavy>  (8) 
26

>  <num_torsions>  (8) 
8

>  <pose>  (8) 
[1.6141370573466094, 11.146810782772292, -15.602721201834242, 2.869535469057309, 2.6621294566447586, 0.8105581570012499, 3.5779240979556652, -0.7693616187358806, -4.551090780341908, 3.232787438603379, 0.6416118048415751, 3.742023467739017, 2.893787354762003, 2.920803813732916]

>  <energy>  (8) 
-561.6701729570552

>  <inter_energy>  (8) 
-582.7839277081114

>  <intra_energy>  (8) 
17.117966500981904

>  <rmsd>  (8) 
8.10279

>  <sdf_rank>  (8) 
0

$$$$

     RDKit          3D

 42 43  0  0  0  0  0  0  0  0999 V2000
    1.3760    8.2872  -23.8779 N   0  0  0  0  0  0  0  0  0  0  0  0
    0.3032    7.9458  -24.6159 C   0  0  0  0  0  0  0  0  0  0  0  0
    0.5013    7.0292  -25.7831 C   0  0  0  0  0  0  0  0  0  0  0  0
   -0.9309    8.4143  -24.4089 N   0  0  0  0  0  0  0  0  0  0  0  0
   -1.1134    9.2475  -23.3571 C   0  0  0  0  0  0  0  0  0  0  0  0
   -2.3717    9.6657  -23.1311 N   0  0  0  0  0  0  0  0  0  0  0  0
   -0.0392    9.6976  -22.5487 C   0  0  0  0  0  0  0  0  0  0  0  0
    1.1823    9.1282  -22.8461 C   0  0  0  0  0  0  0  0  0  0  0  0
   -0.2366   10.6383  -21.3540 C   0  0  0  0  0  0  0  0  0  0  0  0
    1.0183   11.0731  -20.6811 N   0  0  0  0  0  0  0  0  0  0  0  0
    1.9550   11.7891  -21.3120 C   0  0  0  0  0  0  0  0  0  0  0  0
    3.3066   12.1124  -20.3149 S   0  0  0  0  0  0  0  0  0  0  0  0
    2.4838   11.4319  -18.9522 C   0  0  0  0  0  0  0  0  0  0  0  0
    1.2909   10.8839  -19.3242 C   0  0  0  0  0  0  0  0  0  0  0  0
    0.3042   10.2097  -18.4246 C   0  0  0  0  0  0  0  0  0  0  0  0
    3.0599   11.5286  -17.5595 C   0  0  0  0  0  0  0  0  0  0  0  0
    3.9251   10.3740  -17.0822 C   0  0  0  0  0  0  0  0  0  0  0  0
    3.6955   10.1555  -15.6756 O   0  0  0  0  0  0  0  0  0  0  0  0
    4.1513   11.2049  -14.5495 P   0  0  2  0  0  0  0  0  0  0  0  0
    2.9390   11.3056  -13.6775 O   0  0  0  0  0  0  0  0  0  0  0  0
    4.6424   12.4620  -15.1937 O   0  0  0  0  0  0  0  0  0  0  0  0
    5.3294   10.4412  -13.7774 O   0  0  0  0  0  0  0  0  0  0  0  0
    5.4554    8.8958  -13.2210 P   0  0  1  0  0  0  0  0  0  0  0  0
    6.4224    8.2082  -14.1110 O   0  0  0  0  0  0  0  0  0  0  0  0
    5.9650    9.0391  -11.7818 O   0  0  0  0  0  0  0  0  0  0  0  0
    4.0324    8.3473  -13.3100 O   0  0  0  0  0  0  0  0  0  0  0  0
    0.7206    6.0145  -25.4193 H   0  0  0  0  0  0  0  0  0  0  0  0
   -0.4134    7.0100  -26.3937 H   0  0  0  0  0  0  0  0  0  0  0  0
    1.3423    7.3895  -26.3937 H   0  0  0  0  0  0  0  0  0  0  0  0
   -2.5699   10.3008  -22.3447 H   0  0  0  0  0  0  0  0  0  0  0  0
   -3.1370    9.3509  -23.7443 H   0  0  0  0  0  0  0  0  0  0  0  0
    2.0422    9.3749  -22.2061 H   0  0  0  0  0  0  0  0  0  0  0  0
   -0.7616   11.5368  -21.7103 H   0  0  0  0  0  0  0  0  0  0  0  0
   -0.8054   10.0682  -20.6047 H   0  0  0  0  0  0  0  0  0  0  0  0
    1.8663   12.1313  -22.3537 H   0  0  0  0  0  0  0  0  0  0  0  0
    0.5773   10.3963  -17.3755 H   0  0  0  0  0  0  0  0  0  0  0  0
   -0.7019   10.6101  -18.6183 H   0  0  0  0  0  0  0  0  0  0  0  0
    0.3115    9.1269  -18.6183 H   0  0  0  0  0  0  0  0  0  0  0  0
    3.6735   12.4407  -17.5182 H   0  0  0  0  0  0  0  0  0  0  0  0
    2.1863   11.5224  -16.8911 H   0  0  0  0  0  0  0  0  0  0  0  0
    3.6650    9.4639  -17.6426 H   0  0  0  0  0  0  0  0  0  0  0  0
    4.9854   10.6147  -17.2493 H   0  0  0  0  0  0  0  0  0  0  0  0
  1  2  2  0
  1  8  1  0
  2  3  1  0
  2  4  1  0
  4  5  2  0
  5  6  1  0
  5  7  1  0
  7  8  2  0
  7  9  1  0
  9 10  1  0
 10 11  2  0
 10 14  1  0
 11 12  1  0
 12 13  1  0
 13 14  2  0
 13 16  1  0
 14 15  1  0
 16 17  1  0
 17 18  1  0
 18 19  1  0
 19 20  2  0
 19 21  1  6
 19 22  1  0
 22 23  1  0
 23 24  2  0
 23 25  1  1
 23 26  1  0
  3 27  1  0
  3 28  1  0
  3 29  1  0
  6 30  1  0
  6 31  1  0
  8 32  1  0
  9 33  1  0
  9 34  1  0
 11 35  1  0
 15 36  1  0
 15 37  1  0
 15 38  1  0
 16 39  1  0
 16 40  1  0
 17 41  1  0
 17 42  1  0
M  CHG  4  10   1  21  -1  25  -1  26  -1
M  END
>  <filename_input>  (9) 
7A9H_TPP_docked.sdf

>  <pdb_id>  (9) 
7A9H_TPP

>  <pose_rank>  (9) 
8

>  <num_atoms_heavy>  (9) 
26

>  <num_torsions>  (9) 
8

>  <pose>  (9) 
[1.0183026472713705, 11.073093395209858, -20.681100915473866, -0.19190791281084615, 0.7719109409494587, 0.42570909442772514, -0.7459545830631626, -1.7335577279749192, -1.2760629208366387, -1.3579995092456751, 1.9981787780139881, 5.285325000118856, -2.5006786892901904, 4.116457247334554]

>  <energy>  (9) 
-625.5258057986351

>  <inter_energy>  (9) 
-665.9967423204714

>  <intra_energy>  (9) 
29.378013205788868

>  <rmsd>  (9) 
2.57764

>  <sdf_rank>  (9) 
0

$$$$

     RDKit          3D

 42 43  0  0  0  0  0  0  0  0999 V2000
    0.1912   15.5265  -21.2848 N   0  0  0  0  0  0  0  0  0  0  0  0
    0.6135   16.7924  -21.4609 C   0  0  0  0  0  0  0  0  0  0  0  0
   -0.3417   17.9102  -21.1783 C   0  0  0  0  0  0  0  0  0  0  0  0
    1.8220   17.1234  -21.9252 N   0  0  0  0  0  0  0  0  0  0  0  0
    2.6873   16.1151  -22.1867 C   0  0  0  0  0  0  0  0  0  0  0  0
    3.9171   16.4689  -22.6010 N   0  0  0  0  0  0  0  0  0  0  0  0
    2.3209   14.7503  -22.0728 C   0  0  0  0  0  0  0  0  0  0  0  0
    1.0563   14.5349  -21.5637 C   0  0  0  0  0  0  0  0  0  0  0  0
    3.2946   13.6021  -22.3635 C   0  0  0  0  0  0  0  0  0  0  0  0
    2.8418   12.2607  -21.9027 N   0  0  0  0  0  0  0  0  0  0  0  0
    2.1554   11.4290  -22.6933 C   0  0  0  0  0  0  0  0  0  0  0  0
    1.7285    9.9779  -21.8945 S   0  0  0  0  0  0  0  0  0  0  0  0
    2.6822   10.4337  -20.5235 C   0  0  0  0  0  0  0  0  0  0  0  0
    3.1760   11.6973  -20.6690 C   0  0  0  0  0  0  0  0  0  0  0  0
    4.0438   12.4293  -19.6949 C   0  0  0  0  0  0  0  0  0  0  0  0
    2.9294    9.4723  -19.3854 C   0  0  0  0  0  0  0  0  0  0  0  0
    4.3323    8.9046  -19.2458 C   0  0  0  0  0  0  0  0  0  0  0  0
    4.2519    7.5462  -18.7687 O   0  0  0  0  0  0  0  0  0  0  0  0
    4.0673    7.1822  -17.2162 P   0  0  2  0  0  0  0  0  0  0  0  0
    4.9915    6.0191  -17.0344 O   0  0  0  0  0  0  0  0  0  0  0  0
    2.6191    6.9649  -16.9127 O   0  0  0  0  0  0  0  0  0  0  0  0
    4.6400    8.4713  -16.4562 O   0  0  0  0  0  0  0  0  0  0  0  0
    4.6330    8.9008  -14.8658 P   0  0  1  0  0  0  0  0  0  0  0  0
    4.7403   10.3797  -14.8313 O   0  0  0  0  0  0  0  0  0  0  0  0
    3.2923    8.3859  -14.3281 O   0  0  0  0  0  0  0  0  0  0  0  0
    5.8423    8.1774  -14.2761 O   0  0  0  0  0  0  0  0  0  0  0  0
   -0.4485   18.0351  -20.0907 H   0  0  0  0  0  0  0  0  0  0  0  0
    0.0436   18.8418  -21.6184 H   0  0  0  0  0  0  0  0  0  0  0  0
   -1.3220   17.6748  -21.6184 H   0  0  0  0  0  0  0  0  0  0  0  0
    4.6169   15.7439  -22.8146 H   0  0  0  0  0  0  0  0  0  0  0  0
    4.1590   17.4647  -22.7047 H   0  0  0  0  0  0  0  0  0  0  0  0
    0.7393   13.4984  -21.3764 H   0  0  0  0  0  0  0  0  0  0  0  0
    3.4509   13.5543  -23.4513 H   0  0  0  0  0  0  0  0  0  0  0  0
    4.2121   13.8270  -21.7998 H   0  0  0  0  0  0  0  0  0  0  0  0
    1.8949   11.6524  -23.7384 H   0  0  0  0  0  0  0  0  0  0  0  0
    3.7403   12.1733  -18.6691 H   0  0  0  0  0  0  0  0  0  0  0  0
    5.0937   12.1400  -19.8498 H   0  0  0  0  0  0  0  0  0  0  0  0
    3.9354   13.5130  -19.8498 H   0  0  0  0  0  0  0  0  0  0  0  0
    2.6915    9.9994  -18.4497 H   0  0  0  0  0  0  0  0  0  0  0  0
    2.2932    8.6026  -19.6067 H   0  0  0  0  0  0  0  0  0  0  0  0
    4.8343    8.9211  -20.2245 H   0  0  0  0  0  0  0  0  0  0  0  0
    4.9062    9.5126  -18.5311 H   0  0  0  0  0  0  0  0  0  0  0  0
  1  2  2  0
  1  8  1  0
  2  3  1  0
  2  4  1  0
  4  5  2  0
  5  6  1  0
  5  7  1  0
  7  8  2  0
  7  9  1  0
  9 10  1  0
 10 11  2  0
 10 14  1  0
 11 12  1  0
 12 13  1  0
 13 14  2  0
 13 16  1  0
 14 15  1  0
 16 17  1  0
 17 18  1  0
 18 19  1  0
 19 20  2  0
 19 21  1  6
 19 22  1  0
 22 23  1  0
 23 24  2  0
 23 25  1  1
 23 26  1  0
  3 27  1  0
  3 28  1  0
  3 29  1  0
  6 30  1  0
  6 31  1  0
  8 32  1  0
  9 33  1  0
  9 34  1  0
 11 35  1  0
 15 36  1  0
 15 37  1  0
 15 38  1  0
 16 39  1  0
 16 40  1  0
 17 41  1  0
 17 42  1  0
M  CHG  4  10   1  21  -1  25  -1  26  -1
M  END
>  <filename_input>  (10) 
7A9H_TPP_docked.sdf

>  <pdb_id>  (10) 
7A9H_TPP

>  <pose_rank>  (10) 
9

>  <num_atoms_heavy>  (10) 
26

>  <num_torsions>  (10) 
8

>  <pose>  (10) 
[2.8417529324858006, 12.260735720931363, -21.902657106636468, -0.8652908592116101, -1.9205127425496393, 3.2024571682094076, -0.23021387172212063, -2.031134309682903, 2.2430774204859802, -1.3801587360956447, 1.760440078997705, 0.5288558042661463, 1.2946593190650655, -0.4859612167290369]

>  <energy>  (10) 
-445.40068381104163

>  <inter_energy>  (10) 
-454.53750879841385

>  <intra_energy>  (10) 
9.874480523780647

>  <rmsd>  (10) 
5.14343

>  <sdf_rank>  (10) 
0

$$$$

     RDKit          3D

 42 43  0  0  0  0  0  0  0  0999 V2000
    4.9145   11.4253  -13.7237 N   0  0  0  0  0  0  0  0  0  0  0  0
    5.7638   10.3845  -13.6365 C   0  0  0  0  0  0  0  0  0  0  0  0
    6.9444   10.5003  -12.7231 C   0  0  0  0  0  0  0  0  0  0  0  0
    5.6543    9.2635  -14.3553 N   0  0  0  0  0  0  0  0  0  0  0  0
    4.5905    9.1568  -15.1864 C   0  0  0  0  0  0  0  0  0  0  0  0
    4.4665    7.9996  -15.8608 N   0  0  0  0  0  0  0  0  0  0  0  0
    3.6665   10.2149  -15.3779 C   0  0  0  0  0  0  0  0  0  0  0  0
    3.8713   11.3114  -14.5651 C   0  0  0  0  0  0  0  0  0  0  0  0
    2.4574   10.1021  -16.3141 C   0  0  0  0  0  0  0  0  0  0  0  0
    2.4879   11.0098  -17.4938 N   0  0  0  0  0  0  0  0  0  0  0  0
    3.0739   12.2111  -17.4547 C   0  0  0  0  0  0  0  0  0  0  0  0
    2.9225   13.0560  -18.9343 S   0  0  0  0  0  0  0  0  0  0  0  0
    2.2248   11.6577  -19.6793 C   0  0  0  0  0  0  0  0  0  0  0  0
    2.0221   10.6655  -18.7649 C   0  0  0  0  0  0  0  0  0  0  0  0
    1.4431    9.3131  -19.0354 C   0  0  0  0  0  0  0  0  0  0  0  0
    1.9612   11.6100  -21.1656 C   0  0  0  0  0  0  0  0  0  0  0  0
    0.5099   11.5595  -21.6140 C   0  0  0  0  0  0  0  0  0  0  0  0
    0.3756   10.6075  -22.6886 O   0  0  0  0  0  0  0  0  0  0  0  0
   -0.7181    9.4324  -22.6742 P   0  0  2  0  0  0  0  0  0  0  0  0
   -2.0129   10.1816  -22.7221 O   0  0  0  0  0  0  0  0  0  0  0  0
   -0.4852    8.5343  -21.5013 O   0  0  0  0  0  0  0  0  0  0  0  0
   -0.4672    8.6671  -24.0593 O   0  0  0  0  0  0  0  0  0  0  0  0
   -0.4721    7.0654  -24.4446 P   0  0  1  0  0  0  0  0  0  0  0  0
   -0.5287    6.3263  -23.1599 O   0  0  0  0  0  0  0  0  0  0  0  0
   -1.7299    6.8734  -25.3007 O   0  0  0  0  0  0  0  0  0  0  0  0
    0.8279    6.8617  -25.2205 O   0  0  0  0  0  0  0  0  0  0  0  0
    6.6039   10.4669  -11.6777 H   0  0  0  0  0  0  0  0  0  0  0  0
    7.6361    9.6657  -12.9103 H   0  0  0  0  0  0  0  0  0  0  0  0
    7.4607   11.4534  -12.9103 H   0  0  0  0  0  0  0  0  0  0  0  0
    3.6764    7.8624  -16.5072 H   0  0  0  0  0  0  0  0  0  0  0  0
    5.1616    7.2508  -15.7308 H   0  0  0  0  0  0  0  0  0  0  0  0
    3.1434   12.1350  -14.6077 H   0  0  0  0  0  0  0  0  0  0  0  0
    2.4058    9.0666  -16.6815 H   0  0  0  0  0  0  0  0  0  0  0  0
    1.5803   10.3992  -15.7203 H   0  0  0  0  0  0  0  0  0  0  0  0
    3.5942   12.6105  -16.5717 H   0  0  0  0  0  0  0  0  0  0  0  0
    1.2273    8.8091  -18.0818 H   0  0  0  0  0  0  0  0  0  0  0  0
    0.5124    9.4213  -19.6117 H   0  0  0  0  0  0  0  0  0  0  0  0
    2.1637    8.7142  -19.6117 H   0  0  0  0  0  0  0  0  0  0  0  0
    2.4136   12.5085  -21.6105 H   0  0  0  0  0  0  0  0  0  0  0  0
    2.3935   10.6550  -21.4989 H   0  0  0  0  0  0  0  0  0  0  0  0
   -0.1250   11.2526  -20.7698 H   0  0  0  0  0  0  0  0  0  0  0  0
    0.1973   12.5549  -21.9626 H   0  0  0  0  0  0  0  0  0  0  0  0
  1  2  2  0
  1  8  1  0
  2  3  1  0
  2  4  1  0
  4  5  2  0
  5  6  1  0
  5  7  1  0
  7  8  2  0
  7  9  1  0
  9 10  1  0
 10 11  2  0
 10 14  1  0
 11 12  1  0
 12 13  1  0
 13 14  2  0
 13 16  1  0
 14 15  1  0
 16 17  1  0
 17 18  1  0
 18 19  1  0
 19 20  2  0
 19 21  1  1
 19 22  1  0
 22 23  1  0
 23 24  2  0
 23 25  1  6
 23 26  1  0
  3 27  1  0
  3 28  1  0
  3 29  1  0
  6 30  1  0
  6 31  1  0
  8 32  1  0
  9 33  1  0
  9 34  1  0
 11 35  1  0
 15 36  1  0
 15 37  1  0
 15 38  1  0
 16 39  1  0
 16 40  1  0
 17 41  1  0
 17 42  1  0
M  CHG  4  10   1  21  -1  25  -1  26  -1
M  END
>  <filename_input>  (11) 
7A9H_TPP_docked.sdf

>  <pdb_id>  (11) 
7A9H_TPP

>  <pose_rank>  (11) 
10

>  <num_atoms_heavy>  (11) 
26

>  <num_torsions>  (11) 
8

>  <pose>  (11) 
[2.4878792768575764, 11.009782954081077, -17.493781295277905, 2.6704318292783067, 2.0142642768127432, 0.402865932888765, 10.185123023435324, 5.619479430066756, -1.6339282565872106, -1.2476230548712397, -0.851182609207398, -2.1963012474491004, 0.7299449929937778, -4.230276934656341]

>  <energy>  (11) 
-535.6222799438297

>  <inter_energy>  (11) 
-568.2412814796844

>  <intra_energy>  (11) 
31.846734137312367

>  <rmsd>  (11) 
8.90182

>  <sdf_rank>  (11) 
0

$$$$

     RDKit          3D

 42 43  0  0  0  0  0  0  0  0999 V2000
    4.0132    8.6464  -15.2831 N   0  0  0  0  0  0  0  0  0  0  0  0
    5.1927    9.0431  -14.7699 C   0  0  0  0  0  0  0  0  0  0  0  0
    6.3678    8.1224  -14.8850 C   0  0  0  0  0  0  0  0  0  0  0  0
    5.3775   10.1912  -14.1118 N   0  0  0  0  0  0  0  0  0  0  0  0
    4.3159   11.0246  -14.0012 C   0  0  0  0  0  0  0  0  0  0  0  0
    4.5340   12.1995  -13.3837 N   0  0  0  0  0  0  0  0  0  0  0  0
    3.0244   10.6768  -14.4714 C   0  0  0  0  0  0  0  0  0  0  0  0
    2.9637    9.4775  -15.1518 C   0  0  0  0  0  0  0  0  0  0  0  0
    1.8173   11.6150  -14.3536 C   0  0  0  0  0  0  0  0  0  0  0  0
    0.7266   11.3637  -15.3353 N   0  0  0  0  0  0  0  0  0  0  0  0
   -0.4419   10.8193  -14.9796 C   0  0  0  0  0  0  0  0  0  0  0  0
   -1.4917   10.6063  -16.3131 S   0  0  0  0  0  0  0  0  0  0  0  0
   -0.3909   11.4649  -17.3369 C   0  0  0  0  0  0  0  0  0  0  0  0
    0.7627   11.7647  -16.6728 C   0  0  0  0  0  0  0  0  0  0  0  0
    1.9407   12.5014  -17.2270 C   0  0  0  0  0  0  0  0  0  0  0  0
   -0.7655   11.8408  -18.7508 C   0  0  0  0  0  0  0  0  0  0  0  0
   -0.8711   10.7147  -19.7659 C   0  0  0  0  0  0  0  0  0  0  0  0
    0.4336   10.1377  -19.9756 O   0  0  0  0  0  0  0  0  0  0  0  0
    1.3211   10.4509  -21.2762 P   0  0  2  0  0  0  0  0  0  0  0  0
    0.2897   10.6840  -22.3353 O   0  0  0  0  0  0  0  0  0  0  0  0
    2.3020    9.3448  -21.5018 O   0  0  0  0  0  0  0  0  0  0  0  0
    2.0590   11.8244  -20.9070 O   0  0  0  0  0  0  0  0  0  0  0  0
    2.7415   12.9910  -21.8489 P   0  0  1  0  0  0  0  0  0  0  0  0
    1.6204   13.7173  -22.4935 O   0  0  0  0  0  0  0  0  0  0  0  0
    3.5374   13.8654  -20.8724 O   0  0  0  0  0  0  0  0  0  0  0  0
    3.6224   12.2162  -22.8273 O   0  0  0  0  0  0  0  0  0  0  0  0
    6.7183    7.8478  -13.8792 H   0  0  0  0  0  0  0  0  0  0  0  0
    6.0703    7.2146  -15.4302 H   0  0  0  0  0  0  0  0  0  0  0  0
    7.1781    8.6285  -15.4302 H   0  0  0  0  0  0  0  0  0  0  0  0
    3.7629   12.8730  -13.2710 H   0  0  0  0  0  0  0  0  0  0  0  0
    5.4721   12.4256  -13.0236 H   0  0  0  0  0  0  0  0  0  0  0  0
    2.0073    9.1862  -15.6105 H   0  0  0  0  0  0  0  0  0  0  0  0
    1.3981   11.5063  -13.3425 H   0  0  0  0  0  0  0  0  0  0  0  0
    2.1931   12.6272  -14.5643 H   0  0  0  0  0  0  0  0  0  0  0  0
   -0.6987   10.5402  -13.9471 H   0  0  0  0  0  0  0  0  0  0  0  0
    2.5553   12.8856  -16.3996 H   0  0  0  0  0  0  0  0  0  0  0  0
    2.5428   11.8185  -17.8445 H   0  0  0  0  0  0  0  0  0  0  0  0
    1.5904   13.3416  -17.8445 H   0  0  0  0  0  0  0  0  0  0  0  0
   -1.7434   12.3431  -18.7113 H   0  0  0  0  0  0  0  0  0  0  0  0
    0.0667   12.4657  -19.1071 H   0  0  0  0  0  0  0  0  0  0  0  0
   -1.5577    9.9428  -19.3881 H   0  0  0  0  0  0  0  0  0  0  0  0
   -1.2557   11.1112  -20.7171 H   0  0  0  0  0  0  0  0  0  0  0  0
  1  2  2  0
  1  8  1  0
  2  3  1  0
  2  4  1  0
  4  5  2  0
  5  6  1  0
  5  7  1  0
  7  8  2  0
  7  9  1  0
  9 10  1  0
 10 11  2  0
 10 14  1  0
 11 12  1  0
 12 13  1  0
 13 14  2  0
 13 16  1  0
 14 15  1  0
 16 17  1  0
 17 18  1  0
 18 19  1  0
 19 20  2  0
 19 21  1  6
 19 22  1  0
 22 23  1  0
 23 24  2  0
 23 25  1  1
 23 26  1  0
  3 27  1  0
  3 28  1  0
  3 29  1  0
  6 30  1  0
  6 31  1  0
  8 32  1  0
  9 33  1  0
  9 34  1  0
 11 35  1  0
 15 36  1  0
 15 37  1  0
 15 38  1  0
 16 39  1  0
 16 40  1  0
 17 41  1  0
 17 42  1  0
M  CHG  4  10   1  21  -1  25  -1  26  -1
M  END
>  <filename_input>  (12) 
7A9H_TPP_docked.sdf

>  <pdb_id>  (12) 
7A9H_TPP

>  <pose_rank>  (12) 
11

>  <num_atoms_heavy>  (12) 
26

>  <num_torsions>  (12) 
8

>  <pose>  (12) 
[0.7265584616549898, 11.36372502006432, -15.335256846386725, 0.776952655920111, -2.3933730871352226, -0.42049682031193025, 0.045111069019138084, -2.212012661566682, -0.8850757916821245, -6.284275397211465, -4.89129868645137, -3.8727579939222774, 1.8070361894988247, -2.7912511543207246]

>  <energy>  (12) 
-553.7126302541383

>  <inter_energy>  (12) 
-554.5971314212724

>  <intra_energy>  (12) 
6.290983381924891

>  <rmsd>  (12) 
7.78914

>  <sdf_rank>  (12) 
0

$$$$

     RDKit          3D

 42 43  0  0  0  0  0  0  0  0999 V2000
    4.0851   14.6145  -23.9749 N   0  0  0  0  0  0  0  0  0  0  0  0
    4.1609   15.9172  -23.6446 C   0  0  0  0  0  0  0  0  0  0  0  0
    5.1716   16.7736  -24.3424 C   0  0  0  0  0  0  0  0  0  0  0  0
    3.4250   16.4943  -22.6901 N   0  0  0  0  0  0  0  0  0  0  0  0
    2.5131   15.7220  -22.0531 C   0  0  0  0  0  0  0  0  0  0  0  0
    1.7437   16.3322  -21.1340 N   0  0  0  0  0  0  0  0  0  0  0  0
    2.3885   14.3317  -22.3014 C   0  0  0  0  0  0  0  0  0  0  0  0
    3.1857   13.8561  -23.3226 C   0  0  0  0  0  0  0  0  0  0  0  0
    1.3569   13.4500  -21.5876 C   0  0  0  0  0  0  0  0  0  0  0  0
    1.7075   12.0049  -21.5135 N   0  0  0  0  0  0  0  0  0  0  0  0
    2.2812   11.3569  -22.5328 C   0  0  0  0  0  0  0  0  0  0  0  0
    2.5334    9.7003  -22.1896 S   0  0  0  0  0  0  0  0  0  0  0  0
    2.0330    9.9476  -20.5508 C   0  0  0  0  0  0  0  0  0  0  0  0
    1.5841   11.2223  -20.3631 C   0  0  0  0  0  0  0  0  0  0  0  0
    1.0752   11.8053  -19.0830 C   0  0  0  0  0  0  0  0  0  0  0  0
    2.1653    8.8548  -19.5168 C   0  0  0  0  0  0  0  0  0  0  0  0
    3.2726    9.0016  -18.4863 C   0  0  0  0  0  0  0  0  0  0  0  0
    2.8001    8.5308  -17.2080 O   0  0  0  0  0  0  0  0  0  0  0  0
    3.7484    8.4304  -15.9166 P   0  0  2  0  0  0  0  0  0  0  0  0
    5.1204    8.3867  -16.5131 O   0  0  0  0  0  0  0  0  0  0  0  0
    3.3301    7.2734  -15.0663 O   0  0  0  0  0  0  0  0  0  0  0  0
    3.5126    9.8265  -15.1665 O   0  0  0  0  0  0  0  0  0  0  0  0
    4.5645   10.9087  -14.5060 P   0  0  1  0  0  0  0  0  0  0  0  0
    5.8121   10.1589  -14.2209 O   0  0  0  0  0  0  0  0  0  0  0  0
    4.7465   11.9842  -15.5839 O   0  0  0  0  0  0  0  0  0  0  0  0
    3.8465   11.4159  -13.2567 O   0  0  0  0  0  0  0  0  0  0  0  0
    5.7878   17.2958  -23.5957 H   0  0  0  0  0  0  0  0  0  0  0  0
    5.8153   16.1418  -24.9720 H   0  0  0  0  0  0  0  0  0  0  0  0
    4.6541   17.5123  -24.9720 H   0  0  0  0  0  0  0  0  0  0  0  0
    1.0328   15.7941  -20.6182 H   0  0  0  0  0  0  0  0  0  0  0  0
    1.8653   17.3376  -20.9460 H   0  0  0  0  0  0  0  0  0  0  0  0
    3.0802   12.8019  -23.6186 H   0  0  0  0  0  0  0  0  0  0  0  0
    1.2394   13.8256  -20.5604 H   0  0  0  0  0  0  0  0  0  0  0  0
    0.4345   13.5122  -22.1836 H   0  0  0  0  0  0  0  0  0  0  0  0
    2.5592   11.8347  -23.4838 H   0  0  0  0  0  0  0  0  0  0  0  0
    1.5341   11.2795  -18.2327 H   0  0  0  0  0  0  0  0  0  0  0  0
    1.3353   12.8731  -19.0374 H   0  0  0  0  0  0  0  0  0  0  0  0
   -0.0180   11.6919  -19.0374 H   0  0  0  0  0  0  0  0  0  0  0  0
    1.2116    8.7985  -18.9716 H   0  0  0  0  0  0  0  0  0  0  0  0
    2.4299    7.9539  -20.0899 H   0  0  0  0  0  0  0  0  0  0  0  0
    4.1448    8.4077  -18.7971 H   0  0  0  0  0  0  0  0  0  0  0  0
    3.5621   10.0597  -18.4050 H   0  0  0  0  0  0  0  0  0  0  0  0
  1  2  2  0
  1  8  1  0
  2  3  1  0
  2  4  1  0
  4  5  2  0
  5  6  1  0
  5  7  1  0
  7  8  2  0
  7  9  1  0
  9 10  1  0
 10 11  2  0
 10 14  1  0
 11 12  1  0
 12 13  1  0
 13 14  2  0
 13 16  1  0
 14 15  1  0
 16 17  1  0
 17 18  1  0
 18 19  1  0
 19 20  2  0
 19 21  1  1
 19 22  1  0
 22 23  1  0
 23 24  2  0
 23 25  1  6
 23 26  1  0
  3 27  1  0
  3 28  1  0
  3 29  1  0
  6 30  1  0
  6 31  1  0
  8 32  1  0
  9 33  1  0
  9 34  1  0
 11 35  1  0
 15 36  1  0
 15 37  1  0
 15 38  1  0
 16 39  1  0
 16 40  1  0
 17 41  1  0
 17 42  1  0
M  CHG  4  10   1  21  -1  25  -1  26  -1
M  END
>  <filename_input>  (13) 
7A9H_TPP_docked.sdf

>  <pdb_id>  (13) 
7A9H_TPP

>  <pose_rank>  (13) 
12

>  <num_atoms_heavy>  (13) 
26

>  <num_torsions>  (13) 
8

>  <pose>  (13) 
[1.7075303524316239, 12.004949031644076, -21.513512660780606, 0.7738046152259684, 1.0014764514705874, -1.0165943170266982, 3.7562633810789334, -1.3743044616981188, 2.190857529861275, 3.635404501561087, -0.03884025586973145, -3.703131599904272, 2.2347925905139263, 1.8394038310342686]

>  <energy>  (13) 
-531.8632709670595

>  <inter_energy>  (13) 
-567.5619118109158

>  <intra_energy>  (13) 
38.04331331731935

>  <rmsd>  (13) 
4.67959

>  <sdf_rank>  (13) 
0

$$$$

     RDKit          3D

 42 43  0  0  0  0  0  0  0  0999 V2000
    3.1582   11.8861  -21.1567 N   0  0  0  0  0  0  0  0  0  0  0  0
    2.7485   11.0984  -22.1685 C   0  0  0  0  0  0  0  0  0  0  0  0
    3.6116   10.9943  -23.3875 C   0  0  0  0  0  0  0  0  0  0  0  0
    1.5878   10.4366  -22.1827 N   0  0  0  0  0  0  0  0  0  0  0  0
    0.8020   10.5320  -21.0840 C   0  0  0  0  0  0  0  0  0  0  0  0
   -0.3366    9.8159  -21.0935 N   0  0  0  0  0  0  0  0  0  0  0  0
    1.1274   11.3693  -19.9871 C   0  0  0  0  0  0  0  0  0  0  0  0
    2.3598   11.9838  -20.0785 C   0  0  0  0  0  0  0  0  0  0  0  0
    0.2457   11.4812  -18.7377 C   0  0  0  0  0  0  0  0  0  0  0  0
    0.9466   11.9564  -17.5131 N   0  0  0  0  0  0  0  0  0  0  0  0
    2.1079   12.6172  -17.5667 C   0  0  0  0  0  0  0  0  0  0  0  0
    2.7070   13.0046  -16.0122 S   0  0  0  0  0  0  0  0  0  0  0  0
    1.2422   12.4329  -15.2880 C   0  0  0  0  0  0  0  0  0  0  0  0
    0.4233   11.8668  -16.2211 C   0  0  0  0  0  0  0  0  0  0  0  0
   -0.9250   11.2681  -15.9733 C   0  0  0  0  0  0  0  0  0  0  0  0
    0.9662   12.6291  -13.8162 C   0  0  0  0  0  0  0  0  0  0  0  0
    1.9744   12.0528  -12.8359 C   0  0  0  0  0  0  0  0  0  0  0  0
    2.2952   10.7008  -13.2211 O   0  0  0  0  0  0  0  0  0  0  0  0
    3.5966   10.3311  -14.0852 P   0  0  2  0  0  0  0  0  0  0  0  0
    4.2122    9.2155  -13.2999 O   0  0  0  0  0  0  0  0  0  0  0  0
    4.4254   11.5560  -14.3072 O   0  0  0  0  0  0  0  0  0  0  0  0
    2.9905    9.7745  -15.4600 O   0  0  0  0  0  0  0  0  0  0  0  0
    3.2587    8.3782  -16.2919 P   0  0  1  0  0  0  0  0  0  0  0  0
    2.0956    8.1989  -17.1946 O   0  0  0  0  0  0  0  0  0  0  0  0
    4.5707    8.6199  -17.0481 O   0  0  0  0  0  0  0  0  0  0  0  0
    3.3713    7.3097  -15.2059 O   0  0  0  0  0  0  0  0  0  0  0  0
    4.6612   10.8678  -23.0839 H   0  0  0  0  0  0  0  0  0  0  0  0
    3.2963   10.1277  -23.9871 H   0  0  0  0  0  0  0  0  0  0  0  0
    3.5113   11.9111  -23.9871 H   0  0  0  0  0  0  0  0  0  0  0  0
   -0.9732    9.8499  -20.2845 H   0  0  0  0  0  0  0  0  0  0  0  0
   -0.5718    9.2335  -21.9098 H   0  0  0  0  0  0  0  0  0  0  0  0
    2.7072   12.5849  -19.2253 H   0  0  0  0  0  0  0  0  0  0  0  0
   -0.5707   12.1847  -18.9581 H   0  0  0  0  0  0  0  0  0  0  0  0
   -0.1038   10.4621  -18.5158 H   0  0  0  0  0  0  0  0  0  0  0  0
    2.6196   12.8815  -18.5039 H   0  0  0  0  0  0  0  0  0  0  0  0
   -1.0985   11.1911  -14.8898 H   0  0  0  0  0  0  0  0  0  0  0  0
   -1.6984   11.9074  -16.4240 H   0  0  0  0  0  0  0  0  0  0  0  0
   -0.9694   10.2657  -16.4240 H   0  0  0  0  0  0  0  0  0  0  0  0
    0.9080   13.7121  -13.6323 H   0  0  0  0  0  0  0  0  0  0  0  0
    0.0368   12.0722  -13.6261 H   0  0  0  0  0  0  0  0  0  0  0  0
    2.8886   12.6646  -12.8469 H   0  0  0  0  0  0  0  0  0  0  0  0
    1.5460   12.0554  -11.8228 H   0  0  0  0  0  0  0  0  0  0  0  0
  1  2  2  0
  1  8  1  0
  2  3  1  0
  2  4  1  0
  4  5  2  0
  5  6  1  0
  5  7  1  0
  7  8  2  0
  7  9  1  0
  9 10  1  0
 10 11  2  0
 10 14  1  0
 11 12  1  0
 12 13  1  0
 13 14  2  0
 13 16  1  0
 14 15  1  0
 16 17  1  0
 17 18  1  0
 18 19  1  0
 19 20  2  0
 19 21  1  6
 19 22  1  0
 22 23  1  0
 23 24  2  0
 23 25  1  6
 23 26  1  0
  3 27  1  0
  3 28  1  0
  3 29  1  0
  6 30  1  0
  6 31  1  0
  8 32  1  0
  9 33  1  0
  9 34  1  0
 11 35  1  0
 15 36  1  0
 15 37  1  0
 15 38  1  0
 16 39  1  0
 16 40  1  0
 17 41  1  0
 17 42  1  0
M  CHG  4  10   1  21  -1  25  -1  26  -1
M  END
>  <filename_input>  (14) 
7A9H_TPP_docked.sdf

>  <pdb_id>  (14) 
7A9H_TPP

>  <pose_rank>  (14) 
13

>  <num_atoms_heavy>  (14) 
26

>  <num_torsions>  (14) 
8

>  <pose>  (14) 
[0.9465608131932651, 11.956399097985685, -17.51309011984057, 4.002620634614179, -2.4876897153823525, -3.3402672079368374, -1.4915955007301298, -2.1938317433575922, 5.61746881043647, 0.3365020002430275, -1.3963374949961653, -1.058462406627447, 2.34331331510065, -1.2600935367562776]

>  <energy>  (14) 
-423.5783640457296

>  <inter_energy>  (14) 
-540.9105464390627

>  <intra_energy>  (14) 
114.15825516729231

>  <rmsd>  (14) 
3.78035

>  <sdf_rank>  (14) 
0

$$$$

     RDKit          3D

 42 43  0  0  0  0  0  0  0  0999 V2000
    6.2582    8.7674  -14.0384 N   0  0  0  0  0  0  0  0  0  0  0  0
    6.7067    9.9316  -13.5331 C   0  0  0  0  0  0  0  0  0  0  0  0
    8.0749    9.9672  -12.9262 C   0  0  0  0  0  0  0  0  0  0  0  0
    5.9881   11.0573  -13.4878 N   0  0  0  0  0  0  0  0  0  0  0  0
    4.7481   11.0280  -14.0314 C   0  0  0  0  0  0  0  0  0  0  0  0
    4.0605   12.1840  -14.0260 N   0  0  0  0  0  0  0  0  0  0  0  0
    4.1729    9.8399  -14.5487 C   0  0  0  0  0  0  0  0  0  0  0  0
    5.0186    8.7493  -14.5606 C   0  0  0  0  0  0  0  0  0  0  0  0
    2.7712    9.7977  -15.1689 C   0  0  0  0  0  0  0  0  0  0  0  0
    2.7350    9.4722  -16.6212 N   0  0  0  0  0  0  0  0  0  0  0  0
    2.6062    8.2185  -17.0683 C   0  0  0  0  0  0  0  0  0  0  0  0
    2.6370    8.1318  -18.7763 S   0  0  0  0  0  0  0  0  0  0  0  0
    2.6199    9.8599  -18.8799 C   0  0  0  0  0  0  0  0  0  0  0  0
    2.7160   10.4255  -17.6420 C   0  0  0  0  0  0  0  0  0  0  0  0
    2.7290   11.8890  -17.3328 C   0  0  0  0  0  0  0  0  0  0  0  0
    2.4585   10.5646  -20.2059 C   0  0  0  0  0  0  0  0  0  0  0  0
    1.1070   11.1944  -20.4997 C   0  0  0  0  0  0  0  0  0  0  0  0
    1.2079   12.6262  -20.3624 O   0  0  0  0  0  0  0  0  0  0  0  0
    1.8410   13.5639  -21.5013 P   0  0  2  0  0  0  0  0  0  0  0  0
    2.0155   14.8727  -20.7966 O   0  0  0  0  0  0  0  0  0  0  0  0
    0.9702   13.5471  -22.7170 O   0  0  0  0  0  0  0  0  0  0  0  0
    3.2675   12.8940  -21.7910 O   0  0  0  0  0  0  0  0  0  0  0  0
    3.9002   12.2022  -23.1455 P   0  0  1  0  0  0  0  0  0  0  0  0
    2.9093   11.1983  -23.6044 O   0  0  0  0  0  0  0  0  0  0  0  0
    4.0754   13.3633  -24.1318 O   0  0  0  0  0  0  0  0  0  0  0  0
    5.2227   11.5986  -22.6764 O   0  0  0  0  0  0  0  0  0  0  0  0
    7.9897    9.9650  -11.8295 H   0  0  0  0  0  0  0  0  0  0  0  0
    8.6434    9.0836  -13.2515 H   0  0  0  0  0  0  0  0  0  0  0  0
    8.5967   10.8793  -13.2515 H   0  0  0  0  0  0  0  0  0  0  0  0
    3.1122   12.2209  -14.4262 H   0  0  0  0  0  0  0  0  0  0  0  0
    4.4823   13.0322  -13.6218 H   0  0  0  0  0  0  0  0  0  0  0  0
    4.6604    7.8168  -15.0211 H   0  0  0  0  0  0  0  0  0  0  0  0
    2.1842    9.0367  -14.6339 H   0  0  0  0  0  0  0  0  0  0  0  0
    2.3614   10.8139  -15.0715 H   0  0  0  0  0  0  0  0  0  0  0  0
    2.4931    7.3428  -16.4124 H   0  0  0  0  0  0  0  0  0  0  0  0
    2.7303   12.0333  -16.2423 H   0  0  0  0  0  0  0  0  0  0  0  0
    3.6313   12.3469  -17.7643 H   0  0  0  0  0  0  0  0  0  0  0  0
    1.8351   12.3629  -17.7643 H   0  0  0  0  0  0  0  0  0  0  0  0
    3.2124   11.3645  -20.2489 H   0  0  0  0  0  0  0  0  0  0  0  0
    2.5724    9.7739  -20.9620 H   0  0  0  0  0  0  0  0  0  0  0  0
    0.8006   10.9445  -21.5262 H   0  0  0  0  0  0  0  0  0  0  0  0
    0.3590   10.8084  -19.7915 H   0  0  0  0  0  0  0  0  0  0  0  0
  1  2  2  0
  1  8  1  0
  2  3  1  0
  2  4  1  0
  4  5  2  0
  5  6  1  0
  5  7  1  0
  7  8  2  0
  7  9  1  0
  9 10  1  0
 10 11  2  0
 10 14  1  0
 11 12  1  0
 12 13  1  0
 13 14  2  0
 13 16  1  0
 14 15  1  0
 16 17  1  0
 17 18  1  0
 18 19  1  0
 19 20  2  0
 19 21  1  6
 19 22  1  0
 22 23  1  0
 23 24  2  0
 23 25  1  6
 23 26  1  0
  3 27  1  0
  3 28  1  0
  3 29  1  0
  6 30  1  0
  6 31  1  0
  8 32  1  0
  9 33  1  0
  9 34  1  0
 11 35  1  0
 15 36  1  0
 15 37  1  0
 15 38  1  0
 16 39  1  0
 16 40  1  0
 17 41  1  0
 17 42  1  0
M  CHG  4  10   1  21  -1  25  -1  26  -1
M  END
>  <filename_input>  (15) 
7A9H_TPP_docked.sdf

>  <pdb_id>  (15) 
7A9H_TPP

>  <pose_rank>  (15) 
14

>  <num_atoms_heavy>  (15) 
26

>  <num_torsions>  (15) 
8

>  <pose>  (15) 
[2.7350329350874585, 9.4721613900668, -16.62121719013542, 2.315607469877517, -1.9943859288367394, -0.28754215148340606, 12.332517346307407, 3.3445952712149616, -4.107387111126026, -15.859317081160718, -26.844639649484307, -12.538198525670335, -12.231227884320917, 1.326358747602571]

>  <energy>  (15) 
-564.9426980407106

>  <inter_energy>  (15) 
-584.707294512154

>  <intra_energy>  (15) 
23.14093667852351

>  <rmsd>  (15) 
8.66728

>  <sdf_rank>  (15) 
0

$$$$

     RDKit          3D

 42 43  0  0  0  0  0  0  0  0999 V2000
    2.4471   15.3115  -23.2550 N   0  0  0  0  0  0  0  0  0  0  0  0
    2.6374   16.4352  -22.5387 C   0  0  0  0  0  0  0  0  0  0  0  0
    3.4827   17.5225  -23.1261 C   0  0  0  0  0  0  0  0  0  0  0  0
    2.1626   16.6289  -21.3048 N   0  0  0  0  0  0  0  0  0  0  0  0
    1.4016   15.6458  -20.7679 C   0  0  0  0  0  0  0  0  0  0  0  0
    0.8869   15.8807  -19.5476 N   0  0  0  0  0  0  0  0  0  0  0  0
    1.1804   14.4102  -21.4269 C   0  0  0  0  0  0  0  0  0  0  0  0
    1.7024   14.3372  -22.7024 C   0  0  0  0  0  0  0  0  0  0  0  0
    0.3178   13.2927  -20.8284 C   0  0  0  0  0  0  0  0  0  0  0  0
    1.0103   11.9859  -20.6574 N   0  0  0  0  0  0  0  0  0  0  0  0
    0.9601   11.0250  -21.5860 C   0  0  0  0  0  0  0  0  0  0  0  0
    1.8081    9.6176  -21.1106 S   0  0  0  0  0  0  0  0  0  0  0  0
    2.4106   10.4353  -19.7087 C   0  0  0  0  0  0  0  0  0  0  0  0
    1.8577   11.6770  -19.5908 C   0  0  0  0  0  0  0  0  0  0  0  0
    2.1372   12.6749  -18.5120 C   0  0  0  0  0  0  0  0  0  0  0  0
    3.4544    9.8023  -18.8195 C   0  0  0  0  0  0  0  0  0  0  0  0
    2.9648    9.0886  -17.5703 C   0  0  0  0  0  0  0  0  0  0  0  0
    1.5313    9.2150  -17.4796 O   0  0  0  0  0  0  0  0  0  0  0  0
    0.7887    9.7306  -16.1530 P   0  0  2  0  0  0  0  0  0  0  0  0
    0.7264    8.4984  -15.3057 O   0  0  0  0  0  0  0  0  0  0  0  0
   -0.5072   10.3831  -16.5156 O   0  0  0  0  0  0  0  0  0  0  0  0
    1.8221   10.7834  -15.5277 O   0  0  0  0  0  0  0  0  0  0  0  0
    1.6308   11.9756  -14.4070 P   0  0  1  0  0  0  0  0  0  0  0  0
    2.8851   12.0117  -13.6162 O   0  0  0  0  0  0  0  0  0  0  0  0
    1.4049   13.2509  -15.2281 O   0  0  0  0  0  0  0  0  0  0  0  0
    0.4043   11.5441  -13.6051 O   0  0  0  0  0  0  0  0  0  0  0  0
    3.9394   18.1100  -22.3160 H   0  0  0  0  0  0  0  0  0  0  0  0
    4.2739   17.0769  -23.7469 H   0  0  0  0  0  0  0  0  0  0  0  0
    2.8557   18.1794  -23.7469 H   0  0  0  0  0  0  0  0  0  0  0  0
    0.3002   15.1683  -19.0903 H   0  0  0  0  0  0  0  0  0  0  0  0
    1.0795   16.7730  -19.0705 H   0  0  0  0  0  0  0  0  0  0  0  0
    1.4988   13.4352  -23.2982 H   0  0  0  0  0  0  0  0  0  0  0  0
   -0.0332   13.6247  -19.8402 H   0  0  0  0  0  0  0  0  0  0  0  0
   -0.4978   13.1167  -21.5452 H   0  0  0  0  0  0  0  0  0  0  0  0
    0.4334   11.1278  -22.5462 H   0  0  0  0  0  0  0  0  0  0  0  0
    2.0040   12.1994  -17.5291 H   0  0  0  0  0  0  0  0  0  0  0  0
    3.1714   13.0374  -18.6069 H   0  0  0  0  0  0  0  0  0  0  0  0
    1.4416   13.5218  -18.6069 H   0  0  0  0  0  0  0  0  0  0  0  0
    4.0039    9.0674  -19.4262 H   0  0  0  0  0  0  0  0  0  0  0  0
    4.0563   10.6441  -18.4466 H   0  0  0  0  0  0  0  0  0  0  0  0
    3.2370    8.0242  -17.6248 H   0  0  0  0  0  0  0  0  0  0  0  0
    3.4312    9.5393  -16.6819 H   0  0  0  0  0  0  0  0  0  0  0  0
  1  2  2  0
  1  8  1  0
  2  3  1  0
  2  4  1  0
  4  5  2  0
  5  6  1  0
  5  7  1  0
  7  8  2  0
  7  9  1  0
  9 10  1  0
 10 11  2  0
 10 14  1  0
 11 12  1  0
 12 13  1  0
 13 14  2  0
 13 16  1  0
 14 15  1  0
 16 17  1  0
 17 18  1  0
 18 19  1  0
 19 20  2  0
 19 21  1  6
 19 22  1  0
 22 23  1  0
 23 24  2  0
 23 25  1  6
 23 26  1  0
  3 27  1  0
  3 28  1  0
  3 29  1  0
  6 30  1  0
  6 31  1  0
  8 32  1  0
  9 33  1  0
  9 34  1  0
 11 35  1  0
 15 36  1  0
 15 37  1  0
 15 38  1  0
 16 39  1  0
 16 40  1  0
 17 41  1  0
 17 42  1  0
M  CHG  4  10   1  21  -1  25  -1  26  -1
M  END
>  <filename_input>  (16) 
7A9H_TPP_docked.sdf

>  <pdb_id>  (16) 
7A9H_TPP

>  <pose_rank>  (16) 
15

>  <num_atoms_heavy>  (16) 
26

>  <num_torsions>  (16) 
8

>  <pose>  (16) 
[1.0103424237186238, 11.985896442217431, -20.657443968267604, 0.0006305955949378887, -3.1942647602636325, 2.935500111680878, -3.4691735521037814, 5.484225359944112, -13.916991111207489, 1.1200717575178478, 26.07361242673801, 1.5221194569159395, -11.441744860203482, -1.5353495204775132]

>  <energy>  (16) 
-438.18426726904795

>  <inter_energy>  (16) 
-448.54309975853795

>  <intra_energy>  (16) 
9.384305280998536

>  <rmsd>  (16) 
4.99848

>  <sdf_rank>  (16) 
0

$$$$

     RDKit          3D

 42 43  0  0  0  0  0  0  0  0999 V2000
    2.3944   15.8097  -22.3114 N   0  0  0  0  0  0  0  0  0  0  0  0
    3.3829   15.9803  -23.2090 C   0  0  0  0  0  0  0  0  0  0  0  0
    3.8525   17.3720  -23.4987 C   0  0  0  0  0  0  0  0  0  0  0  0
    3.9445   14.9879  -23.9056 N   0  0  0  0  0  0  0  0  0  0  0  0
    3.5190   13.7279  -23.6501 C   0  0  0  0  0  0  0  0  0  0  0  0
    4.1335   12.7369  -24.3205 N   0  0  0  0  0  0  0  0  0  0  0  0
    2.4554   13.4519  -22.7543 C   0  0  0  0  0  0  0  0  0  0  0  0
    1.9710   14.5541  -22.0795 C   0  0  0  0  0  0  0  0  0  0  0  0
    1.9690   12.0286  -22.4562 C   0  0  0  0  0  0  0  0  0  0  0  0
    2.0953   11.6050  -21.0345 N   0  0  0  0  0  0  0  0  0  0  0  0
    3.2220   11.7788  -20.3357 C   0  0  0  0  0  0  0  0  0  0  0  0
    3.1009   11.1628  -18.7445 S   0  0  0  0  0  0  0  0  0  0  0  0
    1.4144   10.8487  -18.9778 C   0  0  0  0  0  0  0  0  0  0  0  0
    1.0432   11.1008  -20.2663 C   0  0  0  0  0  0  0  0  0  0  0  0
   -0.3296   10.9493  -20.8409 C   0  0  0  0  0  0  0  0  0  0  0  0
    0.5326   10.4100  -17.8330 C   0  0  0  0  0  0  0  0  0  0  0  0
    1.2068    9.7157  -16.6612 C   0  0  0  0  0  0  0  0  0  0  0  0
    0.4204    9.9187  -15.4698 O   0  0  0  0  0  0  0  0  0  0  0  0
    0.8877   10.8862  -14.2770 P   0  0  2  0  0  0  0  0  0  0  0  0
   -0.1784   10.6835  -13.2463 O   0  0  0  0  0  0  0  0  0  0  0  0
    1.0887   12.2743  -14.7961 O   0  0  0  0  0  0  0  0  0  0  0  0
    2.2676   10.2375  -13.7843 O   0  0  0  0  0  0  0  0  0  0  0  0
    3.7288   10.0716  -14.5265 P   0  0  1  0  0  0  0  0  0  0  0  0
    3.7438   11.0469  -15.6438 O   0  0  0  0  0  0  0  0  0  0  0  0
    4.7590   10.3943  -13.4373 O   0  0  0  0  0  0  0  0  0  0  0  0
    3.7578    8.6121  -14.9769 O   0  0  0  0  0  0  0  0  0  0  0  0
    4.0317   17.9030  -22.5522 H   0  0  0  0  0  0  0  0  0  0  0  0
    4.7865   17.3307  -24.0784 H   0  0  0  0  0  0  0  0  0  0  0  0
    3.0845   17.9050  -24.0784 H   0  0  0  0  0  0  0  0  0  0  0  0
    3.8512   11.7585  -24.1662 H   0  0  0  0  0  0  0  0  0  0  0  0
    4.8864   12.9565  -24.9883 H   0  0  0  0  0  0  0  0  0  0  0  0
    1.1986   14.3977  -21.3121 H   0  0  0  0  0  0  0  0  0  0  0  0
    0.9077   11.9646  -22.7383 H   0  0  0  0  0  0  0  0  0  0  0  0
    2.6167   11.3547  -23.0363 H   0  0  0  0  0  0  0  0  0  0  0  0
    4.1241   12.2628  -20.7382 H   0  0  0  0  0  0  0  0  0  0  0  0
   -1.0620   10.8685  -20.0242 H   0  0  0  0  0  0  0  0  0  0  0  0
   -0.5666   11.8268  -21.4605 H   0  0  0  0  0  0  0  0  0  0  0  0
   -0.3696   10.0413  -21.4605 H   0  0  0  0  0  0  0  0  0  0  0  0
    0.0293   11.3062  -17.4412 H   0  0  0  0  0  0  0  0  0  0  0  0
   -0.1352    9.6504  -18.2655 H   0  0  0  0  0  0  0  0  0  0  0  0
    1.2872    8.6386  -16.8692 H   0  0  0  0  0  0  0  0  0  0  0  0
    2.2131   10.1350  -16.5142 H   0  0  0  0  0  0  0  0  0  0  0  0
  1  2  2  0
  1  8  1  0
  2  3  1  0
  2  4  1  0
  4  5  2  0
  5  6  1  0
  5  7  1  0
  7  8  2  0
  7  9  1  0
  9 10  1  0
 10 11  2  0
 10 14  1  0
 11 12  1  0
 12 13  1  0
 13 14  2  0
 13 16  1  0
 14 15  1  0
 16 17  1  0
 17 18  1  0
 18 19  1  0
 19 20  2  0
 19 21  1  6
 19 22  1  0
 22 23  1  0
 23 24  2  0
 23 25  1  1
 23 26  1  0
  3 27  1  0
  3 28  1  0
  3 29  1  0
  6 30  1  0
  6 31  1  0
  8 32  1  0
  9 33  1  0
  9 34  1  0
 11 35  1  0
 15 36  1  0
 15 37  1  0
 15 38  1  0
 16 39  1  0
 16 40  1  0
 17 41  1  0
 17 42  1  0
M  CHG  4  10   1  21  -1  25  -1  26  -1
M  END
>  <filename_input>  (17) 
7A9H_TPP_docked.sdf

>  <pdb_id>  (17) 
7A9H_TPP

>  <pose_rank>  (17) 
16

>  <num_atoms_heavy>  (17) 
26

>  <num_torsions>  (17) 
8

>  <pose>  (17) 
[2.0952709082159475, 11.605030737318934, -21.03449678900135, -3.6670335656977815, 4.695825074070836, -0.5538923825545133, 9.891497141928635, -2.870862804055918, 6.199272139357255, 10.119878088552703, 32.71814350127302, 18.735080114931055, -0.5593908310702693, 2.5576988881044036]

>  <energy>  (17) 
-435.77260691709614

>  <inter_energy>  (17) 
-477.7731777885279

>  <intra_energy>  (17) 
41.60245771148578

>  <rmsd>  (17) 
4.35045

>  <sdf_rank>  (17) 
0

$$$$

     RDKit          3D

 42 43  0  0  0  0  0  0  0  0999 V2000
    5.0594   11.2513  -13.4866 N   0  0  0  0  0  0  0  0  0  0  0  0
    5.9166   10.2394  -13.7175 C   0  0  0  0  0  0  0  0  0  0  0  0
    7.2119   10.2150  -12.9669 C   0  0  0  0  0  0  0  0  0  0  0  0
    5.7130    9.2730  -14.6175 N   0  0  0  0  0  0  0  0  0  0  0  0
    4.5448    9.2942  -15.3020 C   0  0  0  0  0  0  0  0  0  0  0  0
    4.3331    8.2836  -16.1640 N   0  0  0  0  0  0  0  0  0  0  0  0
    3.5991   10.3408  -15.1591 C   0  0  0  0  0  0  0  0  0  0  0  0
    3.9101   11.2681  -14.1854 C   0  0  0  0  0  0  0  0  0  0  0  0
    2.2724   10.3717  -15.9274 C   0  0  0  0  0  0  0  0  0  0  0  0
    1.6481   11.7175  -16.0515 N   0  0  0  0  0  0  0  0  0  0  0  0
    2.2573   12.8287  -15.6247 C   0  0  0  0  0  0  0  0  0  0  0  0
    1.2961   14.2250  -15.8533 S   0  0  0  0  0  0  0  0  0  0  0  0
    0.1295   13.2969  -16.7334 C   0  0  0  0  0  0  0  0  0  0  0  0
    0.4438   11.9693  -16.7131 C   0  0  0  0  0  0  0  0  0  0  0  0
   -0.3249   10.8645  -17.3657 C   0  0  0  0  0  0  0  0  0  0  0  0
   -1.0238   13.9607  -17.4477 C   0  0  0  0  0  0  0  0  0  0  0  0
   -0.8734   14.1991  -18.9411 C   0  0  0  0  0  0  0  0  0  0  0  0
   -0.2661   13.0417  -19.5501 O   0  0  0  0  0  0  0  0  0  0  0  0
    1.1233   13.1122  -20.3512 P   0  0  2  0  0  0  0  0  0  0  0  0
    2.1399   12.8900  -19.2754 O   0  0  0  0  0  0  0  0  0  0  0  0
    1.2033   14.3922  -21.1204 O   0  0  0  0  0  0  0  0  0  0  0  0
    1.0603   11.8430  -21.3272 O   0  0  0  0  0  0  0  0  0  0  0  0
    1.2331   10.2298  -21.0419 P   0  0  1  0  0  0  0  0  0  0  0  0
    1.6798   10.0994  -19.6336 O   0  0  0  0  0  0  0  0  0  0  0  0
   -0.1611    9.6388  -21.2840 O   0  0  0  0  0  0  0  0  0  0  0  0
    2.2715    9.7762  -22.0664 O   0  0  0  0  0  0  0  0  0  0  0  0
    7.0093   10.2188  -11.8858 H   0  0  0  0  0  0  0  0  0  0  0  0
    7.7720    9.3061  -13.2318 H   0  0  0  0  0  0  0  0  0  0  0  0
    7.8059   11.1021  -13.2318 H   0  0  0  0  0  0  0  0  0  0  0  0
    3.4616    8.2480  -16.7119 H   0  0  0  0  0  0  0  0  0  0  0  0
    5.0424    7.5452  -16.2761 H   0  0  0  0  0  0  0  0  0  0  0  0
    3.1802   12.0622  -13.9695 H   0  0  0  0  0  0  0  0  0  0  0  0
    2.4560    9.9859  -16.9410 H   0  0  0  0  0  0  0  0  0  0  0  0
    1.5672    9.7581  -15.3475 H   0  0  0  0  0  0  0  0  0  0  0  0
    3.2622   12.8432  -15.1775 H   0  0  0  0  0  0  0  0  0  0  0  0
   -0.7717   10.2222  -16.5925 H   0  0  0  0  0  0  0  0  0  0  0  0
   -1.1214   11.2923  -17.9923 H   0  0  0  0  0  0  0  0  0  0  0  0
    0.3532   10.2664  -17.9923 H   0  0  0  0  0  0  0  0  0  0  0  0
   -1.9115   13.3276  -17.3017 H   0  0  0  0  0  0  0  0  0  0  0  0
   -1.0889   14.9660  -17.0060 H   0  0  0  0  0  0  0  0  0  0  0  0
   -1.8640   14.3717  -19.3871 H   0  0  0  0  0  0  0  0  0  0  0  0
   -0.2380   15.0808  -19.1111 H   0  0  0  0  0  0  0  0  0  0  0  0
  1  2  2  0
  1  8  1  0
  2  3  1  0
  2  4  1  0
  4  5  2  0
  5  6  1  0
  5  7  1  0
  7  8  2  0
  7  9  1  0
  9 10  1  0
 10 11  2  0
 10 14  1  0
 11 12  1  0
 12 13  1  0
 13 14  2  0
 13 16  1  0
 14 15  1  0
 16 17  1  0
 17 18  1  0
 18 19  1  0
 19 20  2  0
 19 21  1  6
 19 22  1  0
 22 23  1  0
 23 24  2  0
 23 25  1  1
 23 26  1  0
  3 27  1  0
  3 28  1  0
  3 29  1  0
  6 30  1  0
  6 31  1  0
  8 32  1  0
  9 33  1  0
  9 34  1  0
 11 35  1  0
 15 36  1  0
 15 37  1  0
 15 38  1  0
 16 39  1  0
 16 40  1  0
 17 41  1  0
 17 42  1  0
M  CHG  4  10   1  21  -1  25  -1  26  -1
M  END
>  <filename_input>  (18) 
7A9H_TPP_docked.sdf

>  <pdb_id>  (18) 
7A9H_TPP

>  <pose_rank>  (18) 
17

>  <num_atoms_heavy>  (18) 
26

>  <num_torsions>  (18) 
8

>  <pose>  (18) 
[1.648065177602873, 11.71753245714174, -16.051535095484695, 3.477801493726524, 2.5912414217631197, 0.11837464957246137, -1.7396865440954803, 4.8540996967795405, 8.344268463876498, 27.013921460298803, 32.50182353321345, 23.349429662664075, 3.272427768262365, 2.0872899873709745]

>  <energy>  (18) 
-458.6731838134472

>  <inter_energy>  (18) 
-529.6267964558716

>  <intra_energy>  (18) 
78.2509549891028

>  <rmsd>  (18) 
7.89737

>  <sdf_rank>  (18) 
0

$$$$

     RDKit          3D

 42 43  0  0  0  0  0  0  0  0999 V2000
    0.9360   16.1034  -18.9004 N   0  0  0  0  0  0  0  0  0  0  0  0
    1.1058   17.3375  -19.4104 C   0  0  0  0  0  0  0  0  0  0  0  0
    0.6717   18.5144  -18.5931 C   0  0  0  0  0  0  0  0  0  0  0  0
    1.5920   17.5859  -20.6300 N   0  0  0  0  0  0  0  0  0  0  0  0
    1.9813   16.5239  -21.3745 C   0  0  0  0  0  0  0  0  0  0  0  0
    2.5188   16.7957  -22.5771 N   0  0  0  0  0  0  0  0  0  0  0  0
    1.8032   15.1858  -20.9412 C   0  0  0  0  0  0  0  0  0  0  0  0
    1.3125   15.0574  -19.6576 C   0  0  0  0  0  0  0  0  0  0  0  0
    2.2438   13.9771  -21.7756 C   0  0  0  0  0  0  0  0  0  0  0  0
    1.8705   12.6517  -21.2096 N   0  0  0  0  0  0  0  0  0  0  0  0
    0.8477   11.9346  -21.6868 C   0  0  0  0  0  0  0  0  0  0  0  0
    0.6188   10.4757  -20.8237 S   0  0  0  0  0  0  0  0  0  0  0  0
    2.0739   10.7583  -19.9293 C   0  0  0  0  0  0  0  0  0  0  0  0
    2.5997   11.9824  -20.2240 C   0  0  0  0  0  0  0  0  0  0  0  0
    3.8497   12.5729  -19.6528 C   0  0  0  0  0  0  0  0  0  0  0  0
    2.6449    9.7069  -19.0077 C   0  0  0  0  0  0  0  0  0  0  0  0
    1.8729    9.4038  -17.7342 C   0  0  0  0  0  0  0  0  0  0  0  0
    2.1266   10.4403  -16.7645 O   0  0  0  0  0  0  0  0  0  0  0  0
    1.9763   10.2041  -15.1837 P   0  0  2  0  0  0  0  0  0  0  0  0
    0.6233    9.5747  -15.0679 O   0  0  0  0  0  0  0  0  0  0  0  0
    2.2028   11.4891  -14.4530 O   0  0  0  0  0  0  0  0  0  0  0  0
    3.1188    9.1306  -14.8528 O   0  0  0  0  0  0  0  0  0  0  0  0
    4.7273    9.0956  -15.2066 P   0  0  1  0  0  0  0  0  0  0  0  0
    4.8330    8.7154  -16.6363 O   0  0  0  0  0  0  0  0  0  0  0  0
    5.2194   10.5212  -14.9291 O   0  0  0  0  0  0  0  0  0  0  0  0
    5.3010    8.0567  -14.2446 O   0  0  0  0  0  0  0  0  0  0  0  0
    0.7613   18.2714  -17.5240 H   0  0  0  0  0  0  0  0  0  0  0  0
    1.3100   19.3791  -18.8273 H   0  0  0  0  0  0  0  0  0  0  0  0
   -0.3753   18.7574  -18.8273 H   0  0  0  0  0  0  0  0  0  0  0  0
    2.8329   16.0270  -23.1865 H   0  0  0  0  0  0  0  0  0  0  0  0
    2.6164   17.7726  -22.8887 H   0  0  0  0  0  0  0  0  0  0  0  0
    1.2247   14.0470  -19.2317 H   0  0  0  0  0  0  0  0  0  0  0  0
    1.7847   14.0644  -22.7714 H   0  0  0  0  0  0  0  0  0  0  0  0
    3.3433   14.0033  -21.7977 H   0  0  0  0  0  0  0  0  0  0  0  0
    0.2245   12.2472  -22.5376 H   0  0  0  0  0  0  0  0  0  0  0  0
    3.7981   12.5485  -18.5542 H   0  0  0  0  0  0  0  0  0  0  0  0
    4.7188   11.9902  -19.9920 H   0  0  0  0  0  0  0  0  0  0  0  0
    3.9515   13.6144  -19.9920 H   0  0  0  0  0  0  0  0  0  0  0  0
    2.7190    8.7705  -19.5802 H   0  0  0  0  0  0  0  0  0  0  0  0
    3.6041   10.1222  -18.6648 H   0  0  0  0  0  0  0  0  0  0  0  0
    0.7965    9.3651  -17.9576 H   0  0  0  0  0  0  0  0  0  0  0  0
    2.1966    8.4335  -17.3295 H   0  0  0  0  0  0  0  0  0  0  0  0
  1  2  2  0
  1  8  1  0
  2  3  1  0
  2  4  1  0
  4  5  2  0
  5  6  1  0
  5  7  1  0
  7  8  2  0
  7  9  1  0
  9 10  1  0
 10 11  2  0
 10 14  1  0
 11 12  1  0
 12 13  1  0
 13 14  2  0
 13 16  1  0
 14 15  1  0
 16 17  1  0
 17 18  1  0
 18 19  1  0
 19 20  2  0
 19 21  1  1
 19 22  1  0
 22 23  1  0
 23 24  2  0
 23 25  1  6
 23 26  1  0
  3 27  1  0
  3 28  1  0
  3 29  1  0
  6 30  1  0
  6 31  1  0
  8 32  1  0
  9 33  1  0
  9 34  1  0
 11 35  1  0
 15 36  1  0
 15 37  1  0
 15 38  1  0
 16 39  1  0
 16 40  1  0
 17 41  1  0
 17 42  1  0
M  CHG  4  10   1  21  -1  25  -1  26  -1
M  END
>  <filename_input>  (19) 
7A9H_TPP_docked.sdf

>  <pdb_id>  (19) 
7A9H_TPP

>  <pose_rank>  (19) 
18

>  <num_atoms_heavy>  (19) 
26

>  <num_torsions>  (19) 
8

>  <pose>  (19) 
[1.870518680271958, 12.651669016238559, -21.209618962449415, 0.22601430465474126, 1.5072706693044502, -2.2902520073611794, -0.03884991725028356, -1.7149907291283062, -0.8711257314337065, -0.20738155333125952, 0.4747673231261237, 2.0824776707656825, -0.8230254896171879, 0.8893910061822121]

>  <energy>  (19) 
-472.8020262314887

>  <inter_energy>  (19) 
-484.334890996008

>  <intra_energy>  (19) 
17.6347995074412

>  <rmsd>  (19) 
5.52953

>  <sdf_rank>  (19) 
0

$$$$

     RDKit          3D

 42 43  0  0  0  0  0  0  0  0999 V2000
   -0.7479   11.2276  -21.7526 N   0  0  0  0  0  0  0  0  0  0  0  0
   -0.8007   10.0376  -22.3796 C   0  0  0  0  0  0  0  0  0  0  0  0
   -2.1421    9.4797  -22.7416 C   0  0  0  0  0  0  0  0  0  0  0  0
    0.2692    9.2870  -22.6577 N   0  0  0  0  0  0  0  0  0  0  0  0
    1.4840    9.7858  -22.3275 C   0  0  0  0  0  0  0  0  0  0  0  0
    2.5527    9.0417  -22.6643 N   0  0  0  0  0  0  0  0  0  0  0  0
    1.6387   11.0092  -21.6278 C   0  0  0  0  0  0  0  0  0  0  0  0
    0.4647   11.7032  -21.4164 C   0  0  0  0  0  0  0  0  0  0  0  0
    3.0100   11.5835  -21.2525 C   0  0  0  0  0  0  0  0  0  0  0  0
    3.0383   12.3716  -19.9897 N   0  0  0  0  0  0  0  0  0  0  0  0
    3.3645   13.6681  -19.9650 C   0  0  0  0  0  0  0  0  0  0  0  0
    3.3562   14.3098  -18.3795 S   0  0  0  0  0  0  0  0  0  0  0  0
    2.6967   12.8307  -17.7676 C   0  0  0  0  0  0  0  0  0  0  0  0
    2.6266   11.8837  -18.7473 C   0  0  0  0  0  0  0  0  0  0  0  0
    2.1097   10.4880  -18.5980 C   0  0  0  0  0  0  0  0  0  0  0  0
    2.2326   12.7121  -16.3353 C   0  0  0  0  0  0  0  0  0  0  0  0
    1.0071   11.8537  -16.0694 C   0  0  0  0  0  0  0  0  0  0  0  0
    0.6049   12.0095  -14.6934 O   0  0  0  0  0  0  0  0  0  0  0  0
    0.1234   10.7760  -13.7859 P   0  0  2  0  0  0  0  0  0  0  0  0
    0.9602   10.9223  -12.5536 O   0  0  0  0  0  0  0  0  0  0  0  0
    0.2472    9.4992  -14.5547 O   0  0  0  0  0  0  0  0  0  0  0  0
   -1.4074   11.1212  -13.4624 O   0  0  0  0  0  0  0  0  0  0  0  0
   -2.0981   12.0646  -12.3019 P   0  0  1  0  0  0  0  0  0  0  0  0
   -2.0465   11.2833  -11.0422 O   0  0  0  0  0  0  0  0  0  0  0  0
   -1.2299   13.3279  -12.2577 O   0  0  0  0  0  0  0  0  0  0  0  0
   -3.5137   12.3178  -12.8170 O   0  0  0  0  0  0  0  0  0  0  0  0
   -2.7021    9.2467  -21.8239 H   0  0  0  0  0  0  0  0  0  0  0  0
   -2.6997   10.2205  -23.3334 H   0  0  0  0  0  0  0  0  0  0  0  0
   -2.0099    8.5619  -23.3334 H   0  0  0  0  0  0  0  0  0  0  0  0
    3.5019    9.3716  -22.4380 H   0  0  0  0  0  0  0  0  0  0  0  0
    2.4219    8.1421  -23.1484 H   0  0  0  0  0  0  0  0  0  0  0  0
    0.5235   12.6970  -20.9485 H   0  0  0  0  0  0  0  0  0  0  0  0
    3.7139   10.7447  -21.1471 H   0  0  0  0  0  0  0  0  0  0  0  0
    3.2810   12.2827  -22.0573 H   0  0  0  0  0  0  0  0  0  0  0  0
    3.6101   14.2552  -20.8623 H   0  0  0  0  0  0  0  0  0  0  0  0
    2.0189   10.2429  -17.5295 H   0  0  0  0  0  0  0  0  0  0  0  0
    1.1227   10.4092  -19.0773 H   0  0  0  0  0  0  0  0  0  0  0  0
    2.8072    9.7854  -19.0773 H   0  0  0  0  0  0  0  0  0  0  0  0
    3.0645   12.2904  -15.7521 H   0  0  0  0  0  0  0  0  0  0  0  0
    1.9314   13.7310  -16.0504 H   0  0  0  0  0  0  0  0  0  0  0  0
    0.1865   12.1701  -16.7300 H   0  0  0  0  0  0  0  0  0  0  0  0
    1.2471   10.7982  -16.2656 H   0  0  0  0  0  0  0  0  0  0  0  0
  1  2  2  0
  1  8  1  0
  2  3  1  0
  2  4  1  0
  4  5  2  0
  5  6  1  0
  5  7  1  0
  7  8  2  0
  7  9  1  0
  9 10  1  0
 10 11  2  0
 10 14  1  0
 11 12  1  0
 12 13  1  0
 13 14  2  0
 13 16  1  0
 14 15  1  0
 16 17  1  0
 17 18  1  0
 18 19  1  0
 19 20  2  0
 19 21  1  6
 19 22  1  0
 22 23  1  0
 23 24  2  0
 23 25  1  1
 23 26  1  0
  3 27  1  0
  3 28  1  0
  3 29  1  0
  6 30  1  0
  6 31  1  0
  8 32  1  0
  9 33  1  0
  9 34  1  0
 11 35  1  0
 15 36  1  0
 15 37  1  0
 15 38  1  0
 16 39  1  0
 16 40  1  0
 17 41  1  0
 17 42  1  0
M  CHG  4  10   1  21  -1  25  -1  26  -1
M  END
>  <filename_input>  (20) 
7A9H_TPP_docked.sdf

>  <pdb_id>  (20) 
7A9H_TPP

>  <pose_rank>  (20) 
19

>  <num_atoms_heavy>  (20) 
26

>  <num_torsions>  (20) 
8

>  <pose>  (20) 
[3.0382689480479064, 12.371566766699758, -19.989720476754027, 1.9647191824232946, 0.15379006765082862, -4.73266039151264, 2.3876839093537625, -1.248887656924367, 9.138602913596205, 4.434981264537078, 13.337226045725451, 5.209017195644477, -3.1830972757569214, 0.8874759109925263]

>  <energy>  (20) 
-397.1997638696121

>  <inter_energy>  (20) 
-429.1625464175195

>  <intra_energy>  (20) 
37.5596060733724

>  <rmsd>  (20) 
4.01545

>  <sdf_rank>  (20) 
0

$$$$

     RDKit          3D

 42 43  0  0  0  0  0  0  0  0999 V2000
    6.1855   10.3095  -12.8329 N   0  0  0  0  0  0  0  0  0  0  0  0
    5.5343    9.1932  -12.4562 C   0  0  0  0  0  0  0  0  0  0  0  0
    6.1506    8.3282  -11.4009 C   0  0  0  0  0  0  0  0  0  0  0  0
    4.3896    8.7712  -13.0011 N   0  0  0  0  0  0  0  0  0  0  0  0
    3.8314    9.5482  -13.9595 C   0  0  0  0  0  0  0  0  0  0  0  0
    2.6519    9.1362  -14.4579 N   0  0  0  0  0  0  0  0  0  0  0  0
    4.4623   10.7183  -14.4523 C   0  0  0  0  0  0  0  0  0  0  0  0
    5.6271   11.0630  -13.7971 C   0  0  0  0  0  0  0  0  0  0  0  0
    3.8364   11.6060  -15.5346 C   0  0  0  0  0  0  0  0  0  0  0  0
    2.4678   11.2062  -15.9630 N   0  0  0  0  0  0  0  0  0  0  0  0
    1.3869   11.4460  -15.2131 C   0  0  0  0  0  0  0  0  0  0  0  0
   -0.0457   10.8432  -15.9272 S   0  0  0  0  0  0  0  0  0  0  0  0
    0.8240   10.4398  -17.3687 C   0  0  0  0  0  0  0  0  0  0  0  0
    2.1616   10.6572  -17.2104 C   0  0  0  0  0  0  0  0  0  0  0  0
    3.2261   10.4285  -18.2362 C   0  0  0  0  0  0  0  0  0  0  0  0
    0.1068    9.9694  -18.6118 C   0  0  0  0  0  0  0  0  0  0  0  0
    0.5333   10.5823  -19.9355 C   0  0  0  0  0  0  0  0  0  0  0  0
    0.2123    9.6729  -21.0075 O   0  0  0  0  0  0  0  0  0  0  0  0
    0.5510    9.9904  -22.5443 P   0  0  2  0  0  0  0  0  0  0  0  0
   -0.1912   11.2662  -22.7924 O   0  0  0  0  0  0  0  0  0  0  0  0
    0.2004    8.8128  -23.3969 O   0  0  0  0  0  0  0  0  0  0  0  0
    2.1305   10.2593  -22.5343 O   0  0  0  0  0  0  0  0  0  0  0  0
    3.1307   10.9637  -23.6375 P   0  0  1  0  0  0  0  0  0  0  0  0
    4.0688   11.8163  -22.8674 O   0  0  0  0  0  0  0  0  0  0  0  0
    3.8270    9.7909  -24.3385 O   0  0  0  0  0  0  0  0  0  0  0  0
    2.1898   11.7461  -24.5520 O   0  0  0  0  0  0  0  0  0  0  0  0
    5.8774    8.7117  -10.4068 H   0  0  0  0  0  0  0  0  0  0  0  0
    5.7822    7.2975  -11.5103 H   0  0  0  0  0  0  0  0  0  0  0  0
    7.2451    8.3399  -11.5103 H   0  0  0  0  0  0  0  0  0  0  0  0
    2.1809    9.6878  -15.1891 H   0  0  0  0  0  0  0  0  0  0  0  0
    2.2198    8.2691  -14.1082 H   0  0  0  0  0  0  0  0  0  0  0  0
    6.1247   12.0029  -14.0781 H   0  0  0  0  0  0  0  0  0  0  0  0
    3.7856   12.6337  -15.1457 H   0  0  0  0  0  0  0  0  0  0  0  0
    4.4778   11.5062  -16.4227 H   0  0  0  0  0  0  0  0  0  0  0  0
    1.4158   11.9712  -14.2470 H   0  0  0  0  0  0  0  0  0  0  0  0
    4.1823   10.2229  -17.7327 H   0  0  0  0  0  0  0  0  0  0  0  0
    2.9507    9.5690  -18.8650 H   0  0  0  0  0  0  0  0  0  0  0  0
    3.3281   11.3252  -18.8650 H   0  0  0  0  0  0  0  0  0  0  0  0
    0.2554    8.8822  -18.6877 H   0  0  0  0  0  0  0  0  0  0  0  0
   -0.9364   10.2902  -18.4747 H   0  0  0  0  0  0  0  0  0  0  0  0
    0.0014   11.5329  -20.0885 H   0  0  0  0  0  0  0  0  0  0  0  0
    1.6173   10.7687  -19.9228 H   0  0  0  0  0  0  0  0  0  0  0  0
  1  2  2  0
  1  8  1  0
  2  3  1  0
  2  4  1  0
  4  5  2  0
  5  6  1  0
  5  7  1  0
  7  8  2  0
  7  9  1  0
  9 10  1  0
 10 11  2  0
 10 14  1  0
 11 12  1  0
 12 13  1  0
 13 14  2  0
 13 16  1  0
 14 15  1  0
 16 17  1  0
 17 18  1  0
 18 19  1  0
 19 20  2  0
 19 21  1  6
 19 22  1  0
 22 23  1  0
 23 24  2  0
 23 25  1  6
 23 26  1  0
  3 27  1  0
  3 28  1  0
  3 29  1  0
  6 30  1  0
  6 31  1  0
  8 32  1  0
  9 33  1  0
  9 34  1  0
 11 35  1  0
 15 36  1  0
 15 37  1  0
 15 38  1  0
 16 39  1  0
 16 40  1  0
 17 41  1  0
 17 42  1  0
M  CHG  4  10   1  21  -1  25  -1  26  -1
M  END
>  <filename_input>  (21) 
7A9H_TPP_docked.sdf

>  <pdb_id>  (21) 
7A9H_TPP

>  <pose_rank>  (21) 
20

>  <num_atoms_heavy>  (21) 
26

>  <num_torsions>  (21) 
8

>  <pose>  (21) 
[2.4677921088662846, 11.206158374207998, -15.962979280029701, 0.03792082056918157, -2.199583728588118, 0.23770654466286686, -0.5120058215328656, 1.4151899962456311, 2.6948803734768383, 3.8647909760413217, 0.06928146078041743, 1.9242648446245258, 1.7069402124463262, -1.6390975799586616]

>  <energy>  (21) 
-420.67072502620135

>  <inter_energy>  (21) 
-505.716002076183

>  <intra_energy>  (21) 
92.67051798014019

>  <rmsd>  (21) 
8.74955

>  <sdf_rank>  (21) 
0

$$$$

     RDKit          3D

 42 43  0  0  0  0  0  0  0  0999 V2000
    4.2232   12.5320  -20.7951 N   0  0  0  0  0  0  0  0  0  0  0  0
    4.3544   13.3189  -21.8794 C   0  0  0  0  0  0  0  0  0  0  0  0
    5.4278   12.9949  -22.8716 C   0  0  0  0  0  0  0  0  0  0  0  0
    3.6196   14.4112  -22.1082 N   0  0  0  0  0  0  0  0  0  0  0  0
    2.6509   14.7105  -21.2106 C   0  0  0  0  0  0  0  0  0  0  0  0
    1.8853   15.7818  -21.4851 N   0  0  0  0  0  0  0  0  0  0  0  0
    2.4640   13.9673  -20.0178 C   0  0  0  0  0  0  0  0  0  0  0  0
    3.2673   12.8508  -19.9041 C   0  0  0  0  0  0  0  0  0  0  0  0
    1.3680   14.2966  -18.9973 C   0  0  0  0  0  0  0  0  0  0  0  0
    1.7331   14.0411  -17.5768 N   0  0  0  0  0  0  0  0  0  0  0  0
    2.9875   14.1620  -17.1297 C   0  0  0  0  0  0  0  0  0  0  0  0
    3.1267   13.7681  -15.4710 S   0  0  0  0  0  0  0  0  0  0  0  0
    1.4054   13.6350  -15.3422 C   0  0  0  0  0  0  0  0  0  0  0  0
    0.8114   13.7681  -16.5633 C   0  0  0  0  0  0  0  0  0  0  0  0
   -0.6562   13.7146  -16.8476 C   0  0  0  0  0  0  0  0  0  0  0  0
    0.7307   13.4528  -14.0034 C   0  0  0  0  0  0  0  0  0  0  0  0
    1.1090   12.2227  -13.1949 C   0  0  0  0  0  0  0  0  0  0  0  0
    1.7743   11.2739  -14.0530 O   0  0  0  0  0  0  0  0  0  0  0  0
    1.4976    9.6944  -13.9777 P   0  0  2  0  0  0  0  0  0  0  0  0
    0.7610    9.4240  -15.2523 O   0  0  0  0  0  0  0  0  0  0  0  0
    0.8028    9.3595  -12.6965 O   0  0  0  0  0  0  0  0  0  0  0  0
    2.9643    9.0518  -14.0363 O   0  0  0  0  0  0  0  0  0  0  0  0
    4.1683    9.1657  -15.1548 P   0  0  1  0  0  0  0  0  0  0  0  0
    4.8928   10.4265  -14.8627 O   0  0  0  0  0  0  0  0  0  0  0  0
    5.0288    7.9161  -14.9311 O   0  0  0  0  0  0  0  0  0  0  0  0
    3.4365    9.1674  -16.4957 O   0  0  0  0  0  0  0  0  0  0  0  0
    6.3487   12.7170  -22.3380 H   0  0  0  0  0  0  0  0  0  0  0  0
    5.1022   12.1550  -23.5030 H   0  0  0  0  0  0  0  0  0  0  0  0
    5.6212   13.8747  -23.5030 H   0  0  0  0  0  0  0  0  0  0  0  0
    1.1328   16.0566  -20.8376 H   0  0  0  0  0  0  0  0  0  0  0  0
    2.0516   16.3275  -22.3427 H   0  0  0  0  0  0  0  0  0  0  0  0
    3.1179   12.1869  -19.0398 H   0  0  0  0  0  0  0  0  0  0  0  0
    1.1168   15.3628  -19.0985 H   0  0  0  0  0  0  0  0  0  0  0  0
    0.5259   13.6260  -19.2236 H   0  0  0  0  0  0  0  0  0  0  0  0
    3.8337   14.4787  -17.7572 H   0  0  0  0  0  0  0  0  0  0  0  0
   -1.2130   13.6943  -15.8991 H   0  0  0  0  0  0  0  0  0  0  0  0
   -0.9502   14.6026  -17.4264 H   0  0  0  0  0  0  0  0  0  0  0  0
   -0.8848   12.8075  -17.4264 H   0  0  0  0  0  0  0  0  0  0  0  0
    0.9665   14.3359  -13.3915 H   0  0  0  0  0  0  0  0  0  0  0  0
   -0.3352   13.3190  -14.2398 H   0  0  0  0  0  0  0  0  0  0  0  0
    1.7838   12.5142  -12.3766 H   0  0  0  0  0  0  0  0  0  0  0  0
    0.2014   11.7653  -12.7739 H   0  0  0  0  0  0  0  0  0  0  0  0
  1  2  2  0
  1  8  1  0
  2  3  1  0
  2  4  1  0
  4  5  2  0
  5  6  1  0
  5  7  1  0
  7  8  2  0
  7  9  1  0
  9 10  1  0
 10 11  2  0
 10 14  1  0
 11 12  1  0
 12 13  1  0
 13 14  2  0
 13 16  1  0
 14 15  1  0
 16 17  1  0
 17 18  1  0
 18 19  1  0
 19 20  2  0
 19 21  1  1
 19 22  1  0
 22 23  1  0
 23 24  2  0
 23 25  1  6
 23 26  1  0
  3 27  1  0
  3 28  1  0
  3 29  1  0
  6 30  1  0
  6 31  1  0
  8 32  1  0
  9 33  1  0
  9 34  1  0
 11 35  1  0
 15 36  1  0
 15 37  1  0
 15 38  1  0
 16 39  1  0
 16 40  1  0
 17 41  1  0
 17 42  1  0
M  CHG  4  10   1  21  -1  25  -1  26  -1
M  END
>  <filename_input>  (22) 
7A9H_TPP_docked.sdf

>  <pdb_id>  (22) 
7A9H_TPP

>  <pose_rank>  (22) 
21

>  <num_atoms_heavy>  (22) 
26

>  <num_torsions>  (22) 
8

>  <pose>  (22) 
[1.7331056453450782, 14.04106531414686, -17.576750118062353, 2.263972416132518, -3.074463116986964, -5.1192501026652195, -1.2874556867891618, 5.075505078244206, -0.6975185990926615, 0.8715156500251263, 0.7641021733209064, -1.4146095566874526, -2.7277724760553768, 3.674451040376849]

>  <energy>  (22) 
-373.2642317010255

>  <inter_energy>  (22) 
-404.2476807995347

>  <intra_energy>  (22) 
29.77229564448534

>  <rmsd>  (22) 
4.65117

>  <sdf_rank>  (22) 
0

$$$$

     RDKit          3D

 42 43  0  0  0  0  0  0  0  0999 V2000
    1.7903    9.0118  -23.3721 N   0  0  0  0  0  0  0  0  0  0  0  0
    0.6165    8.5071  -23.7958 C   0  0  0  0  0  0  0  0  0  0  0  0
    0.6270    7.2223  -24.5645 C   0  0  0  0  0  0  0  0  0  0  0  0
   -0.5653    9.1059  -23.6216 N   0  0  0  0  0  0  0  0  0  0  0  0
   -0.5786   10.2707  -22.9311 C   0  0  0  0  0  0  0  0  0  0  0  0
   -1.7826   10.8311  -22.7181 N   0  0  0  0  0  0  0  0  0  0  0  0
    0.6090   10.9017  -22.4822 C   0  0  0  0  0  0  0  0  0  0  0  0
    1.7633   10.1775  -22.7015 C   0  0  0  0  0  0  0  0  0  0  0  0
    0.6037   12.2187  -21.6969 C   0  0  0  0  0  0  0  0  0  0  0  0
    1.1370   12.1268  -20.3099 N   0  0  0  0  0  0  0  0  0  0  0  0
    2.3910   12.4753  -20.0032 C   0  0  0  0  0  0  0  0  0  0  0  0
    2.7473   12.2288  -18.3485 S   0  0  0  0  0  0  0  0  0  0  0  0
    1.0907   11.8364  -18.0342 C   0  0  0  0  0  0  0  0  0  0  0  0
    0.3713   11.7860  -19.1924 C   0  0  0  0  0  0  0  0  0  0  0  0
   -1.0878   11.4821  -19.3192 C   0  0  0  0  0  0  0  0  0  0  0  0
    0.5833   11.6473  -16.6244 C   0  0  0  0  0  0  0  0  0  0  0  0
    1.1900   10.5152  -15.8120 C   0  0  0  0  0  0  0  0  0  0  0  0
    2.6254   10.5481  -15.9458 O   0  0  0  0  0  0  0  0  0  0  0  0
    3.4838    9.2682  -16.3953 P   0  0  2  0  0  0  0  0  0  0  0  0
    4.1677    9.7453  -17.6381 O   0  0  0  0  0  0  0  0  0  0  0  0
    2.5922    8.0735  -16.5153 O   0  0  0  0  0  0  0  0  0  0  0  0
    4.5464    9.0916  -15.2090 O   0  0  0  0  0  0  0  0  0  0  0  0
    5.1121   10.1459  -14.0766 P   0  0  1  0  0  0  0  0  0  0  0  0
    5.2276    9.3794  -12.8121 O   0  0  0  0  0  0  0  0  0  0  0  0
    6.4686   10.6115  -14.6195 O   0  0  0  0  0  0  0  0  0  0  0  0
    4.0610   11.2537  -14.0364 O   0  0  0  0  0  0  0  0  0  0  0  0
    0.6339    6.3753  -23.8627 H   0  0  0  0  0  0  0  0  0  0  0  0
   -0.2707    7.1665  -25.1977 H   0  0  0  0  0  0  0  0  0  0  0  0
    1.5255    7.1812  -25.1977 H   0  0  0  0  0  0  0  0  0  0  0  0
   -1.8533   11.7177  -22.1986 H   0  0  0  0  0  0  0  0  0  0  0  0
   -2.6339   10.3737  -23.0745 H   0  0  0  0  0  0  0  0  0  0  0  0
    2.7105   10.5743  -22.3073 H   0  0  0  0  0  0  0  0  0  0  0  0
    1.2142   12.9479  -22.2496 H   0  0  0  0  0  0  0  0  0  0  0  0
   -0.4513   12.5152  -21.6014 H   0  0  0  0  0  0  0  0  0  0  0  0
    3.1114   12.8751  -20.7321 H   0  0  0  0  0  0  0  0  0  0  0  0
   -1.5315   11.3896  -18.3169 H   0  0  0  0  0  0  0  0  0  0  0  0
   -1.5857   12.2958  -19.8669 H   0  0  0  0  0  0  0  0  0  0  0  0
   -1.2193   10.5372  -19.8669 H   0  0  0  0  0  0  0  0  0  0  0  0
    0.7698   12.5833  -16.0776 H   0  0  0  0  0  0  0  0  0  0  0  0
   -0.4766   11.3763  -16.7394 H   0  0  0  0  0  0  0  0  0  0  0  0
    0.9169   10.6353  -14.7533 H   0  0  0  0  0  0  0  0  0  0  0  0
    0.8079    9.5517  -16.1803 H   0  0  0  0  0  0  0  0  0  0  0  0
  1  2  2  0
  1  8  1  0
  2  3  1  0
  2  4  1  0
  4  5  2  0
  5  6  1  0
  5  7  1  0
  7  8  2  0
  7  9  1  0
  9 10  1  0
 10 11  2  0
 10 14  1  0
 11 12  1  0
 12 13  1  0
 13 14  2  0
 13 16  1  0
 14 15  1  0
 16 17  1  0
 17 18  1  0
 18 19  1  0
 19 20  2  0
 19 21  1  6
 19 22  1  0
 22 23  1  0
 23 24  2  0
 23 25  1  6
 23 26  1  0
  3 27  1  0
  3 28  1  0
  3 29  1  0
  6 30  1  0
  6 31  1  0
  8 32  1  0
  9 33  1  0
  9 34  1  0
 11 35  1  0
 15 36  1  0
 15 37  1  0
 15 38  1  0
 16 39  1  0
 16 40  1  0
 17 41  1  0
 17 42  1  0
M  CHG  4  10   1  21  -1  25  -1  26  -1
M  END
>  <filename_input>  (23) 
7A9H_TPP_docked.sdf

>  <pdb_id>  (23) 
7A9H_TPP

>  <pose_rank>  (23) 
22

>  <num_atoms_heavy>  (23) 
26

>  <num_torsions>  (23) 
8

>  <pose>  (23) 
[1.1370287396463414, 12.126756542588401, -20.309941605796016, 1.7833345537207104, -3.181629101530371, -4.996118654039041, -0.1172579005384461, 3.371612459808403, -0.7419891569087346, 1.9679740282993197, 0.9723925931766676, -1.2248211451379487, -2.0832793653770794, 4.679903171061965]

>  <energy>  (23) 
-549.3530858904909

>  <inter_energy>  (23) 
-620.7320946390703

>  <intra_energy>  (23) 
70.15862921529482

>  <rmsd>  (23) 
1.82972

>  <sdf_rank>  (23) 
0

$$$$

     RDKit          3D

 42 43  0  0  0  0  0  0  0  0999 V2000
    0.5025   10.3458  -16.2449 N   0  0  0  0  0  0  0  0  0  0  0  0
    0.8238    9.5225  -15.2296 C   0  0  0  0  0  0  0  0  0  0  0  0
    0.1570    9.7278  -13.9049 C   0  0  0  0  0  0  0  0  0  0  0  0
    1.7447    8.5574  -15.3076 N   0  0  0  0  0  0  0  0  0  0  0  0
    2.3537    8.3717  -16.5028 C   0  0  0  0  0  0  0  0  0  0  0  0
    3.2378    7.3607  -16.5778 N   0  0  0  0  0  0  0  0  0  0  0  0
    2.1133    9.2142  -17.6174 C   0  0  0  0  0  0  0  0  0  0  0  0
    1.1271   10.1596  -17.4216 C   0  0  0  0  0  0  0  0  0  0  0  0
    2.7956    9.0097  -18.9753 C   0  0  0  0  0  0  0  0  0  0  0  0
    2.3080    9.8992  -20.0651 N   0  0  0  0  0  0  0  0  0  0  0  0
    1.2817    9.5641  -20.8541 C   0  0  0  0  0  0  0  0  0  0  0  0
    0.9638   10.7501  -22.0450 S   0  0  0  0  0  0  0  0  0  0  0  0
    2.1226   11.8119  -21.3191 C   0  0  0  0  0  0  0  0  0  0  0  0
    2.7824   11.1922  -20.2983 C   0  0  0  0  0  0  0  0  0  0  0  0
    3.8484   11.7911  -19.4365 C   0  0  0  0  0  0  0  0  0  0  0  0
    2.2754   13.2410  -21.7829 C   0  0  0  0  0  0  0  0  0  0  0  0
    1.4802   14.3026  -21.0410 C   0  0  0  0  0  0  0  0  0  0  0  0
    2.2996   14.8720  -20.0002 O   0  0  0  0  0  0  0  0  0  0  0  0
    1.9486   16.2659  -19.2853 P   0  0  2  0  0  0  0  0  0  0  0  0
    0.4650   16.3641  -19.4570 O   0  0  0  0  0  0  0  0  0  0  0  0
    2.7832   17.3615  -19.8680 O   0  0  0  0  0  0  0  0  0  0  0  0
    2.3139   16.0032  -17.7475 O   0  0  0  0  0  0  0  0  0  0  0  0
    1.5439   16.4155  -16.3508 P   0  0  1  0  0  0  0  0  0  0  0  0
    0.7447   15.2325  -15.9487 O   0  0  0  0  0  0  0  0  0  0  0  0
    2.6720   16.7386  -15.3635 O   0  0  0  0  0  0  0  0  0  0  0  0
    0.7022   17.6324  -16.7310 O   0  0  0  0  0  0  0  0  0  0  0  0
    0.8707    9.5081  -13.0972 H   0  0  0  0  0  0  0  0  0  0  0  0
   -0.1806   10.7714  -13.8221 H   0  0  0  0  0  0  0  0  0  0  0  0
   -0.7091    9.0546  -13.8221 H   0  0  0  0  0  0  0  0  0  0  0  0
    3.7312    7.1727  -17.4622 H   0  0  0  0  0  0  0  0  0  0  0  0
    3.4213    6.7746  -15.7510 H   0  0  0  0  0  0  0  0  0  0  0  0
    0.8367   10.7939  -18.2721 H   0  0  0  0  0  0  0  0  0  0  0  0
    3.8733    9.1879  -18.8459 H   0  0  0  0  0  0  0  0  0  0  0  0
    2.5570    7.9822  -19.2874 H   0  0  0  0  0  0  0  0  0  0  0  0
    0.7073    8.6319  -20.7493 H   0  0  0  0  0  0  0  0  0  0  0  0
    3.5888   11.6453  -18.3776 H   0  0  0  0  0  0  0  0  0  0  0  0
    4.8101   11.3012  -19.6492 H   0  0  0  0  0  0  0  0  0  0  0  0
    3.9302   12.8672  -19.6492 H   0  0  0  0  0  0  0  0  0  0  0  0
    3.3399   13.5046  -21.6962 H   0  0  0  0  0  0  0  0  0  0  0  0
    1.8734   13.2505  -22.8067 H   0  0  0  0  0  0  0  0  0  0  0  0
    1.1774   15.0928  -21.7438 H   0  0  0  0  0  0  0  0  0  0  0  0
    0.5833   13.8470  -20.5959 H   0  0  0  0  0  0  0  0  0  0  0  0
  1  2  2  0
  1  8  1  0
  2  3  1  0
  2  4  1  0
  4  5  2  0
  5  6  1  0
  5  7  1  0
  7  8  2  0
  7  9  1  0
  9 10  1  0
 10 11  2  0
 10 14  1  0
 11 12  1  0
 12 13  1  0
 13 14  2  0
 13 16  1  0
 14 15  1  0
 16 17  1  0
 17 18  1  0
 18 19  1  0
 19 20  2  0
 19 21  1  6
 19 22  1  0
 22 23  1  0
 23 24  2  0
 23 25  1  1
 23 26  1  0
  3 27  1  0
  3 28  1  0
  3 29  1  0
  6 30  1  0
  6 31  1  0
  8 32  1  0
  9 33  1  0
  9 34  1  0
 11 35  1  0
 15 36  1  0
 15 37  1  0
 15 38  1  0
 16 39  1  0
 16 40  1  0
 17 41  1  0
 17 42  1  0
M  CHG  4  10   1  21  -1  25  -1  26  -1
M  END
>  <filename_input>  (24) 
7A9H_TPP_docked.sdf

>  <pdb_id>  (24) 
7A9H_TPP

>  <pose_rank>  (24) 
23

>  <num_atoms_heavy>  (24) 
26

>  <num_torsions>  (24) 
8

>  <pose>  (24) 
[2.3079711346251663, 9.899187226513261, -20.065086908254347, -1.2756993925147309, 2.201590217474861, 1.4142640976844985, 2.891508611271944, -1.913182617044833, 1.9738582424534208, 9.076290783733718, -0.2472604429726685, -2.8860406851561353, 2.158382483593583, 3.9113721658059384]

>  <energy>  (24) 
-464.3205880077147

>  <inter_energy>  (24) 
-473.0420321846439

>  <intra_energy>  (24) 
12.101395777997283

>  <rmsd>  (24) 
7.02401

>  <sdf_rank>  (24) 
0

$$$$

     RDKit          3D

 42 43  0  0  0  0  0  0  0  0999 V2000
    0.5264   17.2524  -16.2627 N   0  0  0  0  0  0  0  0  0  0  0  0
    1.6956   17.7707  -16.6828 C   0  0  0  0  0  0  0  0  0  0  0  0
    2.0081   19.1954  -16.3447 C   0  0  0  0  0  0  0  0  0  0  0  0
    2.5832   17.1114  -17.4330 N   0  0  0  0  0  0  0  0  0  0  0  0
    2.3020   15.8240  -17.7451 C   0  0  0  0  0  0  0  0  0  0  0  0
    3.2316   15.1592  -18.4544 N   0  0  0  0  0  0  0  0  0  0  0  0
    1.0788   15.2043  -17.3848 C   0  0  0  0  0  0  0  0  0  0  0  0
    0.2536   15.9775  -16.5937 C   0  0  0  0  0  0  0  0  0  0  0  0
    0.7531   13.7465  -17.7308 C   0  0  0  0  0  0  0  0  0  0  0  0
    0.5992   12.8407  -16.5593 N   0  0  0  0  0  0  0  0  0  0  0  0
   -0.5992   12.4993  -16.0740 C   0  0  0  0  0  0  0  0  0  0  0  0
   -0.4792   11.4844  -14.7024 S   0  0  0  0  0  0  0  0  0  0  0  0
    1.2334   11.3615  -14.9237 C   0  0  0  0  0  0  0  0  0  0  0  0
    1.6565   12.1776  -15.9319 C   0  0  0  0  0  0  0  0  0  0  0  0
    3.0635   12.3375  -16.4140 C   0  0  0  0  0  0  0  0  0  0  0  0
    2.0642   10.4063  -14.1002 C   0  0  0  0  0  0  0  0  0  0  0  0
    3.0546   11.0122  -13.1196 C   0  0  0  0  0  0  0  0  0  0  0  0
    4.3817   10.9453  -13.6793 O   0  0  0  0  0  0  0  0  0  0  0  0
    5.0828    9.5591  -14.0845 P   0  0  2  0  0  0  0  0  0  0  0  0
    4.4688    8.5835  -13.1298 O   0  0  0  0  0  0  0  0  0  0  0  0
    6.5701    9.7118  -14.0514 O   0  0  0  0  0  0  0  0  0  0  0  0
    4.5527    9.2895  -15.5723 O   0  0  0  0  0  0  0  0  0  0  0  0
    4.3453    7.8970  -16.4278 P   0  0  1  0  0  0  0  0  0  0  0  0
    3.8948    8.3012  -17.7820 O   0  0  0  0  0  0  0  0  0  0  0  0
    5.7267    7.2313  -16.4313 O   0  0  0  0  0  0  0  0  0  0  0  0
    3.2981    7.1198  -15.6323 O   0  0  0  0  0  0  0  0  0  0  0  0
    2.0344   19.3156  -15.2517 H   0  0  0  0  0  0  0  0  0  0  0  0
    2.9870   19.4662  -16.7671 H   0  0  0  0  0  0  0  0  0  0  0  0
    1.2324   19.8511  -16.7671 H   0  0  0  0  0  0  0  0  0  0  0  0
    3.0715   14.1770  -18.7202 H   0  0  0  0  0  0  0  0  0  0  0  0
    4.1035   15.6322  -18.7317 H   0  0  0  0  0  0  0  0  0  0  0  0
   -0.6758   15.5278  -16.2141 H   0  0  0  0  0  0  0  0  0  0  0  0
   -0.1890   13.7329  -18.2987 H   0  0  0  0  0  0  0  0  0  0  0  0
    1.6130   13.3666  -18.3020 H   0  0  0  0  0  0  0  0  0  0  0  0
   -1.5534   12.8332  -16.5074 H   0  0  0  0  0  0  0  0  0  0  0  0
    3.7404   12.4144  -15.5504 H   0  0  0  0  0  0  0  0  0  0  0  0
    3.3438   11.4654  -17.0230 H   0  0  0  0  0  0  0  0  0  0  0  0
    3.1409   13.2502  -17.0230 H   0  0  0  0  0  0  0  0  0  0  0  0
    1.3701    9.7775  -13.5231 H   0  0  0  0  0  0  0  0  0  0  0  0
    2.6843    9.8678  -14.8320 H   0  0  0  0  0  0  0  0  0  0  0  0
    2.7882   12.0626  -12.9303 H   0  0  0  0  0  0  0  0  0  0  0  0
    3.0253   10.4522  -12.1732 H   0  0  0  0  0  0  0  0  0  0  0  0
  1  2  2  0
  1  8  1  0
  2  3  1  0
  2  4  1  0
  4  5  2  0
  5  6  1  0
  5  7  1  0
  7  8  2  0
  7  9  1  0
  9 10  1  0
 10 11  2  0
 10 14  1  0
 11 12  1  0
 12 13  1  0
 13 14  2  0
 13 16  1  0
 14 15  1  0
 16 17  1  0
 17 18  1  0
 18 19  1  0
 19 20  2  0
 19 21  1  6
 19 22  1  0
 22 23  1  0
 23 24  2  0
 23 25  1  6
 23 26  1  0
  3 27  1  0
  3 28  1  0
  3 29  1  0
  6 30  1  0
  6 31  1  0
  8 32  1  0
  9 33  1  0
  9 34  1  0
 11 35  1  0
 15 36  1  0
 15 37  1  0
 15 38  1  0
 16 39  1  0
 16 40  1  0
 17 41  1  0
 17 42  1  0
M  CHG  4  10   1  21  -1  25  -1  26  -1
M  END
>  <filename_input>  (25) 
7A9H_TPP_docked.sdf

>  <pdb_id>  (25) 
7A9H_TPP

>  <pose_rank>  (25) 
24

>  <num_atoms_heavy>  (25) 
26

>  <num_torsions>  (25) 
8

>  <pose>  (25) 
[0.5991579864659128, 12.840697906765104, -16.559306360001912, 0.3951140201405614, -1.180048390390096, 2.657636106754482, 6.183224480092752, 3.353297850762098, -7.9102882742317755, -0.6247434580532842, -4.133788716104496, -3.8437812577599986, -4.393409845225663, -0.8586518737751639]

>  <energy>  (25) 
-515.8489082068828

>  <inter_energy>  (25) 
-522.0220290021956

>  <intra_energy>  (25) 
22.872698041874198

>  <rmsd>  (25) 
6.80881

>  <sdf_rank>  (25) 
0

$$$$

     RDKit          3D

 42 43  0  0  0  0  0  0  0  0999 V2000
   -0.9410    8.6310  -23.8420 N   0  0  0  0  0  0  0  0  0  0  0  0
    0.1390    7.9460  -24.2620 C   0  0  0  0  0  0  0  0  0  0  0  0
   -0.0730    6.6700  -25.0160 C   0  0  0  0  0  0  0  0  0  0  0  0
    1.4010    8.3020  -24.0050 N   0  0  0  0  0  0  0  0  0  0  0  0
    1.5970    9.4530  -23.3190 C   0  0  0  0  0  0  0  0  0  0  0  0
    2.8740    9.8240  -23.1170 N   0  0  0  0  0  0  0  0  0  0  0  0
    0.5240   10.2200  -22.7990 C   0  0  0  0  0  0  0  0  0  0  0  0
   -0.7310    9.7640  -23.1480 C   0  0  0  0  0  0  0  0  0  0  0  0
    0.7360   11.5260  -22.0240 C   0  0  0  0  0  0  0  0  0  0  0  0
    1.1890   11.3560  -20.6160 N   0  0  0  0  0  0  0  0  0  0  0  0
    2.4490   11.5960  -20.2380 C   0  0  0  0  0  0  0  0  0  0  0  0
    2.7000   11.2790  -18.5760 S   0  0  0  0  0  0  0  0  0  0  0  0
    1.0040   11.0110  -18.3550 C   0  0  0  0  0  0  0  0  0  0  0  0
    0.3430   11.0480  -19.5480 C   0  0  0  0  0  0  0  0  0  0  0  0
   -1.1270   10.8640  -19.7550 C   0  0  0  0  0  0  0  0  0  0  0  0
    0.4120   10.8260  -16.9780 C   0  0  0  0  0  0  0  0  0  0  0  0
    1.3610   10.4270  -15.8600 C   0  0  0  0  0  0  0  0  0  0  0  0
    1.8710    9.1030  -16.1170 O   0  0  0  0  0  0  0  0  0  0  0  0
    2.9540    8.3920  -15.1690 P   0  0  2  0  0  0  0  0  0  0  0  0
    3.3640    7.1960  -15.9700 O   0  0  0  0  0  0  0  0  0  0  0  0
    2.3640    8.1460  -13.8170 O   0  0  0  0  0  0  0  0  0  0  0  0
    4.1520    9.4540  -15.1030 O   0  0  0  0  0  0  0  0  0  0  0  0
    4.5490   10.5920  -13.9800 P   0  0  1  0  0  0  0  0  0  0  0  0
    4.6950   11.8720  -14.7150 O   0  0  0  0  0  0  0  0  0  0  0  0
    3.3720   10.5980  -12.9970 O   0  0  0  0  0  0  0  0  0  0  0  0
    5.8500   10.0770  -13.3670 O   0  0  0  0  0  0  0  0  0  0  0  0
   -0.2105    5.8423  -24.3047 H   0  0  0  0  0  0  0  0  0  0  0  0
   -0.9681    6.7623  -25.6486 H   0  0  0  0  0  0  0  0  0  0  0  0
    0.8039    6.4679  -25.6486 H   0  0  0  0  0  0  0  0  0  0  0  0
    3.0831   10.6908  -22.6014 H   0  0  0  0  0  0  0  0  0  0  0  0
    3.6428    9.2413  -23.4780 H   0  0  0  0  0  0  0  0  0  0  0  0
   -1.6051   10.3580  -22.8427 H   0  0  0  0  0  0  0  0  0  0  0  0
    1.4934   12.1198  -22.5567 H   0  0  0  0  0  0  0  0  0  0  0  0
   -0.2474   12.0164  -21.9733 H   0  0  0  0  0  0  0  0  0  0  0  0
    3.2346   11.9563  -20.9184 H   0  0  0  0  0  0  0  0  0  0  0  0
   -1.6297   10.8011  -18.7786 H   0  0  0  0  0  0  0  0  0  0  0  0
   -1.5277   11.7190  -20.3193 H   0  0  0  0  0  0  0  0  0  0  0  0
   -1.3046    9.9366  -20.3193 H   0  0  0  0  0  0  0  0  0  0  0  0
   -0.0573   11.7781  -16.6893 H   0  0  0  0  0  0  0  0  0  0  0  0
   -0.2790    9.9761  -17.0791 H   0  0  0  0  0  0  0  0  0  0  0  0
    2.1970   11.1405  -15.8156 H   0  0  0  0  0  0  0  0  0  0  0  0
    0.8235   10.4347  -14.9003 H   0  0  0  0  0  0  0  0  0  0  0  0
  1  2  2  0
  1  8  1  0
  2  3  1  0
  2  4  1  0
  4  5  2  0
  5  6  1  0
  5  7  1  0
  7  8  2  0
  7  9  1  0
  9 10  1  0
 10 11  2  0
 10 14  1  0
 11 12  1  0
 12 13  1  0
 13 14  2  0
 13 16  1  0
 14 15  1  0
 16 17  1  0
 17 18  1  0
 18 19  1  0
 19 20  2  0
 19 21  1  1
 19 22  1  0
 22 23  1  0
 23 24  2  0
 23 25  1  1
 23 26  1  0
  3 27  1  0
  3 28  1  0
  3 29  1  0
  6 30  1  0
  6 31  1  0
  8 32  1  0
  9 33  1  0
  9 34  1  0
 11 35  1  0
 15 36  1  0
 15 37  1  0
 15 38  1  0
 16 39  1  0
 16 40  1  0
 17 41  1  0
 17 42  1  0
M  CHG  4  10   1  21  -1  25  -1  26  -1
M  END
>  <filename_input>  (26) 
7A9H_TPP_docked.sdf

>  <pdb_id>  (26) 
7A9H_TPP

>  <pose_rank>  (26) 
25

>  <num_atoms_heavy>  (26) 
26

>  <num_torsions>  (26) 
8

>  <pose>  (26) 
[1.189, 11.356, -20.616, 1e-06, 1e-06, 1e-06, 0.0, 0.0, 0.0, 0.0, 0.0, 0.0, 0.0, 0.0]

>  <energy>  (26) 
-771.2442967821306

>  <inter_energy>  (26) 
-792.2436262469778

>  <intra_energy>  (26) 
25.206485998074164

>  <rmsd>  (26) 
0.0

>  <sdf_rank>  (26) 
0

$$$$
