
     RDKit          3D

 31 33  0  0  0  0  0  0  0  0999 V2000
  -24.0307    1.1421   61.3839 C   0  0  0  0  0  0  0  0  0  0  0  0
  -24.7985    5.2761   60.5645 C   0  0  0  0  0  0  0  0  0  0  0  0
  -24.6323    2.9844   59.8775 C   0  0  0  0  0  0  0  0  0  0  0  0
  -24.4526   -3.5278   62.2844 C   0  0  0  0  0  0  0  0  0  0  0  0
  -25.0922   -2.1542   62.3322 C   0  0  0  0  0  0  0  0  0  0  0  0
  -26.3724   -2.0007   62.8406 C   0  0  0  0  0  0  0  0  0  0  0  0
  -26.9616   -0.7358   62.8849 C   0  0  0  0  0  0  0  0  0  0  0  0
  -26.2754    0.3775   62.4166 C   0  0  0  0  0  0  0  0  0  0  0  0
  -24.9909    0.2202   61.9053 C   0  0  0  0  0  0  0  0  0  0  0  0
  -24.3970   -1.0344   61.8585 C   0  0  0  0  0  0  0  0  0  0  0  0
  -22.9308    0.3496   61.0269 C   0  0  0  0  0  0  0  0  0  0  0  0
  -24.2566    2.6125   61.1610 C   0  0  0  0  0  0  0  0  0  0  0  0
  -24.1864    3.5781   62.1445 C   0  0  0  0  0  0  0  0  0  0  0  0
  -24.4442    4.9020   61.8479 C   0  0  0  0  0  0  0  0  0  0  0  0
  -24.8930    4.3163   59.5713 C   0  0  0  0  0  0  0  0  0  0  0  0
  -21.6353    0.8262   60.4333 C   0  0  0  0  0  0  0  0  0  0  0  0
  -23.1772   -0.9176   61.3227 N   0  0  0  0  0  0  0  0  0  0  0  0
  -20.8982    1.6476   61.0382 O   0  0  0  0  0  0  0  0  0  0  0  0
  -21.2610    0.3501   59.3476 O   0  0  0  0  0  0  0  0  0  0  0  0
  -23.7502    3.1337   63.7589 Cl  0  0  0  0  0  0  0  0  0  0  0  0
  -25.0043    6.3317   60.3338 H   0  0  0  0  0  0  0  0  0  0  0  0
  -24.7248    2.2178   59.0941 H   0  0  0  0  0  0  0  0  0  0  0  0
  -24.2841   -3.8896   63.3095 H   0  0  0  0  0  0  0  0  0  0  0  0
  -25.1190   -4.2244   61.7546 H   0  0  0  0  0  0  0  0  0  0  0  0
  -23.4906   -3.4660   61.7546 H   0  0  0  0  0  0  0  0  0  0  0  0
  -26.9252   -2.8771   63.2099 H   0  0  0  0  0  0  0  0  0  0  0  0
  -27.9763   -0.6200   63.2936 H   0  0  0  0  0  0  0  0  0  0  0  0
  -26.7426    1.3728   62.4496 H   0  0  0  0  0  0  0  0  0  0  0  0
  -24.3673    5.6639   62.6376 H   0  0  0  0  0  0  0  0  0  0  0  0
  -25.1723    4.6046   58.5471 H   0  0  0  0  0  0  0  0  0  0  0  0
  -22.5250   -1.6988   61.1635 H   0  0  0  0  0  0  0  0  0  0  0  0
  1  9  1  0
  1 11  2  0
  1 12  1  0
  2 14  2  0
  2 15  1  0
  3 12  1  0
  3 15  2  0
  4  5  1  0
  5  6  2  0
  5 10  1  0
  6  7  1  0
  7  8  2  0
  8  9  1  0
  9 10  2  0
 10 17  1  0
 11 16  1  0
 11 17  1  0
 12 13  2  0
 13 14  1  0
 13 20  1  0
 16 18  1  0
 16 19  2  0
  2 21  1  0
  3 22  1  0
  4 23  1  0
  4 24  1  0
  4 25  1  0
  6 26  1  0
  7 27  1  0
  8 28  1  0
 14 29  1  0
 15 30  1  0
 17 31  1  0
M  CHG  1  18  -1
M  END
>  <filename_input>  (1) 
7AFX_R9K_docked.sdf

>  <pdb_id>  (1) 
7AFX_R9K

>  <pose_rank>  (1) 
0

>  <num_atoms_heavy>  (1) 
20

>  <num_torsions>  (1) 
2

>  <pose>  (1) 
[-24.030693431404067, 1.1421179935558357, 61.38393577012533, -2.21089831548637, 4.481686866002642, -3.6727043806824646, -6.033973432032101, 0.5645122207805541]

>  <energy>  (1) 
-701.4496553305628

>  <inter_energy>  (1) 
-697.5429183540974

>  <intra_energy>  (1) 
0.47732329079734925

>  <rmsd>  (1) 
0.574902

>  <sdf_rank>  (1) 
0

$$$$

     RDKit          3D

 31 33  0  0  0  0  0  0  0  0999 V2000
  -24.5657    1.4475   61.7943 C   0  0  0  0  0  0  0  0  0  0  0  0
  -25.3081    5.6403   62.2636 C   0  0  0  0  0  0  0  0  0  0  0  0
  -25.3602    3.6199   60.9728 C   0  0  0  0  0  0  0  0  0  0  0  0
  -22.8501   -2.8931   60.7883 C   0  0  0  0  0  0  0  0  0  0  0  0
  -22.6587   -1.3919   60.7019 C   0  0  0  0  0  0  0  0  0  0  0  0
  -21.5367   -0.8687   60.0788 C   0  0  0  0  0  0  0  0  0  0  0  0
  -21.3603    0.5139   59.9988 C   0  0  0  0  0  0  0  0  0  0  0  0
  -22.3017    1.3767   60.5457 C   0  0  0  0  0  0  0  0  0  0  0  0
  -23.4265    0.8487   61.1720 C   0  0  0  0  0  0  0  0  0  0  0  0
  -23.6101   -0.5254   61.2550 C   0  0  0  0  0  0  0  0  0  0  0  0
  -25.3393    0.3668   62.2402 C   0  0  0  0  0  0  0  0  0  0  0  0
  -24.7709    2.9210   62.0173 C   0  0  0  0  0  0  0  0  0  0  0  0
  -24.4841    3.5873   63.1913 C   0  0  0  0  0  0  0  0  0  0  0  0
  -24.7399    4.9390   63.3115 C   0  0  0  0  0  0  0  0  0  0  0  0
  -25.6203    4.9818   61.0865 C   0  0  0  0  0  0  0  0  0  0  0  0
  -26.6567    0.4413   62.9590 C   0  0  0  0  0  0  0  0  0  0  0  0
  -24.7533   -0.7723   61.9037 N   0  0  0  0  0  0  0  0  0  0  0  0
  -26.7622    1.0009   64.0814 O   0  0  0  0  0  0  0  0  0  0  0  0
  -27.6719   -0.0097   62.4007 O   0  0  0  0  0  0  0  0  0  0  0  0
  -23.7776    2.7303   64.5180 Cl  0  0  0  0  0  0  0  0  0  0  0  0
  -25.5112    6.7166   62.3651 H   0  0  0  0  0  0  0  0  0  0  0  0
  -25.6245    3.0911   60.0451 H   0  0  0  0  0  0  0  0  0  0  0  0
  -22.8889   -3.1976   61.8446 H   0  0  0  0  0  0  0  0  0  0  0  0
  -23.7911   -3.1720   60.2915 H   0  0  0  0  0  0  0  0  0  0  0  0
  -22.0092   -3.3992   60.2915 H   0  0  0  0  0  0  0  0  0  0  0  0
  -20.7837   -1.5441   59.6466 H   0  0  0  0  0  0  0  0  0  0  0  0
  -20.4698    0.9229   59.4992 H   0  0  0  0  0  0  0  0  0  0  0  0
  -22.1594    2.4657   60.4843 H   0  0  0  0  0  0  0  0  0  0  0  0
  -24.4900    5.4614   64.2467 H   0  0  0  0  0  0  0  0  0  0  0  0
  -26.0708    5.5317   60.2470 H   0  0  0  0  0  0  0  0  0  0  0  0
  -25.1237   -1.7107   62.1112 H   0  0  0  0  0  0  0  0  0  0  0  0
  1  9  1  0
  1 11  2  0
  1 12  1  0
  2 14  2  0
  2 15  1  0
  3 12  1  0
  3 15  2  0
  4  5  1  0
  5  6  2  0
  5 10  1  0
  6  7  1  0
  7  8  2  0
  8  9  1  0
  9 10  2  0
 10 17  1  0
 11 16  1  0
 11 17  1  0
 12 13  2  0
 13 14  1  0
 13 20  1  0
 16 18  1  0
 16 19  2  0
  2 21  1  0
  3 22  1  0
  4 23  1  0
  4 24  1  0
  4 25  1  0
  6 26  1  0
  7 27  1  0
  8 28  1  0
 14 29  1  0
 15 30  1  0
 17 31  1  0
M  CHG  1  18  -1
M  END
>  <filename_input>  (2) 
7AFX_R9K_docked.sdf

>  <pdb_id>  (2) 
7AFX_R9K

>  <pose_rank>  (2) 
1

>  <num_atoms_heavy>  (2) 
20

>  <num_torsions>  (2) 
2

>  <pose>  (2) 
[-24.56571862249282, 1.4475308686274189, 61.794295190414815, -0.40785882053456574, 3.1470116053621484, -0.033766045491455766, -2.8416160125197956, 4.728331237846178]

>  <energy>  (2) 
-521.6384284341606

>  <inter_energy>  (2) 
-519.2973071083642

>  <intra_energy>  (2) 
0.8530512463393938

>  <rmsd>  (2) 
3.70124

>  <sdf_rank>  (2) 
0

$$$$

     RDKit          3D

 31 33  0  0  0  0  0  0  0  0999 V2000
  -25.1258    1.1930   62.3937 C   0  0  0  0  0  0  0  0  0  0  0  0
  -24.9937   -2.9958   61.5062 C   0  0  0  0  0  0  0  0  0  0  0  0
  -24.0359   -0.7977   61.4585 C   0  0  0  0  0  0  0  0  0  0  0  0
  -25.1311    5.9644   62.2208 C   0  0  0  0  0  0  0  0  0  0  0  0
  -25.0304    4.6582   61.4582 C   0  0  0  0  0  0  0  0  0  0  0  0
  -24.8543    4.6675   60.0835 C   0  0  0  0  0  0  0  0  0  0  0  0
  -24.7613    3.4646   59.3810 C   0  0  0  0  0  0  0  0  0  0  0  0
  -24.8493    2.2501   60.0494 C   0  0  0  0  0  0  0  0  0  0  0  0
  -25.0276    2.2437   61.4293 C   0  0  0  0  0  0  0  0  0  0  0  0
  -25.1201    3.4357   62.1359 C   0  0  0  0  0  0  0  0  0  0  0  0
  -25.3076    1.8482   63.6196 C   0  0  0  0  0  0  0  0  0  0  0  0
  -25.1596   -0.2794   62.0872 C   0  0  0  0  0  0  0  0  0  0  0  0
  -26.1798   -1.1357   62.4484 C   0  0  0  0  0  0  0  0  0  0  0  0
  -26.1041   -2.4822   62.1511 C   0  0  0  0  0  0  0  0  0  0  0  0
  -23.9529   -2.1530   61.1554 C   0  0  0  0  0  0  0  0  0  0  0  0
  -25.4592    1.2039   64.9686 C   0  0  0  0  0  0  0  0  0  0  0  0
  -25.2943    3.1593   63.4329 N   0  0  0  0  0  0  0  0  0  0  0  0
  -26.4713    1.4132   65.6868 O   0  0  0  0  0  0  0  0  0  0  0  0
  -24.5901    0.4019   65.3522 O   0  0  0  0  0  0  0  0  0  0  0  0
  -27.5769   -0.5175   63.2607 Cl  0  0  0  0  0  0  0  0  0  0  0  0
  -24.9377   -4.0693   61.2731 H   0  0  0  0  0  0  0  0  0  0  0  0
  -23.2020   -0.1297   61.1971 H   0  0  0  0  0  0  0  0  0  0  0  0
  -25.1153    5.7602   63.3016 H   0  0  0  0  0  0  0  0  0  0  0  0
  -24.2800    6.6095   61.9571 H   0  0  0  0  0  0  0  0  0  0  0  0
  -26.0710    6.4715   61.9571 H   0  0  0  0  0  0  0  0  0  0  0  0
  -24.7878    5.6243   59.5450 H   0  0  0  0  0  0  0  0  0  0  0  0
  -24.6172    3.4787   58.2905 H   0  0  0  0  0  0  0  0  0  0  0  0
  -24.7788    1.3034   59.4936 H   0  0  0  0  0  0  0  0  0  0  0  0
  -26.9324   -3.1506   62.4290 H   0  0  0  0  0  0  0  0  0  0  0  0
  -23.0665   -2.5521   60.6405 H   0  0  0  0  0  0  0  0  0  0  0  0
  -25.4024    3.8629   64.1773 H   0  0  0  0  0  0  0  0  0  0  0  0
  1  9  1  0
  1 11  2  0
  1 12  1  0
  2 14  2  0
  2 15  1  0
  3 12  1  0
  3 15  2  0
  4  5  1  0
  5  6  2  0
  5 10  1  0
  6  7  1  0
  7  8  2  0
  8  9  1  0
  9 10  2  0
 10 17  1  0
 11 16  1  0
 11 17  1  0
 12 13  2  0
 13 14  1  0
 13 20  1  0
 16 18  1  0
 16 19  2  0
  2 21  1  0
  3 22  1  0
  4 23  1  0
  4 24  1  0
  4 25  1  0
  6 26  1  0
  7 27  1  0
  8 28  1  0
 14 29  1  0
 15 30  1  0
 17 31  1  0
M  CHG  1  18  -1
M  END
>  <filename_input>  (3) 
7AFX_R9K_docked.sdf

>  <pdb_id>  (3) 
7AFX_R9K

>  <pose_rank>  (3) 
2

>  <num_atoms_heavy>  (3) 
20

>  <num_torsions>  (3) 
2

>  <pose>  (3) 
[-25.12577267043263, 1.192960264351006, 62.39369170693267, -2.3629584644817263, -0.07808026190596722, -1.70444385139107, 2.9995093649387483, -2.6200486600347896]

>  <energy>  (3) 
-609.3329249955325

>  <inter_energy>  (3) 
-611.6151631736151

>  <intra_energy>  (3) 
20.52380350520051

>  <rmsd>  (3) 
5.83232

>  <sdf_rank>  (3) 
0

$$$$

     RDKit          3D

 31 33  0  0  0  0  0  0  0  0999 V2000
  -24.6653    1.0357   61.4114 C   0  0  0  0  0  0  0  0  0  0  0  0
  -24.9542    5.2945   61.0510 C   0  0  0  0  0  0  0  0  0  0  0  0
  -24.4609    3.3120   62.3069 C   0  0  0  0  0  0  0  0  0  0  0  0
  -25.2670   -3.5994   62.3864 C   0  0  0  0  0  0  0  0  0  0  0  0
  -25.7888   -2.1839   62.5356 C   0  0  0  0  0  0  0  0  0  0  0  0
  -26.9515   -1.9432   63.2504 C   0  0  0  0  0  0  0  0  0  0  0  0
  -27.4321   -0.6397   63.3882 C   0  0  0  0  0  0  0  0  0  0  0  0
  -26.7552    0.4254   62.8077 C   0  0  0  0  0  0  0  0  0  0  0  0
  -25.5889    0.1807   62.0893 C   0  0  0  0  0  0  0  0  0  0  0  0
  -25.1034   -1.1128   61.9483 C   0  0  0  0  0  0  0  0  0  0  0  0
  -23.7007    0.1693   60.8783 C   0  0  0  0  0  0  0  0  0  0  0  0
  -24.8184    2.5204   61.2242 C   0  0  0  0  0  0  0  0  0  0  0  0
  -25.2121    3.1297   60.0502 C   0  0  0  0  0  0  0  0  0  0  0  0
  -25.2906    4.5058   59.9658 C   0  0  0  0  0  0  0  0  0  0  0  0
  -24.5381    4.6989   62.2294 C   0  0  0  0  0  0  0  0  0  0  0  0
  -22.4916    0.5567   60.0747 C   0  0  0  0  0  0  0  0  0  0  0  0
  -23.9850   -1.0794   61.2156 N   0  0  0  0  0  0  0  0  0  0  0  0
  -22.5926    1.2443   59.0253 O   0  0  0  0  0  0  0  0  0  0  0  0
  -21.3650    0.2377   60.4928 O   0  0  0  0  0  0  0  0  0  0  0  0
  -25.6330    2.1643   58.6773 Cl  0  0  0  0  0  0  0  0  0  0  0  0
  -25.0171    6.3902   60.9780 H   0  0  0  0  0  0  0  0  0  0  0  0
  -24.1128    2.8375   63.2363 H   0  0  0  0  0  0  0  0  0  0  0  0
  -25.1056   -4.0375   63.3824 H   0  0  0  0  0  0  0  0  0  0  0  0
  -26.0012   -4.2045   61.8343 H   0  0  0  0  0  0  0  0  0  0  0  0
  -24.3158   -3.5832   61.8343 H   0  0  0  0  0  0  0  0  0  0  0  0
  -27.4967   -2.7808   63.7101 H   0  0  0  0  0  0  0  0  0  0  0  0
  -28.3531   -0.4548   63.9604 H   0  0  0  0  0  0  0  0  0  0  0  0
  -27.1371    1.4514   62.9148 H   0  0  0  0  0  0  0  0  0  0  0  0
  -25.6229    4.9778   59.0294 H   0  0  0  0  0  0  0  0  0  0  0  0
  -24.2703    5.3180   63.0984 H   0  0  0  0  0  0  0  0  0  0  0  0
  -23.4268   -1.9040   60.9523 H   0  0  0  0  0  0  0  0  0  0  0  0
  1  9  1  0
  1 11  2  0
  1 12  1  0
  2 14  2  0
  2 15  1  0
  3 12  1  0
  3 15  2  0
  4  5  1  0
  5  6  2  0
  5 10  1  0
  6  7  1  0
  7  8  2  0
  8  9  1  0
  9 10  2  0
 10 17  1  0
 11 16  1  0
 11 17  1  0
 12 13  2  0
 13 14  1  0
 13 20  1  0
 16 18  1  0
 16 19  2  0
  2 21  1  0
  3 22  1  0
  4 23  1  0
  4 24  1  0
  4 25  1  0
  6 26  1  0
  7 27  1  0
  8 28  1  0
 14 29  1  0
 15 30  1  0
 17 31  1  0
M  CHG  1  18  -1
M  END
>  <filename_input>  (4) 
7AFX_R9K_docked.sdf

>  <pdb_id>  (4) 
7AFX_R9K

>  <pose_rank>  (4) 
3

>  <num_atoms_heavy>  (4) 
20

>  <num_torsions>  (4) 
2

>  <pose>  (4) 
[-24.665269603876766, 1.0356945288253612, 61.41140347531528, -1.7677263659669993, -5.734400492256176, 1.4220741955818874, -2.957612938770479, -1.4467924835919608]

>  <energy>  (4) 
-623.9221996961377

>  <inter_energy>  (4) 
-626.3242586936428

>  <intra_energy>  (4) 
6.629855960881924

>  <rmsd>  (4) 
1.81766

>  <sdf_rank>  (4) 
0

$$$$

     RDKit          3D

 31 33  0  0  0  0  0  0  0  0999 V2000
  -24.7876   -1.2991   62.3401 C   0  0  0  0  0  0  0  0  0  0  0  0
  -25.2885   -5.3927   63.4985 C   0  0  0  0  0  0  0  0  0  0  0  0
  -25.3904   -3.6323   61.8732 C   0  0  0  0  0  0  0  0  0  0  0  0
  -23.3679    2.7121   60.1741 C   0  0  0  0  0  0  0  0  0  0  0  0
  -23.0758    1.2587   60.4909 C   0  0  0  0  0  0  0  0  0  0  0  0
  -21.9135    0.6654   60.0241 C   0  0  0  0  0  0  0  0  0  0  0  0
  -21.6442   -0.6730   60.3160 C   0  0  0  0  0  0  0  0  0  0  0  0
  -22.5378   -1.4230   61.0701 C   0  0  0  0  0  0  0  0  0  0  0  0
  -23.7047   -0.8252   61.5362 C   0  0  0  0  0  0  0  0  0  0  0  0
  -23.9797    0.5060   61.2513 C   0  0  0  0  0  0  0  0  0  0  0  0
  -25.6591   -0.2062   62.4467 C   0  0  0  0  0  0  0  0  0  0  0  0
  -24.9693   -2.7120   62.8232 C   0  0  0  0  0  0  0  0  0  0  0  0
  -24.6809   -3.1512   64.0993 C   0  0  0  0  0  0  0  0  0  0  0  0
  -24.8492   -4.4791   64.4393 C   0  0  0  0  0  0  0  0  0  0  0  0
  -25.5627   -4.9715   62.2085 C   0  0  0  0  0  0  0  0  0  0  0  0
  -26.9591   -0.1642   63.1992 C   0  0  0  0  0  0  0  0  0  0  0  0
  -25.1533    0.8344   61.8023 N   0  0  0  0  0  0  0  0  0  0  0  0
  -28.0075   -0.6775   62.7287 O   0  0  0  0  0  0  0  0  0  0  0  0
  -26.9790    0.3383   64.3362 O   0  0  0  0  0  0  0  0  0  0  0  0
  -24.1250   -2.0279   65.2922 Cl  0  0  0  0  0  0  0  0  0  0  0  0
  -25.4195   -6.4495   63.7740 H   0  0  0  0  0  0  0  0  0  0  0  0
  -25.5900   -3.2991   60.8440 H   0  0  0  0  0  0  0  0  0  0  0  0
  -23.4812    3.2761   61.1117 H   0  0  0  0  0  0  0  0  0  0  0  0
  -22.5366    3.1344   59.5904 H   0  0  0  0  0  0  0  0  0  0  0  0
  -24.2977    2.7805   59.5904 H   0  0  0  0  0  0  0  0  0  0  0  0
  -21.2019    1.2501   59.4226 H   0  0  0  0  0  0  0  0  0  0  0  0
  -20.7179   -1.1370   59.9462 H   0  0  0  0  0  0  0  0  0  0  0  0
  -22.3252   -2.4782   61.2964 H   0  0  0  0  0  0  0  0  0  0  0  0
  -24.6325   -4.8122   65.4650 H   0  0  0  0  0  0  0  0  0  0  0  0
  -25.9144   -5.6906   61.4541 H   0  0  0  0  0  0  0  0  0  0  0  0
  -25.5985    1.7608   61.7352 H   0  0  0  0  0  0  0  0  0  0  0  0
  1  9  1  0
  1 11  2  0
  1 12  1  0
  2 14  2  0
  2 15  1  0
  3 12  1  0
  3 15  2  0
  4  5  1  0
  5  6  2  0
  5 10  1  0
  6  7  1  0
  7  8  2  0
  8  9  1  0
  9 10  2  0
 10 17  1  0
 11 16  1  0
 11 17  1  0
 12 13  2  0
 13 14  1  0
 13 20  1  0
 16 18  1  0
 16 19  2  0
  2 21  1  0
  3 22  1  0
  4 23  1  0
  4 24  1  0
  4 25  1  0
  6 26  1  0
  7 27  1  0
  8 28  1  0
 14 29  1  0
 15 30  1  0
 17 31  1  0
M  CHG  1  18  -1
M  END
>  <filename_input>  (5) 
7AFX_R9K_docked.sdf

>  <pdb_id>  (5) 
7AFX_R9K

>  <pose_rank>  (5) 
4

>  <num_atoms_heavy>  (5) 
20

>  <num_torsions>  (5) 
2

>  <pose>  (5) 
[-24.787602267169717, -1.2990669837040005, 62.340087405014856, -1.5436698064478156, -0.7493284722695661, -2.960313053694259, -5.669428114547039, 4.440267900512276]

>  <energy>  (5) 
-494.1918326135784

>  <inter_energy>  (5) 
-491.4066423478293

>  <intra_energy>  (5) 
0.3219927520805548

>  <rmsd>  (5) 
6.19225

>  <sdf_rank>  (5) 
0

$$$$

     RDKit          3D

 31 33  0  0  0  0  0  0  0  0999 V2000
  -24.7007    2.8377   62.0647 C   0  0  0  0  0  0  0  0  0  0  0  0
  -24.4509   -1.4172   61.6349 C   0  0  0  0  0  0  0  0  0  0  0  0
  -25.6811    0.5877   62.1021 C   0  0  0  0  0  0  0  0  0  0  0  0
  -24.9076    7.3566   63.5922 C   0  0  0  0  0  0  0  0  0  0  0  0
  -24.7946    5.8890   63.9548 C   0  0  0  0  0  0  0  0  0  0  0  0
  -24.7071    5.5060   65.2839 C   0  0  0  0  0  0  0  0  0  0  0  0
  -24.6034    4.1545   65.6181 C   0  0  0  0  0  0  0  0  0  0  0  0
  -24.5815    3.1832   64.6252 C   0  0  0  0  0  0  0  0  0  0  0  0
  -24.6680    3.5707   63.2916 C   0  0  0  0  0  0  0  0  0  0  0  0
  -24.7725    4.9129   62.9506 C   0  0  0  0  0  0  0  0  0  0  0  0
  -24.7885    3.8167   61.0652 C   0  0  0  0  0  0  0  0  0  0  0  0
  -24.5338    1.3490   61.9269 C   0  0  0  0  0  0  0  0  0  0  0  0
  -23.3583    0.7176   61.5748 C   0  0  0  0  0  0  0  0  0  0  0  0
  -23.3127   -0.6561   61.4402 C   0  0  0  0  0  0  0  0  0  0  0  0
  -25.6426   -0.7967   61.9687 C   0  0  0  0  0  0  0  0  0  0  0  0
  -24.8626    3.5826   59.5828 C   0  0  0  0  0  0  0  0  0  0  0  0
  -24.8334    5.0190   61.6187 N   0  0  0  0  0  0  0  0  0  0  0  0
  -23.8351    3.3123   58.9080 O   0  0  0  0  0  0  0  0  0  0  0  0
  -25.9744    3.5999   59.0268 O   0  0  0  0  0  0  0  0  0  0  0  0
  -21.9223    1.6489   61.3209 Cl  0  0  0  0  0  0  0  0  0  0  0  0
  -24.4095   -2.5109   61.5250 H   0  0  0  0  0  0  0  0  0  0  0  0
  -26.6311    1.0842   62.3492 H   0  0  0  0  0  0  0  0  0  0  0  0
  -24.9539    7.9589   64.5114 H   0  0  0  0  0  0  0  0  0  0  0  0
  -24.0299    7.6568   63.0010 H   0  0  0  0  0  0  0  0  0  0  0  0
  -25.8209    7.5190   63.0010 H   0  0  0  0  0  0  0  0  0  0  0  0
  -24.7194    6.2682   66.0769 H   0  0  0  0  0  0  0  0  0  0  0  0
  -24.5386    3.8566   66.6750 H   0  0  0  0  0  0  0  0  0  0  0  0
  -24.4966    2.1190   64.8905 H   0  0  0  0  0  0  0  0  0  0  0  0
  -22.3648   -1.1481   61.1764 H   0  0  0  0  0  0  0  0  0  0  0  0
  -26.5526   -1.3939   62.1273 H   0  0  0  0  0  0  0  0  0  0  0  0
  -24.9047    5.9058   61.0996 H   0  0  0  0  0  0  0  0  0  0  0  0
  1  9  1  0
  1 11  2  0
  1 12  1  0
  2 14  2  0
  2 15  1  0
  3 12  1  0
  3 15  2  0
  4  5  1  0
  5  6  2  0
  5 10  1  0
  6  7  1  0
  7  8  2  0
  8  9  1  0
  9 10  2  0
 10 17  1  0
 11 16  1  0
 11 17  1  0
 12 13  2  0
 13 14  1  0
 13 20  1  0
 16 18  1  0
 16 19  2  0
  2 21  1  0
  3 22  1  0
  4 23  1  0
  4 24  1  0
  4 25  1  0
  6 26  1  0
  7 27  1  0
  8 28  1  0
 14 29  1  0
 15 30  1  0
 17 31  1  0
M  CHG  1  18  -1
M  END
>  <filename_input>  (6) 
7AFX_R9K_docked.sdf

>  <pdb_id>  (6) 
7AFX_R9K

>  <pose_rank>  (6) 
5

>  <num_atoms_heavy>  (6) 
20

>  <num_torsions>  (6) 
2

>  <pose>  (6) 
[-24.70066573900336, 2.837650605002653, 62.06472017477263, -1.5072192880248603, -0.06884635637807335, 2.6021849824926293, 15.966883638460152, -14.42373194196732]

>  <energy>  (6) 
-483.9312586318885

>  <inter_energy>  (6) 
-479.2177710592463

>  <intra_energy>  (6) 
0.2928164580711436

>  <rmsd>  (6) 
5.63036

>  <sdf_rank>  (6) 
0

$$$$

     RDKit          3D

 31 33  0  0  0  0  0  0  0  0999 V2000
  -24.9917    2.6174   62.8067 C   0  0  0  0  0  0  0  0  0  0  0  0
  -24.5189    4.8478   59.1802 C   0  0  0  0  0  0  0  0  0  0  0  0
  -25.3825    4.5926   61.4028 C   0  0  0  0  0  0  0  0  0  0  0  0
  -25.5779   -0.5882   66.2963 C   0  0  0  0  0  0  0  0  0  0  0  0
  -25.5924   -0.3029   64.8076 C   0  0  0  0  0  0  0  0  0  0  0  0
  -25.8982   -1.3129   63.9090 C   0  0  0  0  0  0  0  0  0  0  0  0
  -25.9119   -1.0502   62.5379 C   0  0  0  0  0  0  0  0  0  0  0  0
  -25.6151    0.2203   62.0613 C   0  0  0  0  0  0  0  0  0  0  0  0
  -25.3070    1.2321   62.9655 C   0  0  0  0  0  0  0  0  0  0  0  0
  -25.2921    0.9795   64.3311 C   0  0  0  0  0  0  0  0  0  0  0  0
  -24.7746    3.0866   64.1098 C   0  0  0  0  0  0  0  0  0  0  0  0
  -24.8100    3.3314   61.4953 C   0  0  0  0  0  0  0  0  0  0  0  0
  -24.0678    2.8535   60.4345 C   0  0  0  0  0  0  0  0  0  0  0  0
  -23.9315    3.5998   59.2806 C   0  0  0  0  0  0  0  0  0  0  0  0
  -25.2498    5.3499   60.2433 C   0  0  0  0  0  0  0  0  0  0  0  0
  -24.4190    4.4902   64.5113 C   0  0  0  0  0  0  0  0  0  0  0  0
  -24.9634    2.1036   64.9770 N   0  0  0  0  0  0  0  0  0  0  0  0
  -23.4448    5.0953   63.9926 O   0  0  0  0  0  0  0  0  0  0  0  0
  -25.1422    5.0818   65.3314 O   0  0  0  0  0  0  0  0  0  0  0  0
  -23.3190    1.2971   60.5386 Cl  0  0  0  0  0  0  0  0  0  0  0  0
  -24.4060    5.4389   58.2594 H   0  0  0  0  0  0  0  0  0  0  0  0
  -25.9473    4.9975   62.2555 H   0  0  0  0  0  0  0  0  0  0  0  0
  -25.6261    0.3599   66.8519 H   0  0  0  0  0  0  0  0  0  0  0  0
  -26.4455   -1.2115   66.5587 H   0  0  0  0  0  0  0  0  0  0  0  0
  -24.6515   -1.1202   66.5587 H   0  0  0  0  0  0  0  0  0  0  0  0
  -26.1304   -2.3232   64.2768 H   0  0  0  0  0  0  0  0  0  0  0  0
  -26.1595   -1.8550   61.8301 H   0  0  0  0  0  0  0  0  0  0  0  0
  -25.6234    0.4245   60.9804 H   0  0  0  0  0  0  0  0  0  0  0  0
  -23.3518    3.1992   58.4360 H   0  0  0  0  0  0  0  0  0  0  0  0
  -25.7222    6.3407   60.1719 H   0  0  0  0  0  0  0  0  0  0  0  0
  -24.8707    2.1919   65.9990 H   0  0  0  0  0  0  0  0  0  0  0  0
  1  9  1  0
  1 11  2  0
  1 12  1  0
  2 14  2  0
  2 15  1  0
  3 12  1  0
  3 15  2  0
  4  5  1  0
  5  6  2  0
  5 10  1  0
  6  7  1  0
  7  8  2  0
  8  9  1  0
  9 10  2  0
 10 17  1  0
 11 16  1  0
 11 17  1  0
 12 13  2  0
 13 14  1  0
 13 20  1  0
 16 18  1  0
 16 19  2  0
  2 21  1  0
  3 22  1  0
  4 23  1  0
  4 24  1  0
  4 25  1  0
  6 26  1  0
  7 27  1  0
  8 28  1  0
 14 29  1  0
 15 30  1  0
 17 31  1  0
M  CHG  1  18  -1
M  END
>  <filename_input>  (7) 
7AFX_R9K_docked.sdf

>  <pdb_id>  (7) 
7AFX_R9K

>  <pose_rank>  (7) 
6

>  <num_atoms_heavy>  (7) 
20

>  <num_torsions>  (7) 
2

>  <pose>  (7) 
[-24.991746953970125, 2.6173515590492413, 62.80672848051397, 1.439852348427513, 3.531069229322196, -2.0566076747008433, -1.9596263362973092, -1.3990992849515163]

>  <energy>  (7) 
-445.20649111846967

>  <inter_energy>  (7) 
-486.8184577792593

>  <intra_energy>  (7) 
43.44168787288073

>  <rmsd>  (7) 
3.73165

>  <sdf_rank>  (7) 
0

$$$$

     RDKit          3D

 31 33  0  0  0  0  0  0  0  0999 V2000
  -25.2294    3.0710   63.8662 C   0  0  0  0  0  0  0  0  0  0  0  0
  -25.6409   -0.0685   66.7514 C   0  0  0  0  0  0  0  0  0  0  0  0
  -24.6270    1.9594   65.9701 C   0  0  0  0  0  0  0  0  0  0  0  0
  -24.5601    5.8697   60.0562 C   0  0  0  0  0  0  0  0  0  0  0  0
  -24.5001    4.4729   60.6421 C   0  0  0  0  0  0  0  0  0  0  0  0
  -24.0784    3.4087   59.8606 C   0  0  0  0  0  0  0  0  0  0  0  0
  -24.0228    2.1222   60.4001 C   0  0  0  0  0  0  0  0  0  0  0  0
  -24.3932    1.8952   61.7195 C   0  0  0  0  0  0  0  0  0  0  0  0
  -24.8176    2.9652   62.5013 C   0  0  0  0  0  0  0  0  0  0  0  0
  -24.8749    4.2483   61.9728 C   0  0  0  0  0  0  0  0  0  0  0  0
  -25.5401    4.4266   64.0422 C   0  0  0  0  0  0  0  0  0  0  0  0
  -25.4054    1.9224   64.8215 C   0  0  0  0  0  0  0  0  0  0  0  0
  -26.3203    0.9011   64.6651 C   0  0  0  0  0  0  0  0  0  0  0  0
  -26.4308   -0.0938   65.6165 C   0  0  0  0  0  0  0  0  0  0  0  0
  -24.7325    0.9604   66.9326 C   0  0  0  0  0  0  0  0  0  0  0  0
  -26.0188    5.0815   65.3070 C   0  0  0  0  0  0  0  0  0  0  0  0
  -25.3166    5.0871   62.9162 N   0  0  0  0  0  0  0  0  0  0  0  0
  -25.3513    5.9871   65.8714 O   0  0  0  0  0  0  0  0  0  0  0  0
  -27.1270    4.7582   65.7685 O   0  0  0  0  0  0  0  0  0  0  0  0
  -27.3233    0.8509   63.2561 Cl  0  0  0  0  0  0  0  0  0  0  0  0
  -25.7340   -0.8626   67.5069 H   0  0  0  0  0  0  0  0  0  0  0  0
  -23.9190    2.7877   66.1211 H   0  0  0  0  0  0  0  0  0  0  0  0
  -24.5918    6.6080   60.8710 H   0  0  0  0  0  0  0  0  0  0  0  0
  -23.6687    6.0459   59.4362 H   0  0  0  0  0  0  0  0  0  0  0  0
  -25.4633    5.9688   59.4362 H   0  0  0  0  0  0  0  0  0  0  0  0
  -23.7871    3.5779   58.8135 H   0  0  0  0  0  0  0  0  0  0  0  0
  -23.6832    1.2825   59.7760 H   0  0  0  0  0  0  0  0  0  0  0  0
  -24.3516    0.8803   62.1418 H   0  0  0  0  0  0  0  0  0  0  0  0
  -27.1519   -0.9116   65.4706 H   0  0  0  0  0  0  0  0  0  0  0  0
  -24.0987    0.9878   67.8312 H   0  0  0  0  0  0  0  0  0  0  0  0
  -25.4617    6.0985   62.7860 H   0  0  0  0  0  0  0  0  0  0  0  0
  1  9  1  0
  1 11  2  0
  1 12  1  0
  2 14  2  0
  2 15  1  0
  3 12  1  0
  3 15  2  0
  4  5  1  0
  5  6  2  0
  5 10  1  0
  6  7  1  0
  7  8  2  0
  8  9  1  0
  9 10  2  0
 10 17  1  0
 11 16  1  0
 11 17  1  0
 12 13  2  0
 13 14  1  0
 13 20  1  0
 16 18  1  0
 16 19  2  0
  2 21  1  0
  3 22  1  0
  4 23  1  0
  4 24  1  0
  4 25  1  0
  6 26  1  0
  7 27  1  0
  8 28  1  0
 14 29  1  0
 15 30  1  0
 17 31  1  0
M  CHG  1  18  -1
M  END
>  <filename_input>  (8) 
7AFX_R9K_docked.sdf

>  <pdb_id>  (8) 
7AFX_R9K

>  <pose_rank>  (8) 
7

>  <num_atoms_heavy>  (8) 
20

>  <num_torsions>  (8) 
2

>  <pose>  (8) 
[-25.229397820236755, 3.070998273307637, 63.866163332850135, 1.898918122904926, 0.740364380702126, 1.6159796666328838, -2.255513241579683, 1.582707392605247]

>  <energy>  (8) 
-442.2906139621138

>  <inter_energy>  (8) 
-437.30433543077385

>  <intra_energy>  (8) 
9.293202394811068

>  <rmsd>  (8) 
6.40419

>  <sdf_rank>  (8) 
0

$$$$

     RDKit          3D

 31 33  0  0  0  0  0  0  0  0999 V2000
  -25.1453    4.1576   64.4522 C   0  0  0  0  0  0  0  0  0  0  0  0
  -25.8851    7.2417   67.3317 C   0  0  0  0  0  0  0  0  0  0  0  0
  -26.3428    5.0874   66.3826 C   0  0  0  0  0  0  0  0  0  0  0  0
  -24.3454    1.4085   60.6313 C   0  0  0  0  0  0  0  0  0  0  0  0
  -24.6944    2.7834   61.1658 C   0  0  0  0  0  0  0  0  0  0  0  0
  -24.9210    3.8330   60.2895 C   0  0  0  0  0  0  0  0  0  0  0  0
  -25.2428    5.0993   60.7815 C   0  0  0  0  0  0  0  0  0  0  0  0
  -25.3335    5.3211   62.1498 C   0  0  0  0  0  0  0  0  0  0  0  0
  -25.1039    4.2659   63.0273 C   0  0  0  0  0  0  0  0  0  0  0  0
  -24.7844    3.0028   62.5462 C   0  0  0  0  0  0  0  0  0  0  0  0
  -24.8073    2.8237   64.7197 C   0  0  0  0  0  0  0  0  0  0  0  0
  -25.3716    5.2931   65.4125 C   0  0  0  0  0  0  0  0  0  0  0  0
  -24.6425    6.4647   65.4326 C   0  0  0  0  0  0  0  0  0  0  0  0
  -24.9034    7.4375   66.3775 C   0  0  0  0  0  0  0  0  0  0  0  0
  -26.6115    6.0631   67.3373 C   0  0  0  0  0  0  0  0  0  0  0  0
  -24.7125    2.1750   66.0717 C   0  0  0  0  0  0  0  0  0  0  0  0
  -24.6075    2.1756   63.5821 N   0  0  0  0  0  0  0  0  0  0  0  0
  -24.2007    2.7737   67.0534 O   0  0  0  0  0  0  0  0  0  0  0  0
  -25.2051    1.0448   66.2316 O   0  0  0  0  0  0  0  0  0  0  0  0
  -23.4056    6.7303   64.2522 Cl  0  0  0  0  0  0  0  0  0  0  0  0
  -26.0879    8.0191   68.0831 H   0  0  0  0  0  0  0  0  0  0  0  0
  -26.9061    4.1427   66.3968 H   0  0  0  0  0  0  0  0  0  0  0  0
  -24.1710    0.7215   61.4725 H   0  0  0  0  0  0  0  0  0  0  0  0
  -25.1765    1.0321   60.0168 H   0  0  0  0  0  0  0  0  0  0  0  0
  -23.4354    1.4741   60.0168 H   0  0  0  0  0  0  0  0  0  0  0  0
  -24.8473    3.6681   59.2045 H   0  0  0  0  0  0  0  0  0  0  0  0
  -25.4257    5.9272   60.0808 H   0  0  0  0  0  0  0  0  0  0  0  0
  -25.5841    6.3203   62.5355 H   0  0  0  0  0  0  0  0  0  0  0  0
  -24.3266    8.3741   66.3711 H   0  0  0  0  0  0  0  0  0  0  0  0
  -27.3955    5.8993   68.0913 H   0  0  0  0  0  0  0  0  0  0  0  0
  -24.3532    1.1803   63.5063 H   0  0  0  0  0  0  0  0  0  0  0  0
  1  9  1  0
  1 11  2  0
  1 12  1  0
  2 14  2  0
  2 15  1  0
  3 12  1  0
  3 15  2  0
  4  5  1  0
  5  6  2  0
  5 10  1  0
  6  7  1  0
  7  8  2  0
  8  9  1  0
  9 10  2  0
 10 17  1  0
 11 16  1  0
 11 17  1  0
 12 13  2  0
 13 14  1  0
 13 20  1  0
 16 18  1  0
 16 19  2  0
  2 21  1  0
  3 22  1  0
  4 23  1  0
  4 24  1  0
  4 25  1  0
  6 26  1  0
  7 27  1  0
  8 28  1  0
 14 29  1  0
 15 30  1  0
 17 31  1  0
M  CHG  1  18  -1
M  END
>  <filename_input>  (9) 
7AFX_R9K_docked.sdf

>  <pdb_id>  (9) 
7AFX_R9K

>  <pose_rank>  (9) 
8

>  <num_atoms_heavy>  (9) 
20

>  <num_torsions>  (9) 
2

>  <pose>  (9) 
[-25.145331267516607, 4.1576283912886005, 64.45216185080267, -1.6290747183588339, 3.698471023525685, 0.9511134088336963, 4.1923355843529695, -1.1907723040084808]

>  <energy>  (9) 
-367.9396784016975

>  <inter_energy>  (9) 
-393.1448766079019

>  <intra_energy>  (9) 
30.992291190367762

>  <rmsd>  (9) 
5.81001

>  <sdf_rank>  (9) 
0

$$$$

     RDKit          3D

 31 33  0  0  0  0  0  0  0  0999 V2000
  -22.8109    4.9621   69.3560 C   0  0  0  0  0  0  0  0  0  0  0  0
  -23.2713    8.5528   67.0656 C   0  0  0  0  0  0  0  0  0  0  0  0
  -22.5027    7.3721   69.0064 C   0  0  0  0  0  0  0  0  0  0  0  0
  -23.2550    1.0100   71.9979 C   0  0  0  0  0  0  0  0  0  0  0  0
  -23.9366    2.2058   71.3628 C   0  0  0  0  0  0  0  0  0  0  0  0
  -25.3000    2.3956   71.5240 C   0  0  0  0  0  0  0  0  0  0  0  0
  -25.9279    3.4971   70.9395 C   0  0  0  0  0  0  0  0  0  0  0  0
  -25.1963    4.4081   70.1883 C   0  0  0  0  0  0  0  0  0  0  0  0
  -23.8278    4.2143   70.0268 C   0  0  0  0  0  0  0  0  0  0  0  0
  -23.1952    3.1219   70.6058 C   0  0  0  0  0  0  0  0  0  0  0  0
  -21.6339    4.2282   69.5594 C   0  0  0  0  0  0  0  0  0  0  0  0
  -23.0343    6.1883   68.5137 C   0  0  0  0  0  0  0  0  0  0  0  0
  -23.6543    6.1945   67.2808 C   0  0  0  0  0  0  0  0  0  0  0  0
  -23.7826    7.3690   66.5657 C   0  0  0  0  0  0  0  0  0  0  0  0
  -22.6286    8.5592   68.2919 C   0  0  0  0  0  0  0  0  0  0  0  0
  -20.2589    4.5810   69.0668 C   0  0  0  0  0  0  0  0  0  0  0  0
  -21.8941    3.1605   70.2986 N   0  0  0  0  0  0  0  0  0  0  0  0
  -19.8253    4.1524   67.9657 O   0  0  0  0  0  0  0  0  0  0  0  0
  -19.5620    5.3612   69.7386 O   0  0  0  0  0  0  0  0  0  0  0  0
  -24.2974    4.7250   66.6321 Cl  0  0  0  0  0  0  0  0  0  0  0  0
  -23.3747    9.4853   66.4914 H   0  0  0  0  0  0  0  0  0  0  0  0
  -21.9763    7.3717   69.9722 H   0  0  0  0  0  0  0  0  0  0  0  0
  -23.3053    1.0982   73.0932 H   0  0  0  0  0  0  0  0  0  0  0  0
  -23.7628    0.0872   71.6807 H   0  0  0  0  0  0  0  0  0  0  0  0
  -22.2022    0.9768   71.6807 H   0  0  0  0  0  0  0  0  0  0  0  0
  -25.8884    1.6772   72.1136 H   0  0  0  0  0  0  0  0  0  0  0  0
  -27.0095    3.6445   71.0747 H   0  0  0  0  0  0  0  0  0  0  0  0
  -25.6934    5.2736   69.7260 H   0  0  0  0  0  0  0  0  0  0  0  0
  -24.2948    7.3629   65.5923 H   0  0  0  0  0  0  0  0  0  0  0  0
  -22.2204    9.4963   68.6983 H   0  0  0  0  0  0  0  0  0  0  0  0
  -21.1967    2.4623   70.5937 H   0  0  0  0  0  0  0  0  0  0  0  0
  1  9  1  0
  1 11  2  0
  1 12  1  0
  2 14  2  0
  2 15  1  0
  3 12  1  0
  3 15  2  0
  4  5  1  0
  5  6  2  0
  5 10  1  0
  6  7  1  0
  7  8  2  0
  8  9  1  0
  9 10  2  0
 10 17  1  0
 11 16  1  0
 11 17  1  0
 12 13  2  0
 13 14  1  0
 13 20  1  0
 16 18  1  0
 16 19  2  0
  2 21  1  0
  3 22  1  0
  4 23  1  0
  4 24  1  0
  4 25  1  0
  6 26  1  0
  7 27  1  0
  8 28  1  0
 14 29  1  0
 15 30  1  0
 17 31  1  0
M  CHG  1  18  -1
M  END
>  <filename_input>  (10) 
7AFX_R9K_docked.sdf

>  <pdb_id>  (10) 
7AFX_R9K

>  <pose_rank>  (10) 
9

>  <num_atoms_heavy>  (10) 
20

>  <num_torsions>  (10) 
2

>  <pose>  (10) 
[-22.810850538221416, 4.962116699168934, 69.35596268233911, 4.672387701705569, 2.990036179402907, -1.6869734417077884, -8.659918249205713, -2.091657241462323]

>  <energy>  (10) 
-144.96135428490464

>  <inter_energy>  (10) 
-139.29510657696454

>  <intra_energy>  (10) 
3.1907605658939477

>  <rmsd>  (10) 
8.76312

>  <sdf_rank>  (10) 
0

$$$$

     RDKit          3D

 31 33  0  0  0  0  0  0  0  0999 V2000
  -25.8717   -2.9202   64.6819 C   0  0  0  0  0  0  0  0  0  0  0  0
  -26.4302    0.0832   61.6788 C   0  0  0  0  0  0  0  0  0  0  0  0
  -26.8317   -0.8134   63.8665 C   0  0  0  0  0  0  0  0  0  0  0  0
  -25.0342   -5.1551   68.8172 C   0  0  0  0  0  0  0  0  0  0  0  0
  -24.9107   -3.8808   68.0054 C   0  0  0  0  0  0  0  0  0  0  0  0
  -24.3032   -2.7626   68.5546 C   0  0  0  0  0  0  0  0  0  0  0  0
  -24.1891   -1.5891   67.8071 C   0  0  0  0  0  0  0  0  0  0  0  0
  -24.6863   -1.5283   66.5114 C   0  0  0  0  0  0  0  0  0  0  0  0
  -25.2970   -2.6519   65.9630 C   0  0  0  0  0  0  0  0  0  0  0  0
  -25.4137   -3.8236   66.6994 C   0  0  0  0  0  0  0  0  0  0  0  0
  -26.3271   -4.2435   64.7640 C   0  0  0  0  0  0  0  0  0  0  0  0
  -26.0476   -1.9202   63.5720 C   0  0  0  0  0  0  0  0  0  0  0  0
  -25.4348   -1.9975   62.3378 C   0  0  0  0  0  0  0  0  0  0  0  0
  -25.6323   -1.0098   61.3932 C   0  0  0  0  0  0  0  0  0  0  0  0
  -27.0356    0.1853   62.9197 C   0  0  0  0  0  0  0  0  0  0  0  0
  -27.0081   -5.0279   63.6783 C   0  0  0  0  0  0  0  0  0  0  0  0
  -26.0385   -4.7432   65.9560 N   0  0  0  0  0  0  0  0  0  0  0  0
  -28.1496   -4.7093   63.2547 O   0  0  0  0  0  0  0  0  0  0  0  0
  -26.4007   -5.9757   63.1508 O   0  0  0  0  0  0  0  0  0  0  0  0
  -24.4279   -3.3527   61.9590 Cl  0  0  0  0  0  0  0  0  0  0  0  0
  -26.5830    0.8680   60.9234 H   0  0  0  0  0  0  0  0  0  0  0  0
  -27.2969   -0.7249   64.8594 H   0  0  0  0  0  0  0  0  0  0  0  0
  -25.0105   -4.9105   69.8894 H   0  0  0  0  0  0  0  0  0  0  0  0
  -25.9848   -5.6531   68.5756 H   0  0  0  0  0  0  0  0  0  0  0  0
  -24.1968   -5.8263   68.5756 H   0  0  0  0  0  0  0  0  0  0  0  0
  -23.9103   -2.7999   69.5814 H   0  0  0  0  0  0  0  0  0  0  0  0
  -23.7021   -0.7064   68.2472 H   0  0  0  0  0  0  0  0  0  0  0  0
  -24.5981   -0.6017   65.9252 H   0  0  0  0  0  0  0  0  0  0  0  0
  -25.1520   -1.0928   60.4071 H   0  0  0  0  0  0  0  0  0  0  0  0
  -27.6734    1.0501   63.1552 H   0  0  0  0  0  0  0  0  0  0  0  0
  -26.2623   -5.6999   66.2653 H   0  0  0  0  0  0  0  0  0  0  0  0
  1  9  1  0
  1 11  2  0
  1 12  1  0
  2 14  2  0
  2 15  1  0
  3 12  1  0
  3 15  2  0
  4  5  1  0
  5  6  2  0
  5 10  1  0
  6  7  1  0
  7  8  2  0
  8  9  1  0
  9 10  2  0
 10 17  1  0
 11 16  1  0
 11 17  1  0
 12 13  2  0
 13 14  1  0
 13 20  1  0
 16 18  1  0
 16 19  2  0
  2 21  1  0
  3 22  1  0
  4 23  1  0
  4 24  1  0
  4 25  1  0
  6 26  1  0
  7 27  1  0
  8 28  1  0
 14 29  1  0
 15 30  1  0
 17 31  1  0
M  CHG  1  18  -1
M  END
>  <filename_input>  (11) 
7AFX_R9K_docked.sdf

>  <pdb_id>  (11) 
7AFX_R9K

>  <pose_rank>  (11) 
10

>  <num_atoms_heavy>  (11) 
20

>  <num_torsions>  (11) 
2

>  <pose>  (11) 
[-25.87168861896477, -2.920189195667875, 64.68188881728952, -0.6996445525137976, 1.430030636557118, -0.784667442740397, -5.404699681559074, -1.6342557265114988]

>  <energy>  (11) 
-422.8679745939458

>  <inter_energy>  (11) 
-408.46555705356116

>  <intra_energy>  (11) 
5.9551477875076575

>  <rmsd>  (11) 
6.07118

>  <sdf_rank>  (11) 
0

$$$$

     RDKit          3D

 31 33  0  0  0  0  0  0  0  0999 V2000
  -25.6148    2.9307   64.3410 C   0  0  0  0  0  0  0  0  0  0  0  0
  -25.4160    6.2985   66.9809 C   0  0  0  0  0  0  0  0  0  0  0  0
  -26.1393    5.2503   64.9489 C   0  0  0  0  0  0  0  0  0  0  0  0
  -25.3229   -0.0887   60.6539 C   0  0  0  0  0  0  0  0  0  0  0  0
  -25.0439    1.3002   61.1933 C   0  0  0  0  0  0  0  0  0  0  0  0
  -24.4408    2.2516   60.3858 C   0  0  0  0  0  0  0  0  0  0  0  0
  -24.1840    3.5309   60.8823 C   0  0  0  0  0  0  0  0  0  0  0  0
  -24.5242    3.8609   62.1880 C   0  0  0  0  0  0  0  0  0  0  0  0
  -25.1282    2.9034   62.9971 C   0  0  0  0  0  0  0  0  0  0  0  0
  -25.3881    1.6288   62.5106 C   0  0  0  0  0  0  0  0  0  0  0  0
  -26.1050    1.6376   64.5704 C   0  0  0  0  0  0  0  0  0  0  0  0
  -25.4788    4.0812   65.3005 C   0  0  0  0  0  0  0  0  0  0  0  0
  -24.8168    4.0239   66.5101 C   0  0  0  0  0  0  0  0  0  0  0  0
  -24.7753    5.1267   67.3403 C   0  0  0  0  0  0  0  0  0  0  0  0
  -26.1014    6.3654   65.7799 C   0  0  0  0  0  0  0  0  0  0  0  0
  -26.7403    1.1289   65.8335 C   0  0  0  0  0  0  0  0  0  0  0  0
  -25.9612    0.9036   63.4774 N   0  0  0  0  0  0  0  0  0  0  0  0
  -27.7044    1.7317   66.3732 O   0  0  0  0  0  0  0  0  0  0  0  0
  -26.3384    0.0570   66.3185 O   0  0  0  0  0  0  0  0  0  0  0  0
  -24.0122    2.5672   66.9839 Cl  0  0  0  0  0  0  0  0  0  0  0  0
  -25.3811    7.1735   67.6465 H   0  0  0  0  0  0  0  0  0  0  0  0
  -26.6988    5.2956   64.0029 H   0  0  0  0  0  0  0  0  0  0  0  0
  -25.4631   -0.7865   61.4926 H   0  0  0  0  0  0  0  0  0  0  0  0
  -26.2346   -0.0668   60.0388 H   0  0  0  0  0  0  0  0  0  0  0  0
  -24.4735   -0.4206   60.0388 H   0  0  0  0  0  0  0  0  0  0  0  0
  -24.1639    1.9982   59.3518 H   0  0  0  0  0  0  0  0  0  0  0  0
  -23.7090    4.2828   60.2350 H   0  0  0  0  0  0  0  0  0  0  0  0
  -24.3182    4.8685   62.5783 H   0  0  0  0  0  0  0  0  0  0  0  0
  -24.2291    5.0727   68.2936 H   0  0  0  0  0  0  0  0  0  0  0  0
  -26.6124    7.2938   65.4849 H   0  0  0  0  0  0  0  0  0  0  0  0
  -26.2485   -0.0812   63.3853 H   0  0  0  0  0  0  0  0  0  0  0  0
  1  9  1  0
  1 11  2  0
  1 12  1  0
  2 14  2  0
  2 15  1  0
  3 12  1  0
  3 15  2  0
  4  5  1  0
  5  6  2  0
  5 10  1  0
  6  7  1  0
  7  8  2  0
  8  9  1  0
  9 10  2  0
 10 17  1  0
 11 16  1  0
 11 17  1  0
 12 13  2  0
 13 14  1  0
 13 20  1  0
 16 18  1  0
 16 19  2  0
  2 21  1  0
  3 22  1  0
  4 23  1  0
  4 24  1  0
  4 25  1  0
  6 26  1  0
  7 27  1  0
  8 28  1  0
 14 29  1  0
 15 30  1  0
 17 31  1  0
M  CHG  1  18  -1
M  END
>  <filename_input>  (12) 
7AFX_R9K_docked.sdf

>  <pdb_id>  (12) 
7AFX_R9K

>  <pose_rank>  (12) 
11

>  <num_atoms_heavy>  (12) 
20

>  <num_torsions>  (12) 
2

>  <pose>  (12) 
[-25.61477731337256, 2.930721503091919, 64.34097004449562, -0.5689663606612623, 3.5262959616390614, 1.0801597215978433, -3.242813661650401, 0.43773498204143896]

>  <energy>  (12) 
-422.7450856990597

>  <inter_energy>  (12) 
-432.6300558464536

>  <intra_energy>  (12) 
15.217960780338233

>  <rmsd>  (12) 
5.31467

>  <sdf_rank>  (12) 
0

$$$$

     RDKit          3D

 31 33  0  0  0  0  0  0  0  0999 V2000
  -24.4301    5.1596   63.8355 C   0  0  0  0  0  0  0  0  0  0  0  0
  -24.1146    9.2251   65.1477 C   0  0  0  0  0  0  0  0  0  0  0  0
  -25.2427    7.1099   65.0850 C   0  0  0  0  0  0  0  0  0  0  0  0
  -24.7025    0.9936   61.5188 C   0  0  0  0  0  0  0  0  0  0  0  0
  -24.6384    2.5053   61.4264 C   0  0  0  0  0  0  0  0  0  0  0  0
  -24.6644    3.1280   60.1885 C   0  0  0  0  0  0  0  0  0  0  0  0
  -24.6057    4.5202   60.1032 C   0  0  0  0  0  0  0  0  0  0  0  0
  -24.5155    5.2931   61.2539 C   0  0  0  0  0  0  0  0  0  0  0  0
  -24.4880    4.6653   62.4954 C   0  0  0  0  0  0  0  0  0  0  0  0
  -24.5471    3.2809   62.5892 C   0  0  0  0  0  0  0  0  0  0  0  0
  -24.4235    4.0117   64.6403 C   0  0  0  0  0  0  0  0  0  0  0  0
  -24.2717    6.6017   64.2331 C   0  0  0  0  0  0  0  0  0  0  0  0
  -23.2105    7.4063   63.8714 C   0  0  0  0  0  0  0  0  0  0  0  0
  -23.1365    8.7119   64.3155 C   0  0  0  0  0  0  0  0  0  0  0  0
  -25.1750    8.4243   65.5358 C   0  0  0  0  0  0  0  0  0  0  0  0
  -24.3796    3.9677   66.1416 C   0  0  0  0  0  0  0  0  0  0  0  0
  -24.4979    2.9306   63.8790 N   0  0  0  0  0  0  0  0  0  0  0  0
  -23.8610    2.9992   66.7558 O   0  0  0  0  0  0  0  0  0  0  0  0
  -24.8139    4.9395   66.7840 O   0  0  0  0  0  0  0  0  0  0  0  0
  -21.9719    6.7850   62.8353 Cl  0  0  0  0  0  0  0  0  0  0  0  0
  -24.0501   10.2653   65.4998 H   0  0  0  0  0  0  0  0  0  0  0  0
  -26.0747    6.4664   65.4070 H   0  0  0  0  0  0  0  0  0  0  0  0
  -24.7154    0.6911   62.5763 H   0  0  0  0  0  0  0  0  0  0  0  0
  -25.6167    0.6344   61.0235 H   0  0  0  0  0  0  0  0  0  0  0  0
  -23.8220    0.5583   61.0235 H   0  0  0  0  0  0  0  0  0  0  0  0
  -24.7315    2.5241   59.2715 H   0  0  0  0  0  0  0  0  0  0  0  0
  -24.6311    5.0086   59.1179 H   0  0  0  0  0  0  0  0  0  0  0  0
  -24.4662    6.3898   61.1844 H   0  0  0  0  0  0  0  0  0  0  0  0
  -22.2942    9.3477   64.0052 H   0  0  0  0  0  0  0  0  0  0  0  0
  -25.9587    8.8244   66.1960 H   0  0  0  0  0  0  0  0  0  0  0  0
  -24.5153    1.9620   64.2289 H   0  0  0  0  0  0  0  0  0  0  0  0
  1  9  1  0
  1 11  2  0
  1 12  1  0
  2 14  2  0
  2 15  1  0
  3 12  1  0
  3 15  2  0
  4  5  1  0
  5  6  2  0
  5 10  1  0
  6  7  1  0
  7  8  2  0
  8  9  1  0
  9 10  2  0
 10 17  1  0
 11 16  1  0
 11 17  1  0
 12 13  2  0
 13 14  1  0
 13 20  1  0
 16 18  1  0
 16 19  2  0
  2 21  1  0
  3 22  1  0
  4 23  1  0
  4 24  1  0
  4 25  1  0
  6 26  1  0
  7 27  1  0
  8 28  1  0
 14 29  1  0
 15 30  1  0
 17 31  1  0
M  CHG  1  18  -1
M  END
>  <filename_input>  (13) 
7AFX_R9K_docked.sdf

>  <pdb_id>  (13) 
7AFX_R9K

>  <pose_rank>  (13) 
12

>  <num_atoms_heavy>  (13) 
20

>  <num_torsions>  (13) 
2

>  <pose>  (13) 
[-24.43006982767288, 5.159555871154823, 63.835491912004, 0.28844035832989456, -1.9990224691245462, -0.2397027593829048, 4.097939230303941, -3.1207711568061183]

>  <energy>  (13) 
-343.1694808142927

>  <inter_energy>  (13) 
-376.08858960758835

>  <intra_energy>  (13) 
41.12049127736292

>  <rmsd>  (13) 
5.87854

>  <sdf_rank>  (13) 
0

$$$$

     RDKit          3D

 31 33  0  0  0  0  0  0  0  0999 V2000
  -25.1939   -2.4040   63.9853 C   0  0  0  0  0  0  0  0  0  0  0  0
  -25.0743    0.2485   60.6236 C   0  0  0  0  0  0  0  0  0  0  0  0
  -24.0775   -1.4130   62.0367 C   0  0  0  0  0  0  0  0  0  0  0  0
  -25.2789   -4.5424   68.2534 C   0  0  0  0  0  0  0  0  0  0  0  0
  -25.1705   -3.2457   67.4757 C   0  0  0  0  0  0  0  0  0  0  0  0
  -25.0186   -2.0429   68.1473 C   0  0  0  0  0  0  0  0  0  0  0  0
  -24.9184   -0.8486   67.4313 C   0  0  0  0  0  0  0  0  0  0  0  0
  -24.9752   -0.8527   66.0433 C   0  0  0  0  0  0  0  0  0  0  0  0
  -25.1294   -2.0615   65.3717 C   0  0  0  0  0  0  0  0  0  0  0  0
  -25.2287   -3.2542   66.0763 C   0  0  0  0  0  0  0  0  0  0  0  0
  -25.3649   -3.7953   63.9679 C   0  0  0  0  0  0  0  0  0  0  0  0
  -25.2093   -1.4287   62.8401 C   0  0  0  0  0  0  0  0  0  0  0  0
  -26.2792   -0.6237   62.5057 C   0  0  0  0  0  0  0  0  0  0  0  0
  -26.2098    0.2174   61.4125 C   0  0  0  0  0  0  0  0  0  0  0  0
  -24.0003   -0.5680   60.9342 C   0  0  0  0  0  0  0  0  0  0  0  0
  -25.4826   -4.6705   62.7522 C   0  0  0  0  0  0  0  0  0  0  0  0
  -25.3759   -4.2606   65.2078 N   0  0  0  0  0  0  0  0  0  0  0  0
  -24.4883   -4.9166   62.0209 O   0  0  0  0  0  0  0  0  0  0  0  0
  -26.5756   -5.2076   62.5023 O   0  0  0  0  0  0  0  0  0  0  0  0
  -27.7126   -0.6489   63.4744 Cl  0  0  0  0  0  0  0  0  0  0  0  0
  -25.0248    0.9191   59.7531 H   0  0  0  0  0  0  0  0  0  0  0  0
  -23.2324   -2.0759   62.2744 H   0  0  0  0  0  0  0  0  0  0  0  0
  -25.2608   -4.3259   69.3317 H   0  0  0  0  0  0  0  0  0  0  0  0
  -26.2223   -5.0464   67.9964 H   0  0  0  0  0  0  0  0  0  0  0  0
  -24.4323   -5.1960   67.9964 H   0  0  0  0  0  0  0  0  0  0  0  0
  -24.9768   -2.0292   69.2464 H   0  0  0  0  0  0  0  0  0  0  0  0
  -24.7936    0.1023   67.9700 H   0  0  0  0  0  0  0  0  0  0  0  0
  -24.8992    0.0898   65.4812 H   0  0  0  0  0  0  0  0  0  0  0  0
  -27.0633    0.8667   61.1676 H   0  0  0  0  0  0  0  0  0  0  0  0
  -23.0922   -0.5487   60.3136 H   0  0  0  0  0  0  0  0  0  0  0  0
  -25.4823   -5.2522   65.4655 H   0  0  0  0  0  0  0  0  0  0  0  0
  1  9  1  0
  1 11  2  0
  1 12  1  0
  2 14  2  0
  2 15  1  0
  3 12  1  0
  3 15  2  0
  4  5  1  0
  5  6  2  0
  5 10  1  0
  6  7  1  0
  7  8  2  0
  8  9  1  0
  9 10  2  0
 10 17  1  0
 11 16  1  0
 11 17  1  0
 12 13  2  0
 13 14  1  0
 13 20  1  0
 16 18  1  0
 16 19  2  0
  2 21  1  0
  3 22  1  0
  4 23  1  0
  4 24  1  0
  4 25  1  0
  6 26  1  0
  7 27  1  0
  8 28  1  0
 14 29  1  0
 15 30  1  0
 17 31  1  0
M  CHG  1  18  -1
M  END
>  <filename_input>  (14) 
7AFX_R9K_docked.sdf

>  <pdb_id>  (14) 
7AFX_R9K

>  <pose_rank>  (14) 
13

>  <num_atoms_heavy>  (14) 
20

>  <num_torsions>  (14) 
2

>  <pose>  (14) 
[-25.193858466285352, -2.403958131967364, 63.98530354568765, -0.6790326897198553, 1.0386583126349422, -0.6970944774040699, -2.4215673083947133, 0.7836765385317164]

>  <energy>  (14) 
-380.3841404664293

>  <inter_energy>  (14) 
-383.28148398512576

>  <intra_energy>  (14) 
2.323749087095509

>  <rmsd>  (14) 
5.05458

>  <sdf_rank>  (14) 
0

$$$$

     RDKit          3D

 31 33  0  0  0  0  0  0  0  0999 V2000
  -24.3261    1.0350   61.3197 C   0  0  0  0  0  0  0  0  0  0  0  0
  -24.7385    5.1855   60.3431 C   0  0  0  0  0  0  0  0  0  0  0  0
  -24.7190    2.8663   59.7332 C   0  0  0  0  0  0  0  0  0  0  0  0
  -25.1332   -3.5452   62.4002 C   0  0  0  0  0  0  0  0  0  0  0  0
  -25.6533   -2.1213   62.4009 C   0  0  0  0  0  0  0  0  0  0  0  0
  -26.9100   -1.8403   62.9134 C   0  0  0  0  0  0  0  0  0  0  0  0
  -27.3890   -0.5290   62.9144 C   0  0  0  0  0  0  0  0  0  0  0  0
  -26.6160    0.5035   62.3986 C   0  0  0  0  0  0  0  0  0  0  0  0
  -25.3553    0.2184   61.8834 C   0  0  0  0  0  0  0  0  0  0  0  0
  -24.8708   -1.0832   61.8795 C   0  0  0  0  0  0  0  0  0  0  0  0
  -23.3017    0.1388   60.9843 C   0  0  0  0  0  0  0  0  0  0  0  0
  -24.4288    2.5100   61.0430 C   0  0  0  0  0  0  0  0  0  0  0  0
  -24.3273    3.4997   61.9994 C   0  0  0  0  0  0  0  0  0  0  0  0
  -24.4698    4.8286   61.6520 C   0  0  0  0  0  0  0  0  0  0  0  0
  -24.8634    4.2031   59.3757 C   0  0  0  0  0  0  0  0  0  0  0  0
  -21.9771    0.4807   60.3627 C   0  0  0  0  0  0  0  0  0  0  0  0
  -23.6515   -1.0909   61.3299 N   0  0  0  0  0  0  0  0  0  0  0  0
  -21.4748    1.6291   60.4763 O   0  0  0  0  0  0  0  0  0  0  0  0
  -21.3414   -0.4114   59.7747 O   0  0  0  0  0  0  0  0  0  0  0  0
  -23.9967    3.0776   63.6445 Cl  0  0  0  0  0  0  0  0  0  0  0  0
  -24.8527    6.2454   60.0719 H   0  0  0  0  0  0  0  0  0  0  0  0
  -24.8361    2.0832   58.9695 H   0  0  0  0  0  0  0  0  0  0  0  0
  -25.0073   -3.8900   63.4372 H   0  0  0  0  0  0  0  0  0  0  0  0
  -25.8511   -4.1975   61.8815 H   0  0  0  0  0  0  0  0  0  0  0  0
  -24.1639   -3.5813   61.8815 H   0  0  0  0  0  0  0  0  0  0  0  0
  -27.5311   -2.6520   63.3200 H   0  0  0  0  0  0  0  0  0  0  0  0
  -28.3855   -0.3118   63.3265 H   0  0  0  0  0  0  0  0  0  0  0  0
  -26.9965    1.5356   62.3976 H   0  0  0  0  0  0  0  0  0  0  0  0
  -24.3689    5.6084   62.4212 H   0  0  0  0  0  0  0  0  0  0  0  0
  -25.0752    4.4775   58.3317 H   0  0  0  0  0  0  0  0  0  0  0  0
  -23.0698   -1.9302   61.1953 H   0  0  0  0  0  0  0  0  0  0  0  0
  1  9  1  0
  1 11  2  0
  1 12  1  0
  2 14  2  0
  2 15  1  0
  3 12  1  0
  3 15  2  0
  4  5  1  0
  5  6  2  0
  5 10  1  0
  6  7  1  0
  7  8  2  0
  8  9  1  0
  9 10  2  0
 10 17  1  0
 11 16  1  0
 11 17  1  0
 12 13  2  0
 13 14  1  0
 13 20  1  0
 16 18  1  0
 16 19  2  0
  2 21  1  0
  3 22  1  0
  4 23  1  0
  4 24  1  0
  4 25  1  0
  6 26  1  0
  7 27  1  0
  8 28  1  0
 14 29  1  0
 15 30  1  0
 17 31  1  0
M  CHG  1  18  -1
M  END
>  <filename_input>  (15) 
7AFX_R9K_docked.sdf

>  <pdb_id>  (15) 
7AFX_R9K

>  <pose_rank>  (15) 
14

>  <num_atoms_heavy>  (15) 
20

>  <num_torsions>  (15) 
2

>  <pose>  (15) 
[-24.326149977735476, 1.0349797191803742, 61.319731727028866, 1.0874880817805377, 4.948206537375142, 3.6101986225213314, 0.19399379618508852, -6.346048481398339]

>  <energy>  (15) 
-677.9342955108203

>  <inter_energy>  (15) 
-688.9824538713902

>  <intra_energy>  (15) 
7.136079669725995

>  <rmsd>  (15) 
0.545585

>  <sdf_rank>  (15) 
0

$$$$

     RDKit          3D

 31 33  0  0  0  0  0  0  0  0999 V2000
  -24.7911    2.7150   64.2906 C   0  0  0  0  0  0  0  0  0  0  0  0
  -23.7103    6.6369   62.9485 C   0  0  0  0  0  0  0  0  0  0  0  0
  -24.9671    4.6057   62.7351 C   0  0  0  0  0  0  0  0  0  0  0  0
  -25.7373   -1.9507   64.6546 C   0  0  0  0  0  0  0  0  0  0  0  0
  -25.2896   -0.8027   63.7717 C   0  0  0  0  0  0  0  0  0  0  0  0
  -24.9783   -1.0299   62.4404 C   0  0  0  0  0  0  0  0  0  0  0  0
  -24.5663    0.0272   61.6269 C   0  0  0  0  0  0  0  0  0  0  0  0
  -24.4591    1.3125   62.1429 C   0  0  0  0  0  0  0  0  0  0  0  0
  -24.7708    1.5375   63.4802 C   0  0  0  0  0  0  0  0  0  0  0  0
  -25.1825    0.4917   64.2960 C   0  0  0  0  0  0  0  0  0  0  0  0
  -25.1866    2.2694   65.5595 C   0  0  0  0  0  0  0  0  0  0  0  0
  -24.3426    4.0848   63.8600 C   0  0  0  0  0  0  0  0  0  0  0  0
  -23.4266    4.8629   64.5382 C   0  0  0  0  0  0  0  0  0  0  0  0
  -23.1034    6.1254   64.0811 C   0  0  0  0  0  0  0  0  0  0  0  0
  -24.6462    5.8765   62.2685 C   0  0  0  0  0  0  0  0  0  0  0  0
  -25.3769    3.1126   66.7886 C   0  0  0  0  0  0  0  0  0  0  0  0
  -25.4120    0.9647   65.5258 N   0  0  0  0  0  0  0  0  0  0  0  0
  -26.1249    4.1247   66.7817 O   0  0  0  0  0  0  0  0  0  0  0  0
  -24.8268    2.7636   67.8475 O   0  0  0  0  0  0  0  0  0  0  0  0
  -22.6580    4.2467   65.9606 Cl  0  0  0  0  0  0  0  0  0  0  0  0
  -23.4504    7.6437   62.5896 H   0  0  0  0  0  0  0  0  0  0  0  0
  -25.7240    4.0073   62.2068 H   0  0  0  0  0  0  0  0  0  0  0  0
  -25.6261   -1.6656   65.7112 H   0  0  0  0  0  0  0  0  0  0  0  0
  -26.7921   -2.1834   64.4467 H   0  0  0  0  0  0  0  0  0  0  0  0
  -25.1186   -2.8361   64.4467 H   0  0  0  0  0  0  0  0  0  0  0  0
  -25.0561   -2.0451   62.0239 H   0  0  0  0  0  0  0  0  0  0  0  0
  -24.3248   -0.1589   60.5700 H   0  0  0  0  0  0  0  0  0  0  0  0
  -24.1313    2.1435   61.5011 H   0  0  0  0  0  0  0  0  0  0  0  0
  -22.3585    6.7280   64.6214 H   0  0  0  0  0  0  0  0  0  0  0  0
  -25.1327    6.2743   61.3657 H   0  0  0  0  0  0  0  0  0  0  0  0
  -25.7191    0.3975   66.3288 H   0  0  0  0  0  0  0  0  0  0  0  0
  1  9  1  0
  1 11  2  0
  1 12  1  0
  2 14  2  0
  2 15  1  0
  3 12  1  0
  3 15  2  0
  4  5  1  0
  5  6  2  0
  5 10  1  0
  6  7  1  0
  7  8  2  0
  8  9  1  0
  9 10  2  0
 10 17  1  0
 11 16  1  0
 11 17  1  0
 12 13  2  0
 13 14  1  0
 13 20  1  0
 16 18  1  0
 16 19  2  0
  2 21  1  0
  3 22  1  0
  4 23  1  0
  4 24  1  0
  4 25  1  0
  6 26  1  0
  7 27  1  0
  8 28  1  0
 14 29  1  0
 15 30  1  0
 17 31  1  0
M  CHG  1  18  -1
M  END
>  <filename_input>  (16) 
7AFX_R9K_docked.sdf

>  <pdb_id>  (16) 
7AFX_R9K

>  <pose_rank>  (16) 
15

>  <num_atoms_heavy>  (16) 
20

>  <num_torsions>  (16) 
2

>  <pose>  (16) 
[-24.79114417494809, 2.7150207700403683, 64.29056935872026, 0.5097178891248817, 3.9651180889816033, -0.5360078644552959, -3.3748180309889495, 0.4576408003415516]

>  <energy>  (16) 
-295.4948614563712

>  <inter_energy>  (16) 
-332.69973361166495

>  <intra_energy>  (16) 
30.60242237954521

>  <rmsd>  (16) 
4.32561

>  <sdf_rank>  (16) 
0

$$$$

     RDKit          3D

 31 33  0  0  0  0  0  0  0  0999 V2000
  -26.3670   -5.3013   63.9136 C   0  0  0  0  0  0  0  0  0  0  0  0
  -25.2078   -1.8522   61.6529 C   0  0  0  0  0  0  0  0  0  0  0  0
  -25.8543   -4.1567   61.8036 C   0  0  0  0  0  0  0  0  0  0  0  0
  -28.6501   -9.1913   65.4796 C   0  0  0  0  0  0  0  0  0  0  0  0
  -28.6976   -7.9372   64.6293 C   0  0  0  0  0  0  0  0  0  0  0  0
  -29.8468   -7.6196   63.9225 C   0  0  0  0  0  0  0  0  0  0  0  0
  -29.8909   -6.4645   63.1396 C   0  0  0  0  0  0  0  0  0  0  0  0
  -28.7856   -5.6272   63.0568 C   0  0  0  0  0  0  0  0  0  0  0  0
  -27.6327   -5.9493   63.7663 C   0  0  0  0  0  0  0  0  0  0  0  0
  -27.5808   -7.0958   64.5482 C   0  0  0  0  0  0  0  0  0  0  0  0
  -25.6305   -6.1426   64.7592 C   0  0  0  0  0  0  0  0  0  0  0  0
  -25.9263   -4.0604   63.1865 C   0  0  0  0  0  0  0  0  0  0  0  0
  -25.6671   -2.8455   63.7876 C   0  0  0  0  0  0  0  0  0  0  0  0
  -25.2997   -1.7514   63.0292 C   0  0  0  0  0  0  0  0  0  0  0  0
  -25.4843   -3.0589   61.0331 C   0  0  0  0  0  0  0  0  0  0  0  0
  -24.2259   -5.9214   65.2449 C   0  0  0  0  0  0  0  0  0  0  0  0
  -26.3725   -7.1803   65.1153 N   0  0  0  0  0  0  0  0  0  0  0  0
  -23.3803   -5.3003   64.5496 O   0  0  0  0  0  0  0  0  0  0  0  0
  -23.9158   -6.3116   66.3838 O   0  0  0  0  0  0  0  0  0  0  0  0
  -25.7806   -2.6933   65.5074 Cl  0  0  0  0  0  0  0  0  0  0  0  0
  -24.9162   -0.9774   61.0533 H   0  0  0  0  0  0  0  0  0  0  0  0
  -26.0923   -5.1113   61.3116 H   0  0  0  0  0  0  0  0  0  0  0  0
  -28.6606   -8.9133   66.5438 H   0  0  0  0  0  0  0  0  0  0  0  0
  -29.5250   -9.8193   65.2559 H   0  0  0  0  0  0  0  0  0  0  0  0
  -27.7300   -9.7512   65.2559 H   0  0  0  0  0  0  0  0  0  0  0  0
  -30.7256   -8.2788   63.9785 H   0  0  0  0  0  0  0  0  0  0  0  0
  -30.8073   -6.2157   62.5844 H   0  0  0  0  0  0  0  0  0  0  0  0
  -28.8214   -4.7192   62.4370 H   0  0  0  0  0  0  0  0  0  0  0  0
  -25.0787   -0.7936   63.5229 H   0  0  0  0  0  0  0  0  0  0  0  0
  -25.4120   -3.1491   59.9392 H   0  0  0  0  0  0  0  0  0  0  0  0
  -26.0641   -7.9408   65.7378 H   0  0  0  0  0  0  0  0  0  0  0  0
  1  9  1  0
  1 11  2  0
  1 12  1  0
  2 14  2  0
  2 15  1  0
  3 12  1  0
  3 15  2  0
  4  5  1  0
  5  6  2  0
  5 10  1  0
  6  7  1  0
  7  8  2  0
  8  9  1  0
  9 10  2  0
 10 17  1  0
 11 16  1  0
 11 17  1  0
 12 13  2  0
 13 14  1  0
 13 20  1  0
 16 18  1  0
 16 19  2  0
  2 21  1  0
  3 22  1  0
  4 23  1  0
  4 24  1  0
  4 25  1  0
  6 26  1  0
  7 27  1  0
  8 28  1  0
 14 29  1  0
 15 30  1  0
 17 31  1  0
M  CHG  1  18  -1
M  END
>  <filename_input>  (17) 
7AFX_R9K_docked.sdf

>  <pdb_id>  (17) 
7AFX_R9K

>  <pose_rank>  (17) 
16

>  <num_atoms_heavy>  (17) 
20

>  <num_torsions>  (17) 
2

>  <pose>  (17) 
[-26.367049435477455, -5.3012501563284715, 63.9136198001317, 2.198745190371409, 4.795042646557722, 0.48116337697984674, 0.8398958656207114, -1.0135961025803666]

>  <energy>  (17) 
-264.1638612073297

>  <inter_energy>  (17) 
-271.42431573198974

>  <intra_energy>  (17) 
11.051683916672008

>  <rmsd>  (17) 
7.05286

>  <sdf_rank>  (17) 
0

$$$$

     RDKit          3D

 31 33  0  0  0  0  0  0  0  0999 V2000
  -25.1547   -3.0870   64.5723 C   0  0  0  0  0  0  0  0  0  0  0  0
  -26.5060    0.9230   65.2394 C   0  0  0  0  0  0  0  0  0  0  0  0
  -26.5011   -1.1206   63.9844 C   0  0  0  0  0  0  0  0  0  0  0  0
  -24.4461   -7.8077   64.6656 C   0  0  0  0  0  0  0  0  0  0  0  0
  -24.9077   -6.5699   65.4090 C   0  0  0  0  0  0  0  0  0  0  0  0
  -25.3536   -6.6705   66.7174 C   0  0  0  0  0  0  0  0  0  0  0  0
  -25.7784   -5.5306   67.4024 C   0  0  0  0  0  0  0  0  0  0  0  0
  -25.7639   -4.2888   66.7801 C   0  0  0  0  0  0  0  0  0  0  0  0
  -25.3172   -4.1909   65.4659 C   0  0  0  0  0  0  0  0  0  0  0  0
  -24.8918   -5.3197   64.7777 C   0  0  0  0  0  0  0  0  0  0  0  0
  -24.6692   -3.6551   63.3862 C   0  0  0  0  0  0  0  0  0  0  0  0
  -25.5625   -1.6658   64.8495 C   0  0  0  0  0  0  0  0  0  0  0  0
  -25.1275   -0.9170   65.9240 C   0  0  0  0  0  0  0  0  0  0  0  0
  -25.5862    0.3718   66.1129 C   0  0  0  0  0  0  0  0  0  0  0  0
  -26.9674    0.1773   64.1681 C   0  0  0  0  0  0  0  0  0  0  0  0
  -24.3180   -2.9270   62.1196 C   0  0  0  0  0  0  0  0  0  0  0  0
  -24.5226   -4.9620   63.5430 N   0  0  0  0  0  0  0  0  0  0  0  0
  -25.2048   -2.4093   61.3917 O   0  0  0  0  0  0  0  0  0  0  0  0
  -23.1196   -2.7858   61.8205 O   0  0  0  0  0  0  0  0  0  0  0  0
  -23.9809   -1.5867   67.0333 Cl  0  0  0  0  0  0  0  0  0  0  0  0
  -26.8694    1.9494   65.3952 H   0  0  0  0  0  0  0  0  0  0  0  0
  -26.8804   -1.7211   63.1445 H   0  0  0  0  0  0  0  0  0  0  0  0
  -24.1567   -8.5837   65.3896 H   0  0  0  0  0  0  0  0  0  0  0  0
  -25.2648   -8.1827   64.0339 H   0  0  0  0  0  0  0  0  0  0  0  0
  -23.5817   -7.5551   64.0339 H   0  0  0  0  0  0  0  0  0  0  0  0
  -25.3727   -7.6503   67.2171 H   0  0  0  0  0  0  0  0  0  0  0  0
  -26.1271   -5.6164   68.4421 H   0  0  0  0  0  0  0  0  0  0  0  0
  -26.1019   -3.3923   67.3204 H   0  0  0  0  0  0  0  0  0  0  0  0
  -25.2177    0.9638   66.9636 H   0  0  0  0  0  0  0  0  0  0  0  0
  -27.6975    0.6079   63.4671 H   0  0  0  0  0  0  0  0  0  0  0  0
  -24.1751   -5.6082   62.8200 H   0  0  0  0  0  0  0  0  0  0  0  0
  1  9  1  0
  1 11  2  0
  1 12  1  0
  2 14  2  0
  2 15  1  0
  3 12  1  0
  3 15  2  0
  4  5  1  0
  5  6  2  0
  5 10  1  0
  6  7  1  0
  7  8  2  0
  8  9  1  0
  9 10  2  0
 10 17  1  0
 11 16  1  0
 11 17  1  0
 12 13  2  0
 13 14  1  0
 13 20  1  0
 16 18  1  0
 16 19  2  0
  2 21  1  0
  3 22  1  0
  4 23  1  0
  4 24  1  0
  4 25  1  0
  6 26  1  0
  7 27  1  0
  8 28  1  0
 14 29  1  0
 15 30  1  0
 17 31  1  0
M  CHG  1  18  -1
M  END
>  <filename_input>  (18) 
7AFX_R9K_docked.sdf

>  <pdb_id>  (18) 
7AFX_R9K

>  <pose_rank>  (18) 
17

>  <num_atoms_heavy>  (18) 
20

>  <num_torsions>  (18) 
2

>  <pose>  (18) 
[-25.154680539413096, -3.086960080996174, 64.57225716365379, 1.573232320055072, 6.809711482885981, 1.3720179061555169, -0.1677807353683239, -1.7015769122980215]

>  <energy>  (18) 
-316.46659735285164

>  <inter_energy>  (18) 
-340.1389455467119

>  <intra_energy>  (18) 
23.10140945748268

>  <rmsd>  (18) 
5.28354

>  <sdf_rank>  (18) 
0

$$$$

     RDKit          3D

 31 33  0  0  0  0  0  0  0  0999 V2000
  -31.2158    7.3912   54.8716 C   0  0  0  0  0  0  0  0  0  0  0  0
  -33.8190    4.0135   54.4656 C   0  0  0  0  0  0  0  0  0  0  0  0
  -32.0224    5.1744   55.5500 C   0  0  0  0  0  0  0  0  0  0  0  0
  -27.7047   10.6210   54.6776 C   0  0  0  0  0  0  0  0  0  0  0  0
  -28.2234    9.2688   54.2297 C   0  0  0  0  0  0  0  0  0  0  0  0
  -27.4617    8.4771   53.3847 C   0  0  0  0  0  0  0  0  0  0  0  0
  -27.9391    7.2316   52.9724 C   0  0  0  0  0  0  0  0  0  0  0  0
  -29.1804    6.7767   53.3988 C   0  0  0  0  0  0  0  0  0  0  0  0
  -29.9436    7.5743   54.2459 C   0  0  0  0  0  0  0  0  0  0  0  0
  -29.4757    8.8141   54.6617 C   0  0  0  0  0  0  0  0  0  0  0  0
  -31.4304    8.5708   55.5981 C   0  0  0  0  0  0  0  0  0  0  0  0
  -32.1423    6.2265   54.6525 C   0  0  0  0  0  0  0  0  0  0  0  0
  -33.1257    6.1735   53.6858 C   0  0  0  0  0  0  0  0  0  0  0  0
  -33.9515    5.0712   53.5846 C   0  0  0  0  0  0  0  0  0  0  0  0
  -32.8505    4.0605   55.4538 C   0  0  0  0  0  0  0  0  0  0  0  0
  -32.6238    8.8956   56.4514 C   0  0  0  0  0  0  0  0  0  0  0  0
  -30.3907    9.3790   55.4570 N   0  0  0  0  0  0  0  0  0  0  0  0
  -32.9569    8.1651   57.4207 O   0  0  0  0  0  0  0  0  0  0  0  0
  -33.2567    9.9416   56.2258 O   0  0  0  0  0  0  0  0  0  0  0  0
  -33.3142    7.4869   52.5753 Cl  0  0  0  0  0  0  0  0  0  0  0  0
  -34.4803    3.1385   54.3817 H   0  0  0  0  0  0  0  0  0  0  0  0
  -31.2646    5.2218   56.3458 H   0  0  0  0  0  0  0  0  0  0  0  0
  -27.6890   10.6619   55.7768 H   0  0  0  0  0  0  0  0  0  0  0  0
  -26.6858   10.7694   54.2906 H   0  0  0  0  0  0  0  0  0  0  0  0
  -28.3630   11.4127   54.2906 H   0  0  0  0  0  0  0  0  0  0  0  0
  -26.4794    8.8307   53.0384 H   0  0  0  0  0  0  0  0  0  0  0  0
  -27.3279    6.6061   52.3051 H   0  0  0  0  0  0  0  0  0  0  0  0
  -29.5560    5.7964   53.0703 H   0  0  0  0  0  0  0  0  0  0  0  0
  -34.7197    5.0343   52.7981 H   0  0  0  0  0  0  0  0  0  0  0  0
  -32.7364    3.2231   56.1579 H   0  0  0  0  0  0  0  0  0  0  0  0
  -30.3000   10.3066   55.8955 H   0  0  0  0  0  0  0  0  0  0  0  0
  1  9  1  0
  1 11  2  0
  1 12  1  0
  2 14  2  0
  2 15  1  0
  3 12  1  0
  3 15  2  0
  4  5  1  0
  5  6  2  0
  5 10  1  0
  6  7  1  0
  7  8  2  0
  8  9  1  0
  9 10  2  0
 10 17  1  0
 11 16  1  0
 11 17  1  0
 12 13  2  0
 13 14  1  0
 13 20  1  0
 16 18  1  0
 16 19  2  0
  2 21  1  0
  3 22  1  0
  4 23  1  0
  4 24  1  0
  4 25  1  0
  6 26  1  0
  7 27  1  0
  8 28  1  0
 14 29  1  0
 15 30  1  0
 17 31  1  0
M  CHG  1  18  -1
M  END
>  <filename_input>  (19) 
7AFX_R9K_docked.sdf

>  <pdb_id>  (19) 
7AFX_R9K

>  <pose_rank>  (19) 
18

>  <num_atoms_heavy>  (19) 
20

>  <num_torsions>  (19) 
2

>  <pose>  (19) 
[-31.21583298009178, 7.391222859782364, 54.87160370257165, 1.388475614302851, -0.36933290952748027, 2.2188308411789857, 3.553411191865777, 0.5356577963587233]

>  <energy>  (19) 
-222.61022075367006

>  <inter_energy>  (19) 
-209.65591777451158

>  <intra_energy>  (19) 
0.45909211638808

>  <rmsd>  (19) 
13.2682

>  <sdf_rank>  (19) 
0

$$$$

     RDKit          3D

 31 33  0  0  0  0  0  0  0  0999 V2000
  -27.5659   -6.4008   64.4151 C   0  0  0  0  0  0  0  0  0  0  0  0
  -25.0619   -4.1525   61.7646 C   0  0  0  0  0  0  0  0  0  0  0  0
  -26.0854   -6.2043   62.4671 C   0  0  0  0  0  0  0  0  0  0  0  0
  -31.0001   -9.1892   66.2117 C   0  0  0  0  0  0  0  0  0  0  0  0
  -30.5321   -8.3176   65.0632 C   0  0  0  0  0  0  0  0  0  0  0  0
  -31.3436   -8.1330   63.9549 C   0  0  0  0  0  0  0  0  0  0  0  0
  -30.9129   -7.3301   62.8971 C   0  0  0  0  0  0  0  0  0  0  0  0
  -29.6685   -6.7142   62.9418 C   0  0  0  0  0  0  0  0  0  0  0  0
  -28.8552   -6.9025   64.0551 C   0  0  0  0  0  0  0  0  0  0  0  0
  -29.2765   -7.6988   65.1121 C   0  0  0  0  0  0  0  0  0  0  0  0
  -27.2956   -6.9735   65.6658 C   0  0  0  0  0  0  0  0  0  0  0  0
  -26.6774   -5.5568   63.5428 C   0  0  0  0  0  0  0  0  0  0  0  0
  -26.4788   -4.2002   63.6996 C   0  0  0  0  0  0  0  0  0  0  0  0
  -25.6686   -3.5037   62.8246 C   0  0  0  0  0  0  0  0  0  0  0  0
  -25.2675   -5.5094   61.5819 C   0  0  0  0  0  0  0  0  0  0  0  0
  -26.0641   -6.7660   66.5014 C   0  0  0  0  0  0  0  0  0  0  0  0
  -28.3193   -7.7230   66.0458 N   0  0  0  0  0  0  0  0  0  0  0  0
  -24.9658   -6.4364   65.9825 O   0  0  0  0  0  0  0  0  0  0  0  0
  -26.1529   -6.8664   67.7374 O   0  0  0  0  0  0  0  0  0  0  0  0
  -27.2314   -3.3655   65.0152 Cl  0  0  0  0  0  0  0  0  0  0  0  0
  -24.4186   -3.5929   61.0696 H   0  0  0  0  0  0  0  0  0  0  0  0
  -26.2649   -7.2786   62.3130 H   0  0  0  0  0  0  0  0  0  0  0  0
  -30.7416   -8.7078   67.1664 H   0  0  0  0  0  0  0  0  0  0  0  0
  -32.0905   -9.3212   66.1511 H   0  0  0  0  0  0  0  0  0  0  0  0
  -30.5080  -10.1711   66.1511 H   0  0  0  0  0  0  0  0  0  0  0  0
  -32.3288   -8.6200   63.9086 H   0  0  0  0  0  0  0  0  0  0  0  0
  -31.5634   -7.1841   62.0222 H   0  0  0  0  0  0  0  0  0  0  0  0
  -29.3297   -6.0845   62.1060 H   0  0  0  0  0  0  0  0  0  0  0  0
  -25.5047   -2.4260   62.9716 H   0  0  0  0  0  0  0  0  0  0  0  0
  -24.7876   -6.0343   60.7427 H   0  0  0  0  0  0  0  0  0  0  0  0
  -28.3707   -8.2476   66.9308 H   0  0  0  0  0  0  0  0  0  0  0  0
  1  9  1  0
  1 11  2  0
  1 12  1  0
  2 14  2  0
  2 15  1  0
  3 12  1  0
  3 15  2  0
  4  5  1  0
  5  6  2  0
  5 10  1  0
  6  7  1  0
  7  8  2  0
  8  9  1  0
  9 10  2  0
 10 17  1  0
 11 16  1  0
 11 17  1  0
 12 13  2  0
 13 14  1  0
 13 20  1  0
 16 18  1  0
 16 19  2  0
  2 21  1  0
  3 22  1  0
  4 23  1  0
  4 24  1  0
  4 25  1  0
  6 26  1  0
  7 27  1  0
  8 28  1  0
 14 29  1  0
 15 30  1  0
 17 31  1  0
M  CHG  1  18  -1
M  END
>  <filename_input>  (20) 
7AFX_R9K_docked.sdf

>  <pdb_id>  (20) 
7AFX_R9K

>  <pose_rank>  (20) 
19

>  <num_atoms_heavy>  (20) 
20

>  <num_torsions>  (20) 
2

>  <pose>  (20) 
[-27.565919933765983, -6.400821647379403, 64.41514665647067, 2.701646520706242, 3.9737516275419207, 0.5781664840739604, 0.6695109436899226, -0.9193501073474005]

>  <energy>  (20) 
-216.1500742049312

>  <inter_energy>  (20) 
-216.29187756687992

>  <intra_energy>  (20) 
8.110106997605017

>  <rmsd>  (20) 
8.78144

>  <sdf_rank>  (20) 
0

$$$$

     RDKit          3D

 31 33  0  0  0  0  0  0  0  0999 V2000
  -31.4146    6.7294   54.1457 C   0  0  0  0  0  0  0  0  0  0  0  0
  -32.2975   10.3643   56.2335 C   0  0  0  0  0  0  0  0  0  0  0  0
  -32.5374    8.9029   54.3473 C   0  0  0  0  0  0  0  0  0  0  0  0
  -31.7657    2.5249   51.9107 C   0  0  0  0  0  0  0  0  0  0  0  0
  -32.3967    3.5239   52.8603 C   0  0  0  0  0  0  0  0  0  0  0  0
  -33.6285    3.2542   53.4354 C   0  0  0  0  0  0  0  0  0  0  0  0
  -34.2097    4.1740   54.3103 C   0  0  0  0  0  0  0  0  0  0  0  0
  -33.5642    5.3673   54.6082 C   0  0  0  0  0  0  0  0  0  0  0  0
  -32.3283    5.6362   54.0282 C   0  0  0  0  0  0  0  0  0  0  0  0
  -31.7426    4.7262   53.1578 C   0  0  0  0  0  0  0  0  0  0  0  0
  -30.3506    6.3996   53.2947 C   0  0  0  0  0  0  0  0  0  0  0  0
  -31.6564    7.9961   54.9203 C   0  0  0  0  0  0  0  0  0  0  0  0
  -31.1274    8.2713   56.1648 C   0  0  0  0  0  0  0  0  0  0  0  0
  -31.4358    9.4510   56.8132 C   0  0  0  0  0  0  0  0  0  0  0  0
  -32.8522   10.0936   54.9943 C   0  0  0  0  0  0  0  0  0  0  0  0
  -29.1097    7.2115   53.0520 C   0  0  0  0  0  0  0  0  0  0  0  0
  -30.5728    5.2192   52.7367 N   0  0  0  0  0  0  0  0  0  0  0  0
  -28.8180    7.6388   51.9046 O   0  0  0  0  0  0  0  0  0  0  0  0
  -28.3907    7.5137   54.0202 O   0  0  0  0  0  0  0  0  0  0  0  0
  -30.0511    7.1416   56.9127 Cl  0  0  0  0  0  0  0  0  0  0  0  0
  -32.5410   11.3018   56.7548 H   0  0  0  0  0  0  0  0  0  0  0  0
  -32.9916    8.6776   53.3711 H   0  0  0  0  0  0  0  0  0  0  0  0
  -31.2661    1.7340   52.4894 H   0  0  0  0  0  0  0  0  0  0  0  0
  -32.5459    2.0783   51.2768 H   0  0  0  0  0  0  0  0  0  0  0  0
  -31.0272    3.0375   51.2768 H   0  0  0  0  0  0  0  0  0  0  0  0
  -34.1492    2.3137   53.2022 H   0  0  0  0  0  0  0  0  0  0  0  0
  -35.1856    3.9521   54.7668 H   0  0  0  0  0  0  0  0  0  0  0  0
  -34.0252    6.0921   55.2954 H   0  0  0  0  0  0  0  0  0  0  0  0
  -30.9931    9.6656   57.7971 H   0  0  0  0  0  0  0  0  0  0  0  0
  -33.5371   10.8149   54.5246 H   0  0  0  0  0  0  0  0  0  0  0  0
  -29.9378    4.7496   52.0755 H   0  0  0  0  0  0  0  0  0  0  0  0
  1  9  1  0
  1 11  2  0
  1 12  1  0
  2 14  2  0
  2 15  1  0
  3 12  1  0
  3 15  2  0
  4  5  1  0
  5  6  2  0
  5 10  1  0
  6  7  1  0
  7  8  2  0
  8  9  1  0
  9 10  2  0
 10 17  1  0
 11 16  1  0
 11 17  1  0
 12 13  2  0
 13 14  1  0
 13 20  1  0
 16 18  1  0
 16 19  2  0
  2 21  1  0
  3 22  1  0
  4 23  1  0
  4 24  1  0
  4 25  1  0
  6 26  1  0
  7 27  1  0
  8 28  1  0
 14 29  1  0
 15 30  1  0
 17 31  1  0
M  CHG  1  18  -1
M  END
>  <filename_input>  (21) 
7AFX_R9K_docked.sdf

>  <pdb_id>  (21) 
7AFX_R9K

>  <pose_rank>  (21) 
20

>  <num_atoms_heavy>  (21) 
20

>  <num_torsions>  (21) 
2

>  <pose>  (21) 
[-31.41464299056282, 6.729440260583116, 54.145698125933905, -5.548883067172998, -0.07800919685012307, -0.40821013980009024, 0.6204222198689118, -2.5659256702735886]

>  <energy>  (21) 
-171.09529711150364

>  <inter_energy>  (21) 
-184.1562855602249

>  <intra_energy>  (21) 
1.9867360665062128

>  <rmsd>  (21) 
12.1982

>  <sdf_rank>  (21) 
0

$$$$

     RDKit          3D

 31 33  0  0  0  0  0  0  0  0999 V2000
  -32.0599    7.6528   55.0140 C   0  0  0  0  0  0  0  0  0  0  0  0
  -33.0687    4.1207   52.8100 C   0  0  0  0  0  0  0  0  0  0  0  0
  -31.9950    5.2265   54.6473 C   0  0  0  0  0  0  0  0  0  0  0  0
  -31.6646   10.9859   58.4096 C   0  0  0  0  0  0  0  0  0  0  0  0
  -32.4404    9.8035   57.8638 C   0  0  0  0  0  0  0  0  0  0  0  0
  -33.5777    9.3564   58.5178 C   0  0  0  0  0  0  0  0  0  0  0  0
  -34.2925    8.2677   58.0152 C   0  0  0  0  0  0  0  0  0  0  0  0
  -33.8699    7.6199   56.8613 C   0  0  0  0  0  0  0  0  0  0  0  0
  -32.7270    8.0700   56.2075 C   0  0  0  0  0  0  0  0  0  0  0  0
  -32.0107    9.1530   56.7002 C   0  0  0  0  0  0  0  0  0  0  0  0
  -30.9570    8.5109   54.9018 C   0  0  0  0  0  0  0  0  0  0  0  0
  -32.4259    6.4588   54.1754 C   0  0  0  0  0  0  0  0  0  0  0  0
  -33.2042    6.5050   53.0367 C   0  0  0  0  0  0  0  0  0  0  0  0
  -33.5150    5.3468   52.3517 C   0  0  0  0  0  0  0  0  0  0  0  0
  -32.3038    4.0557   53.9622 C   0  0  0  0  0  0  0  0  0  0  0  0
  -29.9244    8.5084   53.8103 C   0  0  0  0  0  0  0  0  0  0  0  0
  -30.9617    9.3791   55.9020 N   0  0  0  0  0  0  0  0  0  0  0  0
  -30.0525    9.2238   52.7828 O   0  0  0  0  0  0  0  0  0  0  0  0
  -28.8951    7.8270   53.9588 O   0  0  0  0  0  0  0  0  0  0  0  0
  -33.7787    8.0267   52.4467 Cl  0  0  0  0  0  0  0  0  0  0  0  0
  -33.3203    3.2011   52.2615 H   0  0  0  0  0  0  0  0  0  0  0  0
  -31.4031    5.1752   55.5730 H   0  0  0  0  0  0  0  0  0  0  0  0
  -31.6818   10.9597   59.5092 H   0  0  0  0  0  0  0  0  0  0  0  0
  -30.6236   10.9353   58.0579 H   0  0  0  0  0  0  0  0  0  0  0  0
  -32.1254   11.9208   58.0579 H   0  0  0  0  0  0  0  0  0  0  0  0
  -33.9176    9.8603   59.4346 H   0  0  0  0  0  0  0  0  0  0  0  0
  -35.1967    7.9203   58.5365 H   0  0  0  0  0  0  0  0  0  0  0  0
  -34.4328    6.7604   56.4685 H   0  0  0  0  0  0  0  0  0  0  0  0
  -34.1215    5.3999   51.4355 H   0  0  0  0  0  0  0  0  0  0  0  0
  -31.9428    3.0852   54.3333 H   0  0  0  0  0  0  0  0  0  0  0  0
  -30.2602   10.1198   56.0443 H   0  0  0  0  0  0  0  0  0  0  0  0
  1  9  1  0
  1 11  2  0
  1 12  1  0
  2 14  2  0
  2 15  1  0
  3 12  1  0
  3 15  2  0
  4  5  1  0
  5  6  2  0
  5 10  1  0
  6  7  1  0
  7  8  2  0
  8  9  1  0
  9 10  2  0
 10 17  1  0
 11 16  1  0
 11 17  1  0
 12 13  2  0
 13 14  1  0
 13 20  1  0
 16 18  1  0
 16 19  2  0
  2 21  1  0
  3 22  1  0
  4 23  1  0
  4 24  1  0
  4 25  1  0
  6 26  1  0
  7 27  1  0
  8 28  1  0
 14 29  1  0
 15 30  1  0
 17 31  1  0
M  CHG  1  18  -1
M  END
>  <filename_input>  (22) 
7AFX_R9K_docked.sdf

>  <pdb_id>  (22) 
7AFX_R9K

>  <pose_rank>  (22) 
21

>  <num_atoms_heavy>  (22) 
20

>  <num_torsions>  (22) 
2

>  <pose>  (22) 
[-32.0598635364013, 7.652762869304508, 55.01399491046767, 3.302756115579717, 0.24341167567715633, -2.2237016665789753, 0.53577272980894, 1.1224049114256291]

>  <energy>  (22) 
-183.40191939428308

>  <inter_energy>  (22) 
-171.72484459618352

>  <intra_energy>  (22) 
0.045594075824482716

>  <rmsd>  (22) 
13.2814

>  <sdf_rank>  (22) 
0

$$$$

     RDKit          3D

 31 33  0  0  0  0  0  0  0  0999 V2000
  -16.8354   -3.3580   67.6633 C   0  0  0  0  0  0  0  0  0  0  0  0
  -15.9290   -6.3130   64.6974 C   0  0  0  0  0  0  0  0  0  0  0  0
  -16.8824   -4.2160   65.3640 C   0  0  0  0  0  0  0  0  0  0  0  0
  -16.8883    0.5718   70.3746 C   0  0  0  0  0  0  0  0  0  0  0  0
  -16.1024   -0.3234   69.4371 C   0  0  0  0  0  0  0  0  0  0  0  0
  -14.7901   -0.0133   69.1168 C   0  0  0  0  0  0  0  0  0  0  0  0
  -14.0660   -0.8377   68.2537 C   0  0  0  0  0  0  0  0  0  0  0  0
  -14.6528   -1.9707   67.7045 C   0  0  0  0  0  0  0  0  0  0  0  0
  -15.9710   -2.2789   68.0265 C   0  0  0  0  0  0  0  0  0  0  0  0
  -16.6980   -1.4647   68.8852 C   0  0  0  0  0  0  0  0  0  0  0  0
  -18.0451   -3.0828   68.3161 C   0  0  0  0  0  0  0  0  0  0  0  0
  -16.5110   -4.4499   66.6808 C   0  0  0  0  0  0  0  0  0  0  0  0
  -15.8211   -5.6053   66.9869 C   0  0  0  0  0  0  0  0  0  0  0  0
  -15.5410   -6.5361   66.0060 C   0  0  0  0  0  0  0  0  0  0  0  0
  -16.6041   -5.1494   64.3706 C   0  0  0  0  0  0  0  0  0  0  0  0
  -19.2961   -3.9141   68.2770 C   0  0  0  0  0  0  0  0  0  0  0  0
  -17.9280   -1.9707   69.0258 N   0  0  0  0  0  0  0  0  0  0  0  0
  -19.5240   -4.7996   69.1419 O   0  0  0  0  0  0  0  0  0  0  0  0
  -20.1479   -3.6769   67.4029 O   0  0  0  0  0  0  0  0  0  0  0  0
  -15.3207   -5.9043   68.6160 Cl  0  0  0  0  0  0  0  0  0  0  0  0
  -15.7021   -7.0570   63.9195 H   0  0  0  0  0  0  0  0  0  0  0  0
  -17.4024   -3.2824   65.1030 H   0  0  0  0  0  0  0  0  0  0  0  0
  -16.6552    0.3063   71.4163 H   0  0  0  0  0  0  0  0  0  0  0  0
  -16.6150    1.6218   70.1938 H   0  0  0  0  0  0  0  0  0  0  0  0
  -17.9649    0.4367   70.1938 H   0  0  0  0  0  0  0  0  0  0  0  0
  -14.3182    0.8841   69.5434 H   0  0  0  0  0  0  0  0  0  0  0  0
  -13.0234   -0.5885   68.0068 H   0  0  0  0  0  0  0  0  0  0  0  0
  -14.0816   -2.6174   67.0222 H   0  0  0  0  0  0  0  0  0  0  0  0
  -15.0059   -7.4610   66.2671 H   0  0  0  0  0  0  0  0  0  0  0  0
  -16.9183   -4.9642   63.3328 H   0  0  0  0  0  0  0  0  0  0  0  0
  -18.6748   -1.5563   69.6016 H   0  0  0  0  0  0  0  0  0  0  0  0
  1  9  1  0
  1 11  2  0
  1 12  1  0
  2 14  2  0
  2 15  1  0
  3 12  1  0
  3 15  2  0
  4  5  1  0
  5  6  2  0
  5 10  1  0
  6  7  1  0
  7  8  2  0
  8  9  1  0
  9 10  2  0
 10 17  1  0
 11 16  1  0
 11 17  1  0
 12 13  2  0
 13 14  1  0
 13 20  1  0
 16 18  1  0
 16 19  2  0
  2 21  1  0
  3 22  1  0
  4 23  1  0
  4 24  1  0
  4 25  1  0
  6 26  1  0
  7 27  1  0
  8 28  1  0
 14 29  1  0
 15 30  1  0
 17 31  1  0
M  CHG  1  18  -1
M  END
>  <filename_input>  (23) 
7AFX_R9K_docked.sdf

>  <pdb_id>  (23) 
7AFX_R9K

>  <pose_rank>  (23) 
22

>  <num_atoms_heavy>  (23) 
20

>  <num_torsions>  (23) 
2

>  <pose>  (23) 
[-16.83538508176628, -3.357985700628877, 67.66328938468425, 1.1792556343365488, -0.7075269302440362, 3.28987492936289, 0.32148414077873005, 1.1295101424050875]

>  <energy>  (23) 
-163.66453526868153

>  <inter_energy>  (23) 
-143.1477158768098

>  <intra_energy>  (23) 
0.0007163536121897687

>  <rmsd>  (23) 
11.8042

>  <sdf_rank>  (23) 
0

$$$$

     RDKit          3D

 31 33  0  0  0  0  0  0  0  0999 V2000
  -31.2652   -3.3235   53.7424 C   0  0  0  0  0  0  0  0  0  0  0  0
  -32.1254    0.8059   52.9951 C   0  0  0  0  0  0  0  0  0  0  0  0
  -32.2565   -1.5160   52.4099 C   0  0  0  0  0  0  0  0  0  0  0  0
  -31.6362   -7.9941   54.6614 C   0  0  0  0  0  0  0  0  0  0  0  0
  -32.2789   -6.6230   54.7313 C   0  0  0  0  0  0  0  0  0  0  0  0
  -33.5403   -6.4738   55.2858 C   0  0  0  0  0  0  0  0  0  0  0  0
  -34.1323   -5.2111   55.3506 C   0  0  0  0  0  0  0  0  0  0  0  0
  -33.4679   -4.0957   54.8567 C   0  0  0  0  0  0  0  0  0  0  0  0
  -32.2022   -4.2485   54.2991 C   0  0  0  0  0  0  0  0  0  0  0  0
  -31.6057   -5.5009   54.2318 C   0  0  0  0  0  0  0  0  0  0  0  0
  -30.1760   -4.1122   53.3463 C   0  0  0  0  0  0  0  0  0  0  0  0
  -31.5047   -1.8542   53.5267 C   0  0  0  0  0  0  0  0  0  0  0  0
  -31.0963   -0.8551   54.3867 C   0  0  0  0  0  0  0  0  0  0  0  0
  -31.3940    0.4666   54.1187 C   0  0  0  0  0  0  0  0  0  0  0  0
  -32.5597   -0.1867   52.1333 C   0  0  0  0  0  0  0  0  0  0  0  0
  -28.9048   -3.6312   52.7056 C   0  0  0  0  0  0  0  0  0  0  0  0
  -30.4066   -5.3800   53.6519 N   0  0  0  0  0  0  0  0  0  0  0  0
  -28.9053   -2.6901   51.8699 O   0  0  0  0  0  0  0  0  0  0  0  0
  -27.8257   -4.1390   53.0569 O   0  0  0  0  0  0  0  0  0  0  0  0
  -30.1845   -1.2554   55.8016 Cl  0  0  0  0  0  0  0  0  0  0  0  0
  -32.3611    1.8600   52.7871 H   0  0  0  0  0  0  0  0  0  0  0  0
  -32.6163   -2.3077   51.7362 H   0  0  0  0  0  0  0  0  0  0  0  0
  -31.4604   -8.3690   55.6805 H   0  0  0  0  0  0  0  0  0  0  0  0
  -32.3041   -8.6853   54.1265 H   0  0  0  0  0  0  0  0  0  0  0  0
  -30.6776   -7.9229   54.1265 H   0  0  0  0  0  0  0  0  0  0  0  0
  -34.0760   -7.3520   55.6757 H   0  0  0  0  0  0  0  0  0  0  0  0
  -35.1319   -5.0987   55.7958 H   0  0  0  0  0  0  0  0  0  0  0  0
  -33.9373   -3.1021   54.9058 H   0  0  0  0  0  0  0  0  0  0  0  0
  -31.0471    1.2545   54.8034 H   0  0  0  0  0  0  0  0  0  0  0  0
  -33.1404    0.0738   51.2361 H   0  0  0  0  0  0  0  0  0  0  0  0
  -29.7576   -6.1588   53.4696 H   0  0  0  0  0  0  0  0  0  0  0  0
  1  9  1  0
  1 11  2  0
  1 12  1  0
  2 14  2  0
  2 15  1  0
  3 12  1  0
  3 15  2  0
  4  5  1  0
  5  6  2  0
  5 10  1  0
  6  7  1  0
  7  8  2  0
  8  9  1  0
  9 10  2  0
 10 17  1  0
 11 16  1  0
 11 17  1  0
 12 13  2  0
 13 14  1  0
 13 20  1  0
 16 18  1  0
 16 19  2  0
  2 21  1  0
  3 22  1  0
  4 23  1  0
  4 24  1  0
  4 25  1  0
  6 26  1  0
  7 27  1  0
  8 28  1  0
 14 29  1  0
 15 30  1  0
 17 31  1  0
M  CHG  1  18  -1
M  END
>  <filename_input>  (24) 
7AFX_R9K_docked.sdf

>  <pdb_id>  (24) 
7AFX_R9K

>  <pose_rank>  (24) 
23

>  <num_atoms_heavy>  (24) 
20

>  <num_torsions>  (24) 
2

>  <pose>  (24) 
[-31.265173017518357, -3.3234889624362514, 53.742415357429536, -2.8641434048931362, 2.1993822644839507, -5.064302569203603, 0.5415944214764159, -1.12650829857953]

>  <energy>  (24) 
-155.9118399991205

>  <inter_energy>  (24) 
-162.15254873008863

>  <intra_energy>  (24) 
5.007917902006039

>  <rmsd>  (24) 
11.4779

>  <sdf_rank>  (24) 
0

$$$$

     RDKit          3D

 31 33  0  0  0  0  0  0  0  0999 V2000
  -30.5153    6.9297   53.6134 C   0  0  0  0  0  0  0  0  0  0  0  0
  -29.3034   11.0064   54.1255 C   0  0  0  0  0  0  0  0  0  0  0  0
  -30.0413    9.1806   52.7568 C   0  0  0  0  0  0  0  0  0  0  0  0
  -33.0284    2.9517   52.8033 C   0  0  0  0  0  0  0  0  0  0  0  0
  -33.0448    4.4160   53.1949 C   0  0  0  0  0  0  0  0  0  0  0  0
  -34.2450    5.0437   53.4892 C   0  0  0  0  0  0  0  0  0  0  0  0
  -34.2603    6.3922   53.8502 C   0  0  0  0  0  0  0  0  0  0  0  0
  -33.0775    7.1179   53.9128 C   0  0  0  0  0  0  0  0  0  0  0  0
  -31.8741    6.4857   53.6154 C   0  0  0  0  0  0  0  0  0  0  0  0
  -31.8499    5.1443   53.2565 C   0  0  0  0  0  0  0  0  0  0  0  0
  -29.7734    5.8098   53.2126 C   0  0  0  0  0  0  0  0  0  0  0  0
  -30.0521    8.3393   53.8609 C   0  0  0  0  0  0  0  0  0  0  0  0
  -29.7166    8.8525   55.0972 C   0  0  0  0  0  0  0  0  0  0  0  0
  -29.3342   10.1730   55.2287 C   0  0  0  0  0  0  0  0  0  0  0  0
  -29.6567   10.5118   52.8816 C   0  0  0  0  0  0  0  0  0  0  0  0
  -28.2813    5.7307   53.0539 C   0  0  0  0  0  0  0  0  0  0  0  0
  -30.5851    4.7817   53.0169 N   0  0  0  0  0  0  0  0  0  0  0  0
  -27.5161    5.6793   54.0518 O   0  0  0  0  0  0  0  0  0  0  0  0
  -27.8022    5.6556   51.9091 O   0  0  0  0  0  0  0  0  0  0  0  0
  -29.7525    7.8306   56.4930 Cl  0  0  0  0  0  0  0  0  0  0  0  0
  -28.9995   12.0578   54.2359 H   0  0  0  0  0  0  0  0  0  0  0  0
  -30.3401    8.7906   51.7727 H   0  0  0  0  0  0  0  0  0  0  0  0
  -33.0215    2.3296   53.7104 H   0  0  0  0  0  0  0  0  0  0  0  0
  -33.9240    2.7214   52.2076 H   0  0  0  0  0  0  0  0  0  0  0  0
  -32.1279    2.7415   52.2076 H   0  0  0  0  0  0  0  0  0  0  0  0
  -35.1872    4.4783   53.4382 H   0  0  0  0  0  0  0  0  0  0  0  0
  -35.2156    6.8834   54.0868 H   0  0  0  0  0  0  0  0  0  0  0  0
  -33.0920    8.1811   54.1945 H   0  0  0  0  0  0  0  0  0  0  0  0
  -29.0523   10.5644   56.2173 H   0  0  0  0  0  0  0  0  0  0  0  0
  -29.6334   11.1668   51.9981 H   0  0  0  0  0  0  0  0  0  0  0  0
  -30.2860    3.8408   52.7233 H   0  0  0  0  0  0  0  0  0  0  0  0
  1  9  1  0
  1 11  2  0
  1 12  1  0
  2 14  2  0
  2 15  1  0
  3 12  1  0
  3 15  2  0
  4  5  1  0
  5  6  2  0
  5 10  1  0
  6  7  1  0
  7  8  2  0
  8  9  1  0
  9 10  2  0
 10 17  1  0
 11 16  1  0
 11 17  1  0
 12 13  2  0
 13 14  1  0
 13 20  1  0
 16 18  1  0
 16 19  2  0
  2 21  1  0
  3 22  1  0
  4 23  1  0
  4 24  1  0
  4 25  1  0
  6 26  1  0
  7 27  1  0
  8 28  1  0
 14 29  1  0
 15 30  1  0
 17 31  1  0
M  CHG  1  18  -1
M  END
>  <filename_input>  (25) 
7AFX_R9K_docked.sdf

>  <pdb_id>  (25) 
7AFX_R9K

>  <pose_rank>  (25) 
24

>  <num_atoms_heavy>  (25) 
20

>  <num_torsions>  (25) 
2

>  <pose>  (25) 
[-30.51529526348469, 6.929705552717479, 53.613445789130786, -2.781396408597521, 3.03800035753695, 3.8906884372605974, 0.42966574612037917, 0.8184807835312403]

>  <energy>  (25) 
-136.79183475403602

>  <inter_energy>  (25) 
-114.92966177986203

>  <intra_energy>  (25) 
0.0

>  <rmsd>  (25) 
12.1743

>  <sdf_rank>  (25) 
0

$$$$

     RDKit          3D

 31 33  0  0  0  0  0  0  0  0999 V2000
  -24.1440    0.8340   61.7420 C   0  0  0  0  0  0  0  0  0  0  0  0
  -24.7140    4.9770   60.8140 C   0  0  0  0  0  0  0  0  0  0  0  0
  -24.4430    2.6860   60.1590 C   0  0  0  0  0  0  0  0  0  0  0  0
  -24.7320   -3.7830   62.8070 C   0  0  0  0  0  0  0  0  0  0  0  0
  -25.3020   -2.3790   62.8500 C   0  0  0  0  0  0  0  0  0  0  0  0
  -26.5410   -2.1490   63.4270 C   0  0  0  0  0  0  0  0  0  0  0  0
  -27.0660   -0.8560   63.4670 C   0  0  0  0  0  0  0  0  0  0  0  0
  -26.3570    0.2090   62.9260 C   0  0  0  0  0  0  0  0  0  0  0  0
  -25.1140   -0.0250   62.3460 C   0  0  0  0  0  0  0  0  0  0  0  0
  -24.5840   -1.3080   62.3030 C   0  0  0  0  0  0  0  0  0  0  0  0
  -23.1060   -0.0210   61.3460 C   0  0  0  0  0  0  0  0  0  0  0  0
  -24.3130    2.3070   61.4880 C   0  0  0  0  0  0  0  0  0  0  0  0
  -24.4170    3.2690   62.4720 C   0  0  0  0  0  0  0  0  0  0  0  0
  -24.6050    4.5960   62.1390 C   0  0  0  0  0  0  0  0  0  0  0  0
  -24.6320    4.0210   59.8160 C   0  0  0  0  0  0  0  0  0  0  0  0
  -21.8270    0.3750   60.6640 C   0  0  0  0  0  0  0  0  0  0  0  0
  -23.3940   -1.2660   61.6940 N   0  0  0  0  0  0  0  0  0  0  0  0
  -21.3260    1.5190   60.8200 O   0  0  0  0  0  0  0  0  0  0  0  0
  -21.2250   -0.4700   59.9790 O   0  0  0  0  0  0  0  0  0  0  0  0
  -24.2890    2.8160   64.1370 Cl  0  0  0  0  0  0  0  0  0  0  0  0
  -24.8652    6.0351   60.5542 H   0  0  0  0  0  0  0  0  0  0  0  0
  -24.3961    1.9226   59.3685 H   0  0  0  0  0  0  0  0  0  0  0  0
  -24.5831   -4.1499   63.8333 H   0  0  0  0  0  0  0  0  0  0  0  0
  -25.4318   -4.4468   62.2783 H   0  0  0  0  0  0  0  0  0  0  0  0
  -23.7675   -3.7711   62.2783 H   0  0  0  0  0  0  0  0  0  0  0  0
  -27.1117   -2.9867   63.8542 H   0  0  0  0  0  0  0  0  0  0  0  0
  -28.0480   -0.6794   63.9302 H   0  0  0  0  0  0  0  0  0  0  0  0
  -26.7738    1.2266   62.9558 H   0  0  0  0  0  0  0  0  0  0  0  0
  -24.6685    5.3549   62.9328 H   0  0  0  0  0  0  0  0  0  0  0  0
  -24.7157    4.3149   58.7593 H   0  0  0  0  0  0  0  0  0  0  0  0
  -22.7901   -2.0822   61.5210 H   0  0  0  0  0  0  0  0  0  0  0  0
  1  9  1  0
  1 11  2  0
  1 12  1  0
  2 14  2  0
  2 15  1  0
  3 12  1  0
  3 15  2  0
  4  5  1  0
  5  6  2  0
  5 10  1  0
  6  7  1  0
  7  8  2  0
  8  9  1  0
  9 10  2  0
 10 17  1  0
 11 16  1  0
 11 17  1  0
 12 13  2  0
 13 14  1  0
 13 20  1  0
 16 18  1  0
 16 19  2  0
  2 21  1  0
  3 22  1  0
  4 23  1  0
  4 24  1  0
  4 25  1  0
  6 26  1  0
  7 27  1  0
  8 28  1  0
 14 29  1  0
 15 30  1  0
 17 31  1  0
M  CHG  1  18  -1
M  END
>  <filename_input>  (26) 
7AFX_R9K_docked.sdf

>  <pdb_id>  (26) 
7AFX_R9K

>  <pose_rank>  (26) 
25

>  <num_atoms_heavy>  (26) 
20

>  <num_torsions>  (26) 
2

>  <pose>  (26) 
[-24.144, 0.834, 61.742, 1e-06, 1e-06, 1e-06, 0.0, 0.0]

>  <energy>  (26) 
-625.448984957131

>  <inter_energy>  (26) 
-646.0478584112932

>  <intra_energy>  (26) 
12.483246474351509

>  <rmsd>  (26) 
0.0

>  <sdf_rank>  (26) 
0

$$$$
