
     RDKit          3D

 34 36  0  0  0  0  0  0  0  0999 V2000
   40.9391    6.6660    8.7857 C   0  0  0  0  0  0  0  0  0  0  0  0
   41.5405    6.4022   10.1102 C   0  0  0  0  0  0  0  0  0  0  0  0
   41.9018    5.2278   10.6803 C   0  0  0  0  0  0  0  0  0  0  0  0
   41.8650    3.8446   10.1088 C   0  0  0  0  0  0  0  0  0  0  0  0
   42.4813    5.5615   11.9528 C   0  0  0  0  0  0  0  0  0  0  0  0
   43.0414    4.8157   12.9847 C   0  0  0  0  0  0  0  0  0  0  0  0
   43.4782    5.4639   14.1296 C   0  0  0  0  0  0  0  0  0  0  0  0
   43.3312    6.8743   14.2101 C   0  0  0  0  0  0  0  0  0  0  0  0
   42.7750    7.6339   13.1945 C   0  0  0  0  0  0  0  0  0  0  0  0
   42.3669    6.9392   12.0816 C   0  0  0  0  0  0  0  0  0  0  0  0
   41.7911    7.4798   10.9462 O   0  0  0  0  0  0  0  0  0  0  0  0
   44.1364    4.6959   15.2308 C   0  0  0  0  0  0  0  0  0  0  0  0
   44.5628    5.3290   16.4036 C   0  0  0  0  0  0  0  0  0  0  0  0
   45.1553    4.5862   17.4399 C   0  0  0  0  0  0  0  0  0  0  0  0
   45.5980    5.1845   18.5769 N   0  0  0  0  0  0  0  0  0  0  0  0
   45.2163    3.2458   17.3847 N   0  0  0  0  0  0  0  0  0  0  0  0
   44.7631    2.6148   16.2847 C   0  0  0  0  0  0  0  0  0  0  0  0
   44.8475    1.2730   16.2843 N   0  0  0  0  0  0  0  0  0  0  0  0
   44.2270    3.3054   15.1812 C   0  0  0  0  0  0  0  0  0  0  0  0
   39.9390    7.1046    8.9179 H   0  0  0  0  0  0  0  0  0  0  0  0
   41.5761    7.3673    8.2268 H   0  0  0  0  0  0  0  0  0  0  0  0
   40.8546    5.7223    8.2268 H   0  0  0  0  0  0  0  0  0  0  0  0
   41.8454    3.1101   10.9274 H   0  0  0  0  0  0  0  0  0  0  0  0
   40.9634    3.7276    9.4896 H   0  0  0  0  0  0  0  0  0  0  0  0
   42.7591    3.6798    9.4896 H   0  0  0  0  0  0  0  0  0  0  0  0
   43.1368    3.7236   12.8933 H   0  0  0  0  0  0  0  0  0  0  0  0
   43.6749    7.3867   15.1208 H   0  0  0  0  0  0  0  0  0  0  0  0
   42.6667    8.7257   13.2738 H   0  0  0  0  0  0  0  0  0  0  0  0
   44.4337    6.4157   16.5155 H   0  0  0  0  0  0  0  0  0  0  0  0
   46.0287    4.6190   19.3223 H   0  0  0  0  0  0  0  0  0  0  0  0
   45.5029    6.2035   18.6933 H   0  0  0  0  0  0  0  0  0  0  0  0
   44.5163    0.7364   15.4699 H   0  0  0  0  0  0  0  0  0  0  0  0
   45.2432    0.7816   17.0984 H   0  0  0  0  0  0  0  0  0  0  0  0
   43.8843    2.7557   14.2922 H   0  0  0  0  0  0  0  0  0  0  0  0
  1  2  1  0
  2  3  2  0
  2 11  1  0
  3  4  1  0
  3  5  1  0
  5  6  1  0
  5 10  2  0
  6  7  2  0
  7  8  1  0
  7 12  1  0
  8  9  2  0
  9 10  1  0
 10 11  1  0
 12 13  2  0
 12 19  1  0
 13 14  1  0
 14 15  1  0
 14 16  2  0
 16 17  1  0
 17 18  1  0
 17 19  2  0
  1 20  1  0
  1 21  1  0
  1 22  1  0
  4 23  1  0
  4 24  1  0
  4 25  1  0
  6 26  1  0
  8 27  1  0
  9 28  1  0
 13 29  1  0
 15 30  1  0
 15 31  1  0
 18 32  1  0
 18 33  1  0
 19 34  1  0
M  END
>  <filename_input>  (1) 
7AKL_RK5_docked.sdf

>  <pdb_id>  (1) 
7AKL_RK5

>  <pose_rank>  (1) 
0

>  <num_atoms_heavy>  (1) 
19

>  <num_torsions>  (1) 
1

>  <pose>  (1) 
[40.93905231618543, 6.665992190954043, 8.785675455912155, -0.08775879733536476, -2.907821981192781, -0.9633853341420135, -3.018032823684518]

>  <energy>  (1) 
-785.3763398311839

>  <inter_energy>  (1) 
-764.0747282856295

>  <intra_energy>  (1) 
0.0

>  <rmsd>  (1) 
6.592

>  <sdf_rank>  (1) 
0

$$$$

     RDKit          3D

 34 36  0  0  0  0  0  0  0  0999 V2000
   41.4387    6.2131    9.5462 C   0  0  0  0  0  0  0  0  0  0  0  0
   41.6924    5.1517   10.5435 C   0  0  0  0  0  0  0  0  0  0  0  0
   42.3544    5.2108   11.7237 C   0  0  0  0  0  0  0  0  0  0  0  0
   42.9699    6.3913   12.4084 C   0  0  0  0  0  0  0  0  0  0  0  0
   42.2509    3.9012   12.3074 C   0  0  0  0  0  0  0  0  0  0  0  0
   42.7024    3.3341   13.4947 C   0  0  0  0  0  0  0  0  0  0  0  0
   42.4640    1.9903   13.7374 C   0  0  0  0  0  0  0  0  0  0  0  0
   41.7684    1.2352   12.7559 C   0  0  0  0  0  0  0  0  0  0  0  0
   41.3125    1.7811   11.5676 C   0  0  0  0  0  0  0  0  0  0  0  0
   41.5707    3.1180   11.3846 C   0  0  0  0  0  0  0  0  0  0  0  0
   41.2104    3.8772   10.2860 O   0  0  0  0  0  0  0  0  0  0  0  0
   42.8866    1.3671   15.0292 C   0  0  0  0  0  0  0  0  0  0  0  0
   42.3705    0.1343   15.4439 C   0  0  0  0  0  0  0  0  0  0  0  0
   42.8000   -0.4496   16.6487 C   0  0  0  0  0  0  0  0  0  0  0  0
   42.2943   -1.6343   17.0817 N   0  0  0  0  0  0  0  0  0  0  0  0
   43.7963    0.0945   17.3662 N   0  0  0  0  0  0  0  0  0  0  0  0
   44.3410    1.2553   16.9546 C   0  0  0  0  0  0  0  0  0  0  0  0
   45.3353    1.7535   17.7100 N   0  0  0  0  0  0  0  0  0  0  0  0
   43.9053    1.9290   15.7976 C   0  0  0  0  0  0  0  0  0  0  0  0
   41.2132    7.1568   10.0645 H   0  0  0  0  0  0  0  0  0  0  0  0
   42.3307    6.3449    8.9161 H   0  0  0  0  0  0  0  0  0  0  0  0
   40.5836    5.9274    8.9161 H   0  0  0  0  0  0  0  0  0  0  0  0
   42.9014    6.2599   13.4983 H   0  0  0  0  0  0  0  0  0  0  0  0
   44.0267    6.4755   12.1149 H   0  0  0  0  0  0  0  0  0  0  0  0
   42.4339    7.3060   12.1149 H   0  0  0  0  0  0  0  0  0  0  0  0
   43.2425    3.9453   14.2328 H   0  0  0  0  0  0  0  0  0  0  0  0
   41.5833    0.1681   12.9485 H   0  0  0  0  0  0  0  0  0  0  0  0
   40.7769    1.1814   10.8169 H   0  0  0  0  0  0  0  0  0  0  0  0
   41.6236   -0.3818   14.8228 H   0  0  0  0  0  0  0  0  0  0  0  0
   42.6248   -2.0422   17.9679 H   0  0  0  0  0  0  0  0  0  0  0  0
   41.5806   -2.1244   16.5237 H   0  0  0  0  0  0  0  0  0  0  0  0
   45.7899    2.6387   17.4443 H   0  0  0  0  0  0  0  0  0  0  0  0
   45.6423    1.2500   18.5544 H   0  0  0  0  0  0  0  0  0  0  0  0
   44.3624    2.8855   15.5039 H   0  0  0  0  0  0  0  0  0  0  0  0
  1  2  1  0
  2  3  2  0
  2 11  1  0
  3  4  1  0
  3  5  1  0
  5  6  1  0
  5 10  2  0
  6  7  2  0
  7  8  1  0
  7 12  1  0
  8  9  2  0
  9 10  1  0
 10 11  1  0
 12 13  2  0
 12 19  1  0
 13 14  1  0
 14 15  1  0
 14 16  2  0
 16 17  1  0
 17 18  1  0
 17 19  2  0
  1 20  1  0
  1 21  1  0
  1 22  1  0
  4 23  1  0
  4 24  1  0
  4 25  1  0
  6 26  1  0
  8 27  1  0
  9 28  1  0
 13 29  1  0
 15 30  1  0
 15 31  1  0
 18 32  1  0
 18 33  1  0
 19 34  1  0
M  END
>  <filename_input>  (2) 
7AKL_RK5_docked.sdf

>  <pdb_id>  (2) 
7AKL_RK5

>  <pose_rank>  (2) 
1

>  <num_atoms_heavy>  (2) 
19

>  <num_torsions>  (2) 
1

>  <pose>  (2) 
[41.43873041743392, 6.213121320255472, 9.546214884235797, 3.252100299815403, -0.3101371084235493, -1.3026883542500514, -3.326359116018461]

>  <energy>  (2) 
-528.1607215938482

>  <inter_energy>  (2) 
-530.5010293635456

>  <intra_energy>  (2) 
0.0

>  <rmsd>  (2) 
7.42242

>  <sdf_rank>  (2) 
0

$$$$

     RDKit          3D

 34 36  0  0  0  0  0  0  0  0999 V2000
   41.0393    7.5650   10.0251 C   0  0  0  0  0  0  0  0  0  0  0  0
   41.5764    6.5404   10.9456 C   0  0  0  0  0  0  0  0  0  0  0  0
   42.0135    6.6646   12.2217 C   0  0  0  0  0  0  0  0  0  0  0  0
   42.0179    7.8695   13.1102 C   0  0  0  0  0  0  0  0  0  0  0  0
   42.3749    5.3415   12.6522 C   0  0  0  0  0  0  0  0  0  0  0  0
   42.8708    4.8136   13.8397 C   0  0  0  0  0  0  0  0  0  0  0  0
   43.1640    3.4605   13.9095 C   0  0  0  0  0  0  0  0  0  0  0  0
   42.9516    2.6586   12.7566 C   0  0  0  0  0  0  0  0  0  0  0  0
   42.4603    3.1657   11.5652 C   0  0  0  0  0  0  0  0  0  0  0  0
   42.1808    4.5108   11.5567 C   0  0  0  0  0  0  0  0  0  0  0  0
   41.6800    5.2349   10.4899 O   0  0  0  0  0  0  0  0  0  0  0  0
   43.6438    2.8543   15.1893 C   0  0  0  0  0  0  0  0  0  0  0  0
   44.2052    3.6420   16.2005 C   0  0  0  0  0  0  0  0  0  0  0  0
   44.6260    3.0583   17.4084 C   0  0  0  0  0  0  0  0  0  0  0  0
   45.1954    3.8011   18.3937 N   0  0  0  0  0  0  0  0  0  0  0  0
   44.3913    1.7623   17.6707 N   0  0  0  0  0  0  0  0  0  0  0  0
   43.8047    0.9996   16.7285 C   0  0  0  0  0  0  0  0  0  0  0  0
   43.5928   -0.2896   17.0455 N   0  0  0  0  0  0  0  0  0  0  0  0
   43.4271    1.5059   15.4702 C   0  0  0  0  0  0  0  0  0  0  0  0
   40.6063    8.3911   10.6083 H   0  0  0  0  0  0  0  0  0  0  0  0
   41.8515    7.9501    9.3911 H   0  0  0  0  0  0  0  0  0  0  0  0
   40.2605    7.1162    9.3911 H   0  0  0  0  0  0  0  0  0  0  0  0
   42.0167    7.5490   14.1625 H   0  0  0  0  0  0  0  0  0  0  0  0
   42.9182    8.4690   12.9105 H   0  0  0  0  0  0  0  0  0  0  0  0
   41.1219    8.4756   12.9105 H   0  0  0  0  0  0  0  0  0  0  0  0
   43.0286    5.4626   14.7137 H   0  0  0  0  0  0  0  0  0  0  0  0
   43.1883    1.5858   12.8125 H   0  0  0  0  0  0  0  0  0  0  0  0
   42.3035    2.5309   10.6806 H   0  0  0  0  0  0  0  0  0  0  0  0
   44.3180    4.7257   16.0492 H   0  0  0  0  0  0  0  0  0  0  0  0
   45.4957    3.3507   19.2699 H   0  0  0  0  0  0  0  0  0  0  0  0
   45.3267    4.8144   18.2642 H   0  0  0  0  0  0  0  0  0  0  0  0
   43.1476   -0.9210   16.3643 H   0  0  0  0  0  0  0  0  0  0  0  0
   43.8757   -0.6459   17.9696 H   0  0  0  0  0  0  0  0  0  0  0  0
   42.9673    0.8467   14.7191 H   0  0  0  0  0  0  0  0  0  0  0  0
  1  2  1  0
  2  3  2  0
  2 11  1  0
  3  4  1  0
  3  5  1  0
  5  6  1  0
  5 10  2  0
  6  7  2  0
  7  8  1  0
  7 12  1  0
  8  9  2  0
  9 10  1  0
 10 11  1  0
 12 13  2  0
 12 19  1  0
 13 14  1  0
 14 15  1  0
 14 16  2  0
 16 17  1  0
 17 18  1  0
 17 19  2  0
  1 20  1  0
  1 21  1  0
  1 22  1  0
  4 23  1  0
  4 24  1  0
  4 25  1  0
  6 26  1  0
  8 27  1  0
  9 28  1  0
 13 29  1  0
 15 30  1  0
 15 31  1  0
 18 32  1  0
 18 33  1  0
 19 34  1  0
M  END
>  <filename_input>  (3) 
7AKL_RK5_docked.sdf

>  <pdb_id>  (3) 
7AKL_RK5

>  <pose_rank>  (3) 
2

>  <num_atoms_heavy>  (3) 
19

>  <num_torsions>  (3) 
1

>  <pose>  (3) 
[41.039277567521495, 7.565014848556129, 10.025122336257489, 3.253157196852531, 0.47862613162555506, -1.170287149198848, -0.24987380367278017]

>  <energy>  (3) 
-671.4791772137634

>  <inter_energy>  (3) 
-653.2946369728711

>  <intra_energy>  (3) 
0.0

>  <rmsd>  (3) 
6.96169

>  <sdf_rank>  (3) 
0

$$$$

     RDKit          3D

 34 36  0  0  0  0  0  0  0  0999 V2000
   40.6281    3.3259    8.0010 C   0  0  0  0  0  0  0  0  0  0  0  0
   41.1829    3.8111    9.2825 C   0  0  0  0  0  0  0  0  0  0  0  0
   41.4688    3.1292   10.4174 C   0  0  0  0  0  0  0  0  0  0  0  0
   41.3740    1.6605   10.6914 C   0  0  0  0  0  0  0  0  0  0  0  0
   42.0340    4.0866   11.3287 C   0  0  0  0  0  0  0  0  0  0  0  0
   42.5296    4.0097   12.6262 C   0  0  0  0  0  0  0  0  0  0  0  0
   42.9717    5.1649   13.2522 C   0  0  0  0  0  0  0  0  0  0  0  0
   42.8963    6.3935   12.5436 C   0  0  0  0  0  0  0  0  0  0  0  0
   42.4050    6.4907   11.2525 C   0  0  0  0  0  0  0  0  0  0  0  0
   41.9883    5.3132   10.6800 C   0  0  0  0  0  0  0  0  0  0  0  0
   41.4689    5.1623    9.4069 O   0  0  0  0  0  0  0  0  0  0  0  0
   43.5623    5.1043   14.6245 C   0  0  0  0  0  0  0  0  0  0  0  0
   43.8308    3.8798   15.2462 C   0  0  0  0  0  0  0  0  0  0  0  0
   44.4117    3.8421   16.5260 C   0  0  0  0  0  0  0  0  0  0  0  0
   44.6588    2.6645   17.1576 N   0  0  0  0  0  0  0  0  0  0  0  0
   44.8329    4.9655   17.1295 N   0  0  0  0  0  0  0  0  0  0  0  0
   44.6293    6.1503   16.5225 C   0  0  0  0  0  0  0  0  0  0  0  0
   45.0723    7.2414   17.1710 N   0  0  0  0  0  0  0  0  0  0  0  0
   43.9866    6.2624   15.2748 C   0  0  0  0  0  0  0  0  0  0  0  0
   39.8138    2.6137    8.2002 H   0  0  0  0  0  0  0  0  0  0  0  0
   40.2375    4.1775    7.4246 H   0  0  0  0  0  0  0  0  0  0  0  0
   41.4201    2.8254    7.4246 H   0  0  0  0  0  0  0  0  0  0  0  0
   41.3630    1.4901   11.7781 H   0  0  0  0  0  0  0  0  0  0  0  0
   40.4483    1.2639   10.2487 H   0  0  0  0  0  0  0  0  0  0  0  0
   42.2409    1.1482   10.2487 H   0  0  0  0  0  0  0  0  0  0  0  0
   42.5702    3.0431   13.1496 H   0  0  0  0  0  0  0  0  0  0  0  0
   43.2441    7.3097   13.0432 H   0  0  0  0  0  0  0  0  0  0  0  0
   42.3516    7.4508   10.7185 H   0  0  0  0  0  0  0  0  0  0  0  0
   43.5857    2.9399   14.7299 H   0  0  0  0  0  0  0  0  0  0  0  0
   45.0852    2.6625   18.0952 H   0  0  0  0  0  0  0  0  0  0  0  0
   44.4196    1.7739   16.6987 H   0  0  0  0  0  0  0  0  0  0  0  0
   44.9445    8.1750   16.7552 H   0  0  0  0  0  0  0  0  0  0  0  0
   45.5395    7.1438   18.0838 H   0  0  0  0  0  0  0  0  0  0  0  0
   43.8215    7.2500   14.8194 H   0  0  0  0  0  0  0  0  0  0  0  0
  1  2  1  0
  2  3  2  0
  2 11  1  0
  3  4  1  0
  3  5  1  0
  5  6  1  0
  5 10  2  0
  6  7  2  0
  7  8  1  0
  7 12  1  0
  8  9  2  0
  9 10  1  0
 10 11  1  0
 12 13  2  0
 12 19  1  0
 13 14  1  0
 14 15  1  0
 14 16  2  0
 16 17  1  0
 17 18  1  0
 17 19  2  0
  1 20  1  0
  1 21  1  0
  1 22  1  0
  4 23  1  0
  4 24  1  0
  4 25  1  0
  6 26  1  0
  8 27  1  0
  9 28  1  0
 13 29  1  0
 15 30  1  0
 15 31  1  0
 18 32  1  0
 18 33  1  0
 19 34  1  0
M  END
>  <filename_input>  (4) 
7AKL_RK5_docked.sdf

>  <pdb_id>  (4) 
7AKL_RK5

>  <pose_rank>  (4) 
3

>  <num_atoms_heavy>  (4) 
19

>  <num_torsions>  (4) 
1

>  <pose>  (4) 
[40.62806895540645, 3.325911216845653, 8.000989041211147, -0.16544600291061543, -3.1275339664200836, -0.10096105750597376, -12.328571171236474]

>  <energy>  (4) 
-885.9241284272013

>  <inter_energy>  (4) 
-858.2280887265572

>  <intra_energy>  (4) 
0.0

>  <rmsd>  (4) 
6.49843

>  <sdf_rank>  (4) 
0

$$$$

     RDKit          3D

 34 36  0  0  0  0  0  0  0  0999 V2000
   41.4602    7.9335    9.4452 C   0  0  0  0  0  0  0  0  0  0  0  0
   41.7802    7.1971   10.6865 C   0  0  0  0  0  0  0  0  0  0  0  0
   41.9510    5.8685   10.8872 C   0  0  0  0  0  0  0  0  0  0  0  0
   41.9363    4.7490    9.8933 C   0  0  0  0  0  0  0  0  0  0  0  0
   42.2974    5.7138   12.2738 C   0  0  0  0  0  0  0  0  0  0  0  0
   42.6022    4.6200   13.0773 C   0  0  0  0  0  0  0  0  0  0  0  0
   42.8529    4.8189   14.4261 C   0  0  0  0  0  0  0  0  0  0  0  0
   42.7830    6.1401   14.9428 C   0  0  0  0  0  0  0  0  0  0  0  0
   42.4798    7.2412   14.1597 C   0  0  0  0  0  0  0  0  0  0  0  0
   42.2481    6.9850   12.8299 C   0  0  0  0  0  0  0  0  0  0  0  0
   41.9347    7.9199   11.8599 O   0  0  0  0  0  0  0  0  0  0  0  0
   43.2392    3.6706   15.3023 C   0  0  0  0  0  0  0  0  0  0  0  0
   42.9897    2.3482   14.9186 C   0  0  0  0  0  0  0  0  0  0  0  0
   43.3845    1.2800   15.7431 C   0  0  0  0  0  0  0  0  0  0  0  0
   43.1308   -0.0105   15.4008 N   0  0  0  0  0  0  0  0  0  0  0  0
   44.1129    1.4921   16.8512 N   0  0  0  0  0  0  0  0  0  0  0  0
   44.4071    2.7566   17.2090 C   0  0  0  0  0  0  0  0  0  0  0  0
   45.1397    2.9098   18.3258 N   0  0  0  0  0  0  0  0  0  0  0  0
   43.9780    3.8737   16.4672 C   0  0  0  0  0  0  0  0  0  0  0  0
   41.0337    8.9148    9.7005 H   0  0  0  0  0  0  0  0  0  0  0  0
   42.3780    8.0748    8.8557 H   0  0  0  0  0  0  0  0  0  0  0  0
   40.7306    7.3588    8.8557 H   0  0  0  0  0  0  0  0  0  0  0  0
   41.9236    3.7864   10.4254 H   0  0  0  0  0  0  0  0  0  0  0  0
   41.0391    4.8309    9.2621 H   0  0  0  0  0  0  0  0  0  0  0  0
   42.8353    4.8073    9.2621 H   0  0  0  0  0  0  0  0  0  0  0  0
   42.6438    3.6084   12.6472 H   0  0  0  0  0  0  0  0  0  0  0  0
   42.9785    6.2957   16.0141 H   0  0  0  0  0  0  0  0  0  0  0  0
   42.4277    8.2579   14.5763 H   0  0  0  0  0  0  0  0  0  0  0  0
   42.4811    2.1431   13.9651 H   0  0  0  0  0  0  0  0  0  0  0  0
   43.4299   -0.7762   16.0214 H   0  0  0  0  0  0  0  0  0  0  0  0
   42.6393   -0.2228   14.5209 H   0  0  0  0  0  0  0  0  0  0  0  0
   45.3954    3.8540   18.6484 H   0  0  0  0  0  0  0  0  0  0  0  0
   45.4453    2.0831   18.8587 H   0  0  0  0  0  0  0  0  0  0  0  0
   44.2223    4.8926   16.8021 H   0  0  0  0  0  0  0  0  0  0  0  0
  1  2  1  0
  2  3  2  0
  2 11  1  0
  3  4  1  0
  3  5  1  0
  5  6  1  0
  5 10  2  0
  6  7  2  0
  7  8  1  0
  7 12  1  0
  8  9  2  0
  9 10  1  0
 10 11  1  0
 12 13  2  0
 12 19  1  0
 13 14  1  0
 14 15  1  0
 14 16  2  0
 16 17  1  0
 17 18  1  0
 17 19  2  0
  1 20  1  0
  1 21  1  0
  1 22  1  0
  4 23  1  0
  4 24  1  0
  4 25  1  0
  6 26  1  0
  8 27  1  0
  9 28  1  0
 13 29  1  0
 15 30  1  0
 15 31  1  0
 18 32  1  0
 18 33  1  0
 19 34  1  0
M  END
>  <filename_input>  (5) 
7AKL_RK5_docked.sdf

>  <pdb_id>  (5) 
7AKL_RK5

>  <pose_rank>  (5) 
4

>  <num_atoms_heavy>  (5) 
19

>  <num_torsions>  (5) 
1

>  <pose>  (5) 
[41.4601566592778, 7.933490564284921, 9.445167764371801, -0.12545168287357794, -2.8730251265092326, -1.525889267225557, -0.22387164406282933]

>  <energy>  (5) 
-681.3568920817023

>  <inter_energy>  (5) 
-690.9986660729381

>  <intra_energy>  (5) 
0.0

>  <rmsd>  (5) 
6.52252

>  <sdf_rank>  (5) 
0

$$$$

     RDKit          3D

 34 36  0  0  0  0  0  0  0  0999 V2000
   39.8750    1.5059    8.3622 C   0  0  0  0  0  0  0  0  0  0  0  0
   40.5692    2.2638    9.4249 C   0  0  0  0  0  0  0  0  0  0  0  0
   40.7347    1.9658   10.7358 C   0  0  0  0  0  0  0  0  0  0  0  0
   40.3226    0.7397   11.4896 C   0  0  0  0  0  0  0  0  0  0  0  0
   41.5320    3.0257   11.2903 C   0  0  0  0  0  0  0  0  0  0  0  0
   42.0431    3.2890   12.5569 C   0  0  0  0  0  0  0  0  0  0  0  0
   42.7547    4.4593   12.7707 C   0  0  0  0  0  0  0  0  0  0  0  0
   42.9319    5.3554   11.6830 C   0  0  0  0  0  0  0  0  0  0  0  0
   42.4298    5.1118   10.4155 C   0  0  0  0  0  0  0  0  0  0  0  0
   41.7397    3.9338   10.2608 C   0  0  0  0  0  0  0  0  0  0  0  0
   41.1553    3.4762    9.0937 O   0  0  0  0  0  0  0  0  0  0  0  0
   43.3647    4.7419   14.1062 C   0  0  0  0  0  0  0  0  0  0  0  0
   43.2989    6.0167   14.6795 C   0  0  0  0  0  0  0  0  0  0  0  0
   43.8544    6.2574   15.9485 C   0  0  0  0  0  0  0  0  0  0  0  0
   43.8227    7.4931   16.5131 N   0  0  0  0  0  0  0  0  0  0  0  0
   44.3498    5.2533   16.6901 N   0  0  0  0  0  0  0  0  0  0  0  0
   44.3743    4.0094   16.1747 C   0  0  0  0  0  0  0  0  0  0  0  0
   44.8796    3.0432   16.9613 N   0  0  0  0  0  0  0  0  0  0  0  0
   43.9021    3.7151   14.8814 C   0  0  0  0  0  0  0  0  0  0  0  0
   39.1992    0.7683    8.8196 H   0  0  0  0  0  0  0  0  0  0  0  0
   39.2923    2.1995    7.7381 H   0  0  0  0  0  0  0  0  0  0  0  0
   40.6168    0.9861    7.7381 H   0  0  0  0  0  0  0  0  0  0  0  0
   40.3881    0.9344   12.5703 H   0  0  0  0  0  0  0  0  0  0  0  0
   39.2872    0.4781   11.2262 H   0  0  0  0  0  0  0  0  0  0  0  0
   40.9898   -0.0942   11.2262 H   0  0  0  0  0  0  0  0  0  0  0  0
   41.8843    2.5765   13.3798 H   0  0  0  0  0  0  0  0  0  0  0  0
   43.4937    6.2853   11.8552 H   0  0  0  0  0  0  0  0  0  0  0  0
   42.5744    5.8176    9.5843 H   0  0  0  0  0  0  0  0  0  0  0  0
   42.8091    6.8364   14.1335 H   0  0  0  0  0  0  0  0  0  0  0  0
   44.2364    7.6447   17.4441 H   0  0  0  0  0  0  0  0  0  0  0  0
   43.3848    8.2781   16.0101 H   0  0  0  0  0  0  0  0  0  0  0  0
   44.9239    2.0722   16.6204 H   0  0  0  0  0  0  0  0  0  0  0  0
   45.2225    3.2739   17.9047 H   0  0  0  0  0  0  0  0  0  0  0  0
   43.9563    2.6893   14.4880 H   0  0  0  0  0  0  0  0  0  0  0  0
  1  2  1  0
  2  3  2  0
  2 11  1  0
  3  4  1  0
  3  5  1  0
  5  6  1  0
  5 10  2  0
  6  7  2  0
  7  8  1  0
  7 12  1  0
  8  9  2  0
  9 10  1  0
 10 11  1  0
 12 13  2  0
 12 19  1  0
 13 14  1  0
 14 15  1  0
 14 16  2  0
 16 17  1  0
 17 18  1  0
 17 19  2  0
  1 20  1  0
  1 21  1  0
  1 22  1  0
  4 23  1  0
  4 24  1  0
  4 25  1  0
  6 26  1  0
  8 27  1  0
  9 28  1  0
 13 29  1  0
 15 30  1  0
 15 31  1  0
 18 32  1  0
 18 33  1  0
 19 34  1  0
M  END
>  <filename_input>  (6) 
7AKL_RK5_docked.sdf

>  <pdb_id>  (6) 
7AKL_RK5

>  <pose_rank>  (6) 
5

>  <num_atoms_heavy>  (6) 
19

>  <num_torsions>  (6) 
1

>  <pose>  (6) 
[39.87499394545674, 1.5059325339152556, 8.362175090441688, 0.5186365663715544, 3.0433426019994365, -0.44342210446881114, -2.2994658400791854]

>  <energy>  (6) 
-704.3607053266469

>  <inter_energy>  (6) 
-692.0702716735219

>  <intra_energy>  (6) 
0.0

>  <rmsd>  (6) 
6.50601

>  <sdf_rank>  (6) 
0

$$$$

     RDKit          3D

 34 36  0  0  0  0  0  0  0  0999 V2000
   45.0049    2.5501   18.4851 C   0  0  0  0  0  0  0  0  0  0  0  0
   44.4558    3.2480   17.3031 C   0  0  0  0  0  0  0  0  0  0  0  0
   44.2025    2.7777   16.0583 C   0  0  0  0  0  0  0  0  0  0  0  0
   44.3376    1.3857   15.5241 C   0  0  0  0  0  0  0  0  0  0  0  0
   43.6261    3.8722   15.3259 C   0  0  0  0  0  0  0  0  0  0  0  0
   43.1504    4.0217   14.0273 C   0  0  0  0  0  0  0  0  0  0  0  0
   42.6883    5.2614   13.6134 C   0  0  0  0  0  0  0  0  0  0  0  0
   42.7234    6.3421   14.5345 C   0  0  0  0  0  0  0  0  0  0  0  0
   43.1944    6.2136   15.8305 C   0  0  0  0  0  0  0  0  0  0  0  0
   43.6324    4.9611   16.1872 C   0  0  0  0  0  0  0  0  0  0  0  0
   44.1379    4.5926   17.4208 O   0  0  0  0  0  0  0  0  0  0  0  0
   42.1182    5.4385   12.2426 C   0  0  0  0  0  0  0  0  0  0  0  0
   41.5213    6.6431   11.8543 C   0  0  0  0  0  0  0  0  0  0  0  0
   41.0148    6.8007   10.5522 C   0  0  0  0  0  0  0  0  0  0  0  0
   40.4101    7.9534   10.1619 N   0  0  0  0  0  0  0  0  0  0  0  0
   41.1976    5.8534    9.6179 N   0  0  0  0  0  0  0  0  0  0  0  0
   41.8164    4.7074    9.9602 C   0  0  0  0  0  0  0  0  0  0  0  0
   41.9734    3.7951    8.9852 N   0  0  0  0  0  0  0  0  0  0  0  0
   42.2805    4.4570   11.2656 C   0  0  0  0  0  0  0  0  0  0  0  0
   44.6283    3.0287   19.4011 H   0  0  0  0  0  0  0  0  0  0  0  0
   44.6916    1.4959   18.4667 H   0  0  0  0  0  0  0  0  0  0  0  0
   46.1033    2.6066   18.4667 H   0  0  0  0  0  0  0  0  0  0  0  0
   44.4064    0.6765   16.3621 H   0  0  0  0  0  0  0  0  0  0  0  0
   43.4588    1.1422   14.9089 H   0  0  0  0  0  0  0  0  0  0  0  0
   45.2467    1.3157   14.9089 H   0  0  0  0  0  0  0  0  0  0  0  0
   43.1410    3.1657   13.3365 H   0  0  0  0  0  0  0  0  0  0  0  0
   42.3598    7.3260   14.2033 H   0  0  0  0  0  0  0  0  0  0  0  0
   43.2165    7.0616   16.5307 H   0  0  0  0  0  0  0  0  0  0  0  0
   41.4477    7.4726   12.5729 H   0  0  0  0  0  0  0  0  0  0  0  0
   40.0470    8.0451    9.2024 H   0  0  0  0  0  0  0  0  0  0  0  0
   40.3149    8.7353   10.8255 H   0  0  0  0  0  0  0  0  0  0  0  0
   42.4397    2.8994    9.1882 H   0  0  0  0  0  0  0  0  0  0  0  0
   41.6275    3.9920    8.0352 H   0  0  0  0  0  0  0  0  0  0  0  0
   42.7645    3.5002   11.5114 H   0  0  0  0  0  0  0  0  0  0  0  0
  1  2  1  0
  2  3  2  0
  2 11  1  0
  3  4  1  0
  3  5  1  0
  5  6  1  0
  5 10  2  0
  6  7  2  0
  7  8  1  0
  7 12  1  0
  8  9  2  0
  9 10  1  0
 10 11  1  0
 12 13  2  0
 12 19  1  0
 13 14  1  0
 14 15  1  0
 14 16  2  0
 16 17  1  0
 17 18  1  0
 17 19  2  0
  1 20  1  0
  1 21  1  0
  1 22  1  0
  4 23  1  0
  4 24  1  0
  4 25  1  0
  6 26  1  0
  8 27  1  0
  9 28  1  0
 13 29  1  0
 15 30  1  0
 15 31  1  0
 18 32  1  0
 18 33  1  0
 19 34  1  0
M  END
>  <filename_input>  (7) 
7AKL_RK5_docked.sdf

>  <pdb_id>  (7) 
7AKL_RK5

>  <pose_rank>  (7) 
6

>  <num_atoms_heavy>  (7) 
19

>  <num_torsions>  (7) 
1

>  <pose>  (7) 
[45.00485443846419, 2.5501476337790407, 18.485055262094797, 0.11714607832381381, -0.018267843285449597, 0.1290320164199258, 15.695135536998151]

>  <energy>  (7) 
-765.5745925827481

>  <inter_energy>  (7) 
-711.8937872168605

>  <intra_energy>  (7) 
0.0

>  <rmsd>  (7) 
0.826407

>  <sdf_rank>  (7) 
0

$$$$

     RDKit          3D

 34 36  0  0  0  0  0  0  0  0999 V2000
   41.2265   -0.1693    9.0192 C   0  0  0  0  0  0  0  0  0  0  0  0
   41.6165    0.8763    9.9888 C   0  0  0  0  0  0  0  0  0  0  0  0
   41.7589    0.8021   11.3338 C   0  0  0  0  0  0  0  0  0  0  0  0
   41.6316   -0.3845   12.2375 C   0  0  0  0  0  0  0  0  0  0  0  0
   42.2052    2.0999   11.7617 C   0  0  0  0  0  0  0  0  0  0  0  0
   42.5349    2.6496   12.9962 C   0  0  0  0  0  0  0  0  0  0  0  0
   42.8945    3.9865   13.0684 C   0  0  0  0  0  0  0  0  0  0  0  0
   42.9075    4.7525   11.8724 C   0  0  0  0  0  0  0  0  0  0  0  0
   42.5812    4.2239   10.6346 C   0  0  0  0  0  0  0  0  0  0  0  0
   42.2401    2.8930   10.6227 C   0  0  0  0  0  0  0  0  0  0  0  0
   41.8839    2.1505    9.5114 O   0  0  0  0  0  0  0  0  0  0  0  0
   43.3092    4.5902   14.3719 C   0  0  0  0  0  0  0  0  0  0  0  0
   43.8437    3.8043   15.3990 C   0  0  0  0  0  0  0  0  0  0  0  0
   44.2535    4.3933   16.6080 C   0  0  0  0  0  0  0  0  0  0  0  0
   44.7529    3.6456   17.6270 N   0  0  0  0  0  0  0  0  0  0  0  0
   44.2570    5.7273   16.7630 N   0  0  0  0  0  0  0  0  0  0  0  0
   43.7939    6.5034   15.7646 C   0  0  0  0  0  0  0  0  0  0  0  0
   43.8222    7.8312   15.9735 N   0  0  0  0  0  0  0  0  0  0  0  0
   43.3001    5.9720   14.5580 C   0  0  0  0  0  0  0  0  0  0  0  0
   40.8920   -1.0660    9.5616 H   0  0  0  0  0  0  0  0  0  0  0  0
   40.4071    0.2039    8.3872 H   0  0  0  0  0  0  0  0  0  0  0  0
   42.0901   -0.4239    8.3872 H   0  0  0  0  0  0  0  0  0  0  0  0
   41.6672   -0.0527   13.2857 H   0  0  0  0  0  0  0  0  0  0  0  0
   40.6740   -0.8906   12.0455 H   0  0  0  0  0  0  0  0  0  0  0  0
   42.4600   -1.0822   12.0455 H   0  0  0  0  0  0  0  0  0  0  0  0
   42.5105    2.0305   13.9051 H   0  0  0  0  0  0  0  0  0  0  0  0
   43.1895    5.8140   11.9320 H   0  0  0  0  0  0  0  0  0  0  0  0
   42.5944    4.8318    9.7180 H   0  0  0  0  0  0  0  0  0  0  0  0
   43.9440    2.7178   15.2593 H   0  0  0  0  0  0  0  0  0  0  0  0
   45.0465    4.1001   18.5034 H   0  0  0  0  0  0  0  0  0  0  0  0
   44.8378    2.6244   17.5229 H   0  0  0  0  0  0  0  0  0  0  0  0
   43.4808    8.4745   15.2451 H   0  0  0  0  0  0  0  0  0  0  0  0
   44.1852    8.2052   16.8619 H   0  0  0  0  0  0  0  0  0  0  0  0
   42.9124    6.6378   13.7729 H   0  0  0  0  0  0  0  0  0  0  0  0
  1  2  1  0
  2  3  2  0
  2 11  1  0
  3  4  1  0
  3  5  1  0
  5  6  1  0
  5 10  2  0
  6  7  2  0
  7  8  1  0
  7 12  1  0
  8  9  2  0
  9 10  1  0
 10 11  1  0
 12 13  2  0
 12 19  1  0
 13 14  1  0
 14 15  1  0
 14 16  2  0
 16 17  1  0
 17 18  1  0
 17 19  2  0
  1 20  1  0
  1 21  1  0
  1 22  1  0
  4 23  1  0
  4 24  1  0
  4 25  1  0
  6 26  1  0
  8 27  1  0
  9 28  1  0
 13 29  1  0
 15 30  1  0
 15 31  1  0
 18 32  1  0
 18 33  1  0
 19 34  1  0
M  END
>  <filename_input>  (8) 
7AKL_RK5_docked.sdf

>  <pdb_id>  (8) 
7AKL_RK5

>  <pose_rank>  (8) 
7

>  <num_atoms_heavy>  (8) 
19

>  <num_torsions>  (8) 
1

>  <pose>  (8) 
[41.226488442848265, -0.169338472315474, 9.01915929306223, 0.10588858011426984, 2.9411351151435676, -0.6030952045093046, 0.542162659794428]

>  <energy>  (8) 
-755.5361890803105

>  <inter_energy>  (8) 
-743.3126299852287

>  <intra_energy>  (8) 
0.0

>  <rmsd>  (8) 
6.37099

>  <sdf_rank>  (8) 
0

$$$$

     RDKit          3D

 34 36  0  0  0  0  0  0  0  0999 V2000
   40.4529    2.3874    8.3394 C   0  0  0  0  0  0  0  0  0  0  0  0
   41.0631    2.6006    9.6689 C   0  0  0  0  0  0  0  0  0  0  0  0
   41.3263    3.7547   10.3274 C   0  0  0  0  0  0  0  0  0  0  0  0
   41.0119    5.1646    9.9340 C   0  0  0  0  0  0  0  0  0  0  0  0
   41.8737    3.3738   11.6008 C   0  0  0  0  0  0  0  0  0  0  0  0
   42.3234    4.0824   12.7101 C   0  0  0  0  0  0  0  0  0  0  0  0
   42.8496    3.3894   13.7893 C   0  0  0  0  0  0  0  0  0  0  0  0
   42.9164    1.9723   13.7198 C   0  0  0  0  0  0  0  0  0  0  0  0
   42.4754    1.2492   12.6241 C   0  0  0  0  0  0  0  0  0  0  0  0
   41.9572    1.9880   11.5881 C   0  0  0  0  0  0  0  0  0  0  0  0
   41.4536    1.4891   10.4003 O   0  0  0  0  0  0  0  0  0  0  0  0
   43.2877    4.1199   15.0181 C   0  0  0  0  0  0  0  0  0  0  0  0
   43.9849    3.4675   16.0411 C   0  0  0  0  0  0  0  0  0  0  0  0
   44.4128    4.1767   17.1772 C   0  0  0  0  0  0  0  0  0  0  0  0
   45.0702    3.5578   18.1928 N   0  0  0  0  0  0  0  0  0  0  0  0
   44.2732    5.5101   17.2552 N   0  0  0  0  0  0  0  0  0  0  0  0
   43.6500    6.1625   16.2554 C   0  0  0  0  0  0  0  0  0  0  0  0
   43.5396    7.4961   16.3854 N   0  0  0  0  0  0  0  0  0  0  0  0
   43.1324    5.5013   15.1253 C   0  0  0  0  0  0  0  0  0  0  0  0
   39.4210    2.0268    8.4631 H   0  0  0  0  0  0  0  0  0  0  0  0
   40.4455    3.3362    7.7829 H   0  0  0  0  0  0  0  0  0  0  0  0
   41.0380    1.6404    7.7829 H   0  0  0  0  0  0  0  0  0  0  0  0
   40.8756    5.7758   10.8383 H   0  0  0  0  0  0  0  0  0  0  0  0
   41.8412    5.5723    9.3373 H   0  0  0  0  0  0  0  0  0  0  0  0
   40.0879    5.1814    9.3373 H   0  0  0  0  0  0  0  0  0  0  0  0
   42.2622    5.1805   12.7308 H   0  0  0  0  0  0  0  0  0  0  0  0
   43.3376    1.4241   14.5754 H   0  0  0  0  0  0  0  0  0  0  0  0
   42.5363    0.1516   12.5857 H   0  0  0  0  0  0  0  0  0  0  0  0
   44.1997    2.3921   15.9557 H   0  0  0  0  0  0  0  0  0  0  0  0
   45.3738    4.0988   19.0150 H   0  0  0  0  0  0  0  0  0  0  0  0
   45.2649    2.5477   18.1404 H   0  0  0  0  0  0  0  0  0  0  0  0
   43.0725    8.0482   15.6519 H   0  0  0  0  0  0  0  0  0  0  0  0
   43.9221    7.9658   17.2185 H   0  0  0  0  0  0  0  0  0  0  0  0
   42.6126    6.0668   14.3379 H   0  0  0  0  0  0  0  0  0  0  0  0
  1  2  1  0
  2  3  2  0
  2 11  1  0
  3  4  1  0
  3  5  1  0
  5  6  1  0
  5 10  2  0
  6  7  2  0
  7  8  1  0
  7 12  1  0
  8  9  2  0
  9 10  1  0
 10 11  1  0
 12 13  2  0
 12 19  1  0
 13 14  1  0
 14 15  1  0
 14 16  2  0
 16 17  1  0
 17 18  1  0
 17 19  2  0
  1 20  1  0
  1 21  1  0
  1 22  1  0
  4 23  1  0
  4 24  1  0
  4 25  1  0
  6 26  1  0
  8 27  1  0
  9 28  1  0
 13 29  1  0
 15 30  1  0
 15 31  1  0
 18 32  1  0
 18 33  1  0
 19 34  1  0
M  END
>  <filename_input>  (9) 
7AKL_RK5_docked.sdf

>  <pdb_id>  (9) 
7AKL_RK5

>  <pose_rank>  (9) 
8

>  <num_atoms_heavy>  (9) 
19

>  <num_torsions>  (9) 
1

>  <pose>  (9) 
[40.452852581911685, 2.3873617289908413, 8.339363347776626, 2.3678550692772715, 0.20445427296386795, -0.9739044300873371, -21.733905606657043]

>  <energy>  (9) 
-662.1688360427676

>  <inter_energy>  (9) 
-659.0642220100915

>  <intra_energy>  (9) 
0.0

>  <rmsd>  (9) 
6.82119

>  <sdf_rank>  (9) 
0

$$$$

     RDKit          3D

 34 36  0  0  0  0  0  0  0  0999 V2000
   45.2688    2.7080   19.1117 C   0  0  0  0  0  0  0  0  0  0  0  0
   44.7777    3.3605   17.8793 C   0  0  0  0  0  0  0  0  0  0  0  0
   44.4216    2.8147   16.6919 C   0  0  0  0  0  0  0  0  0  0  0  0
   44.3513    1.3735   16.2929 C   0  0  0  0  0  0  0  0  0  0  0  0
   43.9718    3.9041   15.8688 C   0  0  0  0  0  0  0  0  0  0  0  0
   43.4762    3.9949   14.5723 C   0  0  0  0  0  0  0  0  0  0  0  0
   43.1699    5.2418   14.0496 C   0  0  0  0  0  0  0  0  0  0  0  0
   43.3804    6.3890   14.8602 C   0  0  0  0  0  0  0  0  0  0  0  0
   43.8740    6.3193   16.1523 C   0  0  0  0  0  0  0  0  0  0  0  0
   44.1528    5.0578   16.6198 C   0  0  0  0  0  0  0  0  0  0  0  0
   44.6464    4.7410   17.8724 O   0  0  0  0  0  0  0  0  0  0  0  0
   42.5820    5.3658   12.6805 C   0  0  0  0  0  0  0  0  0  0  0  0
   42.2713    4.2342   11.9183 C   0  0  0  0  0  0  0  0  0  0  0  0
   41.6937    4.3696   10.6436 C   0  0  0  0  0  0  0  0  0  0  0  0
   41.4062    3.2849    9.8771 N   0  0  0  0  0  0  0  0  0  0  0  0
   41.3156    5.5712   10.1779 N   0  0  0  0  0  0  0  0  0  0  0  0
   41.5600    6.6674   10.9209 C   0  0  0  0  0  0  0  0  0  0  0  0
   41.1591    7.8432   10.4067 N   0  0  0  0  0  0  0  0  0  0  0  0
   42.2022    6.6075   12.1724 C   0  0  0  0  0  0  0  0  0  0  0  0
   44.8708    3.2369   19.9902 H   0  0  0  0  0  0  0  0  0  0  0  0
   44.9329    1.6607   19.1309 H   0  0  0  0  0  0  0  0  0  0  0  0
   46.3682    2.7409   19.1309 H   0  0  0  0  0  0  0  0  0  0  0  0
   44.3206    0.7445   17.1948 H   0  0  0  0  0  0  0  0  0  0  0  0
   43.4437    1.2023   15.6954 H   0  0  0  0  0  0  0  0  0  0  0  0
   45.2378    1.1148   15.6954 H   0  0  0  0  0  0  0  0  0  0  0  0
   43.3290    3.0874   13.9684 H   0  0  0  0  0  0  0  0  0  0  0  0
   43.1403    7.3779   14.4427 H   0  0  0  0  0  0  0  0  0  0  0  0
   44.0331    7.2182   16.7661 H   0  0  0  0  0  0  0  0  0  0  0  0
   42.4805    3.2315   12.3193 H   0  0  0  0  0  0  0  0  0  0  0  0
   40.9831    3.4095    8.9463 H   0  0  0  0  0  0  0  0  0  0  0  0
   41.6113    2.3381   10.2270 H   0  0  0  0  0  0  0  0  0  0  0  0
   41.3193    8.7156   10.9301 H   0  0  0  0  0  0  0  0  0  0  0  0
   40.6916    7.8714    9.4893 H   0  0  0  0  0  0  0  0  0  0  0  0
   42.4015    7.5275   12.7415 H   0  0  0  0  0  0  0  0  0  0  0  0
  1  2  1  0
  2  3  2  0
  2 11  1  0
  3  4  1  0
  3  5  1  0
  5  6  1  0
  5 10  2  0
  6  7  2  0
  7  8  1  0
  7 12  1  0
  8  9  2  0
  9 10  1  0
 10 11  1  0
 12 13  2  0
 12 19  1  0
 13 14  1  0
 14 15  1  0
 14 16  2  0
 16 17  1  0
 17 18  1  0
 17 19  2  0
  1 20  1  0
  1 21  1  0
  1 22  1  0
  4 23  1  0
  4 24  1  0
  4 25  1  0
  6 26  1  0
  8 27  1  0
  9 28  1  0
 13 29  1  0
 15 30  1  0
 15 31  1  0
 18 32  1  0
 18 33  1  0
 19 34  1  0
M  END
>  <filename_input>  (10) 
7AKL_RK5_docked.sdf

>  <pdb_id>  (10) 
7AKL_RK5

>  <pose_rank>  (10) 
9

>  <num_atoms_heavy>  (10) 
19

>  <num_torsions>  (10) 
1

>  <pose>  (10) 
[45.26882980067649, 2.7080003135274833, 19.111668070841525, 5.675127369970968, 2.0251020642575175, -1.8640630311103183, 0.15432143899237544]

>  <energy>  (10) 
-581.1789599382997

>  <inter_energy>  (10) 
-576.7650536234056

>  <intra_energy>  (10) 
0.0

>  <rmsd>  (10) 
1.09001

>  <sdf_rank>  (10) 
0

$$$$

     RDKit          3D

 34 36  0  0  0  0  0  0  0  0999 V2000
   45.3997    1.2989   17.7921 C   0  0  0  0  0  0  0  0  0  0  0  0
   44.7804    1.8686   16.5765 C   0  0  0  0  0  0  0  0  0  0  0  0
   44.6200    3.1628   16.2100 C   0  0  0  0  0  0  0  0  0  0  0  0
   45.0872    4.4084   16.8966 C   0  0  0  0  0  0  0  0  0  0  0  0
   44.0038    3.1381   14.9115 C   0  0  0  0  0  0  0  0  0  0  0  0
   43.6006    4.1219   14.0145 C   0  0  0  0  0  0  0  0  0  0  0  0
   42.9786    3.7483   12.8333 C   0  0  0  0  0  0  0  0  0  0  0  0
   42.7689    2.3660   12.5833 C   0  0  0  0  0  0  0  0  0  0  0  0
   43.1615    1.3721   13.4642 C   0  0  0  0  0  0  0  0  0  0  0  0
   43.7792    1.8007   14.6142 C   0  0  0  0  0  0  0  0  0  0  0  0
   44.2594    0.9969   15.6323 O   0  0  0  0  0  0  0  0  0  0  0  0
   42.5862    4.7797   11.8245 C   0  0  0  0  0  0  0  0  0  0  0  0
   42.6740    6.1466   12.1115 C   0  0  0  0  0  0  0  0  0  0  0  0
   42.3264    7.1027   11.1410 C   0  0  0  0  0  0  0  0  0  0  0  0
   42.3815    8.4343   11.4066 N   0  0  0  0  0  0  0  0  0  0  0  0
   42.0209    6.7366    9.8855 N   0  0  0  0  0  0  0  0  0  0  0  0
   41.9817    5.4263    9.5770 C   0  0  0  0  0  0  0  0  0  0  0  0
   41.6719    5.1175    8.3057 N   0  0  0  0  0  0  0  0  0  0  0  0
   42.2464    4.4167   10.5219 C   0  0  0  0  0  0  0  0  0  0  0  0
   44.9257    1.7350   18.6838 H   0  0  0  0  0  0  0  0  0  0  0  0
   45.2589    0.2080   17.7984 H   0  0  0  0  0  0  0  0  0  0  0  0
   46.4751    1.5299   17.7984 H   0  0  0  0  0  0  0  0  0  0  0  0
   45.0345    4.2681   17.9863 H   0  0  0  0  0  0  0  0  0  0  0  0
   46.1260    4.6207   16.6040 H   0  0  0  0  0  0  0  0  0  0  0  0
   44.4441    5.2515   16.6040 H   0  0  0  0  0  0  0  0  0  0  0  0
   43.7735    5.1846   14.2400 H   0  0  0  0  0  0  0  0  0  0  0  0
   42.2718    2.0714   11.6473 H   0  0  0  0  0  0  0  0  0  0  0  0
   42.9896    0.3057   13.2560 H   0  0  0  0  0  0  0  0  0  0  0  0
   43.0173    6.4753   13.1034 H   0  0  0  0  0  0  0  0  0  0  0  0
   42.1218    9.1157   10.6791 H   0  0  0  0  0  0  0  0  0  0  0  0
   42.6829    8.7621   12.3353 H   0  0  0  0  0  0  0  0  0  0  0  0
   41.6268    4.1314    8.0116 H   0  0  0  0  0  0  0  0  0  0  0  0
   41.4795    5.8670    7.6259 H   0  0  0  0  0  0  0  0  0  0  0  0
   42.1858    3.3561   10.2365 H   0  0  0  0  0  0  0  0  0  0  0  0
  1  2  1  0
  2  3  2  0
  2 11  1  0
  3  4  1  0
  3  5  1  0
  5  6  1  0
  5 10  2  0
  6  7  2  0
  7  8  1  0
  7 12  1  0
  8  9  2  0
  9 10  1  0
 10 11  1  0
 12 13  2  0
 12 19  1  0
 13 14  1  0
 14 15  1  0
 14 16  2  0
 16 17  1  0
 17 18  1  0
 17 19  2  0
  1 20  1  0
  1 21  1  0
  1 22  1  0
  4 23  1  0
  4 24  1  0
  4 25  1  0
  6 26  1  0
  8 27  1  0
  9 28  1  0
 13 29  1  0
 15 30  1  0
 15 31  1  0
 18 32  1  0
 18 33  1  0
 19 34  1  0
M  END
>  <filename_input>  (11) 
7AKL_RK5_docked.sdf

>  <pdb_id>  (11) 
7AKL_RK5

>  <pose_rank>  (11) 
10

>  <num_atoms_heavy>  (11) 
19

>  <num_torsions>  (11) 
1

>  <pose>  (11) 
[45.39967965636568, 1.2989129241358284, 17.792059274792816, 1.11115660098309, -1.190387343856243, 2.4904415394200994, -0.041640261480159785]

>  <energy>  (11) 
-593.5150143767239

>  <inter_energy>  (11) 
-569.6370631043059

>  <intra_energy>  (11) 
0.0

>  <rmsd>  (11) 
2.77923

>  <sdf_rank>  (11) 
0

$$$$

     RDKit          3D

 34 36  0  0  0  0  0  0  0  0999 V2000
   43.4559   -0.4084   18.4198 C   0  0  0  0  0  0  0  0  0  0  0  0
   42.9979   -0.3665   17.0148 C   0  0  0  0  0  0  0  0  0  0  0  0
   42.7893   -1.3795   16.1400 C   0  0  0  0  0  0  0  0  0  0  0  0
   42.8931   -2.8571   16.3569 C   0  0  0  0  0  0  0  0  0  0  0  0
   42.2976   -0.7722   14.9333 C   0  0  0  0  0  0  0  0  0  0  0  0
   41.8959   -1.2671   13.6970 C   0  0  0  0  0  0  0  0  0  0  0  0
   41.5080   -0.3794   12.7054 C   0  0  0  0  0  0  0  0  0  0  0  0
   41.5411    1.0121   12.9878 C   0  0  0  0  0  0  0  0  0  0  0  0
   41.9392    1.5241   14.2114 C   0  0  0  0  0  0  0  0  0  0  0  0
   42.3054    0.5979   15.1578 C   0  0  0  0  0  0  0  0  0  0  0  0
   42.7310    0.8695   16.4455 O   0  0  0  0  0  0  0  0  0  0  0  0
   41.0169   -0.8842   11.3864 C   0  0  0  0  0  0  0  0  0  0  0  0
   40.7202   -0.0066   10.3377 C   0  0  0  0  0  0  0  0  0  0  0  0
   40.2855   -0.5011    9.0954 C   0  0  0  0  0  0  0  0  0  0  0  0
   39.9693    0.3346    8.0714 N   0  0  0  0  0  0  0  0  0  0  0  0
   40.2603   -1.8202    8.8447 N   0  0  0  0  0  0  0  0  0  0  0  0
   40.5924   -2.6795    9.8270 C   0  0  0  0  0  0  0  0  0  0  0  0
   40.5511   -3.9878    9.5201 N   0  0  0  0  0  0  0  0  0  0  0  0
   40.9647   -2.2510   11.1155 C   0  0  0  0  0  0  0  0  0  0  0  0
   42.5880   -0.3291   19.0909 H   0  0  0  0  0  0  0  0  0  0  0  0
   43.9785   -1.3581   18.6069 H   0  0  0  0  0  0  0  0  0  0  0  0
   44.1421    0.4308   18.6069 H   0  0  0  0  0  0  0  0  0  0  0  0
   42.9080   -3.0691   17.4362 H   0  0  0  0  0  0  0  0  0  0  0  0
   42.0279   -3.3569   15.8970 H   0  0  0  0  0  0  0  0  0  0  0  0
   43.8197   -3.2310   15.8970 H   0  0  0  0  0  0  0  0  0  0  0  0
   41.8860   -2.3507   13.5082 H   0  0  0  0  0  0  0  0  0  0  0  0
   41.2365    1.7153   12.1986 H   0  0  0  0  0  0  0  0  0  0  0  0
   41.9609    2.6053   14.4131 H   0  0  0  0  0  0  0  0  0  0  0  0
   40.8280    1.0780   10.4862 H   0  0  0  0  0  0  0  0  0  0  0  0
   39.6531   -0.0516    7.1705 H   0  0  0  0  0  0  0  0  0  0  0  0
   40.0460    1.3541    8.1963 H   0  0  0  0  0  0  0  0  0  0  0  0
   40.7948   -4.6916   10.2315 H   0  0  0  0  0  0  0  0  0  0  0  0
   40.2756   -4.2862    8.5735 H   0  0  0  0  0  0  0  0  0  0  0  0
   41.2109   -2.9843   11.8975 H   0  0  0  0  0  0  0  0  0  0  0  0
  1  2  1  0
  2  3  2  0
  2 11  1  0
  3  4  1  0
  3  5  1  0
  5  6  1  0
  5 10  2  0
  6  7  2  0
  7  8  1  0
  7 12  1  0
  8  9  2  0
  9 10  1  0
 10 11  1  0
 12 13  2  0
 12 19  1  0
 13 14  1  0
 14 15  1  0
 14 16  2  0
 16 17  1  0
 17 18  1  0
 17 19  2  0
  1 20  1  0
  1 21  1  0
  1 22  1  0
  4 23  1  0
  4 24  1  0
  4 25  1  0
  6 26  1  0
  8 27  1  0
  9 28  1  0
 13 29  1  0
 15 30  1  0
 15 31  1  0
 18 32  1  0
 18 33  1  0
 19 34  1  0
M  END
>  <filename_input>  (12) 
7AKL_RK5_docked.sdf

>  <pdb_id>  (12) 
7AKL_RK5

>  <pose_rank>  (12) 
11

>  <num_atoms_heavy>  (12) 
19

>  <num_torsions>  (12) 
1

>  <pose>  (12) 
[43.455922858564094, -0.40839953000532514, 18.419770966148057, -6.41988724956181, -0.7715207083766656, 1.7285884502398279, 3.3338805371526368]

>  <energy>  (12) 
-250.19680963505598

>  <inter_energy>  (12) 
-246.76573452694788

>  <intra_energy>  (12) 
0.0

>  <rmsd>  (12) 
6.58619

>  <sdf_rank>  (12) 
0

$$$$

     RDKit          3D

 34 36  0  0  0  0  0  0  0  0999 V2000
   45.3055    5.0285   17.3920 C   0  0  0  0  0  0  0  0  0  0  0  0
   44.6466    4.2580   16.3159 C   0  0  0  0  0  0  0  0  0  0  0  0
   44.2988    2.9495   16.2743 C   0  0  0  0  0  0  0  0  0  0  0  0
   44.4142    1.9027   17.3382 C   0  0  0  0  0  0  0  0  0  0  0  0
   43.6431    2.7491   15.0108 C   0  0  0  0  0  0  0  0  0  0  0  0
   43.0578    1.6508   14.3896 C   0  0  0  0  0  0  0  0  0  0  0  0
   42.5399    1.7915   13.1114 C   0  0  0  0  0  0  0  0  0  0  0  0
   42.6321    3.0586   12.4764 C   0  0  0  0  0  0  0  0  0  0  0  0
   43.2122    4.1632   13.0775 C   0  0  0  0  0  0  0  0  0  0  0  0
   43.7014    3.9667   14.3463 C   0  0  0  0  0  0  0  0  0  0  0  0
   44.3151    4.9173   15.1419 O   0  0  0  0  0  0  0  0  0  0  0  0
   41.8539    0.6444   12.4413 C   0  0  0  0  0  0  0  0  0  0  0  0
   41.5982    0.6543   11.0655 C   0  0  0  0  0  0  0  0  0  0  0  0
   40.9764   -0.4451   10.4478 C   0  0  0  0  0  0  0  0  0  0  0  0
   40.6974   -0.4462    9.1179 N   0  0  0  0  0  0  0  0  0  0  0  0
   40.7244   -1.5732   11.1315 N   0  0  0  0  0  0  0  0  0  0  0  0
   41.0117   -1.6195   12.4464 C   0  0  0  0  0  0  0  0  0  0  0  0
   40.7400   -2.7737   13.0802 N   0  0  0  0  0  0  0  0  0  0  0  0
   41.5660   -0.5272   13.1404 C   0  0  0  0  0  0  0  0  0  0  0  0
   44.9783    4.6459   18.3700 H   0  0  0  0  0  0  0  0  0  0  0  0
   46.3968    4.9228   17.3033 H   0  0  0  0  0  0  0  0  0  0  0  0
   45.0315    6.0902   17.3033 H   0  0  0  0  0  0  0  0  0  0  0  0
   44.3617    2.3788   18.3284 H   0  0  0  0  0  0  0  0  0  0  0  0
   43.5902    1.1815   17.2340 H   0  0  0  0  0  0  0  0  0  0  0  0
   45.3756    1.3784   17.2340 H   0  0  0  0  0  0  0  0  0  0  0  0
   43.0063    0.6813   14.9068 H   0  0  0  0  0  0  0  0  0  0  0  0
   42.2240    3.1676   11.4607 H   0  0  0  0  0  0  0  0  0  0  0  0
   43.2772    5.1373   12.5707 H   0  0  0  0  0  0  0  0  0  0  0  0
   41.8856    1.5286   10.4630 H   0  0  0  0  0  0  0  0  0  0  0  0
   40.2413   -1.2635    8.6880 H   0  0  0  0  0  0  0  0  0  0  0  0
   40.9419    0.3704    8.5397 H   0  0  0  0  0  0  0  0  0  0  0  0
   40.9386   -2.8677   14.0865 H   0  0  0  0  0  0  0  0  0  0  0  0
   40.3333   -3.5638   12.5595 H   0  0  0  0  0  0  0  0  0  0  0  0
   41.7693   -0.5970   14.2192 H   0  0  0  0  0  0  0  0  0  0  0  0
  1  2  1  0
  2  3  2  0
  2 11  1  0
  3  4  1  0
  3  5  1  0
  5  6  1  0
  5 10  2  0
  6  7  2  0
  7  8  1  0
  7 12  1  0
  8  9  2  0
  9 10  1  0
 10 11  1  0
 12 13  2  0
 12 19  1  0
 13 14  1  0
 14 15  1  0
 14 16  2  0
 16 17  1  0
 17 18  1  0
 17 19  2  0
  1 20  1  0
  1 21  1  0
  1 22  1  0
  4 23  1  0
  4 24  1  0
  4 25  1  0
  6 26  1  0
  8 27  1  0
  9 28  1  0
 13 29  1  0
 15 30  1  0
 15 31  1  0
 18 32  1  0
 18 33  1  0
 19 34  1  0
M  END
>  <filename_input>  (13) 
7AKL_RK5_docked.sdf

>  <pdb_id>  (13) 
7AKL_RK5

>  <pose_rank>  (13) 
12

>  <num_atoms_heavy>  (13) 
19

>  <num_torsions>  (13) 
1

>  <pose>  (13) 
[45.30545632360395, 5.028525371135361, 17.391972003072226, -1.0418662568182673, 0.1400541642419611, 0.08605469678353697, -2.7794481199986665]

>  <energy>  (13) 
-408.85149918012

>  <inter_energy>  (13) 
-409.16245428977527

>  <intra_energy>  (13) 
0.0

>  <rmsd>  (13) 
5.17099

>  <sdf_rank>  (13) 
0

$$$$

     RDKit          3D

 34 36  0  0  0  0  0  0  0  0999 V2000
   41.2761   -1.9227   11.0745 C   0  0  0  0  0  0  0  0  0  0  0  0
   41.7296   -0.6887   11.7506 C   0  0  0  0  0  0  0  0  0  0  0  0
   41.7930    0.5819   11.2854 C   0  0  0  0  0  0  0  0  0  0  0  0
   41.3544    1.1315    9.9638 C   0  0  0  0  0  0  0  0  0  0  0  0
   42.2593    1.3872   12.3811 C   0  0  0  0  0  0  0  0  0  0  0  0
   42.5169    2.7447   12.5414 C   0  0  0  0  0  0  0  0  0  0  0  0
   43.0168    3.2014   13.7510 C   0  0  0  0  0  0  0  0  0  0  0  0
   43.2550    2.2595   14.7872 C   0  0  0  0  0  0  0  0  0  0  0  0
   43.0064    0.9044   14.6464 C   0  0  0  0  0  0  0  0  0  0  0  0
   42.5050    0.5106   13.4294 C   0  0  0  0  0  0  0  0  0  0  0  0
   42.1770   -0.7813   13.0599 O   0  0  0  0  0  0  0  0  0  0  0  0
   43.2491    4.6618   13.9719 C   0  0  0  0  0  0  0  0  0  0  0  0
   42.7442    5.6197   13.0856 C   0  0  0  0  0  0  0  0  0  0  0  0
   42.9494    6.9901   13.3240 C   0  0  0  0  0  0  0  0  0  0  0  0
   42.4884    7.9357   12.4638 N   0  0  0  0  0  0  0  0  0  0  0  0
   43.5233    7.4177   14.4603 N   0  0  0  0  0  0  0  0  0  0  0  0
   43.9695    6.5104   15.3499 C   0  0  0  0  0  0  0  0  0  0  0  0
   44.5339    6.9945   16.4699 N   0  0  0  0  0  0  0  0  0  0  0  0
   43.8617    5.1229   15.1365 C   0  0  0  0  0  0  0  0  0  0  0  0
   41.0000   -2.6739   11.8292 H   0  0  0  0  0  0  0  0  0  0  0  0
   40.4024   -1.6963   10.4457 H   0  0  0  0  0  0  0  0  0  0  0  0
   42.0884   -2.3160   10.4457 H   0  0  0  0  0  0  0  0  0  0  0  0
   40.6758    1.9817   10.1272 H   0  0  0  0  0  0  0  0  0  0  0  0
   42.2344    1.4687    9.3965 H   0  0  0  0  0  0  0  0  0  0  0  0
   40.8305    0.3481    9.3965 H   0  0  0  0  0  0  0  0  0  0  0  0
   42.3260    3.4480   11.7175 H   0  0  0  0  0  0  0  0  0  0  0  0
   43.6552    2.6231   15.7451 H   0  0  0  0  0  0  0  0  0  0  0  0
   43.1985    0.1879   15.4586 H   0  0  0  0  0  0  0  0  0  0  0  0
   42.1829    5.2983   12.1959 H   0  0  0  0  0  0  0  0  0  0  0  0
   42.6511    8.9337   12.6601 H   0  0  0  0  0  0  0  0  0  0  0  0
   41.9763    7.6545   11.6155 H   0  0  0  0  0  0  0  0  0  0  0  0
   44.8935    6.3478   17.1864 H   0  0  0  0  0  0  0  0  0  0  0  0
   44.6069    8.0121   16.6115 H   0  0  0  0  0  0  0  0  0  0  0  0
   44.2554    4.4124   15.8783 H   0  0  0  0  0  0  0  0  0  0  0  0
  1  2  1  0
  2  3  2  0
  2 11  1  0
  3  4  1  0
  3  5  1  0
  5  6  1  0
  5 10  2  0
  6  7  2  0
  7  8  1  0
  7 12  1  0
  8  9  2  0
  9 10  1  0
 10 11  1  0
 12 13  2  0
 12 19  1  0
 13 14  1  0
 14 15  1  0
 14 16  2  0
 16 17  1  0
 17 18  1  0
 17 19  2  0
  1 20  1  0
  1 21  1  0
  1 22  1  0
  4 23  1  0
  4 24  1  0
  4 25  1  0
  6 26  1  0
  8 27  1  0
  9 28  1  0
 13 29  1  0
 15 30  1  0
 15 31  1  0
 18 32  1  0
 18 33  1  0
 19 34  1  0
M  END
>  <filename_input>  (14) 
7AKL_RK5_docked.sdf

>  <pdb_id>  (14) 
7AKL_RK5

>  <pose_rank>  (14) 
13

>  <num_atoms_heavy>  (14) 
19

>  <num_torsions>  (14) 
1

>  <pose>  (14) 
[41.27606541755994, -1.9226752076815745, 11.07453416834751, 1.5436921046796483, -0.05598702063428833, -0.7352640132316318, 0.31675550202607633]

>  <energy>  (14) 
-606.4026568806053

>  <inter_energy>  (14) 
-589.0882624069511

>  <intra_energy>  (14) 
0.0

>  <rmsd>  (14) 
5.78685

>  <sdf_rank>  (14) 
0

$$$$

     RDKit          3D

 34 36  0  0  0  0  0  0  0  0999 V2000
   43.1705    7.8942   14.6736 C   0  0  0  0  0  0  0  0  0  0  0  0
   42.9301    6.6692   13.8816 C   0  0  0  0  0  0  0  0  0  0  0  0
   42.8695    5.3763   14.2809 C   0  0  0  0  0  0  0  0  0  0  0  0
   42.9581    4.8044   15.6616 C   0  0  0  0  0  0  0  0  0  0  0  0
   42.5585    4.6081   13.1063 C   0  0  0  0  0  0  0  0  0  0  0  0
   42.3551    3.2537   12.8634 C   0  0  0  0  0  0  0  0  0  0  0  0
   42.1105    2.8269   11.5674 C   0  0  0  0  0  0  0  0  0  0  0  0
   42.0826    3.7936   10.5272 C   0  0  0  0  0  0  0  0  0  0  0  0
   42.2842    5.1457   10.7486 C   0  0  0  0  0  0  0  0  0  0  0  0
   42.5146    5.5114   12.0528 C   0  0  0  0  0  0  0  0  0  0  0  0
   42.7368    6.7962   12.5144 O   0  0  0  0  0  0  0  0  0  0  0  0
   41.8314    1.3855   11.2844 C   0  0  0  0  0  0  0  0  0  0  0  0
   42.6029    0.3697   11.8598 C   0  0  0  0  0  0  0  0  0  0  0  0
   42.3087   -0.9811   11.6038 C   0  0  0  0  0  0  0  0  0  0  0  0
   43.0596   -1.9825   12.1331 N   0  0  0  0  0  0  0  0  0  0  0  0
   41.2163   -1.3325   10.9061 N   0  0  0  0  0  0  0  0  0  0  0  0
   40.4325   -0.3678   10.3877 C   0  0  0  0  0  0  0  0  0  0  0  0
   39.3520   -0.7767    9.7000 N   0  0  0  0  0  0  0  0  0  0  0  0
   40.7131    1.0029   10.5447 C   0  0  0  0  0  0  0  0  0  0  0  0
   43.1232    7.6528   15.7457 H   0  0  0  0  0  0  0  0  0  0  0  0
   44.1650    8.2976   14.4322 H   0  0  0  0  0  0  0  0  0  0  0  0
   42.4023    8.6435   14.4322 H   0  0  0  0  0  0  0  0  0  0  0  0
   42.8333    5.6094   16.4007 H   0  0  0  0  0  0  0  0  0  0  0  0
   42.1656    4.0541   15.7993 H   0  0  0  0  0  0  0  0  0  0  0  0
   43.9407    4.3293   15.7993 H   0  0  0  0  0  0  0  0  0  0  0  0
   42.3878    2.5293   13.6906 H   0  0  0  0  0  0  0  0  0  0  0  0
   41.8921    3.4528    9.4989 H   0  0  0  0  0  0  0  0  0  0  0  0
   42.2612    5.8813    9.9310 H   0  0  0  0  0  0  0  0  0  0  0  0
   43.4456    0.6299   12.5171 H   0  0  0  0  0  0  0  0  0  0  0  0
   42.8242   -2.9647   11.9310 H   0  0  0  0  0  0  0  0  0  0  0  0
   43.8641   -1.7593   12.7363 H   0  0  0  0  0  0  0  0  0  0  0  0
   38.7159   -0.0836    9.2807 H   0  0  0  0  0  0  0  0  0  0  0  0
   39.1604   -1.7830    9.5925 H   0  0  0  0  0  0  0  0  0  0  0  0
   40.0591    1.7616   10.0900 H   0  0  0  0  0  0  0  0  0  0  0  0
  1  2  1  0
  2  3  2  0
  2 11  1  0
  3  4  1  0
  3  5  1  0
  5  6  1  0
  5 10  2  0
  6  7  2  0
  7  8  1  0
  7 12  1  0
  8  9  2  0
  9 10  1  0
 10 11  1  0
 12 13  2  0
 12 19  1  0
 13 14  1  0
 14 15  1  0
 14 16  2  0
 16 17  1  0
 17 18  1  0
 17 19  2  0
  1 20  1  0
  1 21  1  0
  1 22  1  0
  4 23  1  0
  4 24  1  0
  4 25  1  0
  6 26  1  0
  8 27  1  0
  9 28  1  0
 13 29  1  0
 15 30  1  0
 15 31  1  0
 18 32  1  0
 18 33  1  0
 19 34  1  0
M  END
>  <filename_input>  (15) 
7AKL_RK5_docked.sdf

>  <pdb_id>  (15) 
7AKL_RK5

>  <pose_rank>  (15) 
14

>  <num_atoms_heavy>  (15) 
19

>  <num_torsions>  (15) 
1

>  <pose>  (15) 
[43.17051513561376, 7.894171321308153, 14.673599616523921, -1.4185663196525993, -0.14168884707942225, 0.189335602481341, -25.813923768249253]

>  <energy>  (15) 
-520.777200297241

>  <inter_energy>  (15) 
-506.83582109018334

>  <intra_energy>  (15) 
0.0

>  <rmsd>  (15) 
5.45896

>  <sdf_rank>  (15) 
0

$$$$

     RDKit          3D

 34 36  0  0  0  0  0  0  0  0999 V2000
   44.4175   -1.1916   17.5183 C   0  0  0  0  0  0  0  0  0  0  0  0
   44.2392    0.0971   16.8161 C   0  0  0  0  0  0  0  0  0  0  0  0
   43.7588    0.3492   15.5750 C   0  0  0  0  0  0  0  0  0  0  0  0
   43.1959   -0.6008   14.5642 C   0  0  0  0  0  0  0  0  0  0  0  0
   43.7585    1.7793   15.4282 C   0  0  0  0  0  0  0  0  0  0  0  0
   43.3786    2.6458   14.4085 C   0  0  0  0  0  0  0  0  0  0  0  0
   43.5566    4.0102   14.5773 C   0  0  0  0  0  0  0  0  0  0  0  0
   44.1296    4.4760   15.7905 C   0  0  0  0  0  0  0  0  0  0  0  0
   44.5154    3.6295   16.8164 C   0  0  0  0  0  0  0  0  0  0  0  0
   44.3087    2.2891   16.5966 C   0  0  0  0  0  0  0  0  0  0  0  0
   44.6080    1.2615   17.4727 O   0  0  0  0  0  0  0  0  0  0  0  0
   43.1052    4.9692   13.5227 C   0  0  0  0  0  0  0  0  0  0  0  0
   42.8379    4.5407   12.2177 C   0  0  0  0  0  0  0  0  0  0  0  0
   42.3881    5.4520   11.2460 C   0  0  0  0  0  0  0  0  0  0  0  0
   42.1455    5.0618    9.9671 N   0  0  0  0  0  0  0  0  0  0  0  0
   42.0886    6.7202   11.5710 N   0  0  0  0  0  0  0  0  0  0  0  0
   42.2908    7.1370   12.8354 C   0  0  0  0  0  0  0  0  0  0  0  0
   41.9725    8.4152   13.1047 N   0  0  0  0  0  0  0  0  0  0  0  0
   42.8091    6.2949   13.8376 C   0  0  0  0  0  0  0  0  0  0  0  0
   44.3942   -1.0233   18.6051 H   0  0  0  0  0  0  0  0  0  0  0  0
   43.6059   -1.8783   17.2361 H   0  0  0  0  0  0  0  0  0  0  0  0
   45.3852   -1.6321   17.2361 H   0  0  0  0  0  0  0  0  0  0  0  0
   42.7012   -1.4360   15.0816 H   0  0  0  0  0  0  0  0  0  0  0  0
   42.4638   -0.0745   13.9341 H   0  0  0  0  0  0  0  0  0  0  0  0
   44.0093   -0.9900   13.9341 H   0  0  0  0  0  0  0  0  0  0  0  0
   42.9419    2.2527   13.4786 H   0  0  0  0  0  0  0  0  0  0  0  0
   44.2736    5.5587   15.9213 H   0  0  0  0  0  0  0  0  0  0  0  0
   44.9597    4.0067   17.7492 H   0  0  0  0  0  0  0  0  0  0  0  0
   42.9807    3.4834   11.9501 H   0  0  0  0  0  0  0  0  0  0  0  0
   41.8164    5.7479    9.2730 H   0  0  0  0  0  0  0  0  0  0  0  0
   42.2907    4.0799    9.6919 H   0  0  0  0  0  0  0  0  0  0  0  0
   42.1057    8.7899   14.0548 H   0  0  0  0  0  0  0  0  0  0  0  0
   41.5954    9.0197   12.3609 H   0  0  0  0  0  0  0  0  0  0  0  0
   42.9782    6.6774   14.8550 H   0  0  0  0  0  0  0  0  0  0  0  0
  1  2  1  0
  2  3  2  0
  2 11  1  0
  3  4  1  0
  3  5  1  0
  5  6  1  0
  5 10  2  0
  6  7  2  0
  7  8  1  0
  7 12  1  0
  8  9  2  0
  9 10  1  0
 10 11  1  0
 12 13  2  0
 12 19  1  0
 13 14  1  0
 14 15  1  0
 14 16  2  0
 16 17  1  0
 17 18  1  0
 17 19  2  0
  1 20  1  0
  1 21  1  0
  1 22  1  0
  4 23  1  0
  4 24  1  0
  4 25  1  0
  6 26  1  0
  8 27  1  0
  9 28  1  0
 13 29  1  0
 15 30  1  0
 15 31  1  0
 18 32  1  0
 18 33  1  0
 19 34  1  0
M  END
>  <filename_input>  (16) 
7AKL_RK5_docked.sdf

>  <pdb_id>  (16) 
7AKL_RK5

>  <pose_rank>  (16) 
15

>  <num_atoms_heavy>  (16) 
19

>  <num_torsions>  (16) 
1

>  <pose>  (16) 
[44.41752646985276, -1.1916383349422657, 17.5183120999024, -4.595708799460529, -0.5189847000057212, 3.212587075668556, -0.2032518458594771]

>  <energy>  (16) 
-536.2603789172135

>  <inter_energy>  (16) 
-525.3786209267691

>  <intra_energy>  (16) 
0.0

>  <rmsd>  (16) 
3.12609

>  <sdf_rank>  (16) 
0

$$$$

     RDKit          3D

 34 36  0  0  0  0  0  0  0  0999 V2000
   41.5167    9.2344   12.1326 C   0  0  0  0  0  0  0  0  0  0  0  0
   41.6640    7.7656   12.2133 C   0  0  0  0  0  0  0  0  0  0  0  0
   41.5921    6.8317   11.2348 C   0  0  0  0  0  0  0  0  0  0  0  0
   41.4109    7.0145    9.7601 C   0  0  0  0  0  0  0  0  0  0  0  0
   41.8633    5.5687   11.8655 C   0  0  0  0  0  0  0  0  0  0  0  0
   41.9460    4.2579   11.4072 C   0  0  0  0  0  0  0  0  0  0  0  0
   42.1865    3.2370   12.3137 C   0  0  0  0  0  0  0  0  0  0  0  0
   42.3345    3.5682   13.6869 C   0  0  0  0  0  0  0  0  0  0  0  0
   42.2539    4.8663   14.1627 C   0  0  0  0  0  0  0  0  0  0  0  0
   42.0215    5.8370   13.2185 C   0  0  0  0  0  0  0  0  0  0  0  0
   41.9074    7.1952   13.4536 O   0  0  0  0  0  0  0  0  0  0  0  0
   42.3376    1.8260   11.8430 C   0  0  0  0  0  0  0  0  0  0  0  0
   42.8747    0.8367   12.6743 C   0  0  0  0  0  0  0  0  0  0  0  0
   42.9841   -0.4908   12.2242 C   0  0  0  0  0  0  0  0  0  0  0  0
   43.5244   -1.4620   13.0063 N   0  0  0  0  0  0  0  0  0  0  0  0
   42.4693   -0.8666   11.0421 N   0  0  0  0  0  0  0  0  0  0  0  0
   41.9018    0.0631   10.2502 C   0  0  0  0  0  0  0  0  0  0  0  0
   41.4019   -0.3693    9.0794 N   0  0  0  0  0  0  0  0  0  0  0  0
   41.8274    1.4222   10.6099 C   0  0  0  0  0  0  0  0  0  0  0  0
   41.4745    9.6550   13.1481 H   0  0  0  0  0  0  0  0  0  0  0  0
   42.3766    9.6602   11.5948 H   0  0  0  0  0  0  0  0  0  0  0  0
   40.5893    9.4809   11.5948 H   0  0  0  0  0  0  0  0  0  0  0  0
   40.6472    7.7848    9.5772 H   0  0  0  0  0  0  0  0  0  0  0  0
   42.3640    7.3288    9.3097 H   0  0  0  0  0  0  0  0  0  0  0  0
   41.0883    6.0642    9.3097 H   0  0  0  0  0  0  0  0  0  0  0  0
   41.8220    4.0340   10.3374 H   0  0  0  0  0  0  0  0  0  0  0  0
   42.5215    2.7565   14.4054 H   0  0  0  0  0  0  0  0  0  0  0  0
   42.3690    5.1054   15.2302 H   0  0  0  0  0  0  0  0  0  0  0  0
   43.2138    1.0995   13.6872 H   0  0  0  0  0  0  0  0  0  0  0  0
   43.5938   -2.4275   12.6543 H   0  0  0  0  0  0  0  0  0  0  0  0
   43.8646   -1.2325   13.9510 H   0  0  0  0  0  0  0  0  0  0  0  0
   40.9559    0.2967    8.4325 H   0  0  0  0  0  0  0  0  0  0  0  0
   41.4649   -1.3665    8.8294 H   0  0  0  0  0  0  0  0  0  0  0  0
   41.3729    2.1555    9.9274 H   0  0  0  0  0  0  0  0  0  0  0  0
  1  2  1  0
  2  3  2  0
  2 11  1  0
  3  4  1  0
  3  5  1  0
  5  6  1  0
  5 10  2  0
  6  7  2  0
  7  8  1  0
  7 12  1  0
  8  9  2  0
  9 10  1  0
 10 11  1  0
 12 13  2  0
 12 19  1  0
 13 14  1  0
 14 15  1  0
 14 16  2  0
 16 17  1  0
 17 18  1  0
 17 19  2  0
  1 20  1  0
  1 21  1  0
  1 22  1  0
  4 23  1  0
  4 24  1  0
  4 25  1  0
  6 26  1  0
  8 27  1  0
  9 28  1  0
 13 29  1  0
 15 30  1  0
 15 31  1  0
 18 32  1  0
 18 33  1  0
 19 34  1  0
M  END
>  <filename_input>  (17) 
7AKL_RK5_docked.sdf

>  <pdb_id>  (17) 
7AKL_RK5

>  <pose_rank>  (17) 
16

>  <num_atoms_heavy>  (17) 
19

>  <num_torsions>  (17) 
1

>  <pose>  (17) 
[41.51668662640161, 9.234414621058244, 12.13261110223247, -0.4805242804852573, -1.822257888606911, -2.6344064571611514, 2.988400170460655]

>  <energy>  (17) 
-592.4672904387984

>  <inter_energy>  (17) 
-564.7373695744881

>  <intra_energy>  (17) 
0.0

>  <rmsd>  (17) 
5.92294

>  <sdf_rank>  (17) 
0

$$$$

     RDKit          3D

 34 36  0  0  0  0  0  0  0  0999 V2000
   45.0831    6.8013   17.3421 C   0  0  0  0  0  0  0  0  0  0  0  0
   44.4941    5.9103   16.3199 C   0  0  0  0  0  0  0  0  0  0  0  0
   43.8636    6.2176   15.1611 C   0  0  0  0  0  0  0  0  0  0  0  0
   43.6356    7.5563   14.5309 C   0  0  0  0  0  0  0  0  0  0  0  0
   43.5433    4.9641   14.5344 C   0  0  0  0  0  0  0  0  0  0  0  0
   42.9174    4.6115   13.3433 C   0  0  0  0  0  0  0  0  0  0  0  0
   42.7205    3.2705   13.0524 C   0  0  0  0  0  0  0  0  0  0  0  0
   43.1624    2.2995   13.9901 C   0  0  0  0  0  0  0  0  0  0  0  0
   43.7859    2.6306   15.1815 C   0  0  0  0  0  0  0  0  0  0  0  0
   43.9609    3.9735   15.4131 C   0  0  0  0  0  0  0  0  0  0  0  0
   44.5587    4.5403   16.5242 O   0  0  0  0  0  0  0  0  0  0  0  0
   42.1027    2.8596   11.7543 C   0  0  0  0  0  0  0  0  0  0  0  0
   42.2512    3.6377   10.6008 C   0  0  0  0  0  0  0  0  0  0  0  0
   41.6860    3.2217    9.3824 C   0  0  0  0  0  0  0  0  0  0  0  0
   41.7979    3.9738    8.2561 N   0  0  0  0  0  0  0  0  0  0  0  0
   41.0990    2.0195    9.2652 N   0  0  0  0  0  0  0  0  0  0  0  0
   40.9926    1.2342   10.3540 C   0  0  0  0  0  0  0  0  0  0  0  0
   40.3976    0.0415   10.1785 N   0  0  0  0  0  0  0  0  0  0  0  0
   41.4713    1.6237   11.6195 C   0  0  0  0  0  0  0  0  0  0  0  0
   44.8338    6.4241   18.3448 H   0  0  0  0  0  0  0  0  0  0  0  0
   46.1762    6.8260   17.2210 H   0  0  0  0  0  0  0  0  0  0  0  0
   44.6778    7.8167   17.2210 H   0  0  0  0  0  0  0  0  0  0  0  0
   43.5064    8.3145   15.3173 H   0  0  0  0  0  0  0  0  0  0  0  0
   44.5018    7.8198   13.9062 H   0  0  0  0  0  0  0  0  0  0  0  0
   42.7310    7.5182   13.9062 H   0  0  0  0  0  0  0  0  0  0  0  0
   42.5825    5.3881   12.6399 H   0  0  0  0  0  0  0  0  0  0  0  0
   43.0020    1.2360   13.7595 H   0  0  0  0  0  0  0  0  0  0  0  0
   44.1204    1.8659   15.8980 H   0  0  0  0  0  0  0  0  0  0  0  0
   42.8141    4.5815   10.6475 H   0  0  0  0  0  0  0  0  0  0  0  0
   41.3753    3.6479    7.3751 H   0  0  0  0  0  0  0  0  0  0  0  0
   42.3054    4.8696    8.2833 H   0  0  0  0  0  0  0  0  0  0  0  0
   40.2880   -0.6017   10.9755 H   0  0  0  0  0  0  0  0  0  0  0  0
   40.0512   -0.2292    9.2470 H   0  0  0  0  0  0  0  0  0  0  0  0
   41.3489    0.9622   12.4897 H   0  0  0  0  0  0  0  0  0  0  0  0
  1  2  1  0
  2  3  2  0
  2 11  1  0
  3  4  1  0
  3  5  1  0
  5  6  1  0
  5 10  2  0
  6  7  2  0
  7  8  1  0
  7 12  1  0
  8  9  2  0
  9 10  1  0
 10 11  1  0
 12 13  2  0
 12 19  1  0
 13 14  1  0
 14 15  1  0
 14 16  2  0
 16 17  1  0
 17 18  1  0
 17 19  2  0
  1 20  1  0
  1 21  1  0
  1 22  1  0
  4 23  1  0
  4 24  1  0
  4 25  1  0
  6 26  1  0
  8 27  1  0
  9 28  1  0
 13 29  1  0
 15 30  1  0
 15 31  1  0
 18 32  1  0
 18 33  1  0
 19 34  1  0
M  END
>  <filename_input>  (18) 
7AKL_RK5_docked.sdf

>  <pdb_id>  (18) 
7AKL_RK5

>  <pose_rank>  (18) 
17

>  <num_atoms_heavy>  (18) 
19

>  <num_torsions>  (18) 
1

>  <pose>  (18) 
[45.083132888404776, 6.801261749358823, 17.34206046598639, 1.211169511055754, 0.3348186248068698, 2.771319545054842, 0.6143944769837444]

>  <energy>  (18) 
-579.9625483979196

>  <inter_energy>  (18) 
-534.9461266632901

>  <intra_energy>  (18) 
0.0

>  <rmsd>  (18) 
3.53706

>  <sdf_rank>  (18) 
0

$$$$

     RDKit          3D

 34 36  0  0  0  0  0  0  0  0999 V2000
   45.7734   -0.1624   21.4927 C   0  0  0  0  0  0  0  0  0  0  0  0
   45.4234    0.4441   20.1906 C   0  0  0  0  0  0  0  0  0  0  0  0
   44.7815   -0.0958   19.1270 C   0  0  0  0  0  0  0  0  0  0  0  0
   44.1689   -1.4535   18.9774 C   0  0  0  0  0  0  0  0  0  0  0  0
   44.6646    0.9555   18.1535 C   0  0  0  0  0  0  0  0  0  0  0  0
   44.1063    1.0373   16.8821 C   0  0  0  0  0  0  0  0  0  0  0  0
   44.2082    2.2236   16.1722 C   0  0  0  0  0  0  0  0  0  0  0  0
   44.8888    3.3174   16.7705 C   0  0  0  0  0  0  0  0  0  0  0  0
   45.4523    3.2551   18.0340 C   0  0  0  0  0  0  0  0  0  0  0  0
   45.3141    2.0576   18.6931 C   0  0  0  0  0  0  0  0  0  0  0  0
   45.7866    1.7622   19.9591 O   0  0  0  0  0  0  0  0  0  0  0  0
   43.5684    2.3594   14.8277 C   0  0  0  0  0  0  0  0  0  0  0  0
   43.0126    1.2546   14.1730 C   0  0  0  0  0  0  0  0  0  0  0  0
   42.3909    1.4060   12.9211 C   0  0  0  0  0  0  0  0  0  0  0  0
   41.8660    0.3427   12.2573 N   0  0  0  0  0  0  0  0  0  0  0  0
   42.2068    2.6218   12.3811 N   0  0  0  0  0  0  0  0  0  0  0  0
   42.6900    3.7028   13.0226 C   0  0  0  0  0  0  0  0  0  0  0  0
   42.4758    4.8941   12.4374 N   0  0  0  0  0  0  0  0  0  0  0  0
   43.3872    3.6118   14.2423 C   0  0  0  0  0  0  0  0  0  0  0  0
   45.4037    0.4783   22.3068 H   0  0  0  0  0  0  0  0  0  0  0  0
   45.3106   -1.1573   21.5700 H   0  0  0  0  0  0  0  0  0  0  0  0
   46.8664   -0.2595   21.5700 H   0  0  0  0  0  0  0  0  0  0  0  0
   43.9762   -1.8805   19.9726 H   0  0  0  0  0  0  0  0  0  0  0  0
   43.2215   -1.3694   18.4248 H   0  0  0  0  0  0  0  0  0  0  0  0
   44.8588   -2.1082   18.4248 H   0  0  0  0  0  0  0  0  0  0  0  0
   43.5896    0.1702   16.4448 H   0  0  0  0  0  0  0  0  0  0  0  0
   44.9720    4.2568   16.2043 H   0  0  0  0  0  0  0  0  0  0  0  0
   45.9780    4.1113   18.4820 H   0  0  0  0  0  0  0  0  0  0  0  0
   43.0625    0.2604   14.6411 H   0  0  0  0  0  0  0  0  0  0  0  0
   41.4153    0.4789   11.3412 H   0  0  0  0  0  0  0  0  0  0  0  0
   41.9188   -0.5994   12.6703 H   0  0  0  0  0  0  0  0  0  0  0  0
   42.8224    5.7561   12.8821 H   0  0  0  0  0  0  0  0  0  0  0  0
   41.9651    4.9448   11.5444 H   0  0  0  0  0  0  0  0  0  0  0  0
   43.7836    4.5163   14.7268 H   0  0  0  0  0  0  0  0  0  0  0  0
  1  2  1  0
  2  3  2  0
  2 11  1  0
  3  4  1  0
  3  5  1  0
  5  6  1  0
  5 10  2  0
  6  7  2  0
  7  8  1  0
  7 12  1  0
  8  9  2  0
  9 10  1  0
 10 11  1  0
 12 13  2  0
 12 19  1  0
 13 14  1  0
 14 15  1  0
 14 16  2  0
 16 17  1  0
 17 18  1  0
 17 19  2  0
  1 20  1  0
  1 21  1  0
  1 22  1  0
  4 23  1  0
  4 24  1  0
  4 25  1  0
  6 26  1  0
  8 27  1  0
  9 28  1  0
 13 29  1  0
 15 30  1  0
 15 31  1  0
 18 32  1  0
 18 33  1  0
 19 34  1  0
M  END
>  <filename_input>  (19) 
7AKL_RK5_docked.sdf

>  <pdb_id>  (19) 
7AKL_RK5

>  <pose_rank>  (19) 
18

>  <num_atoms_heavy>  (19) 
19

>  <num_torsions>  (19) 
1

>  <pose>  (19) 
[45.77341442888853, -0.16240269714642946, 21.492652074182832, -0.13527398911215122, 0.07602064976964276, -0.3763070470718646, 6.233983277931323]

>  <energy>  (19) 
-405.5544831594879

>  <inter_energy>  (19) 
-407.0200644072683

>  <intra_energy>  (19) 
0.0

>  <rmsd>  (19) 
4.88832

>  <sdf_rank>  (19) 
0

$$$$

     RDKit          3D

 34 36  0  0  0  0  0  0  0  0999 V2000
   42.5371    8.4177   13.3812 C   0  0  0  0  0  0  0  0  0  0  0  0
   42.5307    6.9560   13.1601 C   0  0  0  0  0  0  0  0  0  0  0  0
   41.9251    6.2280   12.1916 C   0  0  0  0  0  0  0  0  0  0  0  0
   41.1349    6.6938   11.0084 C   0  0  0  0  0  0  0  0  0  0  0  0
   42.2958    4.8593   12.4279 C   0  0  0  0  0  0  0  0  0  0  0  0
   42.0128    3.6573   11.7876 C   0  0  0  0  0  0  0  0  0  0  0  0
   42.5064    2.4750   12.3169 C   0  0  0  0  0  0  0  0  0  0  0  0
   43.2828    2.5339   13.5048 C   0  0  0  0  0  0  0  0  0  0  0  0
   43.5740    3.7201   14.1575 C   0  0  0  0  0  0  0  0  0  0  0  0
   43.0650    4.8601   13.5837 C   0  0  0  0  0  0  0  0  0  0  0  0
   43.2272    6.1522   14.0499 O   0  0  0  0  0  0  0  0  0  0  0  0
   42.2670    1.1744   11.6193 C   0  0  0  0  0  0  0  0  0  0  0  0
   41.4603    1.1000   10.4782 C   0  0  0  0  0  0  0  0  0  0  0  0
   41.2684   -0.1271    9.8194 C   0  0  0  0  0  0  0  0  0  0  0  0
   40.4702   -0.2260    8.7240 N   0  0  0  0  0  0  0  0  0  0  0  0
   41.9444   -1.2265   10.1908 N   0  0  0  0  0  0  0  0  0  0  0  0
   42.7656   -1.1611   11.2561 C   0  0  0  0  0  0  0  0  0  0  0  0
   43.4177   -2.2907   11.5821 N   0  0  0  0  0  0  0  0  0  0  0  0
   42.9446    0.0182   12.0041 C   0  0  0  0  0  0  0  0  0  0  0  0
   42.5380    8.6251   14.4615 H   0  0  0  0  0  0  0  0  0  0  0  0
   43.4371    8.8539   12.9233 H   0  0  0  0  0  0  0  0  0  0  0  0
   41.6409    8.8617   12.9233 H   0  0  0  0  0  0  0  0  0  0  0  0
   40.2352    7.2241   11.3541 H   0  0  0  0  0  0  0  0  0  0  0  0
   41.7504    7.3735   10.4009 H   0  0  0  0  0  0  0  0  0  0  0  0
   40.8383    5.8260   10.4009 H   0  0  0  0  0  0  0  0  0  0  0  0
   41.4042    3.6451   10.8714 H   0  0  0  0  0  0  0  0  0  0  0  0
   43.6705    1.5944   13.9256 H   0  0  0  0  0  0  0  0  0  0  0  0
   44.1754    3.7479   15.0781 H   0  0  0  0  0  0  0  0  0  0  0  0
   40.9728    2.0082   10.0940 H   0  0  0  0  0  0  0  0  0  0  0  0
   40.3451   -1.1362    8.2584 H   0  0  0  0  0  0  0  0  0  0  0  0
   39.9902    0.6092    8.3595 H   0  0  0  0  0  0  0  0  0  0  0  0
   44.0594   -2.3007   12.3877 H   0  0  0  0  0  0  0  0  0  0  0  0
   43.2756   -3.1460   11.0262 H   0  0  0  0  0  0  0  0  0  0  0  0
   43.6099    0.0273   12.8801 H   0  0  0  0  0  0  0  0  0  0  0  0
  1  2  1  0
  2  3  2  0
  2 11  1  0
  3  4  1  0
  3  5  1  0
  5  6  1  0
  5 10  2  0
  6  7  2  0
  7  8  1  0
  7 12  1  0
  8  9  2  0
  9 10  1  0
 10 11  1  0
 12 13  2  0
 12 19  1  0
 13 14  1  0
 14 15  1  0
 14 16  2  0
 16 17  1  0
 17 18  1  0
 17 19  2  0
  1 20  1  0
  1 21  1  0
  1 22  1  0
  4 23  1  0
  4 24  1  0
  4 25  1  0
  6 26  1  0
  8 27  1  0
  9 28  1  0
 13 29  1  0
 15 30  1  0
 15 31  1  0
 18 32  1  0
 18 33  1  0
 19 34  1  0
M  END
>  <filename_input>  (20) 
7AKL_RK5_docked.sdf

>  <pdb_id>  (20) 
7AKL_RK5

>  <pose_rank>  (20) 
19

>  <num_atoms_heavy>  (20) 
19

>  <num_torsions>  (20) 
1

>  <pose>  (20) 
[42.53709231821738, 8.417724446849975, 13.381198535885112, -1.0814393328510064, -1.441696317247688, -2.4156760470936653, 0.01898535758284725]

>  <energy>  (20) 
-552.8838670946171

>  <inter_energy>  (20) 
-523.9544258558461

>  <intra_energy>  (20) 
0.0

>  <rmsd>  (20) 
5.66048

>  <sdf_rank>  (20) 
0

$$$$

     RDKit          3D

 34 36  0  0  0  0  0  0  0  0999 V2000
   42.9983   -2.5956   14.1481 C   0  0  0  0  0  0  0  0  0  0  0  0
   43.1202   -1.1227   14.1828 C   0  0  0  0  0  0  0  0  0  0  0  0
   42.7327   -0.1987   13.2712 C   0  0  0  0  0  0  0  0  0  0  0  0
   41.9978   -0.3888   11.9809 C   0  0  0  0  0  0  0  0  0  0  0  0
   43.0473    1.0830   13.8410 C   0  0  0  0  0  0  0  0  0  0  0  0
   42.8872    2.3966   13.4122 C   0  0  0  0  0  0  0  0  0  0  0  0
   43.3547    3.4309   14.2080 C   0  0  0  0  0  0  0  0  0  0  0  0
   43.9897    3.1093   15.4371 C   0  0  0  0  0  0  0  0  0  0  0  0
   44.1598    1.8084   15.8804 C   0  0  0  0  0  0  0  0  0  0  0  0
   43.6705    0.8254   15.0546 C   0  0  0  0  0  0  0  0  0  0  0  0
   43.7200   -0.5371   15.2875 O   0  0  0  0  0  0  0  0  0  0  0  0
   43.1457    4.8543   13.8005 C   0  0  0  0  0  0  0  0  0  0  0  0
   43.6001    5.9118   14.5964 C   0  0  0  0  0  0  0  0  0  0  0  0
   43.4187    7.2436   14.1840 C   0  0  0  0  0  0  0  0  0  0  0  0
   43.8309    8.2857   14.9527 N   0  0  0  0  0  0  0  0  0  0  0  0
   42.9196    7.5319   12.9710 N   0  0  0  0  0  0  0  0  0  0  0  0
   42.5244    6.5243   12.1697 C   0  0  0  0  0  0  0  0  0  0  0  0
   42.0340    6.8707   10.9667 N   0  0  0  0  0  0  0  0  0  0  0  0
   42.6100    5.1724   12.5531 C   0  0  0  0  0  0  0  0  0  0  0  0
   42.9661   -2.9851   15.1763 H   0  0  0  0  0  0  0  0  0  0  0  0
   42.0740   -2.8748   13.6211 H   0  0  0  0  0  0  0  0  0  0  0  0
   43.8642   -3.0229   13.6211 H   0  0  0  0  0  0  0  0  0  0  0  0
   40.9524   -0.6592   12.1907 H   0  0  0  0  0  0  0  0  0  0  0  0
   42.0256    0.5461   11.4019 H   0  0  0  0  0  0  0  0  0  0  0  0
   42.4754   -1.1929   11.4019 H   0  0  0  0  0  0  0  0  0  0  0  0
   42.3950    2.6122   12.4524 H   0  0  0  0  0  0  0  0  0  0  0  0
   44.3635    3.9311   16.0655 H   0  0  0  0  0  0  0  0  0  0  0  0
   44.6559    1.5765   16.8344 H   0  0  0  0  0  0  0  0  0  0  0  0
   44.1027    5.6995   15.5515 H   0  0  0  0  0  0  0  0  0  0  0  0
   43.6869    9.2529   14.6291 H   0  0  0  0  0  0  0  0  0  0  0  0
   44.2871    8.1084   15.8590 H   0  0  0  0  0  0  0  0  0  0  0  0
   41.7160    6.1426   10.3111 H   0  0  0  0  0  0  0  0  0  0  0  0
   41.9764    7.8640   10.7006 H   0  0  0  0  0  0  0  0  0  0  0  0
   42.2591    4.3780   11.8780 H   0  0  0  0  0  0  0  0  0  0  0  0
  1  2  1  0
  2  3  2  0
  2 11  1  0
  3  4  1  0
  3  5  1  0
  5  6  1  0
  5 10  2  0
  6  7  2  0
  7  8  1  0
  7 12  1  0
  8  9  2  0
  9 10  1  0
 10 11  1  0
 12 13  2  0
 12 19  1  0
 13 14  1  0
 14 15  1  0
 14 16  2  0
 16 17  1  0
 17 18  1  0
 17 19  2  0
  1 20  1  0
  1 21  1  0
  1 22  1  0
  4 23  1  0
  4 24  1  0
  4 25  1  0
  6 26  1  0
  8 27  1  0
  9 28  1  0
 13 29  1  0
 15 30  1  0
 15 31  1  0
 18 32  1  0
 18 33  1  0
 19 34  1  0
M  END
>  <filename_input>  (21) 
7AKL_RK5_docked.sdf

>  <pdb_id>  (21) 
7AKL_RK5

>  <pose_rank>  (21) 
20

>  <num_atoms_heavy>  (21) 
19

>  <num_torsions>  (21) 
1

>  <pose>  (21) 
[42.998336316688864, -2.595602440157851, 14.148129684655883, -4.401252354068029, -0.5680765823617038, 2.4587898762144893, -3.0474971156176367]

>  <energy>  (21) 
-548.2360761886724

>  <inter_energy>  (21) 
-541.7857411471944

>  <intra_energy>  (21) 
0.0

>  <rmsd>  (21) 
4.65708

>  <sdf_rank>  (21) 
0

$$$$

     RDKit          3D

 34 36  0  0  0  0  0  0  0  0999 V2000
   43.0135    8.5407   14.3048 C   0  0  0  0  0  0  0  0  0  0  0  0
   42.9964    7.0651   14.2153 C   0  0  0  0  0  0  0  0  0  0  0  0
   42.4525    6.2596   13.2718 C   0  0  0  0  0  0  0  0  0  0  0  0
   41.7633    6.6258   11.9943 C   0  0  0  0  0  0  0  0  0  0  0  0
   42.7784    4.9137   13.6575 C   0  0  0  0  0  0  0  0  0  0  0  0
   42.5223    3.6621   13.1072 C   0  0  0  0  0  0  0  0  0  0  0  0
   42.9519    2.5267   13.7766 C   0  0  0  0  0  0  0  0  0  0  0  0
   43.6368    2.6837   15.0110 C   0  0  0  0  0  0  0  0  0  0  0  0
   43.8998    3.9206   15.5756 C   0  0  0  0  0  0  0  0  0  0  0  0
   43.4575    5.0099   14.8647 C   0  0  0  0  0  0  0  0  0  0  0  0
   43.6081    6.3369   15.2246 O   0  0  0  0  0  0  0  0  0  0  0  0
   42.7418    1.1713   13.1815 C   0  0  0  0  0  0  0  0  0  0  0  0
   42.7929    0.0162   13.9698 C   0  0  0  0  0  0  0  0  0  0  0  0
   42.5659   -1.2480   13.3978 C   0  0  0  0  0  0  0  0  0  0  0  0
   42.6343   -2.3842   14.1402 N   0  0  0  0  0  0  0  0  0  0  0  0
   42.1772   -1.3702   12.1182 N   0  0  0  0  0  0  0  0  0  0  0  0
   42.0724   -0.2639   11.3575 C   0  0  0  0  0  0  0  0  0  0  0  0
   41.6782   -0.4450   10.0850 N   0  0  0  0  0  0  0  0  0  0  0  0
   42.3578    1.0241   11.8493 C   0  0  0  0  0  0  0  0  0  0  0  0
   43.0170    8.8439   15.3622 H   0  0  0  0  0  0  0  0  0  0  0  0
   43.9161    8.9276   13.8094 H   0  0  0  0  0  0  0  0  0  0  0  0
   42.1200    8.9484   13.8094 H   0  0  0  0  0  0  0  0  0  0  0  0
   40.8129    7.1306   12.2220 H   0  0  0  0  0  0  0  0  0  0  0  0
   42.4067    7.3010   11.4110 H   0  0  0  0  0  0  0  0  0  0  0  0
   41.5640    5.7146   11.4110 H   0  0  0  0  0  0  0  0  0  0  0  0
   41.9850    3.5742   12.1514 H   0  0  0  0  0  0  0  0  0  0  0  0
   43.9738    1.7817   15.5427 H   0  0  0  0  0  0  0  0  0  0  0  0
   44.4300    4.0245   16.5338 H   0  0  0  0  0  0  0  0  0  0  0  0
   43.0123    0.0978   15.0446 H   0  0  0  0  0  0  0  0  0  0  0  0
   42.4640   -3.2990   13.6986 H   0  0  0  0  0  0  0  0  0  0  0  0
   42.8565   -2.3306   15.1445 H   0  0  0  0  0  0  0  0  0  0  0  0
   41.5803    0.3647    9.4560 H   0  0  0  0  0  0  0  0  0  0  0  0
   41.4742   -1.3935    9.7391 H   0  0  0  0  0  0  0  0  0  0  0  0
   42.2789    1.9023   11.1915 H   0  0  0  0  0  0  0  0  0  0  0  0
  1  2  1  0
  2  3  2  0
  2 11  1  0
  3  4  1  0
  3  5  1  0
  5  6  1  0
  5 10  2  0
  6  7  2  0
  7  8  1  0
  7 12  1  0
  8  9  2  0
  9 10  1  0
 10 11  1  0
 12 13  2  0
 12 19  1  0
 13 14  1  0
 14 15  1  0
 14 16  2  0
 16 17  1  0
 17 18  1  0
 17 19  2  0
  1 20  1  0
  1 21  1  0
  1 22  1  0
  4 23  1  0
  4 24  1  0
  4 25  1  0
  6 26  1  0
  8 27  1  0
  9 28  1  0
 13 29  1  0
 15 30  1  0
 15 31  1  0
 18 32  1  0
 18 33  1  0
 19 34  1  0
M  END
>  <filename_input>  (22) 
7AKL_RK5_docked.sdf

>  <pdb_id>  (22) 
7AKL_RK5

>  <pose_rank>  (22) 
21

>  <num_atoms_heavy>  (22) 
19

>  <num_torsions>  (22) 
1

>  <pose>  (22) 
[43.0134539911127, 8.540652711456902, 14.304798536888814, 1.0627128572039237, 1.633410746234303, 2.5228006161907595, -2.7044440840734674]

>  <energy>  (22) 
-515.5736742104841

>  <inter_energy>  (22) 
-493.31593673198057

>  <intra_energy>  (22) 
0.0

>  <rmsd>  (22) 
5.61959

>  <sdf_rank>  (22) 
0

$$$$

     RDKit          3D

 34 36  0  0  0  0  0  0  0  0999 V2000
   43.4045    6.7818   15.2726 C   0  0  0  0  0  0  0  0  0  0  0  0
   43.0062    5.7700   14.2709 C   0  0  0  0  0  0  0  0  0  0  0  0
   43.0077    4.4181   14.3557 C   0  0  0  0  0  0  0  0  0  0  0  0
   43.3482    3.5408   15.5200 C   0  0  0  0  0  0  0  0  0  0  0  0
   42.4732    3.9378   13.1107 C   0  0  0  0  0  0  0  0  0  0  0  0
   42.2131    2.6723   12.5951 C   0  0  0  0  0  0  0  0  0  0  0  0
   41.7247    2.5543   11.3031 C   0  0  0  0  0  0  0  0  0  0  0  0
   41.5122    3.7371   10.5460 C   0  0  0  0  0  0  0  0  0  0  0  0
   41.7664    5.0053   11.0410 C   0  0  0  0  0  0  0  0  0  0  0  0
   42.2418    5.0615   12.3288 C   0  0  0  0  0  0  0  0  0  0  0  0
   42.5607    6.2084   13.0330 O   0  0  0  0  0  0  0  0  0  0  0  0
   41.3817    1.2113   10.7425 C   0  0  0  0  0  0  0  0  0  0  0  0
   42.0229    0.0515   11.1917 C   0  0  0  0  0  0  0  0  0  0  0  0
   41.6682   -1.2061   10.6725 C   0  0  0  0  0  0  0  0  0  0  0  0
   42.2946   -2.3421   11.0774 N   0  0  0  0  0  0  0  0  0  0  0  0
   40.6313   -1.3407    9.8299 N   0  0  0  0  0  0  0  0  0  0  0  0
   39.9688   -0.2399    9.4263 C   0  0  0  0  0  0  0  0  0  0  0  0
   38.9388   -0.4337    8.5841 N   0  0  0  0  0  0  0  0  0  0  0  0
   40.3213    1.0554    9.8508 C   0  0  0  0  0  0  0  0  0  0  0  0
   43.2459    6.3788   16.2837 H   0  0  0  0  0  0  0  0  0  0  0  0
   44.4677    7.0307   15.1396 H   0  0  0  0  0  0  0  0  0  0  0  0
   42.7962    7.6886   15.1396 H   0  0  0  0  0  0  0  0  0  0  0  0
   43.1398    4.0779   16.4571 H   0  0  0  0  0  0  0  0  0  0  0  0
   42.7401    2.6250   15.4792 H   0  0  0  0  0  0  0  0  0  0  0  0
   44.4148    3.2749   15.4792 H   0  0  0  0  0  0  0  0  0  0  0  0
   42.3929    1.7752   13.2057 H   0  0  0  0  0  0  0  0  0  0  0  0
   41.1281    3.6415    9.5197 H   0  0  0  0  0  0  0  0  0  0  0  0
   41.5981    5.9114   10.4404 H   0  0  0  0  0  0  0  0  0  0  0  0
   42.8102    0.1241   11.9566 H   0  0  0  0  0  0  0  0  0  0  0  0
   42.0170   -3.2520   10.6824 H   0  0  0  0  0  0  0  0  0  0  0  0
   43.0469   -2.2933   11.7792 H   0  0  0  0  0  0  0  0  0  0  0  0
   38.3951    0.3713    8.2417 H   0  0  0  0  0  0  0  0  0  0  0  0
   38.6936   -1.3871    8.2813 H   0  0  0  0  0  0  0  0  0  0  0  0
   39.7677    1.9323    9.4840 H   0  0  0  0  0  0  0  0  0  0  0  0
  1  2  1  0
  2  3  2  0
  2 11  1  0
  3  4  1  0
  3  5  1  0
  5  6  1  0
  5 10  2  0
  6  7  2  0
  7  8  1  0
  7 12  1  0
  8  9  2  0
  9 10  1  0
 10 11  1  0
 12 13  2  0
 12 19  1  0
 13 14  1  0
 14 15  1  0
 14 16  2  0
 16 17  1  0
 17 18  1  0
 17 19  2  0
  1 20  1  0
  1 21  1  0
  1 22  1  0
  4 23  1  0
  4 24  1  0
  4 25  1  0
  6 26  1  0
  8 27  1  0
  9 28  1  0
 13 29  1  0
 15 30  1  0
 15 31  1  0
 18 32  1  0
 18 33  1  0
 19 34  1  0
M  END
>  <filename_input>  (23) 
7AKL_RK5_docked.sdf

>  <pdb_id>  (23) 
7AKL_RK5

>  <pose_rank>  (23) 
22

>  <num_atoms_heavy>  (23) 
19

>  <num_torsions>  (23) 
1

>  <pose>  (23) 
[43.40446457405906, 6.78175529642788, 15.272552883146817, 4.919360320053972, 0.06659021875514497, -1.300862808709493, -0.37762229080950876]

>  <energy>  (23) 
-450.08482491127626

>  <inter_energy>  (23) 
-451.8855307821767

>  <intra_energy>  (23) 
0.0

>  <rmsd>  (23) 
5.33155

>  <sdf_rank>  (23) 
0

$$$$

     RDKit          3D

 34 36  0  0  0  0  0  0  0  0999 V2000
   43.1187    8.7424   14.9726 C   0  0  0  0  0  0  0  0  0  0  0  0
   42.9514    7.3008   14.6908 C   0  0  0  0  0  0  0  0  0  0  0  0
   42.3321    6.6856   13.6550 C   0  0  0  0  0  0  0  0  0  0  0  0
   41.6894    7.2844   12.4428 C   0  0  0  0  0  0  0  0  0  0  0  0
   42.5172    5.2746   13.8581 C   0  0  0  0  0  0  0  0  0  0  0  0
   42.1370    4.1386   13.1511 C   0  0  0  0  0  0  0  0  0  0  0  0
   42.4455    2.8875   13.6621 C   0  0  0  0  0  0  0  0  0  0  0  0
   43.1377    2.8107   14.9000 C   0  0  0  0  0  0  0  0  0  0  0  0
   43.5232    3.9295   15.6193 C   0  0  0  0  0  0  0  0  0  0  0  0
   43.1974    5.1420   15.0612 C   0  0  0  0  0  0  0  0  0  0  0  0
   43.4812    6.3880   15.5904 O   0  0  0  0  0  0  0  0  0  0  0  0
   42.1006    1.6503   12.8966 C   0  0  0  0  0  0  0  0  0  0  0  0
   40.8133    1.1035   12.9419 C   0  0  0  0  0  0  0  0  0  0  0  0
   40.4997   -0.0450   12.1939 C   0  0  0  0  0  0  0  0  0  0  0  0
   39.2630   -0.6061   12.2420 N   0  0  0  0  0  0  0  0  0  0  0  0
   41.3826   -0.5720   11.3299 N   0  0  0  0  0  0  0  0  0  0  0  0
   42.6104   -0.0270   11.2348 C   0  0  0  0  0  0  0  0  0  0  0  0
   43.4525   -0.5938   10.3533 N   0  0  0  0  0  0  0  0  0  0  0  0
   43.0118    1.0775   12.0102 C   0  0  0  0  0  0  0  0  0  0  0  0
   43.1374    8.9036   16.0605 H   0  0  0  0  0  0  0  0  0  0  0  0
   44.0637    9.0946   14.5334 H   0  0  0  0  0  0  0  0  0  0  0  0
   42.2794    9.3016   14.5334 H   0  0  0  0  0  0  0  0  0  0  0  0
   40.9175    8.0035   12.7545 H   0  0  0  0  0  0  0  0  0  0  0  0
   42.4514    7.8020   11.8416 H   0  0  0  0  0  0  0  0  0  0  0  0
   41.2269    6.4877   11.8416 H   0  0  0  0  0  0  0  0  0  0  0  0
   41.5975    4.2321   12.1970 H   0  0  0  0  0  0  0  0  0  0  0  0
   43.3784    1.8171   15.3059 H   0  0  0  0  0  0  0  0  0  0  0  0
   44.0571    3.8523   16.5779 H   0  0  0  0  0  0  0  0  0  0  0  0
   40.0412    1.5755   13.5672 H   0  0  0  0  0  0  0  0  0  0  0  0
   39.0572   -1.4476   11.6849 H   0  0  0  0  0  0  0  0  0  0  0  0
   38.5314   -0.1898   12.8356 H   0  0  0  0  0  0  0  0  0  0  0  0
   44.4051   -0.2197   10.2373 H   0  0  0  0  0  0  0  0  0  0  0  0
   43.1450   -1.4022    9.7939 H   0  0  0  0  0  0  0  0  0  0  0  0
   44.0301    1.4829   11.9179 H   0  0  0  0  0  0  0  0  0  0  0  0
  1  2  1  0
  2  3  2  0
  2 11  1  0
  3  4  1  0
  3  5  1  0
  5  6  1  0
  5 10  2  0
  6  7  2  0
  7  8  1  0
  7 12  1  0
  8  9  2  0
  9 10  1  0
 10 11  1  0
 12 13  2  0
 12 19  1  0
 13 14  1  0
 14 15  1  0
 14 16  2  0
 16 17  1  0
 17 18  1  0
 17 19  2  0
  1 20  1  0
  1 21  1  0
  1 22  1  0
  4 23  1  0
  4 24  1  0
  4 25  1  0
  6 26  1  0
  8 27  1  0
  9 28  1  0
 13 29  1  0
 15 30  1  0
 15 31  1  0
 18 32  1  0
 18 33  1  0
 19 34  1  0
M  END
>  <filename_input>  (24) 
7AKL_RK5_docked.sdf

>  <pdb_id>  (24) 
7AKL_RK5

>  <pose_rank>  (24) 
23

>  <num_atoms_heavy>  (24) 
19

>  <num_torsions>  (24) 
1

>  <pose>  (24) 
[43.118681563400095, 8.742356034382098, 14.972582048554383, -1.1204235367189557, -1.3821336537116793, -2.576848382153234, -1.3263791456398628]

>  <energy>  (24) 
-477.7670829743925

>  <inter_energy>  (24) 
-478.43218498115056

>  <intra_energy>  (24) 
0.0

>  <rmsd>  (24) 
5.14511

>  <sdf_rank>  (24) 
0

$$$$

     RDKit          3D

 34 36  0  0  0  0  0  0  0  0999 V2000
   42.5951   -1.9459   13.4361 C   0  0  0  0  0  0  0  0  0  0  0  0
   42.6970   -0.4740   13.5296 C   0  0  0  0  0  0  0  0  0  0  0  0
   42.1984    0.4836   12.7115 C   0  0  0  0  0  0  0  0  0  0  0  0
   41.3308    0.3392   11.5001 C   0  0  0  0  0  0  0  0  0  0  0  0
   42.5530    1.7433   13.3063 C   0  0  0  0  0  0  0  0  0  0  0  0
   42.3268    3.0720   12.9622 C   0  0  0  0  0  0  0  0  0  0  0  0
   42.8618    4.0772   13.7527 C   0  0  0  0  0  0  0  0  0  0  0  0
   43.6315    3.7115   14.8890 C   0  0  0  0  0  0  0  0  0  0  0  0
   43.8690    2.3949   15.2471 C   0  0  0  0  0  0  0  0  0  0  0  0
   43.3083    1.4419   14.4316 C   0  0  0  0  0  0  0  0  0  0  0  0
   43.4040    0.0712   14.5907 O   0  0  0  0  0  0  0  0  0  0  0  0
   42.5876    5.5135   13.4405 C   0  0  0  0  0  0  0  0  0  0  0  0
   42.1162    5.9061   12.1827 C   0  0  0  0  0  0  0  0  0  0  0  0
   41.8379    7.2582   11.9157 C   0  0  0  0  0  0  0  0  0  0  0  0
   41.4023    7.6641   10.6942 N   0  0  0  0  0  0  0  0  0  0  0  0
   41.8994    8.1835   12.8871 N   0  0  0  0  0  0  0  0  0  0  0  0
   42.3018    7.8144   14.1181 C   0  0  0  0  0  0  0  0  0  0  0  0
   42.3432    8.7811   15.0515 N   0  0  0  0  0  0  0  0  0  0  0  0
   42.6662    6.4911   14.4316 C   0  0  0  0  0  0  0  0  0  0  0  0
   42.5653   -2.3764   14.4479 H   0  0  0  0  0  0  0  0  0  0  0  0
   41.6761   -2.2162   12.8954 H   0  0  0  0  0  0  0  0  0  0  0  0
   43.4681   -2.3403   12.8954 H   0  0  0  0  0  0  0  0  0  0  0  0
   40.2905    0.1660   11.8127 H   0  0  0  0  0  0  0  0  0  0  0  0
   41.3848    1.2586   10.8987 H   0  0  0  0  0  0  0  0  0  0  0  0
   41.6797   -0.5133   10.8987 H   0  0  0  0  0  0  0  0  0  0  0  0
   41.7300    3.3222   12.0727 H   0  0  0  0  0  0  0  0  0  0  0  0
   44.0584    4.5104   15.5131 H   0  0  0  0  0  0  0  0  0  0  0  0
   44.4693    2.1288   16.1296 H   0  0  0  0  0  0  0  0  0  0  0  0
   41.9623    5.1515   11.3973 H   0  0  0  0  0  0  0  0  0  0  0  0
   41.2050    8.6604   10.5227 H   0  0  0  0  0  0  0  0  0  0  0  0
   41.2693    6.9755    9.9398 H   0  0  0  0  0  0  0  0  0  0  0  0
   42.6433    8.5578   16.0112 H   0  0  0  0  0  0  0  0  0  0  0  0
   42.0749    9.7450   14.8070 H   0  0  0  0  0  0  0  0  0  0  0  0
   43.0082    6.2319   15.4444 H   0  0  0  0  0  0  0  0  0  0  0  0
  1  2  1  0
  2  3  2  0
  2 11  1  0
  3  4  1  0
  3  5  1  0
  5  6  1  0
  5 10  2  0
  6  7  2  0
  7  8  1  0
  7 12  1  0
  8  9  2  0
  9 10  1  0
 10 11  1  0
 12 13  2  0
 12 19  1  0
 13 14  1  0
 14 15  1  0
 14 16  2  0
 16 17  1  0
 17 18  1  0
 17 19  2  0
  1 20  1  0
  1 21  1  0
  1 22  1  0
  4 23  1  0
  4 24  1  0
  4 25  1  0
  6 26  1  0
  8 27  1  0
  9 28  1  0
 13 29  1  0
 15 30  1  0
 15 31  1  0
 18 32  1  0
 18 33  1  0
 19 34  1  0
M  END
>  <filename_input>  (25) 
7AKL_RK5_docked.sdf

>  <pdb_id>  (25) 
7AKL_RK5

>  <pose_rank>  (25) 
24

>  <num_atoms_heavy>  (25) 
19

>  <num_torsions>  (25) 
1

>  <pose>  (25) 
[42.59511629752995, -1.9459124428641443, 13.436124926971083, -4.238363876747185, -1.0175986006265496, 2.498291313928408, -0.20474307907090128]

>  <energy>  (25) 
-524.2216206056709

>  <inter_energy>  (25) 
-520.036798259028

>  <intra_energy>  (25) 
0.0

>  <rmsd>  (25) 
4.45139

>  <sdf_rank>  (25) 
0

$$$$

     RDKit          3D

 34 36  0  0  0  0  0  0  0  0999 V2000
   45.0780    3.5740   18.4020 C   0  0  0  0  0  0  0  0  0  0  0  0
   44.5920    4.1960   17.1520 C   0  0  0  0  0  0  0  0  0  0  0  0
   44.2490    3.6220   15.9740 C   0  0  0  0  0  0  0  0  0  0  0  0
   44.1920    2.1720   15.6060 C   0  0  0  0  0  0  0  0  0  0  0  0
   43.7980    4.6900   15.1240 C   0  0  0  0  0  0  0  0  0  0  0  0
   43.3120    4.7490   13.8220 C   0  0  0  0  0  0  0  0  0  0  0  0
   43.0010    5.9820   13.2700 C   0  0  0  0  0  0  0  0  0  0  0  0
   43.1970    7.1480   14.0570 C   0  0  0  0  0  0  0  0  0  0  0  0
   43.6810    7.1100   15.3540 C   0  0  0  0  0  0  0  0  0  0  0  0
   43.9650    5.8610   15.8510 C   0  0  0  0  0  0  0  0  0  0  0  0
   44.4510    5.5750   17.1140 O   0  0  0  0  0  0  0  0  0  0  0  0
   42.4230    6.0720   11.8940 C   0  0  0  0  0  0  0  0  0  0  0  0
   42.2960    4.9380   11.0840 C   0  0  0  0  0  0  0  0  0  0  0  0
   41.7250    5.0370    9.8030 C   0  0  0  0  0  0  0  0  0  0  0  0
   41.6140    3.9530    8.9910 N   0  0  0  0  0  0  0  0  0  0  0  0
   41.1800    6.1870    9.3740 N   0  0  0  0  0  0  0  0  0  0  0  0
   41.2470    7.2770   10.1620 C   0  0  0  0  0  0  0  0  0  0  0  0
   40.6840    8.4000    9.6830 N   0  0  0  0  0  0  0  0  0  0  0  0
   41.8710    7.2630   11.4240 C   0  0  0  0  0  0  0  0  0  0  0  0
   44.6586    4.1107   19.2658 H   0  0  0  0  0  0  0  0  0  0  0  0
   44.7608    2.5213   18.4352 H   0  0  0  0  0  0  0  0  0  0  0  0
   46.1762    3.6272   18.4352 H   0  0  0  0  0  0  0  0  0  0  0  0
   44.1680    1.5621   16.5211 H   0  0  0  0  0  0  0  0  0  0  0  0
   43.2856    1.9795   15.0132 H   0  0  0  0  0  0  0  0  0  0  0  0
   45.0805    1.9089   15.0132 H   0  0  0  0  0  0  0  0  0  0  0  0
   43.1760    3.8275   13.2369 H   0  0  0  0  0  0  0  0  0  0  0  0
   42.9532    8.1259   13.6162 H   0  0  0  0  0  0  0  0  0  0  0  0
   43.8289    8.0231   15.9493 H   0  0  0  0  0  0  0  0  0  0  0  0
   42.6454    3.9621   11.4521 H   0  0  0  0  0  0  0  0  0  0  0  0
   41.1919    4.0506    8.0565 H   0  0  0  0  0  0  0  0  0  0  0  0
   41.9519    3.0338    9.3100 H   0  0  0  0  0  0  0  0  0  0  0  0
   40.7045    9.2651   10.2416 H   0  0  0  0  0  0  0  0  0  0  0  0
   40.2322    8.3952    8.7574 H   0  0  0  0  0  0  0  0  0  0  0  0
   41.9223    8.1790   12.0308 H   0  0  0  0  0  0  0  0  0  0  0  0
  1  2  1  0
  2  3  2  0
  2 11  1  0
  3  4  1  0
  3  5  1  0
  5  6  1  0
  5 10  2  0
  6  7  2  0
  7  8  1  0
  7 12  1  0
  8  9  2  0
  9 10  1  0
 10 11  1  0
 12 13  2  0
 12 19  1  0
 13 14  1  0
 14 15  1  0
 14 16  2  0
 16 17  1  0
 17 18  1  0
 17 19  2  0
  1 20  1  0
  1 21  1  0
  1 22  1  0
  4 23  1  0
  4 24  1  0
  4 25  1  0
  6 26  1  0
  8 27  1  0
  9 28  1  0
 13 29  1  0
 15 30  1  0
 15 31  1  0
 18 32  1  0
 18 33  1  0
 19 34  1  0
M  END
>  <filename_input>  (26) 
7AKL_RK5_docked.sdf

>  <pdb_id>  (26) 
7AKL_RK5

>  <pose_rank>  (26) 
25

>  <num_atoms_heavy>  (26) 
19

>  <num_torsions>  (26) 
1

>  <pose>  (26) 
[45.078, 3.574, 18.402, 1e-06, 1e-06, 1e-06, 0.0]

>  <energy>  (26) 
-641.1240540584002

>  <inter_energy>  (26) 
-642.9112344342569

>  <intra_energy>  (26) 
0.0

>  <rmsd>  (26) 
0.0

>  <sdf_rank>  (26) 
0

$$$$
