
     RDKit          3D

 21 21  0  0  0  0  0  0  0  0999 V2000
    2.9965  -19.4801   23.7187 C   0  0  0  0  0  0  0  0  0  0  0  0
    4.0117  -19.3410   24.5441 C   0  0  0  0  0  0  0  0  0  0  0  0
    4.4686  -18.3309   26.6964 C   0  0  0  0  0  0  0  0  0  0  0  0
    4.3517  -16.9696   26.4696 C   0  0  0  0  0  0  0  0  0  0  0  0
    5.0406  -16.0766   27.2786 C   0  0  0  0  0  0  0  0  0  0  0  0
    5.8316  -16.5392   28.3146 C   0  0  0  0  0  0  0  0  0  0  0  0
    5.9403  -17.9042   28.5434 C   0  0  0  0  0  0  0  0  0  0  0  0
    6.8043  -18.4433   29.6833 C   0  0  0  0  0  0  0  0  0  0  0  0
    5.2544  -18.7974   27.7373 C   0  0  0  0  0  0  0  0  0  0  0  0
    5.4273  -19.3390   23.9801 C   0  0  0  0  0  0  0  0  0  0  0  0
    3.7694  -19.2559   25.9169 O   0  0  0  0  0  0  0  0  0  0  0  0
    7.7111  -17.7325   30.2011 O   0  0  0  0  0  0  0  0  0  0  0  0
    6.6058  -19.6092   30.1079 O   0  0  0  0  0  0  0  0  0  0  0  0
    5.5847  -19.2982   22.7389 O   0  0  0  0  0  0  0  0  0  0  0  0
    6.4255  -19.4131   24.7366 O   0  0  0  0  0  0  0  0  0  0  0  0
    1.9677  -19.4839   24.1081 H   0  0  0  0  0  0  0  0  0  0  0  0
    3.1765  -19.5927   22.6394 H   0  0  0  0  0  0  0  0  0  0  0  0
    3.7161  -16.5980   25.6523 H   0  0  0  0  0  0  0  0  0  0  0  0
    4.9570  -14.9952   27.0949 H   0  0  0  0  0  0  0  0  0  0  0  0
    6.3730  -15.8277   28.9554 H   0  0  0  0  0  0  0  0  0  0  0  0
    5.3338  -19.8785   27.9239 H   0  0  0  0  0  0  0  0  0  0  0  0
  1  2  2  0
  2 10  1  0
  2 11  1  0
  3  4  2  0
  3  9  1  0
  3 11  1  0
  4  5  1  0
  5  6  2  0
  6  7  1  0
  7  8  1  0
  7  9  2  0
  8 12  1  0
  8 13  2  0
 10 14  2  0
 10 15  1  0
  1 16  1  0
  1 17  1  0
  4 18  1  0
  5 19  1  0
  6 20  1  0
  9 21  1  0
M  CHG  2  12  -1  15  -1
M  END
>  <filename_input>  (1) 
7AN5_RDH_docked.sdf

>  <pdb_id>  (1) 
7AN5_RDH

>  <pose_rank>  (1) 
0

>  <num_atoms_heavy>  (1) 
15

>  <num_torsions>  (1) 
4

>  <pose>  (1) 
[4.468606661146182, -18.330864395467493, 26.696386946657842, 1.88551147838549, 0.21554454249960703, -6.036298245900035, -0.4634598365403042, 0.24475966460596116, -6.435013237707663, 0.19136664832280398]

>  <energy>  (1) 
-661.4839209331645

>  <inter_energy>  (1) 
-673.9835090213244

>  <intra_energy>  (1) 
16.044013734330214

>  <rmsd>  (1) 
0.474509

>  <sdf_rank>  (1) 
0

$$$$

     RDKit          3D

 21 21  0  0  0  0  0  0  0  0999 V2000
    6.6576  -16.7643   28.5731 C   0  0  0  0  0  0  0  0  0  0  0  0
    6.7779  -18.0567   28.7887 C   0  0  0  0  0  0  0  0  0  0  0  0
    5.3494  -18.7781   26.9720 C   0  0  0  0  0  0  0  0  0  0  0  0
    4.2083  -18.1905   27.4922 C   0  0  0  0  0  0  0  0  0  0  0  0
    3.0969  -18.0106   26.6804 C   0  0  0  0  0  0  0  0  0  0  0  0
    3.1288  -18.4040   25.3548 C   0  0  0  0  0  0  0  0  0  0  0  0
    4.2771  -18.9859   24.8351 C   0  0  0  0  0  0  0  0  0  0  0  0
    4.3416  -19.4268   23.3729 C   0  0  0  0  0  0  0  0  0  0  0  0
    5.3872  -19.1670   25.6430 C   0  0  0  0  0  0  0  0  0  0  0  0
    7.2836  -18.5355   30.1441 C   0  0  0  0  0  0  0  0  0  0  0  0
    6.4939  -18.9513   27.7544 O   0  0  0  0  0  0  0  0  0  0  0  0
    5.4268  -19.3761   22.7281 O   0  0  0  0  0  0  0  0  0  0  0  0
    3.2994  -19.8451   22.8094 O   0  0  0  0  0  0  0  0  0  0  0  0
    7.8015  -17.7056   30.9250 O   0  0  0  0  0  0  0  0  0  0  0  0
    7.2198  -19.7460   30.4679 O   0  0  0  0  0  0  0  0  0  0  0  0
    6.2941  -16.4005   27.6007 H   0  0  0  0  0  0  0  0  0  0  0  0
    6.9205  -16.0477   29.3651 H   0  0  0  0  0  0  0  0  0  0  0  0
    4.1828  -17.8680   28.5436 H   0  0  0  0  0  0  0  0  0  0  0  0
    2.1860  -17.5526   27.0934 H   0  0  0  0  0  0  0  0  0  0  0  0
    2.2468  -18.2562   24.7142 H   0  0  0  0  0  0  0  0  0  0  0  0
    6.2999  -19.6203   25.2290 H   0  0  0  0  0  0  0  0  0  0  0  0
  1  2  2  0
  2 10  1  0
  2 11  1  0
  3  4  2  0
  3  9  1  0
  3 11  1  0
  4  5  1  0
  5  6  2  0
  6  7  1  0
  7  8  1  0
  7  9  2  0
  8 12  1  0
  8 13  2  0
 10 14  2  0
 10 15  1  0
  1 16  1  0
  1 17  1  0
  4 18  1  0
  5 19  1  0
  6 20  1  0
  9 21  1  0
M  CHG  2  12  -1  15  -1
M  END
>  <filename_input>  (2) 
7AN5_RDH_docked.sdf

>  <pdb_id>  (2) 
7AN5_RDH

>  <pose_rank>  (2) 
1

>  <num_atoms_heavy>  (2) 
15

>  <num_torsions>  (2) 
4

>  <pose>  (2) 
[5.349440151739373, -18.778136852842238, 26.971955088648492, 1.7556375322613949, -2.82308891339741, -0.6009841163361135, 2.455401256682274, -13.927356856211507, -4.81098293277752, -0.1930414619744516]

>  <energy>  (2) 
-690.7972786789863

>  <inter_energy>  (2) 
-693.3562460213915

>  <intra_energy>  (2) 
17.631443758303128

>  <rmsd>  (2) 
5.61714

>  <sdf_rank>  (2) 
0

$$$$

     RDKit          3D

 21 21  0  0  0  0  0  0  0  0999 V2000
    6.6079  -16.7404   29.8215 C   0  0  0  0  0  0  0  0  0  0  0  0
    6.0622  -17.7658   29.2036 C   0  0  0  0  0  0  0  0  0  0  0  0
    5.2824  -17.8920   26.9150 C   0  0  0  0  0  0  0  0  0  0  0  0
    6.5268  -17.7428   26.3257 C   0  0  0  0  0  0  0  0  0  0  0  0
    6.7122  -18.1275   25.0050 C   0  0  0  0  0  0  0  0  0  0  0  0
    5.6651  -18.6684   24.2812 C   0  0  0  0  0  0  0  0  0  0  0  0
    4.4212  -18.8232   24.8777 C   0  0  0  0  0  0  0  0  0  0  0  0
    3.2472  -19.4215   24.1028 C   0  0  0  0  0  0  0  0  0  0  0  0
    4.2334  -18.4398   26.1952 C   0  0  0  0  0  0  0  0  0  0  0  0
    6.5765  -19.1684   29.5041 C   0  0  0  0  0  0  0  0  0  0  0  0
    5.0679  -17.5383   28.2495 O   0  0  0  0  0  0  0  0  0  0  0  0
    3.1701  -19.3002   22.8478 O   0  0  0  0  0  0  0  0  0  0  0  0
    2.3500  -20.0418   24.7266 O   0  0  0  0  0  0  0  0  0  0  0  0
    6.5917  -20.0178   28.5848 O   0  0  0  0  0  0  0  0  0  0  0  0
    6.9472  -19.4881   30.6593 O   0  0  0  0  0  0  0  0  0  0  0  0
    6.2495  -15.7207   29.6171 H   0  0  0  0  0  0  0  0  0  0  0  0
    7.4226  -16.9027   30.5426 H   0  0  0  0  0  0  0  0  0  0  0  0
    7.3641  -17.3215   26.9014 H   0  0  0  0  0  0  0  0  0  0  0  0
    7.6971  -18.0014   24.5315 H   0  0  0  0  0  0  0  0  0  0  0  0
    5.8176  -18.9751   23.2358 H   0  0  0  0  0  0  0  0  0  0  0  0
    3.2500  -18.5703   26.6705 H   0  0  0  0  0  0  0  0  0  0  0  0
  1  2  2  0
  2 10  1  0
  2 11  1  0
  3  4  2  0
  3  9  1  0
  3 11  1  0
  4  5  1  0
  5  6  2  0
  6  7  1  0
  7  8  1  0
  7  9  2  0
  8 12  1  0
  8 13  2  0
 10 14  2  0
 10 15  1  0
  1 16  1  0
  1 17  1  0
  4 18  1  0
  5 19  1  0
  6 20  1  0
  9 21  1  0
M  CHG  2  12  -1  15  -1
M  END
>  <filename_input>  (3) 
7AN5_RDH_docked.sdf

>  <pdb_id>  (3) 
7AN5_RDH

>  <pose_rank>  (3) 
2

>  <num_atoms_heavy>  (3) 
15

>  <num_torsions>  (3) 
4

>  <pose>  (3) 
[5.28239636519787, -17.89198044295797, 26.91500395956425, 1.3167402039895482, 1.989212422390584, -1.5243527055051713, -0.6181921067286668, -14.052228586219304, -1.9931107509210826, -2.5128725219713304]

>  <energy>  (3) 
-589.2606499809

>  <inter_energy>  (3) 
-614.6314285064684

>  <intra_energy>  (3) 
19.101045038002354

>  <rmsd>  (3) 
5.44149

>  <sdf_rank>  (3) 
0

$$$$

     RDKit          3D

 21 21  0  0  0  0  0  0  0  0999 V2000
    3.4400  -20.0105   24.8380 C   0  0  0  0  0  0  0  0  0  0  0  0
    4.6412  -19.8493   25.3504 C   0  0  0  0  0  0  0  0  0  0  0  0
    5.3958  -19.2024   27.5580 C   0  0  0  0  0  0  0  0  0  0  0  0
    6.2693  -19.5614   28.5711 C   0  0  0  0  0  0  0  0  0  0  0  0
    6.8053  -18.5818   29.3955 C   0  0  0  0  0  0  0  0  0  0  0  0
    6.4806  -17.2513   29.2021 C   0  0  0  0  0  0  0  0  0  0  0  0
    5.6105  -16.8947   28.1808 C   0  0  0  0  0  0  0  0  0  0  0  0
    5.2370  -15.4318   27.9419 C   0  0  0  0  0  0  0  0  0  0  0  0
    5.0739  -17.8702   27.3572 C   0  0  0  0  0  0  0  0  0  0  0  0
    5.7749  -19.3861   24.4437 C   0  0  0  0  0  0  0  0  0  0  0  0
    4.8579  -20.1601   26.6946 O   0  0  0  0  0  0  0  0  0  0  0  0
    4.8267  -15.0441   26.8118 O   0  0  0  0  0  0  0  0  0  0  0  0
    5.3405  -14.6080   28.8850 O   0  0  0  0  0  0  0  0  0  0  0  0
    5.7798  -19.7499   23.2460 O   0  0  0  0  0  0  0  0  0  0  0  0
    6.7125  -18.6810   24.8886 O   0  0  0  0  0  0  0  0  0  0  0  0
    2.6096  -20.3443   25.4775 H   0  0  0  0  0  0  0  0  0  0  0  0
    3.2663  -19.8115   23.7702 H   0  0  0  0  0  0  0  0  0  0  0  0
    6.5369  -20.6177   28.7217 H   0  0  0  0  0  0  0  0  0  0  0  0
    7.4920  -18.8650   30.2068 H   0  0  0  0  0  0  0  0  0  0  0  0
    6.9105  -16.4780   29.8556 H   0  0  0  0  0  0  0  0  0  0  0  0
    4.3911  -17.5868   26.5426 H   0  0  0  0  0  0  0  0  0  0  0  0
  1  2  2  0
  2 10  1  0
  2 11  1  0
  3  4  2  0
  3  9  1  0
  3 11  1  0
  4  5  1  0
  5  6  2  0
  6  7  1  0
  7  8  1  0
  7  9  2  0
  8 12  1  0
  8 13  2  0
 10 14  2  0
 10 15  1  0
  1 16  1  0
  1 17  1  0
  4 18  1  0
  5 19  1  0
  6 20  1  0
  9 21  1  0
M  CHG  2  12  -1  15  -1
M  END
>  <filename_input>  (4) 
7AN5_RDH_docked.sdf

>  <pdb_id>  (4) 
7AN5_RDH

>  <pose_rank>  (4) 
3

>  <num_atoms_heavy>  (4) 
15

>  <num_torsions>  (4) 
4

>  <pose>  (4) 
[5.3958478943237544, -19.20238349521084, 27.557999309659884, -1.3031748035148325, -2.105383641356661, -1.7783699285322994, -3.66539770384239, 2.927553682879657, 0.0784081132422763, -0.5481940544585763]

>  <energy>  (4) 
-487.7488008059713

>  <inter_energy>  (4) 
-500.97244837052443

>  <intra_energy>  (4) 
24.635736509726687

>  <rmsd>  (4) 
2.70154

>  <sdf_rank>  (4) 
0

$$$$

     RDKit          3D

 21 21  0  0  0  0  0  0  0  0999 V2000
    6.5819  -18.6308   29.8672 C   0  0  0  0  0  0  0  0  0  0  0  0
    5.7134  -18.2663   28.9484 C   0  0  0  0  0  0  0  0  0  0  0  0
    5.1190  -19.1481   26.7734 C   0  0  0  0  0  0  0  0  0  0  0  0
    6.3118  -18.9912   26.0872 C   0  0  0  0  0  0  0  0  0  0  0  0
    6.3031  -18.9239   24.7008 C   0  0  0  0  0  0  0  0  0  0  0  0
    5.1128  -19.0244   24.0037 C   0  0  0  0  0  0  0  0  0  0  0  0
    3.9201  -19.1890   24.6948 C   0  0  0  0  0  0  0  0  0  0  0  0
    2.5904  -19.3066   23.9502 C   0  0  0  0  0  0  0  0  0  0  0  0
    3.9258  -19.2560   26.0781 C   0  0  0  0  0  0  0  0  0  0  0  0
    5.3633  -16.7900   28.8071 C   0  0  0  0  0  0  0  0  0  0  0  0
    5.0945  -19.2446   28.1670 O   0  0  0  0  0  0  0  0  0  0  0  0
    1.6108  -19.9156   24.4654 O   0  0  0  0  0  0  0  0  0  0  0  0
    2.4746  -18.7886   22.8112 O   0  0  0  0  0  0  0  0  0  0  0  0
    6.0797  -16.0645   28.0811 O   0  0  0  0  0  0  0  0  0  0  0  0
    4.3963  -16.2915   29.4321 O   0  0  0  0  0  0  0  0  0  0  0  0
    6.8467  -19.6921   29.9835 H   0  0  0  0  0  0  0  0  0  0  0  0
    7.0432  -17.8742   30.5189 H   0  0  0  0  0  0  0  0  0  0  0  0
    7.2612  -18.9203   26.6381 H   0  0  0  0  0  0  0  0  0  0  0  0
    7.2480  -18.7900   24.1536 H   0  0  0  0  0  0  0  0  0  0  0  0
    5.1111  -18.9741   22.9049 H   0  0  0  0  0  0  0  0  0  0  0  0
    2.9818  -19.3949   26.6253 H   0  0  0  0  0  0  0  0  0  0  0  0
  1  2  2  0
  2 10  1  0
  2 11  1  0
  3  4  2  0
  3  9  1  0
  3 11  1  0
  4  5  1  0
  5  6  2  0
  6  7  1  0
  7  8  1  0
  7  9  2  0
  8 12  1  0
  8 13  2  0
 10 14  2  0
 10 15  1  0
  1 16  1  0
  1 17  1  0
  4 18  1  0
  5 19  1  0
  6 20  1  0
  9 21  1  0
M  CHG  2  12  -1  15  -1
M  END
>  <filename_input>  (5) 
7AN5_RDH_docked.sdf

>  <pdb_id>  (5) 
7AN5_RDH

>  <pose_rank>  (5) 
4

>  <num_atoms_heavy>  (5) 
15

>  <num_torsions>  (5) 
4

>  <pose>  (5) 
[5.1189939475992885, -19.14805484743859, 26.773387167014448, -1.5694147279343187, -2.3062860552573285, 1.3854988102574277, -3.7117183238117724, 0.08905016956595768, 0.03253220882030802, 1.5439982631016207]

>  <energy>  (5) 
-504.7519799355926

>  <inter_energy>  (5) 
-499.1798802686076

>  <intra_energy>  (5) 
1.3939745445367906

>  <rmsd>  (5) 
5.59335

>  <sdf_rank>  (5) 
0

$$$$

     RDKit          3D

 21 21  0  0  0  0  0  0  0  0999 V2000
    3.9832  -19.1444   22.9244 C   0  0  0  0  0  0  0  0  0  0  0  0
    4.1172  -19.2967   24.2244 C   0  0  0  0  0  0  0  0  0  0  0  0
    5.3138  -18.1912   26.0154 C   0  0  0  0  0  0  0  0  0  0  0  0
    4.8362  -16.8914   26.0387 C   0  0  0  0  0  0  0  0  0  0  0  0
    4.8196  -16.1868   27.2346 C   0  0  0  0  0  0  0  0  0  0  0  0
    5.2658  -16.7802   28.4015 C   0  0  0  0  0  0  0  0  0  0  0  0
    5.7369  -18.0859   28.3753 C   0  0  0  0  0  0  0  0  0  0  0  0
    6.2327  -18.7679   29.6503 C   0  0  0  0  0  0  0  0  0  0  0  0
    5.7550  -18.7909   27.1835 C   0  0  0  0  0  0  0  0  0  0  0  0
    2.9306  -19.8040   25.0349 C   0  0  0  0  0  0  0  0  0  0  0  0
    5.3212  -18.9371   24.8340 O   0  0  0  0  0  0  0  0  0  0  0  0
    7.3197  -18.4190   30.1911 O   0  0  0  0  0  0  0  0  0  0  0  0
    5.5463  -19.6866   30.1639 O   0  0  0  0  0  0  0  0  0  0  0  0
    2.8111  -21.0349   25.2282 O   0  0  0  0  0  0  0  0  0  0  0  0
    2.0621  -19.0129   25.4753 O   0  0  0  0  0  0  0  0  0  0  0  0
    4.8291  -18.7793   22.3234 H   0  0  0  0  0  0  0  0  0  0  0  0
    3.0254  -19.3821   22.4386 H   0  0  0  0  0  0  0  0  0  0  0  0
    4.4720  -16.4197   25.1142 H   0  0  0  0  0  0  0  0  0  0  0  0
    4.4496  -15.1511   27.2543 H   0  0  0  0  0  0  0  0  0  0  0  0
    5.2476  -16.2193   29.3475 H   0  0  0  0  0  0  0  0  0  0  0  0
    6.1202  -19.8283   27.1643 H   0  0  0  0  0  0  0  0  0  0  0  0
  1  2  2  0
  2 10  1  0
  2 11  1  0
  3  4  2  0
  3  9  1  0
  3 11  1  0
  4  5  1  0
  5  6  2  0
  6  7  1  0
  7  8  1  0
  7  9  2  0
  8 12  1  0
  8 13  2  0
 10 14  2  0
 10 15  1  0
  1 16  1  0
  1 17  1  0
  4 18  1  0
  5 19  1  0
  6 20  1  0
  9 21  1  0
M  CHG  2  12  -1  15  -1
M  END
>  <filename_input>  (6) 
7AN5_RDH_docked.sdf

>  <pdb_id>  (6) 
7AN5_RDH

>  <pose_rank>  (6) 
5

>  <num_atoms_heavy>  (6) 
15

>  <num_torsions>  (6) 
4

>  <pose>  (6) 
[5.313776592488576, -18.19121569802672, 26.01540192456949, 0.30354148033879236, -0.43585122168386686, 0.2586602383697738, -1.3586622340321646, -8.264910119944522, -7.964422953180476, -4.648988417201764]

>  <energy>  (6) 
-557.718943521637

>  <inter_energy>  (6) 
-559.6463749918231

>  <intra_energy>  (6) 
2.6559343842443077

>  <rmsd>  (6) 
1.9624

>  <sdf_rank>  (6) 
0

$$$$

     RDKit          3D

 21 21  0  0  0  0  0  0  0  0999 V2000
    5.9405  -16.7050   28.8367 C   0  0  0  0  0  0  0  0  0  0  0  0
    6.4777  -17.9060   28.8549 C   0  0  0  0  0  0  0  0  0  0  0  0
    5.5132  -18.4162   26.6936 C   0  0  0  0  0  0  0  0  0  0  0  0
    5.0681  -19.4146   25.8431 C   0  0  0  0  0  0  0  0  0  0  0  0
    4.1192  -19.1192   24.8741 C   0  0  0  0  0  0  0  0  0  0  0  0
    3.6095  -17.8383   24.7627 C   0  0  0  0  0  0  0  0  0  0  0  0
    4.0528  -16.8420   25.6219 C   0  0  0  0  0  0  0  0  0  0  0  0
    3.5043  -15.4186   25.5239 C   0  0  0  0  0  0  0  0  0  0  0  0
    4.9999  -17.1340   26.5893 C   0  0  0  0  0  0  0  0  0  0  0  0
    7.1704  -18.3862   30.1243 C   0  0  0  0  0  0  0  0  0  0  0  0
    6.4487  -18.6850   27.6960 O   0  0  0  0  0  0  0  0  0  0  0  0
    3.5119  -14.7955   24.4251 O   0  0  0  0  0  0  0  0  0  0  0  0
    3.0401  -14.8655   26.5523 O   0  0  0  0  0  0  0  0  0  0  0  0
    7.1223  -19.6022   30.4175 O   0  0  0  0  0  0  0  0  0  0  0  0
    7.7518  -17.5793   30.8892 O   0  0  0  0  0  0  0  0  0  0  0  0
    5.4364  -16.3416   27.9290 H   0  0  0  0  0  0  0  0  0  0  0  0
    5.9956  -16.0643   29.7291 H   0  0  0  0  0  0  0  0  0  0  0  0
    5.4645  -20.4365   25.9351 H   0  0  0  0  0  0  0  0  0  0  0  0
    3.7707  -19.9080   24.1912 H   0  0  0  0  0  0  0  0  0  0  0  0
    2.8551  -17.6096   23.9955 H   0  0  0  0  0  0  0  0  0  0  0  0
    5.3448  -16.3466   27.2757 H   0  0  0  0  0  0  0  0  0  0  0  0
  1  2  2  0
  2 10  1  0
  2 11  1  0
  3  4  2  0
  3  9  1  0
  3 11  1  0
  4  5  1  0
  5  6  2  0
  6  7  1  0
  7  8  1  0
  7  9  2  0
  8 12  1  0
  8 13  2  0
 10 14  2  0
 10 15  1  0
  1 16  1  0
  1 17  1  0
  4 18  1  0
  5 19  1  0
  6 20  1  0
  9 21  1  0
M  CHG  2  12  -1  15  -1
M  END
>  <filename_input>  (7) 
7AN5_RDH_docked.sdf

>  <pdb_id>  (7) 
7AN5_RDH

>  <pose_rank>  (7) 
6

>  <num_atoms_heavy>  (7) 
15

>  <num_torsions>  (7) 
4

>  <pose>  (7) 
[5.513207566846945, -18.416244939130014, 26.693603522998373, -1.5780456685096618, -0.2045658378799176, 1.5006827974197139, -1.0391867229581955, 2.775803862460591, 1.8903212923986679, 2.594514946388823]

>  <energy>  (7) 
-474.83164450899665

>  <inter_energy>  (7) 
-528.0231527316886

>  <intra_energy>  (7) 
52.911016371502924

>  <rmsd>  (7) 
5.45761

>  <sdf_rank>  (7) 
0

$$$$

     RDKit          3D

 21 21  0  0  0  0  0  0  0  0999 V2000
   14.9337  -21.0103   24.3667 C   0  0  0  0  0  0  0  0  0  0  0  0
   14.7293  -19.8734   24.9967 C   0  0  0  0  0  0  0  0  0  0  0  0
   14.1094  -20.7814   27.1538 C   0  0  0  0  0  0  0  0  0  0  0  0
   12.7520  -20.6451   27.3928 C   0  0  0  0  0  0  0  0  0  0  0  0
   12.0845  -21.6105   28.1337 C   0  0  0  0  0  0  0  0  0  0  0  0
   12.7653  -22.7106   28.6228 C   0  0  0  0  0  0  0  0  0  0  0  0
   14.1243  -22.8474   28.3748 C   0  0  0  0  0  0  0  0  0  0  0  0
   14.9011  -24.0547   28.8998 C   0  0  0  0  0  0  0  0  0  0  0  0
   14.7929  -21.8854   27.6362 C   0  0  0  0  0  0  0  0  0  0  0  0
   14.4747  -18.6121   24.1805 C   0  0  0  0  0  0  0  0  0  0  0  0
   14.8067  -19.8413   26.3908 O   0  0  0  0  0  0  0  0  0  0  0  0
   15.5459  -23.9887   29.9841 O   0  0  0  0  0  0  0  0  0  0  0  0
   14.8948  -25.1247   28.2412 O   0  0  0  0  0  0  0  0  0  0  0  0
   13.3286  -18.4102   23.7193 O   0  0  0  0  0  0  0  0  0  0  0  0
   15.4001  -17.8002   23.9382 O   0  0  0  0  0  0  0  0  0  0  0  0
   15.1191  -21.9309   24.9396 H   0  0  0  0  0  0  0  0  0  0  0  0
   14.9193  -21.0402   23.2672 H   0  0  0  0  0  0  0  0  0  0  0  0
   12.2057  -19.7761   26.9974 H   0  0  0  0  0  0  0  0  0  0  0  0
   11.0083  -21.5000   28.3330 H   0  0  0  0  0  0  0  0  0  0  0  0
   12.2314  -23.4749   29.2066 H   0  0  0  0  0  0  0  0  0  0  0  0
   15.8680  -21.9981   27.4324 H   0  0  0  0  0  0  0  0  0  0  0  0
  1  2  2  0
  2 10  1  0
  2 11  1  0
  3  4  2  0
  3  9  1  0
  3 11  1  0
  4  5  1  0
  5  6  2  0
  6  7  1  0
  7  8  1  0
  7  9  2  0
  8 12  1  0
  8 13  2  0
 10 14  2  0
 10 15  1  0
  1 16  1  0
  1 17  1  0
  4 18  1  0
  5 19  1  0
  6 20  1  0
  9 21  1  0
M  CHG  2  12  -1  15  -1
M  END
>  <filename_input>  (8) 
7AN5_RDH_docked.sdf

>  <pdb_id>  (8) 
7AN5_RDH

>  <pose_rank>  (8) 
7

>  <num_atoms_heavy>  (8) 
15

>  <num_torsions>  (8) 
4

>  <pose>  (8) 
[14.10941121227605, -20.781425991845815, 27.15375199238781, -3.022061770961618, 2.1562623705693245, -1.9729365676255382, -1.7954572035091796, -2.221121730658324, 1.3892440978292322, 1.4354125556090358]

>  <energy>  (8) 
-173.19451721738477

>  <inter_energy>  (8) 
-167.46741523766838

>  <intra_energy>  (8) 
5.18584245472757

>  <rmsd>  (8) 
9.68791

>  <sdf_rank>  (8) 
0

$$$$

     RDKit          3D

 21 21  0  0  0  0  0  0  0  0999 V2000
   -2.2872  -16.1752   32.8279 C   0  0  0  0  0  0  0  0  0  0  0  0
   -2.9227  -16.2769   33.9754 C   0  0  0  0  0  0  0  0  0  0  0  0
   -2.0788  -14.3275   35.1371 C   0  0  0  0  0  0  0  0  0  0  0  0
   -1.1800  -14.7654   36.0955 C   0  0  0  0  0  0  0  0  0  0  0  0
   -0.1106  -13.9568   36.4550 C   0  0  0  0  0  0  0  0  0  0  0  0
    0.0668  -12.7243   35.8531 C   0  0  0  0  0  0  0  0  0  0  0  0
   -0.8321  -12.2921   34.8874 C   0  0  0  0  0  0  0  0  0  0  0  0
   -0.6585  -10.9363   34.2031 C   0  0  0  0  0  0  0  0  0  0  0  0
   -1.9002  -13.0967   34.5272 C   0  0  0  0  0  0  0  0  0  0  0  0
   -3.4445  -17.6402   34.4126 C   0  0  0  0  0  0  0  0  0  0  0  0
   -3.1516  -15.1266   34.7339 O   0  0  0  0  0  0  0  0  0  0  0  0
   -1.5416  -10.0392   34.3089 O   0  0  0  0  0  0  0  0  0  0  0  0
    0.3781  -10.7156   33.5281 O   0  0  0  0  0  0  0  0  0  0  0  0
   -4.0716  -18.3418   33.5872 O   0  0  0  0  0  0  0  0  0  0  0  0
   -3.2852  -18.0474   35.5886 O   0  0  0  0  0  0  0  0  0  0  0  0
   -1.9036  -15.1990   32.4962 H   0  0  0  0  0  0  0  0  0  0  0  0
   -2.1394  -17.0663   32.2001 H   0  0  0  0  0  0  0  0  0  0  0  0
   -1.3130  -15.7491   36.5695 H   0  0  0  0  0  0  0  0  0  0  0  0
    0.5995  -14.2980   37.2227 H   0  0  0  0  0  0  0  0  0  0  0  0
    0.9177  -12.0883   36.1386 H   0  0  0  0  0  0  0  0  0  0  0  0
   -2.6076  -12.7579   33.7560 H   0  0  0  0  0  0  0  0  0  0  0  0
  1  2  2  0
  2 10  1  0
  2 11  1  0
  3  4  2  0
  3  9  1  0
  3 11  1  0
  4  5  1  0
  5  6  2  0
  6  7  1  0
  7  8  1  0
  7  9  2  0
  8 12  1  0
  8 13  2  0
 10 14  2  0
 10 15  1  0
  1 16  1  0
  1 17  1  0
  4 18  1  0
  5 19  1  0
  6 20  1  0
  9 21  1  0
M  CHG  2  12  -1  15  -1
M  END
>  <filename_input>  (9) 
7AN5_RDH_docked.sdf

>  <pdb_id>  (9) 
7AN5_RDH

>  <pose_rank>  (9) 
8

>  <num_atoms_heavy>  (9) 
15

>  <num_torsions>  (9) 
4

>  <pose>  (9) 
[-2.078784688092488, -14.327499054317187, 35.1370595284232, -2.0750253870377473, -2.170493749051292, -1.3784109619838316, 4.095143820140838, -2.065416459597923, 1.2588490559723204, -0.7817793269489957]

>  <energy>  (9) 
-152.92516664228415

>  <inter_energy>  (9) 
-133.72527122236815

>  <intra_energy>  (9) 
2.2250951270277355

>  <rmsd>  (9) 
11.9995

>  <sdf_rank>  (9) 
0

$$$$

     RDKit          3D

 21 21  0  0  0  0  0  0  0  0999 V2000
   12.4466  -10.8674   18.6000 C   0  0  0  0  0  0  0  0  0  0  0  0
   13.3844  -11.3713   19.3732 C   0  0  0  0  0  0  0  0  0  0  0  0
   12.9767  -11.4100   21.7593 C   0  0  0  0  0  0  0  0  0  0  0  0
   11.6446  -11.1705   22.0533 C   0  0  0  0  0  0  0  0  0  0  0  0
   11.0630  -11.7835   23.1545 C   0  0  0  0  0  0  0  0  0  0  0  0
   11.8034  -12.6390   23.9501 C   0  0  0  0  0  0  0  0  0  0  0  0
   13.1363  -12.8823   23.6478 C   0  0  0  0  0  0  0  0  0  0  0  0
   13.9772  -13.8260   24.5073 C   0  0  0  0  0  0  0  0  0  0  0  0
   13.7191  -12.2716   22.5499 C   0  0  0  0  0  0  0  0  0  0  0  0
   14.1814  -12.5730   18.8804 C   0  0  0  0  0  0  0  0  0  0  0  0
   13.5863  -10.8292   20.6444 O   0  0  0  0  0  0  0  0  0  0  0  0
   15.1405  -14.1647   24.1497 O   0  0  0  0  0  0  0  0  0  0  0  0
   13.5013  -14.2675   25.5832 O   0  0  0  0  0  0  0  0  0  0  0  0
   15.4242  -12.4717   18.7706 O   0  0  0  0  0  0  0  0  0  0  0  0
   13.6078  -13.6397   18.5529 O   0  0  0  0  0  0  0  0  0  0  0  0
   11.8613  -10.0000   18.9393 H   0  0  0  0  0  0  0  0  0  0  0  0
   12.2478  -11.3135   17.6144 H   0  0  0  0  0  0  0  0  0  0  0  0
   11.0505  -10.4979   21.4173 H   0  0  0  0  0  0  0  0  0  0  0  0
   10.0078  -11.5877   23.3958 H   0  0  0  0  0  0  0  0  0  0  0  0
   11.3374  -13.1253   24.8198 H   0  0  0  0  0  0  0  0  0  0  0  0
   14.7729  -12.4711   22.3054 H   0  0  0  0  0  0  0  0  0  0  0  0
  1  2  2  0
  2 10  1  0
  2 11  1  0
  3  4  2  0
  3  9  1  0
  3 11  1  0
  4  5  1  0
  5  6  2  0
  6  7  1  0
  7  8  1  0
  7  9  2  0
  8 12  1  0
  8 13  2  0
 10 14  2  0
 10 15  1  0
  1 16  1  0
  1 17  1  0
  4 18  1  0
  5 19  1  0
  6 20  1  0
  9 21  1  0
M  CHG  2  12  -1  15  -1
M  END
>  <filename_input>  (10) 
7AN5_RDH_docked.sdf

>  <pdb_id>  (10) 
7AN5_RDH

>  <pose_rank>  (10) 
9

>  <num_atoms_heavy>  (10) 
15

>  <num_torsions>  (10) 
4

>  <pose>  (10) 
[12.976679870669942, -11.410002522748792, 21.7593342697569, -3.1033834028077565, 1.9552511926912273, -2.6322284066429043, 2.8822868144052847, -2.222711712459072, 3.9225083299903862, 2.140715541084145]

>  <energy>  (10) 
-151.20771858856534

>  <inter_energy>  (10) 
-133.8167935867596

>  <intra_energy>  (10) 
1.9939263155098763

>  <rmsd>  (10) 
11.5098

>  <sdf_rank>  (10) 
0

$$$$

     RDKit          3D

 21 21  0  0  0  0  0  0  0  0999 V2000
   15.6508  -20.0248   25.2408 C   0  0  0  0  0  0  0  0  0  0  0  0
   14.7073  -20.8694   24.8834 C   0  0  0  0  0  0  0  0  0  0  0  0
   13.0471  -21.1211   26.6275 C   0  0  0  0  0  0  0  0  0  0  0  0
   12.1365  -20.4193   27.4000 C   0  0  0  0  0  0  0  0  0  0  0  0
   11.7832  -20.9008   28.6529 C   0  0  0  0  0  0  0  0  0  0  0  0
   12.3265  -22.0813   29.1266 C   0  0  0  0  0  0  0  0  0  0  0  0
   13.2333  -22.7856   28.3463 C   0  0  0  0  0  0  0  0  0  0  0  0
   13.8466  -24.0947   28.8429 C   0  0  0  0  0  0  0  0  0  0  0  0
   13.5879  -22.3071   27.0959 C   0  0  0  0  0  0  0  0  0  0  0  0
   15.0520  -21.9968   23.9180 C   0  0  0  0  0  0  0  0  0  0  0  0
   13.4056  -20.6778   25.3520 O   0  0  0  0  0  0  0  0  0  0  0  0
   14.4082  -24.8926   28.0405 O   0  0  0  0  0  0  0  0  0  0  0  0
   13.7895  -24.3763   30.0661 O   0  0  0  0  0  0  0  0  0  0  0  0
   15.5107  -23.0675   24.3762 O   0  0  0  0  0  0  0  0  0  0  0  0
   14.9162  -21.8522   22.6791 O   0  0  0  0  0  0  0  0  0  0  0  0
   15.4201  -19.2049   25.9369 H   0  0  0  0  0  0  0  0  0  0  0  0
   16.6702  -20.1387   24.8436 H   0  0  0  0  0  0  0  0  0  0  0  0
   11.6955  -19.4850   27.0224 H   0  0  0  0  0  0  0  0  0  0  0  0
   11.0674  -20.3407   29.2724 H   0  0  0  0  0  0  0  0  0  0  0  0
   12.0410  -22.4609   30.1187 H   0  0  0  0  0  0  0  0  0  0  0  0
   14.2999  -22.8697   26.4741 H   0  0  0  0  0  0  0  0  0  0  0  0
  1  2  2  0
  2 10  1  0
  2 11  1  0
  3  4  2  0
  3  9  1  0
  3 11  1  0
  4  5  1  0
  5  6  2  0
  6  7  1  0
  7  8  1  0
  7  9  2  0
  8 12  1  0
  8 13  2  0
 10 14  2  0
 10 15  1  0
  1 16  1  0
  1 17  1  0
  4 18  1  0
  5 19  1  0
  6 20  1  0
  9 21  1  0
M  CHG  2  12  -1  15  -1
M  END
>  <filename_input>  (11) 
7AN5_RDH_docked.sdf

>  <pdb_id>  (11) 
7AN5_RDH

>  <pose_rank>  (11) 
10

>  <num_atoms_heavy>  (11) 
15

>  <num_torsions>  (11) 
4

>  <pose>  (11) 
[13.04710269841989, -21.12105279912795, 26.62754773013919, -3.9840944768950766, 2.387953944782041, -1.3580993131842627, 2.7258890860190537, -4.584181238330241, 0.8267597452161429, 1.5427318555794718]

>  <energy>  (11) 
-147.22684219840633

>  <inter_energy>  (11) 
-135.6628846261717

>  <intra_energy>  (11) 
4.777200684899156

>  <rmsd>  (11) 
9.43277

>  <sdf_rank>  (11) 
0

$$$$

     RDKit          3D

 21 21  0  0  0  0  0  0  0  0999 V2000
   -1.5574  -12.8269   34.3418 C   0  0  0  0  0  0  0  0  0  0  0  0
   -1.9534  -13.3483   33.2004 C   0  0  0  0  0  0  0  0  0  0  0  0
   -2.2736  -15.7440   33.0608 C   0  0  0  0  0  0  0  0  0  0  0  0
   -2.8019  -16.4767   32.0110 C   0  0  0  0  0  0  0  0  0  0  0  0
   -3.5567  -17.6111   32.2761 C   0  0  0  0  0  0  0  0  0  0  0  0
   -3.7726  -18.0177   33.5803 C   0  0  0  0  0  0  0  0  0  0  0  0
   -3.2351  -17.2847   34.6297 C   0  0  0  0  0  0  0  0  0  0  0  0
   -3.4546  -17.7128   36.0805 C   0  0  0  0  0  0  0  0  0  0  0  0
   -2.4821  -16.1522   34.3680 C   0  0  0  0  0  0  0  0  0  0  0  0
   -2.9569  -12.5823   32.3471 C   0  0  0  0  0  0  0  0  0  0  0  0
   -1.4886  -14.6118   32.8287 O   0  0  0  0  0  0  0  0  0  0  0  0
   -3.8440  -16.8825   36.9493 O   0  0  0  0  0  0  0  0  0  0  0  0
   -3.2443  -18.9074   36.4085 O   0  0  0  0  0  0  0  0  0  0  0  0
   -3.4056  -11.4932   32.7709 O   0  0  0  0  0  0  0  0  0  0  0  0
   -3.3612  -13.0437   31.2527 O   0  0  0  0  0  0  0  0  0  0  0  0
   -0.8335  -13.3657   34.9708 H   0  0  0  0  0  0  0  0  0  0  0  0
   -1.9503  -11.8523   34.6670 H   0  0  0  0  0  0  0  0  0  0  0  0
   -2.6243  -16.1613   30.9723 H   0  0  0  0  0  0  0  0  0  0  0  0
   -3.9853  -18.1897   31.4445 H   0  0  0  0  0  0  0  0  0  0  0  0
   -4.3685  -18.9192   33.7855 H   0  0  0  0  0  0  0  0  0  0  0  0
   -2.0491  -15.5763   35.1991 H   0  0  0  0  0  0  0  0  0  0  0  0
  1  2  2  0
  2 10  1  0
  2 11  1  0
  3  4  2  0
  3  9  1  0
  3 11  1  0
  4  5  1  0
  5  6  2  0
  6  7  1  0
  7  8  1  0
  7  9  2  0
  8 12  1  0
  8 13  2  0
 10 14  2  0
 10 15  1  0
  1 16  1  0
  1 17  1  0
  4 18  1  0
  5 19  1  0
  6 20  1  0
  9 21  1  0
M  CHG  2  12  -1  15  -1
M  END
>  <filename_input>  (12) 
7AN5_RDH_docked.sdf

>  <pdb_id>  (12) 
7AN5_RDH

>  <pose_rank>  (12) 
11

>  <num_atoms_heavy>  (12) 
15

>  <num_torsions>  (12) 
4

>  <pose>  (12) 
[-2.27358381316503, -15.743998418734941, 33.06084083710003, 0.6355189084661005, -1.0831787527024515, 2.5259279752235004, -2.4069478511667572, 1.1392711072427182, -2.3220898529566885, 0.0017895278758949054]

>  <energy>  (12) 
-143.0228086554297

>  <inter_energy>  (12) 
-124.86377799488672

>  <intra_energy>  (12) 
4.588235108997664

>  <rmsd>  (12) 
11.826

>  <sdf_rank>  (12) 
0

$$$$

     RDKit          3D

 21 21  0  0  0  0  0  0  0  0999 V2000
   14.6033  -17.4115   17.2141 C   0  0  0  0  0  0  0  0  0  0  0  0
   13.8613  -16.6284   17.9673 C   0  0  0  0  0  0  0  0  0  0  0  0
   13.8833  -16.9832   20.3622 C   0  0  0  0  0  0  0  0  0  0  0  0
   14.8656  -16.0255   20.5521 C   0  0  0  0  0  0  0  0  0  0  0  0
   15.4388  -15.8686   21.8065 C   0  0  0  0  0  0  0  0  0  0  0  0
   15.0256  -16.6546   22.8669 C   0  0  0  0  0  0  0  0  0  0  0  0
   14.0355  -17.6084   22.6742 C   0  0  0  0  0  0  0  0  0  0  0  0
   13.5569  -18.4884   23.8288 C   0  0  0  0  0  0  0  0  0  0  0  0
   13.4623  -17.7674   21.4235 C   0  0  0  0  0  0  0  0  0  0  0  0
   13.7224  -15.1581   17.5922 C   0  0  0  0  0  0  0  0  0  0  0  0
   13.2680  -17.1503   19.1190 O   0  0  0  0  0  0  0  0  0  0  0  0
   12.3267  -18.5947   24.0957 O   0  0  0  0  0  0  0  0  0  0  0  0
   14.4017  -19.1127   24.5182 O   0  0  0  0  0  0  0  0  0  0  0  0
   14.7575  -14.4678   17.4543 O   0  0  0  0  0  0  0  0  0  0  0  0
   12.5930  -14.6287   17.4564 O   0  0  0  0  0  0  0  0  0  0  0  0
   14.7150  -18.4756   17.4697 H   0  0  0  0  0  0  0  0  0  0  0  0
   15.1120  -17.0022   16.3288 H   0  0  0  0  0  0  0  0  0  0  0  0
   15.1900  -15.3924   19.7131 H   0  0  0  0  0  0  0  0  0  0  0  0
   16.2258  -15.1151   21.9581 H   0  0  0  0  0  0  0  0  0  0  0  0
   15.4802  -16.5244   23.8600 H   0  0  0  0  0  0  0  0  0  0  0  0
   12.6717  -18.5173   21.2728 H   0  0  0  0  0  0  0  0  0  0  0  0
  1  2  2  0
  2 10  1  0
  2 11  1  0
  3  4  2  0
  3  9  1  0
  3 11  1  0
  4  5  1  0
  5  6  2  0
  6  7  1  0
  7  8  1  0
  7  9  2  0
  8 12  1  0
  8 13  2  0
 10 14  2  0
 10 15  1  0
  1 16  1  0
  1 17  1  0
  4 18  1  0
  5 19  1  0
  6 20  1  0
  9 21  1  0
M  CHG  2  12  -1  15  -1
M  END
>  <filename_input>  (13) 
7AN5_RDH_docked.sdf

>  <pdb_id>  (13) 
7AN5_RDH

>  <pose_rank>  (13) 
12

>  <num_atoms_heavy>  (13) 
15

>  <num_torsions>  (13) 
4

>  <pose>  (13) 
[13.883328629313569, -16.983206444810754, 20.362160821285364, -0.7510965064942202, 2.679295305486085, 4.425479619178448, 2.12531480972189, -0.5347760416621598, -2.3405736695692148, -0.9308919184899107]

>  <energy>  (13) 
-141.92777528271085

>  <inter_energy>  (13) 
-139.09180675832897

>  <intra_energy>  (13) 
9.262428189983531

>  <rmsd>  (13) 
11.0957

>  <sdf_rank>  (13) 
0

$$$$

     RDKit          3D

 21 21  0  0  0  0  0  0  0  0999 V2000
   12.6817  -24.3298   22.5114 C   0  0  0  0  0  0  0  0  0  0  0  0
   13.4344  -23.5276   23.2332 C   0  0  0  0  0  0  0  0  0  0  0  0
   13.4524  -21.2519   24.0592 C   0  0  0  0  0  0  0  0  0  0  0  0
   14.0988  -20.8593   25.2195 C   0  0  0  0  0  0  0  0  0  0  0  0
   14.7256  -19.6220   25.2718 C   0  0  0  0  0  0  0  0  0  0  0  0
   14.7172  -18.7872   24.1690 C   0  0  0  0  0  0  0  0  0  0  0  0
   14.0745  -19.1874   23.0054 C   0  0  0  0  0  0  0  0  0  0  0  0
   14.0525  -18.2869   21.7705 C   0  0  0  0  0  0  0  0  0  0  0  0
   13.4478  -20.4213   22.9507 C   0  0  0  0  0  0  0  0  0  0  0  0
   14.9353  -23.7827   23.2980 C   0  0  0  0  0  0  0  0  0  0  0  0
   12.8331  -22.5007   23.9643 O   0  0  0  0  0  0  0  0  0  0  0  0
   15.0183  -17.5137   21.5151 O   0  0  0  0  0  0  0  0  0  0  0  0
   13.0589  -18.3200   21.0019 O   0  0  0  0  0  0  0  0  0  0  0  0
   15.4282  -24.2317   24.3574 O   0  0  0  0  0  0  0  0  0  0  0  0
   15.6796  -23.5167   22.3237 O   0  0  0  0  0  0  0  0  0  0  0  0
   11.5963  -24.1609   22.4530 H   0  0  0  0  0  0  0  0  0  0  0  0
   13.1378  -25.1693   21.9662 H   0  0  0  0  0  0  0  0  0  0  0  0
   14.1153  -21.5247   26.0952 H   0  0  0  0  0  0  0  0  0  0  0  0
   15.2318  -19.3036   26.1951 H   0  0  0  0  0  0  0  0  0  0  0  0
   15.2182  -17.8090   24.2139 H   0  0  0  0  0  0  0  0  0  0  0  0
   12.9460  -20.7420   22.0260 H   0  0  0  0  0  0  0  0  0  0  0  0
  1  2  2  0
  2 10  1  0
  2 11  1  0
  3  4  2  0
  3  9  1  0
  3 11  1  0
  4  5  1  0
  5  6  2  0
  6  7  1  0
  7  8  1  0
  7  9  2  0
  8 12  1  0
  8 13  2  0
 10 14  2  0
 10 15  1  0
  1 16  1  0
  1 17  1  0
  4 18  1  0
  5 19  1  0
  6 20  1  0
  9 21  1  0
M  CHG  2  12  -1  15  -1
M  END
>  <filename_input>  (14) 
7AN5_RDH_docked.sdf

>  <pdb_id>  (14) 
7AN5_RDH

>  <pose_rank>  (14) 
13

>  <num_atoms_heavy>  (14) 
15

>  <num_torsions>  (14) 
4

>  <pose>  (14) 
[13.45236033866383, -21.2518648004102, 24.05922046811795, -1.501225840026996, -3.04375878696528, -1.2016025001807162, 0.4391285251563884, -2.6651108646953174, -0.21270537669106354, -1.8503715619018297]

>  <energy>  (14) 
-133.51238417349813

>  <inter_energy>  (14) 
-116.46771270377137

>  <intra_energy>  (14) 
1.5900782426904077

>  <rmsd>  (14) 
10.452

>  <sdf_rank>  (14) 
0

$$$$

     RDKit          3D

 21 21  0  0  0  0  0  0  0  0999 V2000
   -1.1799  -10.7408   31.3364 C   0  0  0  0  0  0  0  0  0  0  0  0
   -1.9306  -10.8633   32.4100 C   0  0  0  0  0  0  0  0  0  0  0  0
   -3.4136  -12.7358   32.0149 C   0  0  0  0  0  0  0  0  0  0  0  0
   -3.9628  -13.1570   30.8152 C   0  0  0  0  0  0  0  0  0  0  0  0
   -4.1154  -14.5144   30.5684 C   0  0  0  0  0  0  0  0  0  0  0  0
   -3.7115  -15.4452   31.5083 C   0  0  0  0  0  0  0  0  0  0  0  0
   -3.1546  -15.0192   32.7065 C   0  0  0  0  0  0  0  0  0  0  0  0
   -2.6961  -16.0258   33.7615 C   0  0  0  0  0  0  0  0  0  0  0  0
   -3.0017  -13.6655   32.9554 C   0  0  0  0  0  0  0  0  0  0  0  0
   -1.3437  -10.4964   33.7675 C   0  0  0  0  0  0  0  0  0  0  0  0
   -3.2228  -11.3783   32.2850 O   0  0  0  0  0  0  0  0  0  0  0  0
   -3.3571  -16.1969   34.8243 O   0  0  0  0  0  0  0  0  0  0  0  0
   -1.6478  -16.6899   33.5643 O   0  0  0  0  0  0  0  0  0  0  0  0
   -1.6710   -9.4095   34.2951 O   0  0  0  0  0  0  0  0  0  0  0  0
   -0.5172  -11.2473   34.3396 O   0  0  0  0  0  0  0  0  0  0  0  0
   -1.5869  -11.0010   30.3481 H   0  0  0  0  0  0  0  0  0  0  0  0
   -0.1454  -10.3782   31.4271 H   0  0  0  0  0  0  0  0  0  0  0  0
   -4.2765  -12.4195   30.0618 H   0  0  0  0  0  0  0  0  0  0  0  0
   -4.5599  -14.8515   29.6204 H   0  0  0  0  0  0  0  0  0  0  0  0
   -3.8312  -16.5200   31.3069 H   0  0  0  0  0  0  0  0  0  0  0  0
   -2.5526  -13.3282   33.9012 H   0  0  0  0  0  0  0  0  0  0  0  0
  1  2  2  0
  2 10  1  0
  2 11  1  0
  3  4  2  0
  3  9  1  0
  3 11  1  0
  4  5  1  0
  5  6  2  0
  6  7  1  0
  7  8  1  0
  7  9  2  0
  8 12  1  0
  8 13  2  0
 10 14  2  0
 10 15  1  0
  1 16  1  0
  1 17  1  0
  4 18  1  0
  5 19  1  0
  6 20  1  0
  9 21  1  0
M  CHG  2  12  -1  15  -1
M  END
>  <filename_input>  (15) 
7AN5_RDH_docked.sdf

>  <pdb_id>  (15) 
7AN5_RDH

>  <pose_rank>  (15) 
14

>  <num_atoms_heavy>  (15) 
15

>  <num_torsions>  (15) 
4

>  <pose>  (15) 
[-3.4135979643508474, -12.735797305184693, 32.0148603305068, 1.438588311695257, -1.612979547513354, 2.4306251481945145, -8.263880460551162, 16.0262024895902, -2.7724249520369475, 1.83946721584118]

>  <energy>  (15) 
-130.41213925976447

>  <inter_energy>  (15) 
-115.75409269000743

>  <intra_energy>  (15) 
0.7075205990927101

>  <rmsd>  (15) 
12.1037

>  <sdf_rank>  (15) 
0

$$$$

     RDKit          3D

 21 21  0  0  0  0  0  0  0  0999 V2000
   12.7134  -28.2597   18.4189 C   0  0  0  0  0  0  0  0  0  0  0  0
   12.0633  -27.1194   18.5100 C   0  0  0  0  0  0  0  0  0  0  0  0
   10.1088  -27.5430   19.8747 C   0  0  0  0  0  0  0  0  0  0  0  0
    8.8735  -28.1680   19.9126 C   0  0  0  0  0  0  0  0  0  0  0  0
    8.3507  -28.5835   21.1294 C   0  0  0  0  0  0  0  0  0  0  0  0
    9.0619  -28.3869   22.2992 C   0  0  0  0  0  0  0  0  0  0  0  0
   10.3032  -27.7667   22.2562 C   0  0  0  0  0  0  0  0  0  0  0  0
   11.1127  -27.5398   23.5328 C   0  0  0  0  0  0  0  0  0  0  0  0
   10.8268  -27.3506   21.0435 C   0  0  0  0  0  0  0  0  0  0  0  0
   12.8531  -25.8163   18.5061 C   0  0  0  0  0  0  0  0  0  0  0  0
   10.6752  -27.1348   18.6645 O   0  0  0  0  0  0  0  0  0  0  0  0
   11.7875  -26.4840   23.6931 O   0  0  0  0  0  0  0  0  0  0  0  0
   11.1031  -28.4174   24.4321 O   0  0  0  0  0  0  0  0  0  0  0  0
   12.8272  -25.0954   17.4832 O   0  0  0  0  0  0  0  0  0  0  0  0
   13.5505  -25.4792   19.4932 O   0  0  0  0  0  0  0  0  0  0  0  0
   12.1597  -29.2101   18.4201 H   0  0  0  0  0  0  0  0  0  0  0  0
   13.8107  -28.2625   18.3414 H   0  0  0  0  0  0  0  0  0  0  0  0
    8.3094  -28.3343   18.9830 H   0  0  0  0  0  0  0  0  0  0  0  0
    7.3656  -29.0718   21.1635 H   0  0  0  0  0  0  0  0  0  0  0  0
    8.6452  -28.7210   23.2609 H   0  0  0  0  0  0  0  0  0  0  0  0
   11.8141  -26.8669   21.0084 H   0  0  0  0  0  0  0  0  0  0  0  0
  1  2  2  0
  2 10  1  0
  2 11  1  0
  3  4  2  0
  3  9  1  0
  3 11  1  0
  4  5  1  0
  5  6  2  0
  6  7  1  0
  7  8  1  0
  7  9  2  0
  8 12  1  0
  8 13  2  0
 10 14  2  0
 10 15  1  0
  1 16  1  0
  1 17  1  0
  4 18  1  0
  5 19  1  0
  6 20  1  0
  9 21  1  0
M  CHG  2  12  -1  15  -1
M  END
>  <filename_input>  (16) 
7AN5_RDH_docked.sdf

>  <pdb_id>  (16) 
7AN5_RDH

>  <pose_rank>  (16) 
15

>  <num_atoms_heavy>  (16) 
15

>  <num_torsions>  (16) 
4

>  <pose>  (16) 
[10.108813208007403, -27.542972959774485, 19.87471430722427, -1.8789862124315941, 0.4754263979991061, -3.7273303822915405, -2.6046903687346763, -3.441165408309875, -2.7771548544383164, 1.8941904453532272]

>  <energy>  (16) 
-126.41547813762567

>  <inter_energy>  (16) 
-108.30682805338013

>  <intra_energy>  (16) 
7.173387495378406

>  <rmsd>  (16) 
12.4324

>  <sdf_rank>  (16) 
0

$$$$

     RDKit          3D

 21 21  0  0  0  0  0  0  0  0999 V2000
   13.1113   -9.5600   26.7564 C   0  0  0  0  0  0  0  0  0  0  0  0
   13.0649   -9.3129   25.4649 C   0  0  0  0  0  0  0  0  0  0  0  0
   11.2136   -9.6179   23.9347 C   0  0  0  0  0  0  0  0  0  0  0  0
   11.2104  -11.0015   23.9971 C   0  0  0  0  0  0  0  0  0  0  0  0
   10.5238  -11.7310   23.0363 C   0  0  0  0  0  0  0  0  0  0  0  0
    9.8354  -11.0830   22.0268 C   0  0  0  0  0  0  0  0  0  0  0  0
    9.8349   -9.6959   21.9720 C   0  0  0  0  0  0  0  0  0  0  0  0
    9.0796   -8.9534   20.8698 C   0  0  0  0  0  0  0  0  0  0  0  0
   10.5195   -8.9656   22.9291 C   0  0  0  0  0  0  0  0  0  0  0  0
   14.3324   -9.4779   24.6352 C   0  0  0  0  0  0  0  0  0  0  0  0
   11.8735   -8.8527   24.8997 O   0  0  0  0  0  0  0  0  0  0  0  0
    9.5729   -8.8349   19.7129 O   0  0  0  0  0  0  0  0  0  0  0  0
    7.9533   -8.4568   21.1223 O   0  0  0  0  0  0  0  0  0  0  0  0
   14.8236  -10.6213   24.5007 O   0  0  0  0  0  0  0  0  0  0  0  0
   14.9028   -8.4859   24.1207 O   0  0  0  0  0  0  0  0  0  0  0  0
   12.2061   -9.4462   27.3710 H   0  0  0  0  0  0  0  0  0  0  0  0
   14.0552   -9.8805   27.2215 H   0  0  0  0  0  0  0  0  0  0  0  0
   11.7493  -11.5197   24.8040 H   0  0  0  0  0  0  0  0  0  0  0  0
   10.5273  -12.8302   23.0780 H   0  0  0  0  0  0  0  0  0  0  0  0
    9.2898  -11.6652   21.2695 H   0  0  0  0  0  0  0  0  0  0  0  0
   10.5120   -7.8663   22.8906 H   0  0  0  0  0  0  0  0  0  0  0  0
  1  2  2  0
  2 10  1  0
  2 11  1  0
  3  4  2  0
  3  9  1  0
  3 11  1  0
  4  5  1  0
  5  6  2  0
  6  7  1  0
  7  8  1  0
  7  9  2  0
  8 12  1  0
  8 13  2  0
 10 14  2  0
 10 15  1  0
  1 16  1  0
  1 17  1  0
  4 18  1  0
  5 19  1  0
  6 20  1  0
  9 21  1  0
M  CHG  2  12  -1  15  -1
M  END
>  <filename_input>  (17) 
7AN5_RDH_docked.sdf

>  <pdb_id>  (17) 
7AN5_RDH

>  <pose_rank>  (17) 
16

>  <num_atoms_heavy>  (17) 
15

>  <num_torsions>  (17) 
4

>  <pose>  (17) 
[11.21363711307329, -9.61790374578538, 23.934711211475076, 2.673003670806278, -0.05532880402840114, -1.9775397602217155, -1.5071102278425785, -0.22538386871515234, 0.20915357089854253, 1.1817425663298062]

>  <energy>  (17) 
-125.66656552425019

>  <inter_energy>  (17) 
-115.30045450959575

>  <intra_energy>  (17) 
2.8514088019546255

>  <rmsd>  (17) 
12.634

>  <sdf_rank>  (17) 
0

$$$$

     RDKit          3D

 21 21  0  0  0  0  0  0  0  0999 V2000
    0.8781   -9.4565   21.1705 C   0  0  0  0  0  0  0  0  0  0  0  0
   -0.4128   -9.3721   21.4110 C   0  0  0  0  0  0  0  0  0  0  0  0
   -1.3201  -10.2669   23.4696 C   0  0  0  0  0  0  0  0  0  0  0  0
   -2.0631  -11.2756   22.8791 C   0  0  0  0  0  0  0  0  0  0  0  0
   -2.4911  -12.3516   23.6444 C   0  0  0  0  0  0  0  0  0  0  0  0
   -2.1693  -12.4258   24.9875 C   0  0  0  0  0  0  0  0  0  0  0  0
   -1.4181  -11.4164   25.5739 C   0  0  0  0  0  0  0  0  0  0  0  0
   -1.0448  -11.4742   27.0551 C   0  0  0  0  0  0  0  0  0  0  0  0
   -0.9902  -10.3414   24.8128 C   0  0  0  0  0  0  0  0  0  0  0  0
   -1.3871   -9.4223   20.2404 C   0  0  0  0  0  0  0  0  0  0  0  0
   -0.8523   -9.1824   22.7230 O   0  0  0  0  0  0  0  0  0  0  0  0
   -1.9231  -11.3262   27.9509 O   0  0  0  0  0  0  0  0  0  0  0  0
    0.1524  -11.6725   27.3810 O   0  0  0  0  0  0  0  0  0  0  0  0
   -1.4824  -10.4793   19.5767 O   0  0  0  0  0  0  0  0  0  0  0  0
   -2.0614   -8.4153   19.9160 O   0  0  0  0  0  0  0  0  0  0  0  0
    1.5961   -9.4220   22.0031 H   0  0  0  0  0  0  0  0  0  0  0  0
    1.2392   -9.5615   20.1368 H   0  0  0  0  0  0  0  0  0  0  0  0
   -2.3128  -11.2243   21.8091 H   0  0  0  0  0  0  0  0  0  0  0  0
   -3.0892  -13.1496   23.1802 H   0  0  0  0  0  0  0  0  0  0  0  0
   -2.5077  -13.2822   25.5892 H   0  0  0  0  0  0  0  0  0  0  0  0
   -0.3878   -9.5458   25.2755 H   0  0  0  0  0  0  0  0  0  0  0  0
  1  2  2  0
  2 10  1  0
  2 11  1  0
  3  4  2  0
  3  9  1  0
  3 11  1  0
  4  5  1  0
  5  6  2  0
  6  7  1  0
  7  8  1  0
  7  9  2  0
  8 12  1  0
  8 13  2  0
 10 14  2  0
 10 15  1  0
  1 16  1  0
  1 17  1  0
  4 18  1  0
  5 19  1  0
  6 20  1  0
  9 21  1  0
M  CHG  2  12  -1  15  -1
M  END
>  <filename_input>  (18) 
7AN5_RDH_docked.sdf

>  <pdb_id>  (18) 
7AN5_RDH

>  <pose_rank>  (18) 
17

>  <num_atoms_heavy>  (18) 
15

>  <num_torsions>  (18) 
4

>  <pose>  (18) 
[-1.3200998368730792, -10.266850255672525, 23.469556954239412, -1.3939394017621014, 0.7992657019018713, -3.1663279415241568, -1.3362568543758508, -1.487954708096415, 0.5115374442703348, 1.1868472482745476]

>  <energy>  (18) 
-63.77991398074891

>  <inter_energy>  (18) 
-72.10701762998663

>  <intra_energy>  (18) 
8.37166873274338

>  <rmsd>  (18) 
11.3821

>  <sdf_rank>  (18) 
0

$$$$

     RDKit          3D

 21 21  0  0  0  0  0  0  0  0999 V2000
    0.1270  -20.0115   36.7486 C   0  0  0  0  0  0  0  0  0  0  0  0
   -0.4010  -20.6310   35.7149 C   0  0  0  0  0  0  0  0  0  0  0  0
   -2.1603  -19.1419   34.9737 C   0  0  0  0  0  0  0  0  0  0  0  0
   -3.3345  -19.7655   35.3617 C   0  0  0  0  0  0  0  0  0  0  0  0
   -4.4571  -19.0004   35.6466 C   0  0  0  0  0  0  0  0  0  0  0  0
   -4.4042  -17.6213   35.5561 C   0  0  0  0  0  0  0  0  0  0  0  0
   -3.2232  -16.9996   35.1741 C   0  0  0  0  0  0  0  0  0  0  0  0
   -3.1351  -15.4771   35.0694 C   0  0  0  0  0  0  0  0  0  0  0  0
   -2.1019  -17.7606   34.8888 C   0  0  0  0  0  0  0  0  0  0  0  0
   -0.2823  -22.1473   35.6226 C   0  0  0  0  0  0  0  0  0  0  0  0
   -1.0052  -19.8801   34.7040 O   0  0  0  0  0  0  0  0  0  0  0  0
   -3.7029  -14.8586   34.1255 O   0  0  0  0  0  0  0  0  0  0  0  0
   -2.4889  -14.8368   35.9361 O   0  0  0  0  0  0  0  0  0  0  0  0
    0.8042  -22.6485   35.2548 O   0  0  0  0  0  0  0  0  0  0  0  0
   -1.2619  -22.8898   35.8742 O   0  0  0  0  0  0  0  0  0  0  0  0
    0.0509  -18.9173   36.8319 H   0  0  0  0  0  0  0  0  0  0  0  0
    0.6445  -20.5879   37.5297 H   0  0  0  0  0  0  0  0  0  0  0  0
   -3.3773  -20.8616   35.4436 H   0  0  0  0  0  0  0  0  0  0  0  0
   -5.3937  -19.4936   35.9459 H   0  0  0  0  0  0  0  0  0  0  0  0
   -5.2954  -17.0189   35.7862 H   0  0  0  0  0  0  0  0  0  0  0  0
   -1.1637  -17.2675   34.5944 H   0  0  0  0  0  0  0  0  0  0  0  0
  1  2  2  0
  2 10  1  0
  2 11  1  0
  3  4  2  0
  3  9  1  0
  3 11  1  0
  4  5  1  0
  5  6  2  0
  6  7  1  0
  7  8  1  0
  7  9  2  0
  8 12  1  0
  8 13  2  0
 10 14  2  0
 10 15  1  0
  1 16  1  0
  1 17  1  0
  4 18  1  0
  5 19  1  0
  6 20  1  0
  9 21  1  0
M  CHG  2  12  -1  15  -1
M  END
>  <filename_input>  (19) 
7AN5_RDH_docked.sdf

>  <pdb_id>  (19) 
7AN5_RDH

>  <pose_rank>  (19) 
18

>  <num_atoms_heavy>  (19) 
15

>  <num_torsions>  (19) 
4

>  <pose>  (19) 
[-2.1602917955415633, -19.141871767853825, 34.973748556597606, 1.2042552603702121, -1.7584669091124563, -3.585719455219938, -1.3849911741407044, -1.9369565694426703, 1.1154976709280886, -1.3211995345292622]

>  <energy>  (19) 
-97.01573215405323

>  <inter_energy>  (19) 
-98.94184459138026

>  <intra_energy>  (19) 
0.5997530495373851

>  <rmsd>  (19) 
12.0864

>  <sdf_rank>  (19) 
0

$$$$

     RDKit          3D

 21 21  0  0  0  0  0  0  0  0999 V2000
   13.1140  -23.6844   18.2912 C   0  0  0  0  0  0  0  0  0  0  0  0
   14.1933  -23.3522   18.9666 C   0  0  0  0  0  0  0  0  0  0  0  0
   14.4892  -24.6337   20.9993 C   0  0  0  0  0  0  0  0  0  0  0  0
   14.8098  -23.7924   22.0518 C   0  0  0  0  0  0  0  0  0  0  0  0
   14.3893  -24.1081   23.3364 C   0  0  0  0  0  0  0  0  0  0  0  0
   13.6437  -25.2500   23.5668 C   0  0  0  0  0  0  0  0  0  0  0  0
   13.3180  -26.0868   22.5080 C   0  0  0  0  0  0  0  0  0  0  0  0
   12.4920  -27.3532   22.7329 C   0  0  0  0  0  0  0  0  0  0  0  0
   13.7367  -25.7744   21.2254 C   0  0  0  0  0  0  0  0  0  0  0  0
   14.7017  -21.9179   18.8878 C   0  0  0  0  0  0  0  0  0  0  0  0
   14.8750  -24.3329   19.6906 O   0  0  0  0  0  0  0  0  0  0  0  0
   12.5523  -27.9801   23.8280 O   0  0  0  0  0  0  0  0  0  0  0  0
   11.7443  -27.7719   21.8139 O   0  0  0  0  0  0  0  0  0  0  0  0
   14.8296  -21.2617   19.9460 O   0  0  0  0  0  0  0  0  0  0  0  0
   14.9567  -21.3814   17.7826 O   0  0  0  0  0  0  0  0  0  0  0  0
   12.7326  -24.7152   18.3363 H   0  0  0  0  0  0  0  0  0  0  0  0
   12.5932  -22.9314   17.6816 H   0  0  0  0  0  0  0  0  0  0  0  0
   15.3948  -22.8787   21.8706 H   0  0  0  0  0  0  0  0  0  0  0  0
   14.6505  -23.4467   24.1756 H   0  0  0  0  0  0  0  0  0  0  0  0
   13.3096  -25.4943   24.5860 H   0  0  0  0  0  0  0  0  0  0  0  0
   13.4713  -26.4330   20.3853 H   0  0  0  0  0  0  0  0  0  0  0  0
  1  2  2  0
  2 10  1  0
  2 11  1  0
  3  4  2  0
  3  9  1  0
  3 11  1  0
  4  5  1  0
  5  6  2  0
  6  7  1  0
  7  8  1  0
  7  9  2  0
  8 12  1  0
  8 13  2  0
 10 14  2  0
 10 15  1  0
  1 16  1  0
  1 17  1  0
  4 18  1  0
  5 19  1  0
  6 20  1  0
  9 21  1  0
M  CHG  2  12  -1  15  -1
M  END
>  <filename_input>  (20) 
7AN5_RDH_docked.sdf

>  <pdb_id>  (20) 
7AN5_RDH

>  <pose_rank>  (20) 
19

>  <num_atoms_heavy>  (20) 
15

>  <num_torsions>  (20) 
4

>  <pose>  (20) 
[14.489155418473844, -24.63366061501534, 20.999344054936152, 0.8702639234288718, -1.0341366203894515, -0.7388863366032233, -0.6453825567650509, -2.166135684479347, 0.7463150902073198, 2.179065926526931]

>  <energy>  (20) 
-119.44928893238742

>  <inter_energy>  (20) 
-108.01228430733353

>  <intra_energy>  (20) 
3.97826084071718

>  <rmsd>  (20) 
12.3664

>  <sdf_rank>  (20) 
0

$$$$

     RDKit          3D

 21 21  0  0  0  0  0  0  0  0999 V2000
    9.7152  -28.2221   21.7489 C   0  0  0  0  0  0  0  0  0  0  0  0
    9.5759  -28.0980   20.4464 C   0  0  0  0  0  0  0  0  0  0  0  0
   11.7023  -27.3937   19.5279 C   0  0  0  0  0  0  0  0  0  0  0  0
   11.8902  -26.6437   18.3788 C   0  0  0  0  0  0  0  0  0  0  0  0
   12.9061  -25.6990   18.3333 C   0  0  0  0  0  0  0  0  0  0  0  0
   13.7215  -25.4962   19.4320 C   0  0  0  0  0  0  0  0  0  0  0  0
   13.5252  -26.2448   20.5845 C   0  0  0  0  0  0  0  0  0  0  0  0
   14.4089  -26.0392   21.8148 C   0  0  0  0  0  0  0  0  0  0  0  0
   12.5127  -27.1884   20.6324 C   0  0  0  0  0  0  0  0  0  0  0  0
    8.2027  -27.7591   19.8794 C   0  0  0  0  0  0  0  0  0  0  0  0
   10.6737  -28.3351   19.6162 O   0  0  0  0  0  0  0  0  0  0  0  0
   14.5311  -26.9478   22.6839 O   0  0  0  0  0  0  0  0  0  0  0  0
   15.0202  -24.9509   21.9588 O   0  0  0  0  0  0  0  0  0  0  0  0
    7.3986  -27.1108   20.5866 O   0  0  0  0  0  0  0  0  0  0  0  0
    7.8598  -28.1492   18.7373 O   0  0  0  0  0  0  0  0  0  0  0  0
   10.6990  -28.4665   22.1759 H   0  0  0  0  0  0  0  0  0  0  0  0
    8.8479  -28.0815   22.4107 H   0  0  0  0  0  0  0  0  0  0  0  0
   11.2375  -26.7960   17.5065 H   0  0  0  0  0  0  0  0  0  0  0  0
   13.0635  -25.1085   17.4187 H   0  0  0  0  0  0  0  0  0  0  0  0
   14.5231  -24.7440   19.3926 H   0  0  0  0  0  0  0  0  0  0  0  0
   12.3517  -27.7755   21.5486 H   0  0  0  0  0  0  0  0  0  0  0  0
  1  2  2  0
  2 10  1  0
  2 11  1  0
  3  4  2  0
  3  9  1  0
  3 11  1  0
  4  5  1  0
  5  6  2  0
  6  7  1  0
  7  8  1  0
  7  9  2  0
  8 12  1  0
  8 13  2  0
 10 14  2  0
 10 15  1  0
  1 16  1  0
  1 17  1  0
  4 18  1  0
  5 19  1  0
  6 20  1  0
  9 21  1  0
M  CHG  2  12  -1  15  -1
M  END
>  <filename_input>  (21) 
7AN5_RDH_docked.sdf

>  <pdb_id>  (21) 
7AN5_RDH

>  <pose_rank>  (21) 
20

>  <num_atoms_heavy>  (21) 
15

>  <num_torsions>  (21) 
4

>  <pose>  (21) 
[11.702335191100115, -27.393685955536778, 19.52790722165781, 4.95296645209573, -0.25273742954467393, 2.150651642373391, 3.410200070327339, -2.752634694738472, 0.9506409077457247, 0.5200415141409545]

>  <energy>  (21) 
-92.65219645944663

>  <inter_energy>  (21) 
-101.73807467149676

>  <intra_energy>  (21) 
11.366477142807392

>  <rmsd>  (21) 
12.6909

>  <sdf_rank>  (21) 
0

$$$$

     RDKit          3D

 21 21  0  0  0  0  0  0  0  0999 V2000
   -1.2798  -28.4531   25.4840 C   0  0  0  0  0  0  0  0  0  0  0  0
   -2.3188  -28.2745   26.2713 C   0  0  0  0  0  0  0  0  0  0  0  0
   -1.5042  -27.5158   28.4213 C   0  0  0  0  0  0  0  0  0  0  0  0
   -2.1106  -26.3209   28.7717 C   0  0  0  0  0  0  0  0  0  0  0  0
   -1.4258  -25.4091   29.5631 C   0  0  0  0  0  0  0  0  0  0  0  0
   -0.1487  -25.6935   30.0113 C   0  0  0  0  0  0  0  0  0  0  0  0
    0.4529  -26.8955   29.6640 C   0  0  0  0  0  0  0  0  0  0  0  0
    1.8618  -27.2376   30.1482 C   0  0  0  0  0  0  0  0  0  0  0  0
   -0.2279  -27.8068   28.8742 C   0  0  0  0  0  0  0  0  0  0  0  0
   -3.6340  -27.8030   25.6632 C   0  0  0  0  0  0  0  0  0  0  0  0
   -2.1744  -28.4664   27.6472 O   0  0  0  0  0  0  0  0  0  0  0  0
    2.4441  -26.5181   31.0079 O   0  0  0  0  0  0  0  0  0  0  0  0
    2.4441  -28.2491   29.6827 O   0  0  0  0  0  0  0  0  0  0  0  0
   -4.5331  -28.6443   25.4377 O   0  0  0  0  0  0  0  0  0  0  0  0
   -3.8105  -26.5994   25.3562 O   0  0  0  0  0  0  0  0  0  0  0  0
   -0.3223  -28.7930   25.9055 H   0  0  0  0  0  0  0  0  0  0  0  0
   -1.3687  -28.2624   24.4043 H   0  0  0  0  0  0  0  0  0  0  0  0
   -3.1298  -26.0957   28.4246 H   0  0  0  0  0  0  0  0  0  0  0  0
   -1.9014  -24.4552   29.8351 H   0  0  0  0  0  0  0  0  0  0  0  0
    0.3889  -24.9693   30.6411 H   0  0  0  0  0  0  0  0  0  0  0  0
    0.2454  -28.7629   28.6061 H   0  0  0  0  0  0  0  0  0  0  0  0
  1  2  2  0
  2 10  1  0
  2 11  1  0
  3  4  2  0
  3  9  1  0
  3 11  1  0
  4  5  1  0
  5  6  2  0
  6  7  1  0
  7  8  1  0
  7  9  2  0
  8 12  1  0
  8 13  2  0
 10 14  2  0
 10 15  1  0
  1 16  1  0
  1 17  1  0
  4 18  1  0
  5 19  1  0
  6 20  1  0
  9 21  1  0
M  CHG  2  12  -1  15  -1
M  END
>  <filename_input>  (22) 
7AN5_RDH_docked.sdf

>  <pdb_id>  (22) 
7AN5_RDH

>  <pose_rank>  (22) 
21

>  <num_atoms_heavy>  (22) 
15

>  <num_torsions>  (22) 
4

>  <pose>  (22) 
[-1.5042209331083816, -27.51581520591873, 28.421335621716366, -2.7492907856442734, -3.8849066844644966, -3.021734829146793, 0.038158789229833484, 0.49359061764511014, 3.558552518066784, 1.7805314288583804]

>  <energy>  (22) 
-118.30100237496667

>  <inter_energy>  (22) 
-105.82084264242124

>  <intra_energy>  (22) 
1.1420526645714897

>  <rmsd>  (22) 
11.0843

>  <sdf_rank>  (22) 
0

$$$$

     RDKit          3D

 21 21  0  0  0  0  0  0  0  0999 V2000
   -3.3281  -27.2679   32.2434 C   0  0  0  0  0  0  0  0  0  0  0  0
   -3.0210  -26.0872   31.7506 C   0  0  0  0  0  0  0  0  0  0  0  0
   -2.8648  -23.9978   32.9637 C   0  0  0  0  0  0  0  0  0  0  0  0
   -3.0644  -22.6413   32.7679 C   0  0  0  0  0  0  0  0  0  0  0  0
   -2.3050  -21.7249   33.4821 C   0  0  0  0  0  0  0  0  0  0  0  0
   -1.3609  -22.1600   34.3944 C   0  0  0  0  0  0  0  0  0  0  0  0
   -1.1689  -23.5205   34.5933 C   0  0  0  0  0  0  0  0  0  0  0  0
   -0.1352  -24.0295   35.5977 C   0  0  0  0  0  0  0  0  0  0  0  0
   -1.9249  -24.4369   33.8816 C   0  0  0  0  0  0  0  0  0  0  0  0
   -1.9635  -25.9955   30.6573 C   0  0  0  0  0  0  0  0  0  0  0  0
   -3.6290  -24.9467   32.2799 O   0  0  0  0  0  0  0  0  0  0  0  0
    1.1016  -23.8876   35.3828 O   0  0  0  0  0  0  0  0  0  0  0  0
   -0.5254  -24.5952   36.6496 O   0  0  0  0  0  0  0  0  0  0  0  0
   -2.2699  -25.4762   29.5603 O   0  0  0  0  0  0  0  0  0  0  0  0
   -0.8116  -26.4620   30.8302 O   0  0  0  0  0  0  0  0  0  0  0  0
   -4.0891  -27.3532   33.0331 H   0  0  0  0  0  0  0  0  0  0  0  0
   -2.8239  -28.1696   31.8658 H   0  0  0  0  0  0  0  0  0  0  0  0
   -3.8209  -22.2920   32.0498 H   0  0  0  0  0  0  0  0  0  0  0  0
   -2.4549  -20.6471   33.3218 H   0  0  0  0  0  0  0  0  0  0  0  0
   -0.7638  -21.4301   34.9608 H   0  0  0  0  0  0  0  0  0  0  0  0
   -1.7788  -25.5148   34.0454 H   0  0  0  0  0  0  0  0  0  0  0  0
  1  2  2  0
  2 10  1  0
  2 11  1  0
  3  4  2  0
  3  9  1  0
  3 11  1  0
  4  5  1  0
  5  6  2  0
  6  7  1  0
  7  8  1  0
  7  9  2  0
  8 12  1  0
  8 13  2  0
 10 14  2  0
 10 15  1  0
  1 16  1  0
  1 17  1  0
  4 18  1  0
  5 19  1  0
  6 20  1  0
  9 21  1  0
M  CHG  2  12  -1  15  -1
M  END
>  <filename_input>  (23) 
7AN5_RDH_docked.sdf

>  <pdb_id>  (23) 
7AN5_RDH

>  <pose_rank>  (23) 
22

>  <num_atoms_heavy>  (23) 
15

>  <num_torsions>  (23) 
4

>  <pose>  (23) 
[-2.864786103016891, -23.997818559900587, 32.96369267158915, -0.7287314781376714, -6.095435932369139, 0.17511178825987206, -1.3251927665994085, 1.5673056568966526, -2.034790670047507, 2.168518160116499]

>  <energy>  (23) 
-112.21176872804897

>  <inter_energy>  (23) 
-87.30085844721582

>  <intra_energy>  (23) 
3.175266637782763

>  <rmsd>  (23) 
11.2199

>  <sdf_rank>  (23) 
0

$$$$

     RDKit          3D

 21 21  0  0  0  0  0  0  0  0999 V2000
   -4.4627  -11.9480   22.4403 C   0  0  0  0  0  0  0  0  0  0  0  0
   -3.4548  -12.5500   23.0343 C   0  0  0  0  0  0  0  0  0  0  0  0
   -1.3804  -11.3638   23.4235 C   0  0  0  0  0  0  0  0  0  0  0  0
   -1.3418  -10.0070   23.1478 C   0  0  0  0  0  0  0  0  0  0  0  0
   -0.5877   -9.1636   23.9519 C   0  0  0  0  0  0  0  0  0  0  0  0
    0.1138   -9.6698   25.0310 C   0  0  0  0  0  0  0  0  0  0  0  0
    0.0667  -11.0292   25.3085 C   0  0  0  0  0  0  0  0  0  0  0  0
    0.8291  -11.6154   26.4967 C   0  0  0  0  0  0  0  0  0  0  0  0
   -0.6845  -11.8730   24.5075 C   0  0  0  0  0  0  0  0  0  0  0  0
   -3.7420  -13.5265   24.1682 C   0  0  0  0  0  0  0  0  0  0  0  0
   -2.1492  -12.2367   22.6496 O   0  0  0  0  0  0  0  0  0  0  0  0
    0.2392  -11.8656   27.5853 O   0  0  0  0  0  0  0  0  0  0  0  0
    2.0583  -11.8504   26.3841 O   0  0  0  0  0  0  0  0  0  0  0  0
   -3.8076  -14.7500   23.9118 O   0  0  0  0  0  0  0  0  0  0  0  0
   -3.9466  -13.1190   25.3371 O   0  0  0  0  0  0  0  0  0  0  0  0
   -4.2743  -11.2399   21.6198 H   0  0  0  0  0  0  0  0  0  0  0  0
   -5.4938  -12.1528   22.7641 H   0  0  0  0  0  0  0  0  0  0  0  0
   -1.9061   -9.5999   22.2958 H   0  0  0  0  0  0  0  0  0  0  0  0
   -0.5478   -8.0870   23.7297 H   0  0  0  0  0  0  0  0  0  0  0  0
    0.7073   -8.9971   25.6676 H   0  0  0  0  0  0  0  0  0  0  0  0
   -0.7287  -12.9489   24.7324 H   0  0  0  0  0  0  0  0  0  0  0  0
  1  2  2  0
  2 10  1  0
  2 11  1  0
  3  4  2  0
  3  9  1  0
  3 11  1  0
  4  5  1  0
  5  6  2  0
  6  7  1  0
  7  8  1  0
  7  9  2  0
  8 12  1  0
  8 13  2  0
 10 14  2  0
 10 15  1  0
  1 16  1  0
  1 17  1  0
  4 18  1  0
  5 19  1  0
  6 20  1  0
  9 21  1  0
M  CHG  2  12  -1  15  -1
M  END
>  <filename_input>  (24) 
7AN5_RDH_docked.sdf

>  <pdb_id>  (24) 
7AN5_RDH

>  <pose_rank>  (24) 
23

>  <num_atoms_heavy>  (24) 
15

>  <num_torsions>  (24) 
4

>  <pose>  (24) 
[-1.3803714531084963, -11.363758868211432, 23.423450740966565, 0.8229407358127123, 1.3845971164646882, 5.912396526044283, 1.6131190685588972, -2.465869348578549, -8.551924998023463, -4.57337983666852]

>  <energy>  (24) 
-92.41200225294025

>  <inter_energy>  (24) 
-91.26966510058074

>  <intra_energy>  (24) 
2.940363810588433

>  <rmsd>  (24) 
10.3538

>  <sdf_rank>  (24) 
0

$$$$

     RDKit          3D

 21 21  0  0  0  0  0  0  0  0999 V2000
   -0.3104  -25.8155   33.1526 C   0  0  0  0  0  0  0  0  0  0  0  0
    0.6348  -25.6561   34.0539 C   0  0  0  0  0  0  0  0  0  0  0  0
    0.1915  -23.5678   35.1959 C   0  0  0  0  0  0  0  0  0  0  0  0
   -0.1878  -23.9645   36.4675 C   0  0  0  0  0  0  0  0  0  0  0  0
   -0.9998  -23.1379   37.2316 C   0  0  0  0  0  0  0  0  0  0  0  0
   -1.4207  -21.9180   36.7339 C   0  0  0  0  0  0  0  0  0  0  0  0
   -1.0323  -21.5205   35.4617 C   0  0  0  0  0  0  0  0  0  0  0  0
   -1.4795  -20.1762   34.8878 C   0  0  0  0  0  0  0  0  0  0  0  0
   -0.2226  -22.3437   34.6970 C   0  0  0  0  0  0  0  0  0  0  0  0
    1.2287  -26.8873   34.7272 C   0  0  0  0  0  0  0  0  0  0  0  0
    1.0283  -24.3642   34.4101 O   0  0  0  0  0  0  0  0  0  0  0  0
   -2.4541  -20.1054   34.0873 O   0  0  0  0  0  0  0  0  0  0  0  0
   -0.8670  -19.1306   35.2201 O   0  0  0  0  0  0  0  0  0  0  0  0
    1.5246  -27.8791   34.0232 O   0  0  0  0  0  0  0  0  0  0  0  0
    1.3894  -26.9307   35.9708 O   0  0  0  0  0  0  0  0  0  0  0  0
   -0.7507  -24.9381   32.6562 H   0  0  0  0  0  0  0  0  0  0  0  0
   -0.6603  -26.8261   32.8954 H   0  0  0  0  0  0  0  0  0  0  0  0
    0.1528  -24.9300   36.8699 H   0  0  0  0  0  0  0  0  0  0  0  0
   -1.3103  -23.4546   38.2382 H   0  0  0  0  0  0  0  0  0  0  0  0
   -2.0613  -21.2645   37.3444 H   0  0  0  0  0  0  0  0  0  0  0  0
    0.0922  -22.0250   33.6923 H   0  0  0  0  0  0  0  0  0  0  0  0
  1  2  2  0
  2 10  1  0
  2 11  1  0
  3  4  2  0
  3  9  1  0
  3 11  1  0
  4  5  1  0
  5  6  2  0
  6  7  1  0
  7  8  1  0
  7  9  2  0
  8 12  1  0
  8 13  2  0
 10 14  2  0
 10 15  1  0
  1 16  1  0
  1 17  1  0
  4 18  1  0
  5 19  1  0
  6 20  1  0
  9 21  1  0
M  CHG  2  12  -1  15  -1
M  END
>  <filename_input>  (25) 
7AN5_RDH_docked.sdf

>  <pdb_id>  (25) 
7AN5_RDH

>  <pose_rank>  (25) 
24

>  <num_atoms_heavy>  (25) 
15

>  <num_torsions>  (25) 
4

>  <pose>  (25) 
[0.19145821183106024, -23.567773535438892, 35.195880118658316, -0.17821677259323915, 1.808709343223437, 2.061463279313194, -1.849930784559176, 0.2115144741049907, 3.5295043739231735, 0.8109013849525853]

>  <energy>  (25) 
-99.18737866999936

>  <inter_energy>  (25) 
-85.27430409427168

>  <intra_energy>  (25) 
1.6477264746042717

>  <rmsd>  (25) 
11.6977

>  <sdf_rank>  (25) 
0

$$$$

     RDKit          3D

 21 21  0  0  0  0  0  0  0  0999 V2000
    2.9020  -19.6190   24.2100 C   0  0  0  0  0  0  0  0  0  0  0  0
    4.0370  -19.5410   24.8710 C   0  0  0  0  0  0  0  0  0  0  0  0
    4.6810  -18.6620   27.0330 C   0  0  0  0  0  0  0  0  0  0  0  0
    4.5070  -17.3100   26.7880 C   0  0  0  0  0  0  0  0  0  0  0  0
    5.1560  -16.3780   27.5860 C   0  0  0  0  0  0  0  0  0  0  0  0
    5.9640  -16.7930   28.6290 C   0  0  0  0  0  0  0  0  0  0  0  0
    6.1300  -18.1490   28.8760 C   0  0  0  0  0  0  0  0  0  0  0  0
    7.0140  -18.6360   30.0240 C   0  0  0  0  0  0  0  0  0  0  0  0
    5.4840  -19.0810   28.0810 C   0  0  0  0  0  0  0  0  0  0  0  0
    5.3400  -19.4220   24.0900 C   0  0  0  0  0  0  0  0  0  0  0  0
    4.0230  -19.6260   26.2650 O   0  0  0  0  0  0  0  0  0  0  0  0
    7.5100  -17.8200   30.8510 O   0  0  0  0  0  0  0  0  0  0  0  0
    7.2470  -19.8650   30.1430 O   0  0  0  0  0  0  0  0  0  0  0  0
    5.3000  -19.4390   22.8390 O   0  0  0  0  0  0  0  0  0  0  0  0
    6.4440  -19.3440   24.6810 O   0  0  0  0  0  0  0  0  0  0  0  0
    1.9517  -19.7054   24.7572 H   0  0  0  0  0  0  0  0  0  0  0  0
    2.9034  -19.5978   23.1102 H   0  0  0  0  0  0  0  0  0  0  0  0
    3.8577  -16.9765   25.9651 H   0  0  0  0  0  0  0  0  0  0  0  0
    5.0270  -15.3037   27.3879 H   0  0  0  0  0  0  0  0  0  0  0  0
    6.4736  -16.0508   29.2610 H   0  0  0  0  0  0  0  0  0  0  0  0
    5.6087  -20.1553   28.2820 H   0  0  0  0  0  0  0  0  0  0  0  0
  1  2  2  0
  2 10  1  0
  2 11  1  0
  3  4  2  0
  3  9  1  0
  3 11  1  0
  4  5  1  0
  5  6  2  0
  6  7  1  0
  7  8  1  0
  7  9  2  0
  8 12  1  0
  8 13  2  0
 10 14  2  0
 10 15  1  0
  1 16  1  0
  1 17  1  0
  4 18  1  0
  5 19  1  0
  6 20  1  0
  9 21  1  0
M  CHG  2  12  -1  15  -1
M  END
>  <filename_input>  (26) 
7AN5_RDH_docked.sdf

>  <pdb_id>  (26) 
7AN5_RDH

>  <pose_rank>  (26) 
25

>  <num_atoms_heavy>  (26) 
15

>  <num_torsions>  (26) 
4

>  <pose>  (26) 
[4.681, -18.662, 27.033, 1e-06, 1e-06, 1e-06, 0.0, 0.0, 0.0, 0.0]

>  <energy>  (26) 
-646.669755425116

>  <inter_energy>  (26) 
-651.1390689647801

>  <intra_energy>  (26) 
12.764863717386115

>  <rmsd>  (26) 
0.0

>  <sdf_rank>  (26) 
0

$$$$
