
     RDKit          3D

 40 39  0  0  0  0  0  0  0  0999 V2000
    1.8517    1.2971   44.9262 N   0  0  0  0  0  0  0  0  0  0  0  0
    6.0607    1.0640   44.2323 P   0  0  2  0  0  0  0  0  0  0  0  0
    6.2983   -0.3592   44.6816 O   0  0  0  0  0  0  0  0  0  0  0  0
    6.0838    1.2671   42.7364 O   0  0  0  0  0  0  0  0  0  0  0  0
    6.8687    2.1125   44.9824 O   0  0  0  0  0  0  0  0  0  0  0  0
    4.5549    1.3967   44.6933 O   0  0  0  0  0  0  0  0  0  0  0  0
    3.8200    2.4250   44.0068 C   0  0  1  0  0  0  0  0  0  0  0  0
    2.2312    1.1134   42.5124 C   0  0  0  0  0  0  0  0  0  0  0  0
    1.6312    0.0249   42.6020 O   0  0  0  0  0  0  0  0  0  0  0  0
    2.7179    1.5213   41.4251 O   0  0  0  0  0  0  0  0  0  0  0  0
    2.3759    1.9672   43.7505 C   0  0  1  0  0  0  0  0  0  0  0  0
    3.8535    3.7130   44.8452 C   0  0  0  0  0  0  0  0  0  0  0  0
    0.1962    2.7608   45.1603 O   0  0  0  0  0  0  0  0  0  0  0  0
    0.7860    1.7613   45.5469 C   0  0  0  0  0  0  0  0  0  0  0  0
    0.3353    0.9765   46.7586 C   0  0  0  0  0  0  0  0  0  0  0  0
   -0.4202    1.8648   47.7430 C   0  0  0  0  0  0  0  0  0  0  0  0
   -1.7079    1.1997   48.2179 C   0  0  0  0  0  0  0  0  0  0  0  0
   -1.8585    1.2645   49.7382 C   0  0  0  0  0  0  0  0  0  0  0  0
   -1.2781    2.5599   50.3189 C   0  0  0  0  0  0  0  0  0  0  0  0
   -1.8401    2.8625   51.7022 C   0  0  0  0  0  0  0  0  0  0  0  0
   -3.6372    3.1726   51.5392 S   0  0  0  0  0  0  0  0  0  0  0  0
    2.3178    0.4492   45.2794 H   0  0  0  0  0  0  0  0  0  0  0  0
    4.2846    2.6247   43.0299 H   0  0  0  0  0  0  0  0  0  0  0  0
    1.7780    2.8697   43.5556 H   0  0  0  0  0  0  0  0  0  0  0  0
    3.8468    3.4548   45.9145 H   0  0  0  0  0  0  0  0  0  0  0  0
    4.7667    4.2796   44.6106 H   0  0  0  0  0  0  0  0  0  0  0  0
    2.9710    4.3264   44.6106 H   0  0  0  0  0  0  0  0  0  0  0  0
   -0.3259    0.1604   46.4316 H   0  0  0  0  0  0  0  0  0  0  0  0
    1.2260    0.5757   47.2645 H   0  0  0  0  0  0  0  0  0  0  0  0
    0.2228    2.0618   48.6135 H   0  0  0  0  0  0  0  0  0  0  0  0
   -0.6832    2.8025   47.2317 H   0  0  0  0  0  0  0  0  0  0  0  0
   -2.5641    1.7114   47.7540 H   0  0  0  0  0  0  0  0  0  0  0  0
   -1.6715    0.1401   47.9246 H   0  0  0  0  0  0  0  0  0  0  0  0
   -2.9274    1.2094   49.9917 H   0  0  0  0  0  0  0  0  0  0  0  0
   -1.3025    0.4196   50.1707 H   0  0  0  0  0  0  0  0  0  0  0  0
   -0.1853    2.4584   50.3930 H   0  0  0  0  0  0  0  0  0  0  0  0
   -1.5543    3.3880   49.6495 H   0  0  0  0  0  0  0  0  0  0  0  0
   -1.6699    2.0039   52.3684 H   0  0  0  0  0  0  0  0  0  0  0  0
   -1.3409    3.7450   52.1287 H   0  0  0  0  0  0  0  0  0  0  0  0
   -4.1988    3.2695   52.7850 H   0  0  0  0  0  0  0  0  0  0  0  0
 11  1  1  0
  1 14  1  0
  2  3  2  0
  2  4  1  6
  2  5  1  0
  2  6  1  0
  6  7  1  0
  7 11  1  0
  7 12  1  0
  8  9  1  0
  8 10  2  0
  8 11  1  0
 13 14  2  0
 14 15  1  0
 15 16  1  0
 16 17  1  0
 17 18  1  0
 18 19  1  0
 19 20  1  0
 20 21  1  0
  1 22  1  0
  7 23  1  6
 11 24  1  6
 12 25  1  0
 12 26  1  0
 12 27  1  0
 15 28  1  0
 15 29  1  0
 16 30  1  0
 16 31  1  0
 17 32  1  0
 17 33  1  0
 18 34  1  0
 18 35  1  0
 19 36  1  0
 19 37  1  0
 20 38  1  0
 20 39  1  0
 21 40  1  0
M  CHG  3   4  -1   5  -1   9  -1
M  END
>  <filename_input>  (1) 
7B2C_TP7_docked.sdf

>  <pdb_id>  (1) 
7B2C_TP7

>  <pose_rank>  (1) 
0

>  <num_atoms_heavy>  (1) 
21

>  <num_torsions>  (1) 
11

>  <pose>  (1) 
[2.3759050275409117, 1.967198066554462, 43.75053903219297, 1.352113246121445, -3.8213021336227873, -4.482974230043857, 0.26430007707816355, -7.071300421014067, 5.565334827768037, -5.107830803371538, -7.107793545581031, -4.784092584326312, 1.9889416178052426, 0.3617595352662933, -0.43232351978014183, -0.12171036281422459, -8.114734034695504]

>  <energy>  (1) 
-789.6467590407769

>  <inter_energy>  (1) 
-785.5280112467922

>  <intra_energy>  (1) 
1.4783178706569093

>  <rmsd>  (1) 
0.673999

>  <sdf_rank>  (1) 
0

$$$$

     RDKit          3D

 40 39  0  0  0  0  0  0  0  0999 V2000
    2.2538    1.8535   45.4849 N   0  0  0  0  0  0  0  0  0  0  0  0
    1.5737    2.8785   41.5796 P   0  0  2  0  0  0  0  0  0  0  0  0
    0.7034    1.9100   40.8124 O   0  0  0  0  0  0  0  0  0  0  0  0
    0.8713    3.6112   42.6972 O   0  0  0  0  0  0  0  0  0  0  0  0
    2.4214    3.7979   40.7129 O   0  0  0  0  0  0  0  0  0  0  0  0
    2.6852    1.9588   42.2934 O   0  0  0  0  0  0  0  0  0  0  0  0
    3.4109    2.4797   43.4207 C   0  0  1  0  0  0  0  0  0  0  0  0
    4.6521    1.3702   45.3459 C   0  0  0  0  0  0  0  0  0  0  0  0
    4.9366    2.2297   46.2021 O   0  0  0  0  0  0  0  0  0  0  0  0
    5.4180    0.4050   45.0869 O   0  0  0  0  0  0  0  0  0  0  0  0
    3.3451    1.4947   44.5980 C   0  0  1  0  0  0  0  0  0  0  0  0
    4.8655    2.7485   43.0025 C   0  0  0  0  0  0  0  0  0  0  0  0
    0.7944    0.5916   44.3824 O   0  0  0  0  0  0  0  0  0  0  0  0
    1.0447    1.3643   45.2970 C   0  0  0  0  0  0  0  0  0  0  0  0
   -0.0078    1.8112   46.2868 C   0  0  0  0  0  0  0  0  0  0  0  0
    0.3324    1.3506   47.7014 C   0  0  0  0  0  0  0  0  0  0  0  0
   -0.9129    0.8886   48.4510 C   0  0  0  0  0  0  0  0  0  0  0  0
   -2.1070    1.8098   48.1991 C   0  0  0  0  0  0  0  0  0  0  0  0
   -2.8944    2.0951   49.4840 C   0  0  0  0  0  0  0  0  0  0  0  0
   -2.0204    2.7384   50.5531 C   0  0  0  0  0  0  0  0  0  0  0  0
   -3.1121    3.5509   51.7781 S   0  0  0  0  0  0  0  0  0  0  0  0
    2.4263    2.4976   46.2700 H   0  0  0  0  0  0  0  0  0  0  0  0
    2.9556    3.4249   43.7512 H   0  0  0  0  0  0  0  0  0  0  0  0
    3.1521    0.4968   44.1773 H   0  0  0  0  0  0  0  0  0  0  0  0
    5.4899    2.8639   43.9007 H   0  0  0  0  0  0  0  0  0  0  0  0
    5.2370    1.9038   42.4037 H   0  0  0  0  0  0  0  0  0  0  0  0
    4.9105    3.6702   42.4037 H   0  0  0  0  0  0  0  0  0  0  0  0
   -0.0703    2.9093   46.2725 H   0  0  0  0  0  0  0  0  0  0  0  0
   -0.9700    1.3636   45.9972 H   0  0  0  0  0  0  0  0  0  0  0  0
    1.0459    0.5154   47.6439 H   0  0  0  0  0  0  0  0  0  0  0  0
    0.7691    2.2004   48.2465 H   0  0  0  0  0  0  0  0  0  0  0  0
   -1.1715   -0.1274   48.1180 H   0  0  0  0  0  0  0  0  0  0  0  0
   -0.6888    0.9090   49.5277 H   0  0  0  0  0  0  0  0  0  0  0  0
   -1.7403    2.7622   47.7886 H   0  0  0  0  0  0  0  0  0  0  0  0
   -2.7820    1.3051   47.4923 H   0  0  0  0  0  0  0  0  0  0  0  0
   -3.7264    2.7749   49.2480 H   0  0  0  0  0  0  0  0  0  0  0  0
   -3.2653    1.1370   49.8770 H   0  0  0  0  0  0  0  0  0  0  0  0
   -1.4130    1.9676   51.0501 H   0  0  0  0  0  0  0  0  0  0  0  0
   -1.3470    3.4787   50.0965 H   0  0  0  0  0  0  0  0  0  0  0  0
   -2.6911    3.2376   53.0436 H   0  0  0  0  0  0  0  0  0  0  0  0
 11  1  1  0
  1 14  1  0
  2  3  2  0
  2  4  1  1
  2  5  1  0
  2  6  1  0
  6  7  1  0
  7 11  1  0
  7 12  1  0
  8  9  1  0
  8 10  2  0
  8 11  1  0
 13 14  2  0
 14 15  1  0
 15 16  1  0
 16 17  1  0
 17 18  1  0
 18 19  1  0
 19 20  1  0
 20 21  1  0
  1 22  1  0
  7 23  1  1
 11 24  1  6
 12 25  1  0
 12 26  1  0
 12 27  1  0
 15 28  1  0
 15 29  1  0
 16 30  1  0
 16 31  1  0
 17 32  1  0
 17 33  1  0
 18 34  1  0
 18 35  1  0
 19 36  1  0
 19 37  1  0
 20 38  1  0
 20 39  1  0
 21 40  1  0
M  CHG  3   4  -1   5  -1   9  -1
M  END
>  <filename_input>  (2) 
7B2C_TP7_docked.sdf

>  <pdb_id>  (2) 
7B2C_TP7

>  <pose_rank>  (2) 
1

>  <num_atoms_heavy>  (2) 
21

>  <num_torsions>  (2) 
11

>  <pose>  (2) 
[3.3450807568274143, 1.4946882770634067, 44.59804867346103, 3.144184270022941, 0.5542561462482332, -2.3272182657464415, 6.018399315836603, 1.716970380253779, -5.494011783749749, 4.42710031306352, -10.106790589341873, -6.552471332411537, -0.36195246386302526, -0.468907064644971, -2.823211363920552, -0.27729192448848966, 4.371591204769874]

>  <energy>  (2) 
-635.5422259626855

>  <inter_energy>  (2) 
-650.5278427951937

>  <intra_energy>  (2) 
14.587084837865262

>  <rmsd>  (2) 
3.46421

>  <sdf_rank>  (2) 
0

$$$$

     RDKit          3D

 40 39  0  0  0  0  0  0  0  0999 V2000
    0.0966    1.5719   47.7824 N   0  0  0  0  0  0  0  0  0  0  0  0
   -4.2663    1.6798   47.9414 P   0  0  2  0  0  0  0  0  0  0  0  0
   -3.5801    2.7571   47.1337 O   0  0  0  0  0  0  0  0  0  0  0  0
   -4.4027    0.3514   47.2368 O   0  0  0  0  0  0  0  0  0  0  0  0
   -5.5517    2.1184   48.6270 O   0  0  0  0  0  0  0  0  0  0  0  0
   -3.2860    1.4116   49.1894 O   0  0  0  0  0  0  0  0  0  0  0  0
   -1.9559    0.9209   48.9465 C   0  0  1  0  0  0  0  0  0  0  0  0
   -0.5637    2.9013   49.7321 C   0  0  0  0  0  0  0  0  0  0  0  0
   -0.3445    4.1166   49.5652 O   0  0  0  0  0  0  0  0  0  0  0  0
   -0.4133    2.3418   50.8501 O   0  0  0  0  0  0  0  0  0  0  0  0
   -1.0248    2.0777   48.5523 C   0  0  1  0  0  0  0  0  0  0  0  0
   -1.4463    0.2027   50.2065 C   0  0  0  0  0  0  0  0  0  0  0  0
   -1.0274    1.6727   45.8682 O   0  0  0  0  0  0  0  0  0  0  0  0
   -0.0018    1.4055   46.4789 C   0  0  0  0  0  0  0  0  0  0  0  0
    1.2336    0.8732   45.7877 C   0  0  0  0  0  0  0  0  0  0  0  0
    1.4127    1.5062   44.4106 C   0  0  0  0  0  0  0  0  0  0  0  0
    2.8572    1.4006   43.9331 C   0  0  0  0  0  0  0  0  0  0  0  0
    3.8412    1.9676   44.9570 C   0  0  0  0  0  0  0  0  0  0  0  0
    5.2681    1.4535   44.7294 C   0  0  0  0  0  0  0  0  0  0  0  0
    5.8034    0.7098   45.9464 C   0  0  0  0  0  0  0  0  0  0  0  0
    7.6078    0.4816   45.7350 S   0  0  0  0  0  0  0  0  0  0  0  0
    0.9793    1.3404   48.2602 H   0  0  0  0  0  0  0  0  0  0  0  0
   -1.9706    0.2054   48.1111 H   0  0  0  0  0  0  0  0  0  0  0  0
   -1.6091    2.7665   47.9246 H   0  0  0  0  0  0  0  0  0  0  0  0
   -1.8167    0.7246   51.1011 H   0  0  0  0  0  0  0  0  0  0  0  0
   -1.8112   -0.8350   50.2100 H   0  0  0  0  0  0  0  0  0  0  0  0
   -0.3463    0.2046   50.2100 H   0  0  0  0  0  0  0  0  0  0  0  0
    2.1156    1.1006   46.4043 H   0  0  0  0  0  0  0  0  0  0  0  0
    1.1193   -0.2132   45.6590 H   0  0  0  0  0  0  0  0  0  0  0  0
    0.7595    0.9898   43.6917 H   0  0  0  0  0  0  0  0  0  0  0  0
    1.1489    2.5716   44.4825 H   0  0  0  0  0  0  0  0  0  0  0  0
    3.0972    0.3414   43.7584 H   0  0  0  0  0  0  0  0  0  0  0  0
    2.9533    1.9878   43.0078 H   0  0  0  0  0  0  0  0  0  0  0  0
    3.8424    3.0648   44.8785 H   0  0  0  0  0  0  0  0  0  0  0  0
    3.5177    1.6402   45.9561 H   0  0  0  0  0  0  0  0  0  0  0  0
    5.2670    0.7705   43.8671 H   0  0  0  0  0  0  0  0  0  0  0  0
    5.9186    2.3214   44.5461 H   0  0  0  0  0  0  0  0  0  0  0  0
    5.6069    1.2960   46.8563 H   0  0  0  0  0  0  0  0  0  0  0  0
    5.3069   -0.2671   46.0415 H   0  0  0  0  0  0  0  0  0  0  0  0
    8.2058    0.4060   46.9653 H   0  0  0  0  0  0  0  0  0  0  0  0
 11  1  1  0
  1 14  1  0
  2  3  2  0
  2  4  1  6
  2  5  1  0
  2  6  1  0
  6  7  1  0
  7 11  1  0
  7 12  1  0
  8  9  1  0
  8 10  2  0
  8 11  1  0
 13 14  2  0
 14 15  1  0
 15 16  1  0
 16 17  1  0
 17 18  1  0
 18 19  1  0
 19 20  1  0
 20 21  1  0
  1 22  1  0
  7 23  1  6
 11 24  1  6
 12 25  1  0
 12 26  1  0
 12 27  1  0
 15 28  1  0
 15 29  1  0
 16 30  1  0
 16 31  1  0
 17 32  1  0
 17 33  1  0
 18 34  1  0
 18 35  1  0
 19 36  1  0
 19 37  1  0
 20 38  1  0
 20 39  1  0
 21 40  1  0
M  CHG  3   4  -1   5  -1   9  -1
M  END
>  <filename_input>  (3) 
7B2C_TP7_docked.sdf

>  <pdb_id>  (3) 
7B2C_TP7

>  <pose_rank>  (3) 
2

>  <num_atoms_heavy>  (3) 
21

>  <num_torsions>  (3) 
11

>  <pose>  (3) 
[-1.0248226101284397, 2.0776664187403076, 48.552264186429376, -1.4710637162678144, 2.7178232481403244, -1.4094821669743844, -0.332336128134814, 0.31141825680617713, -0.2731302065211829, -2.065940467918283, 1.378990831117584, -3.399829935251791, 0.19913667915126543, 1.7989277638786187, 2.390129547526187, -7.382069177238332, 6.087289226962247]

>  <energy>  (3) 
-300.10750289291246

>  <inter_energy>  (3) 
-352.6260454434334

>  <intra_energy>  (3) 
56.06190714526509

>  <rmsd>  (3) 
8.32919

>  <sdf_rank>  (3) 
0

$$$$

     RDKit          3D

 40 39  0  0  0  0  0  0  0  0999 V2000
    1.8075    1.9729   46.2159 N   0  0  0  0  0  0  0  0  0  0  0  0
    6.0668    1.4480   44.0838 P   0  0  2  0  0  0  0  0  0  0  0  0
    5.8749    2.9035   43.7251 O   0  0  0  0  0  0  0  0  0  0  0  0
    7.2818    1.1608   44.9327 O   0  0  0  0  0  0  0  0  0  0  0  0
    5.9186    0.4797   42.9196 O   0  0  0  0  0  0  0  0  0  0  0  0
    4.7975    1.0779   45.0016 O   0  0  0  0  0  0  0  0  0  0  0  0
    3.4737    1.3763   44.5248 C   0  0  1  0  0  0  0  0  0  0  0  0
    2.3446    3.6573   44.5191 C   0  0  0  0  0  0  0  0  0  0  0  0
    2.0258    3.4404   43.3341 O   0  0  0  0  0  0  0  0  0  0  0  0
    2.2584    4.8021   45.0362 O   0  0  0  0  0  0  0  0  0  0  0  0
    2.8493    2.5063   45.3578 C   0  0  1  0  0  0  0  0  0  0  0  0
    3.5485    1.7591   43.0378 C   0  0  0  0  0  0  0  0  0  0  0  0
    0.7981    0.9318   44.5321 O   0  0  0  0  0  0  0  0  0  0  0  0
    0.8480    1.2176   45.7205 C   0  0  0  0  0  0  0  0  0  0  0  0
   -0.1788    0.7213   46.7136 C   0  0  0  0  0  0  0  0  0  0  0  0
   -0.1202    1.5177   48.0141 C   0  0  0  0  0  0  0  0  0  0  0  0
   -1.0584    0.9354   49.0662 C   0  0  0  0  0  0  0  0  0  0  0  0
   -2.0636    1.9705   49.5722 C   0  0  0  0  0  0  0  0  0  0  0  0
   -1.6281    2.5914   50.9053 C   0  0  0  0  0  0  0  0  0  0  0  0
   -2.5331    3.7464   51.3149 C   0  0  0  0  0  0  0  0  0  0  0  0
   -3.7472    3.1225   52.5353 S   0  0  0  0  0  0  0  0  0  0  0  0
    1.8182    2.1871   47.2233 H   0  0  0  0  0  0  0  0  0  0  0  0
    2.8315    0.4896   44.6315 H   0  0  0  0  0  0  0  0  0  0  0  0
    3.6487    2.9288   45.9844 H   0  0  0  0  0  0  0  0  0  0  0  0
    3.7589    2.8349   42.9462 H   0  0  0  0  0  0  0  0  0  0  0  0
    4.3516    1.1858   42.5515 H   0  0  0  0  0  0  0  0  0  0  0  0
    2.5887    1.5305   42.5515 H   0  0  0  0  0  0  0  0  0  0  0  0
   -1.1819    0.8251   46.2744 H   0  0  0  0  0  0  0  0  0  0  0  0
    0.0384   -0.3328   46.9411 H   0  0  0  0  0  0  0  0  0  0  0  0
    0.9092    1.4958   48.4012 H   0  0  0  0  0  0  0  0  0  0  0  0
   -0.4358    2.5499   47.8024 H   0  0  0  0  0  0  0  0  0  0  0  0
   -1.6090    0.0922   48.6235 H   0  0  0  0  0  0  0  0  0  0  0  0
   -0.4488    0.6071   49.9210 H   0  0  0  0  0  0  0  0  0  0  0  0
   -2.1581    2.7697   48.8224 H   0  0  0  0  0  0  0  0  0  0  0  0
   -3.0246    1.4600   49.7334 H   0  0  0  0  0  0  0  0  0  0  0  0
   -1.6628    1.8177   51.6864 H   0  0  0  0  0  0  0  0  0  0  0  0
   -0.6080    2.9840   50.7820 H   0  0  0  0  0  0  0  0  0  0  0  0
   -1.9308    4.5484   51.7665 H   0  0  0  0  0  0  0  0  0  0  0  0
   -3.0546    4.1493   50.4342 H   0  0  0  0  0  0  0  0  0  0  0  0
   -3.2844    3.3603   53.8026 H   0  0  0  0  0  0  0  0  0  0  0  0
 11  1  1  0
  1 14  1  0
  2  3  2  0
  2  4  1  1
  2  5  1  0
  2  6  1  0
  6  7  1  0
  7 11  1  0
  7 12  1  0
  8  9  1  0
  8 10  2  0
  8 11  1  0
 13 14  2  0
 14 15  1  0
 15 16  1  0
 16 17  1  0
 17 18  1  0
 18 19  1  0
 19 20  1  0
 20 21  1  0
  1 22  1  0
  7 23  1  6
 11 24  1  1
 12 25  1  0
 12 26  1  0
 12 27  1  0
 15 28  1  0
 15 29  1  0
 16 30  1  0
 16 31  1  0
 17 32  1  0
 17 33  1  0
 18 34  1  0
 18 35  1  0
 19 36  1  0
 19 37  1  0
 20 38  1  0
 20 39  1  0
 21 40  1  0
M  CHG  3   4  -1   5  -1   9  -1
M  END
>  <filename_input>  (4) 
7B2C_TP7_docked.sdf

>  <pdb_id>  (4) 
7B2C_TP7

>  <pose_rank>  (4) 
3

>  <num_atoms_heavy>  (4) 
21

>  <num_torsions>  (4) 
11

>  <pose>  (4) 
[2.8493250526068445, 2.5062821778920386, 45.357805457480325, -2.995510003562036, -1.424385170275003, 3.2586800131486107, 9.84263984229106, 3.0989826011697286, 0.19353009657490064, -9.563704406946089, 3.1375499126597326, -10.845899844668109, -1.4426528698153371, -7.741332531344076, -3.0542731043964273, 1.832386115326894, 1.7955229902519412]

>  <energy>  (4) 
-532.942791659959

>  <inter_energy>  (4) 
-670.0540005987795

>  <intra_energy>  (4) 
140.5880641934236

>  <rmsd>  (4) 
2.02527

>  <sdf_rank>  (4) 
0

$$$$

     RDKit          3D

 40 39  0  0  0  0  0  0  0  0999 V2000
   -0.4732    1.5296   46.6988 N   0  0  0  0  0  0  0  0  0  0  0  0
   -1.8286    2.9439   51.1606 P   0  0  2  0  0  0  0  0  0  0  0  0
   -3.0806    3.7835   51.2686 O   0  0  0  0  0  0  0  0  0  0  0  0
   -1.5121    2.1201   52.3856 O   0  0  0  0  0  0  0  0  0  0  0  0
   -0.6136    3.6786   50.6139 O   0  0  0  0  0  0  0  0  0  0  0  0
   -2.1425    1.8828   49.9918 O   0  0  0  0  0  0  0  0  0  0  0  0
   -1.8089    2.2142   48.6325 C   0  0  1  0  0  0  0  0  0  0  0  0
   -1.0325   -0.1930   48.3495 C   0  0  0  0  0  0  0  0  0  0  0  0
   -0.1891   -0.8933   48.9422 O   0  0  0  0  0  0  0  0  0  0  0  0
   -2.1309   -0.6625   47.9514 O   0  0  0  0  0  0  0  0  0  0  0  0
   -0.7223    1.2652   48.1039 C   0  0  1  0  0  0  0  0  0  0  0  0
   -3.0790    2.1393   47.7698 C   0  0  0  0  0  0  0  0  0  0  0  0
    1.6963    1.0867   46.8848 O   0  0  0  0  0  0  0  0  0  0  0  0
    0.7404    1.4189   46.1976 C   0  0  0  0  0  0  0  0  0  0  0  0
    0.8734    1.7193   44.7214 C   0  0  0  0  0  0  0  0  0  0  0  0
    1.4507    3.1131   44.4906 C   0  0  0  0  0  0  0  0  0  0  0  0
    2.8101    3.0456   43.8025 C   0  0  0  0  0  0  0  0  0  0  0  0
    3.6015    1.8054   44.2195 C   0  0  0  0  0  0  0  0  0  0  0  0
    4.7898    1.5409   43.2867 C   0  0  0  0  0  0  0  0  0  0  0  0
    6.0561    1.2041   44.0637 C   0  0  0  0  0  0  0  0  0  0  0  0
    6.0373    2.1467   45.6333 S   0  0  0  0  0  0  0  0  0  0  0  0
   -1.2538    1.8067   46.0866 H   0  0  0  0  0  0  0  0  0  0  0  0
   -1.4083    3.2377   48.5872 H   0  0  0  0  0  0  0  0  0  0  0  0
    0.1949    1.4700   48.6755 H   0  0  0  0  0  0  0  0  0  0  0  0
   -3.9630    2.0872   48.4223 H   0  0  0  0  0  0  0  0  0  0  0  0
   -3.1443    3.0352   47.1348 H   0  0  0  0  0  0  0  0  0  0  0  0
   -3.0386    1.2420   47.1348 H   0  0  0  0  0  0  0  0  0  0  0  0
    1.5402    0.9745   44.2625 H   0  0  0  0  0  0  0  0  0  0  0  0
   -0.1272    1.6775   44.2664 H   0  0  0  0  0  0  0  0  0  0  0  0
    0.7576    3.6872   43.8581 H   0  0  0  0  0  0  0  0  0  0  0  0
    1.5814    3.5998   45.4683 H   0  0  0  0  0  0  0  0  0  0  0  0
    2.6563    3.0193   42.7137 H   0  0  0  0  0  0  0  0  0  0  0  0
    3.3869    3.9333   44.1012 H   0  0  0  0  0  0  0  0  0  0  0  0
    3.9789    1.9524   45.2423 H   0  0  0  0  0  0  0  0  0  0  0  0
    2.9272    0.9381   44.1647 H   0  0  0  0  0  0  0  0  0  0  0  0
    4.5425    0.6969   42.6260 H   0  0  0  0  0  0  0  0  0  0  0  0
    4.9785    2.4559   42.7062 H   0  0  0  0  0  0  0  0  0  0  0  0
    6.0849    0.1256   44.2782 H   0  0  0  0  0  0  0  0  0  0  0  0
    6.9448    1.4706   43.4728 H   0  0  0  0  0  0  0  0  0  0  0  0
    6.0547    1.2748   46.6899 H   0  0  0  0  0  0  0  0  0  0  0  0
 11  1  1  0
  1 14  1  0
  2  3  2  0
  2  4  1  1
  2  5  1  0
  2  6  1  0
  6  7  1  0
  7 11  1  0
  7 12  1  0
  8  9  1  0
  8 10  2  0
  8 11  1  0
 13 14  2  0
 14 15  1  0
 15 16  1  0
 16 17  1  0
 17 18  1  0
 18 19  1  0
 19 20  1  0
 20 21  1  0
  1 22  1  0
  7 23  1  1
 11 24  1  1
 12 25  1  0
 12 26  1  0
 12 27  1  0
 15 28  1  0
 15 29  1  0
 16 30  1  0
 16 31  1  0
 17 32  1  0
 17 33  1  0
 18 34  1  0
 18 35  1  0
 19 36  1  0
 19 37  1  0
 20 38  1  0
 20 39  1  0
 21 40  1  0
M  CHG  3   4  -1   5  -1   9  -1
M  END
>  <filename_input>  (5) 
7B2C_TP7_docked.sdf

>  <pdb_id>  (5) 
7B2C_TP7

>  <pose_rank>  (5) 
4

>  <num_atoms_heavy>  (5) 
21

>  <num_torsions>  (5) 
11

>  <pose>  (5) 
[-0.722343616554288, 1.2652485078497593, 48.10391915171326, -0.7590955178808318, -2.4423159003375585, -1.2022026374627348, 0.6984699889965315, -1.692234203132608, -1.0232628059864355, 4.575103105118042, 1.465604848474143, 1.065784013213264, -3.751817616209804, 2.190068321590488, 1.8834734380416507, -0.5041917020917307, 2.468838328286611]

>  <energy>  (5) 
-551.8829572013743

>  <inter_energy>  (5) 
-571.3994651999047

>  <intra_energy>  (5) 
19.712614744610164

>  <rmsd>  (5) 
8.04935

>  <sdf_rank>  (5) 
0

$$$$

     RDKit          3D

 40 39  0  0  0  0  0  0  0  0999 V2000
    0.2273    1.6380   47.5194 N   0  0  0  0  0  0  0  0  0  0  0  0
   -2.2752    2.9694   50.8444 P   0  0  2  0  0  0  0  0  0  0  0  0
   -1.9836    2.0827   52.0330 O   0  0  0  0  0  0  0  0  0  0  0  0
   -1.8855    4.4169   51.0246 O   0  0  0  0  0  0  0  0  0  0  0  0
   -3.6661    2.8026   50.2507 O   0  0  0  0  0  0  0  0  0  0  0  0
   -1.3306    2.4077   49.6685 O   0  0  0  0  0  0  0  0  0  0  0  0
   -1.7775    1.2907   48.8802 C   0  0  1  0  0  0  0  0  0  0  0  0
   -1.9128    2.3779   46.5830 C   0  0  0  0  0  0  0  0  0  0  0  0
   -1.2340    3.1975   45.9346 O   0  0  0  0  0  0  0  0  0  0  0  0
   -3.1707    2.3602   46.5292 O   0  0  0  0  0  0  0  0  0  0  0  0
   -1.1987    1.3755   47.4595 C   0  0  1  0  0  0  0  0  0  0  0  0
   -1.3572   -0.0153   49.5738 C   0  0  0  0  0  0  0  0  0  0  0  0
    0.5143    1.1885   45.3622 O   0  0  0  0  0  0  0  0  0  0  0  0
    0.9801    1.5169   46.4446 C   0  0  0  0  0  0  0  0  0  0  0  0
    2.4502    1.8179   46.6327 C   0  0  0  0  0  0  0  0  0  0  0  0
    3.1507    2.0130   45.2909 C   0  0  0  0  0  0  0  0  0  0  0  0
    4.1439    0.8895   45.0129 C   0  0  0  0  0  0  0  0  0  0  0  0
    5.2953    1.3519   44.1193 C   0  0  0  0  0  0  0  0  0  0  0  0
    6.6493    0.8193   44.6041 C   0  0  0  0  0  0  0  0  0  0  0  0
    7.7364    0.9925   43.5511 C   0  0  0  0  0  0  0  0  0  0  0  0
    9.3619    0.9851   44.3939 S   0  0  0  0  0  0  0  0  0  0  0  0
    0.6559    1.9220   48.4119 H   0  0  0  0  0  0  0  0  0  0  0  0
   -2.8741    1.3109   48.7951 H   0  0  0  0  0  0  0  0  0  0  0  0
   -1.3639    0.3986   46.9817 H   0  0  0  0  0  0  0  0  0  0  0  0
   -1.4003    0.1186   50.6647 H   0  0  0  0  0  0  0  0  0  0  0  0
   -2.0403   -0.8246   49.2764 H   0  0  0  0  0  0  0  0  0  0  0  0
   -0.3304   -0.2744   49.2764 H   0  0  0  0  0  0  0  0  0  0  0  0
    2.5548    2.7364   47.2288 H   0  0  0  0  0  0  0  0  0  0  0  0
    2.9166    0.9653   47.1479 H   0  0  0  0  0  0  0  0  0  0  0  0
    2.3951    2.0286   44.4917 H   0  0  0  0  0  0  0  0  0  0  0  0
    3.7035    2.9634   45.3241 H   0  0  0  0  0  0  0  0  0  0  0  0
    4.5565    0.5354   45.9692 H   0  0  0  0  0  0  0  0  0  0  0  0
    3.6085    0.0844   44.4884 H   0  0  0  0  0  0  0  0  0  0  0  0
    5.1175    0.9904   43.0957 H   0  0  0  0  0  0  0  0  0  0  0  0
    5.3310    2.4508   44.1529 H   0  0  0  0  0  0  0  0  0  0  0  0
    6.9427    1.3668   45.5119 H   0  0  0  0  0  0  0  0  0  0  0  0
    6.5400   -0.2561   44.8084 H   0  0  0  0  0  0  0  0  0  0  0  0
    7.6889    0.1649   42.8280 H   0  0  0  0  0  0  0  0  0  0  0  0
    7.5938    1.9409   43.0123 H   0  0  0  0  0  0  0  0  0  0  0  0
    9.1727    0.9860   45.7508 H   0  0  0  0  0  0  0  0  0  0  0  0
 11  1  1  0
  1 14  1  0
  2  3  2  0
  2  4  1  1
  2  5  1  0
  2  6  1  0
  6  7  1  0
  7 11  1  0
  7 12  1  0
  8  9  1  0
  8 10  2  0
  8 11  1  0
 13 14  2  0
 14 15  1  0
 15 16  1  0
 16 17  1  0
 17 18  1  0
 18 19  1  0
 19 20  1  0
 20 21  1  0
  1 22  1  0
  7 23  1  6
 11 24  1  6
 12 25  1  0
 12 26  1  0
 12 27  1  0
 15 28  1  0
 15 29  1  0
 16 30  1  0
 16 31  1  0
 17 32  1  0
 17 33  1  0
 18 34  1  0
 18 35  1  0
 19 36  1  0
 19 37  1  0
 20 38  1  0
 20 39  1  0
 21 40  1  0
M  CHG  3   4  -1   5  -1   9  -1
M  END
>  <filename_input>  (6) 
7B2C_TP7_docked.sdf

>  <pdb_id>  (6) 
7B2C_TP7

>  <pose_rank>  (6) 
5

>  <num_atoms_heavy>  (6) 
21

>  <num_torsions>  (6) 
11

>  <pose>  (6) 
[-1.1987487633069056, 1.3755365615476522, 47.459504646752904, 1.2393338332027148, -0.2005201690780589, 2.64502007575396, 1.101859296212828, -0.06236247932566618, -5.007255353177376, 2.5029056010149686, -5.308090282555251, 7.895211597729434, -0.42064693298441724, -5.885781046074935, 12.235971683771876, 0.09974132107005028, -3.9287573978131225]

>  <energy>  (6) 
-508.06751388867605

>  <inter_energy>  (6) 
-558.9107655355929

>  <intra_energy>  (6) 
46.578516661754

>  <rmsd>  (6) 
8.45994

>  <sdf_rank>  (6) 
0

$$$$

     RDKit          3D

 40 39  0  0  0  0  0  0  0  0999 V2000
    2.2379    1.4874   43.5087 N   0  0  0  0  0  0  0  0  0  0  0  0
    6.0679    0.7938   44.3174 P   0  0  2  0  0  0  0  0  0  0  0  0
    5.5756    0.8346   42.8891 O   0  0  0  0  0  0  0  0  0  0  0  0
    7.1993    1.7455   44.6237 O   0  0  0  0  0  0  0  0  0  0  0  0
    6.3068   -0.6036   44.8696 O   0  0  0  0  0  0  0  0  0  0  0  0
    4.8209    1.3025   45.1987 O   0  0  0  0  0  0  0  0  0  0  0  0
    4.0891    2.4664   44.7762 C   0  0  1  0  0  0  0  0  0  0  0  0
    1.7252    3.3905   44.9646 C   0  0  0  0  0  0  0  0  0  0  0  0
    1.0826    3.4885   46.0279 O   0  0  0  0  0  0  0  0  0  0  0  0
    1.6815    4.2781   44.0726 O   0  0  0  0  0  0  0  0  0  0  0  0
    2.5826    2.1661   44.7443 C   0  0  1  0  0  0  0  0  0  0  0  0
    4.4028    3.6316   45.7286 C   0  0  0  0  0  0  0  0  0  0  0  0
    0.9919   -0.0253   44.5560 O   0  0  0  0  0  0  0  0  0  0  0  0
    1.4581    0.4252   43.5188 C   0  0  0  0  0  0  0  0  0  0  0  0
    1.1705   -0.1937   42.1692 C   0  0  0  0  0  0  0  0  0  0  0  0
    1.4924    0.7766   41.0360 C   0  0  0  0  0  0  0  0  0  0  0  0
    2.5608    0.2115   40.1059 C   0  0  0  0  0  0  0  0  0  0  0  0
    3.8918   -0.0035   40.8273 C   0  0  0  0  0  0  0  0  0  0  0  0
    5.0920    0.3111   39.9258 C   0  0  0  0  0  0  0  0  0  0  0  0
    5.7108   -0.9537   39.3443 C   0  0  0  0  0  0  0  0  0  0  0  0
    5.8310   -0.7542   37.5282 S   0  0  0  0  0  0  0  0  0  0  0  0
    2.6069    1.8398   42.6139 H   0  0  0  0  0  0  0  0  0  0  0  0
    4.3945    2.7479   43.7576 H   0  0  0  0  0  0  0  0  0  0  0  0
    2.3654    1.4998   45.5921 H   0  0  0  0  0  0  0  0  0  0  0  0
    4.3106    3.2891   46.7699 H   0  0  0  0  0  0  0  0  0  0  0  0
    5.4284    3.9862   45.5487 H   0  0  0  0  0  0  0  0  0  0  0  0
    3.6939    4.4532   45.5487 H   0  0  0  0  0  0  0  0  0  0  0  0
    1.7844   -1.0988   42.0515 H   0  0  0  0  0  0  0  0  0  0  0  0
    0.0999   -0.4416   42.1212 H   0  0  0  0  0  0  0  0  0  0  0  0
    0.5770    0.9660   40.4562 H   0  0  0  0  0  0  0  0  0  0  0  0
    1.8752    1.7089   41.4769 H   0  0  0  0  0  0  0  0  0  0  0  0
    2.2120   -0.7532   39.7088 H   0  0  0  0  0  0  0  0  0  0  0  0
    2.7261    0.9381   39.2968 H   0  0  0  0  0  0  0  0  0  0  0  0
    3.9280    0.6535   41.7088 H   0  0  0  0  0  0  0  0  0  0  0  0
    3.9535   -1.0628   41.1173 H   0  0  0  0  0  0  0  0  0  0  0  0
    4.7573    0.9558   39.0998 H   0  0  0  0  0  0  0  0  0  0  0  0
    5.8553    0.8150   40.5369 H   0  0  0  0  0  0  0  0  0  0  0  0
    6.7142   -1.1056   39.7687 H   0  0  0  0  0  0  0  0  0  0  0  0
    5.0879   -1.8267   39.5887 H   0  0  0  0  0  0  0  0  0  0  0  0
    6.5221    0.3930   37.2395 H   0  0  0  0  0  0  0  0  0  0  0  0
 11  1  1  0
  1 14  1  0
  2  3  2  0
  2  4  1  6
  2  5  1  0
  2  6  1  0
  6  7  1  0
  7 11  1  0
  7 12  1  0
  8  9  1  0
  8 10  2  0
  8 11  1  0
 13 14  2  0
 14 15  1  0
 15 16  1  0
 16 17  1  0
 17 18  1  0
 18 19  1  0
 19 20  1  0
 20 21  1  0
  1 22  1  0
  7 23  1  6
 11 24  1  1
 12 25  1  0
 12 26  1  0
 12 27  1  0
 15 28  1  0
 15 29  1  0
 16 30  1  0
 16 31  1  0
 17 32  1  0
 17 33  1  0
 18 34  1  0
 18 35  1  0
 19 36  1  0
 19 37  1  0
 20 38  1  0
 20 39  1  0
 21 40  1  0
M  CHG  3   4  -1   5  -1   9  -1
M  END
>  <filename_input>  (7) 
7B2C_TP7_docked.sdf

>  <pdb_id>  (7) 
7B2C_TP7

>  <pose_rank>  (7) 
6

>  <num_atoms_heavy>  (7) 
21

>  <num_torsions>  (7) 
11

>  <pose>  (7) 
[2.582625284431548, 2.166125273776935, 44.74425708446016, 2.2292919976902383, 0.5192562494938767, 0.437419059042378, 0.5145379344062455, 2.5114805759833643, -0.9546588322595848, 4.05532557926341, 2.35692153828441, -3.0383939769829222, -0.9383437168147426, 2.4580132971524313, -2.599557294415548, -6.5449163951490155, 0.09629197210830974]

>  <energy>  (7) 
-506.03015559655216

>  <inter_energy>  (7) 
-539.7917927932889

>  <intra_energy>  (7) 
36.97284096007527

>  <rmsd>  (7) 
6.89674

>  <sdf_rank>  (7) 
0

$$$$

     RDKit          3D

 40 39  0  0  0  0  0  0  0  0999 V2000
    2.7742    2.3737   44.0755 N   0  0  0  0  0  0  0  0  0  0  0  0
    1.7256    1.1309   40.3330 P   0  0  2  0  0  0  0  0  0  0  0  0
    1.1711    2.5061   40.6249 O   0  0  0  0  0  0  0  0  0  0  0  0
    2.8457    1.1025   39.3211 O   0  0  0  0  0  0  0  0  0  0  0  0
    0.6746    0.0604   40.0797 O   0  0  0  0  0  0  0  0  0  0  0  0
    2.3809    0.6467   41.7211 O   0  0  0  0  0  0  0  0  0  0  0  0
    3.6524    1.1849   42.1243 C   0  0  1  0  0  0  0  0  0  0  0  0
    5.0966    1.5991   44.1786 C   0  0  0  0  0  0  0  0  0  0  0  0
    5.6839    0.6847   44.7886 O   0  0  0  0  0  0  0  0  0  0  0  0
    5.6275    2.7249   43.9888 O   0  0  0  0  0  0  0  0  0  0  0  0
    3.7039    1.3431   43.6517 C   0  0  1  0  0  0  0  0  0  0  0  0
    4.7727    0.2586   41.6240 C   0  0  0  0  0  0  0  0  0  0  0  0
    1.4038    0.9044   45.0247 O   0  0  0  0  0  0  0  0  0  0  0  0
    1.6783    2.0612   44.7372 C   0  0  0  0  0  0  0  0  0  0  0  0
    0.7893    3.2217   45.1248 C   0  0  0  0  0  0  0  0  0  0  0  0
   -0.5826    2.7374   45.5856 C   0  0  0  0  0  0  0  0  0  0  0  0
   -0.7565    2.9083   47.0911 C   0  0  0  0  0  0  0  0  0  0  0  0
   -1.8693    2.0168   47.6434 C   0  0  0  0  0  0  0  0  0  0  0  0
   -2.2084    2.3561   49.1001 C   0  0  0  0  0  0  0  0  0  0  0  0
   -1.1362    1.8600   50.0619 C   0  0  0  0  0  0  0  0  0  0  0  0
   -0.1673    0.5536   49.2211 S   0  0  0  0  0  0  0  0  0  0  0  0
    2.9731    3.3603   43.8567 H   0  0  0  0  0  0  0  0  0  0  0  0
    3.7913    2.1820   41.6810 H   0  0  0  0  0  0  0  0  0  0  0  0
    3.3973    0.3815   44.0891 H   0  0  0  0  0  0  0  0  0  0  0  0
    5.2999   -0.1773   42.4854 H   0  0  0  0  0  0  0  0  0  0  0  0
    4.3375   -0.5470   41.0144 H   0  0  0  0  0  0  0  0  0  0  0  0
    5.4821    0.8374   41.0144 H   0  0  0  0  0  0  0  0  0  0  0  0
    1.2659    3.7807   45.9435 H   0  0  0  0  0  0  0  0  0  0  0  0
    0.6530    3.8651   44.2430 H   0  0  0  0  0  0  0  0  0  0  0  0
   -1.3598    3.3183   45.0674 H   0  0  0  0  0  0  0  0  0  0  0  0
   -0.6703    1.6674   45.3463 H   0  0  0  0  0  0  0  0  0  0  0  0
    0.1885    2.6470   47.5898 H   0  0  0  0  0  0  0  0  0  0  0  0
   -1.0320    3.9555   47.2849 H   0  0  0  0  0  0  0  0  0  0  0  0
   -2.7710    2.1522   47.0281 H   0  0  0  0  0  0  0  0  0  0  0  0
   -1.5175    0.9751   47.6105 H   0  0  0  0  0  0  0  0  0  0  0  0
   -2.2981    3.4479   49.1996 H   0  0  0  0  0  0  0  0  0  0  0  0
   -3.1543    1.8563   49.3559 H   0  0  0  0  0  0  0  0  0  0  0  0
   -0.4737    2.6925   50.3415 H   0  0  0  0  0  0  0  0  0  0  0  0
   -1.6023    1.4580   50.9736 H   0  0  0  0  0  0  0  0  0  0  0  0
    0.4277   -0.2486   50.1588 H   0  0  0  0  0  0  0  0  0  0  0  0
 11  1  1  0
  1 14  1  0
  2  3  2  0
  2  4  1  6
  2  5  1  0
  2  6  1  0
  6  7  1  0
  7 11  1  0
  7 12  1  0
  8  9  1  0
  8 10  2  0
  8 11  1  0
 13 14  2  0
 14 15  1  0
 15 16  1  0
 16 17  1  0
 17 18  1  0
 18 19  1  0
 19 20  1  0
 20 21  1  0
  1 22  1  0
  7 23  1  6
 11 24  1  1
 12 25  1  0
 12 26  1  0
 12 27  1  0
 15 28  1  0
 15 29  1  0
 16 30  1  0
 16 31  1  0
 17 32  1  0
 17 33  1  0
 18 34  1  0
 18 35  1  0
 19 36  1  0
 19 37  1  0
 20 38  1  0
 20 39  1  0
 21 40  1  0
M  CHG  3   4  -1   5  -1   9  -1
M  END
>  <filename_input>  (8) 
7B2C_TP7_docked.sdf

>  <pdb_id>  (8) 
7B2C_TP7

>  <pose_rank>  (8) 
7

>  <num_atoms_heavy>  (8) 
21

>  <num_torsions>  (8) 
11

>  <pose>  (8) 
[3.703892084509778, 1.3430976091271158, 43.65166751769076, 2.71757461302835, -0.5192145011241125, -1.924672745560947, 0.08721900658819792, -6.841607231803015, -20.002225920375988, -10.206309378631019, 1.8885973457013274, -2.5871478348121615, 2.7667144570964557, 2.5178153286448803, 3.932795919123036, 0.014790472451013262, -0.4457281250498695]

>  <energy>  (8) 
-485.17901501514615

>  <inter_energy>  (8) 
-511.4802891706359

>  <intra_energy>  (8) 
24.104180651183597

>  <rmsd>  (8) 
3.81628

>  <sdf_rank>  (8) 
0

$$$$

     RDKit          3D

 40 39  0  0  0  0  0  0  0  0999 V2000
    1.3393    1.6709   45.2588 N   0  0  0  0  0  0  0  0  0  0  0  0
    6.1819    1.0643   44.2905 P   0  0  2  0  0  0  0  0  0  0  0  0
    6.4885    2.1372   45.3098 O   0  0  0  0  0  0  0  0  0  0  0  0
    6.3077   -0.3500   44.8037 O   0  0  0  0  0  0  0  0  0  0  0  0
    6.8479    1.2620   42.9369 O   0  0  0  0  0  0  0  0  0  0  0  0
    4.6238    1.2624   43.9385 O   0  0  0  0  0  0  0  0  0  0  0  0
    3.7543    1.8679   44.9112 C   0  0  1  0  0  0  0  0  0  0  0  0
    2.1721    1.4258   42.9673 C   0  0  0  0  0  0  0  0  0  0  0  0
    2.4793    2.0599   41.9394 O   0  0  0  0  0  0  0  0  0  0  0  0
    1.7147    0.2537   42.9184 O   0  0  0  0  0  0  0  0  0  0  0  0
    2.3568    2.0890   44.3123 C   0  0  1  0  0  0  0  0  0  0  0  0
    3.6886    0.9689   46.1565 C   0  0  0  0  0  0  0  0  0  0  0  0
    1.2352    3.6787   46.2052 O   0  0  0  0  0  0  0  0  0  0  0  0
    0.8563    2.5171   46.1459 C   0  0  0  0  0  0  0  0  0  0  0  0
   -0.1995    1.9642   47.0770 C   0  0  0  0  0  0  0  0  0  0  0  0
   -1.5980    2.1341   46.4902 C   0  0  0  0  0  0  0  0  0  0  0  0
   -1.6670    3.3370   45.5552 C   0  0  0  0  0  0  0  0  0  0  0  0
   -3.1087    3.7092   45.2072 C   0  0  0  0  0  0  0  0  0  0  0  0
   -3.2074    4.4247   43.8542 C   0  0  0  0  0  0  0  0  0  0  0  0
   -4.6374    4.4498   43.3295 C   0  0  0  0  0  0  0  0  0  0  0  0
   -4.8224    5.9018   42.2294 S   0  0  0  0  0  0  0  0  0  0  0  0
    0.9908    0.7019   45.2369 H   0  0  0  0  0  0  0  0  0  0  0  0
    4.1512    2.8513   45.2034 H   0  0  0  0  0  0  0  0  0  0  0  0
    2.2501    3.1676   44.1242 H   0  0  0  0  0  0  0  0  0  0  0  0
    3.7342    1.5924   47.0616 H   0  0  0  0  0  0  0  0  0  0  0  0
    2.7466    0.4010   46.1496 H   0  0  0  0  0  0  0  0  0  0  0  0
    4.5381    0.2701   46.1496 H   0  0  0  0  0  0  0  0  0  0  0  0
   -0.0073    0.8938   47.2417 H   0  0  0  0  0  0  0  0  0  0  0  0
   -0.1508    2.5181   48.0261 H   0  0  0  0  0  0  0  0  0  0  0  0
   -1.8622    1.2272   45.9266 H   0  0  0  0  0  0  0  0  0  0  0  0
   -2.3031    2.2985   47.3183 H   0  0  0  0  0  0  0  0  0  0  0  0
   -1.1869    4.1965   46.0459 H   0  0  0  0  0  0  0  0  0  0  0  0
   -1.1493    3.0721   44.6215 H   0  0  0  0  0  0  0  0  0  0  0  0
   -3.7129    2.7908   45.1680 H   0  0  0  0  0  0  0  0  0  0  0  0
   -3.4786    4.3963   45.9824 H   0  0  0  0  0  0  0  0  0  0  0  0
   -2.8534    5.4595   43.9722 H   0  0  0  0  0  0  0  0  0  0  0  0
   -2.5878    3.8744   43.1309 H   0  0  0  0  0  0  0  0  0  0  0  0
   -4.8427    3.5278   42.7658 H   0  0  0  0  0  0  0  0  0  0  0  0
   -5.3469    4.5170   44.1674 H   0  0  0  0  0  0  0  0  0  0  0  0
   -4.9665    7.0337   42.9876 H   0  0  0  0  0  0  0  0  0  0  0  0
 11  1  1  0
  1 14  1  0
  2  3  2  0
  2  4  1  1
  2  5  1  0
  2  6  1  0
  6  7  1  0
  7 11  1  0
  7 12  1  0
  8  9  1  0
  8 10  2  0
  8 11  1  0
 13 14  2  0
 14 15  1  0
 15 16  1  0
 16 17  1  0
 17 18  1  0
 18 19  1  0
 19 20  1  0
 20 21  1  0
  1 22  1  0
  7 23  1  1
 11 24  1  6
 12 25  1  0
 12 26  1  0
 12 27  1  0
 15 28  1  0
 15 29  1  0
 16 30  1  0
 16 31  1  0
 17 32  1  0
 17 33  1  0
 18 34  1  0
 18 35  1  0
 19 36  1  0
 19 37  1  0
 20 38  1  0
 20 39  1  0
 21 40  1  0
M  CHG  3   4  -1   5  -1   9  -1
M  END
>  <filename_input>  (9) 
7B2C_TP7_docked.sdf

>  <pdb_id>  (9) 
7B2C_TP7

>  <pose_rank>  (9) 
8

>  <num_atoms_heavy>  (9) 
21

>  <num_torsions>  (9) 
11

>  <pose>  (9) 
[2.3568205947752, 2.089033056478212, 44.31225974945038, -1.039158561271182, 1.6228009956841187, 5.688877433518163, -0.27044719268386774, -5.0285625014693, 15.31709422544115, 2.23504716854316, -4.107457690906015, 1.5740998711208558, -6.770212413632559, 2.840368636038587, 1.1867324237861694, 0.5226789638576563, 0.4370417853175136]

>  <energy>  (9) 
-475.3572078552365

>  <inter_energy>  (9) 
-511.7510036137395

>  <intra_energy>  (9) 
39.290336711497545

>  <rmsd>  (9) 
3.48877

>  <sdf_rank>  (9) 
0

$$$$

     RDKit          3D

 40 39  0  0  0  0  0  0  0  0999 V2000
    1.0987    1.0109   44.1152 N   0  0  0  0  0  0  0  0  0  0  0  0
    0.8427    4.0878   41.9457 P   0  0  2  0  0  0  0  0  0  0  0  0
   -0.0641    3.1643   41.1655 O   0  0  0  0  0  0  0  0  0  0  0  0
    0.5376    4.1750   43.4218 O   0  0  0  0  0  0  0  0  0  0  0  0
    1.0655    5.4510   41.3080 O   0  0  0  0  0  0  0  0  0  0  0  0
    2.3025    3.4178   41.8421 O   0  0  0  0  0  0  0  0  0  0  0  0
    2.5854    2.2272   42.5979 C   0  0  1  0  0  0  0  0  0  0  0  0
    1.3408    0.1416   41.8369 C   0  0  0  0  0  0  0  0  0  0  0  0
    0.6565   -0.8474   42.1633 O   0  0  0  0  0  0  0  0  0  0  0  0
    2.0450    0.1527   40.7931 O   0  0  0  0  0  0  0  0  0  0  0  0
    1.3209    1.3638   42.7251 C   0  0  1  0  0  0  0  0  0  0  0  0
    3.7203    1.4516   41.9095 C   0  0  0  0  0  0  0  0  0  0  0  0
    2.5282    2.5453   44.8499 O   0  0  0  0  0  0  0  0  0  0  0  0
    1.7363    1.6420   45.0804 C   0  0  0  0  0  0  0  0  0  0  0  0
    1.4203    1.1852   46.4870 C   0  0  0  0  0  0  0  0  0  0  0  0
    0.2449    1.9642   47.0705 C   0  0  0  0  0  0  0  0  0  0  0  0
   -0.6907    1.0531   47.8582 C   0  0  0  0  0  0  0  0  0  0  0  0
   -1.1990    1.7220   49.1359 C   0  0  0  0  0  0  0  0  0  0  0  0
   -2.7147    1.9533   49.1001 C   0  0  0  0  0  0  0  0  0  0  0  0
   -3.2271    2.5541   50.4029 C   0  0  0  0  0  0  0  0  0  0  0  0
   -2.0169    2.1807   51.7252 S   0  0  0  0  0  0  0  0  0  0  0  0
    0.4353    0.2588   44.3499 H   0  0  0  0  0  0  0  0  0  0  0  0
    2.9066    2.4996   43.6141 H   0  0  0  0  0  0  0  0  0  0  0  0
    0.4752    1.9706   42.3695 H   0  0  0  0  0  0  0  0  0  0  0  0
    4.3743    1.0046   42.6727 H   0  0  0  0  0  0  0  0  0  0  0  0
    3.2925    0.6561   41.2817 H   0  0  0  0  0  0  0  0  0  0  0  0
    4.3060    2.1392   41.2817 H   0  0  0  0  0  0  0  0  0  0  0  0
    1.1672    0.1149   46.4682 H   0  0  0  0  0  0  0  0  0  0  0  0
    2.3037    1.3643   47.1176 H   0  0  0  0  0  0  0  0  0  0  0  0
    0.6313    2.7461   47.7409 H   0  0  0  0  0  0  0  0  0  0  0  0
   -0.3228    2.4081   46.2394 H   0  0  0  0  0  0  0  0  0  0  0  0
   -1.5525    0.7959   47.2249 H   0  0  0  0  0  0  0  0  0  0  0  0
   -0.1266    0.1538   48.1464 H   0  0  0  0  0  0  0  0  0  0  0  0
   -0.9584    1.0772   49.9940 H   0  0  0  0  0  0  0  0  0  0  0  0
   -0.7079    2.7023   49.2244 H   0  0  0  0  0  0  0  0  0  0  0  0
   -2.9504    2.6407   48.2743 H   0  0  0  0  0  0  0  0  0  0  0  0
   -3.2055    0.9794   48.9569 H   0  0  0  0  0  0  0  0  0  0  0  0
   -3.3336    3.6435   50.2933 H   0  0  0  0  0  0  0  0  0  0  0  0
   -4.2085    2.1269   50.6565 H   0  0  0  0  0  0  0  0  0  0  0  0
   -2.6064    2.3626   52.9485 H   0  0  0  0  0  0  0  0  0  0  0  0
 11  1  1  0
  1 14  1  0
  2  3  2  0
  2  4  1  1
  2  5  1  0
  2  6  1  0
  6  7  1  0
  7 11  1  0
  7 12  1  0
  8  9  1  0
  8 10  2  0
  8 11  1  0
 13 14  2  0
 14 15  1  0
 15 16  1  0
 16 17  1  0
 17 18  1  0
 18 19  1  0
 19 20  1  0
 20 21  1  0
  1 22  1  0
  7 23  1  1
 11 24  1  6
 12 25  1  0
 12 26  1  0
 12 27  1  0
 15 28  1  0
 15 29  1  0
 16 30  1  0
 16 31  1  0
 17 32  1  0
 17 33  1  0
 18 34  1  0
 18 35  1  0
 19 36  1  0
 19 37  1  0
 20 38  1  0
 20 39  1  0
 21 40  1  0
M  CHG  3   4  -1   5  -1   9  -1
M  END
>  <filename_input>  (10) 
7B2C_TP7_docked.sdf

>  <pdb_id>  (10) 
7B2C_TP7

>  <pose_rank>  (10) 
9

>  <num_atoms_heavy>  (10) 
21

>  <num_torsions>  (10) 
11

>  <pose>  (10) 
[1.320931278912081, 1.363787453927131, 42.725109484764396, -0.38872313612465115, 0.29191100716740426, 0.43416285858144094, 4.71175687813371, -5.032517881298312, -0.6151160979677083, 1.3156705327916287, -5.698481690512979, 1.7990699447417038, -3.5491573230611393, -5.474988564332646, -3.425583433672634, -1.9435665782313822, -0.3888844030662508]

>  <energy>  (10) 
-388.0523676175475

>  <inter_energy>  (10) 
-526.3063745865288

>  <intra_energy>  (10) 
145.4552018634386

>  <rmsd>  (10) 
3.588

>  <sdf_rank>  (10) 
0

$$$$

     RDKit          3D

 40 39  0  0  0  0  0  0  0  0999 V2000
    4.0476    1.2863   42.7832 N   0  0  0  0  0  0  0  0  0  0  0  0
    0.5149    1.8303   45.6709 P   0  0  2  0  0  0  0  0  0  0  0  0
    0.5293    0.3532   45.3513 O   0  0  0  0  0  0  0  0  0  0  0  0
    0.2180    2.1622   47.1135 O   0  0  0  0  0  0  0  0  0  0  0  0
   -0.2770    2.6862   44.6937 O   0  0  0  0  0  0  0  0  0  0  0  0
    2.0252    2.3233   45.4130 O   0  0  0  0  0  0  0  0  0  0  0  0
    3.0172    1.3662   45.0022 C   0  0  1  0  0  0  0  0  0  0  0  0
    5.4021    2.1703   44.6239 C   0  0  0  0  0  0  0  0  0  0  0  0
    5.5877    3.0334   45.5035 O   0  0  0  0  0  0  0  0  0  0  0  0
    6.3294    1.4243   44.2126 O   0  0  0  0  0  0  0  0  0  0  0  0
    4.0186    2.0179   44.0362 C   0  0  1  0  0  0  0  0  0  0  0  0
    3.7277    0.8114   46.2474 C   0  0  0  0  0  0  0  0  0  0  0  0
    2.5003    2.5861   41.8589 O   0  0  0  0  0  0  0  0  0  0  0  0
    3.2679    1.6369   41.7804 C   0  0  0  0  0  0  0  0  0  0  0  0
    3.3893    0.7988   40.5274 C   0  0  0  0  0  0  0  0  0  0  0  0
    4.7892    0.2065   40.3918 C   0  0  0  0  0  0  0  0  0  0  0  0
    5.0924   -0.1806   38.9481 C   0  0  0  0  0  0  0  0  0  0  0  0
    6.5318   -0.6671   38.7764 C   0  0  0  0  0  0  0  0  0  0  0  0
    7.3842    0.3284   37.9799 C   0  0  0  0  0  0  0  0  0  0  0  0
    7.5312   -0.0905   36.5226 C   0  0  0  0  0  0  0  0  0  0  0  0
    9.2815   -0.5383   36.2252 S   0  0  0  0  0  0  0  0  0  0  0  0
    4.6847    0.4840   42.6766 H   0  0  0  0  0  0  0  0  0  0  0  0
    2.5330    0.5346   44.4692 H   0  0  0  0  0  0  0  0  0  0  0  0
    3.6670    3.0426   43.8451 H   0  0  0  0  0  0  0  0  0  0  0  0
    3.2351    1.1961   47.1525 H   0  0  0  0  0  0  0  0  0  0  0  0
    3.6755   -0.2873   46.2403 H   0  0  0  0  0  0  0  0  0  0  0  0
    4.7810    1.1284   46.2403 H   0  0  0  0  0  0  0  0  0  0  0  0
    2.6561   -0.0201   40.5713 H   0  0  0  0  0  0  0  0  0  0  0  0
    3.1989    1.4443   39.6573 H   0  0  0  0  0  0  0  0  0  0  0  0
    5.5268    0.9514   40.7249 H   0  0  0  0  0  0  0  0  0  0  0  0
    4.8428   -0.7005   41.0118 H   0  0  0  0  0  0  0  0  0  0  0  0
    4.4068   -0.9855   38.6446 H   0  0  0  0  0  0  0  0  0  0  0  0
    4.9584    0.7132   38.3210 H   0  0  0  0  0  0  0  0  0  0  0  0
    6.9815   -0.8034   39.7709 H   0  0  0  0  0  0  0  0  0  0  0  0
    6.5057   -1.6145   38.2180 H   0  0  0  0  0  0  0  0  0  0  0  0
    6.9055    1.3180   38.0192 H   0  0  0  0  0  0  0  0  0  0  0  0
    8.3875    0.3558   38.4302 H   0  0  0  0  0  0  0  0  0  0  0  0
    6.8858   -0.9574   36.3180 H   0  0  0  0  0  0  0  0  0  0  0  0
    7.2340    0.7355   35.8596 H   0  0  0  0  0  0  0  0  0  0  0  0
    9.9213   -0.7020   37.4255 H   0  0  0  0  0  0  0  0  0  0  0  0
 11  1  1  0
  1 14  1  0
  2  3  2  0
  2  4  1  1
  2  5  1  0
  2  6  1  0
  6  7  1  0
  7 11  1  0
  7 12  1  0
  8  9  1  0
  8 10  2  0
  8 11  1  0
 13 14  2  0
 14 15  1  0
 15 16  1  0
 16 17  1  0
 17 18  1  0
 18 19  1  0
 19 20  1  0
 20 21  1  0
  1 22  1  0
  7 23  1  6
 11 24  1  6
 12 25  1  0
 12 26  1  0
 12 27  1  0
 15 28  1  0
 15 29  1  0
 16 30  1  0
 16 31  1  0
 17 32  1  0
 17 33  1  0
 18 34  1  0
 18 35  1  0
 19 36  1  0
 19 37  1  0
 20 38  1  0
 20 39  1  0
 21 40  1  0
M  CHG  3   4  -1   5  -1   9  -1
M  END
>  <filename_input>  (11) 
7B2C_TP7_docked.sdf

>  <pdb_id>  (11) 
7B2C_TP7

>  <pose_rank>  (11) 
10

>  <num_atoms_heavy>  (11) 
21

>  <num_torsions>  (11) 
11

>  <pose>  (11) 
[4.0185676583189345, 2.0179315486264295, 44.036189971807524, -1.421549864442637, 3.7719319644333886, -0.7168021647853555, -0.21808000374602307, -3.9690225491175912, 0.46841490043179435, 1.929481097649948, -3.34661250291138, -3.0330613516350797, 1.148126228350065, -3.160621572471311, -3.315402876452645, 6.302781903585132, 7.149135002025108]

>  <energy>  (11) 
-405.642270607173

>  <inter_energy>  (11) 
-425.7150464189058

>  <intra_energy>  (11) 
15.741420561681286

>  <rmsd>  (11) 
8.99656

>  <sdf_rank>  (11) 
0

$$$$

     RDKit          3D

 40 39  0  0  0  0  0  0  0  0999 V2000
   -0.3347    1.0752   46.7021 N   0  0  0  0  0  0  0  0  0  0  0  0
   -2.5795    2.2724   51.0174 P   0  0  2  0  0  0  0  0  0  0  0  0
   -3.8665    2.2915   50.2254 O   0  0  0  0  0  0  0  0  0  0  0  0
   -2.4045    1.0678   51.9106 O   0  0  0  0  0  0  0  0  0  0  0  0
   -2.2428    3.5802   51.7182 O   0  0  0  0  0  0  0  0  0  0  0  0
   -1.4153    2.1664   49.9110 O   0  0  0  0  0  0  0  0  0  0  0  0
   -1.5794    1.2662   48.8012 C   0  0  1  0  0  0  0  0  0  0  0  0
   -0.5243    3.3045   47.7015 C   0  0  0  0  0  0  0  0  0  0  0  0
   -0.2020    3.6393   48.8578 O   0  0  0  0  0  0  0  0  0  0  0  0
   -0.3237    4.0522   46.7083 O   0  0  0  0  0  0  0  0  0  0  0  0
   -1.1754    1.9576   47.4900 C   0  0  1  0  0  0  0  0  0  0  0  0
   -0.7353    0.0051   49.0468 C   0  0  0  0  0  0  0  0  0  0  0  0
    1.4911    1.6030   47.8535 O   0  0  0  0  0  0  0  0  0  0  0  0
    0.9548    0.9722   46.9531 C   0  0  0  0  0  0  0  0  0  0  0  0
    1.7248    0.0205   46.0651 C   0  0  0  0  0  0  0  0  0  0  0  0
    2.4840    0.7725   44.9756 C   0  0  0  0  0  0  0  0  0  0  0  0
    3.6424    1.5759   45.5577 C   0  0  0  0  0  0  0  0  0  0  0  0
    4.3501    2.4137   44.4921 C   0  0  0  0  0  0  0  0  0  0  0  0
    3.4428    2.6997   43.2891 C   0  0  0  0  0  0  0  0  0  0  0  0
    4.1988    2.5917   41.9709 C   0  0  0  0  0  0  0  0  0  0  0  0
    4.6901    0.8445   41.7295 S   0  0  0  0  0  0  0  0  0  0  0  0
   -0.7506    0.5233   45.9384 H   0  0  0  0  0  0  0  0  0  0  0  0
   -2.6363    0.9746   48.7124 H   0  0  0  0  0  0  0  0  0  0  0  0
   -2.1008    2.1639   46.9321 H   0  0  0  0  0  0  0  0  0  0  0  0
   -0.6261   -0.1580   50.1291 H   0  0  0  0  0  0  0  0  0  0  0  0
   -1.2342   -0.8641   48.5935 H   0  0  0  0  0  0  0  0  0  0  0  0
    0.2585    0.1351   48.5935 H   0  0  0  0  0  0  0  0  0  0  0  0
    2.4430   -0.5418   46.6799 H   0  0  0  0  0  0  0  0  0  0  0  0
    1.0089   -0.6614   45.5828 H   0  0  0  0  0  0  0  0  0  0  0  0
    2.8805    0.0471   44.2500 H   0  0  0  0  0  0  0  0  0  0  0  0
    1.7883    1.4716   44.4885 H   0  0  0  0  0  0  0  0  0  0  0  0
    3.2529    2.2475   46.3368 H   0  0  0  0  0  0  0  0  0  0  0  0
    4.3732    0.8665   45.9733 H   0  0  0  0  0  0  0  0  0  0  0  0
    4.6585    3.3701   44.9395 H   0  0  0  0  0  0  0  0  0  0  0  0
    5.2194    1.8430   44.1336 H   0  0  0  0  0  0  0  0  0  0  0  0
    2.6165    1.9736   43.2860 H   0  0  0  0  0  0  0  0  0  0  0  0
    3.0653    3.7286   43.3831 H   0  0  0  0  0  0  0  0  0  0  0  0
    3.5499    2.9132   41.1429 H   0  0  0  0  0  0  0  0  0  0  0  0
    5.0900    3.2361   41.9919 H   0  0  0  0  0  0  0  0  0  0  0  0
    4.8588    0.2448   42.9497 H   0  0  0  0  0  0  0  0  0  0  0  0
 11  1  1  0
  1 14  1  0
  2  3  2  0
  2  4  1  1
  2  5  1  0
  2  6  1  0
  6  7  1  0
  7 11  1  0
  7 12  1  0
  8  9  1  0
  8 10  2  0
  8 11  1  0
 13 14  2  0
 14 15  1  0
 15 16  1  0
 16 17  1  0
 17 18  1  0
 18 19  1  0
 19 20  1  0
 20 21  1  0
  1 22  1  0
  7 23  1  6
 11 24  1  6
 12 25  1  0
 12 26  1  0
 12 27  1  0
 15 28  1  0
 15 29  1  0
 16 30  1  0
 16 31  1  0
 17 32  1  0
 17 33  1  0
 18 34  1  0
 18 35  1  0
 19 36  1  0
 19 37  1  0
 20 38  1  0
 20 39  1  0
 21 40  1  0
M  CHG  3   4  -1   5  -1   9  -1
M  END
>  <filename_input>  (12) 
7B2C_TP7_docked.sdf

>  <pdb_id>  (12) 
7B2C_TP7

>  <pose_rank>  (12) 
11

>  <num_atoms_heavy>  (12) 
21

>  <num_torsions>  (12) 
11

>  <pose>  (12) 
[-1.1754169337419564, 1.957607553061484, 47.48998439019994, -2.149655781626819, 2.4039755461439234, -2.2948050660682706, -3.254898333792223, -1.7127494674746127, -1.8279763191381464, 2.0840088861977306, -1.0198776538745928, 2.5569639503763124, -2.006614387859212, -1.7189609205272147, 1.1702369483083583, -0.16182800634158376, 0.1445451271538944]

>  <energy>  (12) 
-401.7446347446306

>  <inter_energy>  (12) 
-541.0964658482434

>  <intra_energy>  (12) 
136.24520345218136

>  <rmsd>  (12) 
8.15597

>  <sdf_rank>  (12) 
0

$$$$

     RDKit          3D

 40 39  0  0  0  0  0  0  0  0999 V2000
    0.3502    0.7231   45.8648 N   0  0  0  0  0  0  0  0  0  0  0  0
   -2.9454    3.7715   45.6391 P   0  0  2  0  0  0  0  0  0  0  0  0
   -4.3633    3.2506   45.5915 O   0  0  0  0  0  0  0  0  0  0  0  0
   -2.6882    4.8086   46.7057 O   0  0  0  0  0  0  0  0  0  0  0  0
   -2.3627    4.1581   44.2879 O   0  0  0  0  0  0  0  0  0  0  0  0
   -2.0507    2.4971   46.0466 O   0  0  0  0  0  0  0  0  0  0  0  0
   -0.8005    2.7040   46.7272 C   0  0  1  0  0  0  0  0  0  0  0  0
   -1.0657    0.4322   47.8434 C   0  0  0  0  0  0  0  0  0  0  0  0
   -0.8686    0.2772   49.0641 O   0  0  0  0  0  0  0  0  0  0  0  0
   -2.0006   -0.1543   47.2371 O   0  0  0  0  0  0  0  0  0  0  0  0
   -0.1515    1.3546   47.0713 C   0  0  1  0  0  0  0  0  0  0  0  0
    0.1222    3.5532   45.8380 C   0  0  0  0  0  0  0  0  0  0  0  0
    1.8660   -0.4591   46.9795 O   0  0  0  0  0  0  0  0  0  0  0  0
    1.3391   -0.1461   45.9209 C   0  0  0  0  0  0  0  0  0  0  0  0
    1.7731   -0.7364   44.5979 C   0  0  0  0  0  0  0  0  0  0  0  0
    2.9399    0.0447   44.0001 C   0  0  0  0  0  0  0  0  0  0  0  0
    4.2292   -0.1984   44.7777 C   0  0  0  0  0  0  0  0  0  0  0  0
    4.9220    1.1099   45.1602 C   0  0  0  0  0  0  0  0  0  0  0  0
    6.0916    1.4366   44.2234 C   0  0  0  0  0  0  0  0  0  0  0  0
    6.4836    0.2389   43.3675 C   0  0  0  0  0  0  0  0  0  0  0  0
    8.1011   -0.3855   43.9560 S   0  0  0  0  0  0  0  0  0  0  0  0
   -0.0713    0.9570   44.9545 H   0  0  0  0  0  0  0  0  0  0  0  0
   -0.9758    3.2401   47.6716 H   0  0  0  0  0  0  0  0  0  0  0  0
    0.6928    1.5618   47.7453 H   0  0  0  0  0  0  0  0  0  0  0  0
    0.7837    4.1619   46.4719 H   0  0  0  0  0  0  0  0  0  0  0  0
    0.7298    2.8917   45.2029 H   0  0  0  0  0  0  0  0  0  0  0  0
   -0.4865    4.2135   45.2029 H   0  0  0  0  0  0  0  0  0  0  0  0
    2.0833   -1.7799   44.7553 H   0  0  0  0  0  0  0  0  0  0  0  0
    0.9253   -0.6844   43.8989 H   0  0  0  0  0  0  0  0  0  0  0  0
    3.0860   -0.2726   42.9570 H   0  0  0  0  0  0  0  0  0  0  0  0
    2.7013    1.1173   44.0522 H   0  0  0  0  0  0  0  0  0  0  0  0
    3.9906   -0.7556   45.6957 H   0  0  0  0  0  0  0  0  0  0  0  0
    4.9130   -0.7693   44.1325 H   0  0  0  0  0  0  0  0  0  0  0  0
    4.1883    1.9279   45.1107 H   0  0  0  0  0  0  0  0  0  0  0  0
    5.3237    0.9964   46.1780 H   0  0  0  0  0  0  0  0  0  0  0  0
    5.7974    2.2653   43.5626 H   0  0  0  0  0  0  0  0  0  0  0  0
    6.9581    1.7124   44.8423 H   0  0  0  0  0  0  0  0  0  0  0  0
    5.7235   -0.5505   43.4624 H   0  0  0  0  0  0  0  0  0  0  0  0
    6.5544    0.5360   42.3107 H   0  0  0  0  0  0  0  0  0  0  0  0
    8.1172   -0.3917   45.3259 H   0  0  0  0  0  0  0  0  0  0  0  0
 11  1  1  0
  1 14  1  0
  2  3  2  0
  2  4  1  1
  2  5  1  0
  2  6  1  0
  6  7  1  0
  7 11  1  0
  7 12  1  0
  8  9  1  0
  8 10  2  0
  8 11  1  0
 13 14  2  0
 14 15  1  0
 15 16  1  0
 16 17  1  0
 17 18  1  0
 18 19  1  0
 19 20  1  0
 20 21  1  0
  1 22  1  0
  7 23  1  1
 11 24  1  1
 12 25  1  0
 12 26  1  0
 12 27  1  0
 15 28  1  0
 15 29  1  0
 16 30  1  0
 16 31  1  0
 17 32  1  0
 17 33  1  0
 18 34  1  0
 18 35  1  0
 19 36  1  0
 19 37  1  0
 20 38  1  0
 20 39  1  0
 21 40  1  0
M  CHG  3   4  -1   5  -1   9  -1
M  END
>  <filename_input>  (13) 
7B2C_TP7_docked.sdf

>  <pdb_id>  (13) 
7B2C_TP7

>  <pose_rank>  (13) 
12

>  <num_atoms_heavy>  (13) 
21

>  <num_torsions>  (13) 
11

>  <pose>  (13) 
[-0.1514832372442387, 1.3546094091254643, 47.07129725508363, -1.3525367790588216, -2.9655394935143415, -0.7609007407519245, 7.158478359411312, -1.8244633998450814, -1.794241234098646, -3.3904309053911796, -3.179704762117672, -14.096498098371178, 1.2115546118818918, 2.5583344402847072, -6.20092570227559, -11.985325998738505, 4.494932022872904]

>  <energy>  (13) 
-148.66124742082414

>  <inter_energy>  (13) 
-192.50992935636614

>  <intra_energy>  (13) 
33.50707538575198

>  <rmsd>  (13) 
7.86761

>  <sdf_rank>  (13) 
0

$$$$

     RDKit          3D

 40 39  0  0  0  0  0  0  0  0999 V2000
   -1.2566    2.2212   45.6120 N   0  0  0  0  0  0  0  0  0  0  0  0
    2.3265    0.8783   45.9112 P   0  0  2  0  0  0  0  0  0  0  0  0
    1.7242    0.9890   44.5296 O   0  0  0  0  0  0  0  0  0  0  0  0
    2.8623    2.1731   46.4731 O   0  0  0  0  0  0  0  0  0  0  0  0
    3.2868   -0.2872   46.0964 O   0  0  0  0  0  0  0  0  0  0  0  0
    1.0978    0.4653   46.8654 O   0  0  0  0  0  0  0  0  0  0  0  0
    0.2469    1.4937   47.4014 C   0  0  1  0  0  0  0  0  0  0  0  0
   -2.2605    1.7005   47.7858 C   0  0  0  0  0  0  0  0  0  0  0  0
   -1.9937    1.6831   49.0030 O   0  0  0  0  0  0  0  0  0  0  0  0
   -3.4136    1.9698   47.3577 O   0  0  0  0  0  0  0  0  0  0  0  0
   -1.1617    1.3886   46.7968 C   0  0  1  0  0  0  0  0  0  0  0  0
    0.2048    1.3650   48.9327 C   0  0  0  0  0  0  0  0  0  0  0  0
    0.1268    3.7508   46.4391 O   0  0  0  0  0  0  0  0  0  0  0  0
   -0.5934    3.3571   45.5322 C   0  0  0  0  0  0  0  0  0  0  0  0
   -0.7723    4.1356   44.2480 C   0  0  0  0  0  0  0  0  0  0  0  0
    0.5623    4.3453   43.5380 C   0  0  0  0  0  0  0  0  0  0  0  0
    0.5766    3.6721   42.1696 C   0  0  0  0  0  0  0  0  0  0  0  0
    1.5491    2.4931   42.1221 C   0  0  0  0  0  0  0  0  0  0  0  0
    2.8945    2.8305   42.7765 C   0  0  0  0  0  0  0  0  0  0  0  0
    3.8434    1.6387   42.7681 C   0  0  0  0  0  0  0  0  0  0  0  0
    3.6801    0.7832   41.1576 S   0  0  0  0  0  0  0  0  0  0  0  0
   -1.8490    1.9210   44.8247 H   0  0  0  0  0  0  0  0  0  0  0  0
    0.6493    2.4832   47.1389 H   0  0  0  0  0  0  0  0  0  0  0  0
   -1.3153    0.3378   46.5100 H   0  0  0  0  0  0  0  0  0  0  0  0
    0.5161    2.3161   49.3893 H   0  0  0  0  0  0  0  0  0  0  0  0
   -0.8195    1.1228   49.2522 H   0  0  0  0  0  0  0  0  0  0  0  0
    0.8876    0.5640   49.2522 H   0  0  0  0  0  0  0  0  0  0  0  0
   -1.4489    3.5792   43.5827 H   0  0  0  0  0  0  0  0  0  0  0  0
   -1.1938    5.1212   44.4946 H   0  0  0  0  0  0  0  0  0  0  0  0
    0.7327    5.4242   43.4080 H   0  0  0  0  0  0  0  0  0  0  0  0
    1.3559    3.8960   44.1531 H   0  0  0  0  0  0  0  0  0  0  0  0
   -0.4359    3.3069   41.9427 H   0  0  0  0  0  0  0  0  0  0  0  0
    0.9066    4.4151   41.4286 H   0  0  0  0  0  0  0  0  0  0  0  0
    1.0999    1.6408   42.6530 H   0  0  0  0  0  0  0  0  0  0  0  0
    1.7368    2.2501   41.0658 H   0  0  0  0  0  0  0  0  0  0  0  0
    3.3604    3.6603   42.2248 H   0  0  0  0  0  0  0  0  0  0  0  0
    2.7047    3.1085   43.8237 H   0  0  0  0  0  0  0  0  0  0  0  0
    4.8784    1.9867   42.9009 H   0  0  0  0  0  0  0  0  0  0  0  0
    3.5940    0.9506   43.5892 H   0  0  0  0  0  0  0  0  0  0  0  0
    3.4265   -0.5462   41.3703 H   0  0  0  0  0  0  0  0  0  0  0  0
 11  1  1  0
  1 14  1  0
  2  3  2  0
  2  4  1  1
  2  5  1  0
  2  6  1  0
  6  7  1  0
  7 11  1  0
  7 12  1  0
  8  9  1  0
  8 10  2  0
  8 11  1  0
 13 14  2  0
 14 15  1  0
 15 16  1  0
 16 17  1  0
 17 18  1  0
 18 19  1  0
 19 20  1  0
 20 21  1  0
  1 22  1  0
  7 23  1  1
 11 24  1  6
 12 25  1  0
 12 26  1  0
 12 27  1  0
 15 28  1  0
 15 29  1  0
 16 30  1  0
 16 31  1  0
 17 32  1  0
 17 33  1  0
 18 34  1  0
 18 35  1  0
 19 36  1  0
 19 37  1  0
 20 38  1  0
 20 39  1  0
 21 40  1  0
M  CHG  3   4  -1   5  -1   9  -1
M  END
>  <filename_input>  (14) 
7B2C_TP7_docked.sdf

>  <pdb_id>  (14) 
7B2C_TP7

>  <pose_rank>  (14) 
13

>  <num_atoms_heavy>  (14) 
21

>  <num_torsions>  (14) 
11

>  <pose>  (14) 
[-1.161650311877289, 1.388580654359796, 46.79680421579213, -2.67061953782477, -0.2818072095872606, -1.0375477512179971, -2.4167653440532386, 0.7069396009809157, -0.9927366891259305, -3.089817083100748, 4.081591221791767, 1.8170747903189293, -2.4676383051665565, -2.196096477237123, -2.7727644666695754, -0.5511048470971487, -0.5933414199592002]

>  <energy>  (14) 
-281.0423670534616

>  <inter_energy>  (14) 
-442.24700329558465

>  <intra_energy>  (14) 
163.49144958009543

>  <rmsd>  (14) 
6.38012

>  <sdf_rank>  (14) 
0

$$$$

     RDKit          3D

 40 39  0  0  0  0  0  0  0  0999 V2000
    1.9706    0.8093   45.3110 N   0  0  0  0  0  0  0  0  0  0  0  0
    2.2189    4.0861   42.8414 P   0  0  2  0  0  0  0  0  0  0  0  0
    1.5214    5.4233   42.9378 O   0  0  0  0  0  0  0  0  0  0  0  0
    3.6562    4.0878   43.3040 O   0  0  0  0  0  0  0  0  0  0  0  0
    2.0261    3.3605   41.5181 O   0  0  0  0  0  0  0  0  0  0  0  0
    1.4312    3.1341   43.8728 O   0  0  0  0  0  0  0  0  0  0  0  0
    1.7057    3.2425   45.2805 C   0  0  1  0  0  0  0  0  0  0  0  0
   -0.1358    1.7247   46.1651 C   0  0  0  0  0  0  0  0  0  0  0  0
   -0.9161    2.5587   45.6665 O   0  0  0  0  0  0  0  0  0  0  0  0
   -0.5484    0.7206   46.8030 O   0  0  0  0  0  0  0  0  0  0  0  0
    1.3515    1.9294   45.9952 C   0  0  1  0  0  0  0  0  0  0  0  0
    3.1877    3.6000   45.4783 C   0  0  0  0  0  0  0  0  0  0  0  0
    0.5302    0.9004   43.6214 O   0  0  0  0  0  0  0  0  0  0  0  0
    1.4965    0.3780   44.1596 C   0  0  0  0  0  0  0  0  0  0  0  0
    2.2267   -0.7947   43.5442 C   0  0  0  0  0  0  0  0  0  0  0  0
    2.4856   -0.5664   42.0576 C   0  0  0  0  0  0  0  0  0  0  0  0
    3.6977    0.3321   41.8352 C   0  0  0  0  0  0  0  0  0  0  0  0
    5.0105   -0.3954   42.1273 C   0  0  0  0  0  0  0  0  0  0  0  0
    6.0406    0.5231   42.7961 C   0  0  0  0  0  0  0  0  0  0  0  0
    5.3817    1.5209   43.7400 C   0  0  0  0  0  0  0  0  0  0  0  0
    6.6759    2.2308   44.8233 S   0  0  0  0  0  0  0  0  0  0  0  0
    2.7897    0.3462   45.7300 H   0  0  0  0  0  0  0  0  0  0  0  0
    1.0865    4.0386   45.7196 H   0  0  0  0  0  0  0  0  0  0  0  0
    1.7567    1.9946   47.0158 H   0  0  0  0  0  0  0  0  0  0  0  0
    3.4115    3.6539   46.5540 H   0  0  0  0  0  0  0  0  0  0  0  0
    3.8167    2.8278   45.0113 H   0  0  0  0  0  0  0  0  0  0  0  0
    3.3955    4.5740   45.0113 H   0  0  0  0  0  0  0  0  0  0  0  0
    3.1894   -0.9281   44.0595 H   0  0  0  0  0  0  0  0  0  0  0  0
    1.5996   -1.6916   43.6544 H   0  0  0  0  0  0  0  0  0  0  0  0
    2.6658   -1.5371   41.5726 H   0  0  0  0  0  0  0  0  0  0  0  0
    1.6037   -0.0714   41.6248 H   0  0  0  0  0  0  0  0  0  0  0  0
    3.7032    0.6683   40.7878 H   0  0  0  0  0  0  0  0  0  0  0  0
    3.6204    1.1846   42.5259 H   0  0  0  0  0  0  0  0  0  0  0  0
    4.8048   -1.2443   42.7959 H   0  0  0  0  0  0  0  0  0  0  0  0
    5.4305   -0.7357   41.1692 H   0  0  0  0  0  0  0  0  0  0  0  0
    6.7490   -0.0938   43.3683 H   0  0  0  0  0  0  0  0  0  0  0  0
    6.5567    1.0893   42.0067 H   0  0  0  0  0  0  0  0  0  0  0  0
    4.9029    2.3225   43.1584 H   0  0  0  0  0  0  0  0  0  0  0  0
    4.6143    1.0180   44.3467 H   0  0  0  0  0  0  0  0  0  0  0  0
    6.3286    2.0403   46.1348 H   0  0  0  0  0  0  0  0  0  0  0  0
 11  1  1  0
  1 14  1  0
  2  3  2  0
  2  4  1  1
  2  5  1  0
  2  6  1  0
  6  7  1  0
  7 11  1  0
  7 12  1  0
  8  9  1  0
  8 10  2  0
  8 11  1  0
 13 14  2  0
 14 15  1  0
 15 16  1  0
 16 17  1  0
 17 18  1  0
 18 19  1  0
 19 20  1  0
 20 21  1  0
  1 22  1  0
  7 23  1  1
 11 24  1  1
 12 25  1  0
 12 26  1  0
 12 27  1  0
 15 28  1  0
 15 29  1  0
 16 30  1  0
 16 31  1  0
 17 32  1  0
 17 33  1  0
 18 34  1  0
 18 35  1  0
 19 36  1  0
 19 37  1  0
 20 38  1  0
 20 39  1  0
 21 40  1  0
M  CHG  3   4  -1   5  -1   9  -1
M  END
>  <filename_input>  (15) 
7B2C_TP7_docked.sdf

>  <pdb_id>  (15) 
7B2C_TP7

>  <pose_rank>  (15) 
14

>  <num_atoms_heavy>  (15) 
21

>  <num_torsions>  (15) 
11

>  <pose>  (15) 
[1.3515245487302627, 1.9294025780433386, 45.995200702404546, -2.279922782491414, -3.1965500427974782, -0.941803482198976, -3.123968164702172, 6.758000964773887, 29.77336220542081, -12.416431380789778, 2.371721232188539, 11.887326194677767, 12.264327160815784, -1.8268962591640112, 12.281011034206509, -5.2374770958460095, -0.4812180761975955]

>  <energy>  (15) 
-289.0268143981509

>  <inter_energy>  (15) 
-427.87891477729295

>  <intra_energy>  (15) 
152.67525165437002

>  <rmsd>  (15) 
6.38257

>  <sdf_rank>  (15) 
0

$$$$

     RDKit          3D

 40 39  0  0  0  0  0  0  0  0999 V2000
   -4.2882    3.7150   40.6658 N   0  0  0  0  0  0  0  0  0  0  0  0
   -6.9275    6.8926   42.1257 P   0  0  2  0  0  0  0  0  0  0  0  0
   -6.8824    6.5741   43.6023 O   0  0  0  0  0  0  0  0  0  0  0  0
   -5.6187    7.3666   41.5408 O   0  0  0  0  0  0  0  0  0  0  0  0
   -8.1103    7.7464   41.6935 O   0  0  0  0  0  0  0  0  0  0  0  0
   -7.2400    5.4856   41.4091 O   0  0  0  0  0  0  0  0  0  0  0  0
   -6.3503    5.0040   40.3867 C   0  0  1  0  0  0  0  0  0  0  0  0
   -6.3196    2.4781   40.0760 C   0  0  0  0  0  0  0  0  0  0  0  0
   -7.5558    2.3205   40.0875 O   0  0  0  0  0  0  0  0  0  0  0  0
   -5.5496    1.6835   39.4750 O   0  0  0  0  0  0  0  0  0  0  0  0
   -5.7315    3.6621   40.8075 C   0  0  1  0  0  0  0  0  0  0  0  0
   -7.1268    4.8677   39.0669 C   0  0  0  0  0  0  0  0  0  0  0  0
   -4.0835    5.3089   42.2004 O   0  0  0  0  0  0  0  0  0  0  0  0
   -3.5710    4.5532   41.3865 C   0  0  0  0  0  0  0  0  0  0  0  0
   -2.0778    4.5145   41.1500 C   0  0  0  0  0  0  0  0  0  0  0  0
   -1.3115    4.4254   42.4668 C   0  0  0  0  0  0  0  0  0  0  0  0
    0.1537    4.0709   42.2353 C   0  0  0  0  0  0  0  0  0  0  0  0
    0.6948    3.1379   43.3192 C   0  0  0  0  0  0  0  0  0  0  0  0
    2.1694    2.7842   43.0900 C   0  0  0  0  0  0  0  0  0  0  0  0
    2.7710    2.0594   44.2873 C   0  0  0  0  0  0  0  0  0  0  0  0
    4.5712    2.3924   44.3179 S   0  0  0  0  0  0  0  0  0  0  0  0
   -3.8192    3.0903   39.9944 H   0  0  0  0  0  0  0  0  0  0  0  0
   -5.5276    5.7198   40.2426 H   0  0  0  0  0  0  0  0  0  0  0  0
   -5.9824    3.5060   41.8671 H   0  0  0  0  0  0  0  0  0  0  0  0
   -8.1889    4.6812   39.2840 H   0  0  0  0  0  0  0  0  0  0  0  0
   -7.0289    5.7967   38.4862 H   0  0  0  0  0  0  0  0  0  0  0  0
   -6.7182    4.0275   38.4862 H   0  0  0  0  0  0  0  0  0  0  0  0
   -1.8349    3.6363   40.5336 H   0  0  0  0  0  0  0  0  0  0  0  0
   -1.7825    5.4421   40.6378 H   0  0  0  0  0  0  0  0  0  0  0  0
   -1.3679    5.3966   42.9801 H   0  0  0  0  0  0  0  0  0  0  0  0
   -1.7667    3.6331   43.0792 H   0  0  0  0  0  0  0  0  0  0  0  0
    0.2490    3.5738   41.2587 H   0  0  0  0  0  0  0  0  0  0  0  0
    0.7379    5.0025   42.2658 H   0  0  0  0  0  0  0  0  0  0  0  0
    0.5963    3.6338   44.2961 H   0  0  0  0  0  0  0  0  0  0  0  0
    0.1128    2.2051   43.2857 H   0  0  0  0  0  0  0  0  0  0  0  0
    2.2464    2.1349   42.2054 H   0  0  0  0  0  0  0  0  0  0  0  0
    2.7265    3.7213   42.9429 H   0  0  0  0  0  0  0  0  0  0  0  0
    2.3090    2.4274   45.2152 H   0  0  0  0  0  0  0  0  0  0  0  0
    2.5876    0.9778   44.2062 H   0  0  0  0  0  0  0  0  0  0  0  0
    4.9989    2.4716   45.6170 H   0  0  0  0  0  0  0  0  0  0  0  0
 11  1  1  0
  1 14  1  0
  2  3  2  0
  2  4  1  6
  2  5  1  0
  2  6  1  0
  6  7  1  0
  7 11  1  0
  7 12  1  0
  8  9  1  0
  8 10  2  0
  8 11  1  0
 13 14  2  0
 14 15  1  0
 15 16  1  0
 16 17  1  0
 17 18  1  0
 18 19  1  0
 19 20  1  0
 20 21  1  0
  1 22  1  0
  7 23  1  6
 11 24  1  1
 12 25  1  0
 12 26  1  0
 12 27  1  0
 15 28  1  0
 15 29  1  0
 16 30  1  0
 16 31  1  0
 17 32  1  0
 17 33  1  0
 18 34  1  0
 18 35  1  0
 19 36  1  0
 19 37  1  0
 20 38  1  0
 20 39  1  0
 21 40  1  0
M  CHG  3   4  -1   5  -1   9  -1
M  END
>  <filename_input>  (16) 
7B2C_TP7_docked.sdf

>  <pdb_id>  (16) 
7B2C_TP7

>  <pose_rank>  (16) 
15

>  <num_atoms_heavy>  (16) 
21

>  <num_torsions>  (16) 
11

>  <pose>  (16) 
[-5.731533254032355, 3.6621392893056415, 40.80752013996906, -0.506716715368678, -2.971421721839145, -2.6340868701048756, -0.7201453783858878, 0.5282661048287657, -0.1271904798832193, 2.6603699944271133, 1.7217346201283752, 1.6771848613441422, 0.44758979923442593, -2.83399842412368, -3.422536432715517, -0.44360840853014244, -1.2858928992466603]

>  <energy>  (16) 
-134.37974543979703

>  <inter_energy>  (16) 
-194.08855891977504

>  <intra_energy>  (16) 
60.97577077590142

>  <rmsd>  (16) 
10.2748

>  <sdf_rank>  (16) 
0

$$$$

     RDKit          3D

 40 39  0  0  0  0  0  0  0  0999 V2000
   -0.0952    3.0363   49.2606 N   0  0  0  0  0  0  0  0  0  0  0  0
   -3.6162    1.9122   50.5063 P   0  0  2  0  0  0  0  0  0  0  0  0
   -4.4938    0.8255   51.0833 O   0  0  0  0  0  0  0  0  0  0  0  0
   -2.6835    2.5649   51.4981 O   0  0  0  0  0  0  0  0  0  0  0  0
   -4.3434    2.9202   49.6290 O   0  0  0  0  0  0  0  0  0  0  0  0
   -2.6669    1.1578   49.4478 O   0  0  0  0  0  0  0  0  0  0  0  0
   -2.0776    1.9085   48.3717 C   0  0  1  0  0  0  0  0  0  0  0  0
    0.1536    1.8151   47.1507 C   0  0  0  0  0  0  0  0  0  0  0  0
    0.0360    2.7682   46.3564 O   0  0  0  0  0  0  0  0  0  0  0  0
    0.8353    0.7935   46.8733 O   0  0  0  0  0  0  0  0  0  0  0  0
   -0.5456    1.8934   48.4878 C   0  0  1  0  0  0  0  0  0  0  0  0
   -2.5386    1.3136   47.0313 C   0  0  0  0  0  0  0  0  0  0  0  0
   -1.7089    4.3459   48.4741 O   0  0  0  0  0  0  0  0  0  0  0  0
   -0.7255    4.1910   49.1849 C   0  0  0  0  0  0  0  0  0  0  0  0
   -0.1623    5.3060   50.0374 C   0  0  0  0  0  0  0  0  0  0  0  0
    0.6901    6.2608   49.2063 C   0  0  0  0  0  0  0  0  0  0  0  0
    1.1545    7.4555   50.0329 C   0  0  0  0  0  0  0  0  0  0  0  0
    1.8484    8.5117   49.1721 C   0  0  0  0  0  0  0  0  0  0  0  0
    2.9012    9.2976   49.9635 C   0  0  0  0  0  0  0  0  0  0  0  0
    2.3798   10.6600   50.4024 C   0  0  0  0  0  0  0  0  0  0  0  0
    2.3759   10.7135   52.2326 S   0  0  0  0  0  0  0  0  0  0  0  0
    0.7264    2.9438   49.8749 H   0  0  0  0  0  0  0  0  0  0  0  0
   -2.4057    2.9570   48.4267 H   0  0  0  0  0  0  0  0  0  0  0  0
   -0.2683    0.9703   49.0179 H   0  0  0  0  0  0  0  0  0  0  0  0
   -3.2024    0.4569   47.2193 H   0  0  0  0  0  0  0  0  0  0  0  0
   -3.0815    2.0792   46.4577 H   0  0  0  0  0  0  0  0  0  0  0  0
   -1.6616    0.9790   46.4577 H   0  0  0  0  0  0  0  0  0  0  0  0
   -0.9937    5.8676   50.4884 H   0  0  0  0  0  0  0  0  0  0  0  0
    0.4735    4.8608   50.8168 H   0  0  0  0  0  0  0  0  0  0  0  0
    1.5719    5.7200   48.8323 H   0  0  0  0  0  0  0  0  0  0  0  0
    0.0781    6.6342   48.3720 H   0  0  0  0  0  0  0  0  0  0  0  0
    0.2801    7.9122   50.5195 H   0  0  0  0  0  0  0  0  0  0  0  0
    1.8793    7.0932   50.7767 H   0  0  0  0  0  0  0  0  0  0  0  0
    2.3410    8.0118   48.3251 H   0  0  0  0  0  0  0  0  0  0  0  0
    1.0840    9.2226   48.8251 H   0  0  0  0  0  0  0  0  0  0  0  0
    3.1805    8.7189   50.8563 H   0  0  0  0  0  0  0  0  0  0  0  0
    3.7702    9.4592   49.3087 H   0  0  0  0  0  0  0  0  0  0  0  0
    3.0332   11.4525   50.0088 H   0  0  0  0  0  0  0  0  0  0  0  0
    1.3616   10.8177   50.0170 H   0  0  0  0  0  0  0  0  0  0  0  0
    2.4680    9.4391   52.7269 H   0  0  0  0  0  0  0  0  0  0  0  0
 11  1  1  0
  1 14  1  0
  2  3  2  0
  2  4  1  1
  2  5  1  0
  2  6  1  0
  6  7  1  0
  7 11  1  0
  7 12  1  0
  8  9  1  0
  8 10  2  0
  8 11  1  0
 13 14  2  0
 14 15  1  0
 15 16  1  0
 16 17  1  0
 17 18  1  0
 18 19  1  0
 19 20  1  0
 20 21  1  0
  1 22  1  0
  7 23  1  6
 11 24  1  1
 12 25  1  0
 12 26  1  0
 12 27  1  0
 15 28  1  0
 15 29  1  0
 16 30  1  0
 16 31  1  0
 17 32  1  0
 17 33  1  0
 18 34  1  0
 18 35  1  0
 19 36  1  0
 19 37  1  0
 20 38  1  0
 20 39  1  0
 21 40  1  0
M  CHG  3   4  -1   5  -1   9  -1
M  END
>  <filename_input>  (17) 
7B2C_TP7_docked.sdf

>  <pdb_id>  (17) 
7B2C_TP7

>  <pose_rank>  (17) 
16

>  <num_atoms_heavy>  (17) 
21

>  <num_torsions>  (17) 
11

>  <pose>  (17) 
[-0.5456242331018777, 1.8934243828671962, 48.4878252402962, -0.6411430569848399, 0.8998930265542991, 2.888727300386695, -8.714611606756446, -7.996008298359852, 0.006121446326015356, -4.136976692534829, -4.05323613526813, 3.232949072624344, -1.1107457895972799, -0.7605592016028759, -2.7671945886876146, -0.4717392437216533, 3.6228246854619988]

>  <energy>  (17) 
-138.74874075620693

>  <inter_energy>  (17) 
-188.2934281019656

>  <intra_energy>  (17) 
58.54862965110608

>  <rmsd>  (17) 
8.04434

>  <sdf_rank>  (17) 
0

$$$$

     RDKit          3D

 40 39  0  0  0  0  0  0  0  0999 V2000
   -3.1937    4.5570   41.8566 N   0  0  0  0  0  0  0  0  0  0  0  0
   -6.2771    3.7394   38.2081 P   0  0  2  0  0  0  0  0  0  0  0  0
   -6.0289    4.6309   37.0133 O   0  0  0  0  0  0  0  0  0  0  0  0
   -5.3202    2.5791   38.3409 O   0  0  0  0  0  0  0  0  0  0  0  0
   -7.7292    3.3322   38.4089 O   0  0  0  0  0  0  0  0  0  0  0  0
   -6.0037    4.6774   39.4872 O   0  0  0  0  0  0  0  0  0  0  0  0
   -5.2529    4.1531   40.5963 C   0  0  1  0  0  0  0  0  0  0  0  0
   -4.9102    6.3049   41.9117 C   0  0  0  0  0  0  0  0  0  0  0  0
   -4.9252    7.4596   41.4433 O   0  0  0  0  0  0  0  0  0  0  0  0
   -5.4220    6.0295   43.0288 O   0  0  0  0  0  0  0  0  0  0  0  0
   -4.2564    5.2040   41.1095 C   0  0  1  0  0  0  0  0  0  0  0  0
   -6.2269    3.7234   41.7054 C   0  0  0  0  0  0  0  0  0  0  0  0
   -1.6558    5.9818   41.1198 O   0  0  0  0  0  0  0  0  0  0  0  0
   -1.9568    5.0074   41.7954 C   0  0  0  0  0  0  0  0  0  0  0  0
   -0.9385    4.2504   42.6182 C   0  0  0  0  0  0  0  0  0  0  0  0
    0.4674    4.4180   42.0488 C   0  0  0  0  0  0  0  0  0  0  0  0
    1.4957    3.6454   42.8685 C   0  0  0  0  0  0  0  0  0  0  0  0
    1.6095    2.1888   42.4175 C   0  0  0  0  0  0  0  0  0  0  0  0
    1.1878    1.2105   43.5208 C   0  0  0  0  0  0  0  0  0  0  0  0
    1.2684    1.8462   44.9029 C   0  0  0  0  0  0  0  0  0  0  0  0
    0.3491    0.7863   46.0794 S   0  0  0  0  0  0  0  0  0  0  0  0
   -3.4086    3.7367   42.4412 H   0  0  0  0  0  0  0  0  0  0  0  0
   -4.6743    3.2756   40.2719 H   0  0  0  0  0  0  0  0  0  0  0  0
   -3.8243    5.7007   40.2283 H   0  0  0  0  0  0  0  0  0  0  0  0
   -5.7746    3.9230   42.6881 H   0  0  0  0  0  0  0  0  0  0  0  0
   -7.1640    4.2917   41.6109 H   0  0  0  0  0  0  0  0  0  0  0  0
   -6.4389    2.6482   41.6109 H   0  0  0  0  0  0  0  0  0  0  0  0
   -0.9556    4.6322   43.6497 H   0  0  0  0  0  0  0  0  0  0  0  0
   -1.1980    3.1817   42.5954 H   0  0  0  0  0  0  0  0  0  0  0  0
    0.4813    4.0450   41.0141 H   0  0  0  0  0  0  0  0  0  0  0  0
    0.7295    5.4858   42.0825 H   0  0  0  0  0  0  0  0  0  0  0  0
    2.4767    4.1300   42.7555 H   0  0  0  0  0  0  0  0  0  0  0  0
    1.1678    3.6517   43.9185 H   0  0  0  0  0  0  0  0  0  0  0  0
    0.9616    2.0367   41.5416 H   0  0  0  0  0  0  0  0  0  0  0  0
    2.6634    1.9906   42.1725 H   0  0  0  0  0  0  0  0  0  0  0  0
    0.1517    0.8907   43.3360 H   0  0  0  0  0  0  0  0  0  0  0  0
    1.8767    0.3532   43.4986 H   0  0  0  0  0  0  0  0  0  0  0  0
    2.3201    1.9235   45.2158 H   0  0  0  0  0  0  0  0  0  0  0  0
    0.8311    2.8553   44.8814 H   0  0  0  0  0  0  0  0  0  0  0  0
    0.6636    1.1489   47.3626 H   0  0  0  0  0  0  0  0  0  0  0  0
 11  1  1  0
  1 14  1  0
  2  3  2  0
  2  4  1  6
  2  5  1  0
  2  6  1  0
  6  7  1  0
  7 11  1  0
  7 12  1  0
  8  9  1  0
  8 10  2  0
  8 11  1  0
 13 14  2  0
 14 15  1  0
 15 16  1  0
 16 17  1  0
 17 18  1  0
 18 19  1  0
 19 20  1  0
 20 21  1  0
  1 22  1  0
  7 23  1  6
 11 24  1  6
 12 25  1  0
 12 26  1  0
 12 27  1  0
 15 28  1  0
 15 29  1  0
 16 30  1  0
 16 31  1  0
 17 32  1  0
 17 33  1  0
 18 34  1  0
 18 35  1  0
 19 36  1  0
 19 37  1  0
 20 38  1  0
 20 39  1  0
 21 40  1  0
M  CHG  3   4  -1   5  -1   9  -1
M  END
>  <filename_input>  (18) 
7B2C_TP7_docked.sdf

>  <pdb_id>  (18) 
7B2C_TP7

>  <pose_rank>  (18) 
17

>  <num_atoms_heavy>  (18) 
21

>  <num_torsions>  (18) 
11

>  <pose>  (18) 
[-4.256428075008752, 5.203978213781216, 41.109526740090914, 0.33187116844981207, -2.656421819678734, 2.4445852040528964, 0.6835554801301602, -0.759608444745816, 0.10633465834351064, 0.36896207078675636, 2.826213171979559, -1.6666458614892325, -0.28242307704547753, 2.4207037802041156, 2.334904900621867, -0.11408076948655113, -1.495003373557426]

>  <energy>  (18) 
-174.09025311639752

>  <inter_energy>  (18) 
-193.03277749529613

>  <intra_energy>  (18) 
21.92964845920699

>  <rmsd>  (18) 
9.56876

>  <sdf_rank>  (18) 
0

$$$$

     RDKit          3D

 40 39  0  0  0  0  0  0  0  0999 V2000
    7.5839    0.5864   38.7670 N   0  0  0  0  0  0  0  0  0  0  0  0
   10.5891    3.4098   36.9651 P   0  0  2  0  0  0  0  0  0  0  0  0
    9.3470    4.1425   37.4174 O   0  0  0  0  0  0  0  0  0  0  0  0
   11.8506    4.2392   36.9732 O   0  0  0  0  0  0  0  0  0  0  0  0
   10.4225    2.6020   35.6866 O   0  0  0  0  0  0  0  0  0  0  0  0
   10.8164    2.2614   38.0696 O   0  0  0  0  0  0  0  0  0  0  0  0
    9.7002    1.8132   38.8584 C   0  0  1  0  0  0  0  0  0  0  0  0
    9.4843   -0.3509   37.5363 C   0  0  0  0  0  0  0  0  0  0  0  0
    8.8350   -1.1722   36.8604 O   0  0  0  0  0  0  0  0  0  0  0  0
   10.6968   -0.5315   37.8240 O   0  0  0  0  0  0  0  0  0  0  0  0
    8.7900    0.8997   38.0231 C   0  0  1  0  0  0  0  0  0  0  0  0
   10.2256    1.0833   40.1052 C   0  0  0  0  0  0  0  0  0  0  0  0
    6.2729    0.9394   37.0080 O   0  0  0  0  0  0  0  0  0  0  0  0
    6.4023    0.6366   38.1860 C   0  0  0  0  0  0  0  0  0  0  0  0
    5.2212    0.2883   39.0640 C   0  0  0  0  0  0  0  0  0  0  0  0
    5.6441    0.1275   40.5215 C   0  0  0  0  0  0  0  0  0  0  0  0
    4.5830    0.6715   41.4724 C   0  0  0  0  0  0  0  0  0  0  0  0
    5.1597    1.7010   42.4448 C   0  0  0  0  0  0  0  0  0  0  0  0
    5.5231    1.0747   43.7968 C   0  0  0  0  0  0  0  0  0  0  0  0
    6.8912    0.4055   43.7619 C   0  0  0  0  0  0  0  0  0  0  0  0
    7.9907    1.2800   44.9361 S   0  0  0  0  0  0  0  0  0  0  0  0
    7.6524    0.3219   39.7601 H   0  0  0  0  0  0  0  0  0  0  0  0
    9.1007    2.6779   39.1790 H   0  0  0  0  0  0  0  0  0  0  0  0
    8.5166    1.4556   37.1142 H   0  0  0  0  0  0  0  0  0  0  0  0
    9.8595    1.5919   41.0092 H   0  0  0  0  0  0  0  0  0  0  0  0
    9.8677    0.0432   40.0992 H   0  0  0  0  0  0  0  0  0  0  0  0
   11.3255    1.0926   40.0992 H   0  0  0  0  0  0  0  0  0  0  0  0
    4.4732    1.0918   38.9943 H   0  0  0  0  0  0  0  0  0  0  0  0
    4.7992   -0.6664   38.7169 H   0  0  0  0  0  0  0  0  0  0  0  0
    5.8004   -0.9406   40.7330 H   0  0  0  0  0  0  0  0  0  0  0  0
    6.5727    0.6963   40.6773 H   0  0  0  0  0  0  0  0  0  0  0  0
    3.7870    1.1480   40.8813 H   0  0  0  0  0  0  0  0  0  0  0  0
    4.1907   -0.1704   42.0617 H   0  0  0  0  0  0  0  0  0  0  0  0
    6.0661    2.1393   42.0015 H   0  0  0  0  0  0  0  0  0  0  0  0
    4.3918    2.4685   42.6215 H   0  0  0  0  0  0  0  0  0  0  0  0
    5.5321    1.8635   44.5634 H   0  0  0  0  0  0  0  0  0  0  0  0
    4.7723    0.3052   44.0294 H   0  0  0  0  0  0  0  0  0  0  0  0
    6.7964   -0.6499   44.0571 H   0  0  0  0  0  0  0  0  0  0  0  0
    7.3094    0.4519   42.7456 H   0  0  0  0  0  0  0  0  0  0  0  0
    7.6167    0.9825   46.2201 H   0  0  0  0  0  0  0  0  0  0  0  0
 11  1  1  0
  1 14  1  0
  2  3  2  0
  2  4  1  6
  2  5  1  0
  2  6  1  0
  6  7  1  0
  7 11  1  0
  7 12  1  0
  8  9  1  0
  8 10  2  0
  8 11  1  0
 13 14  2  0
 14 15  1  0
 15 16  1  0
 16 17  1  0
 17 18  1  0
 18 19  1  0
 19 20  1  0
 20 21  1  0
  1 22  1  0
  7 23  1  1
 11 24  1  6
 12 25  1  0
 12 26  1  0
 12 27  1  0
 15 28  1  0
 15 29  1  0
 16 30  1  0
 16 31  1  0
 17 32  1  0
 17 33  1  0
 18 34  1  0
 18 35  1  0
 19 36  1  0
 19 37  1  0
 20 38  1  0
 20 39  1  0
 21 40  1  0
M  CHG  3   4  -1   5  -1   9  -1
M  END
>  <filename_input>  (19) 
7B2C_TP7_docked.sdf

>  <pdb_id>  (19) 
7B2C_TP7

>  <pose_rank>  (19) 
18

>  <num_atoms_heavy>  (19) 
21

>  <num_torsions>  (19) 
11

>  <pose>  (19) 
[8.79004036869801, 0.8996554739836687, 38.02309821924677, -0.5951929251227854, -0.5496186537467483, 0.24955472649605315, 0.5331157269893119, 2.9488935496697337, -0.552556240008837, 2.9593249416800393, -3.1090096651955674, 0.14986646651606697, -1.1320672613447993, 1.2320159963107618, 2.092892983720802, -1.1952470577688963, 1.291280712810344]

>  <energy>  (19) 
-218.55439775271375

>  <inter_energy>  (19) 
-250.72076583675323

>  <intra_energy>  (19) 
38.53494156331728

>  <rmsd>  (19) 
9.47001

>  <sdf_rank>  (19) 
0

$$$$

     RDKit          3D

 40 39  0  0  0  0  0  0  0  0999 V2000
    6.6697   -0.7125   54.6162 N   0  0  0  0  0  0  0  0  0  0  0  0
   10.8749   -2.2723   52.3073 P   0  0  2  0  0  0  0  0  0  0  0  0
   10.7570   -2.9995   50.9877 O   0  0  0  0  0  0  0  0  0  0  0  0
   10.9837   -0.7707   52.1943 O   0  0  0  0  0  0  0  0  0  0  0  0
   11.8889   -2.8660   53.2738 O   0  0  0  0  0  0  0  0  0  0  0  0
    9.4796   -2.5521   53.0592 O   0  0  0  0  0  0  0  0  0  0  0  0
    8.8332   -1.4784   53.7650 C   0  0  1  0  0  0  0  0  0  0  0  0
    6.8477   -3.0610   53.9400 C   0  0  0  0  0  0  0  0  0  0  0  0
    6.6975   -3.4527   55.1135 O   0  0  0  0  0  0  0  0  0  0  0  0
    6.6287   -3.8099   52.9518 O   0  0  0  0  0  0  0  0  0  0  0  0
    7.3068   -1.6415   53.7012 C   0  0  1  0  0  0  0  0  0  0  0  0
    9.3294   -1.4618   55.2200 C   0  0  0  0  0  0  0  0  0  0  0  0
    6.0408    0.6472   52.9750 O   0  0  0  0  0  0  0  0  0  0  0  0
    6.0809    0.3777   54.1675 C   0  0  0  0  0  0  0  0  0  0  0  0
    5.4524    1.2665   55.2172 C   0  0  0  0  0  0  0  0  0  0  0  0
    6.3211    2.4893   55.4986 C   0  0  0  0  0  0  0  0  0  0  0  0
    5.5125    3.7793   55.4083 C   0  0  0  0  0  0  0  0  0  0  0  0
    5.9199    4.6267   54.2025 C   0  0  0  0  0  0  0  0  0  0  0  0
    6.4167    6.0169   54.6179 C   0  0  0  0  0  0  0  0  0  0  0  0
    5.3689    7.0928   54.3626 C   0  0  0  0  0  0  0  0  0  0  0  0
    5.3814    8.2567   55.7760 S   0  0  0  0  0  0  0  0  0  0  0  0
    6.6779   -0.9074   55.6275 H   0  0  0  0  0  0  0  0  0  0  0  0
    9.0859   -0.5178   53.2924 H   0  0  0  0  0  0  0  0  0  0  0  0
    6.9965   -1.4022   52.6734 H   0  0  0  0  0  0  0  0  0  0  0  0
    8.4667   -1.4907   55.9019 H   0  0  0  0  0  0  0  0  0  0  0  0
    9.9683   -2.3390   55.3995 H   0  0  0  0  0  0  0  0  0  0  0  0
    9.9081   -0.5437   55.3995 H   0  0  0  0  0  0  0  0  0  0  0  0
    4.4670    1.6010   54.8606 H   0  0  0  0  0  0  0  0  0  0  0  0
    5.3529    0.6888   56.1480 H   0  0  0  0  0  0  0  0  0  0  0  0
    6.7444    2.4024   56.5102 H   0  0  0  0  0  0  0  0  0  0  0  0
    7.1197    2.5278   54.7432 H   0  0  0  0  0  0  0  0  0  0  0  0
    4.4461    3.5246   55.3196 H   0  0  0  0  0  0  0  0  0  0  0  0
    5.7066    4.3667   56.3179 H   0  0  0  0  0  0  0  0  0  0  0  0
    6.7253    4.1091   53.6607 H   0  0  0  0  0  0  0  0  0  0  0  0
    5.0329    4.7595   53.5656 H   0  0  0  0  0  0  0  0  0  0  0  0
    6.6580    6.0026   55.6911 H   0  0  0  0  0  0  0  0  0  0  0  0
    7.3055    6.2560   54.0156 H   0  0  0  0  0  0  0  0  0  0  0  0
    5.6087    7.6324   53.4346 H   0  0  0  0  0  0  0  0  0  0  0  0
    4.3741    6.6350   54.2581 H   0  0  0  0  0  0  0  0  0  0  0  0
    5.3738    7.5499   56.9496 H   0  0  0  0  0  0  0  0  0  0  0  0
 11  1  1  0
  1 14  1  0
  2  3  2  0
  2  4  1  6
  2  5  1  0
  2  6  1  0
  6  7  1  0
  7 11  1  0
  7 12  1  0
  8  9  1  0
  8 10  2  0
  8 11  1  0
 13 14  2  0
 14 15  1  0
 15 16  1  0
 16 17  1  0
 17 18  1  0
 18 19  1  0
 19 20  1  0
 20 21  1  0
  1 22  1  0
  7 23  1  6
 11 24  1  6
 12 25  1  0
 12 26  1  0
 12 27  1  0
 15 28  1  0
 15 29  1  0
 16 30  1  0
 16 31  1  0
 17 32  1  0
 17 33  1  0
 18 34  1  0
 18 35  1  0
 19 36  1  0
 19 37  1  0
 20 38  1  0
 20 39  1  0
 21 40  1  0
M  CHG  3   4  -1   5  -1   9  -1
M  END
>  <filename_input>  (20) 
7B2C_TP7_docked.sdf

>  <pdb_id>  (20) 
7B2C_TP7

>  <pose_rank>  (20) 
19

>  <num_atoms_heavy>  (20) 
21

>  <num_torsions>  (20) 
11

>  <pose>  (20) 
[7.306833526555691, -1.6414897919381557, 53.70119294023584, 4.940644152294167, -0.4665656890314828, 0.9671273293441789, -0.011927879496738516, -1.6721575843223981, -0.7958305745390899, 3.2113040997772324, 2.753943114288821, -3.0978077259449326, -0.7327707919523744, -0.41961345763830077, 1.7817029753589426, -6.223640571895568, -1.5188843343260803]

>  <energy>  (20) 
-181.60191409352453

>  <inter_energy>  (20) 
-176.1850560433283

>  <intra_energy>  (20) 
5.5117905891777745

>  <rmsd>  (20) 
11.0388

>  <sdf_rank>  (20) 
0

$$$$

     RDKit          3D

 40 39  0  0  0  0  0  0  0  0999 V2000
   -7.0381    4.8097   41.0334 N   0  0  0  0  0  0  0  0  0  0  0  0
   -5.8098    6.7253   37.9061 P   0  0  2  0  0  0  0  0  0  0  0  0
   -6.9133    7.7276   38.1545 O   0  0  0  0  0  0  0  0  0  0  0  0
   -4.5631    7.3001   37.2777 O   0  0  0  0  0  0  0  0  0  0  0  0
   -6.2608    5.4314   37.2449 O   0  0  0  0  0  0  0  0  0  0  0  0
   -5.3679    6.2261   39.3711 O   0  0  0  0  0  0  0  0  0  0  0  0
   -5.8798    6.9067   40.5303 C   0  0  1  0  0  0  0  0  0  0  0  0
   -6.9839    6.5172   42.7901 C   0  0  0  0  0  0  0  0  0  0  0  0
   -8.1306    6.9734   42.6171 O   0  0  0  0  0  0  0  0  0  0  0  0
   -6.4082    6.5618   43.9091 O   0  0  0  0  0  0  0  0  0  0  0  0
   -6.2664    5.8915   41.6168 C   0  0  1  0  0  0  0  0  0  0  0  0
   -4.8186    7.8930   41.0444 C   0  0  0  0  0  0  0  0  0  0  0  0
   -5.8973    3.2525   42.1340 O   0  0  0  0  0  0  0  0  0  0  0  0
   -6.7815    3.5553   41.3449 C   0  0  0  0  0  0  0  0  0  0  0  0
   -7.6534    2.5182   40.6731 C   0  0  0  0  0  0  0  0  0  0  0  0
   -6.8786    1.7530   39.6039 C   0  0  0  0  0  0  0  0  0  0  0  0
   -6.9730    0.2461   39.8193 C   0  0  0  0  0  0  0  0  0  0  0  0
   -5.6144   -0.4394   39.6702 C   0  0  0  0  0  0  0  0  0  0  0  0
   -5.6919   -1.6808   38.7730 C   0  0  0  0  0  0  0  0  0  0  0  0
   -4.8434   -1.5262   37.5172 C   0  0  0  0  0  0  0  0  0  0  0  0
   -5.0907   -3.0066   36.4685 S   0  0  0  0  0  0  0  0  0  0  0  0
   -7.7947    5.0249   40.3685 H   0  0  0  0  0  0  0  0  0  0  0  0
   -6.7864    7.4685   40.2613 H   0  0  0  0  0  0  0  0  0  0  0  0
   -5.3316    5.4836   42.0288 H   0  0  0  0  0  0  0  0  0  0  0  0
   -4.8196    7.8922   42.1444 H   0  0  0  0  0  0  0  0  0  0  0  0
   -3.8270    7.5885   40.6784 H   0  0  0  0  0  0  0  0  0  0  0  0
   -5.0500    8.9042   40.6784 H   0  0  0  0  0  0  0  0  0  0  0  0
   -8.0148    1.8080   41.4314 H   0  0  0  0  0  0  0  0  0  0  0  0
   -8.4969    3.0331   40.1899 H   0  0  0  0  0  0  0  0  0  0  0  0
   -7.2937    1.9999   38.6156 H   0  0  0  0  0  0  0  0  0  0  0  0
   -5.8203    2.0460   39.6672 H   0  0  0  0  0  0  0  0  0  0  0  0
   -7.3579    0.0555   40.8320 H   0  0  0  0  0  0  0  0  0  0  0  0
   -7.6473   -0.1652   39.0537 H   0  0  0  0  0  0  0  0  0  0  0  0
   -4.9033    0.2741   39.2284 H   0  0  0  0  0  0  0  0  0  0  0  0
   -5.2857   -0.7624   40.6690 H   0  0  0  0  0  0  0  0  0  0  0  0
   -5.3332   -2.5526   39.3398 H   0  0  0  0  0  0  0  0  0  0  0  0
   -6.7391   -1.8135   38.4634 H   0  0  0  0  0  0  0  0  0  0  0  0
   -5.1536   -0.6253   36.9675 H   0  0  0  0  0  0  0  0  0  0  0  0
   -3.7818   -1.4270   37.7876 H   0  0  0  0  0  0  0  0  0  0  0  0
   -5.2743   -4.1055   37.2658 H   0  0  0  0  0  0  0  0  0  0  0  0
 11  1  1  0
  1 14  1  0
  2  3  2  0
  2  4  1  6
  2  5  1  0
  2  6  1  0
  6  7  1  0
  7 11  1  0
  7 12  1  0
  8  9  1  0
  8 10  2  0
  8 11  1  0
 13 14  2  0
 14 15  1  0
 15 16  1  0
 16 17  1  0
 17 18  1  0
 18 19  1  0
 19 20  1  0
 20 21  1  0
  1 22  1  0
  7 23  1  6
 11 24  1  1
 12 25  1  0
 12 26  1  0
 12 27  1  0
 15 28  1  0
 15 29  1  0
 16 30  1  0
 16 31  1  0
 17 32  1  0
 17 33  1  0
 18 34  1  0
 18 35  1  0
 19 36  1  0
 19 37  1  0
 20 38  1  0
 20 39  1  0
 21 40  1  0
M  CHG  3   4  -1   5  -1   9  -1
M  END
>  <filename_input>  (21) 
7B2C_TP7_docked.sdf

>  <pdb_id>  (21) 
7B2C_TP7

>  <pose_rank>  (21) 
20

>  <num_atoms_heavy>  (21) 
21

>  <num_torsions>  (21) 
11

>  <pose>  (21) 
[-6.266381006365408, 5.891532089329593, 41.61684931260125, -2.6157674822540047, -2.2082788872389414, 0.5834846461809899, -5.75202812693853, -7.875220766076359, -7.116688679901374, 2.8024123001761665, -3.734217190962386, 7.033257915120325, 0.037111331644858796, -0.7046752436065061, 4.2983495640824705, -0.1043118460954391, 0.7254670853537873]

>  <energy>  (21) 
-180.9312759381672

>  <inter_energy>  (21) 
-171.7517938112584

>  <intra_energy>  (21) 
0.4586788538721456

>  <rmsd>  (21) 
12.0207

>  <sdf_rank>  (21) 
0

$$$$

     RDKit          3D

 40 39  0  0  0  0  0  0  0  0999 V2000
   -6.3487    5.1013   42.1264 N   0  0  0  0  0  0  0  0  0  0  0  0
   -5.9724    9.2638   39.6893 P   0  0  2  0  0  0  0  0  0  0  0  0
   -6.4733    8.2038   38.7356 O   0  0  0  0  0  0  0  0  0  0  0  0
   -6.8873   10.4542   39.8487 O   0  0  0  0  0  0  0  0  0  0  0  0
   -4.5167    9.6608   39.4937 O   0  0  0  0  0  0  0  0  0  0  0  0
   -5.9412    8.5433   41.1282 O   0  0  0  0  0  0  0  0  0  0  0  0
   -6.7654    7.3862   41.3535 C   0  0  1  0  0  0  0  0  0  0  0  0
   -6.6660    6.8290   43.8349 C   0  0  0  0  0  0  0  0  0  0  0  0
   -6.1810    7.8057   44.4380 O   0  0  0  0  0  0  0  0  0  0  0  0
   -7.5664    6.1097   44.3420 O   0  0  0  0  0  0  0  0  0  0  0  0
   -6.1540    6.5022   42.4514 C   0  0  1  0  0  0  0  0  0  0  0  0
   -8.1826    7.8440   41.7345 C   0  0  0  0  0  0  0  0  0  0  0  0
   -4.1677    4.7305   41.9186 O   0  0  0  0  0  0  0  0  0  0  0  0
   -5.3185    4.3178   41.8792 C   0  0  0  0  0  0  0  0  0  0  0  0
   -5.6487    2.8784   41.5534 C   0  0  0  0  0  0  0  0  0  0  0  0
   -7.1165    2.7219   41.1658 C   0  0  0  0  0  0  0  0  0  0  0  0
   -7.2743    1.8528   39.9225 C   0  0  0  0  0  0  0  0  0  0  0  0
   -7.6792    0.4206   40.2732 C   0  0  0  0  0  0  0  0  0  0  0  0
   -7.6652   -0.4981   39.0452 C   0  0  0  0  0  0  0  0  0  0  0  0
   -6.6859   -1.6530   39.2127 C   0  0  0  0  0  0  0  0  0  0  0  0
   -5.0024   -1.0409   38.8336 S   0  0  0  0  0  0  0  0  0  0  0  0
   -7.3029    4.7151   42.0885 H   0  0  0  0  0  0  0  0  0  0  0  0
   -6.8212    6.7850   40.4341 H   0  0  0  0  0  0  0  0  0  0  0  0
   -5.0756    6.7173   42.4797 H   0  0  0  0  0  0  0  0  0  0  0  0
   -8.2761    7.8742   42.8301 H   0  0  0  0  0  0  0  0  0  0  0  0
   -8.3669    8.8473   41.3229 H   0  0  0  0  0  0  0  0  0  0  0  0
   -8.9190    7.1380   41.3229 H   0  0  0  0  0  0  0  0  0  0  0  0
   -5.0190    2.5469   40.7146 H   0  0  0  0  0  0  0  0  0  0  0  0
   -5.4580    2.2668   42.4476 H   0  0  0  0  0  0  0  0  0  0  0  0
   -7.6592    2.2542   42.0006 H   0  0  0  0  0  0  0  0  0  0  0  0
   -7.5244    3.7193   40.9449 H   0  0  0  0  0  0  0  0  0  0  0  0
   -8.0488    2.2930   39.2773 H   0  0  0  0  0  0  0  0  0  0  0  0
   -6.3026    1.8152   39.4083 H   0  0  0  0  0  0  0  0  0  0  0  0
   -6.9751    0.0254   41.0203 H   0  0  0  0  0  0  0  0  0  0  0  0
   -8.7059    0.4449   40.6674 H   0  0  0  0  0  0  0  0  0  0  0  0
   -8.6753   -0.9069   38.8951 H   0  0  0  0  0  0  0  0  0  0  0  0
   -7.3460    0.0971   38.1770 H   0  0  0  0  0  0  0  0  0  0  0  0
   -6.7223   -2.0241   40.2476 H   0  0  0  0  0  0  0  0  0  0  0  0
   -6.9514   -2.4759   38.5328 H   0  0  0  0  0  0  0  0  0  0  0  0
   -4.3312   -0.7969   40.0028 H   0  0  0  0  0  0  0  0  0  0  0  0
 11  1  1  0
  1 14  1  0
  2  3  2  0
  2  4  1  1
  2  5  1  0
  2  6  1  0
  6  7  1  0
  7 11  1  0
  7 12  1  0
  8  9  1  0
  8 10  2  0
  8 11  1  0
 13 14  2  0
 14 15  1  0
 15 16  1  0
 16 17  1  0
 17 18  1  0
 18 19  1  0
 19 20  1  0
 20 21  1  0
  1 22  1  0
  7 23  1  6
 11 24  1  1
 12 25  1  0
 12 26  1  0
 12 27  1  0
 15 28  1  0
 15 29  1  0
 16 30  1  0
 16 31  1  0
 17 32  1  0
 17 33  1  0
 18 34  1  0
 18 35  1  0
 19 36  1  0
 19 37  1  0
 20 38  1  0
 20 39  1  0
 21 40  1  0
M  CHG  3   4  -1   5  -1   9  -1
M  END
>  <filename_input>  (22) 
7B2C_TP7_docked.sdf

>  <pdb_id>  (22) 
7B2C_TP7

>  <pose_rank>  (22) 
21

>  <num_atoms_heavy>  (22) 
21

>  <num_torsions>  (22) 
11

>  <pose>  (22) 
[-6.154002579411154, 6.50220545873153, 42.45140544270978, 1.4280505380935526, 2.4338484568760497, -0.7679278107216592, 0.18408650509228627, 3.1158079928239233, -0.6967594457718648, 0.6230770642258298, 1.845063913284009, 0.796642374627729, 1.7073122329753834, 2.991376955893884, -3.660382158664512, 0.16906898680510016, 0.5039352475949613]

>  <energy>  (22) 
-166.1597702166546

>  <inter_energy>  (22) 
-171.2512855410927

>  <intra_energy>  (22) 
7.793938924182527

>  <rmsd>  (22) 
11.9654

>  <sdf_rank>  (22) 
0

$$$$

     RDKit          3D

 40 39  0  0  0  0  0  0  0  0999 V2000
   -5.5854   -6.8656   50.2229 N   0  0  0  0  0  0  0  0  0  0  0  0
   -5.0482   -6.5214   54.8249 P   0  0  2  0  0  0  0  0  0  0  0  0
   -4.1452   -7.6570   55.2481 O   0  0  0  0  0  0  0  0  0  0  0  0
   -4.3958   -5.1598   54.8285 O   0  0  0  0  0  0  0  0  0  0  0  0
   -6.4206   -6.5196   55.4817 O   0  0  0  0  0  0  0  0  0  0  0  0
   -5.4048   -6.8289   53.2858 O   0  0  0  0  0  0  0  0  0  0  0  0
   -5.6645   -5.7328   52.3914 C   0  0  1  0  0  0  0  0  0  0  0  0
   -3.4472   -6.3189   51.2878 C   0  0  0  0  0  0  0  0  0  0  0  0
   -3.0750   -7.4461   50.9085 O   0  0  0  0  0  0  0  0  0  0  0  0
   -2.6600   -5.5047   51.8379 O   0  0  0  0  0  0  0  0  0  0  0  0
   -4.8898   -5.9216   51.0781 C   0  0  1  0  0  0  0  0  0  0  0  0
   -7.1774   -5.6398   52.1350 C   0  0  0  0  0  0  0  0  0  0  0  0
   -6.0871   -5.3069   48.7208 O   0  0  0  0  0  0  0  0  0  0  0  0
   -6.1396   -6.4704   49.0946 C   0  0  0  0  0  0  0  0  0  0  0  0
   -6.8346   -7.5458   48.2899 C   0  0  0  0  0  0  0  0  0  0  0  0
   -7.8530   -6.9439   47.3258 C   0  0  0  0  0  0  0  0  0  0  0  0
   -8.1780   -7.9055   46.1875 C   0  0  0  0  0  0  0  0  0  0  0  0
   -7.1136   -7.8737   45.0902 C   0  0  0  0  0  0  0  0  0  0  0  0
   -7.0891   -6.5299   44.3514 C   0  0  0  0  0  0  0  0  0  0  0  0
   -7.8832   -6.5829   43.0524 C   0  0  0  0  0  0  0  0  0  0  0  0
   -7.0161   -7.7026   41.8919 S   0  0  0  0  0  0  0  0  0  0  0  0
   -5.6464   -7.8555   50.5009 H   0  0  0  0  0  0  0  0  0  0  0  0
   -5.3229   -4.7919   52.8475 H   0  0  0  0  0  0  0  0  0  0  0  0
   -4.8543   -4.9428   50.5774 H   0  0  0  0  0  0  0  0  0  0  0  0
   -7.7109   -5.6070   53.0965 H   0  0  0  0  0  0  0  0  0  0  0  0
   -7.3968   -4.7265   51.5626 H   0  0  0  0  0  0  0  0  0  0  0  0
   -7.5071   -6.5194   51.5626 H   0  0  0  0  0  0  0  0  0  0  0  0
   -6.0827   -8.1052   47.7141 H   0  0  0  0  0  0  0  0  0  0  0  0
   -7.3658   -8.2122   48.9856 H   0  0  0  0  0  0  0  0  0  0  0  0
   -8.7773   -6.7169   47.8774 H   0  0  0  0  0  0  0  0  0  0  0  0
   -7.4217   -6.0290   46.8935 H   0  0  0  0  0  0  0  0  0  0  0  0
   -8.2409   -8.9265   46.5920 H   0  0  0  0  0  0  0  0  0  0  0  0
   -9.1347   -7.5946   45.7424 H   0  0  0  0  0  0  0  0  0  0  0  0
   -6.1277   -8.0459   45.5468 H   0  0  0  0  0  0  0  0  0  0  0  0
   -7.3563   -8.6588   44.3589 H   0  0  0  0  0  0  0  0  0  0  0  0
   -7.5238   -5.7576   45.0030 H   0  0  0  0  0  0  0  0  0  0  0  0
   -6.0434   -6.2957   44.1032 H   0  0  0  0  0  0  0  0  0  0  0  0
   -8.8955   -6.9647   43.2509 H   0  0  0  0  0  0  0  0  0  0  0  0
   -7.9644   -5.5759   42.6172 H   0  0  0  0  0  0  0  0  0  0  0  0
   -6.2985   -8.6292   42.6016 H   0  0  0  0  0  0  0  0  0  0  0  0
 11  1  1  0
  1 14  1  0
  2  3  2  0
  2  4  1  6
  2  5  1  0
  2  6  1  0
  6  7  1  0
  7 11  1  0
  7 12  1  0
  8  9  1  0
  8 10  2  0
  8 11  1  0
 13 14  2  0
 14 15  1  0
 15 16  1  0
 16 17  1  0
 17 18  1  0
 18 19  1  0
 19 20  1  0
 20 21  1  0
  1 22  1  0
  7 23  1  1
 11 24  1  6
 12 25  1  0
 12 26  1  0
 12 27  1  0
 15 28  1  0
 15 29  1  0
 16 30  1  0
 16 31  1  0
 17 32  1  0
 17 33  1  0
 18 34  1  0
 18 35  1  0
 19 36  1  0
 19 37  1  0
 20 38  1  0
 20 39  1  0
 21 40  1  0
M  CHG  3   4  -1   5  -1   9  -1
M  END
>  <filename_input>  (23) 
7B2C_TP7_docked.sdf

>  <pdb_id>  (23) 
7B2C_TP7

>  <pose_rank>  (23) 
22

>  <num_atoms_heavy>  (23) 
21

>  <num_torsions>  (23) 
11

>  <pose>  (23) 
[-4.889823770426386, -5.921640526835564, 51.078055746517585, 0.10760523227843587, -1.7262268630943796, 0.30960803820014104, 0.135101097175562, -0.6976288625372056, -0.2659383376291153, -2.5377360226260532, -2.5914471234173604, -2.9891483193363686, 1.940354391743286, 0.09961756522386467, 0.2144000366668783, -6.475626142143194, -1.7250014466425305]

>  <energy>  (23) 
-125.46899639966863

>  <inter_energy>  (23) 
-132.8570471871219

>  <intra_energy>  (23) 
7.465470480836463

>  <rmsd>  (23) 
13.9986

>  <sdf_rank>  (23) 
0

$$$$

     RDKit          3D

 40 39  0  0  0  0  0  0  0  0999 V2000
   -5.1542   10.2147   48.7787 N   0  0  0  0  0  0  0  0  0  0  0  0
   -5.1931   10.5502   52.7941 P   0  0  2  0  0  0  0  0  0  0  0  0
   -4.5978   11.4141   53.8818 O   0  0  0  0  0  0  0  0  0  0  0  0
   -6.6911   10.3786   52.8716 O   0  0  0  0  0  0  0  0  0  0  0  0
   -4.4611    9.2391   52.5492 O   0  0  0  0  0  0  0  0  0  0  0  0
   -4.9178   11.3570   51.4288 O   0  0  0  0  0  0  0  0  0  0  0  0
   -3.7700   11.0183   50.6308 C   0  0  1  0  0  0  0  0  0  0  0  0
   -2.8953   10.9974   48.2408 C   0  0  0  0  0  0  0  0  0  0  0  0
   -2.4856   11.9936   47.6141 O   0  0  0  0  0  0  0  0  0  0  0  0
   -2.3351    9.8734   48.1504 O   0  0  0  0  0  0  0  0  0  0  0  0
   -4.1027   11.1488   49.1365 C   0  0  1  0  0  0  0  0  0  0  0  0
   -2.5980   11.9335   51.0205 C   0  0  0  0  0  0  0  0  0  0  0  0
   -6.2077   11.7103   47.5173 O   0  0  0  0  0  0  0  0  0  0  0  0
   -6.1403   10.5823   47.9856 C   0  0  0  0  0  0  0  0  0  0  0  0
   -7.1747    9.5207   47.6852 C   0  0  0  0  0  0  0  0  0  0  0  0
   -7.4682    9.4421   46.1897 C   0  0  0  0  0  0  0  0  0  0  0  0
   -6.2682    8.9086   45.4142 C   0  0  0  0  0  0  0  0  0  0  0  0
   -6.3880    7.4101   45.1344 C   0  0  0  0  0  0  0  0  0  0  0  0
   -7.7844    7.0296   44.6270 C   0  0  0  0  0  0  0  0  0  0  0  0
   -7.8131    6.8705   43.1122 C   0  0  0  0  0  0  0  0  0  0  0  0
   -6.9370    5.3223   42.6785 S   0  0  0  0  0  0  0  0  0  0  0  0
   -5.1295    9.2539   49.1489 H   0  0  0  0  0  0  0  0  0  0  0  0
   -3.4824    9.9733   50.8182 H   0  0  0  0  0  0  0  0  0  0  0  0
   -4.4631   12.1749   48.9715 H   0  0  0  0  0  0  0  0  0  0  0  0
   -2.5257   11.9900   52.1167 H   0  0  0  0  0  0  0  0  0  0  0  0
   -1.6620   11.5249   50.6119 H   0  0  0  0  0  0  0  0  0  0  0  0
   -2.7676   12.9406   50.6119 H   0  0  0  0  0  0  0  0  0  0  0  0
   -6.7982    8.5458   48.0285 H   0  0  0  0  0  0  0  0  0  0  0  0
   -8.1055    9.7840   48.2090 H   0  0  0  0  0  0  0  0  0  0  0  0
   -8.3254    8.7720   46.0279 H   0  0  0  0  0  0  0  0  0  0  0  0
   -7.6915   10.4563   45.8270 H   0  0  0  0  0  0  0  0  0  0  0  0
   -6.1977    9.4444   44.4560 H   0  0  0  0  0  0  0  0  0  0  0  0
   -5.3687    9.0693   46.0267 H   0  0  0  0  0  0  0  0  0  0  0  0
   -5.6452    7.1306   44.3727 H   0  0  0  0  0  0  0  0  0  0  0  0
   -6.2119    6.8734   46.0782 H   0  0  0  0  0  0  0  0  0  0  0  0
   -8.0845    6.0783   45.0905 H   0  0  0  0  0  0  0  0  0  0  0  0
   -8.4786    7.8386   44.8986 H   0  0  0  0  0  0  0  0  0  0  0  0
   -8.8550    6.8182   42.7635 H   0  0  0  0  0  0  0  0  0  0  0  0
   -7.3226    7.7301   42.6320 H   0  0  0  0  0  0  0  0  0  0  0  0
   -6.5678    4.6699   43.8253 H   0  0  0  0  0  0  0  0  0  0  0  0
 11  1  1  0
  1 14  1  0
  2  3  2  0
  2  4  1  1
  2  5  1  0
  2  6  1  0
  6  7  1  0
  7 11  1  0
  7 12  1  0
  8  9  1  0
  8 10  2  0
  8 11  1  0
 13 14  2  0
 14 15  1  0
 15 16  1  0
 16 17  1  0
 17 18  1  0
 18 19  1  0
 19 20  1  0
 20 21  1  0
  1 22  1  0
  7 23  1  6
 11 24  1  1
 12 25  1  0
 12 26  1  0
 12 27  1  0
 15 28  1  0
 15 29  1  0
 16 30  1  0
 16 31  1  0
 17 32  1  0
 17 33  1  0
 18 34  1  0
 18 35  1  0
 19 36  1  0
 19 37  1  0
 20 38  1  0
 20 39  1  0
 21 40  1  0
M  CHG  3   4  -1   5  -1   9  -1
M  END
>  <filename_input>  (24) 
7B2C_TP7_docked.sdf

>  <pdb_id>  (24) 
7B2C_TP7

>  <pose_rank>  (24) 
23

>  <num_atoms_heavy>  (24) 
21

>  <num_torsions>  (24) 
11

>  <pose>  (24) 
[-4.102697476763376, 11.148778990768879, 49.13650095554971, -1.9924345027901418, 4.730381348828094, -0.7446933463392464, 0.5741682260065735, 0.5102197317076794, -1.8561204456426397, 0.5672989472882624, -0.6275582070645003, 0.45014503167364434, -1.9026453846418445, 2.440296573430519, -2.261269801237908, -0.005209347305768652, 2.5734191268230853]

>  <energy>  (24) 
-161.30651084420907

>  <inter_energy>  (24) 
-155.59912650473353

>  <intra_energy>  (24) 
2.1725792558382007

>  <rmsd>  (24) 
12.8865

>  <sdf_rank>  (24) 
0

$$$$

     RDKit          3D

 40 39  0  0  0  0  0  0  0  0999 V2000
   -5.4142    5.3583   40.8048 N   0  0  0  0  0  0  0  0  0  0  0  0
   -5.6597    1.3015   39.1534 P   0  0  2  0  0  0  0  0  0  0  0  0
   -6.2967    1.2452   37.7841 O   0  0  0  0  0  0  0  0  0  0  0  0
   -4.2718    0.7123   39.2300 O   0  0  0  0  0  0  0  0  0  0  0  0
   -6.5579    0.8450   40.2935 O   0  0  0  0  0  0  0  0  0  0  0  0
   -5.4837    2.8712   39.4628 O   0  0  0  0  0  0  0  0  0  0  0  0
   -6.6426    3.7231   39.4599 C   0  0  1  0  0  0  0  0  0  0  0  0
   -6.9368    3.8440   41.9851 C   0  0  0  0  0  0  0  0  0  0  0  0
   -8.0690    3.9311   42.4985 O   0  0  0  0  0  0  0  0  0  0  0  0
   -6.0251    3.1388   42.4919 O   0  0  0  0  0  0  0  0  0  0  0  0
   -6.6547    4.6106   40.7140 C   0  0  1  0  0  0  0  0  0  0  0  0
   -6.6399    4.5725   38.1787 C   0  0  0  0  0  0  0  0  0  0  0  0
   -6.4704    7.2948   41.0739 O   0  0  0  0  0  0  0  0  0  0  0  0
   -5.4264    6.6646   40.9776 C   0  0  0  0  0  0  0  0  0  0  0  0
   -4.0712    7.3312   41.0576 C   0  0  0  0  0  0  0  0  0  0  0  0
   -3.9883    8.5303   40.1172 C   0  0  0  0  0  0  0  0  0  0  0  0
   -3.8731    8.0893   38.6618 C   0  0  0  0  0  0  0  0  0  0  0  0
   -3.4385    9.2365   37.7490 C   0  0  0  0  0  0  0  0  0  0  0  0
   -3.8230    8.9846   36.2859 C   0  0  0  0  0  0  0  0  0  0  0  0
   -4.5332   10.1845   35.6720 C   0  0  0  0  0  0  0  0  0  0  0  0
   -4.2639   11.6324   36.7599 S   0  0  0  0  0  0  0  0  0  0  0  0
   -4.5142    4.8624   40.7335 H   0  0  0  0  0  0  0  0  0  0  0  0
   -7.5552    3.1091   39.4774 H   0  0  0  0  0  0  0  0  0  0  0  0
   -7.4916    5.3162   40.6055 H   0  0  0  0  0  0  0  0  0  0  0  0
   -6.6366    5.6395   38.4461 H   0  0  0  0  0  0  0  0  0  0  0  0
   -5.7425    4.3401   37.5865 H   0  0  0  0  0  0  0  0  0  0  0  0
   -7.5388    4.3458   37.5865 H   0  0  0  0  0  0  0  0  0  0  0  0
   -3.8997    7.6721   42.0893 H   0  0  0  0  0  0  0  0  0  0  0  0
   -3.3058    6.6003   40.7577 H   0  0  0  0  0  0  0  0  0  0  0  0
   -4.8955    9.1411   40.2353 H   0  0  0  0  0  0  0  0  0  0  0  0
   -3.0904    9.1109   40.3750 H   0  0  0  0  0  0  0  0  0  0  0  0
   -3.1310    7.2802   38.5934 H   0  0  0  0  0  0  0  0  0  0  0  0
   -4.8649    7.7481   38.3303 H   0  0  0  0  0  0  0  0  0  0  0  0
   -3.9231   10.1637   38.0889 H   0  0  0  0  0  0  0  0  0  0  0  0
   -2.3428    9.3169   37.8031 H   0  0  0  0  0  0  0  0  0  0  0  0
   -2.9099    8.7779   35.7084 H   0  0  0  0  0  0  0  0  0  0  0  0
   -4.5124    8.1280   36.2565 H   0  0  0  0  0  0  0  0  0  0  0  0
   -4.1216   10.3887   34.6726 H   0  0  0  0  0  0  0  0  0  0  0  0
   -5.6095    9.9786   35.5755 H   0  0  0  0  0  0  0  0  0  0  0  0
   -4.3371   11.2391   38.0701 H   0  0  0  0  0  0  0  0  0  0  0  0
 11  1  1  0
  1 14  1  0
  2  3  2  0
  2  4  1  6
  2  5  1  0
  2  6  1  0
  6  7  1  0
  7 11  1  0
  7 12  1  0
  8  9  1  0
  8 10  2  0
  8 11  1  0
 13 14  2  0
 14 15  1  0
 15 16  1  0
 16 17  1  0
 17 18  1  0
 18 19  1  0
 19 20  1  0
 20 21  1  0
  1 22  1  0
  7 23  1  6
 11 24  1  6
 12 25  1  0
 12 26  1  0
 12 27  1  0
 15 28  1  0
 15 29  1  0
 16 30  1  0
 16 31  1  0
 17 32  1  0
 17 33  1  0
 18 34  1  0
 18 35  1  0
 19 36  1  0
 19 37  1  0
 20 38  1  0
 20 39  1  0
 21 40  1  0
M  CHG  3   4  -1   5  -1   9  -1
M  END
>  <filename_input>  (25) 
7B2C_TP7_docked.sdf

>  <pdb_id>  (25) 
7B2C_TP7

>  <pose_rank>  (25) 
24

>  <num_atoms_heavy>  (25) 
21

>  <num_torsions>  (25) 
11

>  <pose>  (25) 
[-6.654672278613792, 4.610616000369921, 40.71402164998012, 2.2613292234112534, -3.2956532357968262, 0.1603671138998811, 0.41894434400166214, -1.199120328138766, -4.331911170500504, -10.3023740658629, -10.468766314689661, -5.296148484168059, -2.9050747326436737, 2.5733549323375264, -0.2079817479069737, -0.20871342537261534, 1.905724826623422]

>  <energy>  (25) 
-137.86093487264648

>  <inter_energy>  (25) 
-143.54346929233645

>  <intra_energy>  (25) 
6.335830473137455

>  <rmsd>  (25) 
12.0863

>  <sdf_rank>  (25) 
0

$$$$

     RDKit          3D

 40 39  0  0  0  0  0  0  0  0999 V2000
    1.6350    1.4700   44.7520 N   0  0  0  0  0  0  0  0  0  0  0  0
    6.0780    0.8140   44.0460 P   0  0  2  0  0  0  0  0  0  0  0  0
    6.2320    1.3770   42.6520 O   0  0  0  0  0  0  0  0  0  0  0  0
    6.8140    1.5770   45.1210 O   0  0  0  0  0  0  0  0  0  0  0  0
    6.2750   -0.6910   44.1510 O   0  0  0  0  0  0  0  0  0  0  0  0
    4.5140    0.9800   44.3880 O   0  0  0  0  0  0  0  0  0  0  0  0
    3.8860    2.2610   44.2050 C   0  0  1  0  0  0  0  0  0  0  0  0
    2.3460    1.3170   42.4120 C   0  0  0  0  0  0  0  0  0  0  0  0
    1.8910    0.1570   42.4310 O   0  0  0  0  0  0  0  0  0  0  0  0
    2.7260    1.8690   41.3460 O   0  0  0  0  0  0  0  0  0  0  0  0
    2.4420    2.0810   43.7120 C   0  0  1  0  0  0  0  0  0  0  0  0
    3.9270    3.0360   45.5320 C   0  0  0  0  0  0  0  0  0  0  0  0
    0.6190    3.3840   45.2440 O   0  0  0  0  0  0  0  0  0  0  0  0
    0.7760    2.1880   45.4470 C   0  0  0  0  0  0  0  0  0  0  0  0
   -0.0070    1.4390   46.5020 C   0  0  0  0  0  0  0  0  0  0  0  0
   -1.2570    2.2110   46.9150 C   0  0  0  0  0  0  0  0  0  0  0  0
   -2.1200    1.4000   47.8760 C   0  0  0  0  0  0  0  0  0  0  0  0
   -1.4080    1.1400   49.2040 C   0  0  0  0  0  0  0  0  0  0  0  0
   -1.5110    2.3380   50.1560 C   0  0  0  0  0  0  0  0  0  0  0  0
   -2.9050    2.4660   50.7570 C   0  0  0  0  0  0  0  0  0  0  0  0
   -2.9340    3.9450   51.8360 S   0  0  0  0  0  0  0  0  0  0  0  0
    1.7348    0.4640   44.9491 H   0  0  0  0  0  0  0  0  0  0  0  0
    4.4299    2.8357   43.4409 H   0  0  0  0  0  0  0  0  0  0  0  0
    2.0455    3.0833   43.4927 H   0  0  0  0  0  0  0  0  0  0  0  0
    3.8895    2.3269   46.3721 H   0  0  0  0  0  0  0  0  0  0  0  0
    4.8573    3.6204   45.5867 H   0  0  0  0  0  0  0  0  0  0  0  0
    3.0635    3.7153   45.5867 H   0  0  0  0  0  0  0  0  0  0  0  0
   -0.3067    0.4604   46.0988 H   0  0  0  0  0  0  0  0  0  0  0  0
    0.6335    1.3145   47.3876 H   0  0  0  0  0  0  0  0  0  0  0  0
   -0.9534    3.1459   47.4087 H   0  0  0  0  0  0  0  0  0  0  0  0
   -1.8485    2.4208   46.0116 H   0  0  0  0  0  0  0  0  0  0  0  0
   -3.0491    1.9548   48.0737 H   0  0  0  0  0  0  0  0  0  0  0  0
   -2.3298    0.4276   47.4066 H   0  0  0  0  0  0  0  0  0  0  0  0
   -1.8649    0.2631   49.6861 H   0  0  0  0  0  0  0  0  0  0  0  0
   -0.3430    0.9670   48.9900 H   0  0  0  0  0  0  0  0  0  0  0  0
   -0.7828    2.2091   50.9703 H   0  0  0  0  0  0  0  0  0  0  0  0
   -1.3025    3.2513   49.5794 H   0  0  0  0  0  0  0  0  0  0  0  0
   -3.6475    2.5777   49.9532 H   0  0  0  0  0  0  0  0  0  0  0  0
   -3.1493    1.5665   51.3412 H   0  0  0  0  0  0  0  0  0  0  0  0
   -2.9263    3.5528   53.1487 H   0  0  0  0  0  0  0  0  0  0  0  0
 11  1  1  0
  1 14  1  0
  2  3  2  0
  2  4  1  1
  2  5  1  0
  2  6  1  0
  6  7  1  0
  7 11  1  0
  7 12  1  0
  8  9  1  0
  8 10  2  0
  8 11  1  0
 13 14  2  0
 14 15  1  0
 15 16  1  0
 16 17  1  0
 17 18  1  0
 18 19  1  0
 19 20  1  0
 20 21  1  0
  1 22  1  0
  7 23  1  6
 11 24  1  6
 12 25  1  0
 12 26  1  0
 12 27  1  0
 15 28  1  0
 15 29  1  0
 16 30  1  0
 16 31  1  0
 17 32  1  0
 17 33  1  0
 18 34  1  0
 18 35  1  0
 19 36  1  0
 19 37  1  0
 20 38  1  0
 20 39  1  0
 21 40  1  0
M  CHG  3   4  -1   5  -1   9  -1
M  END
>  <filename_input>  (26) 
7B2C_TP7_docked.sdf

>  <pdb_id>  (26) 
7B2C_TP7

>  <pose_rank>  (26) 
25

>  <num_atoms_heavy>  (26) 
21

>  <num_torsions>  (26) 
11

>  <pose>  (26) 
[2.442, 2.081, 43.712, 1e-06, 1e-06, 1e-06, 0.0, 0.0, 0.0, 0.0, 0.0, 0.0, 0.0, 0.0, 0.0, 0.0, 0.0]

>  <energy>  (26) 
-714.1288490133098

>  <inter_energy>  (26) 
-724.5335979653834

>  <intra_energy>  (26) 
14.132746493127186

>  <rmsd>  (26) 
0.0

>  <sdf_rank>  (26) 
0

$$$$
