
     RDKit          3D

 44 46  0  0  0  0  0  0  0  0999 V2000
  -26.3971   -5.8981   11.7817 P   0  0  2  0  0  0  0  0  0  0  0  0
  -27.1747   -7.1254   11.7007 O   0  0  0  0  0  0  0  0  0  0  0  0
  -26.8331   -4.9983   10.5703 O   0  0  0  0  0  0  0  0  0  0  0  0
  -24.8758   -6.3005   11.6386 O   0  0  0  0  0  0  0  0  0  0  0  0
  -27.2312   -3.4670   13.3526 P   0  0  1  0  0  0  0  0  0  0  0  0
  -27.0095   -2.9811   14.7026 O   0  0  0  0  0  0  0  0  0  0  0  0
  -26.7013   -2.4079   12.3088 O   0  0  0  0  0  0  0  0  0  0  0  0
  -26.6209   -4.9942   13.1691 N   0  0  0  0  0  0  0  0  0  0  0  0
  -29.9399   -4.1695   13.9695 P   0  0  2  0  0  0  0  0  0  0  0  0
  -29.4767   -5.4085   14.6159 O   0  0  0  0  0  0  0  0  0  0  0  0
  -31.1802   -4.3225   13.0875 O   0  0  0  0  0  0  0  0  0  0  0  0
  -28.7873   -3.5615   13.0530 O   0  0  0  0  0  0  0  0  0  0  0  0
  -30.2318   -3.0872   15.0534 O   0  0  0  0  0  0  0  0  0  0  0  0
  -31.3755   -2.2200   14.9670 C   0  0  0  0  0  0  0  0  0  0  0  0
  -31.6813   -1.7902   16.3720 C   0  0  1  0  0  0  0  0  0  0  0  0
  -32.8388   -2.5034   16.8518 O   0  0  0  0  0  0  0  0  0  0  0  0
  -30.5988   -2.1462   17.3795 C   0  0  1  0  0  0  0  0  0  0  0  0
  -29.5397   -1.2001   17.3271 O   0  0  0  0  0  0  0  0  0  0  0  0
  -31.3714   -2.1245   18.6962 C   0  0  1  0  0  0  0  0  0  0  0  0
  -31.4622   -0.7980   19.1869 O   0  0  0  0  0  0  0  0  0  0  0  0
  -32.7664   -2.5967   18.2644 C   0  0  2  0  0  0  0  0  0  0  0  0
  -33.0914   -3.9569   18.6758 N   0  0  0  0  0  0  0  0  0  0  0  0
  -32.6184   -5.1311   18.1519 C   0  0  0  0  0  0  0  0  0  0  0  0
  -33.0793   -6.2053   18.7467 N   0  0  0  0  0  0  0  0  0  0  0  0
  -33.9170   -5.7009   19.7323 C   0  0  0  0  0  0  0  0  0  0  0  0
  -34.7116   -6.3270   20.7178 C   0  0  0  0  0  0  0  0  0  0  0  0
  -34.7310   -7.6433   20.9180 N   0  0  0  0  0  0  0  0  0  0  0  0
  -35.4444   -5.5368   21.5389 N   0  0  0  0  0  0  0  0  0  0  0  0
  -35.3587   -4.2053   21.4000 C   0  0  0  0  0  0  0  0  0  0  0  0
  -34.6397   -3.5019   20.5123 N   0  0  0  0  0  0  0  0  0  0  0  0
  -33.9372   -4.3177   19.6993 C   0  0  0  0  0  0  0  0  0  0  0  0
  -27.2298   -5.5813   13.7569 H   0  0  0  0  0  0  0  0  0  0  0  0
  -31.1441   -1.3447   14.3422 H   0  0  0  0  0  0  0  0  0  0  0  0
  -32.2339   -2.7327   14.5085 H   0  0  0  0  0  0  0  0  0  0  0  0
  -31.8024   -0.6987   16.3087 H   0  0  0  0  0  0  0  0  0  0  0  0
  -30.1000   -3.1114   17.2073 H   0  0  0  0  0  0  0  0  0  0  0  0
  -29.2680   -0.9574   18.2477 H   0  0  0  0  0  0  0  0  0  0  0  0
  -30.9084   -2.7332   19.4869 H   0  0  0  0  0  0  0  0  0  0  0  0
  -31.4613   -0.8115   20.1768 H   0  0  0  0  0  0  0  0  0  0  0  0
  -33.5010   -1.9491   18.7655 H   0  0  0  0  0  0  0  0  0  0  0  0
  -31.9145   -5.1694   17.3074 H   0  0  0  0  0  0  0  0  0  0  0  0
  -35.3314   -8.0437   21.6530 H   0  0  0  0  0  0  0  0  0  0  0  0
  -34.1456   -8.2612   20.3380 H   0  0  0  0  0  0  0  0  0  0  0  0
  -35.9568   -3.6119   22.1073 H   0  0  0  0  0  0  0  0  0  0  0  0
  1  2  2  0
  1  3  1  6
  1  4  1  0
  1  8  1  0
  5  6  2  0
  5  7  1  6
  5  8  1  0
  5 12  1  0
  9 10  2  0
  9 11  1  6
  9 12  1  0
  9 13  1  0
 13 14  1  0
 15 14  1  0
 15 16  1  0
 15 17  1  0
 16 21  1  0
 17 18  1  0
 17 19  1  0
 19 20  1  0
 19 21  1  0
 21 22  1  0
 22 23  1  0
 22 31  1  0
 23 24  2  0
 24 25  1  0
 25 26  2  0
 25 31  1  0
 26 27  1  0
 26 28  1  0
 28 29  2  0
 29 30  1  0
 30 31  2  0
  8 32  1  0
 14 33  1  0
 14 34  1  0
 15 35  1  6
 17 36  1  6
 18 37  1  0
 19 38  1  1
 20 39  1  0
 21 40  1  1
 23 41  1  0
 27 42  1  0
 27 43  1  0
 29 44  1  0
M  CHG  4   3  -1   4  -1   7  -1  11  -1
M  END
>  <filename_input>  (1) 
7B94_ANP_docked.sdf

>  <pdb_id>  (1) 
7B94_ANP

>  <pose_rank>  (1) 
0

>  <num_atoms_heavy>  (1) 
31

>  <num_torsions>  (1) 
8

>  <pose>  (1) 
[-31.681328980526498, -1.7902097592113764, 16.372032694646425, 5.921806204368239, -0.6139766128378011, 1.8692944162757585, 0.0519876338033979, 5.696513007826868, -0.7314885084979992, 0.8594074486846424, -0.28504651779797424, -0.31617292060438423, 2.7183561075649605, -3.6879967336216586]

>  <energy>  (1) 
-1757.8652528805512

>  <inter_energy>  (1) 
-1759.0528146661106

>  <intra_energy>  (1) 
9.659239319332274

>  <rmsd>  (1) 
0.859475

>  <sdf_rank>  (1) 
0

$$$$

     RDKit          3D

 44 46  0  0  0  0  0  0  0  0999 V2000
  -26.0303   -0.5145   13.3916 P   0  0  2  0  0  0  0  0  0  0  0  0
  -26.2943    0.7697   12.7601 O   0  0  0  0  0  0  0  0  0  0  0  0
  -25.1636   -0.2273   14.6696 O   0  0  0  0  0  0  0  0  0  0  0  0
  -25.2044   -1.3799   12.3593 O   0  0  0  0  0  0  0  0  0  0  0  0
  -27.7221   -2.9757   13.7833 P   0  0  1  0  0  0  0  0  0  0  0  0
  -28.0950   -3.3320   12.4261 O   0  0  0  0  0  0  0  0  0  0  0  0
  -26.5775   -3.9356   14.2933 O   0  0  0  0  0  0  0  0  0  0  0  0
  -27.3805   -1.3603   13.8949 N   0  0  0  0  0  0  0  0  0  0  0  0
  -30.1209   -4.3012   14.6203 P   0  0  2  0  0  0  0  0  0  0  0  0
  -29.9404   -5.4189   15.5616 O   0  0  0  0  0  0  0  0  0  0  0  0
  -30.1798   -4.6990   13.1446 O   0  0  0  0  0  0  0  0  0  0  0  0
  -28.9310   -3.2531   14.7743 O   0  0  0  0  0  0  0  0  0  0  0  0
  -31.4214   -3.5179   14.9760 O   0  0  0  0  0  0  0  0  0  0  0  0
  -31.4629   -2.0806   14.9727 C   0  0  0  0  0  0  0  0  0  0  0  0
  -31.7967   -1.6687   16.3767 C   0  0  1  0  0  0  0  0  0  0  0  0
  -32.9449   -2.4104   16.8352 O   0  0  0  0  0  0  0  0  0  0  0  0
  -30.7204   -2.0095   17.3960 C   0  0  1  0  0  0  0  0  0  0  0  0
  -29.6812   -1.0405   17.3652 O   0  0  0  0  0  0  0  0  0  0  0  0
  -31.5108   -2.0149   18.7022 C   0  0  1  0  0  0  0  0  0  0  0  0
  -31.6367   -0.6946   19.2018 O   0  0  0  0  0  0  0  0  0  0  0  0
  -32.8894   -2.5134   18.2479 C   0  0  2  0  0  0  0  0  0  0  0  0
  -33.1906   -3.8835   18.6443 N   0  0  0  0  0  0  0  0  0  0  0  0
  -32.7321   -5.0440   18.0788 C   0  0  0  0  0  0  0  0  0  0  0  0
  -33.1634   -6.1327   18.6695 N   0  0  0  0  0  0  0  0  0  0  0  0
  -33.9644   -5.6532   19.6972 C   0  0  0  0  0  0  0  0  0  0  0  0
  -34.7161   -6.3037   20.7004 C   0  0  0  0  0  0  0  0  0  0  0  0
  -34.7205   -7.6239   20.8747 N   0  0  0  0  0  0  0  0  0  0  0  0
  -35.4204   -5.5346   21.5652 N   0  0  0  0  0  0  0  0  0  0  0  0
  -35.3475   -4.2000   21.4498 C   0  0  0  0  0  0  0  0  0  0  0  0
  -34.6679   -3.4747   20.5489 N   0  0  0  0  0  0  0  0  0  0  0  0
  -33.9934   -4.2698   19.6928 C   0  0  0  0  0  0  0  0  0  0  0  0
  -27.4430   -1.1586   14.9030 H   0  0  0  0  0  0  0  0  0  0  0  0
  -30.4855   -1.6714   14.6773 H   0  0  0  0  0  0  0  0  0  0  0  0
  -32.2070   -1.7025   14.2561 H   0  0  0  0  0  0  0  0  0  0  0  0
  -31.9404   -0.5796   16.3201 H   0  0  0  0  0  0  0  0  0  0  0  0
  -30.1987   -2.9624   17.2230 H   0  0  0  0  0  0  0  0  0  0  0  0
  -29.4251   -0.8017   18.2912 H   0  0  0  0  0  0  0  0  0  0  0  0
  -31.0454   -2.6198   19.4943 H   0  0  0  0  0  0  0  0  0  0  0  0
  -31.6347   -0.7148   20.1916 H   0  0  0  0  0  0  0  0  0  0  0  0
  -33.6444   -1.8857   18.7440 H   0  0  0  0  0  0  0  0  0  0  0  0
  -32.0618   -5.0612   17.2068 H   0  0  0  0  0  0  0  0  0  0  0  0
  -35.2894   -8.0425   21.6244 H   0  0  0  0  0  0  0  0  0  0  0  0
  -34.1550   -8.2264   20.2599 H   0  0  0  0  0  0  0  0  0  0  0  0
  -35.9205   -3.6246   22.1918 H   0  0  0  0  0  0  0  0  0  0  0  0
  1  2  2  0
  1  3  1  1
  1  4  1  0
  1  8  1  0
  5  6  2  0
  5  7  1  1
  5  8  1  0
  5 12  1  0
  9 10  2  0
  9 11  1  6
  9 12  1  0
  9 13  1  0
 13 14  1  0
 15 14  1  0
 15 16  1  0
 15 17  1  0
 16 21  1  0
 17 18  1  0
 17 19  1  0
 19 20  1  0
 19 21  1  0
 21 22  1  0
 22 23  1  0
 22 31  1  0
 23 24  2  0
 24 25  1  0
 25 26  2  0
 25 31  1  0
 26 27  1  0
 26 28  1  0
 28 29  2  0
 29 30  1  0
 30 31  2  0
  8 32  1  0
 14 33  1  0
 14 34  1  0
 15 35  1  6
 17 36  1  6
 18 37  1  0
 19 38  1  1
 20 39  1  0
 21 40  1  1
 23 41  1  0
 27 42  1  0
 27 43  1  0
 29 44  1  0
M  CHG  4   3  -1   4  -1   7  -1  11  -1
M  END
>  <filename_input>  (2) 
7B94_ANP_docked.sdf

>  <pdb_id>  (2) 
7B94_ANP

>  <pose_rank>  (2) 
1

>  <num_atoms_heavy>  (2) 
31

>  <num_torsions>  (2) 
8

>  <pose>  (2) 
[-31.79671718809555, -1.668720306401423, 16.376674774676665, 5.83092861608386, 1.6980345268443335, -1.4672474381253524, -0.004334425609433709, 0.36931462859456754, 0.7753015644118191, -0.6009354238616372, 2.302840477911311, 0.9395504062566328, -1.9328433573439292, 0.7655357485986192]

>  <energy>  (2) 
-1707.0074621141412

>  <inter_energy>  (2) 
-1719.0593158664994

>  <intra_energy>  (2) 
24.53310628898638

>  <rmsd>  (2) 
2.1875

>  <sdf_rank>  (2) 
0

$$$$

     RDKit          3D

 44 46  0  0  0  0  0  0  0  0999 V2000
  -26.4800   -7.1249   11.7464 P   0  0  2  0  0  0  0  0  0  0  0  0
  -26.8667   -7.6620   10.4504 O   0  0  0  0  0  0  0  0  0  0  0  0
  -25.0417   -6.5162   11.5797 O   0  0  0  0  0  0  0  0  0  0  0  0
  -26.4421   -8.3365   12.7599 O   0  0  0  0  0  0  0  0  0  0  0  0
  -28.3174   -4.7470   11.5380 P   0  0  1  0  0  0  0  0  0  0  0  0
  -27.4245   -3.8191   10.8675 O   0  0  0  0  0  0  0  0  0  0  0  0
  -29.3859   -5.2961   10.5141 O   0  0  0  0  0  0  0  0  0  0  0  0
  -27.4599   -5.9106   12.3440 N   0  0  0  0  0  0  0  0  0  0  0  0
  -28.7068   -3.3644   14.0175 P   0  0  2  0  0  0  0  0  0  0  0  0
  -28.3663   -1.9417   13.8510 O   0  0  0  0  0  0  0  0  0  0  0  0
  -27.5704   -4.2469   14.5366 O   0  0  0  0  0  0  0  0  0  0  0  0
  -29.1822   -3.9839   12.6289 O   0  0  0  0  0  0  0  0  0  0  0  0
  -29.9247   -3.5052   14.9810 O   0  0  0  0  0  0  0  0  0  0  0  0
  -31.1338   -2.7517   14.7860 C   0  0  0  0  0  0  0  0  0  0  0  0
  -31.4931   -2.1833   16.1277 C   0  0  1  0  0  0  0  0  0  0  0  0
  -32.6660   -2.8513   16.6344 O   0  0  0  0  0  0  0  0  0  0  0  0
  -30.4483   -2.4282   17.2056 C   0  0  1  0  0  0  0  0  0  0  0  0
  -29.3902   -1.4857   17.0963 O   0  0  0  0  0  0  0  0  0  0  0  0
  -31.2696   -2.2776   18.4837 C   0  0  1  0  0  0  0  0  0  0  0  0
  -31.3821   -0.9088   18.8331 O   0  0  0  0  0  0  0  0  0  0  0  0
  -32.6463   -2.8001   18.0509 C   0  0  2  0  0  0  0  0  0  0  0  0
  -32.9831   -4.1135   18.5863 N   0  0  0  0  0  0  0  0  0  0  0  0
  -32.5127   -5.3345   18.1803 C   0  0  0  0  0  0  0  0  0  0  0  0
  -32.9852   -6.3451   18.8700 N   0  0  0  0  0  0  0  0  0  0  0  0
  -33.8283   -5.7451   19.7957 C   0  0  0  0  0  0  0  0  0  0  0  0
  -34.6350   -6.2709   20.8288 C   0  0  0  0  0  0  0  0  0  0  0  0
  -34.6641   -7.5622   21.1527 N   0  0  0  0  0  0  0  0  0  0  0  0
  -35.3701   -5.4026   21.5646 N   0  0  0  0  0  0  0  0  0  0  0  0
  -35.2751   -4.0907   21.3010 C   0  0  0  0  0  0  0  0  0  0  0  0
  -34.5443   -3.4784   20.3573 N   0  0  0  0  0  0  0  0  0  0  0  0
  -33.8398   -4.3712   19.6316 C   0  0  0  0  0  0  0  0  0  0  0  0
  -28.1709   -6.4098   12.8973 H   0  0  0  0  0  0  0  0  0  0  0  0
  -30.9657   -1.9416   14.0612 H   0  0  0  0  0  0  0  0  0  0  0  0
  -31.9413   -3.3846   14.3893 H   0  0  0  0  0  0  0  0  0  0  0  0
  -31.6145   -1.1047   15.9491 H   0  0  0  0  0  0  0  0  0  0  0  0
  -29.9409   -3.4027   17.1510 H   0  0  0  0  0  0  0  0  0  0  0  0
  -29.0910   -1.2190   18.0015 H   0  0  0  0  0  0  0  0  0  0  0  0
  -30.8350   -2.7999   19.3488 H   0  0  0  0  0  0  0  0  0  0  0  0
  -31.3894   -0.8194   19.8190 H   0  0  0  0  0  0  0  0  0  0  0  0
  -33.4008   -2.1096   18.4559 H   0  0  0  0  0  0  0  0  0  0  0  0
  -31.8018   -5.4564   17.3497 H   0  0  0  0  0  0  0  0  0  0  0  0
  -35.2733   -7.8879   21.9167 H   0  0  0  0  0  0  0  0  0  0  0  0
  -34.0775   -8.2353   20.6391 H   0  0  0  0  0  0  0  0  0  0  0  0
  -35.8756   -3.4299   21.9434 H   0  0  0  0  0  0  0  0  0  0  0  0
  1  2  2  0
  1  3  1  6
  1  4  1  0
  1  8  1  0
  5  6  2  0
  5  7  1  6
  5  8  1  0
  5 12  1  0
  9 10  2  0
  9 11  1  1
  9 12  1  0
  9 13  1  0
 13 14  1  0
 15 14  1  0
 15 16  1  0
 15 17  1  0
 16 21  1  0
 17 18  1  0
 17 19  1  0
 19 20  1  0
 19 21  1  0
 21 22  1  0
 22 23  1  0
 22 31  1  0
 23 24  2  0
 24 25  1  0
 25 26  2  0
 25 31  1  0
 26 27  1  0
 26 28  1  0
 28 29  2  0
 29 30  1  0
 30 31  2  0
  8 32  1  0
 14 33  1  0
 14 34  1  0
 15 35  1  6
 17 36  1  6
 18 37  1  0
 19 38  1  1
 20 39  1  0
 21 40  1  1
 23 41  1  0
 27 42  1  0
 27 43  1  0
 29 44  1  0
M  CHG  4   3  -1   4  -1   7  -1  11  -1
M  END
>  <filename_input>  (3) 
7B94_ANP_docked.sdf

>  <pdb_id>  (3) 
7B94_ANP

>  <pose_rank>  (3) 
2

>  <num_atoms_heavy>  (3) 
31

>  <num_torsions>  (3) 
8

>  <pose>  (3) 
[-31.493146964769245, -2.1833062066966944, 16.12769356755511, 5.958362023965826, 1.4130518166864063, 0.3953519071387076, 0.02103736775130421, -0.6714154248030458, 0.5202339058011153, 4.178558082237135, 2.0560226780286, -0.7481852513012393, -1.7682291659129037, -2.208535212769574]

>  <energy>  (3) 
-1572.659706198837

>  <inter_energy>  (3) 
-1587.5151731322394

>  <intra_energy>  (3) 
24.821143421709767

>  <rmsd>  (3) 
1.85882

>  <sdf_rank>  (3) 
0

$$$$

     RDKit          3D

 44 46  0  0  0  0  0  0  0  0999 V2000
  -29.0068    2.2125   14.9005 P   0  0  2  0  0  0  0  0  0  0  0  0
  -30.1023    2.0040   13.9657 O   0  0  0  0  0  0  0  0  0  0  0  0
  -29.5336    1.8043   16.3227 O   0  0  0  0  0  0  0  0  0  0  0  0
  -28.6581    3.7534   14.8728 O   0  0  0  0  0  0  0  0  0  0  0  0
  -27.4746   -0.2119   13.9794 P   0  0  1  0  0  0  0  0  0  0  0  0
  -27.4129   -0.1664   12.5296 O   0  0  0  0  0  0  0  0  0  0  0  0
  -26.2565   -1.0440   14.5411 O   0  0  0  0  0  0  0  0  0  0  0  0
  -27.6308    1.3102   14.6099 N   0  0  0  0  0  0  0  0  0  0  0  0
  -29.0575   -2.5832   14.2676 P   0  0  2  0  0  0  0  0  0  0  0  0
  -27.9440   -3.3867   14.7989 O   0  0  0  0  0  0  0  0  0  0  0  0
  -29.3725   -2.8093   12.7880 O   0  0  0  0  0  0  0  0  0  0  0  0
  -28.7519   -1.0301   14.4479 O   0  0  0  0  0  0  0  0  0  0  0  0
  -30.3484   -2.8581   15.0979 O   0  0  0  0  0  0  0  0  0  0  0  0
  -31.4847   -1.9786   15.0420 C   0  0  0  0  0  0  0  0  0  0  0  0
  -31.7906   -1.6002   16.4617 C   0  0  1  0  0  0  0  0  0  0  0  0
  -32.9387   -2.3419   16.9202 O   0  0  0  0  0  0  0  0  0  0  0  0
  -30.7011   -1.9784   17.4535 C   0  0  1  0  0  0  0  0  0  0  0  0
  -29.6523   -1.0196   17.4302 O   0  0  0  0  0  0  0  0  0  0  0  0
  -31.4696   -2.0099   18.7723 C   0  0  1  0  0  0  0  0  0  0  0  0
  -31.5731   -0.7020   19.3081 O   0  0  0  0  0  0  0  0  0  0  0  0
  -32.8608   -2.4823   18.3287 C   0  0  2  0  0  0  0  0  0  0  0  0
  -33.1698   -3.8592   18.6944 N   0  0  0  0  0  0  0  0  0  0  0  0
  -32.7038   -5.0096   18.1144 C   0  0  0  0  0  0  0  0  0  0  0  0
  -33.1457   -6.1086   18.6777 N   0  0  0  0  0  0  0  0  0  0  0  0
  -33.9623   -5.6473   19.7015 C   0  0  0  0  0  0  0  0  0  0  0  0
  -34.7305   -6.3154   20.6802 C   0  0  0  0  0  0  0  0  0  0  0  0
  -34.7392   -7.6386   20.8296 N   0  0  0  0  0  0  0  0  0  0  0  0
  -35.4475   -5.5616   21.5482 N   0  0  0  0  0  0  0  0  0  0  0  0
  -35.3711   -4.2252   21.4591 C   0  0  0  0  0  0  0  0  0  0  0  0
  -34.6765   -3.4841   20.5829 N   0  0  0  0  0  0  0  0  0  0  0  0
  -33.9896   -4.2640   19.7226 C   0  0  0  0  0  0  0  0  0  0  0  0
  -27.0692    1.9022   13.9814 H   0  0  0  0  0  0  0  0  0  0  0  0
  -31.2444   -1.0821   14.4517 H   0  0  0  0  0  0  0  0  0  0  0  0
  -32.3461   -2.4662   14.5624 H   0  0  0  0  0  0  0  0  0  0  0  0
  -31.9237   -0.5086   16.4359 H   0  0  0  0  0  0  0  0  0  0  0  0
  -30.1924   -2.9317   17.2470 H   0  0  0  0  0  0  0  0  0  0  0  0
  -29.3976   -0.7866   18.3581 H   0  0  0  0  0  0  0  0  0  0  0  0
  -30.9975   -2.6401   19.5405 H   0  0  0  0  0  0  0  0  0  0  0  0
  -31.5694   -0.7492   20.2970 H   0  0  0  0  0  0  0  0  0  0  0  0
  -33.6007   -1.8602   18.8536 H   0  0  0  0  0  0  0  0  0  0  0  0
  -32.0199   -5.0114   17.2529 H   0  0  0  0  0  0  0  0  0  0  0  0
  -35.3203   -8.0704   21.5622 H   0  0  0  0  0  0  0  0  0  0  0  0
  -34.1647   -8.2303   20.2125 H   0  0  0  0  0  0  0  0  0  0  0  0
  -35.9552   -3.6630   22.2026 H   0  0  0  0  0  0  0  0  0  0  0  0
  1  2  2  0
  1  3  1  1
  1  4  1  0
  1  8  1  0
  5  6  2  0
  5  7  1  1
  5  8  1  0
  5 12  1  0
  9 10  2  0
  9 11  1  6
  9 12  1  0
  9 13  1  0
 13 14  1  0
 15 14  1  0
 15 16  1  0
 15 17  1  0
 16 21  1  0
 17 18  1  0
 17 19  1  0
 19 20  1  0
 19 21  1  0
 21 22  1  0
 22 23  1  0
 22 31  1  0
 23 24  2  0
 24 25  1  0
 25 26  2  0
 25 31  1  0
 26 27  1  0
 26 28  1  0
 28 29  2  0
 29 30  1  0
 30 31  2  0
  8 32  1  0
 14 33  1  0
 14 34  1  0
 15 35  1  6
 17 36  1  6
 18 37  1  0
 19 38  1  1
 20 39  1  0
 21 40  1  1
 23 41  1  0
 27 42  1  0
 27 43  1  0
 29 44  1  0
M  CHG  4   3  -1   4  -1   7  -1  11  -1
M  END
>  <filename_input>  (4) 
7B94_ANP_docked.sdf

>  <pdb_id>  (4) 
7B94_ANP

>  <pose_rank>  (4) 
3

>  <num_atoms_heavy>  (4) 
31

>  <num_torsions>  (4) 
8

>  <pose>  (4) 
[-31.790589709149444, -1.6001949872946108, 16.46174732086018, 4.23032049732356, -4.477418982313043, 1.1863328566212041, 0.03026793581347784, -0.5662655847500688, 0.642963041243704, -0.13911302445911375, -4.925859111530109, 1.648302286634216, -5.374898569734489, -2.225877521470583]

>  <energy>  (4) 
-1634.7229020611057

>  <inter_energy>  (4) 
-1655.0999064080963

>  <intra_energy>  (4) 
23.792572710493392

>  <rmsd>  (4) 
3.59016

>  <sdf_rank>  (4) 
0

$$$$

     RDKit          3D

 44 46  0  0  0  0  0  0  0  0999 V2000
  -25.0417    0.0822   13.5371 P   0  0  2  0  0  0  0  0  0  0  0  0
  -25.1719   -0.5447   12.2304 O   0  0  0  0  0  0  0  0  0  0  0  0
  -23.8108    1.0546   13.4585 O   0  0  0  0  0  0  0  0  0  0  0  0
  -24.7569   -1.0702   14.5800 O   0  0  0  0  0  0  0  0  0  0  0  0
  -27.2209    0.9189   15.4409 P   0  0  1  0  0  0  0  0  0  0  0  0
  -26.3363    0.8439   16.5897 O   0  0  0  0  0  0  0  0  0  0  0  0
  -28.2616    2.0886   15.6424 O   0  0  0  0  0  0  0  0  0  0  0  0
  -26.3531    0.9907   14.0336 N   0  0  0  0  0  0  0  0  0  0  0  0
  -28.8829   -0.9853   14.0907 P   0  0  2  0  0  0  0  0  0  0  0  0
  -28.3714   -2.3290   13.7740 O   0  0  0  0  0  0  0  0  0  0  0  0
  -28.7546    0.0401   12.9629 O   0  0  0  0  0  0  0  0  0  0  0  0
  -28.1183   -0.3878   15.3542 O   0  0  0  0  0  0  0  0  0  0  0  0
  -30.3819   -1.0776   14.5099 O   0  0  0  0  0  0  0  0  0  0  0  0
  -30.9122   -2.2402   15.1692 C   0  0  0  0  0  0  0  0  0  0  0  0
  -31.4750   -1.7601   16.4750 C   0  0  1  0  0  0  0  0  0  0  0  0
  -32.6581   -2.5187   16.7966 O   0  0  0  0  0  0  0  0  0  0  0  0
  -30.5627   -1.9972   17.6687 C   0  0  1  0  0  0  0  0  0  0  0  0
  -29.5613   -0.9910   17.7372 O   0  0  0  0  0  0  0  0  0  0  0  0
  -31.5482   -1.9571   18.8341 C   0  0  1  0  0  0  0  0  0  0  0  0
  -31.7909   -0.6159   19.2221 O   0  0  0  0  0  0  0  0  0  0  0  0
  -32.8224   -2.5361   18.2045 C   0  0  2  0  0  0  0  0  0  0  0  0
  -33.1407   -3.8915   18.6367 N   0  0  0  0  0  0  0  0  0  0  0  0
  -32.6614   -5.0711   18.1312 C   0  0  0  0  0  0  0  0  0  0  0  0
  -33.1171   -6.1384   18.7424 N   0  0  0  0  0  0  0  0  0  0  0  0
  -33.9579   -5.6231   19.7198 C   0  0  0  0  0  0  0  0  0  0  0  0
  -34.7497   -6.2379   20.7145 C   0  0  0  0  0  0  0  0  0  0  0  0
  -34.7625   -7.5511   20.9351 N   0  0  0  0  0  0  0  0  0  0  0  0
  -35.4869   -5.4389   21.5230 N   0  0  0  0  0  0  0  0  0  0  0  0
  -35.4080   -4.1092   21.3635 C   0  0  0  0  0  0  0  0  0  0  0  0
  -34.6922   -3.4160   20.4654 N   0  0  0  0  0  0  0  0  0  0  0  0
  -33.9851   -4.2407   19.6653 C   0  0  0  0  0  0  0  0  0  0  0  0
  -26.0153    1.9630   13.9951 H   0  0  0  0  0  0  0  0  0  0  0  0
  -31.7040   -2.6976   14.5577 H   0  0  0  0  0  0  0  0  0  0  0  0
  -30.1350   -3.0032   15.3237 H   0  0  0  0  0  0  0  0  0  0  0  0
  -31.6408   -0.6828   16.3268 H   0  0  0  0  0  0  0  0  0  0  0  0
  -29.9917   -2.9370   17.6405 H   0  0  0  0  0  0  0  0  0  0  0  0
  -29.3605   -0.7892   18.6854 H   0  0  0  0  0  0  0  0  0  0  0  0
  -31.1952   -2.4954   19.7261 H   0  0  0  0  0  0  0  0  0  0  0  0
  -31.8019   -0.5550   20.2102 H   0  0  0  0  0  0  0  0  0  0  0  0
  -33.6647   -1.9110   18.5359 H   0  0  0  0  0  0  0  0  0  0  0  0
  -31.9570   -5.1190   17.2877 H   0  0  0  0  0  0  0  0  0  0  0  0
  -35.3612   -7.9431   21.6759 H   0  0  0  0  0  0  0  0  0  0  0  0
  -34.1736   -8.1748   20.3649 H   0  0  0  0  0  0  0  0  0  0  0  0
  -36.0094   -3.5081   22.0613 H   0  0  0  0  0  0  0  0  0  0  0  0
  1  2  2  0
  1  3  1  6
  1  4  1  0
  1  8  1  0
  5  6  2  0
  5  7  1  1
  5  8  1  0
  5 12  1  0
  9 10  2  0
  9 11  1  6
  9 12  1  0
  9 13  1  0
 13 14  1  0
 15 14  1  0
 15 16  1  0
 15 17  1  0
 16 21  1  0
 17 18  1  0
 17 19  1  0
 19 20  1  0
 19 21  1  0
 21 22  1  0
 22 23  1  0
 22 31  1  0
 23 24  2  0
 24 25  1  0
 25 26  2  0
 25 31  1  0
 26 27  1  0
 26 28  1  0
 28 29  2  0
 29 30  1  0
 30 31  2  0
  8 32  1  0
 14 33  1  0
 14 34  1  0
 15 35  1  6
 17 36  1  6
 18 37  1  0
 19 38  1  1
 20 39  1  0
 21 40  1  6
 23 41  1  0
 27 42  1  0
 27 43  1  0
 29 44  1  0
M  CHG  4   3  -1   4  -1   7  -1  11  -1
M  END
>  <filename_input>  (5) 
7B94_ANP_docked.sdf

>  <pdb_id>  (5) 
7B94_ANP

>  <pose_rank>  (5) 
4

>  <num_atoms_heavy>  (5) 
31

>  <num_torsions>  (5) 
8

>  <pose>  (5) 
[-31.475017618162887, -1.760127391742481, 16.474964765699557, -0.09529265236212503, -0.16694291185777857, 0.04120659162951163, -0.1296723173936907, 10.04369796155675, 4.967804772594292, -2.458302432363139, 2.4932377822252816, 3.989803419950129, 0.1895626895434172, 6.8577813549426025]

>  <energy>  (5) 
-1595.2092588199628

>  <inter_energy>  (5) 
-1601.901106000122

>  <intra_energy>  (5) 
26.648917159483048

>  <rmsd>  (5) 
2.97615

>  <sdf_rank>  (5) 
0

$$$$

     RDKit          3D

 44 46  0  0  0  0  0  0  0  0999 V2000
  -30.6088   -5.5913   13.9376 P   0  0  2  0  0  0  0  0  0  0  0  0
  -31.5129   -5.9923   15.0050 O   0  0  0  0  0  0  0  0  0  0  0  0
  -31.0966   -6.3104   12.6293 O   0  0  0  0  0  0  0  0  0  0  0  0
  -29.1667   -6.1026   14.3323 O   0  0  0  0  0  0  0  0  0  0  0  0
  -29.9886   -3.1542   12.2793 P   0  0  1  0  0  0  0  0  0  0  0  0
  -28.8920   -3.8861   11.6715 O   0  0  0  0  0  0  0  0  0  0  0  0
  -31.0746   -2.8117   11.1861 O   0  0  0  0  0  0  0  0  0  0  0  0
  -30.5641   -3.9536   13.6092 N   0  0  0  0  0  0  0  0  0  0  0  0
  -29.1612   -1.2699   14.2734 P   0  0  2  0  0  0  0  0  0  0  0  0
  -28.1897   -0.1637   14.2604 O   0  0  0  0  0  0  0  0  0  0  0  0
  -28.7176   -2.5138   15.0453 O   0  0  0  0  0  0  0  0  0  0  0  0
  -29.4868   -1.7355   12.7850 O   0  0  0  0  0  0  0  0  0  0  0  0
  -30.5157   -0.7745   14.8660 O   0  0  0  0  0  0  0  0  0  0  0  0
  -31.5360   -1.6939   15.2917 C   0  0  0  0  0  0  0  0  0  0  0  0
  -31.8183   -1.3688   16.7294 C   0  0  1  0  0  0  0  0  0  0  0  0
  -32.9619   -2.1238   17.1774 O   0  0  0  0  0  0  0  0  0  0  0  0
  -30.7149   -1.7878   17.6888 C   0  0  1  0  0  0  0  0  0  0  0  0
  -29.6631   -0.8320   17.6854 O   0  0  0  0  0  0  0  0  0  0  0  0
  -31.4628   -1.8670   19.0174 C   0  0  1  0  0  0  0  0  0  0  0  0
  -31.5532   -0.5801   19.6040 O   0  0  0  0  0  0  0  0  0  0  0  0
  -32.8625   -2.3179   18.5781 C   0  0  2  0  0  0  0  0  0  0  0  0
  -33.1708   -3.7068   18.8962 N   0  0  0  0  0  0  0  0  0  0  0  0
  -32.6294   -4.8375   18.3438 C   0  0  0  0  0  0  0  0  0  0  0  0
  -33.0938   -5.9545   18.8507 N   0  0  0  0  0  0  0  0  0  0  0  0
  -34.0076   -5.5271   19.8046 C   0  0  0  0  0  0  0  0  0  0  0  0
  -34.8434   -6.2271   20.7025 C   0  0  0  0  0  0  0  0  0  0  0  0
  -34.8349   -7.5523   20.8323 N   0  0  0  0  0  0  0  0  0  0  0  0
  -35.6510   -5.5027   21.5140 N   0  0  0  0  0  0  0  0  0  0  0  0
  -35.5978   -4.1637   21.4504 C   0  0  0  0  0  0  0  0  0  0  0  0
  -34.8460   -3.3941   20.6492 N   0  0  0  0  0  0  0  0  0  0  0  0
  -34.0684   -4.1453   19.8423 C   0  0  0  0  0  0  0  0  0  0  0  0
  -31.5480   -3.6562   13.6758 H   0  0  0  0  0  0  0  0  0  0  0  0
  -32.4445   -1.5629   14.6855 H   0  0  0  0  0  0  0  0  0  0  0  0
  -31.2101   -2.7378   15.1731 H   0  0  0  0  0  0  0  0  0  0  0  0
  -31.9478   -0.2766   16.7471 H   0  0  0  0  0  0  0  0  0  0  0  0
  -30.2130   -2.7341   17.4383 H   0  0  0  0  0  0  0  0  0  0  0  0
  -29.4173   -0.6086   18.6180 H   0  0  0  0  0  0  0  0  0  0  0  0
  -30.9811   -2.5273   19.7536 H   0  0  0  0  0  0  0  0  0  0  0  0
  -31.5472   -0.6658   20.5903 H   0  0  0  0  0  0  0  0  0  0  0  0
  -33.5919   -1.7139   19.1378 H   0  0  0  0  0  0  0  0  0  0  0  0
  -31.8725   -4.8110   17.5461 H   0  0  0  0  0  0  0  0  0  0  0  0
  -35.4681   -8.0080   21.5047 H   0  0  0  0  0  0  0  0  0  0  0  0
  -34.1950   -8.1217   20.2602 H   0  0  0  0  0  0  0  0  0  0  0  0
  -36.2577   -3.6261   22.1472 H   0  0  0  0  0  0  0  0  0  0  0  0
  1  2  2  0
  1  3  1  6
  1  4  1  0
  1  8  1  0
  5  6  2  0
  5  7  1  6
  5  8  1  0
  5 12  1  0
  9 10  2  0
  9 11  1  1
  9 12  1  0
  9 13  1  0
 13 14  1  0
 15 14  1  0
 15 16  1  0
 15 17  1  0
 16 21  1  0
 17 18  1  0
 17 19  1  0
 19 20  1  0
 19 21  1  0
 21 22  1  0
 22 23  1  0
 22 31  1  0
 23 24  2  0
 24 25  1  0
 25 26  2  0
 25 31  1  0
 26 27  1  0
 26 28  1  0
 28 29  2  0
 29 30  1  0
 30 31  2  0
  8 32  1  0
 14 33  1  0
 14 34  1  0
 15 35  1  6
 17 36  1  6
 18 37  1  0
 19 38  1  1
 20 39  1  0
 21 40  1  1
 23 41  1  0
 27 42  1  0
 27 43  1  0
 29 44  1  0
M  CHG  4   3  -1   4  -1   7  -1  11  -1
M  END
>  <filename_input>  (6) 
7B94_ANP_docked.sdf

>  <pdb_id>  (6) 
7B94_ANP

>  <pose_rank>  (6) 
5

>  <num_atoms_heavy>  (6) 
31

>  <num_torsions>  (6) 
8

>  <pose>  (6) 
[-31.818339487460943, -1.3688024822515663, 16.729385851298435, 5.038905802042303, 3.727189163339258, -0.8292650049033155, 0.13978302124833614, 4.241255585802821, -1.2850912185793615, -5.8745797460261695, -3.165049602800024, -1.32032791442657, 5.1418164187715645, 1.7874399088123356]

>  <energy>  (6) 
-1360.0952194771571

>  <inter_energy>  (6) 
-1435.6851504911338

>  <intra_energy>  (6) 
48.76601412232624

>  <rmsd>  (6) 
2.61825

>  <sdf_rank>  (6) 
0

$$$$

     RDKit          3D

 44 46  0  0  0  0  0  0  0  0999 V2000
  -25.0457    0.1493   12.2363 P   0  0  2  0  0  0  0  0  0  0  0  0
  -23.9109    0.3869   11.3570 O   0  0  0  0  0  0  0  0  0  0  0  0
  -26.2769    0.8949   11.6076 O   0  0  0  0  0  0  0  0  0  0  0  0
  -24.6876    0.7813   13.6396 O   0  0  0  0  0  0  0  0  0  0  0  0
  -26.7963   -2.1057   13.1975 P   0  0  1  0  0  0  0  0  0  0  0  0
  -28.0023   -1.9267   12.4092 O   0  0  0  0  0  0  0  0  0  0  0  0
  -26.6415   -3.6237   13.6017 O   0  0  0  0  0  0  0  0  0  0  0  0
  -25.4865   -1.4511   12.4264 N   0  0  0  0  0  0  0  0  0  0  0  0
  -28.1910   -0.5683   15.1731 P   0  0  2  0  0  0  0  0  0  0  0  0
  -29.1368   -0.2406   14.0933 O   0  0  0  0  0  0  0  0  0  0  0  0
  -27.6523    0.6338   15.9505 O   0  0  0  0  0  0  0  0  0  0  0  0
  -26.9314   -1.3468   14.5854 O   0  0  0  0  0  0  0  0  0  0  0  0
  -28.8618   -1.5513   16.1806 O   0  0  0  0  0  0  0  0  0  0  0  0
  -30.1198   -2.1858   15.8938 C   0  0  0  0  0  0  0  0  0  0  0  0
  -31.0692   -1.7350   16.9651 C   0  0  1  0  0  0  0  0  0  0  0  0
  -32.2359   -2.5821   16.9612 O   0  0  0  0  0  0  0  0  0  0  0  0
  -30.5256   -1.8816   18.3781 C   0  0  1  0  0  0  0  0  0  0  0  0
  -29.6632   -0.7971   18.6943 O   0  0  0  0  0  0  0  0  0  0  0  0
  -31.8057   -1.9054   19.2097 C   0  0  1  0  0  0  0  0  0  0  0  0
  -32.2478   -0.5829   19.4630 O   0  0  0  0  0  0  0  0  0  0  0  0
  -32.7979   -2.5937   18.2625 C   0  0  2  0  0  0  0  0  0  0  0  0
  -33.1272   -3.9643   18.6341 N   0  0  0  0  0  0  0  0  0  0  0  0
  -32.6965   -5.1234   18.0443 C   0  0  0  0  0  0  0  0  0  0  0  0
  -33.1489   -6.2137   18.6162 N   0  0  0  0  0  0  0  0  0  0  0  0
  -33.9349   -5.7367   19.6566 C   0  0  0  0  0  0  0  0  0  0  0  0
  -34.6963   -6.3899   20.6507 C   0  0  0  0  0  0  0  0  0  0  0  0
  -34.7286   -7.7127   20.7998 N   0  0  0  0  0  0  0  0  0  0  0  0
  -35.3799   -5.6224   21.5334 N   0  0  0  0  0  0  0  0  0  0  0  0
  -35.2784   -4.2878   21.4432 C   0  0  0  0  0  0  0  0  0  0  0  0
  -34.5870   -3.5602   20.5531 N   0  0  0  0  0  0  0  0  0  0  0  0
  -33.9338   -4.3532   19.6787 C   0  0  0  0  0  0  0  0  0  0  0  0
  -25.5560   -1.8095   11.4632 H   0  0  0  0  0  0  0  0  0  0  0  0
  -30.4865   -1.8759   14.9041 H   0  0  0  0  0  0  0  0  0  0  0  0
  -30.0224   -3.2814   15.8793 H   0  0  0  0  0  0  0  0  0  0  0  0
  -31.2638   -0.6767   16.7367 H   0  0  0  0  0  0  0  0  0  0  0  0
  -29.9035   -2.7726   18.5488 H   0  0  0  0  0  0  0  0  0  0  0  0
  -29.5922   -0.7079   19.6778 H   0  0  0  0  0  0  0  0  0  0  0  0
  -31.6868   -2.4013   20.1843 H   0  0  0  0  0  0  0  0  0  0  0  0
  -32.2978   -0.4332   20.4404 H   0  0  0  0  0  0  0  0  0  0  0  0
  -33.7435   -2.0341   18.3157 H   0  0  0  0  0  0  0  0  0  0  0  0
  -32.0306   -5.1384   17.1689 H   0  0  0  0  0  0  0  0  0  0  0  0
  -35.3032   -8.1332   21.5441 H   0  0  0  0  0  0  0  0  0  0  0  0
  -34.1790   -8.3155   20.1709 H   0  0  0  0  0  0  0  0  0  0  0  0
  -35.8356   -3.7144   22.1987 H   0  0  0  0  0  0  0  0  0  0  0  0
  1  2  2  0
  1  3  1  6
  1  4  1  0
  1  8  1  0
  5  6  2  0
  5  7  1  1
  5  8  1  0
  5 12  1  0
  9 10  2  0
  9 11  1  1
  9 12  1  0
  9 13  1  0
 13 14  1  0
 15 14  1  0
 15 16  1  0
 15 17  1  0
 16 21  1  0
 17 18  1  0
 17 19  1  0
 19 20  1  0
 19 21  1  0
 21 22  1  0
 22 23  1  0
 22 31  1  0
 23 24  2  0
 24 25  1  0
 25 26  2  0
 25 31  1  0
 26 27  1  0
 26 28  1  0
 28 29  2  0
 29 30  1  0
 30 31  2  0
  8 32  1  0
 14 33  1  0
 14 34  1  0
 15 35  1  6
 17 36  1  6
 18 37  1  0
 19 38  1  1
 20 39  1  0
 21 40  1  6
 23 41  1  0
 27 42  1  0
 27 43  1  0
 29 44  1  0
M  CHG  4   3  -1   4  -1   7  -1  11  -1
M  END
>  <filename_input>  (7) 
7B94_ANP_docked.sdf

>  <pdb_id>  (7) 
7B94_ANP

>  <pose_rank>  (7) 
6

>  <num_atoms_heavy>  (7) 
31

>  <num_torsions>  (7) 
8

>  <pose>  (7) 
[-31.069249998896108, -1.735044637794794, 16.965082156029204, 1.417822422447845, 5.471621302750384, -1.272351013028812, -0.4891600814221305, -1.6431849663049423, 0.7651271570248003, -2.8130668318352248, 0.10147291094994246, 0.558736815128256, 0.6927121813763183, 1.617115583840127]

>  <energy>  (7) 
-1546.2202229029572

>  <inter_energy>  (7) 
-1534.1643186628703

>  <intra_energy>  (7) 
32.241060249103334

>  <rmsd>  (7) 
3.02439

>  <sdf_rank>  (7) 
0

$$$$

     RDKit          3D

 44 46  0  0  0  0  0  0  0  0999 V2000
  -31.5287   -9.0757   16.1330 P   0  0  2  0  0  0  0  0  0  0  0  0
  -32.7455   -9.6250   15.5541 O   0  0  0  0  0  0  0  0  0  0  0  0
  -30.3881   -9.2681   15.0704 O   0  0  0  0  0  0  0  0  0  0  0  0
  -31.2088   -9.9185   17.4307 O   0  0  0  0  0  0  0  0  0  0  0  0
  -30.6235   -6.2070   15.9756 P   0  0  1  0  0  0  0  0  0  0  0  0
  -29.9980   -5.5223   17.0926 O   0  0  0  0  0  0  0  0  0  0  0  0
  -29.5266   -6.6177   14.9174 O   0  0  0  0  0  0  0  0  0  0  0  0
  -31.5804   -7.4481   16.5072 N   0  0  0  0  0  0  0  0  0  0  0  0
  -31.1854   -3.8651   14.4227 P   0  0  2  0  0  0  0  0  0  0  0  0
  -31.3772   -4.0272   12.9719 O   0  0  0  0  0  0  0  0  0  0  0  0
  -29.7635   -3.4999   14.8522 O   0  0  0  0  0  0  0  0  0  0  0  0
  -31.5721   -5.2102   15.1837 O   0  0  0  0  0  0  0  0  0  0  0  0
  -32.1627   -2.7779   14.9650 O   0  0  0  0  0  0  0  0  0  0  0  0
  -31.7340   -1.4258   15.2004 C   0  0  0  0  0  0  0  0  0  0  0  0
  -31.8832   -1.1906   16.6751 C   0  0  1  0  0  0  0  0  0  0  0  0
  -33.0029   -1.9505   17.1723 O   0  0  0  0  0  0  0  0  0  0  0  0
  -30.7124   -1.6940   17.5054 C   0  0  1  0  0  0  0  0  0  0  0  0
  -29.6406   -0.7612   17.4712 O   0  0  0  0  0  0  0  0  0  0  0  0
  -31.3450   -1.8456   18.8867 C   0  0  1  0  0  0  0  0  0  0  0  0
  -31.3515   -0.5987   19.5600 O   0  0  0  0  0  0  0  0  0  0  0  0
  -32.7884   -2.2386   18.5436 C   0  0  2  0  0  0  0  0  0  0  0  0
  -33.1037   -3.6389   18.7979 N   0  0  0  0  0  0  0  0  0  0  0  0
  -32.6154   -4.7432   18.1506 C   0  0  0  0  0  0  0  0  0  0  0  0
  -33.0708   -5.8810   18.6179 N   0  0  0  0  0  0  0  0  0  0  0  0
  -33.9210   -5.4968   19.6462 C   0  0  0  0  0  0  0  0  0  0  0  0
  -34.7172   -6.2357   20.5487 C   0  0  0  0  0  0  0  0  0  0  0  0
  -34.7257   -7.5663   20.6008 N   0  0  0  0  0  0  0  0  0  0  0  0
  -35.4639   -5.5483   21.4462 N   0  0  0  0  0  0  0  0  0  0  0  0
  -35.3897   -4.2089   21.4574 C   0  0  0  0  0  0  0  0  0  0  0  0
  -34.6706   -3.4048   20.6600 N   0  0  0  0  0  0  0  0  0  0  0  0
  -33.9540   -4.1188   19.7673 C   0  0  0  0  0  0  0  0  0  0  0  0
  -32.5345   -7.1599   16.2474 H   0  0  0  0  0  0  0  0  0  0  0  0
  -30.6837   -1.3006   14.8985 H   0  0  0  0  0  0  0  0  0  0  0  0
  -32.3306   -0.7086   14.6175 H   0  0  0  0  0  0  0  0  0  0  0  0
  -31.9826   -0.0996   16.7739 H   0  0  0  0  0  0  0  0  0  0  0  0
  -30.2584   -2.6315   17.1520 H   0  0  0  0  0  0  0  0  0  0  0  0
  -29.3748   -0.5299   18.3964 H   0  0  0  0  0  0  0  0  0  0  0  0
  -30.8188   -2.5626   19.5341 H   0  0  0  0  0  0  0  0  0  0  0  0
  -31.3507   -0.7518   20.5381 H   0  0  0  0  0  0  0  0  0  0  0  0
  -33.4511   -1.6584   19.2025 H   0  0  0  0  0  0  0  0  0  0  0  0
  -31.9047   -4.6812   17.3134 H   0  0  0  0  0  0  0  0  0  0  0  0
  -35.3281   -8.0512   21.2812 H   0  0  0  0  0  0  0  0  0  0  0  0
  -34.1299   -8.1106   19.9607 H   0  0  0  0  0  0  0  0  0  0  0  0
  -35.9990   -3.7033   22.2210 H   0  0  0  0  0  0  0  0  0  0  0  0
  1  2  2  0
  1  3  1  6
  1  4  1  0
  1  8  1  0
  5  6  2  0
  5  7  1  6
  5  8  1  0
  5 12  1  0
  9 10  2  0
  9 11  1  6
  9 12  1  0
  9 13  1  0
 13 14  1  0
 15 14  1  0
 15 16  1  0
 15 17  1  0
 16 21  1  0
 17 18  1  0
 17 19  1  0
 19 20  1  0
 19 21  1  0
 21 22  1  0
 22 23  1  0
 22 31  1  0
 23 24  2  0
 24 25  1  0
 25 26  2  0
 25 31  1  0
 26 27  1  0
 26 28  1  0
 28 29  2  0
 29 30  1  0
 30 31  2  0
  8 32  1  0
 14 33  1  0
 14 34  1  0
 15 35  1  6
 17 36  1  6
 18 37  1  0
 19 38  1  1
 20 39  1  0
 21 40  1  1
 23 41  1  0
 27 42  1  0
 27 43  1  0
 29 44  1  0
M  CHG  4   3  -1   4  -1   7  -1  11  -1
M  END
>  <filename_input>  (8) 
7B94_ANP_docked.sdf

>  <pdb_id>  (8) 
7B94_ANP

>  <pose_rank>  (8) 
7

>  <num_atoms_heavy>  (8) 
31

>  <num_torsions>  (8) 
8

>  <pose>  (8) 
[-31.883171480341456, -1.19061908216291, 16.675102245290272, -3.968275977734087, -4.5271360872573165, 1.178560336459425, 0.1707350960850331, -5.612401935955864, 7.090855277317461, 1.5609001489852385, 2.3927164512665, 1.5559874061428707, -2.758447154017729, 2.5103426891439997]

>  <energy>  (8) 
-1434.0717326994882

>  <inter_energy>  (8) 
-1514.6927426483696

>  <intra_energy>  (8) 
71.7599653872453

>  <rmsd>  (8) 
3.44322

>  <sdf_rank>  (8) 
0

$$$$

     RDKit          3D

 44 46  0  0  0  0  0  0  0  0999 V2000
  -25.6931   -0.8131   13.3775 P   0  0  2  0  0  0  0  0  0  0  0  0
  -26.6151   -0.3440   12.3541 O   0  0  0  0  0  0  0  0  0  0  0  0
  -26.0748   -0.0761   14.7110 O   0  0  0  0  0  0  0  0  0  0  0  0
  -24.2395   -0.3929   12.9224 O   0  0  0  0  0  0  0  0  0  0  0  0
  -26.9071   -3.5694   13.3270 P   0  0  1  0  0  0  0  0  0  0  0  0
  -27.1126   -3.6500   11.8921 O   0  0  0  0  0  0  0  0  0  0  0  0
  -26.6546   -5.0130   13.9134 O   0  0  0  0  0  0  0  0  0  0  0  0
  -25.7413   -2.4532   13.6928 N   0  0  0  0  0  0  0  0  0  0  0  0
  -29.7074   -3.6908   13.9230 P   0  0  2  0  0  0  0  0  0  0  0  0
  -29.6560   -5.1621   13.9352 O   0  0  0  0  0  0  0  0  0  0  0  0
  -30.3436   -3.0742   12.6761 O   0  0  0  0  0  0  0  0  0  0  0  0
  -28.2382   -3.0867   14.0448 O   0  0  0  0  0  0  0  0  0  0  0  0
  -30.4786   -3.1803   15.1783 O   0  0  0  0  0  0  0  0  0  0  0  0
  -31.4090   -2.0867   15.1009 C   0  0  0  0  0  0  0  0  0  0  0  0
  -31.7198   -1.7010   16.5176 C   0  0  1  0  0  0  0  0  0  0  0  0
  -32.8671   -2.4432   16.9773 O   0  0  0  0  0  0  0  0  0  0  0  0
  -30.6319   -2.0707   17.5143 C   0  0  1  0  0  0  0  0  0  0  0  0
  -29.5857   -1.1091   17.4884 O   0  0  0  0  0  0  0  0  0  0  0  0
  -31.4038   -2.0967   18.8313 C   0  0  1  0  0  0  0  0  0  0  0  0
  -31.5123   -0.7860   19.3594 O   0  0  0  0  0  0  0  0  0  0  0  0
  -32.7925   -2.5755   18.3867 C   0  0  2  0  0  0  0  0  0  0  0  0
  -33.0988   -3.9511   18.7595 N   0  0  0  0  0  0  0  0  0  0  0  0
  -32.6482   -5.1034   18.1711 C   0  0  0  0  0  0  0  0  0  0  0  0
  -33.0824   -6.2005   18.7438 N   0  0  0  0  0  0  0  0  0  0  0  0
  -33.8770   -5.7359   19.7833 C   0  0  0  0  0  0  0  0  0  0  0  0
  -34.6278   -6.4008   20.7776 C   0  0  0  0  0  0  0  0  0  0  0  0
  -34.6379   -7.7239   20.9280 N   0  0  0  0  0  0  0  0  0  0  0  0
  -35.3248   -5.6441   21.6592 N   0  0  0  0  0  0  0  0  0  0  0  0
  -35.2458   -4.3081   21.5677 C   0  0  0  0  0  0  0  0  0  0  0  0
  -34.5663   -3.5698   20.6773 N   0  0  0  0  0  0  0  0  0  0  0  0
  -33.8993   -4.3525   19.8040 C   0  0  0  0  0  0  0  0  0  0  0  0
  -24.8903   -2.8213   13.2442 H   0  0  0  0  0  0  0  0  0  0  0  0
  -30.9573   -1.2388   14.5651 H   0  0  0  0  0  0  0  0  0  0  0  0
  -32.3196   -2.3727   14.5541 H   0  0  0  0  0  0  0  0  0  0  0  0
  -31.8557   -0.6100   16.4852 H   0  0  0  0  0  0  0  0  0  0  0  0
  -30.1201   -3.0237   17.3147 H   0  0  0  0  0  0  0  0  0  0  0  0
  -29.3303   -0.8743   18.4156 H   0  0  0  0  0  0  0  0  0  0  0  0
  -30.9321   -2.7212   19.6043 H   0  0  0  0  0  0  0  0  0  0  0  0
  -31.5089   -0.8275   20.3485 H   0  0  0  0  0  0  0  0  0  0  0  0
  -33.5355   -1.9524   18.9061 H   0  0  0  0  0  0  0  0  0  0  0  0
  -31.9816   -5.1080   17.2961 H   0  0  0  0  0  0  0  0  0  0  0  0
  -35.2057   -8.1533   21.6724 H   0  0  0  0  0  0  0  0  0  0  0  0
  -34.0778   -8.3179   20.3000 H   0  0  0  0  0  0  0  0  0  0  0  0
  -35.8131   -3.7435   22.3223 H   0  0  0  0  0  0  0  0  0  0  0  0
  1  2  2  0
  1  3  1  1
  1  4  1  0
  1  8  1  0
  5  6  2  0
  5  7  1  1
  5  8  1  0
  5 12  1  0
  9 10  2  0
  9 11  1  6
  9 12  1  0
  9 13  1  0
 13 14  1  0
 15 14  1  0
 15 16  1  0
 15 17  1  0
 16 21  1  0
 17 18  1  0
 17 19  1  0
 19 20  1  0
 19 21  1  0
 21 22  1  0
 22 23  1  0
 22 31  1  0
 23 24  2  0
 24 25  1  0
 25 26  2  0
 25 31  1  0
 26 27  1  0
 26 28  1  0
 28 29  2  0
 29 30  1  0
 30 31  2  0
  8 32  1  0
 14 33  1  0
 14 34  1  0
 15 35  1  6
 17 36  1  6
 18 37  1  0
 19 38  1  1
 20 39  1  0
 21 40  1  1
 23 41  1  0
 27 42  1  0
 27 43  1  0
 29 44  1  0
M  CHG  4   3  -1   4  -1   7  -1  11  -1
M  END
>  <filename_input>  (9) 
7B94_ANP_docked.sdf

>  <pdb_id>  (9) 
7B94_ANP

>  <pose_rank>  (9) 
8

>  <num_atoms_heavy>  (9) 
31

>  <num_torsions>  (9) 
8

>  <pose>  (9) 
[-31.71976988959303, -1.701046718569035, 16.517602320806038, 5.877833219514368, -2.1520641369279407, -0.35999825006696706, 0.006360629642663665, -0.34761702289291346, -0.09360199920481861, 0.8614976104517659, -5.12632590658219, 1.4068340997406594, -5.843371778622945, -1.9583503834210338]

>  <energy>  (9) 
-1648.6096310989815

>  <inter_energy>  (9) 
-1642.0004352024619

>  <intra_energy>  (9) 
5.89477515461598

>  <rmsd>  (9) 
2.11976

>  <sdf_rank>  (9) 
0

$$$$

     RDKit          3D

 44 46  0  0  0  0  0  0  0  0999 V2000
  -26.7806    2.0221   11.9262 P   0  0  2  0  0  0  0  0  0  0  0  0
  -27.3916    1.2620   10.8462 O   0  0  0  0  0  0  0  0  0  0  0  0
  -27.8965    2.9552   12.5186 O   0  0  0  0  0  0  0  0  0  0  0  0
  -25.6275    2.8935   11.2877 O   0  0  0  0  0  0  0  0  0  0  0  0
  -26.9774    0.2370   14.3445 P   0  0  1  0  0  0  0  0  0  0  0  0
  -26.2033   -0.9268   14.7373 O   0  0  0  0  0  0  0  0  0  0  0  0
  -27.4053    1.0526   15.6264 O   0  0  0  0  0  0  0  0  0  0  0  0
  -26.1766    1.1152   13.1929 N   0  0  0  0  0  0  0  0  0  0  0  0
  -29.1153   -1.6053   13.8479 P   0  0  2  0  0  0  0  0  0  0  0  0
  -28.4559   -2.4378   14.8676 O   0  0  0  0  0  0  0  0  0  0  0  0
  -29.1946   -2.2289   12.4534 O   0  0  0  0  0  0  0  0  0  0  0  0
  -28.3538   -0.2144   13.6948 O   0  0  0  0  0  0  0  0  0  0  0  0
  -30.5593   -1.2464   14.3142 O   0  0  0  0  0  0  0  0  0  0  0  0
  -31.4356   -2.2320   14.8871 C   0  0  0  0  0  0  0  0  0  0  0  0
  -31.6784   -1.8022   16.3044 C   0  0  1  0  0  0  0  0  0  0  0  0
  -32.8310   -2.4938   16.8258 O   0  0  0  0  0  0  0  0  0  0  0  0
  -30.5656   -2.1847   17.2682 C   0  0  1  0  0  0  0  0  0  0  0  0
  -29.4899   -1.2602   17.1785 O   0  0  0  0  0  0  0  0  0  0  0  0
  -31.2864   -2.1530   18.6138 C   0  0  1  0  0  0  0  0  0  0  0  0
  -31.3310   -0.8271   19.1123 O   0  0  0  0  0  0  0  0  0  0  0  0
  -32.7063   -2.5947   18.2343 C   0  0  2  0  0  0  0  0  0  0  0  0
  -33.0433   -3.9498   18.6529 N   0  0  0  0  0  0  0  0  0  0  0  0
  -32.5765   -5.1307   18.1387 C   0  0  0  0  0  0  0  0  0  0  0  0
  -33.0481   -6.1977   18.7384 N   0  0  0  0  0  0  0  0  0  0  0  0
  -33.8865   -5.6807   19.7169 C   0  0  0  0  0  0  0  0  0  0  0  0
  -34.6900   -6.2946   20.7028 C   0  0  0  0  0  0  0  0  0  0  0  0
  -34.7201   -7.6094   20.9115 N   0  0  0  0  0  0  0  0  0  0  0  0
  -35.4207   -5.4937   21.5154 N   0  0  0  0  0  0  0  0  0  0  0  0
  -35.3245   -4.1637   21.3683 C   0  0  0  0  0  0  0  0  0  0  0  0
  -34.5964   -3.4715   20.4794 N   0  0  0  0  0  0  0  0  0  0  0  0
  -33.8963   -4.2977   19.6748 C   0  0  0  0  0  0  0  0  0  0  0  0
  -25.5567    0.4293   12.7388 H   0  0  0  0  0  0  0  0  0  0  0  0
  -32.3843   -2.2679   14.3316 H   0  0  0  0  0  0  0  0  0  0  0  0
  -30.9915   -3.2374   14.8433 H   0  0  0  0  0  0  0  0  0  0  0  0
  -31.7793   -0.7082   16.2497 H   0  0  0  0  0  0  0  0  0  0  0  0
  -30.0937   -3.1591   17.0735 H   0  0  0  0  0  0  0  0  0  0  0  0
  -29.1955   -1.0071   18.0892 H   0  0  0  0  0  0  0  0  0  0  0  0
  -30.8060   -2.7745   19.3838 H   0  0  0  0  0  0  0  0  0  0  0  0
  -31.3303   -0.8465   20.1021 H   0  0  0  0  0  0  0  0  0  0  0  0
  -33.4077   -1.9345   18.7655 H   0  0  0  0  0  0  0  0  0  0  0  0
  -31.8692   -5.1798   17.2977 H   0  0  0  0  0  0  0  0  0  0  0  0
  -35.3268   -8.0005   21.6462 H   0  0  0  0  0  0  0  0  0  0  0  0
  -34.1367   -8.2353   20.3381 H   0  0  0  0  0  0  0  0  0  0  0  0
  -35.9214   -3.5614   22.0690 H   0  0  0  0  0  0  0  0  0  0  0  0
  1  2  2  0
  1  3  1  1
  1  4  1  0
  1  8  1  0
  5  6  2  0
  5  7  1  1
  5  8  1  0
  5 12  1  0
  9 10  2  0
  9 11  1  6
  9 12  1  0
  9 13  1  0
 13 14  1  0
 15 14  1  0
 15 16  1  0
 15 17  1  0
 16 21  1  0
 17 18  1  0
 17 19  1  0
 19 20  1  0
 19 21  1  0
 21 22  1  0
 22 23  1  0
 22 31  1  0
 23 24  2  0
 24 25  1  0
 25 26  2  0
 25 31  1  0
 26 27  1  0
 26 28  1  0
 28 29  2  0
 29 30  1  0
 30 31  2  0
  8 32  1  0
 14 33  1  0
 14 34  1  0
 15 35  1  6
 17 36  1  6
 18 37  1  0
 19 38  1  1
 20 39  1  0
 21 40  1  1
 23 41  1  0
 27 42  1  0
 27 43  1  0
 29 44  1  0
M  CHG  4   3  -1   4  -1   7  -1  11  -1
M  END
>  <filename_input>  (10) 
7B94_ANP_docked.sdf

>  <pdb_id>  (10) 
7B94_ANP

>  <pose_rank>  (10) 
9

>  <num_atoms_heavy>  (10) 
31

>  <num_torsions>  (10) 
8

>  <pose>  (10) 
[-31.678366165201762, -1.8022369393554765, 16.30441890741764, 3.515763883168193, -4.090202966687821, 3.093293561924722, 0.09812635184673216, -8.47858801941063, -1.42322321564047, -3.7751540721068104, 0.5607163464161302, 0.8459263324401152, 1.9617304926589094, -2.8681232428045424]

>  <energy>  (10) 
-1562.891190492012

>  <inter_energy>  (10) 
-1622.99703181494

>  <intra_energy>  (10) 
41.188567344505984

>  <rmsd>  (10) 
3.37136

>  <sdf_rank>  (10) 
0

$$$$

     RDKit          3D

 44 46  0  0  0  0  0  0  0  0999 V2000
  -29.7759    2.0073   15.1303 P   0  0  2  0  0  0  0  0  0  0  0  0
  -30.8489    1.4872   14.2962 O   0  0  0  0  0  0  0  0  0  0  0  0
  -30.2055    1.7806   16.6240 O   0  0  0  0  0  0  0  0  0  0  0  0
  -29.6593    3.5539   14.8282 O   0  0  0  0  0  0  0  0  0  0  0  0
  -27.8908   -0.1131   14.1185 P   0  0  1  0  0  0  0  0  0  0  0  0
  -27.6081    0.1699   12.7229 O   0  0  0  0  0  0  0  0  0  0  0  0
  -26.7013   -0.9372   14.7491 O   0  0  0  0  0  0  0  0  0  0  0  0
  -28.2885    1.2726   14.9311 N   0  0  0  0  0  0  0  0  0  0  0  0
  -29.1568   -2.6569   14.4892 P   0  0  2  0  0  0  0  0  0  0  0  0
  -28.2075   -3.0121   15.5571 O   0  0  0  0  0  0  0  0  0  0  0  0
  -28.8964   -3.3287   13.1399 O   0  0  0  0  0  0  0  0  0  0  0  0
  -29.1413   -1.0838   14.2383 O   0  0  0  0  0  0  0  0  0  0  0  0
  -30.6097   -2.9975   14.9413 O   0  0  0  0  0  0  0  0  0  0  0  0
  -31.6679   -2.0258   14.8796 C   0  0  0  0  0  0  0  0  0  0  0  0
  -31.9577   -1.6326   16.2987 C   0  0  1  0  0  0  0  0  0  0  0  0
  -33.1026   -2.3669   16.7768 O   0  0  0  0  0  0  0  0  0  0  0  0
  -30.8585   -2.0037   17.2824 C   0  0  1  0  0  0  0  0  0  0  0  0
  -29.8079   -1.0477   17.2384 O   0  0  0  0  0  0  0  0  0  0  0  0
  -31.6129   -2.0202   18.6097 C   0  0  1  0  0  0  0  0  0  0  0  0
  -31.7076   -0.7068   19.1335 O   0  0  0  0  0  0  0  0  0  0  0  0
  -33.0099   -2.4936   18.1857 C   0  0  2  0  0  0  0  0  0  0  0  0
  -33.3183   -3.8660   18.5683 N   0  0  0  0  0  0  0  0  0  0  0  0
  -32.9012   -5.0228   17.9643 C   0  0  0  0  0  0  0  0  0  0  0  0
  -33.3274   -6.1155   18.5513 N   0  0  0  0  0  0  0  0  0  0  0  0
  -34.0801   -5.6428   19.6180 C   0  0  0  0  0  0  0  0  0  0  0  0
  -34.8033   -6.3002   20.6376 C   0  0  0  0  0  0  0  0  0  0  0  0
  -34.8228   -7.6231   20.7878 N   0  0  0  0  0  0  0  0  0  0  0  0
  -35.4608   -5.5364   21.5431 N   0  0  0  0  0  0  0  0  0  0  0  0
  -35.3702   -4.2013   21.4494 C   0  0  0  0  0  0  0  0  0  0  0  0
  -34.7140   -3.4699   20.5361 N   0  0  0  0  0  0  0  0  0  0  0  0
  -34.0864   -4.2593   19.6400 C   0  0  0  0  0  0  0  0  0  0  0  0
  -27.7055    1.9989   14.4913 H   0  0  0  0  0  0  0  0  0  0  0  0
  -31.3469   -1.1486   14.2987 H   0  0  0  0  0  0  0  0  0  0  0  0
  -32.5614   -2.4366   14.3868 H   0  0  0  0  0  0  0  0  0  0  0  0
  -32.0885   -0.5410   16.2634 H   0  0  0  0  0  0  0  0  0  0  0  0
  -30.3544   -2.9602   17.0800 H   0  0  0  0  0  0  0  0  0  0  0  0
  -29.5425   -0.8063   18.1611 H   0  0  0  0  0  0  0  0  0  0  0  0
  -31.1341   -2.6439   19.3789 H   0  0  0  0  0  0  0  0  0  0  0  0
  -31.7049   -0.7451   20.1227 H   0  0  0  0  0  0  0  0  0  0  0  0
  -33.7427   -1.8645   18.7122 H   0  0  0  0  0  0  0  0  0  0  0  0
  -32.2655   -5.0341   17.0667 H   0  0  0  0  0  0  0  0  0  0  0  0
  -35.3691   -8.0468   21.5513 H   0  0  0  0  0  0  0  0  0  0  0  0
  -34.2915   -8.2228   20.1405 H   0  0  0  0  0  0  0  0  0  0  0  0
  -35.9046   -3.6310   22.2234 H   0  0  0  0  0  0  0  0  0  0  0  0
  1  2  2  0
  1  3  1  1
  1  4  1  0
  1  8  1  0
  5  6  2  0
  5  7  1  1
  5  8  1  0
  5 12  1  0
  9 10  2  0
  9 11  1  6
  9 12  1  0
  9 13  1  0
 13 14  1  0
 15 14  1  0
 15 16  1  0
 15 17  1  0
 16 21  1  0
 17 18  1  0
 17 19  1  0
 19 20  1  0
 19 21  1  0
 21 22  1  0
 22 23  1  0
 22 31  1  0
 23 24  2  0
 24 25  1  0
 25 26  2  0
 25 31  1  0
 26 27  1  0
 26 28  1  0
 28 29  2  0
 29 30  1  0
 30 31  2  0
  8 32  1  0
 14 33  1  0
 14 34  1  0
 15 35  1  6
 17 36  1  6
 18 37  1  0
 19 38  1  1
 20 39  1  0
 21 40  1  1
 23 41  1  0
 27 42  1  0
 27 43  1  0
 29 44  1  0
M  CHG  4   3  -1   4  -1   7  -1  11  -1
M  END
>  <filename_input>  (11) 
7B94_ANP_docked.sdf

>  <pdb_id>  (11) 
7B94_ANP

>  <pose_rank>  (11) 
10

>  <num_atoms_heavy>  (11) 
31

>  <num_torsions>  (11) 
8

>  <pose>  (11) 
[-31.95772793705698, -1.6326439655794083, 16.298672792043693, 4.208377082971325, -4.502536930158534, 1.0869893807276156, -0.016362308762411015, -0.4804825506788086, 0.9617728040934194, -0.7623430263378692, -5.079207656250595, 2.2326308604414127, -5.360265134680046, -1.8472799120148506]

>  <energy>  (11) 
-1567.1792241258295

>  <inter_energy>  (11) 
-1613.0742246365166

>  <intra_energy>  (11) 
59.73444573040042

>  <rmsd>  (11) 
3.67206

>  <sdf_rank>  (11) 
0

$$$$

     RDKit          3D

 44 46  0  0  0  0  0  0  0  0999 V2000
  -26.5805   -6.7522   10.6440 P   0  0  2  0  0  0  0  0  0  0  0  0
  -26.2947   -5.9755    9.4471 O   0  0  0  0  0  0  0  0  0  0  0  0
  -25.2075   -7.0097   11.3620 O   0  0  0  0  0  0  0  0  0  0  0  0
  -27.2105   -8.1218   10.1709 O   0  0  0  0  0  0  0  0  0  0  0  0
  -27.6230   -4.4440   12.2747 P   0  0  1  0  0  0  0  0  0  0  0  0
  -26.3213   -4.0313   12.7677 O   0  0  0  0  0  0  0  0  0  0  0  0
  -28.1460   -3.4040   11.2086 O   0  0  0  0  0  0  0  0  0  0  0  0
  -27.5853   -6.0155   11.7574 N   0  0  0  0  0  0  0  0  0  0  0  0
  -28.9606   -3.1992   14.4822 P   0  0  2  0  0  0  0  0  0  0  0  0
  -29.3804   -1.9781   13.7748 O   0  0  0  0  0  0  0  0  0  0  0  0
  -27.6936   -3.0562   15.3272 O   0  0  0  0  0  0  0  0  0  0  0  0
  -28.6974   -4.3765   13.4416 O   0  0  0  0  0  0  0  0  0  0  0  0
  -30.1167   -3.6994   15.4011 O   0  0  0  0  0  0  0  0  0  0  0  0
  -31.4663   -3.2294   15.2416 C   0  0  0  0  0  0  0  0  0  0  0  0
  -31.7469   -2.3536   16.4277 C   0  0  1  0  0  0  0  0  0  0  0  0
  -33.0110   -2.7264   17.0122 O   0  0  0  0  0  0  0  0  0  0  0  0
  -30.7596   -2.5236   17.5722 C   0  0  1  0  0  0  0  0  0  0  0  0
  -29.5710   -1.7874   17.3174 O   0  0  0  0  0  0  0  0  0  0  0  0
  -31.5594   -1.9980   18.7618 C   0  0  1  0  0  0  0  0  0  0  0  0
  -31.4674   -0.5852   18.8257 O   0  0  0  0  0  0  0  0  0  0  0  0
  -32.9954   -2.3913   18.3895 C   0  0  2  0  0  0  0  0  0  0  0  0
  -33.5304   -3.5049   19.1634 N   0  0  0  0  0  0  0  0  0  0  0  0
  -34.3930   -3.4542   20.2265 C   0  0  0  0  0  0  0  0  0  0  0  0
  -34.7148   -4.6303   20.7096 N   0  0  0  0  0  0  0  0  0  0  0  0
  -34.0117   -5.5185   19.9068 C   0  0  0  0  0  0  0  0  0  0  0  0
  -33.9258   -6.9282   19.8960 C   0  0  0  0  0  0  0  0  0  0  0  0
  -34.6368   -7.7133   20.7030 N   0  0  0  0  0  0  0  0  0  0  0  0
  -33.1210   -7.5081   18.9731 N   0  0  0  0  0  0  0  0  0  0  0  0
  -32.4719   -6.7250   18.0986 C   0  0  0  0  0  0  0  0  0  0  0  0
  -32.4802   -5.3865   18.0086 N   0  0  0  0  0  0  0  0  0  0  0  0
  -33.2753   -4.8402   18.9517 C   0  0  0  0  0  0  0  0  0  0  0  0
  -28.5332   -6.1832   11.3911 H   0  0  0  0  0  0  0  0  0  0  0  0
  -31.5616   -2.6521   14.3102 H   0  0  0  0  0  0  0  0  0  0  0  0
  -32.1781   -4.0660   15.1834 H   0  0  0  0  0  0  0  0  0  0  0  0
  -31.7032   -1.3281   16.0324 H   0  0  0  0  0  0  0  0  0  0  0  0
  -30.4043   -3.5521   17.7333 H   0  0  0  0  0  0  0  0  0  0  0  0
  -29.1527   -1.5284   18.1765 H   0  0  0  0  0  0  0  0  0  0  0  0
  -31.2154   -2.3908   19.7299 H   0  0  0  0  0  0  0  0  0  0  0  0
  -31.4487   -0.2982   19.7730 H   0  0  0  0  0  0  0  0  0  0  0  0
  -33.6407   -1.5305   18.6188 H   0  0  0  0  0  0  0  0  0  0  0  0
  -34.7814   -2.5110   20.6382 H   0  0  0  0  0  0  0  0  0  0  0  0
  -34.5319   -8.7366   20.6496 H   0  0  0  0  0  0  0  0  0  0  0  0
  -35.2916   -7.2974   21.3806 H   0  0  0  0  0  0  0  0  0  0  0  0
  -31.8508   -7.2495   17.3575 H   0  0  0  0  0  0  0  0  0  0  0  0
  1  2  2  0
  1  3  1  1
  1  4  1  0
  1  8  1  0
  5  6  2  0
  5  7  1  6
  5  8  1  0
  5 12  1  0
  9 10  2  0
  9 11  1  1
  9 12  1  0
  9 13  1  0
 13 14  1  0
 15 14  1  0
 15 16  1  0
 15 17  1  0
 16 21  1  0
 17 18  1  0
 17 19  1  0
 19 20  1  0
 19 21  1  0
 21 22  1  0
 22 23  1  0
 22 31  1  0
 23 24  2  0
 24 25  1  0
 25 26  2  0
 25 31  1  0
 26 27  1  0
 26 28  1  0
 28 29  2  0
 29 30  1  0
 30 31  2  0
  8 32  1  0
 14 33  1  0
 14 34  1  0
 15 35  1  6
 17 36  1  1
 18 37  1  0
 19 38  1  1
 20 39  1  0
 21 40  1  6
 23 41  1  0
 27 42  1  0
 27 43  1  0
 29 44  1  0
M  CHG  4   3  -1   4  -1   7  -1  11  -1
M  END
>  <filename_input>  (12) 
7B94_ANP_docked.sdf

>  <pdb_id>  (12) 
7B94_ANP

>  <pose_rank>  (12) 
11

>  <num_atoms_heavy>  (12) 
31

>  <num_torsions>  (12) 
8

>  <pose>  (12) 
[-31.74692292261137, -2.353645827724239, 16.42765043560317, -0.34872809140198413, -0.04760119624435466, -0.15747277623807668, -3.169183880733139, -1.0580621248910267, 0.9355307706849811, -2.713564634528499, -4.771548735021001, 1.3063206840713752, -1.5656123335258594, -2.370265247258984]

>  <energy>  (12) 
-1109.062162915805

>  <inter_energy>  (12) 
-1141.9667974292552

>  <intra_energy>  (12) 
51.77634569445141

>  <rmsd>  (12) 
2.35055

>  <sdf_rank>  (12) 
0

$$$$

     RDKit          3D

 44 46  0  0  0  0  0  0  0  0999 V2000
  -27.8674   -5.3841   12.3455 P   0  0  2  0  0  0  0  0  0  0  0  0
  -27.9337   -6.3487   13.4330 O   0  0  0  0  0  0  0  0  0  0  0  0
  -29.3458   -5.0833   11.9088 O   0  0  0  0  0  0  0  0  0  0  0  0
  -27.0810   -6.0721   11.1602 O   0  0  0  0  0  0  0  0  0  0  0  0
  -27.8633   -2.4637   13.0836 P   0  0  1  0  0  0  0  0  0  0  0  0
  -26.8873   -1.5404   13.6338 O   0  0  0  0  0  0  0  0  0  0  0  0
  -28.6297   -1.7806   11.8845 O   0  0  0  0  0  0  0  0  0  0  0  0
  -27.1606   -3.9185   12.7253 N   0  0  0  0  0  0  0  0  0  0  0  0
  -29.3698   -1.9348   15.4632 P   0  0  2  0  0  0  0  0  0  0  0  0
  -29.5760   -0.5153   15.1309 O   0  0  0  0  0  0  0  0  0  0  0  0
  -28.2690   -2.2074   16.4896 O   0  0  0  0  0  0  0  0  0  0  0  0
  -29.0000   -2.7600   14.1516 O   0  0  0  0  0  0  0  0  0  0  0  0
  -30.7021   -2.5519   15.9879 O   0  0  0  0  0  0  0  0  0  0  0  0
  -31.9301   -1.8038   15.9959 C   0  0  0  0  0  0  0  0  0  0  0  0
  -32.0506   -1.2125   17.3700 C   0  0  1  0  0  0  0  0  0  0  0  0
  -33.1849   -1.7922   18.0451 O   0  0  0  0  0  0  0  0  0  0  0  0
  -30.8831   -1.5365   18.2896 C   0  0  1  0  0  0  0  0  0  0  0  0
  -29.7848   -0.6751   18.0218 O   0  0  0  0  0  0  0  0  0  0  0  0
  -31.4995   -1.3273   19.6707 C   0  0  1  0  0  0  0  0  0  0  0  0
  -31.4593    0.0456   20.0202 O   0  0  0  0  0  0  0  0  0  0  0  0
  -32.9588   -1.7450   19.4438 C   0  0  2  0  0  0  0  0  0  0  0  0
  -33.3117   -3.0306   20.0336 N   0  0  0  0  0  0  0  0  0  0  0  0
  -34.3088   -3.8881   19.6497 C   0  0  0  0  0  0  0  0  0  0  0  0
  -34.3725   -4.9867   20.3632 N   0  0  0  0  0  0  0  0  0  0  0  0
  -33.3434   -4.8403   21.2838 C   0  0  0  0  0  0  0  0  0  0  0  0
  -32.8754   -5.6687   22.3274 C   0  0  0  0  0  0  0  0  0  0  0  0
  -33.3619   -6.8833   22.5752 N   0  0  0  0  0  0  0  0  0  0  0  0
  -31.8364   -5.2232   23.0742 N   0  0  0  0  0  0  0  0  0  0  0  0
  -31.2837   -4.0391   22.7710 C   0  0  0  0  0  0  0  0  0  0  0  0
  -31.6354   -3.1746   21.8073 N   0  0  0  0  0  0  0  0  0  0  0  0
  -32.6829   -3.6392   21.0953 C   0  0  0  0  0  0  0  0  0  0  0  0
  -26.5768   -4.1259   13.5481 H   0  0  0  0  0  0  0  0  0  0  0  0
  -31.8958   -1.0063   15.2391 H   0  0  0  0  0  0  0  0  0  0  0  0
  -32.7918   -2.4449   15.7582 H   0  0  0  0  0  0  0  0  0  0  0  0
  -32.1162   -0.1276   17.2009 H   0  0  0  0  0  0  0  0  0  0  0  0
  -30.4623   -2.5459   18.1719 H   0  0  0  0  0  0  0  0  0  0  0  0
  -29.3914   -0.3666   18.8762 H   0  0  0  0  0  0  0  0  0  0  0  0
  -30.9854   -1.8819   20.4694 H   0  0  0  0  0  0  0  0  0  0  0  0
  -31.4566    0.1351   21.0061 H   0  0  0  0  0  0  0  0  0  0  0  0
  -33.5944   -1.0009   19.9462 H   0  0  0  0  0  0  0  0  0  0  0  0
  -34.9950   -3.6742   18.8170 H   0  0  0  0  0  0  0  0  0  0  0  0
  -32.9803   -7.4424   23.3515 H   0  0  0  0  0  0  0  0  0  0  0  0
  -34.1198   -7.2636   21.9905 H   0  0  0  0  0  0  0  0  0  0  0  0
  -30.4295   -3.7371   23.3948 H   0  0  0  0  0  0  0  0  0  0  0  0
  1  2  2  0
  1  3  1  6
  1  4  1  0
  1  8  1  0
  5  6  2  0
  5  7  1  6
  5  8  1  0
  5 12  1  0
  9 10  2  0
  9 11  1  1
  9 12  1  0
  9 13  1  0
 13 14  1  0
 15 14  1  0
 15 16  1  0
 15 17  1  0
 16 21  1  0
 17 18  1  0
 17 19  1  0
 19 20  1  0
 19 21  1  0
 21 22  1  0
 22 23  1  0
 22 31  1  0
 23 24  2  0
 24 25  1  0
 25 26  2  0
 25 31  1  0
 26 27  1  0
 26 28  1  0
 28 29  2  0
 29 30  1  0
 30 31  2  0
  8 32  1  0
 14 33  1  0
 14 34  1  0
 15 35  1  6
 17 36  1  1
 18 37  1  0
 19 38  1  1
 20 39  1  0
 21 40  1  1
 23 41  1  0
 27 42  1  0
 27 43  1  0
 29 44  1  0
M  CHG  4   3  -1   4  -1   7  -1  11  -1
M  END
>  <filename_input>  (13) 
7B94_ANP_docked.sdf

>  <pdb_id>  (13) 
7B94_ANP

>  <pose_rank>  (13) 
12

>  <num_atoms_heavy>  (13) 
31

>  <num_torsions>  (13) 
8

>  <pose>  (13) 
[-32.050566821103004, -1.212530771342011, 17.37000628978135, -4.7638161283872105, 3.7059296871548573, -2.3704112658293557, -1.3557244317950568, -7.0400265599880205, 1.1822091646352004, -2.9043816632000707, 1.339008587959418, 0.7858603796481098, 2.310464393453834, -3.403987301399174]

>  <energy>  (13) 
-271.27523879165966

>  <inter_energy>  (13) 
-353.1073972936084

>  <intra_energy>  (13) 
104.56366190169591

>  <rmsd>  (13) 
2.35829

>  <sdf_rank>  (13) 
0

$$$$

     RDKit          3D

 44 46  0  0  0  0  0  0  0  0999 V2000
  -26.3498   -1.3078   12.8107 P   0  0  2  0  0  0  0  0  0  0  0  0
  -27.5368   -0.6886   13.3809 O   0  0  0  0  0  0  0  0  0  0  0  0
  -25.3900   -1.6466   14.0070 O   0  0  0  0  0  0  0  0  0  0  0  0
  -25.6771   -0.2384   11.8617 O   0  0  0  0  0  0  0  0  0  0  0  0
  -27.4535   -4.0831   12.4195 P   0  0  1  0  0  0  0  0  0  0  0  0
  -28.3343   -4.5182   11.3506 O   0  0  0  0  0  0  0  0  0  0  0  0
  -26.5630   -5.2927   12.9049 O   0  0  0  0  0  0  0  0  0  0  0  0
  -26.6110   -2.7302   11.9738 N   0  0  0  0  0  0  0  0  0  0  0  0
  -29.8709   -3.8312   13.9375 P   0  0  2  0  0  0  0  0  0  0  0  0
  -30.2039   -5.2134   14.3203 O   0  0  0  0  0  0  0  0  0  0  0  0
  -30.5630   -3.3242   12.6712 O   0  0  0  0  0  0  0  0  0  0  0  0
  -28.3019   -3.6872   13.7016 O   0  0  0  0  0  0  0  0  0  0  0  0
  -30.2114   -2.8630   15.1113 O   0  0  0  0  0  0  0  0  0  0  0  0
  -31.3213   -1.9514   15.0415 C   0  0  0  0  0  0  0  0  0  0  0  0
  -31.6746   -1.6135   16.4604 C   0  0  1  0  0  0  0  0  0  0  0  0
  -32.8217   -2.3863   16.8674 O   0  0  0  0  0  0  0  0  0  0  0  0
  -30.6072   -1.9970   17.4740 C   0  0  1  0  0  0  0  0  0  0  0  0
  -29.5758   -1.0196   17.5044 O   0  0  0  0  0  0  0  0  0  0  0  0
  -31.4124   -2.0743   18.7688 C   0  0  1  0  0  0  0  0  0  0  0  0
  -31.5550   -0.7820   19.3328 O   0  0  0  0  0  0  0  0  0  0  0  0
  -32.7815   -2.5600   18.2737 C   0  0  2  0  0  0  0  0  0  0  0  0
  -33.0758   -3.9507   18.5970 N   0  0  0  0  0  0  0  0  0  0  0  0
  -32.6093   -5.0774   17.9727 C   0  0  0  0  0  0  0  0  0  0  0  0
  -33.0357   -6.1979   18.5045 N   0  0  0  0  0  0  0  0  0  0  0  0
  -33.8419   -5.7774   19.5537 C   0  0  0  0  0  0  0  0  0  0  0  0
  -34.5923   -6.4837   20.5194 C   0  0  0  0  0  0  0  0  0  0  0  0
  -34.5894   -7.8112   20.6244 N   0  0  0  0  0  0  0  0  0  0  0  0
  -35.3030   -5.7649   21.4215 N   0  0  0  0  0  0  0  0  0  0  0  0
  -35.2374   -4.4258   21.3764 C   0  0  0  0  0  0  0  0  0  0  0  0
  -34.5599   -3.6504   20.5165 N   0  0  0  0  0  0  0  0  0  0  0  0
  -33.8789   -4.3958   19.6216 C   0  0  0  0  0  0  0  0  0  0  0  0
  -27.0632   -2.4285   11.0990 H   0  0  0  0  0  0  0  0  0  0  0  0
  -31.0342   -1.0422   14.4930 H   0  0  0  0  0  0  0  0  0  0  0  0
  -32.1749   -2.3987   14.5113 H   0  0  0  0  0  0  0  0  0  0  0  0
  -31.8267   -0.5241   16.4571 H   0  0  0  0  0  0  0  0  0  0  0  0
  -30.0756   -2.9358   17.2595 H   0  0  0  0  0  0  0  0  0  0  0  0
  -29.3509   -0.8064   18.4446 H   0  0  0  0  0  0  0  0  0  0  0  0
  -30.9511   -2.7149   19.5350 H   0  0  0  0  0  0  0  0  0  0  0  0
  -31.5475   -0.8502   20.3204 H   0  0  0  0  0  0  0  0  0  0  0  0
  -33.5474   -1.9640   18.7917 H   0  0  0  0  0  0  0  0  0  0  0  0
  -31.9369   -5.0451   17.1027 H   0  0  0  0  0  0  0  0  0  0  0  0
  -35.1577   -8.2717   21.3497 H   0  0  0  0  0  0  0  0  0  0  0  0
  -34.0190   -8.3775   19.9804 H   0  0  0  0  0  0  0  0  0  0  0  0
  -35.8155   -3.8932   22.1459 H   0  0  0  0  0  0  0  0  0  0  0  0
  1  2  2  0
  1  3  1  1
  1  4  1  0
  1  8  1  0
  5  6  2  0
  5  7  1  1
  5  8  1  0
  5 12  1  0
  9 10  2  0
  9 11  1  6
  9 12  1  0
  9 13  1  0
 13 14  1  0
 15 14  1  0
 15 16  1  0
 15 17  1  0
 16 21  1  0
 17 18  1  0
 17 19  1  0
 19 20  1  0
 19 21  1  0
 21 22  1  0
 22 23  1  0
 22 31  1  0
 23 24  2  0
 24 25  1  0
 25 26  2  0
 25 31  1  0
 26 27  1  0
 26 28  1  0
 28 29  2  0
 29 30  1  0
 30 31  2  0
  8 32  1  0
 14 33  1  0
 14 34  1  0
 15 35  1  6
 17 36  1  6
 18 37  1  0
 19 38  1  1
 20 39  1  0
 21 40  1  1
 23 41  1  0
 27 42  1  0
 27 43  1  0
 29 44  1  0
M  CHG  4   3  -1   4  -1   7  -1  11  -1
M  END
>  <filename_input>  (14) 
7B94_ANP_docked.sdf

>  <pdb_id>  (14) 
7B94_ANP

>  <pose_rank>  (14) 
13

>  <num_atoms_heavy>  (14) 
31

>  <num_torsions>  (14) 
8

>  <pose>  (14) 
[-31.674564023550573, -1.613541429360183, 16.46044553605528, 3.442074106861178, -4.262606413778175, 3.1407034437329204, -0.01400576178594773, -6.802455544993189, -0.6846472859126858, -4.888974121979525, 1.8316218728546112, 0.5762571003383703, 1.7119519522282174, -2.5168740373037135]

>  <energy>  (14) 
-1595.7216663256925

>  <inter_energy>  (14) 
-1618.978447374769

>  <intra_energy>  (14) 
14.69318963218317

>  <rmsd>  (14) 
2.08172

>  <sdf_rank>  (14) 
0

$$$$

     RDKit          3D

 44 46  0  0  0  0  0  0  0  0999 V2000
  -26.8217   -4.4486   12.1479 P   0  0  2  0  0  0  0  0  0  0  0  0
  -26.4483   -3.0584   12.3612 O   0  0  0  0  0  0  0  0  0  0  0  0
  -26.0705   -5.2971   13.2354 O   0  0  0  0  0  0  0  0  0  0  0  0
  -26.3190   -4.8494   10.7045 O   0  0  0  0  0  0  0  0  0  0  0  0
  -29.5891   -4.1015   13.2858 P   0  0  1  0  0  0  0  0  0  0  0  0
  -29.0570   -2.9234   13.9467 O   0  0  0  0  0  0  0  0  0  0  0  0
  -30.9556   -3.7475   12.5793 O   0  0  0  0  0  0  0  0  0  0  0  0
  -28.4506   -4.7881   12.3003 N   0  0  0  0  0  0  0  0  0  0  0  0
  -30.6070   -4.9951   15.8110 P   0  0  2  0  0  0  0  0  0  0  0  0
  -29.6655   -5.4606   16.8428 O   0  0  0  0  0  0  0  0  0  0  0  0
  -31.9697   -5.6901   15.8152 O   0  0  0  0  0  0  0  0  0  0  0  0
  -29.9819   -5.2021   14.3603 O   0  0  0  0  0  0  0  0  0  0  0  0
  -30.8323   -3.4592   15.9578 O   0  0  0  0  0  0  0  0  0  0  0  0
  -32.1265   -2.8632   15.7646 C   0  0  0  0  0  0  0  0  0  0  0  0
  -32.3403   -1.9413   16.9294 C   0  0  1  0  0  0  0  0  0  0  0  0
  -33.5976   -2.2512   17.5633 O   0  0  0  0  0  0  0  0  0  0  0  0
  -31.3243   -2.1096   18.0488 C   0  0  1  0  0  0  0  0  0  0  0  0
  -30.1198   -1.4237   17.7348 O   0  0  0  0  0  0  0  0  0  0  0  0
  -32.0685   -1.5193   19.2441 C   0  0  1  0  0  0  0  0  0  0  0  0
  -31.9267   -0.1093   19.2593 O   0  0  0  0  0  0  0  0  0  0  0  0
  -33.5279   -1.8738   18.9279 C   0  0  2  0  0  0  0  0  0  0  0  0
  -34.0760   -2.9432   19.7532 N   0  0  0  0  0  0  0  0  0  0  0  0
  -34.8359   -2.8267   20.8872 C   0  0  0  0  0  0  0  0  0  0  0  0
  -35.2025   -3.9747   21.4047 N   0  0  0  0  0  0  0  0  0  0  0  0
  -34.6420   -4.9141   20.5496 C   0  0  0  0  0  0  0  0  0  0  0  0
  -34.6647   -6.3262   20.5410 C   0  0  0  0  0  0  0  0  0  0  0  0
  -35.3598   -7.0547   21.4124 N   0  0  0  0  0  0  0  0  0  0  0  0
  -33.9903   -6.9660   19.5554 N   0  0  0  0  0  0  0  0  0  0  0  0
  -33.3626   -6.2348   18.6221 C   0  0  0  0  0  0  0  0  0  0  0  0
  -33.2771   -4.8997   18.5240 N   0  0  0  0  0  0  0  0  0  0  0  0
  -33.9426   -4.2941   19.5292 C   0  0  0  0  0  0  0  0  0  0  0  0
  -28.8259   -4.6545   11.3504 H   0  0  0  0  0  0  0  0  0  0  0  0
  -32.1489   -2.2975   14.8214 H   0  0  0  0  0  0  0  0  0  0  0  0
  -32.9156   -3.6274   15.7077 H   0  0  0  0  0  0  0  0  0  0  0  0
  -32.2741   -0.9308   16.4999 H   0  0  0  0  0  0  0  0  0  0  0  0
  -30.9992   -3.1443   18.2324 H   0  0  0  0  0  0  0  0  0  0  0  0
  -29.6610   -1.1624   18.5722 H   0  0  0  0  0  0  0  0  0  0  0  0
  -31.7082   -1.8933   20.2137 H   0  0  0  0  0  0  0  0  0  0  0  0
  -31.8947    0.2090   20.1962 H   0  0  0  0  0  0  0  0  0  0  0  0
  -34.1361   -0.9842   19.1484 H   0  0  0  0  0  0  0  0  0  0  0  0
  -35.1139   -1.8565   21.3248 H   0  0  0  0  0  0  0  0  0  0  0  0
  -35.3381   -8.0830   21.3571 H   0  0  0  0  0  0  0  0  0  0  0  0
  -35.9192   -6.5899   22.1417 H   0  0  0  0  0  0  0  0  0  0  0  0
  -32.8505   -6.8053   17.8332 H   0  0  0  0  0  0  0  0  0  0  0  0
  1  2  2  0
  1  3  1  1
  1  4  1  0
  1  8  1  0
  5  6  2  0
  5  7  1  6
  5  8  1  0
  5 12  1  0
  9 10  2  0
  9 11  1  6
  9 12  1  0
  9 13  1  0
 13 14  1  0
 15 14  1  0
 15 16  1  0
 15 17  1  0
 16 21  1  0
 17 18  1  0
 17 19  1  0
 19 20  1  0
 19 21  1  0
 21 22  1  0
 22 23  1  0
 22 31  1  0
 23 24  2  0
 24 25  1  0
 25 26  2  0
 25 31  1  0
 26 27  1  0
 26 28  1  0
 28 29  2  0
 29 30  1  0
 30 31  2  0
  8 32  1  0
 14 33  1  0
 14 34  1  0
 15 35  1  6
 17 36  1  1
 18 37  1  0
 19 38  1  1
 20 39  1  0
 21 40  1  6
 23 41  1  0
 27 42  1  0
 27 43  1  0
 29 44  1  0
M  CHG  4   3  -1   4  -1   7  -1  11  -1
M  END
>  <filename_input>  (15) 
7B94_ANP_docked.sdf

>  <pdb_id>  (15) 
7B94_ANP

>  <pose_rank>  (15) 
14

>  <num_atoms_heavy>  (15) 
31

>  <num_torsions>  (15) 
8

>  <pose>  (15) 
[-32.34033185327749, -1.9413298513857995, 16.92939227267832, -0.3838855757349858, -0.014000539551090218, -0.18557413486223603, 15.60401321202047, -26.109864801356405, -45.10827387391498, -62.004861398266094, -39.29679015547467, -36.58221553470605, 18.397072536968707, 4.061792094750433]

>  <energy>  (15) 
-1058.0801310320817

>  <inter_energy>  (15) 
-1113.3237531616364

>  <intra_energy>  (15) 
59.38357857210727

>  <rmsd>  (15) 
2.33828

>  <sdf_rank>  (15) 
0

$$$$

     RDKit          3D

 44 46  0  0  0  0  0  0  0  0999 V2000
  -25.5858    0.9299   12.8241 P   0  0  2  0  0  0  0  0  0  0  0  0
  -24.7481    1.3750   11.7207 O   0  0  0  0  0  0  0  0  0  0  0  0
  -26.6250    2.0745   13.1014 O   0  0  0  0  0  0  0  0  0  0  0  0
  -24.6423    0.7386   14.0771 O   0  0  0  0  0  0  0  0  0  0  0  0
  -26.9166   -1.6581   13.6019 P   0  0  1  0  0  0  0  0  0  0  0  0
  -25.9820   -2.7685   13.5650 O   0  0  0  0  0  0  0  0  0  0  0  0
  -27.1250   -1.1832   15.0928 O   0  0  0  0  0  0  0  0  0  0  0  0
  -26.4584   -0.4679   12.5473 N   0  0  0  0  0  0  0  0  0  0  0  0
  -29.0930   -3.5169   13.4625 P   0  0  2  0  0  0  0  0  0  0  0  0
  -28.2566   -4.6515   13.0371 O   0  0  0  0  0  0  0  0  0  0  0  0
  -30.4749   -3.4492   12.8101 O   0  0  0  0  0  0  0  0  0  0  0  0
  -28.3581   -2.1399   13.1434 O   0  0  0  0  0  0  0  0  0  0  0  0
  -29.2757   -3.5485   15.0107 O   0  0  0  0  0  0  0  0  0  0  0  0
  -30.4514   -4.1068   15.6219 C   0  0  0  0  0  0  0  0  0  0  0  0
  -31.0139   -3.0319   16.5053 C   0  0  1  0  0  0  0  0  0  0  0  0
  -32.3719   -3.3621   16.8592 O   0  0  0  0  0  0  0  0  0  0  0  0
  -30.3147   -2.9046   17.8501 C   0  0  1  0  0  0  0  0  0  0  0  0
  -29.1127   -2.1581   17.7173 O   0  0  0  0  0  0  0  0  0  0  0  0
  -31.3768   -2.2052   18.6950 C   0  0  1  0  0  0  0  0  0  0  0  0
  -31.3273   -0.8052   18.4801 O   0  0  0  0  0  0  0  0  0  0  0  0
  -32.6807   -2.7581   18.1039 C   0  0  2  0  0  0  0  0  0  0  0  0
  -33.3600   -3.7270   18.9554 N   0  0  0  0  0  0  0  0  0  0  0  0
  -34.3693   -3.4978   19.8531 C   0  0  0  0  0  0  0  0  0  0  0  0
  -34.7965   -4.5773   20.4634 N   0  0  0  0  0  0  0  0  0  0  0  0
  -34.0102   -5.5893   19.9292 C   0  0  0  0  0  0  0  0  0  0  0  0
  -33.9684   -6.9825   20.1569 C   0  0  0  0  0  0  0  0  0  0  0  0
  -34.8161   -7.6207   20.9615 N   0  0  0  0  0  0  0  0  0  0  0  0
  -33.0540   -7.7106   19.4719 N   0  0  0  0  0  0  0  0  0  0  0  0
  -32.2574   -7.0849   18.5924 C   0  0  0  0  0  0  0  0  0  0  0  0
  -32.2098   -5.7790   18.2894 N   0  0  0  0  0  0  0  0  0  0  0  0
  -33.1187   -5.0807   19.0012 C   0  0  0  0  0  0  0  0  0  0  0  0
  -27.3449   -0.1354   12.1418 H   0  0  0  0  0  0  0  0  0  0  0  0
  -31.1840   -4.3897   14.8517 H   0  0  0  0  0  0  0  0  0  0  0  0
  -30.2125   -5.0139   16.1964 H   0  0  0  0  0  0  0  0  0  0  0  0
  -30.8984   -2.1054   15.9237 H   0  0  0  0  0  0  0  0  0  0  0  0
  -29.9878   -3.8546   18.2981 H   0  0  0  0  0  0  0  0  0  0  0  0
  -28.7594   -1.9387   18.6157 H   0  0  0  0  0  0  0  0  0  0  0  0
  -31.2587   -2.3732   19.7757 H   0  0  0  0  0  0  0  0  0  0  0  0
  -31.3108   -0.3378   19.3527 H   0  0  0  0  0  0  0  0  0  0  0  0
  -33.3768   -1.9129   17.9985 H   0  0  0  0  0  0  0  0  0  0  0  0
  -34.7845   -2.4974   20.0449 H   0  0  0  0  0  0  0  0  0  0  0  0
  -34.7370   -8.6397   21.0889 H   0  0  0  0  0  0  0  0  0  0  0  0
  -35.5509   -7.0953   21.4564 H   0  0  0  0  0  0  0  0  0  0  0  0
  -31.5499   -7.7275   18.0478 H   0  0  0  0  0  0  0  0  0  0  0  0
  1  2  2  0
  1  3  1  1
  1  4  1  0
  1  8  1  0
  5  6  2  0
  5  7  1  1
  5  8  1  0
  5 12  1  0
  9 10  2  0
  9 11  1  6
  9 12  1  0
  9 13  1  0
 13 14  1  0
 15 14  1  0
 15 16  1  0
 15 17  1  0
 16 21  1  0
 17 18  1  0
 17 19  1  0
 19 20  1  0
 19 21  1  0
 21 22  1  0
 22 23  1  0
 22 31  1  0
 23 24  2  0
 24 25  1  0
 25 26  2  0
 25 31  1  0
 26 27  1  0
 26 28  1  0
 28 29  2  0
 29 30  1  0
 30 31  2  0
  8 32  1  0
 14 33  1  0
 14 34  1  0
 15 35  1  6
 17 36  1  1
 18 37  1  0
 19 38  1  1
 20 39  1  0
 21 40  1  6
 23 41  1  0
 27 42  1  0
 27 43  1  0
 29 44  1  0
M  CHG  4   3  -1   4  -1   7  -1  11  -1
M  END
>  <filename_input>  (16) 
7B94_ANP_docked.sdf

>  <pdb_id>  (16) 
7B94_ANP

>  <pose_rank>  (16) 
15

>  <num_atoms_heavy>  (16) 
31

>  <num_torsions>  (16) 
8

>  <pose>  (16) 
[-31.013897609582322, -3.0318745858350122, 16.505320979059665, -0.5357494439433118, -0.30033539330251807, -0.1505415515857535, 3.0041931766949093, -2.1821236907796253, 0.6642836857661609, -4.702590579726269, -0.5469314392620678, 1.1553541367910125, -2.2946761129622355, 0.9291587641675946]

>  <energy>  (16) 
-1075.9207719537515

>  <inter_energy>  (16) 
-1054.9975544446288

>  <intra_energy>  (16) 
27.569489042265225

>  <rmsd>  (16) 
3.20541

>  <sdf_rank>  (16) 
0

$$$$

     RDKit          3D

 44 46  0  0  0  0  0  0  0  0999 V2000
  -25.2941    1.1036   14.1388 P   0  0  2  0  0  0  0  0  0  0  0  0
  -25.2732    2.3370   14.9106 O   0  0  0  0  0  0  0  0  0  0  0  0
  -23.8467    0.4971   14.2044 O   0  0  0  0  0  0  0  0  0  0  0  0
  -25.6523    1.4922   12.6497 O   0  0  0  0  0  0  0  0  0  0  0  0
  -26.8946   -1.4403   13.9377 P   0  0  1  0  0  0  0  0  0  0  0  0
  -27.7033   -1.1025   12.7803 O   0  0  0  0  0  0  0  0  0  0  0  0
  -25.7727   -2.4709   13.5242 O   0  0  0  0  0  0  0  0  0  0  0  0
  -26.3442   -0.0732   14.6904 N   0  0  0  0  0  0  0  0  0  0  0  0
  -29.3321   -2.5270   14.9814 P   0  0  2  0  0  0  0  0  0  0  0  0
  -29.6198   -3.7856   15.6892 O   0  0  0  0  0  0  0  0  0  0  0  0
  -29.7728   -2.4909   13.5171 O   0  0  0  0  0  0  0  0  0  0  0  0
  -27.7679   -2.2257   15.0058 O   0  0  0  0  0  0  0  0  0  0  0  0
  -30.0027   -1.3357   15.7314 O   0  0  0  0  0  0  0  0  0  0  0  0
  -31.4304   -1.1674   15.7590 C   0  0  0  0  0  0  0  0  0  0  0  0
  -31.8001   -0.9680   17.1999 C   0  0  1  0  0  0  0  0  0  0  0  0
  -32.9586   -1.7666   17.5139 O   0  0  0  0  0  0  0  0  0  0  0  0
  -30.7495   -1.4595   18.1839 C   0  0  1  0  0  0  0  0  0  0  0  0
  -29.7109   -0.4995   18.3237 O   0  0  0  0  0  0  0  0  0  0  0  0
  -31.5726   -1.6570   19.4545 C   0  0  1  0  0  0  0  0  0  0  0  0
  -31.7126   -0.4254   20.1416 O   0  0  0  0  0  0  0  0  0  0  0  0
  -32.9388   -2.0787   18.8966 C   0  0  2  0  0  0  0  0  0  0  0  0
  -33.2483   -3.4918   19.0770 N   0  0  0  0  0  0  0  0  0  0  0  0
  -32.7655   -4.5575   18.3643 C   0  0  0  0  0  0  0  0  0  0  0  0
  -33.2131   -5.7204   18.7735 N   0  0  0  0  0  0  0  0  0  0  0  0
  -34.0519   -5.3956   19.8311 C   0  0  0  0  0  0  0  0  0  0  0  0
  -34.8361   -6.1852   20.7008 C   0  0  0  0  0  0  0  0  0  0  0  0
  -34.8414   -7.5166   20.6796 N   0  0  0  0  0  0  0  0  0  0  0  0
  -35.5736   -5.5501   21.6433 N   0  0  0  0  0  0  0  0  0  0  0  0
  -35.5020   -4.2132   21.7273 C   0  0  0  0  0  0  0  0  0  0  0  0
  -34.7938   -3.3646   20.9671 N   0  0  0  0  0  0  0  0  0  0  0  0
  -34.0863   -4.0265   20.0283 C   0  0  0  0  0  0  0  0  0  0  0  0
  -25.9020   -0.4212   15.5532 H   0  0  0  0  0  0  0  0  0  0  0  0
  -31.7225   -0.2887   15.1653 H   0  0  0  0  0  0  0  0  0  0  0  0
  -31.9455   -2.0394   15.3298 H   0  0  0  0  0  0  0  0  0  0  0  0
  -31.9435    0.1177   17.3023 H   0  0  0  0  0  0  0  0  0  0  0  0
  -30.2225   -2.3774   17.8843 H   0  0  0  0  0  0  0  0  0  0  0  0
  -29.5372   -0.3389   19.2851 H   0  0  0  0  0  0  0  0  0  0  0  0
  -31.1268   -2.3743   20.1593 H   0  0  0  0  0  0  0  0  0  0  0  0
  -31.6941   -0.5883   21.1179 H   0  0  0  0  0  0  0  0  0  0  0  0
  -33.7068   -1.5298   19.4613 H   0  0  0  0  0  0  0  0  0  0  0  0
  -32.0647   -4.4476   17.5236 H   0  0  0  0  0  0  0  0  0  0  0  0
  -35.4348   -8.0398   21.3392 H   0  0  0  0  0  0  0  0  0  0  0  0
  -34.2520   -8.0233   20.0037 H   0  0  0  0  0  0  0  0  0  0  0  0
  -36.1032   -3.7520   22.5247 H   0  0  0  0  0  0  0  0  0  0  0  0
  1  2  2  0
  1  3  1  6
  1  4  1  0
  1  8  1  0
  5  6  2  0
  5  7  1  6
  5  8  1  0
  5 12  1  0
  9 10  2  0
  9 11  1  6
  9 12  1  0
  9 13  1  0
 13 14  1  0
 15 14  1  0
 15 16  1  0
 15 17  1  0
 16 21  1  0
 17 18  1  0
 17 19  1  0
 19 20  1  0
 19 21  1  0
 21 22  1  0
 22 23  1  0
 22 31  1  0
 23 24  2  0
 24 25  1  0
 25 26  2  0
 25 31  1  0
 26 27  1  0
 26 28  1  0
 28 29  2  0
 29 30  1  0
 30 31  2  0
  8 32  1  0
 14 33  1  0
 14 34  1  0
 15 35  1  6
 17 36  1  6
 18 37  1  0
 19 38  1  1
 20 39  1  0
 21 40  1  1
 23 41  1  0
 27 42  1  0
 27 43  1  0
 29 44  1  0
M  CHG  4   3  -1   4  -1   7  -1  11  -1
M  END
>  <filename_input>  (17) 
7B94_ANP_docked.sdf

>  <pdb_id>  (17) 
7B94_ANP

>  <pose_rank>  (17) 
16

>  <num_atoms_heavy>  (17) 
31

>  <num_torsions>  (17) 
8

>  <pose>  (17) 
[-31.80007755537437, -0.9680467685127325, 17.199858970001443, 6.117239584114909, -1.8680278859346784, 0.3354168416980028, -6.27674824837859, -7.407939120320337, -1.1739854591950871, -4.205831368198986, -3.233884039623686, 0.38251251304509637, -1.7441846543090458, 1.2340902595875436]

>  <energy>  (17) 
-1398.4002488738215

>  <inter_energy>  (17) 
-1442.270674099216

>  <intra_energy>  (17) 
36.33327405939248

>  <rmsd>  (17) 
2.99222

>  <sdf_rank>  (17) 
0

$$$$

     RDKit          3D

 44 46  0  0  0  0  0  0  0  0999 V2000
  -25.9608   -0.3798   13.7571 P   0  0  2  0  0  0  0  0  0  0  0  0
  -26.7621   -0.1241   14.9446 O   0  0  0  0  0  0  0  0  0  0  0  0
  -24.5224   -0.7728   14.2506 O   0  0  0  0  0  0  0  0  0  0  0  0
  -25.9028    0.9685   12.9353 O   0  0  0  0  0  0  0  0  0  0  0  0
  -26.9980   -3.1485   13.1806 P   0  0  1  0  0  0  0  0  0  0  0  0
  -27.1715   -3.9647   11.9926 O   0  0  0  0  0  0  0  0  0  0  0  0
  -26.0735   -3.9001   14.2160 O   0  0  0  0  0  0  0  0  0  0  0  0
  -26.4998   -1.6224   12.7787 N   0  0  0  0  0  0  0  0  0  0  0  0
  -29.7380   -3.7932   13.7173 P   0  0  2  0  0  0  0  0  0  0  0  0
  -29.4680   -5.2393   13.6571 O   0  0  0  0  0  0  0  0  0  0  0  0
  -30.4075   -3.2060   12.4737 O   0  0  0  0  0  0  0  0  0  0  0  0
  -28.3819   -2.9879   13.9418 O   0  0  0  0  0  0  0  0  0  0  0  0
  -30.6278   -3.4747   14.9576 O   0  0  0  0  0  0  0  0  0  0  0  0
  -31.7517   -2.5819   14.8724 C   0  0  0  0  0  0  0  0  0  0  0  0
  -31.7766   -1.8169   16.1633 C   0  0  1  0  0  0  0  0  0  0  0  0
  -33.0274   -2.0555   16.8394 O   0  0  0  0  0  0  0  0  0  0  0  0
  -30.7324   -2.2686   17.1728 C   0  0  1  0  0  0  0  0  0  0  0  0
  -29.4663   -1.7000   16.8673 O   0  0  0  0  0  0  0  0  0  0  0  0
  -31.3247   -1.7675   18.4878 C   0  0  1  0  0  0  0  0  0  0  0  0
  -30.9957   -0.4029   18.6826 O   0  0  0  0  0  0  0  0  0  0  0  0
  -32.8334   -1.8889   18.2338 C   0  0  2  0  0  0  0  0  0  0  0  0
  -33.4733   -2.9888   18.9451 N   0  0  0  0  0  0  0  0  0  0  0  0
  -34.3375   -2.9164   20.0057 C   0  0  0  0  0  0  0  0  0  0  0  0
  -34.7680   -4.0825   20.4242 N   0  0  0  0  0  0  0  0  0  0  0  0
  -34.1404   -4.9871   19.5782 C   0  0  0  0  0  0  0  0  0  0  0  0
  -34.1814   -6.3962   19.4928 C   0  0  0  0  0  0  0  0  0  0  0  0
  -34.9673   -7.1553   20.2539 N   0  0  0  0  0  0  0  0  0  0  0  0
  -33.4237   -6.9970   18.5439 N   0  0  0  0  0  0  0  0  0  0  0  0
  -32.6989   -6.2307   17.7150 C   0  0  0  0  0  0  0  0  0  0  0  0
  -32.5861   -4.8941   17.6963 N   0  0  0  0  0  0  0  0  0  0  0  0
  -33.3373   -4.3287   18.6638 C   0  0  0  0  0  0  0  0  0  0  0  0
  -27.3041   -1.2183   12.2781 H   0  0  0  0  0  0  0  0  0  0  0  0
  -31.6284   -1.8934   14.0234 H   0  0  0  0  0  0  0  0  0  0  0  0
  -32.6905   -3.1328   14.7144 H   0  0  0  0  0  0  0  0  0  0  0  0
  -31.5999   -0.7714   15.8703 H   0  0  0  0  0  0  0  0  0  0  0  0
  -30.5386   -3.3513   17.1912 H   0  0  0  0  0  0  0  0  0  0  0  0
  -28.9892   -1.4858   17.7079 H   0  0  0  0  0  0  0  0  0  0  0  0
  -30.9650   -2.3184   19.3693 H   0  0  0  0  0  0  0  0  0  0  0  0
  -30.9491   -0.2099   19.6525 H   0  0  0  0  0  0  0  0  0  0  0  0
  -33.3047   -0.9713   18.6158 H   0  0  0  0  0  0  0  0  0  0  0  0
  -34.6432   -1.9650   20.4653 H   0  0  0  0  0  0  0  0  0  0  0  0
  -34.9544   -8.1797   20.1466 H   0  0  0  0  0  0  0  0  0  0  0  0
  -35.5882   -6.7182   20.9499 H   0  0  0  0  0  0  0  0  0  0  0  0
  -32.1208   -6.7694   16.9497 H   0  0  0  0  0  0  0  0  0  0  0  0
  1  2  2  0
  1  3  1  1
  1  4  1  0
  1  8  1  0
  5  6  2  0
  5  7  1  1
  5  8  1  0
  5 12  1  0
  9 10  2  0
  9 11  1  6
  9 12  1  0
  9 13  1  0
 13 14  1  0
 15 14  1  0
 15 16  1  0
 15 17  1  0
 16 21  1  0
 17 18  1  0
 17 19  1  0
 19 20  1  0
 19 21  1  0
 21 22  1  0
 22 23  1  0
 22 31  1  0
 23 24  2  0
 24 25  1  0
 25 26  2  0
 25 31  1  0
 26 27  1  0
 26 28  1  0
 28 29  2  0
 29 30  1  0
 30 31  2  0
  8 32  1  0
 14 33  1  0
 14 34  1  0
 15 35  1  6
 17 36  1  1
 18 37  1  0
 19 38  1  1
 20 39  1  0
 21 40  1  1
 23 41  1  0
 27 42  1  0
 27 43  1  0
 29 44  1  0
M  CHG  4   3  -1   4  -1   7  -1  11  -1
M  END
>  <filename_input>  (18) 
7B94_ANP_docked.sdf

>  <pdb_id>  (18) 
7B94_ANP

>  <pose_rank>  (18) 
17

>  <num_atoms_heavy>  (18) 
31

>  <num_torsions>  (18) 
8

>  <pose>  (18) 
[-31.77664552059274, -1.816856770990602, 16.163294795305166, 3.6808471821298827, -1.2743792893318067, 4.407453260000504, 3.2528660004679555, -0.8589259297508319, 0.3506021230380105, 7.204299262442743, 1.2547644500397133, 0.7022833945773574, 2.6934912218889946, -2.4605287785886385]

>  <energy>  (18) 
-928.7302969922189

>  <inter_energy>  (18) 
-964.0881172441528

>  <intra_energy>  (18) 
28.57683116339741

>  <rmsd>  (18) 
2.79957

>  <sdf_rank>  (18) 
0

$$$$

     RDKit          3D

 44 46  0  0  0  0  0  0  0  0999 V2000
  -27.1233   -4.8933   11.8496 P   0  0  2  0  0  0  0  0  0  0  0  0
  -26.4422   -5.8617   12.6957 O   0  0  0  0  0  0  0  0  0  0  0  0
  -27.9889   -5.7093   10.8240 O   0  0  0  0  0  0  0  0  0  0  0  0
  -26.0071   -4.0750   11.0872 O   0  0  0  0  0  0  0  0  0  0  0  0
  -27.8671   -2.8278   13.9121 P   0  0  1  0  0  0  0  0  0  0  0  0
  -26.4786   -2.9058   14.3292 O   0  0  0  0  0  0  0  0  0  0  0  0
  -28.2671   -1.3213   13.6626 O   0  0  0  0  0  0  0  0  0  0  0  0
  -28.1580   -3.8473   12.6415 N   0  0  0  0  0  0  0  0  0  0  0  0
  -30.3604   -3.6958   15.0261 P   0  0  2  0  0  0  0  0  0  0  0  0
  -30.5262   -5.1252   15.3377 O   0  0  0  0  0  0  0  0  0  0  0  0
  -30.8768   -3.2674   13.6515 O   0  0  0  0  0  0  0  0  0  0  0  0
  -28.8209   -3.2917   15.0933 O   0  0  0  0  0  0  0  0  0  0  0  0
  -31.0705   -2.8338   16.1142 O   0  0  0  0  0  0  0  0  0  0  0  0
  -32.4063   -2.3343   15.9301 C   0  0  0  0  0  0  0  0  0  0  0  0
  -32.8363   -1.7900   17.2609 C   0  0  1  0  0  0  0  0  0  0  0  0
  -33.9352   -2.5732   17.7684 O   0  0  0  0  0  0  0  0  0  0  0  0
  -31.7807   -1.9070   18.3498 C   0  0  1  0  0  0  0  0  0  0  0  0
  -30.8288   -0.8580   18.2349 O   0  0  0  0  0  0  0  0  0  0  0  0
  -32.6247   -1.8285   19.6196 C   0  0  1  0  0  0  0  0  0  0  0  0
  -32.8863   -0.4751   19.9487 O   0  0  0  0  0  0  0  0  0  0  0  0
  -33.9336   -2.5013   19.1842 C   0  0  2  0  0  0  0  0  0  0  0  0
  -34.1324   -3.8360   19.7356 N   0  0  0  0  0  0  0  0  0  0  0  0
  -34.9923   -4.2161   20.7321 C   0  0  0  0  0  0  0  0  0  0  0  0
  -34.9633   -5.4993   21.0018 N   0  0  0  0  0  0  0  0  0  0  0  0
  -34.0148   -5.9989   20.1195 C   0  0  0  0  0  0  0  0  0  0  0  0
  -33.5181   -7.3015   19.8936 C   0  0  0  0  0  0  0  0  0  0  0  0
  -33.9823   -8.3827   20.5172 N   0  0  0  0  0  0  0  0  0  0  0  0
  -32.5607   -7.4609   18.9483 N   0  0  0  0  0  0  0  0  0  0  0  0
  -32.1536   -6.3878   18.2537 C   0  0  0  0  0  0  0  0  0  0  0  0
  -32.5533   -5.1130   18.3743 N   0  0  0  0  0  0  0  0  0  0  0  0
  -33.4920   -4.9860   19.3351 C   0  0  0  0  0  0  0  0  0  0  0  0
  -28.5091   -3.2283   11.8969 H   0  0  0  0  0  0  0  0  0  0  0  0
  -32.4144   -1.5378   15.1715 H   0  0  0  0  0  0  0  0  0  0  0  0
  -33.0860   -3.1260   15.5819 H   0  0  0  0  0  0  0  0  0  0  0  0
  -33.0709   -0.7331   17.0662 H   0  0  0  0  0  0  0  0  0  0  0  0
  -31.1714   -2.8221   18.3128 H   0  0  0  0  0  0  0  0  0  0  0  0
  -30.5571   -0.5585   19.1386 H   0  0  0  0  0  0  0  0  0  0  0  0
  -32.1443   -2.2896   20.4952 H   0  0  0  0  0  0  0  0  0  0  0  0
  -32.9060   -0.3727   20.9332 H   0  0  0  0  0  0  0  0  0  0  0  0
  -34.7612   -1.8904   19.5738 H   0  0  0  0  0  0  0  0  0  0  0  0
  -35.6486   -3.5080   21.2592 H   0  0  0  0  0  0  0  0  0  0  0  0
  -33.5802   -9.3083   20.3113 H   0  0  0  0  0  0  0  0  0  0  0  0
  -34.7434   -8.2933   21.2054 H   0  0  0  0  0  0  0  0  0  0  0  0
  -31.3916   -6.5784   17.4837 H   0  0  0  0  0  0  0  0  0  0  0  0
  1  2  2  0
  1  3  1  6
  1  4  1  0
  1  8  1  0
  5  6  2  0
  5  7  1  6
  5  8  1  0
  5 12  1  0
  9 10  2  0
  9 11  1  6
  9 12  1  0
  9 13  1  0
 13 14  1  0
 15 14  1  0
 15 16  1  0
 15 17  1  0
 16 21  1  0
 17 18  1  0
 17 19  1  0
 19 20  1  0
 19 21  1  0
 21 22  1  0
 22 23  1  0
 22 31  1  0
 23 24  2  0
 24 25  1  0
 25 26  2  0
 25 31  1  0
 26 27  1  0
 26 28  1  0
 28 29  2  0
 29 30  1  0
 30 31  2  0
  8 32  1  0
 14 33  1  0
 14 34  1  0
 15 35  1  6
 17 36  1  6
 18 37  1  0
 19 38  1  1
 20 39  1  0
 21 40  1  6
 23 41  1  0
 27 42  1  0
 27 43  1  0
 29 44  1  0
M  CHG  4   3  -1   4  -1   7  -1  11  -1
M  END
>  <filename_input>  (19) 
7B94_ANP_docked.sdf

>  <pdb_id>  (19) 
7B94_ANP

>  <pose_rank>  (19) 
18

>  <num_atoms_heavy>  (19) 
31

>  <num_torsions>  (19) 
8

>  <pose>  (19) 
[-32.83625265507272, -1.7899605199052362, 17.260897905249095, -0.15429637877554475, -0.04958366956996431, 0.09744572313683594, 3.198433784446263, 5.515501323972655, 5.802817585856052, -4.666931385714392, -3.877673504363379, -2.38990291183588, -0.5994726532541106, -0.6864381665932217]

>  <energy>  (19) 
-910.4926162031497

>  <inter_energy>  (19) 
-918.3510802965486

>  <intra_energy>  (19) 
33.19361059504351

>  <rmsd>  (19) 
2.03229

>  <sdf_rank>  (19) 
0

$$$$

     RDKit          3D

 44 46  0  0  0  0  0  0  0  0999 V2000
  -27.9061    4.5892   13.9620 P   0  0  2  0  0  0  0  0  0  0  0  0
  -28.6713    5.5701   13.2071 O   0  0  0  0  0  0  0  0  0  0  0  0
  -26.4141    5.0797   13.9708 O   0  0  0  0  0  0  0  0  0  0  0  0
  -28.0209    3.2152   13.1902 O   0  0  0  0  0  0  0  0  0  0  0  0
  -29.8789    4.2836   16.2177 P   0  0  1  0  0  0  0  0  0  0  0  0
  -30.0598    5.2835   17.2547 O   0  0  0  0  0  0  0  0  0  0  0  0
  -31.0667    4.3664   15.1814 O   0  0  0  0  0  0  0  0  0  0  0  0
  -28.3658    4.3892   15.5559 N   0  0  0  0  0  0  0  0  0  0  0  0
  -30.4450    1.4765   16.1121 P   0  0  2  0  0  0  0  0  0  0  0  0
  -29.3041    0.8869   15.3921 O   0  0  0  0  0  0  0  0  0  0  0  0
  -31.6586    1.8098   15.2426 O   0  0  0  0  0  0  0  0  0  0  0  0
  -30.0034    2.8260   16.8344 O   0  0  0  0  0  0  0  0  0  0  0  0
  -30.9004    0.5168   17.2535 O   0  0  0  0  0  0  0  0  0  0  0  0
  -31.8403   -0.5456   17.0179 C   0  0  0  0  0  0  0  0  0  0  0  0
  -31.0384   -1.8138   16.9861 C   0  0  1  0  0  0  0  0  0  0  0  0
  -31.3575   -2.6135   18.1425 O   0  0  0  0  0  0  0  0  0  0  0  0
  -31.3694   -2.7283   15.8166 C   0  0  1  0  0  0  0  0  0  0  0  0
  -30.7084   -2.2879   14.6380 O   0  0  0  0  0  0  0  0  0  0  0  0
  -30.8765   -4.0817   16.3227 C   0  0  1  0  0  0  0  0  0  0  0  0
  -29.4838   -4.2104   16.0943 O   0  0  0  0  0  0  0  0  0  0  0  0
  -31.1302   -3.9780   17.8328 C   0  0  2  0  0  0  0  0  0  0  0  0
  -32.2555   -4.7746   18.3065 N   0  0  0  0  0  0  0  0  0  0  0  0
  -32.8122   -5.8795   17.7181 C   0  0  0  0  0  0  0  0  0  0  0  0
  -33.8091   -6.3991   18.3937 N   0  0  0  0  0  0  0  0  0  0  0  0
  -33.9163   -5.5754   19.5062 C   0  0  0  0  0  0  0  0  0  0  0  0
  -34.7834   -5.5900   20.6209 C   0  0  0  0  0  0  0  0  0  0  0  0
  -35.6908   -6.5413   20.8329 N   0  0  0  0  0  0  0  0  0  0  0  0
  -34.6387   -4.6152   21.5506 N   0  0  0  0  0  0  0  0  0  0  0  0
  -33.6660   -3.7059   21.3873 C   0  0  0  0  0  0  0  0  0  0  0  0
  -32.7853   -3.5953   20.3815 N   0  0  0  0  0  0  0  0  0  0  0  0
  -32.9681   -4.5685   19.4652 C   0  0  0  0  0  0  0  0  0  0  0  0
  -27.9032    3.5152   15.8439 H   0  0  0  0  0  0  0  0  0  0  0  0
  -32.5832   -0.5843   17.8282 H   0  0  0  0  0  0  0  0  0  0  0  0
  -32.3890   -0.3943   16.0766 H   0  0  0  0  0  0  0  0  0  0  0  0
  -29.9921   -1.4797   16.9276 H   0  0  0  0  0  0  0  0  0  0  0  0
  -32.4312   -2.7542   15.5302 H   0  0  0  0  0  0  0  0  0  0  0  0
  -29.9108   -1.7564   14.8860 H   0  0  0  0  0  0  0  0  0  0  0  0
  -31.3668   -4.9375   15.8357 H   0  0  0  0  0  0  0  0  0  0  0  0
  -29.0097   -4.2542   16.9623 H   0  0  0  0  0  0  0  0  0  0  0  0
  -30.2428   -4.3814   18.3424 H   0  0  0  0  0  0  0  0  0  0  0  0
  -32.4548   -6.2940   16.7639 H   0  0  0  0  0  0  0  0  0  0  0  0
  -36.2964   -6.4991   21.6650 H   0  0  0  0  0  0  0  0  0  0  0  0
  -35.7870   -7.3193   20.1648 H   0  0  0  0  0  0  0  0  0  0  0  0
  -33.5792   -2.9514   22.1831 H   0  0  0  0  0  0  0  0  0  0  0  0
  1  2  2  0
  1  3  1  1
  1  4  1  0
  1  8  1  0
  5  6  2  0
  5  7  1  6
  5  8  1  0
  5 12  1  0
  9 10  2  0
  9 11  1  6
  9 12  1  0
  9 13  1  0
 13 14  1  0
 15 14  1  0
 15 16  1  0
 15 17  1  0
 16 21  1  0
 17 18  1  0
 17 19  1  0
 19 20  1  0
 19 21  1  0
 21 22  1  0
 22 23  1  0
 22 31  1  0
 23 24  2  0
 24 25  1  0
 25 26  2  0
 25 31  1  0
 26 27  1  0
 26 28  1  0
 28 29  2  0
 29 30  1  0
 30 31  2  0
  8 32  1  0
 14 33  1  0
 14 34  1  0
 15 35  1  1
 17 36  1  6
 18 37  1  0
 19 38  1  6
 20 39  1  0
 21 40  1  1
 23 41  1  0
 27 42  1  0
 27 43  1  0
 29 44  1  0
M  CHG  4   3  -1   4  -1   7  -1  11  -1
M  END
>  <filename_input>  (20) 
7B94_ANP_docked.sdf

>  <pdb_id>  (20) 
7B94_ANP

>  <pose_rank>  (20) 
19

>  <num_atoms_heavy>  (20) 
31

>  <num_torsions>  (20) 
8

>  <pose>  (20) 
[-31.038436501200696, -1.8138376866249113, 16.98611837110357, -1.9008095742598157, -3.0682948112359676, 1.9931665560849405, -4.533859911026746, 3.1819146014916444, -1.6182300312703166, 1.7778232317136204, -4.423714286660859, -3.1188115150069042, -2.783310989880105, -0.8996899821061505]

>  <energy>  (20) 
-886.5928604412447

>  <inter_energy>  (20) 
-907.143817016663

>  <intra_energy>  (20) 
31.597247263258627

>  <rmsd>  (20) 
5.6425

>  <sdf_rank>  (20) 
0

$$$$

     RDKit          3D

 44 46  0  0  0  0  0  0  0  0999 V2000
  -28.5643    2.9709   15.0085 P   0  0  2  0  0  0  0  0  0  0  0  0
  -27.4681    3.6283   15.7040 O   0  0  0  0  0  0  0  0  0  0  0  0
  -29.0830    3.9750   13.9178 O   0  0  0  0  0  0  0  0  0  0  0  0
  -29.6962    2.6979   16.0766 O   0  0  0  0  0  0  0  0  0  0  0  0
  -27.2019    0.3011   14.7092 P   0  0  1  0  0  0  0  0  0  0  0  0
  -26.4038   -0.1976   13.6037 O   0  0  0  0  0  0  0  0  0  0  0  0
  -26.2685    0.6228   15.9408 O   0  0  0  0  0  0  0  0  0  0  0  0
  -28.1687    1.5519   14.2200 N   0  0  0  0  0  0  0  0  0  0  0  0
  -28.6720   -2.1489   14.4902 P   0  0  2  0  0  0  0  0  0  0  0  0
  -27.6517   -2.6092   13.5336 O   0  0  0  0  0  0  0  0  0  0  0  0
  -30.0342   -1.8198   13.8773 O   0  0  0  0  0  0  0  0  0  0  0  0
  -28.1700   -0.8381   15.2436 O   0  0  0  0  0  0  0  0  0  0  0  0
  -28.8740   -3.2231   15.6021 O   0  0  0  0  0  0  0  0  0  0  0  0
  -30.1631   -3.8018   15.8688 C   0  0  0  0  0  0  0  0  0  0  0  0
  -30.9219   -2.7824   16.6672 C   0  0  1  0  0  0  0  0  0  0  0  0
  -32.2763   -3.2361   16.8628 O   0  0  0  0  0  0  0  0  0  0  0  0
  -30.4010   -2.5899   18.0832 C   0  0  1  0  0  0  0  0  0  0  0  0
  -29.2650   -1.7359   18.0838 O   0  0  0  0  0  0  0  0  0  0  0  0
  -31.6150   -1.9905   18.7890 C   0  0  1  0  0  0  0  0  0  0  0  0
  -31.6686   -0.5922   18.5649 O   0  0  0  0  0  0  0  0  0  0  0  0
  -32.7839   -2.6618   18.0554 C   0  0  2  0  0  0  0  0  0  0  0  0
  -33.4676   -3.6884   18.8326 N   0  0  0  0  0  0  0  0  0  0  0  0
  -34.5716   -3.5447   19.6310 C   0  0  0  0  0  0  0  0  0  0  0  0
  -34.9740   -4.6601   20.1916 N   0  0  0  0  0  0  0  0  0  0  0  0
  -34.0682   -5.6053   19.7291 C   0  0  0  0  0  0  0  0  0  0  0  0
  -33.9456   -6.9945   19.9518 C   0  0  0  0  0  0  0  0  0  0  0  0
  -34.8165   -7.7029   20.6681 N   0  0  0  0  0  0  0  0  0  0  0  0
  -32.9192   -7.6454   19.3531 N   0  0  0  0  0  0  0  0  0  0  0  0
  -32.0911   -6.9522   18.5573 C   0  0  0  0  0  0  0  0  0  0  0  0
  -32.1114   -5.6425   18.2677 N   0  0  0  0  0  0  0  0  0  0  0  0
  -33.1326   -5.0214   18.8934 C   0  0  0  0  0  0  0  0  0  0  0  0
  -29.0781    1.1077   14.0289 H   0  0  0  0  0  0  0  0  0  0  0  0
  -30.6877   -4.0155   14.9259 H   0  0  0  0  0  0  0  0  0  0  0  0
  -30.0709   -4.7518   16.4156 H   0  0  0  0  0  0  0  0  0  0  0  0
  -30.8236   -1.8498   16.0922 H   0  0  0  0  0  0  0  0  0  0  0  0
  -30.0439   -3.5053   18.5777 H   0  0  0  0  0  0  0  0  0  0  0  0
  -29.0016   -1.5378   19.0173 H   0  0  0  0  0  0  0  0  0  0  0  0
  -31.6105   -2.1458   19.8780 H   0  0  0  0  0  0  0  0  0  0  0  0
  -31.6868   -0.1190   19.4343 H   0  0  0  0  0  0  0  0  0  0  0  0
  -33.5370   -1.8845   17.8588 H   0  0  0  0  0  0  0  0  0  0  0  0
  -35.0757   -2.5797   19.7880 H   0  0  0  0  0  0  0  0  0  0  0  0
  -34.6749   -8.7150   20.7966 H   0  0  0  0  0  0  0  0  0  0  0  0
  -35.6316   -7.2388   21.0936 H   0  0  0  0  0  0  0  0  0  0  0  0
  -31.2897   -7.5346   18.0791 H   0  0  0  0  0  0  0  0  0  0  0  0
  1  2  2  0
  1  3  1  6
  1  4  1  0
  1  8  1  0
  5  6  2  0
  5  7  1  1
  5  8  1  0
  5 12  1  0
  9 10  2  0
  9 11  1  6
  9 12  1  0
  9 13  1  0
 13 14  1  0
 15 14  1  0
 15 16  1  0
 15 17  1  0
 16 21  1  0
 17 18  1  0
 17 19  1  0
 19 20  1  0
 19 21  1  0
 21 22  1  0
 22 23  1  0
 22 31  1  0
 23 24  2  0
 24 25  1  0
 25 26  2  0
 25 31  1  0
 26 27  1  0
 26 28  1  0
 28 29  2  0
 29 30  1  0
 30 31  2  0
  8 32  1  0
 14 33  1  0
 14 34  1  0
 15 35  1  6
 17 36  1  1
 18 37  1  0
 19 38  1  1
 20 39  1  0
 21 40  1  6
 23 41  1  0
 27 42  1  0
 27 43  1  0
 29 44  1  0
M  CHG  4   3  -1   4  -1   7  -1  11  -1
M  END
>  <filename_input>  (21) 
7B94_ANP_docked.sdf

>  <pdb_id>  (21) 
7B94_ANP

>  <pose_rank>  (21) 
20

>  <num_atoms_heavy>  (21) 
31

>  <num_torsions>  (21) 
8

>  <pose>  (21) 
[-30.921889474678625, -2.7824162079164765, 16.667165407537414, 4.2304633870501265, 3.58571683228837, 0.7505248300870206, 2.9707233622879405, -2.0017770161499744, 1.4823446734723436, 1.139750677095705, 0.9544745266165442, 0.1142884496385542, 3.219592274754771, -0.9203317973550669]

>  <energy>  (21) 
-988.3852799162373

>  <inter_energy>  (21) 
-1001.3298588970667

>  <intra_energy>  (21) 
49.79940781794158

>  <rmsd>  (21) 
4.28326

>  <sdf_rank>  (21) 
0

$$$$

     RDKit          3D

 44 46  0  0  0  0  0  0  0  0999 V2000
  -32.6209    4.4514   14.4819 P   0  0  2  0  0  0  0  0  0  0  0  0
  -33.2907    3.7729   13.3826 O   0  0  0  0  0  0  0  0  0  0  0  0
  -33.0622    3.7278   15.8042 O   0  0  0  0  0  0  0  0  0  0  0  0
  -33.1309    5.9469   14.4858 O   0  0  0  0  0  0  0  0  0  0  0  0
  -29.8859    3.5025   15.3145 P   0  0  1  0  0  0  0  0  0  0  0  0
  -28.5176    3.7799   14.9162 O   0  0  0  0  0  0  0  0  0  0  0  0
  -30.0247    3.6361   16.8812 O   0  0  0  0  0  0  0  0  0  0  0  0
  -30.9509    4.4174   14.4385 N   0  0  0  0  0  0  0  0  0  0  0  0
  -29.5743    0.6709   15.6252 P   0  0  2  0  0  0  0  0  0  0  0  0
  -28.7696    1.0086   16.8110 O   0  0  0  0  0  0  0  0  0  0  0  0
  -28.8034   -0.0020   14.4883 O   0  0  0  0  0  0  0  0  0  0  0  0
  -30.2447    1.9841   15.0215 O   0  0  0  0  0  0  0  0  0  0  0  0
  -30.7587   -0.2552   16.0386 O   0  0  0  0  0  0  0  0  0  0  0  0
  -31.1522   -1.3823   15.2372 C   0  0  0  0  0  0  0  0  0  0  0  0
  -30.6578   -2.6016   15.9591 C   0  0  1  0  0  0  0  0  0  0  0  0
  -30.9777   -2.4933   17.3607 O   0  0  0  0  0  0  0  0  0  0  0  0
  -31.3402   -3.8933   15.5352 C   0  0  1  0  0  0  0  0  0  0  0  0
  -30.7711   -4.3841   14.3290 O   0  0  0  0  0  0  0  0  0  0  0  0
  -31.0873   -4.7959   16.7403 C   0  0  1  0  0  0  0  0  0  0  0  0
  -29.8019   -5.3855   16.6473 O   0  0  0  0  0  0  0  0  0  0  0  0
  -31.0982   -3.7966   17.9051 C   0  0  2  0  0  0  0  0  0  0  0  0
  -32.2920   -3.8630   18.7391 N   0  0  0  0  0  0  0  0  0  0  0  0
  -33.0689   -2.8251   19.1819 C   0  0  0  0  0  0  0  0  0  0  0  0
  -34.0977   -3.1985   19.9047 N   0  0  0  0  0  0  0  0  0  0  0  0
  -33.9886   -4.5822   19.9406 C   0  0  0  0  0  0  0  0  0  0  0  0
  -34.7790   -5.5836   20.5464 C   0  0  0  0  0  0  0  0  0  0  0  0
  -35.9146   -5.3308   21.1943 N   0  0  0  0  0  0  0  0  0  0  0  0
  -34.3876   -6.8730   20.4060 N   0  0  0  0  0  0  0  0  0  0  0  0
  -33.2932   -7.1402   19.6776 C   0  0  0  0  0  0  0  0  0  0  0  0
  -32.4729   -6.2806   19.0550 N   0  0  0  0  0  0  0  0  0  0  0  0
  -32.8797   -5.0062   19.2298 C   0  0  0  0  0  0  0  0  0  0  0  0
  -30.7288    4.1931   13.4580 H   0  0  0  0  0  0  0  0  0  0  0  0
  -32.2472   -1.4158   15.1376 H   0  0  0  0  0  0  0  0  0  0  0  0
  -30.7323   -1.3192   14.2224 H   0  0  0  0  0  0  0  0  0  0  0  0
  -29.5826   -2.6429   15.7306 H   0  0  0  0  0  0  0  0  0  0  0  0
  -32.4116   -3.8010   15.3037 H   0  0  0  0  0  0  0  0  0  0  0  0
  -30.0390   -5.0154   14.5424 H   0  0  0  0  0  0  0  0  0  0  0  0
  -31.8152   -5.6151   16.8355 H   0  0  0  0  0  0  0  0  0  0  0  0
  -29.4469   -5.5483   17.5570 H   0  0  0  0  0  0  0  0  0  0  0  0
  -30.2572   -4.0544   18.5657 H   0  0  0  0  0  0  0  0  0  0  0  0
  -32.8493   -1.7721   18.9518 H   0  0  0  0  0  0  0  0  0  0  0  0
  -36.4495   -6.1031   21.6167 H   0  0  0  0  0  0  0  0  0  0  0  0
  -36.2581   -4.3629   21.2731 H   0  0  0  0  0  0  0  0  0  0  0  0
  -33.0344   -8.2047   19.5776 H   0  0  0  0  0  0  0  0  0  0  0  0
  1  2  2  0
  1  3  1  1
  1  4  1  0
  1  8  1  0
  5  6  2  0
  5  7  1  1
  5  8  1  0
  5 12  1  0
  9 10  2  0
  9 11  1  6
  9 12  1  0
  9 13  1  0
 13 14  1  0
 15 14  1  0
 15 16  1  0
 15 17  1  0
 16 21  1  0
 17 18  1  0
 17 19  1  0
 19 20  1  0
 19 21  1  0
 21 22  1  0
 22 23  1  0
 22 31  1  0
 23 24  2  0
 24 25  1  0
 25 26  2  0
 25 31  1  0
 26 27  1  0
 26 28  1  0
 28 29  2  0
 29 30  1  0
 30 31  2  0
  8 32  1  0
 14 33  1  0
 14 34  1  0
 15 35  1  1
 17 36  1  6
 18 37  1  0
 19 38  1  1
 20 39  1  0
 21 40  1  1
 23 41  1  0
 27 42  1  0
 27 43  1  0
 29 44  1  0
M  CHG  4   3  -1   4  -1   7  -1  11  -1
M  END
>  <filename_input>  (22) 
7B94_ANP_docked.sdf

>  <pdb_id>  (22) 
7B94_ANP

>  <pose_rank>  (22) 
21

>  <num_atoms_heavy>  (22) 
31

>  <num_torsions>  (22) 
8

>  <pose>  (22) 
[-30.657788881146534, -2.601640201612532, 15.959091935981217, -1.481041206601322, -2.179287573029867, 3.233771045297603, -0.9725602654375008, 2.0347165266297162, 4.67922470311537, 0.8706868056471508, 0.6925959764429047, 1.5561027010175548, 2.501434745842788, 2.8248902627509573]

>  <energy>  (22) 
-771.3466635952022

>  <inter_energy>  (22) 
-803.7245408575443

>  <intra_energy>  (22) 
19.859388322359933

>  <rmsd>  (22) 
6.04337

>  <sdf_rank>  (22) 
0

$$$$

     RDKit          3D

 44 46  0  0  0  0  0  0  0  0999 V2000
  -27.2687   -6.3129   11.1579 P   0  0  2  0  0  0  0  0  0  0  0  0
  -27.0007   -7.7372   11.2887 O   0  0  0  0  0  0  0  0  0  0  0  0
  -28.7334   -6.1705   10.6089 O   0  0  0  0  0  0  0  0  0  0  0  0
  -26.2374   -5.7397   10.1070 O   0  0  0  0  0  0  0  0  0  0  0  0
  -26.4792   -3.9676   12.8754 P   0  0  1  0  0  0  0  0  0  0  0  0
  -25.7689   -3.9874   14.1415 O   0  0  0  0  0  0  0  0  0  0  0  0
  -25.5230   -3.4444   11.7335 O   0  0  0  0  0  0  0  0  0  0  0  0
  -27.1889   -5.4322   12.5756 N   0  0  0  0  0  0  0  0  0  0  0  0
  -28.1914   -2.0694   14.1703 P   0  0  2  0  0  0  0  0  0  0  0  0
  -29.5256   -1.5196   13.8783 O   0  0  0  0  0  0  0  0  0  0  0  0
  -27.1233   -1.0307   14.5164 O   0  0  0  0  0  0  0  0  0  0  0  0
  -27.6505   -2.8969   12.9210 O   0  0  0  0  0  0  0  0  0  0  0  0
  -28.2883   -3.0921   15.3434 O   0  0  0  0  0  0  0  0  0  0  0  0
  -29.1777   -2.8861   16.4543 C   0  0  0  0  0  0  0  0  0  0  0  0
  -29.8707   -4.1973   16.6837 C   0  0  1  0  0  0  0  0  0  0  0  0
  -30.3603   -4.2518   18.0387 O   0  0  0  0  0  0  0  0  0  0  0  0
  -31.1230   -4.3930   15.8428 C   0  0  1  0  0  0  0  0  0  0  0  0
  -30.7796   -4.8112   14.5287 O   0  0  0  0  0  0  0  0  0  0  0  0
  -31.8794   -5.4516   16.6417 C   0  0  1  0  0  0  0  0  0  0  0  0
  -31.3983   -6.7444   16.3166 O   0  0  0  0  0  0  0  0  0  0  0  0
  -31.4825   -5.1167   18.0859 C   0  0  2  0  0  0  0  0  0  0  0  0
  -32.5419   -4.4908   18.8676 N   0  0  0  0  0  0  0  0  0  0  0  0
  -32.8603   -3.1604   18.9415 C   0  0  0  0  0  0  0  0  0  0  0  0
  -33.8840   -2.8986   19.7185 N   0  0  0  0  0  0  0  0  0  0  0  0
  -34.2656   -4.1474   20.1905 C   0  0  0  0  0  0  0  0  0  0  0  0
  -35.2988   -4.5610   21.0600 C   0  0  0  0  0  0  0  0  0  0  0  0
  -36.2087   -3.7310   21.5662 N   0  0  0  0  0  0  0  0  0  0  0  0
  -35.4002   -5.8822   21.3422 N   0  0  0  0  0  0  0  0  0  0  0  0
  -34.5411   -6.7344   20.7630 C   0  0  0  0  0  0  0  0  0  0  0  0
  -33.5314   -6.4616   19.9229 N   0  0  0  0  0  0  0  0  0  0  0  0
  -33.4465   -5.1377   19.6776 C   0  0  0  0  0  0  0  0  0  0  0  0
  -28.1741   -5.2942   12.8424 H   0  0  0  0  0  0  0  0  0  0  0  0
  -28.6089   -2.5936   17.3492 H   0  0  0  0  0  0  0  0  0  0  0  0
  -29.8991   -2.0820   16.2467 H   0  0  0  0  0  0  0  0  0  0  0  0
  -29.1169   -4.9579   16.4320 H   0  0  0  0  0  0  0  0  0  0  0  0
  -31.7244   -3.4859   15.6830 H   0  0  0  0  0  0  0  0  0  0  0  0
  -30.1523   -5.5754   14.5789 H   0  0  0  0  0  0  0  0  0  0  0  0
  -32.9634   -5.4511   16.4549 H   0  0  0  0  0  0  0  0  0  0  0  0
  -31.2116   -7.2461   17.1494 H   0  0  0  0  0  0  0  0  0  0  0  0
  -31.2584   -6.0669   18.5927 H   0  0  0  0  0  0  0  0  0  0  0  0
  -32.3065   -2.3809   18.3976 H   0  0  0  0  0  0  0  0  0  0  0  0
  -36.9400   -4.0906   22.1962 H   0  0  0  0  0  0  0  0  0  0  0  0
  -36.1812   -2.7293   21.3278 H   0  0  0  0  0  0  0  0  0  0  0  0
  -34.6833   -7.7969   21.0095 H   0  0  0  0  0  0  0  0  0  0  0  0
  1  2  2  0
  1  3  1  6
  1  4  1  0
  1  8  1  0
  5  6  2  0
  5  7  1  6
  5  8  1  0
  5 12  1  0
  9 10  2  0
  9 11  1  1
  9 12  1  0
  9 13  1  0
 13 14  1  0
 15 14  1  0
 15 16  1  0
 15 17  1  0
 16 21  1  0
 17 18  1  0
 17 19  1  0
 19 20  1  0
 19 21  1  0
 21 22  1  0
 22 23  1  0
 22 31  1  0
 23 24  2  0
 24 25  1  0
 25 26  2  0
 25 31  1  0
 26 27  1  0
 26 28  1  0
 28 29  2  0
 29 30  1  0
 30 31  2  0
  8 32  1  0
 14 33  1  0
 14 34  1  0
 15 35  1  1
 17 36  1  6
 18 37  1  0
 19 38  1  1
 20 39  1  0
 21 40  1  1
 23 41  1  0
 27 42  1  0
 27 43  1  0
 29 44  1  0
M  CHG  4   3  -1   4  -1   7  -1  11  -1
M  END
>  <filename_input>  (23) 
7B94_ANP_docked.sdf

>  <pdb_id>  (23) 
7B94_ANP

>  <pose_rank>  (23) 
22

>  <num_atoms_heavy>  (23) 
31

>  <num_torsions>  (23) 
8

>  <pose>  (23) 
[-29.870740002768322, -4.1973365475995, 16.683713633686878, -2.0382545432134145, -1.2867969285009409, 2.458706559723692, -0.15325328054684537, -2.292683261143217, 30.32029582544884, -3.641181731022787, 3.8738097406827676, 0.33368929928486424, 3.2728975327605556, 0.7153843543981838]

>  <energy>  (23) 
-891.947415497991

>  <inter_energy>  (23) 
-878.7362034475067

>  <intra_energy>  (23) 
16.65438185162796

>  <rmsd>  (23) 
3.06249

>  <sdf_rank>  (23) 
0

$$$$

     RDKit          3D

 44 46  0  0  0  0  0  0  0  0999 V2000
  -26.2634    2.6799   12.4867 P   0  0  2  0  0  0  0  0  0  0  0  0
  -26.4193    1.2482   12.6947 O   0  0  0  0  0  0  0  0  0  0  0  0
  -26.9407    3.0198   11.1109 O   0  0  0  0  0  0  0  0  0  0  0  0
  -24.7125    2.9738   12.4150 O   0  0  0  0  0  0  0  0  0  0  0  0
  -28.5427    3.6948   14.1744 P   0  0  1  0  0  0  0  0  0  0  0  0
  -28.7338    4.7656   15.1361 O   0  0  0  0  0  0  0  0  0  0  0  0
  -29.6334    3.7955   13.0377 O   0  0  0  0  0  0  0  0  0  0  0  0
  -26.9773    3.6568   13.6391 N   0  0  0  0  0  0  0  0  0  0  0  0
  -30.0340    1.8678   15.8022 P   0  0  2  0  0  0  0  0  0  0  0  0
  -31.3164    2.0681   15.1071 O   0  0  0  0  0  0  0  0  0  0  0  0
  -29.8755    2.6476   17.1085 O   0  0  0  0  0  0  0  0  0  0  0  0
  -28.8228    2.2891   14.8570 O   0  0  0  0  0  0  0  0  0  0  0  0
  -29.8280    0.3513   16.1009 O   0  0  0  0  0  0  0  0  0  0  0  0
  -30.8463   -0.4386   16.7387 C   0  0  0  0  0  0  0  0  0  0  0  0
  -30.4361   -1.8713   16.5616 C   0  0  1  0  0  0  0  0  0  0  0  0
  -30.6570   -2.5903   17.7916 O   0  0  0  0  0  0  0  0  0  0  0  0
  -31.2718   -2.6352   15.5458 C   0  0  1  0  0  0  0  0  0  0  0  0
  -30.8308   -2.3519   14.2248 O   0  0  0  0  0  0  0  0  0  0  0  0
  -31.0395   -4.0837   15.9688 C   0  0  1  0  0  0  0  0  0  0  0  0
  -29.8294   -4.5667   15.4115 O   0  0  0  0  0  0  0  0  0  0  0  0
  -30.8768   -3.9578   17.4897 C   0  0  2  0  0  0  0  0  0  0  0  0
  -32.0178   -4.4439   18.2558 N   0  0  0  0  0  0  0  0  0  0  0  0
  -32.4568   -5.7352   18.3852 C   0  0  0  0  0  0  0  0  0  0  0  0
  -33.5053   -5.8675   19.1620 N   0  0  0  0  0  0  0  0  0  0  0  0
  -33.7759   -4.5689   19.5721 C   0  0  0  0  0  0  0  0  0  0  0  0
  -34.7675   -4.0253   20.4182 C   0  0  0  0  0  0  0  0  0  0  0  0
  -35.6553   -4.7658   21.0790 N   0  0  0  0  0  0  0  0  0  0  0  0
  -34.7725   -2.6842   20.6105 N   0  0  0  0  0  0  0  0  0  0  0  0
  -33.8241   -1.9431   20.0183 C   0  0  0  0  0  0  0  0  0  0  0  0
  -32.8356   -2.3446   19.2051 N   0  0  0  0  0  0  0  0  0  0  0  0
  -32.8701   -3.6805   19.0198 C   0  0  0  0  0  0  0  0  0  0  0  0
  -26.4236    3.4877   14.4910 H   0  0  0  0  0  0  0  0  0  0  0  0
  -30.9086   -0.1891   17.8082 H   0  0  0  0  0  0  0  0  0  0  0  0
  -31.8363   -0.2475   16.2990 H   0  0  0  0  0  0  0  0  0  0  0  0
  -29.3868   -1.8217   16.2353 H   0  0  0  0  0  0  0  0  0  0  0  0
  -32.3403   -2.3741   15.5296 H   0  0  0  0  0  0  0  0  0  0  0  0
  -29.9985   -1.8172   14.2623 H   0  0  0  0  0  0  0  0  0  0  0  0
  -31.8403   -4.7675   15.6510 H   0  0  0  0  0  0  0  0  0  0  0  0
  -29.2067   -4.8153   16.1399 H   0  0  0  0  0  0  0  0  0  0  0  0
  -30.0278   -4.5933   17.7820 H   0  0  0  0  0  0  0  0  0  0  0  0
  -31.9730   -6.5855   17.8823 H   0  0  0  0  0  0  0  0  0  0  0  0
  -36.3563   -4.3129   21.6826 H   0  0  0  0  0  0  0  0  0  0  0  0
  -35.6410   -5.7916   20.9866 H   0  0  0  0  0  0  0  0  0  0  0  0
  -33.8619   -0.8637   20.2270 H   0  0  0  0  0  0  0  0  0  0  0  0
  1  2  2  0
  1  3  1  6
  1  4  1  0
  1  8  1  0
  5  6  2  0
  5  7  1  6
  5  8  1  0
  5 12  1  0
  9 10  2  0
  9 11  1  1
  9 12  1  0
  9 13  1  0
 13 14  1  0
 15 14  1  0
 15 16  1  0
 15 17  1  0
 16 21  1  0
 17 18  1  0
 17 19  1  0
 19 20  1  0
 19 21  1  0
 21 22  1  0
 22 23  1  0
 22 31  1  0
 23 24  2  0
 24 25  1  0
 25 26  2  0
 25 31  1  0
 26 27  1  0
 26 28  1  0
 28 29  2  0
 29 30  1  0
 30 31  2  0
  8 32  1  0
 14 33  1  0
 14 34  1  0
 15 35  1  6
 17 36  1  6
 18 37  1  0
 19 38  1  1
 20 39  1  0
 21 40  1  1
 23 41  1  0
 27 42  1  0
 27 43  1  0
 29 44  1  0
M  CHG  4   3  -1   4  -1   7  -1  11  -1
M  END
>  <filename_input>  (24) 
7B94_ANP_docked.sdf

>  <pdb_id>  (24) 
7B94_ANP

>  <pose_rank>  (24) 
23

>  <num_atoms_heavy>  (24) 
31

>  <num_torsions>  (24) 
8

>  <pose>  (24) 
[-30.43611552034182, -1.8713403522224064, 16.561551679720875, 1.1326200818944059, 1.7003620488358502, -1.4014368040519232, 2.5344181244072237, -8.928066534286195, -0.5273693984638271, -3.873113653901442, 1.4412384973769088, 1.2794869830606759, 2.5881936378220884, -2.6044992419505792]

>  <energy>  (24) 
-754.3347014854081

>  <inter_energy>  (24) 
-775.2688261574838

>  <intra_energy>  (24) 
28.110517244792685

>  <rmsd>  (24) 
5.08876

>  <sdf_rank>  (24) 
0

$$$$

     RDKit          3D

 44 46  0  0  0  0  0  0  0  0999 V2000
  -28.1959    2.0402   14.3922 P   0  0  2  0  0  0  0  0  0  0  0  0
  -27.7364    1.1701   13.3202 O   0  0  0  0  0  0  0  0  0  0  0  0
  -29.4229    2.8464   13.8342 O   0  0  0  0  0  0  0  0  0  0  0  0
  -27.0088    3.0258   14.7330 O   0  0  0  0  0  0  0  0  0  0  0  0
  -29.9770    0.2234   16.0049 P   0  0  1  0  0  0  0  0  0  0  0  0
  -30.3132    0.1166   17.4133 O   0  0  0  0  0  0  0  0  0  0  0  0
  -31.2729    0.5613   15.1695 O   0  0  0  0  0  0  0  0  0  0  0  0
  -28.7097    1.2635   15.7796 N   0  0  0  0  0  0  0  0  0  0  0  0
  -30.4101   -2.4233   14.9954 P   0  0  2  0  0  0  0  0  0  0  0  0
  -30.1764   -2.7342   13.5754 O   0  0  0  0  0  0  0  0  0  0  0  0
  -31.8567   -2.0796   15.3546 O   0  0  0  0  0  0  0  0  0  0  0  0
  -29.5112   -1.1870   15.4444 O   0  0  0  0  0  0  0  0  0  0  0  0
  -29.9502   -3.6223   15.8798 O   0  0  0  0  0  0  0  0  0  0  0  0
  -30.3127   -4.9774   15.5639 C   0  0  0  0  0  0  0  0  0  0  0  0
  -30.9382   -5.5430   16.8053 C   0  0  1  0  0  0  0  0  0  0  0  0
  -30.9622   -4.5336   17.8344 O   0  0  0  0  0  0  0  0  0  0  0  0
  -32.4018   -5.9246   16.6444 C   0  0  1  0  0  0  0  0  0  0  0  0
  -32.5189   -7.1932   16.0146 O   0  0  0  0  0  0  0  0  0  0  0  0
  -32.8933   -5.9136   18.0898 C   0  0  1  0  0  0  0  0  0  0  0  0
  -32.5889   -7.1469   18.7182 O   0  0  0  0  0  0  0  0  0  0  0  0
  -32.0372   -4.8054   18.7177 C   0  0  2  0  0  0  0  0  0  0  0  0
  -32.7627   -3.5705   18.9896 N   0  0  0  0  0  0  0  0  0  0  0  0
  -32.5119   -2.3192   18.4913 C   0  0  0  0  0  0  0  0  0  0  0  0
  -33.3534   -1.4016   18.9039 N   0  0  0  0  0  0  0  0  0  0  0  0
  -34.2194   -2.1001   19.7346 C   0  0  0  0  0  0  0  0  0  0  0  0
  -35.3465   -1.7005   20.4859 C   0  0  0  0  0  0  0  0  0  0  0  0
  -35.8474   -0.4670   20.4587 N   0  0  0  0  0  0  0  0  0  0  0  0
  -35.9830   -2.6411   21.2247 N   0  0  0  0  0  0  0  0  0  0  0  0
  -35.5362   -3.9054   21.1848 C   0  0  0  0  0  0  0  0  0  0  0  0
  -34.4885   -4.4009   20.5092 N   0  0  0  0  0  0  0  0  0  0  0  0
  -33.8666   -3.4365   19.7998 C   0  0  0  0  0  0  0  0  0  0  0  0
  -27.8859    0.7278   16.0884 H   0  0  0  0  0  0  0  0  0  0  0  0
  -31.0321   -4.9957   14.7320 H   0  0  0  0  0  0  0  0  0  0  0  0
  -29.4364   -5.5649   15.2529 H   0  0  0  0  0  0  0  0  0  0  0  0
  -30.3338   -6.4314   17.0410 H   0  0  0  0  0  0  0  0  0  0  0  0
  -32.9909   -5.2545   16.0009 H   0  0  0  0  0  0  0  0  0  0  0  0
  -32.5841   -7.8997   16.7050 H   0  0  0  0  0  0  0  0  0  0  0  0
  -33.9785   -5.7597   18.1832 H   0  0  0  0  0  0  0  0  0  0  0  0
  -32.6172   -7.0322   19.7011 H   0  0  0  0  0  0  0  0  0  0  0  0
  -31.6933   -5.1718   19.6962 H   0  0  0  0  0  0  0  0  0  0  0  0
  -31.6789   -2.1033   17.8061 H   0  0  0  0  0  0  0  0  0  0  0  0
  -36.6727   -0.2336   21.0290 H   0  0  0  0  0  0  0  0  0  0  0  0
  -35.4096    0.2537   19.8672 H   0  0  0  0  0  0  0  0  0  0  0  0
  -36.1037   -4.6316   21.7852 H   0  0  0  0  0  0  0  0  0  0  0  0
  1  2  2  0
  1  3  1  6
  1  4  1  0
  1  8  1  0
  5  6  2  0
  5  7  1  6
  5  8  1  0
  5 12  1  0
  9 10  2  0
  9 11  1  6
  9 12  1  0
  9 13  1  0
 13 14  1  0
 15 14  1  0
 15 16  1  0
 15 17  1  0
 16 21  1  0
 17 18  1  0
 17 19  1  0
 19 20  1  0
 19 21  1  0
 21 22  1  0
 22 23  1  0
 22 31  1  0
 23 24  2  0
 24 25  1  0
 25 26  2  0
 25 31  1  0
 26 27  1  0
 26 28  1  0
 28 29  2  0
 29 30  1  0
 30 31  2  0
  8 32  1  0
 14 33  1  0
 14 34  1  0
 15 35  1  1
 17 36  1  6
 18 37  1  0
 19 38  1  6
 20 39  1  0
 21 40  1  1
 23 41  1  0
 27 42  1  0
 27 43  1  0
 29 44  1  0
M  CHG  4   3  -1   4  -1   7  -1  11  -1
M  END
>  <filename_input>  (25) 
7B94_ANP_docked.sdf

>  <pdb_id>  (25) 
7B94_ANP

>  <pose_rank>  (25) 
24

>  <num_atoms_heavy>  (25) 
31

>  <num_torsions>  (25) 
8

>  <pose>  (25) 
[-30.938216142161252, -5.543036035058101, 16.805346714896583, -1.510649341857613, -0.13629171774706858, 3.322057573024168, -0.7474956381891896, 1.251107656664204, 0.6307495254233096, 2.47369410873239, 2.505877881959369, 1.8763301076323577, 2.8413829926279686, -2.758383179081949]

>  <energy>  (25) 
-759.6189248843342

>  <inter_energy>  (25) 
-786.3149370306746

>  <intra_energy>  (25) 
27.27367293359235

>  <rmsd>  (25) 
4.84002

>  <sdf_rank>  (25) 
0

$$$$

     RDKit          3D

 44 46  0  0  0  0  0  0  0  0999 V2000
  -26.2290   -5.3340   12.7250 P   0  0  2  0  0  0  0  0  0  0  0  0
  -27.1110   -6.0270   11.7980 O   0  0  0  0  0  0  0  0  0  0  0  0
  -24.7670   -5.4950   12.1740 O   0  0  0  0  0  0  0  0  0  0  0  0
  -26.3640   -6.0560   14.1240 O   0  0  0  0  0  0  0  0  0  0  0  0
  -27.4190   -2.8890   14.0210 P   0  0  1  0  0  0  0  0  0  0  0  0
  -27.3440   -3.5450   15.3140 O   0  0  0  0  0  0  0  0  0  0  0  0
  -27.0770   -1.3560   14.1780 O   0  0  0  0  0  0  0  0  0  0  0  0
  -26.5100   -3.6960   12.8980 N   0  0  0  0  0  0  0  0  0  0  0  0
  -30.0730   -3.9470   13.8010 P   0  0  2  0  0  0  0  0  0  0  0  0
  -29.4960   -5.2430   14.1950 O   0  0  0  0  0  0  0  0  0  0  0  0
  -30.9840   -3.9890   12.5730 O   0  0  0  0  0  0  0  0  0  0  0  0
  -28.9140   -2.9000   13.4870 O   0  0  0  0  0  0  0  0  0  0  0  0
  -30.8750   -3.3430   14.9940 O   0  0  0  0  0  0  0  0  0  0  0  0
  -31.3950   -2.0030   14.9540 C   0  0  0  0  0  0  0  0  0  0  0  0
  -31.7120   -1.6350   16.3740 C   0  0  1  0  0  0  0  0  0  0  0  0
  -32.8620   -2.3820   16.8190 O   0  0  0  0  0  0  0  0  0  0  0  0
  -30.6290   -2.0180   17.3710 C   0  0  1  0  0  0  0  0  0  0  0  0
  -29.5820   -1.0570   17.3620 O   0  0  0  0  0  0  0  0  0  0  0  0
  -31.4070   -2.0600   18.6840 C   0  0  1  0  0  0  0  0  0  0  0  0
  -31.5170   -0.7560   19.2280 O   0  0  0  0  0  0  0  0  0  0  0  0
  -32.7940   -2.5320   18.2270 C   0  0  2  0  0  0  0  0  0  0  0  0
  -33.1030   -3.9120   18.5810 N   0  0  0  0  0  0  0  0  0  0  0  0
  -32.6560   -5.0570   17.9760 C   0  0  0  0  0  0  0  0  0  0  0  0
  -33.0920   -6.1610   18.5340 N   0  0  0  0  0  0  0  0  0  0  0  0
  -33.8840   -5.7090   19.5810 C   0  0  0  0  0  0  0  0  0  0  0  0
  -34.6350   -6.3860   20.5670 C   0  0  0  0  0  0  0  0  0  0  0  0
  -34.6480   -7.7110   20.6990 N   0  0  0  0  0  0  0  0  0  0  0  0
  -35.3290   -5.6400   21.4600 N   0  0  0  0  0  0  0  0  0  0  0  0
  -35.2470   -4.3030   21.3870 C   0  0  0  0  0  0  0  0  0  0  0  0
  -34.5670   -3.5540   20.5060 N   0  0  0  0  0  0  0  0  0  0  0  0
  -33.9030   -4.3260   19.6210 C   0  0  0  0  0  0  0  0  0  0  0  0
  -25.5693   -3.2877   12.9946 H   0  0  0  0  0  0  0  0  0  0  0  0
  -30.6436   -1.3144   14.5402 H   0  0  0  0  0  0  0  0  0  0  0  0
  -32.2873   -1.9380   14.3140 H   0  0  0  0  0  0  0  0  0  0  0  0
  -31.8470   -0.5435   16.3547 H   0  0  0  0  0  0  0  0  0  0  0  0
  -30.1170   -2.9688   17.1617 H   0  0  0  0  0  0  0  0  0  0  0  0
  -29.3345   -0.8299   18.2933 H   0  0  0  0  0  0  0  0  0  0  0  0
  -30.9393   -2.6946   19.4512 H   0  0  0  0  0  0  0  0  0  0  0  0
  -31.5125   -0.8094   20.2166 H   0  0  0  0  0  0  0  0  0  0  0  0
  -33.5390   -1.9150   18.7507 H   0  0  0  0  0  0  0  0  0  0  0  0
  -31.9906   -5.0510   17.1001 H   0  0  0  0  0  0  0  0  0  0  0  0
  -35.2158   -8.1494   21.4381 H   0  0  0  0  0  0  0  0  0  0  0  0
  -34.0902   -8.2975   20.0620 H   0  0  0  0  0  0  0  0  0  0  0  0
  -35.8118   -3.7476   22.1502 H   0  0  0  0  0  0  0  0  0  0  0  0
  1  2  2  0
  1  3  1  6
  1  4  1  0
  1  8  1  0
  5  6  2  0
  5  7  1  1
  5  8  1  0
  5 12  1  0
  9 10  2  0
  9 11  1  6
  9 12  1  0
  9 13  1  0
 13 14  1  0
 15 14  1  0
 15 16  1  0
 15 17  1  0
 16 21  1  0
 17 18  1  0
 17 19  1  0
 19 20  1  0
 19 21  1  0
 21 22  1  0
 22 23  1  0
 22 31  1  0
 23 24  2  0
 24 25  1  0
 25 26  2  0
 25 31  1  0
 26 27  1  0
 26 28  1  0
 28 29  2  0
 29 30  1  0
 30 31  2  0
  8 32  1  0
 14 33  1  0
 14 34  1  0
 15 35  1  6
 17 36  1  6
 18 37  1  0
 19 38  1  1
 20 39  1  0
 21 40  1  1
 23 41  1  0
 27 42  1  0
 27 43  1  0
 29 44  1  0
M  CHG  4   3  -1   4  -1   7  -1  11  -1
M  END
>  <filename_input>  (26) 
7B94_ANP_docked.sdf

>  <pdb_id>  (26) 
7B94_ANP

>  <pose_rank>  (26) 
25

>  <num_atoms_heavy>  (26) 
31

>  <num_torsions>  (26) 
8

>  <pose>  (26) 
[-31.712, -1.635, 16.374, 1e-06, 1e-06, 1e-06, 0.0, 0.0, 0.0, 0.0, 0.0, 0.0, 0.0, 0.0]

>  <energy>  (26) 
-1661.9449650294023

>  <inter_energy>  (26) 
-1713.5333911759776

>  <intra_energy>  (26) 
14.446651080681768

>  <rmsd>  (26) 
0.0

>  <sdf_rank>  (26) 
0

$$$$
