
     RDKit          3D

 24 23  0  0  0  0  0  0  0  0999 V2000
  -22.3601    2.4635   -3.0470 C   0  0  0  0  0  0  0  0  0  0  0  0
  -21.8186    3.1031   -4.3170 C   0  0  1  0  0  0  0  0  0  0  0  0
  -20.3980    3.6678   -4.2477 C   0  0  2  0  0  0  0  0  0  0  0  0
  -20.5529    5.0940   -3.7033 C   0  0  1  0  0  0  0  0  0  0  0  0
  -19.2062    5.5856   -3.1832 C   0  0  1  0  0  0  0  0  0  0  0  0
  -18.7980    6.8099   -3.9876 C   0  0  0  0  0  0  0  0  0  0  0  0
  -22.2397    1.2079   -2.8809 O   0  0  0  0  0  0  0  0  0  0  0  0
  -22.9185    3.1758   -2.1832 O   0  0  0  0  0  0  0  0  0  0  0  0
  -21.9020    2.0417   -5.2590 O   0  0  0  0  0  0  0  0  0  0  0  0
  -19.9257    3.6533   -5.5663 O   0  0  0  0  0  0  0  0  0  0  0  0
  -21.1183    5.9626   -4.6775 O   0  0  0  0  0  0  0  0  0  0  0  0
  -19.2990    6.0270   -1.8265 O   0  0  0  0  0  0  0  0  0  0  0  0
  -17.3895    6.8836   -3.8790 O   0  0  0  0  0  0  0  0  0  0  0  0
  -22.3991    4.0046   -4.5625 H   0  0  0  0  0  0  0  0  0  0  0  0
  -19.6974    3.1109   -3.6081 H   0  0  0  0  0  0  0  0  0  0  0  0
  -21.2602    5.0897   -2.8609 H   0  0  0  0  0  0  0  0  0  0  0  0
  -18.4916    4.7534   -3.2661 H   0  0  0  0  0  0  0  0  0  0  0  0
  -19.0966    6.6950   -5.0400 H   0  0  0  0  0  0  0  0  0  0  0  0
  -19.2836    7.7233   -3.6137 H   0  0  0  0  0  0  0  0  0  0  0  0
  -21.9698    1.1787   -4.7786 H   0  0  0  0  0  0  0  0  0  0  0  0
  -18.9362    3.6230   -5.5621 H   0  0  0  0  0  0  0  0  0  0  0  0
  -21.5982    6.6999   -4.2235 H   0  0  0  0  0  0  0  0  0  0  0  0
  -19.1382    5.2621   -1.2189 H   0  0  0  0  0  0  0  0  0  0  0  0
  -17.1325    6.8970   -2.9231 H   0  0  0  0  0  0  0  0  0  0  0  0
  1  2  1  0
  1  7  2  0
  1  8  1  0
  2  3  1  0
  2  9  1  0
  3  4  1  0
  3 10  1  0
  4  5  1  0
  4 11  1  0
  5  6  1  0
  5 12  1  0
  6 13  1  0
  2 14  1  6
  3 15  1  1
  4 16  1  1
  5 17  1  1
  6 18  1  0
  6 19  1  0
  9 20  1  0
 10 21  1  0
 11 22  1  0
 12 23  1  0
 13 24  1  0
M  CHG  1   8  -1
M  END
>  <filename_input>  (1) 
7BCP_GCO_docked.sdf

>  <pdb_id>  (1) 
7BCP_GCO

>  <pose_rank>  (1) 
0

>  <num_atoms_heavy>  (1) 
13

>  <num_torsions>  (1) 
5

>  <pose>  (1) 
[-20.397981887781835, 3.6677532073870167, -4.247677468171253, 5.06667531483054, -0.8772245246243204, 3.5000363017525866, 6.176292577627184, 0.09532533163292016, 6.055472133182265, 6.933861154307809, 0.36753625796310146]

>  <energy>  (1) 
-641.5780767763395

>  <inter_energy>  (1) 
-623.6084446978946

>  <intra_energy>  (1) 
1.1547442658763933

>  <rmsd>  (1) 
0.582972

>  <sdf_rank>  (1) 
0

$$$$

     RDKit          3D

 24 23  0  0  0  0  0  0  0  0999 V2000
  -21.9575    2.6502   -3.0381 C   0  0  0  0  0  0  0  0  0  0  0  0
  -21.2826    3.6761   -3.9366 C   0  0  1  0  0  0  0  0  0  0  0  0
  -21.2176    5.1112   -3.4093 C   0  0  2  0  0  0  0  0  0  0  0  0
  -19.7222    5.4361   -3.2964 C   0  0  1  0  0  0  0  0  0  0  0  0
  -19.2717    6.1844   -4.5466 C   0  0  1  0  0  0  0  0  0  0  0  0
  -18.6788    7.5185   -4.1209 C   0  0  0  0  0  0  0  0  0  0  0  0
  -23.1678    2.8278   -2.6884 O   0  0  0  0  0  0  0  0  0  0  0  0
  -21.3170    1.6473   -2.6518 O   0  0  0  0  0  0  0  0  0  0  0  0
  -19.9797    3.1329   -4.1039 O   0  0  0  0  0  0  0  0  0  0  0  0
  -21.8477    5.0784   -2.1587 O   0  0  0  0  0  0  0  0  0  0  0  0
  -19.4342    6.1435   -2.0965 O   0  0  0  0  0  0  0  0  0  0  0  0
  -18.2192    5.4904   -5.2208 O   0  0  0  0  0  0  0  0  0  0  0  0
  -17.2778    7.3699   -4.2490 O   0  0  0  0  0  0  0  0  0  0  0  0
  -21.8651    3.8101   -4.8601 H   0  0  0  0  0  0  0  0  0  0  0  0
  -21.7058    5.8699   -4.0387 H   0  0  0  0  0  0  0  0  0  0  0  0
  -19.1475    4.5001   -3.2365 H   0  0  0  0  0  0  0  0  0  0  0  0
  -20.1451    6.2883   -5.2072 H   0  0  0  0  0  0  0  0  0  0  0  0
  -19.0407    8.3258   -4.7746 H   0  0  0  0  0  0  0  0  0  0  0  0
  -18.9680    7.7832   -3.0931 H   0  0  0  0  0  0  0  0  0  0  0  0
  -19.5758    2.9645   -3.2159 H   0  0  0  0  0  0  0  0  0  0  0  0
  -21.1639    5.1140   -1.4436 H   0  0  0  0  0  0  0  0  0  0  0  0
  -19.6643    5.5783   -1.3169 H   0  0  0  0  0  0  0  0  0  0  0  0
  -17.6088    5.0879   -4.5533 H   0  0  0  0  0  0  0  0  0  0  0  0
  -16.8670    7.3263   -3.3493 H   0  0  0  0  0  0  0  0  0  0  0  0
  1  2  1  0
  1  7  2  0
  1  8  1  0
  2  3  1  0
  2  9  1  0
  3  4  1  0
  3 10  1  0
  4  5  1  0
  4 11  1  0
  5  6  1  0
  5 12  1  0
  6 13  1  0
  2 14  1  6
  3 15  1  6
  4 16  1  1
  5 17  1  6
  6 18  1  0
  6 19  1  0
  9 20  1  0
 10 21  1  0
 11 22  1  0
 12 23  1  0
 13 24  1  0
M  CHG  1   8  -1
M  END
>  <filename_input>  (2) 
7BCP_GCO_docked.sdf

>  <pdb_id>  (2) 
7BCP_GCO

>  <pose_rank>  (2) 
1

>  <num_atoms_heavy>  (2) 
13

>  <num_torsions>  (2) 
5

>  <pose>  (2) 
[-21.217614848063644, 5.111238827119199, -3.409312829347464, 1.7195966731208667, 2.356737591915036, 0.8411359369291378, -9.10222886216157, -3.5267035258093986, -7.658721055568707, 0.7191575413245704, -1.360741594338355]

>  <energy>  (2) 
-536.6034970818898

>  <inter_energy>  (2) 
-566.1894003807865

>  <intra_energy>  (2) 
24.35122105287379

>  <rmsd>  (2) 
1.92557

>  <sdf_rank>  (2) 
0

$$$$

     RDKit          3D

 24 23  0  0  0  0  0  0  0  0999 V2000
  -22.4311    2.3953   -3.0017 C   0  0  0  0  0  0  0  0  0  0  0  0
  -21.7562    3.2260   -4.0832 C   0  0  1  0  0  0  0  0  0  0  0  0
  -20.2775    3.5574   -3.8696 C   0  0  2  0  0  0  0  0  0  0  0  0
  -20.0442    4.8773   -4.6165 C   0  0  1  0  0  0  0  0  0  0  0  0
  -20.2352    6.0439   -3.6529 C   0  0  1  0  0  0  0  0  0  0  0  0
  -19.9234    5.5607   -2.2451 C   0  0  0  0  0  0  0  0  0  0  0  0
  -23.2978    2.9406   -2.2464 O   0  0  0  0  0  0  0  0  0  0  0  0
  -22.1265    1.1896   -2.8649 O   0  0  0  0  0  0  0  0  0  0  0  0
  -21.9393    2.4293   -5.2461 O   0  0  0  0  0  0  0  0  0  0  0  0
  -19.5698    2.4930   -4.4429 O   0  0  0  0  0  0  0  0  0  0  0  0
  -18.7743    4.8934   -5.2571 O   0  0  0  0  0  0  0  0  0  0  0  0
  -19.3048    7.0972   -3.9157 O   0  0  0  0  0  0  0  0  0  0  0  0
  -20.9863    6.0299   -1.4382 O   0  0  0  0  0  0  0  0  0  0  0  0
  -22.2011    4.2313   -4.1195 H   0  0  0  0  0  0  0  0  0  0  0  0
  -19.9648    3.6749   -2.8216 H   0  0  0  0  0  0  0  0  0  0  0  0
  -20.7863    4.9785   -5.4221 H   0  0  0  0  0  0  0  0  0  0  0  0
  -21.2668    6.4078   -3.7686 H   0  0  0  0  0  0  0  0  0  0  0  0
  -19.8764    4.4620   -2.2178 H   0  0  0  0  0  0  0  0  0  0  0  0
  -18.9499    5.9328   -1.8931 H   0  0  0  0  0  0  0  0  0  0  0  0
  -22.1528    1.5001   -4.9793 H   0  0  0  0  0  0  0  0  0  0  0  0
  -19.1916    1.9243   -3.7262 H   0  0  0  0  0  0  0  0  0  0  0  0
  -18.0593    4.9025   -4.5724 H   0  0  0  0  0  0  0  0  0  0  0  0
  -18.9765    7.4689   -3.0589 H   0  0  0  0  0  0  0  0  0  0  0  0
  -20.7472    5.9243   -0.4833 H   0  0  0  0  0  0  0  0  0  0  0  0
  1  2  1  0
  1  7  2  0
  1  8  1  0
  2  3  1  0
  2  9  1  0
  3  4  1  0
  3 10  1  0
  4  5  1  0
  4 11  1  0
  5  6  1  0
  5 12  1  0
  6 13  1  0
  2 14  1  6
  3 15  1  1
  4 16  1  6
  5 17  1  1
  6 18  1  0
  6 19  1  0
  9 20  1  0
 10 21  1  0
 11 22  1  0
 12 23  1  0
 13 24  1  0
M  CHG  1   8  -1
M  END
>  <filename_input>  (3) 
7BCP_GCO_docked.sdf

>  <pdb_id>  (3) 
7BCP_GCO

>  <pose_rank>  (3) 
2

>  <num_atoms_heavy>  (3) 
13

>  <num_torsions>  (3) 
5

>  <pose>  (3) 
[-20.277495862046827, 3.557360214211966, -3.869649301584482, -0.9182583925616625, -0.36462388403434964, -0.2801862308625275, -1.266265182720879, -2.63648476927958, -1.4389216753229916, -0.9483784683401575, 0.7754656269488811]

>  <energy>  (3) 
-567.9525795885902

>  <inter_energy>  (3) 
-562.78169603703

>  <intra_energy>  (3) 
3.4401308330046874

>  <rmsd>  (3) 
1.99214

>  <sdf_rank>  (3) 
0

$$$$

     RDKit          3D

 24 23  0  0  0  0  0  0  0  0999 V2000
  -18.0623    6.1774   -3.1705 C   0  0  0  0  0  0  0  0  0  0  0  0
  -19.5091    6.5866   -2.9373 C   0  0  1  0  0  0  0  0  0  0  0  0
  -20.5613    5.9206   -3.8267 C   0  0  2  0  0  0  0  0  0  0  0  0
  -20.5856    4.4481   -3.3960 C   0  0  1  0  0  0  0  0  0  0  0  0
  -22.0320    3.9772   -3.2863 C   0  0  1  0  0  0  0  0  0  0  0  0
  -22.0673    2.4747   -3.5186 C   0  0  0  0  0  0  0  0  0  0  0  0
  -17.6250    5.1048   -2.6441 O   0  0  0  0  0  0  0  0  0  0  0  0
  -17.3193    6.8984   -3.8730 O   0  0  0  0  0  0  0  0  0  0  0  0
  -19.7095    6.2530   -1.5701 O   0  0  0  0  0  0  0  0  0  0  0  0
  -20.0966    6.0804   -5.1385 O   0  0  0  0  0  0  0  0  0  0  0  0
  -19.8069    3.6392   -4.2693 O   0  0  0  0  0  0  0  0  0  0  0  0
  -22.5488    4.1776   -1.9685 O   0  0  0  0  0  0  0  0  0  0  0  0
  -23.2443    2.0191   -2.8796 O   0  0  0  0  0  0  0  0  0  0  0  0
  -19.6473    7.6473   -3.1941 H   0  0  0  0  0  0  0  0  0  0  0  0
  -21.5771    6.3360   -3.7514 H   0  0  0  0  0  0  0  0  0  0  0  0
  -20.1210    4.3490   -2.4038 H   0  0  0  0  0  0  0  0  0  0  0  0
  -22.6247    4.5441   -4.0193 H   0  0  0  0  0  0  0  0  0  0  0  0
  -22.1046    2.2534   -4.5954 H   0  0  0  0  0  0  0  0  0  0  0  0
  -21.1696    1.9798   -3.1196 H   0  0  0  0  0  0  0  0  0  0  0  0
  -19.2938    6.9451   -0.9971 H   0  0  0  0  0  0  0  0  0  0  0  0
  -19.1606    6.4023   -5.1201 H   0  0  0  0  0  0  0  0  0  0  0  0
  -19.2289    3.0387   -3.7351 H   0  0  0  0  0  0  0  0  0  0  0  0
  -21.8659    3.9128   -1.3024 H   0  0  0  0  0  0  0  0  0  0  0  0
  -23.1257    2.0650   -1.8978 H   0  0  0  0  0  0  0  0  0  0  0  0
  1  2  1  0
  1  7  2  0
  1  8  1  0
  2  3  1  0
  2  9  1  0
  3  4  1  0
  3 10  1  0
  4  5  1  0
  4 11  1  0
  5  6  1  0
  5 12  1  0
  6 13  1  0
  2 14  1  1
  3 15  1  6
  4 16  1  1
  5 17  1  6
  6 18  1  0
  6 19  1  0
  9 20  1  0
 10 21  1  0
 11 22  1  0
 12 23  1  0
 13 24  1  0
M  CHG  1   8  -1
M  END
>  <filename_input>  (4) 
7BCP_GCO_docked.sdf

>  <pdb_id>  (4) 
7BCP_GCO

>  <pose_rank>  (4) 
3

>  <num_atoms_heavy>  (4) 
13

>  <num_torsions>  (4) 
5

>  <pose>  (4) 
[-20.561343077795037, 5.920632277138694, -3.8267442756538093, -1.1000663957856547, -0.26655797139858717, 3.0321783807848175, 2.5861079795639252, 0.3016769853839475, -0.6815409708022764, 1.2589184117767453, -0.4601807480020355]

>  <energy>  (4) 
-451.4145658709412

>  <inter_energy>  (4) 
-443.25770913842393

>  <intra_energy>  (4) 
14.6624579828384

>  <rmsd>  (4) 
4.78663

>  <sdf_rank>  (4) 
0

$$$$

     RDKit          3D

 24 23  0  0  0  0  0  0  0  0999 V2000
  -22.3579    2.9774   -3.3676 C   0  0  0  0  0  0  0  0  0  0  0  0
  -22.0053    4.3293   -2.7650 C   0  0  1  0  0  0  0  0  0  0  0  0
  -20.9226    5.1380   -3.4831 C   0  0  2  0  0  0  0  0  0  0  0  0
  -20.0430    5.7203   -2.3687 C   0  0  1  0  0  0  0  0  0  0  0  0
  -18.7151    6.1804   -2.9611 C   0  0  1  0  0  0  0  0  0  0  0  0
  -18.5335    5.5085   -4.3132 C   0  0  0  0  0  0  0  0  0  0  0  0
  -22.6088    2.8958   -4.6122 O   0  0  0  0  0  0  0  0  0  0  0  0
  -22.3998    1.9638   -2.6353 O   0  0  0  0  0  0  0  0  0  0  0  0
  -23.2517    5.0125   -2.7845 O   0  0  0  0  0  0  0  0  0  0  0  0
  -21.6080    6.1338   -4.1908 O   0  0  0  0  0  0  0  0  0  0  0  0
  -20.7184    6.7529   -1.6609 O   0  0  0  0  0  0  0  0  0  0  0  0
  -18.7186    7.5856   -3.2243 O   0  0  0  0  0  0  0  0  0  0  0  0
  -17.5836    6.2966   -5.0045 O   0  0  0  0  0  0  0  0  0  0  0  0
  -21.5521    4.1931   -1.7720 H   0  0  0  0  0  0  0  0  0  0  0  0
  -20.2914    4.5693   -4.1817 H   0  0  0  0  0  0  0  0  0  0  0  0
  -19.8293    4.9389   -1.6246 H   0  0  0  0  0  0  0  0  0  0  0  0
  -17.9226    5.9286   -2.2411 H   0  0  0  0  0  0  0  0  0  0  0  0
  -18.1601    4.4818   -4.1849 H   0  0  0  0  0  0  0  0  0  0  0  0
  -19.4830    5.4387   -4.8642 H   0  0  0  0  0  0  0  0  0  0  0  0
  -23.5523    5.1772   -1.8557 H   0  0  0  0  0  0  0  0  0  0  0  0
  -22.0368    6.7568   -3.5520 H   0  0  0  0  0  0  0  0  0  0  0  0
  -20.6208    6.6037   -0.6871 H   0  0  0  0  0  0  0  0  0  0  0  0
  -18.7198    8.0818   -2.3676 H   0  0  0  0  0  0  0  0  0  0  0  0
  -17.0110    6.7717   -4.3514 H   0  0  0  0  0  0  0  0  0  0  0  0
  1  2  1  0
  1  7  2  0
  1  8  1  0
  2  3  1  0
  2  9  1  0
  3  4  1  0
  3 10  1  0
  4  5  1  0
  4 11  1  0
  5  6  1  0
  5 12  1  0
  6 13  1  0
  2 14  1  1
  3 15  1  6
  4 16  1  1
  5 17  1  1
  6 18  1  0
  6 19  1  0
  9 20  1  0
 10 21  1  0
 11 22  1  0
 12 23  1  0
 13 24  1  0
M  CHG  1   8  -1
M  END
>  <filename_input>  (5) 
7BCP_GCO_docked.sdf

>  <pdb_id>  (5) 
7BCP_GCO

>  <pose_rank>  (5) 
4

>  <num_atoms_heavy>  (5) 
13

>  <num_torsions>  (5) 
5

>  <pose>  (5) 
[-20.92256549987611, 5.138021811796774, -3.4830659278616185, -3.0341729769821537, -3.964950657877207, 0.20708449110106758, -1.0112872584435173, 0.8656278316254206, -0.2147111420120028, 4.543712607613891, -0.39750563265583055]

>  <energy>  (5) 
-497.7153020839621

>  <inter_energy>  (5) 
-494.31051993806034

>  <intra_energy>  (5) 
6.858650138917728

>  <rmsd>  (5) 
1.9772

>  <sdf_rank>  (5) 
0

$$$$

     RDKit          3D

 24 23  0  0  0  0  0  0  0  0999 V2000
  -18.7915    6.4858   -2.3917 C   0  0  0  0  0  0  0  0  0  0  0  0
  -19.3304    5.1189   -2.7873 C   0  0  1  0  0  0  0  0  0  0  0  0
  -20.7218    5.0889   -3.4235 C   0  0  2  0  0  0  0  0  0  0  0  0
  -21.6592    4.5643   -2.3277 C   0  0  1  0  0  0  0  0  0  0  0  0
  -22.4606    5.7259   -1.7493 C   0  0  1  0  0  0  0  0  0  0  0  0
  -23.8136    5.1987   -1.2975 C   0  0  0  0  0  0  0  0  0  0  0  0
  -18.3983    7.2873   -3.2983 O   0  0  0  0  0  0  0  0  0  0  0  0
  -18.7386    6.8058   -1.1834 O   0  0  0  0  0  0  0  0  0  0  0  0
  -18.3428    4.6465   -3.6940 O   0  0  0  0  0  0  0  0  0  0  0  0
  -20.6201    4.2011   -4.5022 O   0  0  0  0  0  0  0  0  0  0  0  0
  -22.4845    3.5116   -2.8113 O   0  0  0  0  0  0  0  0  0  0  0  0
  -21.8401    6.2562   -0.5755 O   0  0  0  0  0  0  0  0  0  0  0  0
  -24.4693    6.2994   -0.6979 O   0  0  0  0  0  0  0  0  0  0  0  0
  -19.4880    4.5016   -1.8906 H   0  0  0  0  0  0  0  0  0  0  0  0
  -21.0974    6.0566   -3.7876 H   0  0  0  0  0  0  0  0  0  0  0  0
  -21.0626    4.1262   -1.5141 H   0  0  0  0  0  0  0  0  0  0  0  0
  -22.5339    6.5012   -2.5261 H   0  0  0  0  0  0  0  0  0  0  0  0
  -24.3899    4.8313   -2.1594 H   0  0  0  0  0  0  0  0  0  0  0  0
  -23.7094    4.3562   -0.5979 H   0  0  0  0  0  0  0  0  0  0  0  0
  -17.5764    4.2799   -3.1857 H   0  0  0  0  0  0  0  0  0  0  0  0
  -20.5143    3.2778   -4.1609 H   0  0  0  0  0  0  0  0  0  0  0  0
  -22.8718    3.0177   -2.0457 H   0  0  0  0  0  0  0  0  0  0  0  0
  -22.2794    5.8808    0.2283 H   0  0  0  0  0  0  0  0  0  0  0  0
  -24.4197    6.2162    0.2874 H   0  0  0  0  0  0  0  0  0  0  0  0
  1  2  1  0
  1  7  2  0
  1  8  1  0
  2  3  1  0
  2  9  1  0
  3  4  1  0
  3 10  1  0
  4  5  1  0
  4 11  1  0
  5  6  1  0
  5 12  1  0
  6 13  1  0
  2 14  1  1
  3 15  1  6
  4 16  1  1
  5 17  1  6
  6 18  1  0
  6 19  1  0
  9 20  1  0
 10 21  1  0
 11 22  1  0
 12 23  1  0
 13 24  1  0
M  CHG  1   8  -1
M  END
>  <filename_input>  (6) 
7BCP_GCO_docked.sdf

>  <pdb_id>  (6) 
7BCP_GCO

>  <pose_rank>  (6) 
5

>  <num_atoms_heavy>  (6) 
13

>  <num_torsions>  (6) 
5

>  <pose>  (6) 
[-20.721830811365358, 5.088902140375017, -3.423454816218469, 1.145675564813724, -1.2414666432966355, -3.210914428364816, -0.4335742013671177, 0.44984455365743287, -1.2470919857223859, 1.1855849070450577, -0.10771927678377005]

>  <energy>  (6) 
-394.1390648947189

>  <inter_energy>  (6) 
-396.22635872244854

>  <intra_energy>  (6) 
1.2990699785827613

>  <rmsd>  (6) 
4.60154

>  <sdf_rank>  (6) 
0

$$$$

     RDKit          3D

 24 23  0  0  0  0  0  0  0  0999 V2000
  -18.3884    6.5449   -3.4204 C   0  0  0  0  0  0  0  0  0  0  0  0
  -19.5568    5.7318   -3.9580 C   0  0  1  0  0  0  0  0  0  0  0  0
  -20.5061    5.1279   -2.9207 C   0  0  2  0  0  0  0  0  0  0  0  0
  -21.7809    4.7692   -3.6957 C   0  0  1  0  0  0  0  0  0  0  0  0
  -22.0981    3.2915   -3.4908 C   0  0  1  0  0  0  0  0  0  0  0  0
  -20.9786    2.4692   -4.1096 C   0  0  0  0  0  0  0  0  0  0  0  0
  -18.0542    7.6215   -4.0101 O   0  0  0  0  0  0  0  0  0  0  0  0
  -17.7690    6.1467   -2.4089 O   0  0  0  0  0  0  0  0  0  0  0  0
  -20.2326    6.6693   -4.7857 O   0  0  0  0  0  0  0  0  0  0  0  0
  -20.7265    6.1428   -1.9808 O   0  0  0  0  0  0  0  0  0  0  0  0
  -22.8627    5.6203   -3.3374 O   0  0  0  0  0  0  0  0  0  0  0  0
  -22.1105    2.9468   -2.1033 O   0  0  0  0  0  0  0  0  0  0  0  0
  -20.7711    3.0177   -5.3969 O   0  0  0  0  0  0  0  0  0  0  0  0
  -19.1863    4.8288   -4.4653 H   0  0  0  0  0  0  0  0  0  0  0  0
  -20.1338    4.2318   -2.4027 H   0  0  0  0  0  0  0  0  0  0  0  0
  -21.6148    4.9339   -4.7705 H   0  0  0  0  0  0  0  0  0  0  0  0
  -23.0819    3.0950   -3.9420 H   0  0  0  0  0  0  0  0  0  0  0  0
  -20.0630    2.5507   -3.5053 H   0  0  0  0  0  0  0  0  0  0  0  0
  -21.2371    1.4011   -4.1588 H   0  0  0  0  0  0  0  0  0  0  0  0
  -20.7073    7.3278   -4.2189 H   0  0  0  0  0  0  0  0  0  0  0  0
  -20.6455    5.7699   -1.0673 H   0  0  0  0  0  0  0  0  0  0  0  0
  -22.9289    5.6724   -2.3510 H   0  0  0  0  0  0  0  0  0  0  0  0
  -22.0808    3.7724   -1.5579 H   0  0  0  0  0  0  0  0  0  0  0  0
  -20.4223    3.9402   -5.3103 H   0  0  0  0  0  0  0  0  0  0  0  0
  1  2  1  0
  1  7  2  0
  1  8  1  0
  2  3  1  0
  2  9  1  0
  3  4  1  0
  3 10  1  0
  4  5  1  0
  4 11  1  0
  5  6  1  0
  5 12  1  0
  6 13  1  0
  2 14  1  6
  3 15  1  1
  4 16  1  6
  5 17  1  6
  6 18  1  0
  6 19  1  0
  9 20  1  0
 10 21  1  0
 11 22  1  0
 12 23  1  0
 13 24  1  0
M  CHG  1   8  -1
M  END
>  <filename_input>  (7) 
7BCP_GCO_docked.sdf

>  <pdb_id>  (7) 
7BCP_GCO

>  <pose_rank>  (7) 
6

>  <num_atoms_heavy>  (7) 
13

>  <num_torsions>  (7) 
5

>  <pose>  (7) 
[-20.506105972800846, 5.1279295449767766, -2.92074088069362, -2.069518150037684, 2.660576649374082, -1.7619875330411736, 4.231544325485691, 5.581936509171804, -0.8870528789771064, 3.736718104945848, 2.2618468053442147]

>  <energy>  (7) 
-438.3426998097214

>  <inter_energy>  (7) 
-448.6363636554775

>  <intra_energy>  (7) 
14.252292238846513

>  <rmsd>  (7) 
4.51664

>  <sdf_rank>  (7) 
0

$$$$

     RDKit          3D

 24 23  0  0  0  0  0  0  0  0999 V2000
  -22.2160    2.3745   -2.6939 C   0  0  0  0  0  0  0  0  0  0  0  0
  -21.8875    3.8586   -2.6239 C   0  0  1  0  0  0  0  0  0  0  0  0
  -20.4118    4.2407   -2.7579 C   0  0  2  0  0  0  0  0  0  0  0  0
  -20.2847    4.8955   -4.1398 C   0  0  1  0  0  0  0  0  0  0  0  0
  -19.2705    6.0324   -4.0691 C   0  0  1  0  0  0  0  0  0  0  0  0
  -19.1594    6.4882   -2.6225 C   0  0  0  0  0  0  0  0  0  0  0  0
  -23.0939    1.8925   -1.9093 O   0  0  0  0  0  0  0  0  0  0  0  0
  -21.6199    1.6455   -3.5177 O   0  0  0  0  0  0  0  0  0  0  0  0
  -22.6546    4.3970   -3.6927 O   0  0  0  0  0  0  0  0  0  0  0  0
  -19.7049    3.0340   -2.6774 O   0  0  0  0  0  0  0  0  0  0  0  0
  -19.9688    3.9363   -5.1414 O   0  0  0  0  0  0  0  0  0  0  0  0
  -17.9619    5.5897   -4.4372 O   0  0  0  0  0  0  0  0  0  0  0  0
  -18.1831    7.5119   -2.6206 O   0  0  0  0  0  0  0  0  0  0  0  0
  -22.1235    4.2504   -1.6235 H   0  0  0  0  0  0  0  0  0  0  0  0
  -20.0303    4.9333   -1.9933 H   0  0  0  0  0  0  0  0  0  0  0  0
  -21.2544    5.3244   -4.4325 H   0  0  0  0  0  0  0  0  0  0  0  0
  -19.6107    6.8267   -4.7498 H   0  0  0  0  0  0  0  0  0  0  0  0
  -20.1249    6.8776   -2.2673 H   0  0  0  0  0  0  0  0  0  0  0  0
  -18.8818    5.6595   -1.9546 H   0  0  0  0  0  0  0  0  0  0  0  0
  -23.4071    4.9252   -3.3254 H   0  0  0  0  0  0  0  0  0  0  0  0
  -19.5655    2.7961   -1.7266 H   0  0  0  0  0  0  0  0  0  0  0  0
  -19.6900    3.0894   -4.7110 H   0  0  0  0  0  0  0  0  0  0  0  0
  -17.4322    5.4105   -3.6202 H   0  0  0  0  0  0  0  0  0  0  0  0
  -17.9562    7.7498   -1.6868 H   0  0  0  0  0  0  0  0  0  0  0  0
  1  2  1  0
  1  7  2  0
  1  8  1  0
  2  3  1  0
  2  9  1  0
  3  4  1  0
  3 10  1  0
  4  5  1  0
  4 11  1  0
  5  6  1  0
  5 12  1  0
  6 13  1  0
  2 14  1  1
  3 15  1  1
  4 16  1  6
  5 17  1  6
  6 18  1  0
  6 19  1  0
  9 20  1  0
 10 21  1  0
 11 22  1  0
 12 23  1  0
 13 24  1  0
M  CHG  1   8  -1
M  END
>  <filename_input>  (8) 
7BCP_GCO_docked.sdf

>  <pdb_id>  (8) 
7BCP_GCO

>  <pose_rank>  (8) 
7

>  <num_atoms_heavy>  (8) 
13

>  <num_torsions>  (8) 
5

>  <pose>  (8) 
[-20.411755545166912, 4.24065305332263, -2.757935206178265, -1.517922679840399, -0.38943155349091807, -0.11287921928904285, -2.994965141146012, 4.170108639715441, -0.5467679289814331, -1.8108923176977347, 6.211377128770018]

>  <energy>  (8) 
-462.94296009273626

>  <inter_energy>  (8) 
-494.26458608865244

>  <intra_energy>  (8) 
27.66163796201238

>  <rmsd>  (8) 
1.94485

>  <sdf_rank>  (8) 
0

$$$$

     RDKit          3D

 24 23  0  0  0  0  0  0  0  0999 V2000
  -22.1705    2.3942   -2.9286 C   0  0  0  0  0  0  0  0  0  0  0  0
  -21.5284    3.7519   -2.6846 C   0  0  1  0  0  0  0  0  0  0  0  0
  -21.9988    4.9026   -3.5771 C   0  0  2  0  0  0  0  0  0  0  0  0
  -20.8512    5.9211   -3.5669 C   0  0  1  0  0  0  0  0  0  0  0  0
  -19.5186    5.1808   -3.5218 C   0  0  1  0  0  0  0  0  0  0  0  0
  -18.9134    5.1949   -4.9169 C   0  0  0  0  0  0  0  0  0  0  0  0
  -22.3194    1.5906   -1.9535 O   0  0  0  0  0  0  0  0  0  0  0  0
  -22.5421    2.0820   -4.0817 O   0  0  0  0  0  0  0  0  0  0  0  0
  -21.8400    4.0020   -1.3204 O   0  0  0  0  0  0  0  0  0  0  0  0
  -23.1549    5.4021   -2.9638 O   0  0  0  0  0  0  0  0  0  0  0  0
  -20.9458    6.8202   -4.6650 O   0  0  0  0  0  0  0  0  0  0  0  0
  -18.5752    5.8525   -2.6836 O   0  0  0  0  0  0  0  0  0  0  0  0
  -18.6030    3.8463   -5.2100 O   0  0  0  0  0  0  0  0  0  0  0  0
  -20.4566    3.7117   -2.9289 H   0  0  0  0  0  0  0  0  0  0  0  0
  -22.2316    4.6308   -4.6173 H   0  0  0  0  0  0  0  0  0  0  0  0
  -20.9229    6.5447   -2.6635 H   0  0  0  0  0  0  0  0  0  0  0  0
  -19.7122    4.1665   -3.1426 H   0  0  0  0  0  0  0  0  0  0  0  0
  -19.6369    5.5896   -5.6454 H   0  0  0  0  0  0  0  0  0  0  0  0
  -18.0226    5.8382   -4.9678 H   0  0  0  0  0  0  0  0  0  0  0  0
  -21.2138    3.4994   -0.7414 H   0  0  0  0  0  0  0  0  0  0  0  0
  -23.0521    5.3577   -1.9802 H   0  0  0  0  0  0  0  0  0  0  0  0
  -21.0430    7.7454   -4.3265 H   0  0  0  0  0  0  0  0  0  0  0  0
  -18.8032    5.6901   -1.7340 H   0  0  0  0  0  0  0  0  0  0  0  0
  -18.4872    3.3431   -4.3653 H   0  0  0  0  0  0  0  0  0  0  0  0
  1  2  1  0
  1  7  2  0
  1  8  1  0
  2  3  1  0
  2  9  1  0
  3  4  1  0
  3 10  1  0
  4  5  1  0
  4 11  1  0
  5  6  1  0
  5 12  1  0
  6 13  1  0
  2 14  1  1
  3 15  1  6
  4 16  1  1
  5 17  1  1
  6 18  1  0
  6 19  1  0
  9 20  1  0
 10 21  1  0
 11 22  1  0
 12 23  1  0
 13 24  1  0
M  CHG  1   8  -1
M  END
>  <filename_input>  (9) 
7BCP_GCO_docked.sdf

>  <pdb_id>  (9) 
7BCP_GCO

>  <pose_rank>  (9) 
8

>  <num_atoms_heavy>  (9) 
13

>  <num_torsions>  (9) 
5

>  <pose>  (9) 
[-21.998811037759253, 4.902565973610516, -3.577097514192704, 0.6357381866829591, 2.2648814814551494, 0.03590083292873102, 4.947080649662753, -0.8650662466615173, -15.002445823499926, 0.368404770527559, 13.428022791649617]

>  <energy>  (9) 
-487.76625908174594

>  <inter_energy>  (9) 
-477.53132460318164

>  <intra_energy>  (9) 
1.2421944893262005

>  <rmsd>  (9) 
2.3418

>  <sdf_rank>  (9) 
0

$$$$

     RDKit          3D

 24 23  0  0  0  0  0  0  0  0999 V2000
  -20.9177    2.9330   -4.5569 C   0  0  0  0  0  0  0  0  0  0  0  0
  -20.2223    3.7618   -3.4870 C   0  0  1  0  0  0  0  0  0  0  0  0
  -19.2412    4.8291   -3.9770 C   0  0  2  0  0  0  0  0  0  0  0  0
  -19.9212    6.1728   -3.6830 C   0  0  1  0  0  0  0  0  0  0  0  0
  -18.8895    7.2922   -3.7745 C   0  0  1  0  0  0  0  0  0  0  0  0
  -17.5248    6.6691   -4.0236 C   0  0  0  0  0  0  0  0  0  0  0  0
  -20.2215    2.3749   -5.4639 O   0  0  0  0  0  0  0  0  0  0  0  0
  -22.1627    2.8113   -4.5355 O   0  0  0  0  0  0  0  0  0  0  0  0
  -21.3137    4.3504   -2.7921 O   0  0  0  0  0  0  0  0  0  0  0  0
  -19.0955    4.5995   -5.3512 O   0  0  0  0  0  0  0  0  0  0  0  0
  -21.0414    6.3845   -4.5336 O   0  0  0  0  0  0  0  0  0  0  0  0
  -19.1378    8.1421   -4.8970 O   0  0  0  0  0  0  0  0  0  0  0  0
  -16.6792    7.7413   -4.3928 O   0  0  0  0  0  0  0  0  0  0  0  0
  -19.5627    3.1213   -2.8830 H   0  0  0  0  0  0  0  0  0  0  0  0
  -18.2491    4.8146   -3.5022 H   0  0  0  0  0  0  0  0  0  0  0  0
  -20.3217    6.1643   -2.6585 H   0  0  0  0  0  0  0  0  0  0  0  0
  -18.9390    7.8699   -2.8397 H   0  0  0  0  0  0  0  0  0  0  0  0
  -17.1520    6.1829   -3.1100 H   0  0  0  0  0  0  0  0  0  0  0  0
  -17.5667    5.8959   -4.8049 H   0  0  0  0  0  0  0  0  0  0  0  0
  -21.1655    4.2705   -1.8165 H   0  0  0  0  0  0  0  0  0  0  0  0
  -18.5704    3.7724   -5.4937 H   0  0  0  0  0  0  0  0  0  0  0  0
  -21.8498    6.5372   -3.9828 H   0  0  0  0  0  0  0  0  0  0  0  0
  -19.4008    9.0417   -4.5781 H   0  0  0  0  0  0  0  0  0  0  0  0
  -16.3311    8.1827   -3.5778 H   0  0  0  0  0  0  0  0  0  0  0  0
  1  2  1  0
  1  7  2  0
  1  8  1  0
  2  3  1  0
  2  9  1  0
  3  4  1  0
  3 10  1  0
  4  5  1  0
  4 11  1  0
  5  6  1  0
  5 12  1  0
  6 13  1  0
  2 14  1  1
  3 15  1  1
  4 16  1  1
  5 17  1  1
  6 18  1  0
  6 19  1  0
  9 20  1  0
 10 21  1  0
 11 22  1  0
 12 23  1  0
 13 24  1  0
M  CHG  1   8  -1
M  END
>  <filename_input>  (10) 
7BCP_GCO_docked.sdf

>  <pdb_id>  (10) 
7BCP_GCO

>  <pose_rank>  (10) 
9

>  <num_atoms_heavy>  (10) 
13

>  <num_torsions>  (10) 
5

>  <pose>  (10) 
[-19.24121099956432, 4.829096313293198, -3.9770409439499783, 3.030919350518497, -2.5826051308485467, -4.0657736496069585, 3.3084378096404583, 2.6183172758224273, 6.096588487298024, -7.77576107976965, -0.26631931266198755]

>  <energy>  (10) 
-399.3180756128253

>  <inter_energy>  (10) 
-454.29140023680816

>  <intra_energy>  (10) 
54.19193495825871

>  <rmsd>  (10) 
1.94735

>  <sdf_rank>  (10) 
0

$$$$

     RDKit          3D

 24 23  0  0  0  0  0  0  0  0999 V2000
  -19.3285    3.5126   -5.0601 C   0  0  0  0  0  0  0  0  0  0  0  0
  -19.6537    4.8873   -4.4945 C   0  0  1  0  0  0  0  0  0  0  0  0
  -19.3532    5.1059   -3.0100 C   0  0  2  0  0  0  0  0  0  0  0  0
  -20.5338    5.9253   -2.4721 C   0  0  1  0  0  0  0  0  0  0  0  0
  -21.6538    4.9805   -2.0491 C   0  0  1  0  0  0  0  0  0  0  0  0
  -22.9788    5.5711   -2.5054 C   0  0  0  0  0  0  0  0  0  0  0  0
  -19.0291    3.3999   -6.2915 O   0  0  0  0  0  0  0  0  0  0  0  0
  -19.3610    2.5105   -4.3118 O   0  0  0  0  0  0  0  0  0  0  0  0
  -18.8702    5.7508   -5.3078 O   0  0  0  0  0  0  0  0  0  0  0  0
  -18.1510    5.8240   -2.9742 O   0  0  0  0  0  0  0  0  0  0  0  0
  -20.1252    6.7992   -1.4269 O   0  0  0  0  0  0  0  0  0  0  0  0
  -21.5470    3.7153   -2.7062 O   0  0  0  0  0  0  0  0  0  0  0  0
  -23.7201    5.8001   -1.3225 O   0  0  0  0  0  0  0  0  0  0  0  0
  -20.7396    5.0603   -4.5242 H   0  0  0  0  0  0  0  0  0  0  0  0
  -19.2444    4.1912   -2.4089 H   0  0  0  0  0  0  0  0  0  0  0  0
  -20.9223    6.5753   -3.2699 H   0  0  0  0  0  0  0  0  0  0  0  0
  -21.5884    4.8514   -0.9587 H   0  0  0  0  0  0  0  0  0  0  0  0
  -22.8131    6.5159   -3.0438 H   0  0  0  0  0  0  0  0  0  0  0  0
  -23.5092    4.8973   -3.1944 H   0  0  0  0  0  0  0  0  0  0  0  0
  -18.3296    6.3467   -4.7310 H   0  0  0  0  0  0  0  0  0  0  0  0
  -17.8883    5.9809   -2.0327 H   0  0  0  0  0  0  0  0  0  0  0  0
  -20.3209    6.3806   -0.5513 H   0  0  0  0  0  0  0  0  0  0  0  0
  -21.4862    2.9958   -2.0289 H   0  0  0  0  0  0  0  0  0  0  0  0
  -23.1474    5.6232   -0.5347 H   0  0  0  0  0  0  0  0  0  0  0  0
  1  2  1  0
  1  7  2  0
  1  8  1  0
  2  3  1  0
  2  9  1  0
  3  4  1  0
  3 10  1  0
  4  5  1  0
  4 11  1  0
  5  6  1  0
  5 12  1  0
  6 13  1  0
  2 14  1  1
  3 15  1  1
  4 16  1  6
  5 17  1  1
  6 18  1  0
  6 19  1  0
  9 20  1  0
 10 21  1  0
 11 22  1  0
 12 23  1  0
 13 24  1  0
M  CHG  1   8  -1
M  END
>  <filename_input>  (11) 
7BCP_GCO_docked.sdf

>  <pdb_id>  (11) 
7BCP_GCO

>  <pose_rank>  (11) 
10

>  <num_atoms_heavy>  (11) 
13

>  <num_torsions>  (11) 
5

>  <pose>  (11) 
[-19.353201622663672, 5.105928633800667, -3.0100217459650014, -2.4685322916393826, 4.2998489577969785, -0.749720416591102, 5.237561041797952, -0.9152794621341694, -7.828123012746982, 2.4506718957193545, 1.0342429601617895]

>  <energy>  (11) 
-360.56784539312764

>  <inter_energy>  (11) 
-375.0566629728664

>  <intra_energy>  (11) 
26.081517938923493

>  <rmsd>  (11) 
4.01595

>  <sdf_rank>  (11) 
0

$$$$

     RDKit          3D

 24 23  0  0  0  0  0  0  0  0999 V2000
  -22.0537    2.4431   -3.0488 C   0  0  0  0  0  0  0  0  0  0  0  0
  -21.3971    3.8069   -2.8941 C   0  0  1  0  0  0  0  0  0  0  0  0
  -20.2904    4.1518   -3.8931 C   0  0  2  0  0  0  0  0  0  0  0  0
  -20.0714    5.6639   -3.7522 C   0  0  1  0  0  0  0  0  0  0  0  0
  -18.5762    5.9632   -3.7833 C   0  0  1  0  0  0  0  0  0  0  0  0
  -18.3596    7.3826   -3.2823 C   0  0  0  0  0  0  0  0  0  0  0  0
  -22.9628    2.2844   -3.9246 O   0  0  0  0  0  0  0  0  0  0  0  0
  -21.6959    1.4955   -2.3143 O   0  0  0  0  0  0  0  0  0  0  0  0
  -22.4976    4.6975   -3.0220 O   0  0  0  0  0  0  0  0  0  0  0  0
  -20.8017    3.8063   -5.1507 O   0  0  0  0  0  0  0  0  0  0  0  0
  -20.7993    6.3876   -4.7368 O   0  0  0  0  0  0  0  0  0  0  0  0
  -17.8550    5.1200   -2.8818 O   0  0  0  0  0  0  0  0  0  0  0  0
  -17.8965    8.1140   -4.4011 O   0  0  0  0  0  0  0  0  0  0  0  0
  -20.8519    3.8572   -1.9400 H   0  0  0  0  0  0  0  0  0  0  0  0
  -19.3334    3.6320   -3.7383 H   0  0  0  0  0  0  0  0  0  0  0  0
  -20.4642    6.0021   -2.7819 H   0  0  0  0  0  0  0  0  0  0  0  0
  -18.2256    5.8084   -4.8144 H   0  0  0  0  0  0  0  0  0  0  0  0
  -19.3038    7.8069   -2.9101 H   0  0  0  0  0  0  0  0  0  0  0  0
  -17.6421    7.4153   -2.4491 H   0  0  0  0  0  0  0  0  0  0  0  0
  -22.8184    4.9571   -2.1221 H   0  0  0  0  0  0  0  0  0  0  0  0
  -21.6165    3.2559   -5.0358 H   0  0  0  0  0  0  0  0  0  0  0  0
  -21.4265    7.0110   -4.2916 H   0  0  0  0  0  0  0  0  0  0  0  0
  -18.0711    5.3727   -1.9493 H   0  0  0  0  0  0  0  0  0  0  0  0
  -17.3936    8.9083   -4.0910 H   0  0  0  0  0  0  0  0  0  0  0  0
  1  2  1  0
  1  7  2  0
  1  8  1  0
  2  3  1  0
  2  9  1  0
  3  4  1  0
  3 10  1  0
  4  5  1  0
  4 11  1  0
  5  6  1  0
  5 12  1  0
  6 13  1  0
  2 14  1  1
  3 15  1  1
  4 16  1  1
  5 17  1  6
  6 18  1  0
  6 19  1  0
  9 20  1  0
 10 21  1  0
 11 22  1  0
 12 23  1  0
 13 24  1  0
M  CHG  1   8  -1
M  END
>  <filename_input>  (12) 
7BCP_GCO_docked.sdf

>  <pdb_id>  (12) 
7BCP_GCO

>  <pose_rank>  (12) 
11

>  <num_atoms_heavy>  (12) 
13

>  <num_torsions>  (12) 
5

>  <pose>  (12) 
[-20.290383645974313, 4.151774916229933, -3.8931442784395607, 2.1332152059051492, -5.020795950012458, 0.6370136144532145, 4.286458734507212, 0.32042871683105767, -6.929342706378125, 1.979217033412311, 1.128698690158108]

>  <energy>  (12) 
-516.0523461786678

>  <inter_energy>  (12) 
-529.1496938129412

>  <intra_energy>  (12) 
13.26741492632044

>  <rmsd>  (12) 
1.53083

>  <sdf_rank>  (12) 
0

$$$$

     RDKit          3D

 24 23  0  0  0  0  0  0  0  0999 V2000
  -18.5913    5.9746   -3.7865 C   0  0  0  0  0  0  0  0  0  0  0  0
  -18.9081    4.4924   -3.9204 C   0  0  1  0  0  0  0  0  0  0  0  0
  -20.3850    4.0983   -3.8491 C   0  0  2  0  0  0  0  0  0  0  0  0
  -21.0363    5.1270   -2.9152 C   0  0  1  0  0  0  0  0  0  0  0  0
  -22.5326    5.1942   -3.2021 C   0  0  1  0  0  0  0  0  0  0  0  0
  -22.9635    3.8731   -3.8198 C   0  0  0  0  0  0  0  0  0  0  0  0
  -17.6980    6.3494   -2.9616 O   0  0  0  0  0  0  0  0  0  0  0  0
  -19.2119    6.8070   -4.4845 O   0  0  0  0  0  0  0  0  0  0  0  0
  -18.3530    4.1697   -5.1886 O   0  0  0  0  0  0  0  0  0  0  0  0
  -20.4011    2.8069   -3.3068 O   0  0  0  0  0  0  0  0  0  0  0  0
  -20.7484    4.8448   -1.5511 O   0  0  0  0  0  0  0  0  0  0  0  0
  -23.2910    5.3238   -1.9970 O   0  0  0  0  0  0  0  0  0  0  0  0
  -23.8167    3.2685   -2.8670 O   0  0  0  0  0  0  0  0  0  0  0  0
  -18.4940    3.9393   -3.0644 H   0  0  0  0  0  0  0  0  0  0  0  0
  -20.9207    4.0922   -4.8098 H   0  0  0  0  0  0  0  0  0  0  0  0
  -20.6090    6.1216   -3.1109 H   0  0  0  0  0  0  0  0  0  0  0  0
  -22.7087    6.0587   -3.8591 H   0  0  0  0  0  0  0  0  0  0  0  0
  -23.5030    4.0476   -4.7624 H   0  0  0  0  0  0  0  0  0  0  0  0
  -22.1004    3.2338   -4.0571 H   0  0  0  0  0  0  0  0  0  0  0  0
  -17.5042    3.6762   -5.0614 H   0  0  0  0  0  0  0  0  0  0  0  0
  -20.4004    2.8639   -2.3184 H   0  0  0  0  0  0  0  0  0  0  0  0
  -21.3208    5.4059   -0.9701 H   0  0  0  0  0  0  0  0  0  0  0  0
  -22.6905    5.2212   -1.2166 H   0  0  0  0  0  0  0  0  0  0  0  0
  -23.5028    3.4909   -1.9548 H   0  0  0  0  0  0  0  0  0  0  0  0
  1  2  1  0
  1  7  2  0
  1  8  1  0
  2  3  1  0
  2  9  1  0
  3  4  1  0
  3 10  1  0
  4  5  1  0
  4 11  1  0
  5  6  1  0
  5 12  1  0
  6 13  1  0
  2 14  1  1
  3 15  1  6
  4 16  1  6
  5 17  1  6
  6 18  1  0
  6 19  1  0
  9 20  1  0
 10 21  1  0
 11 22  1  0
 12 23  1  0
 13 24  1  0
M  CHG  1   8  -1
M  END
>  <filename_input>  (13) 
7BCP_GCO_docked.sdf

>  <pdb_id>  (13) 
7BCP_GCO

>  <pose_rank>  (13) 
12

>  <num_atoms_heavy>  (13) 
13

>  <num_torsions>  (13) 
5

>  <pose>  (13) 
[-20.385027782972774, 4.098307729371858, -3.8490749127627852, 0.9008777438483968, -2.5152843503613105, -1.603443366561979, 0.8486675799165808, 4.00524530970144, 5.968793748861097, -7.274381480908295, -1.2089984590573981]

>  <energy>  (13) 
-372.8488378091337

>  <inter_energy>  (13) 
-414.81428037340896

>  <intra_energy>  (13) 
34.074753640190686

>  <rmsd>  (13) 
4.43386

>  <sdf_rank>  (13) 
0

$$$$

     RDKit          3D

 24 23  0  0  0  0  0  0  0  0999 V2000
  -21.5962    2.9596   -2.7222 C   0  0  0  0  0  0  0  0  0  0  0  0
  -20.9653    3.1853   -4.0883 C   0  0  1  0  0  0  0  0  0  0  0  0
  -19.6217    3.9175   -4.1100 C   0  0  2  0  0  0  0  0  0  0  0  0
  -19.8983    5.2943   -3.4916 C   0  0  1  0  0  0  0  0  0  0  0  0
  -18.7327    5.6868   -2.5898 C   0  0  1  0  0  0  0  0  0  0  0  0
  -17.4694    5.7437   -3.4343 C   0  0  0  0  0  0  0  0  0  0  0  0
  -21.2947    1.9153   -2.0610 O   0  0  0  0  0  0  0  0  0  0  0  0
  -22.4039    3.7990   -2.2657 O   0  0  0  0  0  0  0  0  0  0  0  0
  -20.8355    1.8626   -4.5927 O   0  0  0  0  0  0  0  0  0  0  0  0
  -19.2667    4.0065   -5.4621 O   0  0  0  0  0  0  0  0  0  0  0  0
  -20.1729    6.2668   -4.4926 O   0  0  0  0  0  0  0  0  0  0  0  0
  -18.9028    7.0031   -2.0583 O   0  0  0  0  0  0  0  0  0  0  0  0
  -17.5207    6.9845   -4.1117 O   0  0  0  0  0  0  0  0  0  0  0  0
  -21.5920    3.8637   -4.6859 H   0  0  0  0  0  0  0  0  0  0  0  0
  -18.8070    3.4292   -3.5551 H   0  0  0  0  0  0  0  0  0  0  0  0
  -20.8044    5.2414   -2.8702 H   0  0  0  0  0  0  0  0  0  0  0  0
  -18.6776    4.9500   -1.7748 H   0  0  0  0  0  0  0  0  0  0  0  0
  -16.5766    5.6924   -2.7938 H   0  0  0  0  0  0  0  0  0  0  0  0
  -17.4103    4.8987   -4.1362 H   0  0  0  0  0  0  0  0  0  0  0  0
  -20.7730    1.2260   -3.8371 H   0  0  0  0  0  0  0  0  0  0  0  0
  -18.3092    4.2467   -5.5367 H   0  0  0  0  0  0  0  0  0  0  0  0
  -20.4152    7.1246   -4.0617 H   0  0  0  0  0  0  0  0  0  0  0  0
  -18.8976    6.9628   -1.0692 H   0  0  0  0  0  0  0  0  0  0  0  0
  -17.5511    7.7205   -3.4503 H   0  0  0  0  0  0  0  0  0  0  0  0
  1  2  1  0
  1  7  2  0
  1  8  1  0
  2  3  1  0
  2  9  1  0
  3  4  1  0
  3 10  1  0
  4  5  1  0
  4 11  1  0
  5  6  1  0
  5 12  1  0
  6 13  1  0
  2 14  1  6
  3 15  1  1
  4 16  1  1
  5 17  1  1
  6 18  1  0
  6 19  1  0
  9 20  1  0
 10 21  1  0
 11 22  1  0
 12 23  1  0
 13 24  1  0
M  CHG  1   8  -1
M  END
>  <filename_input>  (14) 
7BCP_GCO_docked.sdf

>  <pdb_id>  (14) 
7BCP_GCO

>  <pose_rank>  (14) 
13

>  <num_atoms_heavy>  (14) 
13

>  <num_torsions>  (14) 
5

>  <pose>  (14) 
[-19.6216909114978, 3.9174770495502984, -4.10995206849344, 0.6545489950390367, -4.380210044847379, -4.275372599110315, 0.3350749722465781, 6.479103550435998, 5.669405551713991, -6.652099746680132, -1.8026461807779612]

>  <energy>  (14) 
-455.7323661276998

>  <inter_energy>  (14) 
-478.36197337002454

>  <intra_energy>  (14) 
21.80015841520686

>  <rmsd>  (14) 
0.784126

>  <sdf_rank>  (14) 
0

$$$$

     RDKit          3D

 24 23  0  0  0  0  0  0  0  0999 V2000
  -22.1526    2.3533   -3.3703 C   0  0  0  0  0  0  0  0  0  0  0  0
  -21.4899    3.6676   -2.9846 C   0  0  1  0  0  0  0  0  0  0  0  0
  -20.2637    4.0820   -3.8009 C   0  0  2  0  0  0  0  0  0  0  0  0
  -20.0866    5.5830   -3.5362 C   0  0  1  0  0  0  0  0  0  0  0  0
  -18.5994    5.9085   -3.4457 C   0  0  1  0  0  0  0  0  0  0  0  0
  -18.4470    7.2983   -2.8475 C   0  0  0  0  0  0  0  0  0  0  0  0
  -22.9723    2.3302   -4.3430 O   0  0  0  0  0  0  0  0  0  0  0  0
  -21.8875    1.3131   -2.7278 O   0  0  0  0  0  0  0  0  0  0  0  0
  -22.5474    4.6052   -3.1379 O   0  0  0  0  0  0  0  0  0  0  0  0
  -20.5961    3.8159   -5.1354 O   0  0  0  0  0  0  0  0  0  0  0  0
  -20.7639    6.3654   -4.5121 O   0  0  0  0  0  0  0  0  0  0  0  0
  -17.9242    5.0242   -2.5478 O   0  0  0  0  0  0  0  0  0  0  0  0
  -18.1518    8.1506   -3.9372 O   0  0  0  0  0  0  0  0  0  0  0  0
  -21.0628    3.5924   -1.9737 H   0  0  0  0  0  0  0  0  0  0  0  0
  -19.3291    3.5583   -3.5512 H   0  0  0  0  0  0  0  0  0  0  0  0
  -20.5492    5.8421   -2.5724 H   0  0  0  0  0  0  0  0  0  0  0  0
  -18.1760    5.8222   -4.4573 H   0  0  0  0  0  0  0  0  0  0  0  0
  -19.3813    7.6103   -2.3579 H   0  0  0  0  0  0  0  0  0  0  0  0
  -17.6576    7.3278   -2.0819 H   0  0  0  0  0  0  0  0  0  0  0  0
  -22.8682    4.8896   -2.2456 H   0  0  0  0  0  0  0  0  0  0  0  0
  -21.3686    3.1975   -5.1660 H   0  0  0  0  0  0  0  0  0  0  0  0
  -21.3402    7.0310   -4.0594 H   0  0  0  0  0  0  0  0  0  0  0  0
  -18.1241    5.2860   -1.6142 H   0  0  0  0  0  0  0  0  0  0  0  0
  -17.8476    9.0289   -3.5962 H   0  0  0  0  0  0  0  0  0  0  0  0
  1  2  1  0
  1  7  2  0
  1  8  1  0
  2  3  1  0
  2  9  1  0
  3  4  1  0
  3 10  1  0
  4  5  1  0
  4 11  1  0
  5  6  1  0
  5 12  1  0
  6 13  1  0
  2 14  1  1
  3 15  1  1
  4 16  1  1
  5 17  1  6
  6 18  1  0
  6 19  1  0
  9 20  1  0
 10 21  1  0
 11 22  1  0
 12 23  1  0
 13 24  1  0
M  CHG  1   8  -1
M  END
>  <filename_input>  (15) 
7BCP_GCO_docked.sdf

>  <pdb_id>  (15) 
7BCP_GCO

>  <pose_rank>  (15) 
14

>  <num_atoms_heavy>  (15) 
13

>  <num_torsions>  (15) 
5

>  <pose>  (15) 
[-20.263654924333817, 4.082035573783256, -3.8009408248049996, 2.118024945490224, -5.18265468033231, 0.6978667596310971, 4.222297943644529, 0.2972007070860598, -6.858840385527472, 1.9655793409769622, 1.3038323983165192]

>  <energy>  (15) 
-498.5756919329185

>  <inter_energy>  (15) 
-512.9545597127271

>  <intra_energy>  (15) 
16.971729820747075

>  <rmsd>  (15) 
1.5579

>  <sdf_rank>  (15) 
0

$$$$

     RDKit          3D

 24 23  0  0  0  0  0  0  0  0999 V2000
  -21.4527    2.6274   -4.3771 C   0  0  0  0  0  0  0  0  0  0  0  0
  -20.9015    3.4361   -3.2121 C   0  0  1  0  0  0  0  0  0  0  0  0
  -20.6817    4.9303   -3.4585 C   0  0  2  0  0  0  0  0  0  0  0  0
  -20.0233    5.4615   -2.1784 C   0  0  1  0  0  0  0  0  0  0  0  0
  -18.6804    6.0953   -2.5262 C   0  0  1  0  0  0  0  0  0  0  0  0
  -18.8111    6.7905   -3.8723 C   0  0  0  0  0  0  0  0  0  0  0  0
  -22.6029    2.0930   -4.2764 O   0  0  0  0  0  0  0  0  0  0  0  0
  -20.7707    2.4945   -5.4176 O   0  0  0  0  0  0  0  0  0  0  0  0
  -21.8746    3.2224   -2.1980 O   0  0  0  0  0  0  0  0  0  0  0  0
  -21.9598    5.4678   -3.6582 O   0  0  0  0  0  0  0  0  0  0  0  0
  -20.8878    6.3494   -1.4803 O   0  0  0  0  0  0  0  0  0  0  0  0
  -18.3285    7.1202   -1.5936 O   0  0  0  0  0  0  0  0  0  0  0  0
  -17.4943    7.1499   -4.2439 O   0  0  0  0  0  0  0  0  0  0  0  0
  -19.8812    3.1032   -2.9709 H   0  0  0  0  0  0  0  0  0  0  0  0
  -20.0471    5.1799   -4.3217 H   0  0  0  0  0  0  0  0  0  0  0  0
  -19.8346    4.6252   -1.4893 H   0  0  0  0  0  0  0  0  0  0  0  0
  -17.9228    5.2977   -2.5211 H   0  0  0  0  0  0  0  0  0  0  0  0
  -19.2474    6.1079   -4.6164 H   0  0  0  0  0  0  0  0  0  0  0  0
  -19.4719    7.6681   -3.8150 H   0  0  0  0  0  0  0  0  0  0  0  0
  -21.4502    3.3156   -1.3085 H   0  0  0  0  0  0  0  0  0  0  0  0
  -22.3835    5.6460   -2.7814 H   0  0  0  0  0  0  0  0  0  0  0  0
  -20.7688    6.2272   -0.5051 H   0  0  0  0  0  0  0  0  0  0  0  0
  -18.4450    6.7809   -0.6709 H   0  0  0  0  0  0  0  0  0  0  0  0
  -16.9507    7.2983   -3.4299 H   0  0  0  0  0  0  0  0  0  0  0  0
  1  2  1  0
  1  7  2  0
  1  8  1  0
  2  3  1  0
  2  9  1  0
  3  4  1  0
  3 10  1  0
  4  5  1  0
  4 11  1  0
  5  6  1  0
  5 12  1  0
  6 13  1  0
  2 14  1  1
  3 15  1  6
  4 16  1  1
  5 17  1  6
  6 18  1  0
  6 19  1  0
  9 20  1  0
 10 21  1  0
 11 22  1  0
 12 23  1  0
 13 24  1  0
M  CHG  1   8  -1
M  END
>  <filename_input>  (16) 
7BCP_GCO_docked.sdf

>  <pdb_id>  (16) 
7BCP_GCO

>  <pose_rank>  (16) 
15

>  <num_atoms_heavy>  (16) 
13

>  <num_torsions>  (16) 
5

>  <pose>  (16) 
[-20.681697765385277, 4.930320481413905, -3.4585295527289937, 0.8259697106419356, 1.3938597725922868, 0.7212661556930238, 4.6145418830217775, -0.28114563229665135, -13.497374324349686, -0.7871081903980104, 12.694843841766339]

>  <energy>  (16) 
-463.4060614069741

>  <inter_energy>  (16) 
-454.88926977914315

>  <intra_energy>  (16) 
1.0082004586358495

>  <rmsd>  (16) 
2.02384

>  <sdf_rank>  (16) 
0

$$$$

     RDKit          3D

 24 23  0  0  0  0  0  0  0  0999 V2000
  -18.4405    7.2427   -3.5809 C   0  0  0  0  0  0  0  0  0  0  0  0
  -19.2130    5.9760   -3.2433 C   0  0  1  0  0  0  0  0  0  0  0  0
  -20.3462    5.5902   -4.1966 C   0  0  2  0  0  0  0  0  0  0  0  0
  -21.4291    4.9627   -3.3089 C   0  0  1  0  0  0  0  0  0  0  0  0
  -21.1926    3.4594   -3.2093 C   0  0  1  0  0  0  0  0  0  0  0  0
  -22.1051    2.8997   -2.1291 C   0  0  0  0  0  0  0  0  0  0  0  0
  -18.2128    7.5282   -4.7996 O   0  0  0  0  0  0  0  0  0  0  0  0
  -18.0363    7.9867   -2.6598 O   0  0  0  0  0  0  0  0  0  0  0  0
  -18.1941    4.9848   -3.2319 O   0  0  0  0  0  0  0  0  0  0  0  0
  -19.7873    4.6625   -5.0849 O   0  0  0  0  0  0  0  0  0  0  0  0
  -21.4893    5.5970   -2.0372 O   0  0  0  0  0  0  0  0  0  0  0  0
  -21.5656    2.7901   -4.4163 O   0  0  0  0  0  0  0  0  0  0  0  0
  -22.3575    1.5587   -2.5022 O   0  0  0  0  0  0  0  0  0  0  0  0
  -19.7597    6.1082   -2.2980 H   0  0  0  0  0  0  0  0  0  0  0  0
  -20.7853    6.4194   -4.7709 H   0  0  0  0  0  0  0  0  0  0  0  0
  -22.4161    5.1206   -3.7682 H   0  0  0  0  0  0  0  0  0  0  0  0
  -20.1243    3.3020   -2.9998 H   0  0  0  0  0  0  0  0  0  0  0  0
  -21.6082    2.9385   -1.1485 H   0  0  0  0  0  0  0  0  0  0  0  0
  -23.0355    3.4800   -2.0411 H   0  0  0  0  0  0  0  0  0  0  0  0
  -17.9630    4.7599   -2.2959 H   0  0  0  0  0  0  0  0  0  0  0  0
  -19.3502    3.9369   -4.5725 H   0  0  0  0  0  0  0  0  0  0  0  0
  -21.4244    4.9134   -1.3241 H   0  0  0  0  0  0  0  0  0  0  0  0
  -22.0354    1.9473   -4.1947 H   0  0  0  0  0  0  0  0  0  0  0  0
  -22.4619    1.0040   -1.6889 H   0  0  0  0  0  0  0  0  0  0  0  0
  1  2  1  0
  1  7  2  0
  1  8  1  0
  2  3  1  0
  2  9  1  0
  3  4  1  0
  3 10  1  0
  4  5  1  0
  4 11  1  0
  5  6  1  0
  5 12  1  0
  6 13  1  0
  2 14  1  1
  3 15  1  6
  4 16  1  6
  5 17  1  1
  6 18  1  0
  6 19  1  0
  9 20  1  0
 10 21  1  0
 11 22  1  0
 12 23  1  0
 13 24  1  0
M  CHG  1   8  -1
M  END
>  <filename_input>  (17) 
7BCP_GCO_docked.sdf

>  <pdb_id>  (17) 
7BCP_GCO

>  <pose_rank>  (17) 
16

>  <num_atoms_heavy>  (17) 
13

>  <num_torsions>  (17) 
5

>  <pose>  (17) 
[-20.346233438718006, 5.590238086398313, -4.196639619136841, -1.3130164333335563, 0.8789143234438144, 2.299471994055874, 5.142345768498775, 1.0956504378281644, -10.9185427514785, 1.5387678988767006, 12.02771230899208]

>  <energy>  (17) 
-427.06083503058875

>  <inter_energy>  (17) 
-445.756702195374

>  <intra_energy>  (17) 
18.181572343806852

>  <rmsd>  (17) 
4.87576

>  <sdf_rank>  (17) 
0

$$$$

     RDKit          3D

 24 23  0  0  0  0  0  0  0  0999 V2000
  -21.2207    2.7479   -4.3528 C   0  0  0  0  0  0  0  0  0  0  0  0
  -21.3008    3.4266   -2.9933 C   0  0  1  0  0  0  0  0  0  0  0  0
  -21.2459    4.9560   -2.9868 C   0  0  2  0  0  0  0  0  0  0  0  0
  -19.7544    5.3095   -2.9162 C   0  0  1  0  0  0  0  0  0  0  0  0
  -19.3036    5.8707   -4.2607 C   0  0  1  0  0  0  0  0  0  0  0  0
  -18.4262    7.0861   -4.0045 C   0  0  0  0  0  0  0  0  0  0  0  0
  -22.2396    2.7560   -5.1147 O   0  0  0  0  0  0  0  0  0  0  0  0
  -20.1585    2.1887   -4.7052 O   0  0  0  0  0  0  0  0  0  0  0  0
  -22.5423    2.9570   -2.4845 O   0  0  0  0  0  0  0  0  0  0  0  0
  -21.9379    5.3495   -1.8343 O   0  0  0  0  0  0  0  0  0  0  0  0
  -19.4804    6.1884   -1.8319 O   0  0  0  0  0  0  0  0  0  0  0  0
  -18.4792    4.9397   -4.9662 O   0  0  0  0  0  0  0  0  0  0  0  0
  -19.0865    8.1698   -4.6296 O   0  0  0  0  0  0  0  0  0  0  0  0
  -20.4141    3.1748   -2.3931 H   0  0  0  0  0  0  0  0  0  0  0  0
  -21.6933    5.4499   -3.8620 H   0  0  0  0  0  0  0  0  0  0  0  0
  -19.1710    4.3985   -2.7167 H   0  0  0  0  0  0  0  0  0  0  0  0
  -20.2058    6.1019   -4.8460 H   0  0  0  0  0  0  0  0  0  0  0  0
  -18.3278    7.2678   -2.9241 H   0  0  0  0  0  0  0  0  0  0  0  0
  -17.4097    6.9453   -4.4007 H   0  0  0  0  0  0  0  0  0  0  0  0
  -22.5180    2.9662   -1.4949 H   0  0  0  0  0  0  0  0  0  0  0  0
  -21.4334    5.0626   -1.0323 H   0  0  0  0  0  0  0  0  0  0  0  0
  -19.6286    5.7130   -0.9762 H   0  0  0  0  0  0  0  0  0  0  0  0
  -17.9836    4.3800   -4.3172 H   0  0  0  0  0  0  0  0  0  0  0  0
  -19.4551    8.7748   -3.9381 H   0  0  0  0  0  0  0  0  0  0  0  0
  1  2  1  0
  1  7  2  0
  1  8  1  0
  2  3  1  0
  2  9  1  0
  3  4  1  0
  3 10  1  0
  4  5  1  0
  4 11  1  0
  5  6  1  0
  5 12  1  0
  6 13  1  0
  2 14  1  1
  3 15  1  6
  4 16  1  1
  5 17  1  6
  6 18  1  0
  6 19  1  0
  9 20  1  0
 10 21  1  0
 11 22  1  0
 12 23  1  0
 13 24  1  0
M  CHG  1   8  -1
M  END
>  <filename_input>  (18) 
7BCP_GCO_docked.sdf

>  <pdb_id>  (18) 
7BCP_GCO

>  <pose_rank>  (18) 
17

>  <num_atoms_heavy>  (18) 
13

>  <num_torsions>  (18) 
5

>  <pose>  (18) 
[-21.24586005373249, 4.955957426448201, -2.9868406308856836, 1.538157759681068, 2.2983983424948904, 0.4314530400785217, 6.136655196612147, 0.41290369861296994, -13.73397942712242, 0.9605106706642925, 13.579362570539178]

>  <energy>  (18) 
-468.6101658058375

>  <inter_energy>  (18) 
-471.0913171470546

>  <intra_energy>  (18) 
1.4147101746533275

>  <rmsd>  (18) 
2.5065

>  <sdf_rank>  (18) 
0

$$$$

     RDKit          3D

 24 23  0  0  0  0  0  0  0  0999 V2000
  -19.2851    3.4880   -5.4624 C   0  0  0  0  0  0  0  0  0  0  0  0
  -19.5641    4.7930   -4.7314 C   0  0  1  0  0  0  0  0  0  0  0  0
  -19.2068    4.8350   -3.2440 C   0  0  2  0  0  0  0  0  0  0  0  0
  -20.2361    5.7763   -2.6045 C   0  0  1  0  0  0  0  0  0  0  0  0
  -21.5152    5.0004   -2.3081 C   0  0  1  0  0  0  0  0  0  0  0  0
  -22.3406    5.7973   -1.3100 C   0  0  0  0  0  0  0  0  0  0  0  0
  -18.3890    3.4582   -6.3650 O   0  0  0  0  0  0  0  0  0  0  0  0
  -19.9390    2.4619   -5.1712 O   0  0  0  0  0  0  0  0  0  0  0  0
  -18.7942    5.7329   -5.4693 O   0  0  0  0  0  0  0  0  0  0  0  0
  -17.9073    5.3548   -3.1867 O   0  0  0  0  0  0  0  0  0  0  0  0
  -19.7040    6.4225   -1.4545 O   0  0  0  0  0  0  0  0  0  0  0  0
  -22.3329    4.8748   -3.4741 O   0  0  0  0  0  0  0  0  0  0  0  0
  -22.9414    4.8378   -0.4617 O   0  0  0  0  0  0  0  0  0  0  0  0
  -20.6470    4.9840   -4.7003 H   0  0  0  0  0  0  0  0  0  0  0  0
  -19.2306    3.8662   -2.7234 H   0  0  0  0  0  0  0  0  0  0  0  0
  -20.4847    6.5817   -3.3112 H   0  0  0  0  0  0  0  0  0  0  0  0
  -21.2250    4.0066   -1.9363 H   0  0  0  0  0  0  0  0  0  0  0  0
  -21.6945    6.4722   -0.7294 H   0  0  0  0  0  0  0  0  0  0  0  0
  -23.0920    6.4246   -1.8118 H   0  0  0  0  0  0  0  0  0  0  0  0
  -18.3084    6.3259   -4.8429 H   0  0  0  0  0  0  0  0  0  0  0  0
  -17.6367    5.4630   -2.2406 H   0  0  0  0  0  0  0  0  0  0  0  0
  -20.0603    5.9898   -0.6384 H   0  0  0  0  0  0  0  0  0  0  0  0
  -23.2741    4.7304   -3.2031 H   0  0  0  0  0  0  0  0  0  0  0  0
  -22.7845    5.0883    0.4831 H   0  0  0  0  0  0  0  0  0  0  0  0
  1  2  1  0
  1  7  2  0
  1  8  1  0
  2  3  1  0
  2  9  1  0
  3  4  1  0
  3 10  1  0
  4  5  1  0
  4 11  1  0
  5  6  1  0
  5 12  1  0
  6 13  1  0
  2 14  1  1
  3 15  1  1
  4 16  1  6
  5 17  1  1
  6 18  1  0
  6 19  1  0
  9 20  1  0
 10 21  1  0
 11 22  1  0
 12 23  1  0
 13 24  1  0
M  CHG  1   8  -1
M  END
>  <filename_input>  (19) 
7BCP_GCO_docked.sdf

>  <pdb_id>  (19) 
7BCP_GCO

>  <pose_rank>  (19) 
18

>  <num_atoms_heavy>  (19) 
13

>  <num_torsions>  (19) 
5

>  <pose>  (19) 
[-19.206844126146766, 4.834986862608942, -3.2439722599558896, -2.4050371352379387, 4.390880072628888, -0.00816878190935763, 5.095401314018963, -0.24322549463326001, -7.891289951750339, 1.4190246973234075, 0.595436218504439]

>  <energy>  (19) 
-377.15667174245016

>  <inter_energy>  (19) 
-377.50013267838733

>  <intra_energy>  (19) 
9.340190652798668

>  <rmsd>  (19) 
4.06223

>  <sdf_rank>  (19) 
0

$$$$

     RDKit          3D

 24 23  0  0  0  0  0  0  0  0999 V2000
  -18.8336    7.1957   -4.9262 C   0  0  0  0  0  0  0  0  0  0  0  0
  -19.1068    7.0918   -3.4329 C   0  0  1  0  0  0  0  0  0  0  0  0
  -19.4965    5.7103   -2.9023 C   0  0  2  0  0  0  0  0  0  0  0  0
  -21.0006    5.7955   -2.6112 C   0  0  1  0  0  0  0  0  0  0  0  0
  -21.7362    4.7485   -3.4411 C   0  0  1  0  0  0  0  0  0  0  0  0
  -21.1260    3.3869   -3.1476 C   0  0  0  0  0  0  0  0  0  0  0  0
  -18.1497    6.2889   -5.4995 O   0  0  0  0  0  0  0  0  0  0  0  0
  -19.2805    8.1694   -5.5722 O   0  0  0  0  0  0  0  0  0  0  0  0
  -17.8819    7.5324   -2.8619 O   0  0  0  0  0  0  0  0  0  0  0  0
  -18.7414    5.5317   -1.7361 O   0  0  0  0  0  0  0  0  0  0  0  0
  -21.2668    5.6820   -1.2186 O   0  0  0  0  0  0  0  0  0  0  0  0
  -23.1099    4.6480   -3.0579 O   0  0  0  0  0  0  0  0  0  0  0  0
  -20.2869    3.1010   -4.2500 O   0  0  0  0  0  0  0  0  0  0  0  0
  -19.9954    7.6843   -3.1698 H   0  0  0  0  0  0  0  0  0  0  0  0
  -19.3077    4.8696   -3.5859 H   0  0  0  0  0  0  0  0  0  0  0  0
  -21.3755    6.7865   -2.9069 H   0  0  0  0  0  0  0  0  0  0  0  0
  -21.6550    5.0421   -4.4981 H   0  0  0  0  0  0  0  0  0  0  0  0
  -20.5397    3.4212   -2.2175 H   0  0  0  0  0  0  0  0  0  0  0  0
  -21.8981    2.6151   -3.0125 H   0  0  0  0  0  0  0  0  0  0  0  0
  -17.9504    7.5078   -1.8745 H   0  0  0  0  0  0  0  0  0  0  0  0
  -19.3197    5.6685   -0.9443 H   0  0  0  0  0  0  0  0  0  0  0  0
  -20.4880    6.0142   -0.7056 H   0  0  0  0  0  0  0  0  0  0  0  0
  -23.1775    4.6430   -2.0702 H   0  0  0  0  0  0  0  0  0  0  0  0
  -19.4027    2.7997   -3.9224 H   0  0  0  0  0  0  0  0  0  0  0  0
  1  2  1  0
  1  7  2  0
  1  8  1  0
  2  3  1  0
  2  9  1  0
  3  4  1  0
  3 10  1  0
  4  5  1  0
  4 11  1  0
  5  6  1  0
  5 12  1  0
  6 13  1  0
  2 14  1  1
  3 15  1  6
  4 16  1  6
  5 17  1  6
  6 18  1  0
  6 19  1  0
  9 20  1  0
 10 21  1  0
 11 22  1  0
 12 23  1  0
 13 24  1  0
M  CHG  1   8  -1
M  END
>  <filename_input>  (20) 
7BCP_GCO_docked.sdf

>  <pdb_id>  (20) 
7BCP_GCO

>  <pose_rank>  (20) 
19

>  <num_atoms_heavy>  (20) 
13

>  <num_torsions>  (20) 
5

>  <pose>  (20) 
[-19.496501160519777, 5.710349278444292, -2.9022648280244514, 38.03999967094256, -35.80058753122966, -7.766429439509705, 5.824861341787639, 0.9802640433291049, -13.516848786720079, -0.4567815735067723, 13.880924035149965]

>  <energy>  (20) 
-393.2166564424887

>  <inter_energy>  (20) 
-386.4192058759725

>  <intra_energy>  (20) 
9.636862614855463

>  <rmsd>  (20) 
4.80142

>  <sdf_rank>  (20) 
0

$$$$

     RDKit          3D

 24 23  0  0  0  0  0  0  0  0999 V2000
  -21.4570    2.6788   -3.6611 C   0  0  0  0  0  0  0  0  0  0  0  0
  -20.5689    3.7551   -3.0543 C   0  0  1  0  0  0  0  0  0  0  0  0
  -19.7852    4.6300   -4.0352 C   0  0  2  0  0  0  0  0  0  0  0  0
  -20.1748    6.0743   -3.6932 C   0  0  1  0  0  0  0  0  0  0  0  0
  -18.9559    6.8110   -3.1479 C   0  0  1  0  0  0  0  0  0  0  0  0
  -18.5335    6.1449   -1.8476 C   0  0  0  0  0  0  0  0  0  0  0  0
  -21.8945    2.8267   -4.8466 O   0  0  0  0  0  0  0  0  0  0  0  0
  -21.7489    1.6642   -2.9898 O   0  0  0  0  0  0  0  0  0  0  0  0
  -21.4918    4.5309   -2.3012 O   0  0  0  0  0  0  0  0  0  0  0  0
  -20.2270    4.2505   -5.3091 O   0  0  0  0  0  0  0  0  0  0  0  0
  -20.7624    6.7312   -4.8096 O   0  0  0  0  0  0  0  0  0  0  0  0
  -17.8349    6.6900   -4.0269 O   0  0  0  0  0  0  0  0  0  0  0  0
  -18.9730    7.0094   -0.8177 O   0  0  0  0  0  0  0  0  0  0  0  0
  -19.7545    3.2916   -2.4781 H   0  0  0  0  0  0  0  0  0  0  0  0
  -18.6907    4.5303   -3.9890 H   0  0  0  0  0  0  0  0  0  0  0  0
  -20.9465    6.0697   -2.9093 H   0  0  0  0  0  0  0  0  0  0  0  0
  -19.2320    7.8686   -3.0243 H   0  0  0  0  0  0  0  0  0  0  0  0
  -19.0091    5.1579   -1.7496 H   0  0  0  0  0  0  0  0  0  0  0  0
  -17.4462    5.9832   -1.8073 H   0  0  0  0  0  0  0  0  0  0  0  0
  -21.3276    4.3928   -1.3348 H   0  0  0  0  0  0  0  0  0  0  0  0
  -20.9749    3.6079   -5.2212 H   0  0  0  0  0  0  0  0  0  0  0  0
  -21.3872    7.4297   -4.4901 H   0  0  0  0  0  0  0  0  0  0  0  0
  -17.0056    6.6004   -3.4937 H   0  0  0  0  0  0  0  0  0  0  0  0
  -18.7676    6.6053    0.0624 H   0  0  0  0  0  0  0  0  0  0  0  0
  1  2  1  0
  1  7  2  0
  1  8  1  0
  2  3  1  0
  2  9  1  0
  3  4  1  0
  3 10  1  0
  4  5  1  0
  4 11  1  0
  5  6  1  0
  5 12  1  0
  6 13  1  0
  2 14  1  1
  3 15  1  6
  4 16  1  1
  5 17  1  1
  6 18  1  0
  6 19  1  0
  9 20  1  0
 10 21  1  0
 11 22  1  0
 12 23  1  0
 13 24  1  0
M  CHG  1   8  -1
M  END
>  <filename_input>  (21) 
7BCP_GCO_docked.sdf

>  <pdb_id>  (21) 
7BCP_GCO

>  <pose_rank>  (21) 
20

>  <num_atoms_heavy>  (21) 
13

>  <num_torsions>  (21) 
5

>  <pose>  (21) 
[-19.78522972129523, 4.630044444776828, -4.035169352648553, -7.557135219984589, 16.25843507711115, 8.197035967907802, 3.566097319806281, 1.297021272334697, -7.354498338290874, 3.752303757050759, 1.280254449881836]

>  <energy>  (21) 
-457.89466583418147

>  <inter_energy>  (21) 
-501.3102419670398

>  <intra_energy>  (21) 
47.448373881210195

>  <rmsd>  (21) 
2.04248

>  <sdf_rank>  (21) 
0

$$$$

     RDKit          3D

 24 23  0  0  0  0  0  0  0  0999 V2000
  -14.3740    0.0554  -12.0527 C   0  0  0  0  0  0  0  0  0  0  0  0
  -14.3325   -0.1918  -10.5519 C   0  0  1  0  0  0  0  0  0  0  0  0
  -13.2270    0.5217   -9.7704 C   0  0  2  0  0  0  0  0  0  0  0  0
  -12.4059   -0.5961   -9.1143 C   0  0  1  0  0  0  0  0  0  0  0  0
  -11.0704   -0.7337   -9.8378 C   0  0  1  0  0  0  0  0  0  0  0  0
  -11.1379   -1.9531  -10.7439 C   0  0  0  0  0  0  0  0  0  0  0  0
  -14.5296    1.2418  -12.4852 O   0  0  0  0  0  0  0  0  0  0  0  0
  -14.2575   -0.9072  -12.8433 O   0  0  0  0  0  0  0  0  0  0  0  0
  -15.6189    0.2419  -10.1302 O   0  0  0  0  0  0  0  0  0  0  0  0
  -13.8903    1.3151   -8.8255 O   0  0  0  0  0  0  0  0  0  0  0  0
  -12.2560   -0.3779   -7.7167 O   0  0  0  0  0  0  0  0  0  0  0  0
  -10.8271    0.3784  -10.7027 O   0  0  0  0  0  0  0  0  0  0  0  0
  -11.3577   -3.0542   -9.8834 O   0  0  0  0  0  0  0  0  0  0  0  0
  -14.0954   -1.2467  -10.3497 H   0  0  0  0  0  0  0  0  0  0  0  0
  -12.5583    1.1577  -10.3690 H   0  0  0  0  0  0  0  0  0  0  0  0
  -12.9435   -1.5509   -9.2113 H   0  0  0  0  0  0  0  0  0  0  0  0
  -10.2818   -0.8033   -9.0740 H   0  0  0  0  0  0  0  0  0  0  0  0
  -11.9668   -1.8539  -11.4602 H   0  0  0  0  0  0  0  0  0  0  0  0
  -10.2169   -2.0742  -11.3331 H   0  0  0  0  0  0  0  0  0  0  0  0
  -15.6551    0.2541   -9.1409 H   0  0  0  0  0  0  0  0  0  0  0  0
  -13.6427    1.0190   -7.9139 H   0  0  0  0  0  0  0  0  0  0  0  0
  -12.7403   -1.0833   -7.2188 H   0  0  0  0  0  0  0  0  0  0  0  0
  -10.6502    1.1867  -10.1591 H   0  0  0  0  0  0  0  0  0  0  0  0
  -11.2978   -2.7542   -8.9418 H   0  0  0  0  0  0  0  0  0  0  0  0
  1  2  1  0
  1  7  2  0
  1  8  1  0
  2  3  1  0
  2  9  1  0
  3  4  1  0
  3 10  1  0
  4  5  1  0
  4 11  1  0
  5  6  1  0
  5 12  1  0
  6 13  1  0
  2 14  1  6
  3 15  1  6
  4 16  1  1
  5 17  1  1
  6 18  1  0
  6 19  1  0
  9 20  1  0
 10 21  1  0
 11 22  1  0
 12 23  1  0
 13 24  1  0
M  CHG  1   8  -1
M  END
>  <filename_input>  (22) 
7BCP_GCO_docked.sdf

>  <pdb_id>  (22) 
7BCP_GCO

>  <pose_rank>  (22) 
21

>  <num_atoms_heavy>  (22) 
13

>  <num_torsions>  (22) 
5

>  <pose>  (22) 
[-13.227049547219746, 0.5216959973609434, -9.770386748151653, 2.133625445219259, 0.890400116139095, 0.7978740797571842, -0.7068062968351032, 0.6880291850320335, -1.1980035350659095, 3.0664405918575643, 2.0275799562046792]

>  <energy>  (22) 
-105.1235667399682

>  <inter_energy>  (22) 
-100.14352644920966

>  <intra_energy>  (22) 
0.7095187812026151

>  <rmsd>  (22) 
11.632

>  <sdf_rank>  (22) 
0

$$$$

     RDKit          3D

 24 23  0  0  0  0  0  0  0  0999 V2000
  -13.8377    0.0131    2.2696 C   0  0  0  0  0  0  0  0  0  0  0  0
  -12.8602    0.4966    1.2084 C   0  0  1  0  0  0  0  0  0  0  0  0
  -12.1400    1.8169    1.4909 C   0  0  2  0  0  0  0  0  0  0  0  0
  -12.8657    2.8669    0.6393 C   0  0  1  0  0  0  0  0  0  0  0  0
  -13.1625    4.0943    1.4945 C   0  0  1  0  0  0  0  0  0  0  0  0
  -14.6591    4.1454    1.7591 C   0  0  0  0  0  0  0  0  0  0  0  0
  -14.6834    0.8294    2.7566 O   0  0  0  0  0  0  0  0  0  0  0  0
  -13.7984   -1.1772    2.6529 O   0  0  0  0  0  0  0  0  0  0  0  0
  -11.9376   -0.5813    1.1221 O   0  0  0  0  0  0  0  0  0  0  0  0
  -10.8181    1.6181    1.0724 O   0  0  0  0  0  0  0  0  0  0  0  0
  -12.1300    3.1793   -0.5372 O   0  0  0  0  0  0  0  0  0  0  0  0
  -12.5450    3.9976    2.7803 O   0  0  0  0  0  0  0  0  0  0  0  0
  -15.0240    5.5047    1.6158 O   0  0  0  0  0  0  0  0  0  0  0  0
  -13.3995    0.7375    0.2804 H   0  0  0  0  0  0  0  0  0  0  0  0
  -12.1401    2.1413    2.5420 H   0  0  0  0  0  0  0  0  0  0  0  0
  -13.8252    2.4567    0.2912 H   0  0  0  0  0  0  0  0  0  0  0  0
  -12.7863    4.9763    0.9555 H   0  0  0  0  0  0  0  0  0  0  0  0
  -15.1995    3.5238    1.0300 H   0  0  0  0  0  0  0  0  0  0  0  0
  -14.9095    3.7597    2.7583 H   0  0  0  0  0  0  0  0  0  0  0  0
  -11.6865   -0.8746    2.0337 H   0  0  0  0  0  0  0  0  0  0  0  0
  -10.2309    1.5298    1.8646 H   0  0  0  0  0  0  0  0  0  0  0  0
  -11.2486    3.5535   -0.2857 H   0  0  0  0  0  0  0  0  0  0  0  0
  -13.2319    4.1052    3.4852 H   0  0  0  0  0  0  0  0  0  0  0  0
  -15.1337    5.9130    2.5110 H   0  0  0  0  0  0  0  0  0  0  0  0
  1  2  1  0
  1  7  2  0
  1  8  1  0
  2  3  1  0
  2  9  1  0
  3  4  1  0
  3 10  1  0
  4  5  1  0
  4 11  1  0
  5  6  1  0
  5 12  1  0
  6 13  1  0
  2 14  1  6
  3 15  1  1
  4 16  1  6
  5 17  1  6
  6 18  1  0
  6 19  1  0
  9 20  1  0
 10 21  1  0
 11 22  1  0
 12 23  1  0
 13 24  1  0
M  CHG  1   8  -1
M  END
>  <filename_input>  (23) 
7BCP_GCO_docked.sdf

>  <pdb_id>  (23) 
7BCP_GCO

>  <pose_rank>  (23) 
22

>  <num_atoms_heavy>  (23) 
13

>  <num_torsions>  (23) 
5

>  <pose>  (23) 
[-12.140019709299898, 1.8169213877952244, 1.4909452271043981, 3.168274457926277, 3.4892046503762932, -1.922985912798859, -0.3892977814961656, 2.553174100851211, -0.7407006125982614, 2.966164871480764, 0.6839464573038315]

>  <energy>  (23) 
-148.2588796740939

>  <inter_energy>  (23) 
-138.98418448489548

>  <intra_energy>  (23) 
1.19342700629393

>  <rmsd>  (23) 
9.57999

>  <sdf_rank>  (23) 
0

$$$$

     RDKit          3D

 24 23  0  0  0  0  0  0  0  0999 V2000
  -13.4701    0.5335    3.9213 C   0  0  0  0  0  0  0  0  0  0  0  0
  -13.0997    1.4159    2.7384 C   0  0  1  0  0  0  0  0  0  0  0  0
  -13.2016    0.7793    1.3505 C   0  0  2  0  0  0  0  0  0  0  0  0
  -11.9541   -0.1038    1.2150 C   0  0  1  0  0  0  0  0  0  0  0  0
  -12.3805   -1.5574    1.0384 C   0  0  1  0  0  0  0  0  0  0  0  0
  -13.5700   -1.5978    0.0918 C   0  0  0  0  0  0  0  0  0  0  0  0
  -14.5288   -0.1702    3.8670 O   0  0  0  0  0  0  0  0  0  0  0  0
  -12.7340    0.5107    4.9327 O   0  0  0  0  0  0  0  0  0  0  0  0
  -14.0030    2.5056    2.8691 O   0  0  0  0  0  0  0  0  0  0  0  0
  -13.1925    1.8499    0.4471 O   0  0  0  0  0  0  0  0  0  0  0  0
  -11.1061    0.3532    0.1685 O   0  0  0  0  0  0  0  0  0  0  0  0
  -11.3565   -2.3298    0.4069 O   0  0  0  0  0  0  0  0  0  0  0  0
  -13.8018   -2.9688   -0.1686 O   0  0  0  0  0  0  0  0  0  0  0  0
  -12.0315    1.6748    2.7808 H   0  0  0  0  0  0  0  0  0  0  0  0
  -14.0985    0.1673    1.1746 H   0  0  0  0  0  0  0  0  0  0  0  0
  -11.3555   -0.0359    2.1354 H   0  0  0  0  0  0  0  0  0  0  0  0
  -12.6051   -1.9635    2.0357 H   0  0  0  0  0  0  0  0  0  0  0  0
  -14.4526   -1.1420    0.5643 H   0  0  0  0  0  0  0  0  0  0  0  0
  -13.3739   -1.0352   -0.8329 H   0  0  0  0  0  0  0  0  0  0  0  0
  -14.1579    2.6925    3.8289 H   0  0  0  0  0  0  0  0  0  0  0  0
  -13.1852    2.7040    0.9477 H   0  0  0  0  0  0  0  0  0  0  0  0
  -10.3048    0.7851    0.5578 H   0  0  0  0  0  0  0  0  0  0  0  0
  -10.7910   -2.7564    1.0985 H   0  0  0  0  0  0  0  0  0  0  0  0
  -13.8845   -3.4581    0.6881 H   0  0  0  0  0  0  0  0  0  0  0  0
  1  2  1  0
  1  7  2  0
  1  8  1  0
  2  3  1  0
  2  9  1  0
  3  4  1  0
  3 10  1  0
  4  5  1  0
  4 11  1  0
  5  6  1  0
  5 12  1  0
  6 13  1  0
  2 14  1  1
  3 15  1  1
  4 16  1  1
  5 17  1  1
  6 18  1  0
  6 19  1  0
  9 20  1  0
 10 21  1  0
 11 22  1  0
 12 23  1  0
 13 24  1  0
M  CHG  1   8  -1
M  END
>  <filename_input>  (24) 
7BCP_GCO_docked.sdf

>  <pdb_id>  (24) 
7BCP_GCO

>  <pose_rank>  (24) 
23

>  <num_atoms_heavy>  (24) 
13

>  <num_torsions>  (24) 
5

>  <pose>  (24) 
[-13.201597837882435, 0.7793315184729889, 1.3504693788969955, 0.8606164560264598, 1.1523059299893819, -1.81883716443427, 0.040708855676874746, 0.9324941807111096, -0.9931775712835746, -0.6954004107525954, -0.17644445317758878]

>  <energy>  (24) 
-148.1655452283019

>  <inter_energy>  (24) 
-125.79809722570904

>  <intra_energy>  (24) 
0.5585530505375621

>  <rmsd>  (24) 
11.0446

>  <sdf_rank>  (24) 
0

$$$$

     RDKit          3D

 24 23  0  0  0  0  0  0  0  0999 V2000
  -13.9168   -2.7171  -11.5356 C   0  0  0  0  0  0  0  0  0  0  0  0
  -14.5085   -1.6196  -10.6634 C   0  0  1  0  0  0  0  0  0  0  0  0
  -15.1366   -0.4294  -11.3919 C   0  0  2  0  0  0  0  0  0  0  0  0
  -15.3521    0.6405  -10.3133 C   0  0  1  0  0  0  0  0  0  0  0  0
  -14.0013    1.1984   -9.8776 C   0  0  1  0  0  0  0  0  0  0  0  0
  -14.1184    2.7106   -9.7681 C   0  0  0  0  0  0  0  0  0  0  0  0
  -14.5238   -3.8309  -11.6336 O   0  0  0  0  0  0  0  0  0  0  0  0
  -12.8422   -2.5147  -12.1433 O   0  0  0  0  0  0  0  0  0  0  0  0
  -15.4792   -2.3211   -9.8977 O   0  0  0  0  0  0  0  0  0  0  0  0
  -16.3462   -0.9066  -11.9128 O   0  0  0  0  0  0  0  0  0  0  0  0
  -16.2490    1.6513  -10.7572 O   0  0  0  0  0  0  0  0  0  0  0  0
  -13.6438    0.7420   -8.5707 O   0  0  0  0  0  0  0  0  0  0  0  0
  -12.9813    3.2287  -10.4312 O   0  0  0  0  0  0  0  0  0  0  0  0
  -13.7126   -1.1259  -10.0865 H   0  0  0  0  0  0  0  0  0  0  0  0
  -14.5358   -0.0032  -12.2088 H   0  0  0  0  0  0  0  0  0  0  0  0
  -15.8293    0.1832   -9.4340 H   0  0  0  0  0  0  0  0  0  0  0  0
  -13.2518    0.8730  -10.6141 H   0  0  0  0  0  0  0  0  0  0  0  0
  -15.0401    3.0607  -10.2558 H   0  0  0  0  0  0  0  0  0  0  0  0
  -14.1641    3.0407   -8.7198 H   0  0  0  0  0  0  0  0  0  0  0  0
  -15.2970   -2.1895   -8.9335 H   0  0  0  0  0  0  0  0  0  0  0  0
  -16.9541   -1.1463  -11.1691 H   0  0  0  0  0  0  0  0  0  0  0  0
  -16.6504    2.1037   -9.9734 H   0  0  0  0  0  0  0  0  0  0  0  0
  -14.0875    1.3084   -7.8906 H   0  0  0  0  0  0  0  0  0  0  0  0
  -12.3179    3.5310   -9.7614 H   0  0  0  0  0  0  0  0  0  0  0  0
  1  2  1  0
  1  7  2  0
  1  8  1  0
  2  3  1  0
  2  9  1  0
  3  4  1  0
  3 10  1  0
  4  5  1  0
  4 11  1  0
  5  6  1  0
  5 12  1  0
  6 13  1  0
  2 14  1  1
  3 15  1  6
  4 16  1  1
  5 17  1  6
  6 18  1  0
  6 19  1  0
  9 20  1  0
 10 21  1  0
 11 22  1  0
 12 23  1  0
 13 24  1  0
M  CHG  1   8  -1
M  END
>  <filename_input>  (25) 
7BCP_GCO_docked.sdf

>  <pdb_id>  (25) 
7BCP_GCO

>  <pose_rank>  (25) 
24

>  <num_atoms_heavy>  (25) 
13

>  <num_torsions>  (25) 
5

>  <pose>  (25) 
[-15.136609343350361, -0.42941676857326444, -11.391910528594734, -0.00016377320152329762, 1.5209578889603441, 1.0502799774091238, 4.754044493851489, -0.13745248907840818, -1.8278101497823294, -5.319251076315474, 0.7697375377366743]

>  <energy>  (25) 
-146.42636794839612

>  <inter_energy>  (25) 
-147.51150001892586

>  <intra_energy>  (25) 
3.23267319516538

>  <rmsd>  (25) 
10.6293

>  <sdf_rank>  (25) 
0

$$$$

     RDKit          3D

 24 23  0  0  0  0  0  0  0  0999 V2000
  -22.0980    2.7970   -2.8740 C   0  0  0  0  0  0  0  0  0  0  0  0
  -21.5110    3.3930   -4.1450 C   0  0  1  0  0  0  0  0  0  0  0  0
  -20.1120    4.0030   -4.0330 C   0  0  2  0  0  0  0  0  0  0  0  0
  -20.3220    5.3930   -3.4180 C   0  0  1  0  0  0  0  0  0  0  0  0
  -18.9660    6.0400   -3.1560 C   0  0  1  0  0  0  0  0  0  0  0  0
  -18.4610    6.6420   -4.4580 C   0  0  0  0  0  0  0  0  0  0  0  0
  -22.0430    1.5390   -2.6920 O   0  0  0  0  0  0  0  0  0  0  0  0
  -22.6290    3.5470   -2.0250 O   0  0  0  0  0  0  0  0  0  0  0  0
  -21.5170    2.2870   -5.0380 O   0  0  0  0  0  0  0  0  0  0  0  0
  -19.6290    4.0730   -5.3460 O   0  0  0  0  0  0  0  0  0  0  0  0
  -21.1690    6.1970   -4.2300 O   0  0  0  0  0  0  0  0  0  0  0  0
  -19.0760    7.1330   -2.2410 O   0  0  0  0  0  0  0  0  0  0  0  0
  -17.1820    7.1690   -4.1620 O   0  0  0  0  0  0  0  0  0  0  0  0
  -22.1032    4.2642   -4.4617 H   0  0  0  0  0  0  0  0  0  0  0  0
  -19.3972    3.4390   -3.4159 H   0  0  0  0  0  0  0  0  0  0  0  0
  -20.8411    5.2922   -2.4534 H   0  0  0  0  0  0  0  0  0  0  0  0
  -18.2994    5.2659   -2.7481 H   0  0  0  0  0  0  0  0  0  0  0  0
  -18.3868    5.8677   -5.2358 H   0  0  0  0  0  0  0  0  0  0  0  0
  -19.1423    7.4167   -4.8397 H   0  0  0  0  0  0  0  0  0  0  0  0
  -21.5216    1.4439   -4.5191 H   0  0  0  0  0  0  0  0  0  0  0  0
  -18.6494    4.2150   -5.3301 H   0  0  0  0  0  0  0  0  0  0  0  0
  -21.7520    6.7504   -3.6520 H   0  0  0  0  0  0  0  0  0  0  0  0
  -19.0416    6.7909   -1.3126 H   0  0  0  0  0  0  0  0  0  0  0  0
  -17.0642    7.2175   -3.1802 H   0  0  0  0  0  0  0  0  0  0  0  0
  1  2  1  0
  1  7  2  0
  1  8  1  0
  2  3  1  0
  2  9  1  0
  3  4  1  0
  3 10  1  0
  4  5  1  0
  4 11  1  0
  5  6  1  0
  5 12  1  0
  6 13  1  0
  2 14  1  6
  3 15  1  1
  4 16  1  1
  5 17  1  1
  6 18  1  0
  6 19  1  0
  9 20  1  0
 10 21  1  0
 11 22  1  0
 12 23  1  0
 13 24  1  0
M  CHG  1   8  -1
M  END
>  <filename_input>  (26) 
7BCP_GCO_docked.sdf

>  <pdb_id>  (26) 
7BCP_GCO

>  <pose_rank>  (26) 
25

>  <num_atoms_heavy>  (26) 
13

>  <num_torsions>  (26) 
5

>  <pose>  (26) 
[-20.112, 4.003, -4.033, 1e-06, 1e-06, 1e-06, 0.0, 0.0, 0.0, 0.0, 0.0]

>  <energy>  (26) 
-567.6402926755138

>  <inter_energy>  (26) 
-594.8568657849332

>  <intra_energy>  (26) 
15.682392776045045

>  <rmsd>  (26) 
0.0

>  <sdf_rank>  (26) 
0

$$$$
