
     RDKit          3D

 15 16  0  0  0  0  0  0  0  0999 V2000
    4.5580   -3.4599   19.2062 C   0  0  0  0  0  0  0  0  0  0  0  0
    3.5736   -4.3789   19.1868 N   0  0  0  0  0  0  0  0  0  0  0  0
    5.4256   -1.4594   20.0042 C   0  0  0  0  0  0  0  0  0  0  0  0
    4.4446   -2.3829   19.9857 N   0  0  0  0  0  0  0  0  0  0  0  0
    6.6997   -2.6514   18.5058 C   0  0  0  0  0  0  0  0  0  0  0  0
    6.5391   -1.5631   19.2718 N   0  0  0  0  0  0  0  0  0  0  0  0
    5.7386   -3.6397   18.4658 C   0  0  0  0  0  0  0  0  0  0  0  0
    7.3496   -4.2319   17.0706 N   0  0  0  0  0  0  0  0  0  0  0  0
    6.1674   -4.6096   17.5298 C   0  0  0  0  0  0  0  0  0  0  0  0
    7.6710   -3.0197   17.6492 N   0  0  0  0  0  0  0  0  0  0  0  0
    3.6580   -5.2114   18.5862 H   0  0  0  0  0  0  0  0  0  0  0  0
    2.7364   -4.2492   19.7726 H   0  0  0  0  0  0  0  0  0  0  0  0
    5.3045   -0.5789   20.6523 H   0  0  0  0  0  0  0  0  0  0  0  0
    7.9301   -4.7523   16.3974 H   0  0  0  0  0  0  0  0  0  0  0  0
    5.6168   -5.5155   17.2363 H   0  0  0  0  0  0  0  0  0  0  0  0
  1  2  1  0
  1  4  2  0
  1  7  1  0
  3  4  1  0
  3  6  2  0
  5  6  1  0
  5  7  1  0
  5 10  2  0
  7  9  2  0
  8  9  1  0
  8 10  1  0
  2 11  1  0
  2 12  1  0
  3 13  1  0
  8 14  1  0
  9 15  1  0
M  END
>  <filename_input>  (1) 
7BJJ_TVW_docked.sdf

>  <pdb_id>  (1) 
7BJJ_TVW

>  <pose_rank>  (1) 
0

>  <num_atoms_heavy>  (1) 
10

>  <num_torsions>  (1) 
0

>  <pose>  (1) 
[4.558040213336665, -3.459867166236611, 19.206158139317328, 2.014542673861844, -3.0211843129512292, 3.9877817278004812]

>  <energy>  (1) 
-621.1754900842077

>  <inter_energy>  (1) 
-608.8268108261544

>  <intra_energy>  (1) 
0.0

>  <rmsd>  (1) 
1.69556

>  <sdf_rank>  (1) 
0

$$$$

     RDKit          3D

 15 16  0  0  0  0  0  0  0  0999 V2000
    6.8025   -3.8746   17.5856 C   0  0  0  0  0  0  0  0  0  0  0  0
    6.9561   -4.9226   16.7536 N   0  0  0  0  0  0  0  0  0  0  0  0
    7.6044   -1.8933   18.4926 C   0  0  0  0  0  0  0  0  0  0  0  0
    7.7528   -2.9407   17.6581 N   0  0  0  0  0  0  0  0  0  0  0  0
    5.5409   -2.6283   19.1936 C   0  0  0  0  0  0  0  0  0  0  0  0
    6.5297   -1.7264   19.2700 N   0  0  0  0  0  0  0  0  0  0  0  0
    5.6288   -3.7077   18.3397 C   0  0  0  0  0  0  0  0  0  0  0  0
    3.7146   -3.8881   19.4332 N   0  0  0  0  0  0  0  0  0  0  0  0
    4.4720   -4.4977   18.5354 C   0  0  0  0  0  0  0  0  0  0  0  0
    4.3759   -2.7521   19.8570 N   0  0  0  0  0  0  0  0  0  0  0  0
    6.2245   -5.6453   16.6952 H   0  0  0  0  0  0  0  0  0  0  0  0
    7.8051   -5.0014   16.1758 H   0  0  0  0  0  0  0  0  0  0  0  0
    8.4050   -1.1402   18.5361 H   0  0  0  0  0  0  0  0  0  0  0  0
    2.7909   -4.2062   19.7598 H   0  0  0  0  0  0  0  0  0  0  0  0
    4.2429   -5.4483   18.0316 H   0  0  0  0  0  0  0  0  0  0  0  0
  1  2  1  0
  1  4  2  0
  1  7  1  0
  3  4  1  0
  3  6  2  0
  5  6  1  0
  5  7  1  0
  5 10  2  0
  7  9  2  0
  8  9  1  0
  8 10  1  0
  2 11  1  0
  2 12  1  0
  3 13  1  0
  8 14  1  0
  9 15  1  0
M  END
>  <filename_input>  (2) 
7BJJ_TVW_docked.sdf

>  <pdb_id>  (2) 
7BJJ_TVW

>  <pose_rank>  (2) 
1

>  <num_atoms_heavy>  (2) 
10

>  <num_torsions>  (2) 
0

>  <pose>  (2) 
[6.802521594000551, -3.874641261440502, 17.585572878014162, -0.11568997795548298, 2.6669938588839055, 1.798248260692422]

>  <energy>  (2) 
-549.7802569207392

>  <inter_energy>  (2) 
-528.4662488660414

>  <intra_energy>  (2) 
0.0

>  <rmsd>  (2) 
3.05658

>  <sdf_rank>  (2) 
0

$$$$

     RDKit          3D

 15 16  0  0  0  0  0  0  0  0999 V2000
    5.0529   -4.4726   17.9355 C   0  0  0  0  0  0  0  0  0  0  0  0
    5.1368   -5.4518   17.0145 N   0  0  0  0  0  0  0  0  0  0  0  0
    3.8734   -3.3899   19.6172 C   0  0  0  0  0  0  0  0  0  0  0  0
    3.9625   -4.3709   18.6979 N   0  0  0  0  0  0  0  0  0  0  0  0
    5.9647   -2.5875   19.0956 C   0  0  0  0  0  0  0  0  0  0  0  0
    4.8412   -2.4904   19.8204 N   0  0  0  0  0  0  0  0  0  0  0  0
    6.1201   -3.5859   18.1568 C   0  0  0  0  0  0  0  0  0  0  0  0
    7.9441   -2.3361   18.0961 N   0  0  0  0  0  0  0  0  0  0  0  0
    7.3690   -3.3822   17.5250 C   0  0  0  0  0  0  0  0  0  0  0  0
    7.0773   -1.8309   19.0452 N   0  0  0  0  0  0  0  0  0  0  0  0
    5.9771   -5.5331   16.4244 H   0  0  0  0  0  0  0  0  0  0  0  0
    4.3608   -6.1193   16.9003 H   0  0  0  0  0  0  0  0  0  0  0  0
    2.9615   -3.3262   20.2291 H   0  0  0  0  0  0  0  0  0  0  0  0
    8.8774   -1.9628   17.8714 H   0  0  0  0  0  0  0  0  0  0  0  0
    7.7873   -3.9853   16.7057 H   0  0  0  0  0  0  0  0  0  0  0  0
  1  2  1  0
  1  4  2  0
  1  7  1  0
  3  4  1  0
  3  6  2  0
  5  6  1  0
  5  7  1  0
  5 10  2  0
  7  9  2  0
  8  9  1  0
  8 10  1  0
  2 11  1  0
  2 12  1  0
  3 13  1  0
  8 14  1  0
  9 15  1  0
M  END
>  <filename_input>  (3) 
7BJJ_TVW_docked.sdf

>  <pdb_id>  (3) 
7BJJ_TVW

>  <pose_rank>  (3) 
2

>  <num_atoms_heavy>  (3) 
10

>  <num_torsions>  (3) 
0

>  <pose>  (3) 
[5.05289428521319, -4.472594785895421, 17.935496157466115, -5.348530341657195, 0.6727500549021203, -2.684214462116632]

>  <energy>  (3) 
-514.846693348622

>  <inter_energy>  (3) 
-497.92104427888313

>  <intra_energy>  (3) 
0.0

>  <rmsd>  (3) 
0.778584

>  <sdf_rank>  (3) 
0

$$$$

     RDKit          3D

 15 16  0  0  0  0  0  0  0  0999 V2000
    4.4765   -4.3756   18.5434 C   0  0  0  0  0  0  0  0  0  0  0  0
    3.3922   -4.2525   19.3328 N   0  0  0  0  0  0  0  0  0  0  0  0
    5.6330   -5.5072   16.8780 C   0  0  0  0  0  0  0  0  0  0  0  0
    4.5478   -5.3786   17.6661 N   0  0  0  0  0  0  0  0  0  0  0  0
    6.6122   -3.6246   17.7650 C   0  0  0  0  0  0  0  0  0  0  0  0
    6.6692   -4.6636   16.9199 N   0  0  0  0  0  0  0  0  0  0  0  0
    5.5156   -3.4305   18.5787 C   0  0  0  0  0  0  0  0  0  0  0  0
    6.9666   -1.8249   19.0361 N   0  0  0  0  0  0  0  0  0  0  0  0
    5.7832   -2.3016   19.3876 C   0  0  0  0  0  0  0  0  0  0  0  0
    7.4897   -2.6459   18.0564 N   0  0  0  0  0  0  0  0  0  0  0  0
    3.3340   -3.4795   20.0110 H   0  0  0  0  0  0  0  0  0  0  0  0
    2.6212   -4.9314   19.2582 H   0  0  0  0  0  0  0  0  0  0  0  0
    5.6680   -6.3457   16.1669 H   0  0  0  0  0  0  0  0  0  0  0  0
    7.4196   -0.9861   19.4260 H   0  0  0  0  0  0  0  0  0  0  0  0
    5.1255   -1.8931   20.1690 H   0  0  0  0  0  0  0  0  0  0  0  0
  1  2  1  0
  1  4  2  0
  1  7  1  0
  3  4  1  0
  3  6  2  0
  5  6  1  0
  5  7  1  0
  5 10  2  0
  7  9  2  0
  8  9  1  0
  8 10  1  0
  2 11  1  0
  2 12  1  0
  3 13  1  0
  8 14  1  0
  9 15  1  0
M  END
>  <filename_input>  (4) 
7BJJ_TVW_docked.sdf

>  <pdb_id>  (4) 
7BJJ_TVW

>  <pose_rank>  (4) 
3

>  <num_atoms_heavy>  (4) 
10

>  <num_torsions>  (4) 
0

>  <pose>  (4) 
[4.47653941533345, -4.375642936475925, 18.543413650222952, 2.592573669020536, 2.0323561897046503, 0.015606368451798741]

>  <energy>  (4) 
-481.9589591538771

>  <inter_energy>  (4) 
-447.8253658051712

>  <intra_energy>  (4) 
0.0

>  <rmsd>  (4) 
2.66134

>  <sdf_rank>  (4) 
0

$$$$

     RDKit          3D

 15 16  0  0  0  0  0  0  0  0999 V2000
    5.6813   -2.5806   19.4774 C   0  0  0  0  0  0  0  0  0  0  0  0
    6.8082   -1.9032   19.7691 N   0  0  0  0  0  0  0  0  0  0  0  0
    3.4141   -2.9516   19.8145 C   0  0  0  0  0  0  0  0  0  0  0  0
    4.5423   -2.2729   20.1008 N   0  0  0  0  0  0  0  0  0  0  0  0
    4.4844   -4.2476   18.2447 C   0  0  0  0  0  0  0  0  0  0  0  0
    3.3650   -3.9388   18.9144 N   0  0  0  0  0  0  0  0  0  0  0  0
    5.6625   -3.5703   18.4801 C   0  0  0  0  0  0  0  0  0  0  0  0
    6.0877   -5.1215   16.9618 N   0  0  0  0  0  0  0  0  0  0  0  0
    6.6610   -4.1646   17.6738 C   0  0  0  0  0  0  0  0  0  0  0  0
    4.7570   -5.1918   17.3243 N   0  0  0  0  0  0  0  0  0  0  0  0
    7.6891   -2.1381   19.2898 H   0  0  0  0  0  0  0  0  0  0  0  0
    6.7892   -1.1501   20.4715 H   0  0  0  0  0  0  0  0  0  0  0  0
    2.4901   -2.6806   20.3464 H   0  0  0  0  0  0  0  0  0  0  0  0
    6.5538   -5.7122   16.2584 H   0  0  0  0  0  0  0  0  0  0  0  0
    7.7237   -3.8821   17.6439 H   0  0  0  0  0  0  0  0  0  0  0  0
  1  2  1  0
  1  4  2  0
  1  7  1  0
  3  4  1  0
  3  6  2  0
  5  6  1  0
  5  7  1  0
  5 10  2  0
  7  9  2  0
  8  9  1  0
  8 10  1  0
  2 11  1  0
  2 12  1  0
  3 13  1  0
  8 14  1  0
  9 15  1  0
M  END
>  <filename_input>  (5) 
7BJJ_TVW_docked.sdf

>  <pdb_id>  (5) 
7BJJ_TVW

>  <pose_rank>  (5) 
4

>  <num_atoms_heavy>  (5) 
10

>  <num_torsions>  (5) 
0

>  <pose>  (5) 
[5.681302342607116, -2.580624963950046, 19.47738200769274, 2.7756862492008754, -0.8807986632407905, -1.749903649700118]

>  <energy>  (5) 
-467.65317306502993

>  <inter_energy>  (5) 
-444.09298563215094

>  <intra_energy>  (5) 
0.0

>  <rmsd>  (5) 
2.80846

>  <sdf_rank>  (5) 
0

$$$$

     RDKit          3D

 15 16  0  0  0  0  0  0  0  0999 V2000
    7.9907   -4.7706   16.7423 C   0  0  0  0  0  0  0  0  0  0  0  0
    9.1795   -5.1326   16.2230 N   0  0  0  0  0  0  0  0  0  0  0  0
    5.7041   -5.1105   16.9592 C   0  0  0  0  0  0  0  0  0  0  0  0
    6.8956   -5.4726   16.4449 N   0  0  0  0  0  0  0  0  0  0  0  0
    6.6367   -3.3602   18.1237 C   0  0  0  0  0  0  0  0  0  0  0  0
    5.5499   -4.0640   17.7767 N   0  0  0  0  0  0  0  0  0  0  0  0
    7.8851   -3.6998   17.6459 C   0  0  0  0  0  0  0  0  0  0  0  0
    8.1305   -1.8980   18.9053 N   0  0  0  0  0  0  0  0  0  0  0  0
    8.8015   -2.7407   18.1365 C   0  0  0  0  0  0  0  0  0  0  0  0
    6.7979   -2.2602   18.8832 N   0  0  0  0  0  0  0  0  0  0  0  0
   10.0268   -4.5930   16.4505 H   0  0  0  0  0  0  0  0  0  0  0  0
    9.2414   -5.9492   15.5982 H   0  0  0  0  0  0  0  0  0  0  0  0
    4.8166   -5.7038   16.6940 H   0  0  0  0  0  0  0  0  0  0  0  0
    8.5328   -1.1082   19.4298 H   0  0  0  0  0  0  0  0  0  0  0  0
    9.8790   -2.7021   17.9182 H   0  0  0  0  0  0  0  0  0  0  0  0
  1  2  1  0
  1  4  2  0
  1  7  1  0
  3  4  1  0
  3  6  2  0
  5  6  1  0
  5  7  1  0
  5 10  2  0
  7  9  2  0
  8  9  1  0
  8 10  1  0
  2 11  1  0
  2 12  1  0
  3 13  1  0
  8 14  1  0
  9 15  1  0
M  END
>  <filename_input>  (6) 
7BJJ_TVW_docked.sdf

>  <pdb_id>  (6) 
7BJJ_TVW

>  <pose_rank>  (6) 
5

>  <num_atoms_heavy>  (6) 
10

>  <num_torsions>  (6) 
0

>  <pose>  (6) 
[7.990727728590803, -4.770575731735073, 16.742319226931155, 0.4068052538636874, -0.7892925114568586, 0.8210831424913064]

>  <energy>  (6) 
-428.592360328227

>  <inter_energy>  (6) 
-389.8073685982808

>  <intra_energy>  (6) 
0.0

>  <rmsd>  (6) 
3.23421

>  <sdf_rank>  (6) 
0

$$$$

     RDKit          3D

 15 16  0  0  0  0  0  0  0  0999 V2000
    7.0376   -3.2182   18.3569 C   0  0  0  0  0  0  0  0  0  0  0  0
    7.6903   -2.2771   19.0656 N   0  0  0  0  0  0  0  0  0  0  0  0
    7.0297   -4.8353   16.6907 C   0  0  0  0  0  0  0  0  0  0  0  0
    7.6808   -3.8962   17.4045 N   0  0  0  0  0  0  0  0  0  0  0  0
    5.0790   -4.5030   17.8629 C   0  0  0  0  0  0  0  0  0  0  0  0
    5.7434   -5.1408   16.8887 N   0  0  0  0  0  0  0  0  0  0  0  0
    5.7017   -3.5490   18.6402 C   0  0  0  0  0  0  0  0  0  0  0  0
    3.5961   -3.6687   19.3068 N   0  0  0  0  0  0  0  0  0  0  0  0
    4.7306   -3.0228   19.5236 C   0  0  0  0  0  0  0  0  0  0  0  0
    3.7982   -4.5625   18.2735 N   0  0  0  0  0  0  0  0  0  0  0  0
    7.1968   -1.7519   19.8015 H   0  0  0  0  0  0  0  0  0  0  0  0
    8.6830   -2.0824   18.8716 H   0  0  0  0  0  0  0  0  0  0  0  0
    7.5825   -5.3761   15.9084 H   0  0  0  0  0  0  0  0  0  0  0  0
    2.7142   -3.5288   19.8202 H   0  0  0  0  0  0  0  0  0  0  0  0
    4.8898   -2.2205   20.2591 H   0  0  0  0  0  0  0  0  0  0  0  0
  1  2  1  0
  1  4  2  0
  1  7  1  0
  3  4  1  0
  3  6  2  0
  5  6  1  0
  5  7  1  0
  5 10  2  0
  7  9  2  0
  8  9  1  0
  8 10  1  0
  2 11  1  0
  2 12  1  0
  3 13  1  0
  8 14  1  0
  9 15  1  0
M  END
>  <filename_input>  (7) 
7BJJ_TVW_docked.sdf

>  <pdb_id>  (7) 
7BJJ_TVW

>  <pose_rank>  (7) 
6

>  <num_atoms_heavy>  (7) 
10

>  <num_torsions>  (7) 
0

>  <pose>  (7) 
[7.037618671779523, -3.2182345117848175, 18.356922949938475, 0.9568301792240357, -1.6347893345720075, 1.9991282498337042]

>  <energy>  (7) 
-410.44735159210927

>  <inter_energy>  (7) 
-416.9505326250906

>  <intra_energy>  (7) 
0.0

>  <rmsd>  (7) 
3.92856

>  <sdf_rank>  (7) 
0

$$$$

     RDKit          3D

 15 16  0  0  0  0  0  0  0  0999 V2000
    5.9255   -5.9000   16.6428 C   0  0  0  0  0  0  0  0  0  0  0  0
    6.2991   -6.9642   15.9067 N   0  0  0  0  0  0  0  0  0  0  0  0
    4.2660   -4.6782   17.7127 C   0  0  0  0  0  0  0  0  0  0  0  0
    4.6439   -5.7439   16.9801 N   0  0  0  0  0  0  0  0  0  0  0  0
    6.4231   -3.8916   17.8467 C   0  0  0  0  0  0  0  0  0  0  0  0
    5.1228   -3.7444   18.1382 N   0  0  0  0  0  0  0  0  0  0  0  0
    6.8696   -4.9752   17.1199 C   0  0  0  0  0  0  0  0  0  0  0  0
    8.6269   -3.7028   17.5507 N   0  0  0  0  0  0  0  0  0  0  0  0
    8.2613   -4.8115   16.9275 C   0  0  0  0  0  0  0  0  0  0  0  0
    7.4993   -3.1224   18.0976 N   0  0  0  0  0  0  0  0  0  0  0  0
    7.2876   -7.0876   15.6446 H   0  0  0  0  0  0  0  0  0  0  0  0
    5.5965   -7.6546   15.6058 H   0  0  0  0  0  0  0  0  0  0  0  0
    3.2026   -4.5714   17.9729 H   0  0  0  0  0  0  0  0  0  0  0  0
    9.5871   -3.3359   17.6166 H   0  0  0  0  0  0  0  0  0  0  0  0
    8.9214   -5.4850   16.3613 H   0  0  0  0  0  0  0  0  0  0  0  0
  1  2  1  0
  1  4  2  0
  1  7  1  0
  3  4  1  0
  3  6  2  0
  5  6  1  0
  5  7  1  0
  5 10  2  0
  7  9  2  0
  8  9  1  0
  8 10  1  0
  2 11  1  0
  2 12  1  0
  3 13  1  0
  8 14  1  0
  9 15  1  0
M  END
>  <filename_input>  (8) 
7BJJ_TVW_docked.sdf

>  <pdb_id>  (8) 
7BJJ_TVW

>  <pose_rank>  (8) 
7

>  <num_atoms_heavy>  (8) 
10

>  <num_torsions>  (8) 
0

>  <pose>  (8) 
[5.925488411090137, -5.89996254824196, 16.642787886853483, -1.5411880774803806, 5.19580017559572, -2.2602977874926298]

>  <energy>  (8) 
-374.6251476547096

>  <inter_energy>  (8) 
-365.6945104261572

>  <intra_energy>  (8) 
0.0

>  <rmsd>  (8) 
2.67366

>  <sdf_rank>  (8) 
0

$$$$

     RDKit          3D

 15 16  0  0  0  0  0  0  0  0999 V2000
    7.0352   -4.3484   17.2022 C   0  0  0  0  0  0  0  0  0  0  0  0
    6.6846   -5.3537   16.3773 N   0  0  0  0  0  0  0  0  0  0  0  0
    6.5934   -3.0220   19.0561 C   0  0  0  0  0  0  0  0  0  0  0  0
    6.2480   -4.0300   18.2315 N   0  0  0  0  0  0  0  0  0  0  0  0
    8.5416   -2.6239   17.9003 C   0  0  0  0  0  0  0  0  0  0  0  0
    7.7114   -2.3051   18.9035 N   0  0  0  0  0  0  0  0  0  0  0  0
    8.2500   -3.6614   17.0397 C   0  0  0  0  0  0  0  0  0  0  0  0
   10.1543   -2.7616   16.3640 N   0  0  0  0  0  0  0  0  0  0  0  0
    9.2746   -3.7041   16.0656 C   0  0  0  0  0  0  0  0  0  0  0  0
    9.6983   -2.0811   17.4759 N   0  0  0  0  0  0  0  0  0  0  0  0
    7.2900   -5.6021   15.5818 H   0  0  0  0  0  0  0  0  0  0  0  0
    5.8112   -5.8742   16.5419 H   0  0  0  0  0  0  0  0  0  0  0  0
    5.9241   -2.7774   19.8941 H   0  0  0  0  0  0  0  0  0  0  0  0
   11.0286   -2.5688   15.8547 H   0  0  0  0  0  0  0  0  0  0  0  0
    9.3302   -4.3967   15.2128 H   0  0  0  0  0  0  0  0  0  0  0  0
  1  2  1  0
  1  4  2  0
  1  7  1  0
  3  4  1  0
  3  6  2  0
  5  6  1  0
  5  7  1  0
  5 10  2  0
  7  9  2  0
  8  9  1  0
  8 10  1  0
  2 11  1  0
  2 12  1  0
  3 13  1  0
  8 14  1  0
  9 15  1  0
M  END
>  <filename_input>  (9) 
7BJJ_TVW_docked.sdf

>  <pdb_id>  (9) 
7BJJ_TVW

>  <pose_rank>  (9) 
8

>  <num_atoms_heavy>  (9) 
10

>  <num_torsions>  (9) 
0

>  <pose>  (9) 
[7.035153185857737, -4.348387678054236, 17.202154263623576, 0.18753028234428606, 0.24566860430261597, -0.09146134591667036]

>  <energy>  (9) 
-350.0856218259174

>  <inter_energy>  (9) 
-343.2107881597366

>  <intra_energy>  (9) 
0.0

>  <rmsd>  (9) 
2.92599

>  <sdf_rank>  (9) 
0

$$$$

     RDKit          3D

 15 16  0  0  0  0  0  0  0  0999 V2000
    4.5216   -2.1358   19.1184 C   0  0  0  0  0  0  0  0  0  0  0  0
    4.0600   -1.0030   18.5548 N   0  0  0  0  0  0  0  0  0  0  0  0
    4.1731   -4.0055   20.4504 C   0  0  0  0  0  0  0  0  0  0  0  0
    3.7133   -2.8740   19.8814 N   0  0  0  0  0  0  0  0  0  0  0  0
    6.2503   -3.7479   19.4971 C   0  0  0  0  0  0  0  0  0  0  0  0
    5.4241   -4.4479   20.2874 N   0  0  0  0  0  0  0  0  0  0  0  0
    5.8262   -2.5948   18.8706 C   0  0  0  0  0  0  0  0  0  0  0  0
    7.9532   -2.8882   18.3391 N   0  0  0  0  0  0  0  0  0  0  0  0
    6.9332   -2.0624   18.1694 C   0  0  0  0  0  0  0  0  0  0  0  0
    7.5462   -3.9126   19.1712 N   0  0  0  0  0  0  0  0  0  0  0  0
    4.6813   -0.4308   17.9653 H   0  0  0  0  0  0  0  0  0  0  0  0
    3.0857   -0.7089   18.7132 H   0  0  0  0  0  0  0  0  0  0  0  0
    3.4871   -4.5928   21.0784 H   0  0  0  0  0  0  0  0  0  0  0  0
    8.8895   -2.7848   17.9224 H   0  0  0  0  0  0  0  0  0  0  0  0
    6.9443   -1.1290   17.5874 H   0  0  0  0  0  0  0  0  0  0  0  0
  1  2  1  0
  1  4  2  0
  1  7  1  0
  3  4  1  0
  3  6  2  0
  5  6  1  0
  5  7  1  0
  5 10  2  0
  7  9  2  0
  8  9  1  0
  8 10  1  0
  2 11  1  0
  2 12  1  0
  3 13  1  0
  8 14  1  0
  9 15  1  0
M  END
>  <filename_input>  (10) 
7BJJ_TVW_docked.sdf

>  <pdb_id>  (10) 
7BJJ_TVW

>  <pose_rank>  (10) 
9

>  <num_atoms_heavy>  (10) 
10

>  <num_torsions>  (10) 
0

>  <pose>  (10) 
[4.5216087779360254, -2.1357929412432783, 19.118444868259154, -3.799091151181176, -0.7300515967164024, 1.5967642123547718]

>  <energy>  (10) 
-324.8590394996616

>  <inter_energy>  (10) 
-311.37821644148914

>  <intra_energy>  (10) 
0.0

>  <rmsd>  (10) 
2.12665

>  <sdf_rank>  (10) 
0

$$$$

     RDKit          3D

 15 16  0  0  0  0  0  0  0  0999 V2000
    7.5999   -4.2613   17.1238 C   0  0  0  0  0  0  0  0  0  0  0  0
    7.9180   -3.0692   17.6638 N   0  0  0  0  0  0  0  0  0  0  0  0
    8.2250   -6.1771   15.9703 C   0  0  0  0  0  0  0  0  0  0  0  0
    8.5408   -4.9861   16.5155 N   0  0  0  0  0  0  0  0  0  0  0  0
    6.0325   -6.0059   16.6436 C   0  0  0  0  0  0  0  0  0  0  0  0
    6.9923   -6.6929   16.0080 N   0  0  0  0  0  0  0  0  0  0  0  0
    6.3043   -4.7925   17.2400 C   0  0  0  0  0  0  0  0  0  0  0  0
    4.1487   -5.1978   17.5258 N   0  0  0  0  0  0  0  0  0  0  0  0
    5.0878   -4.2964   17.7641 C   0  0  0  0  0  0  0  0  0  0  0  0
    4.7180   -6.2387   16.8189 N   0  0  0  0  0  0  0  0  0  0  0  0
    7.1942   -2.5072   18.1341 H   0  0  0  0  0  0  0  0  0  0  0  0
    8.8852   -2.7195   17.6066 H   0  0  0  0  0  0  0  0  0  0  0  0
    9.0188   -6.7520   15.4708 H   0  0  0  0  0  0  0  0  0  0  0  0
    3.1629   -5.1341   17.8173 H   0  0  0  0  0  0  0  0  0  0  0  0
    4.9475   -3.3339   18.2778 H   0  0  0  0  0  0  0  0  0  0  0  0
  1  2  1  0
  1  4  2  0
  1  7  1  0
  3  4  1  0
  3  6  2  0
  5  6  1  0
  5  7  1  0
  5 10  2  0
  7  9  2  0
  8  9  1  0
  8 10  1  0
  2 11  1  0
  2 12  1  0
  3 13  1  0
  8 14  1  0
  9 15  1  0
M  END
>  <filename_input>  (11) 
7BJJ_TVW_docked.sdf

>  <pdb_id>  (11) 
7BJJ_TVW

>  <pose_rank>  (11) 
10

>  <num_atoms_heavy>  (11) 
10

>  <num_torsions>  (11) 
0

>  <pose>  (11) 
[7.599901354732148, -4.261333219692214, 17.123772542253096, 0.8608878626611908, -1.3896227369555365, 2.4334710527632804]

>  <energy>  (11) 
-326.58411264014296

>  <inter_energy>  (11) 
-349.4578350018092

>  <intra_energy>  (11) 
0.0

>  <rmsd>  (11) 
4.93568

>  <sdf_rank>  (11) 
0

$$$$

     RDKit          3D

 15 16  0  0  0  0  0  0  0  0999 V2000
    5.2946   -6.0657   16.8067 C   0  0  0  0  0  0  0  0  0  0  0  0
    6.1178   -6.8749   16.1127 N   0  0  0  0  0  0  0  0  0  0  0  0
    3.1465   -5.3998   17.3841 C   0  0  0  0  0  0  0  0  0  0  0  0
    3.9729   -6.2104   16.6946 N   0  0  0  0  0  0  0  0  0  0  0  0
    4.9063   -4.2885   18.3628 C   0  0  0  0  0  0  0  0  0  0  0  0
    3.5837   -4.4357   18.2005 N   0  0  0  0  0  0  0  0  0  0  0  0
    5.7983   -5.1054   17.7002 C   0  0  0  0  0  0  0  0  0  0  0  0
    6.9834   -3.6573   18.8795 N   0  0  0  0  0  0  0  0  0  0  0  0
    7.1012   -4.6628   18.0273 C   0  0  0  0  0  0  0  0  0  0  0  0
    5.6386   -3.4088   19.0717 N   0  0  0  0  0  0  0  0  0  0  0  0
    7.1386   -6.7659   16.1969 H   0  0  0  0  0  0  0  0  0  0  0  0
    5.7266   -7.6027   15.4978 H   0  0  0  0  0  0  0  0  0  0  0  0
    2.0612   -5.5377   17.2698 H   0  0  0  0  0  0  0  0  0  0  0  0
    7.7609   -3.1477   19.3231 H   0  0  0  0  0  0  0  0  0  0  0  0
    8.0435   -5.0797   17.6423 H   0  0  0  0  0  0  0  0  0  0  0  0
  1  2  1  0
  1  4  2  0
  1  7  1  0
  3  4  1  0
  3  6  2  0
  5  6  1  0
  5  7  1  0
  5 10  2  0
  7  9  2  0
  8  9  1  0
  8 10  1  0
  2 11  1  0
  2 12  1  0
  3 13  1  0
  8 14  1  0
  9 15  1  0
M  END
>  <filename_input>  (12) 
7BJJ_TVW_docked.sdf

>  <pdb_id>  (12) 
7BJJ_TVW

>  <pose_rank>  (12) 
11

>  <num_atoms_heavy>  (12) 
10

>  <num_torsions>  (12) 
0

>  <pose>  (12) 
[5.294633456487692, -6.065739589522647, 16.806670518505413, 0.29299585430251057, -0.7063070248283665, 0.3572071628248135]

>  <energy>  (12) 
-311.7290550064331

>  <inter_energy>  (12) 
-297.22058679532813

>  <intra_energy>  (12) 
0.0

>  <rmsd>  (12) 
2.82795

>  <sdf_rank>  (12) 
0

$$$$

     RDKit          3D

 15 16  0  0  0  0  0  0  0  0999 V2000
    8.1441   -4.2581   16.9841 C   0  0  0  0  0  0  0  0  0  0  0  0
    7.3414   -3.3450   17.5637 N   0  0  0  0  0  0  0  0  0  0  0  0
   10.2660   -4.9560   16.3502 C   0  0  0  0  0  0  0  0  0  0  0  0
    9.4606   -4.0466   16.9331 N   0  0  0  0  0  0  0  0  0  0  0  0
    8.4994   -6.3506   15.8769 C   0  0  0  0  0  0  0  0  0  0  0  0
    9.8130   -6.0916   15.8095 N   0  0  0  0  0  0  0  0  0  0  0  0
    7.6315   -5.4664   16.4826 C   0  0  0  0  0  0  0  0  0  0  0  0
    6.4226   -7.1501   15.7104 N   0  0  0  0  0  0  0  0  0  0  0  0
    6.3250   -5.9881   16.3362 C   0  0  0  0  0  0  0  0  0  0  0  0
    7.7522   -7.3670   15.4063 N   0  0  0  0  0  0  0  0  0  0  0  0
    6.3248   -3.5051   17.6048 H   0  0  0  0  0  0  0  0  0  0  0  0
    7.7442   -2.4865   17.9657 H   0  0  0  0  0  0  0  0  0  0  0  0
   11.3469   -4.7546   16.3176 H   0  0  0  0  0  0  0  0  0  0  0  0
    5.6414   -7.7836   15.4883 H   0  0  0  0  0  0  0  0  0  0  0  0
    5.3946   -5.5132   16.6808 H   0  0  0  0  0  0  0  0  0  0  0  0
  1  2  1  0
  1  4  2  0
  1  7  1  0
  3  4  1  0
  3  6  2  0
  5  6  1  0
  5  7  1  0
  5 10  2  0
  7  9  2  0
  8  9  1  0
  8 10  1  0
  2 11  1  0
  2 12  1  0
  3 13  1  0
  8 14  1  0
  9 15  1  0
M  END
>  <filename_input>  (13) 
7BJJ_TVW_docked.sdf

>  <pdb_id>  (13) 
7BJJ_TVW

>  <pose_rank>  (13) 
12

>  <num_atoms_heavy>  (13) 
10

>  <num_torsions>  (13) 
0

>  <pose>  (13) 
[8.144117775945176, -4.258130157435901, 16.9841421450623, 0.9704219497601037, -1.642835022275233, 3.3039054462544035]

>  <energy>  (13) 
-288.2420010094742

>  <inter_energy>  (13) 
-288.19746822005186

>  <intra_energy>  (13) 
0.0

>  <rmsd>  (13) 
5.72594

>  <sdf_rank>  (13) 
0

$$$$

     RDKit          3D

 15 16  0  0  0  0  0  0  0  0999 V2000
    5.3924   -3.3603   19.4806 C   0  0  0  0  0  0  0  0  0  0  0  0
    4.7226   -4.4639   19.0967 N   0  0  0  0  0  0  0  0  0  0  0  0
    5.5672   -1.4852   20.8389 C   0  0  0  0  0  0  0  0  0  0  0  0
    4.9020   -2.5923   20.4554 N   0  0  0  0  0  0  0  0  0  0  0  0
    7.2617   -1.8720   19.3326 C   0  0  0  0  0  0  0  0  0  0  0  0
    6.7242   -1.1022   20.2895 N   0  0  0  0  0  0  0  0  0  0  0  0
    6.6361   -3.0287   18.9170 C   0  0  0  0  0  0  0  0  0  0  0  0
    8.4683   -2.7978   17.6995 N   0  0  0  0  0  0  0  0  0  0  0  0
    7.4100   -3.5746   17.8665 C   0  0  0  0  0  0  0  0  0  0  0  0
    8.3710   -1.7393   18.5812 N   0  0  0  0  0  0  0  0  0  0  0  0
    5.0984   -5.0588   18.3445 H   0  0  0  0  0  0  0  0  0  0  0  0
    3.8346   -4.7129   19.5552 H   0  0  0  0  0  0  0  0  0  0  0  0
    5.1383   -0.8676   21.6417 H   0  0  0  0  0  0  0  0  0  0  0  0
    9.2328   -2.9555   17.0276 H   0  0  0  0  0  0  0  0  0  0  0  0
    7.1744   -4.4822   17.2914 H   0  0  0  0  0  0  0  0  0  0  0  0
  1  2  1  0
  1  4  2  0
  1  7  1  0
  3  4  1  0
  3  6  2  0
  5  6  1  0
  5  7  1  0
  5 10  2  0
  7  9  2  0
  8  9  1  0
  8 10  1  0
  2 11  1  0
  2 12  1  0
  3 13  1  0
  8 14  1  0
  9 15  1  0
M  END
>  <filename_input>  (14) 
7BJJ_TVW_docked.sdf

>  <pdb_id>  (14) 
7BJJ_TVW

>  <pose_rank>  (14) 
13

>  <num_atoms_heavy>  (14) 
10

>  <num_torsions>  (14) 
0

>  <pose>  (14) 
[5.3924312812971, -3.360256571937377, 19.48058470303996, 1.278232542589685, -4.278627392005363, 3.6224656929390715]

>  <energy>  (14) 
-385.9256952161148

>  <inter_energy>  (14) 
-377.8646134254074

>  <intra_energy>  (14) 
0.0

>  <rmsd>  (14) 
1.43496

>  <sdf_rank>  (14) 
0

$$$$

     RDKit          3D

 15 16  0  0  0  0  0  0  0  0999 V2000
    9.3625   -5.9520   16.2250 C   0  0  0  0  0  0  0  0  0  0  0  0
   10.5941   -6.1222   16.7429 N   0  0  0  0  0  0  0  0  0  0  0  0
    7.7137   -6.5736   14.7128 C   0  0  0  0  0  0  0  0  0  0  0  0
    8.9436   -6.7439   15.2361 N   0  0  0  0  0  0  0  0  0  0  0  0
    7.2395   -4.8478   16.1573 C   0  0  0  0  0  0  0  0  0  0  0  0
    6.8623   -5.6359   15.1405 N   0  0  0  0  0  0  0  0  0  0  0  0
    8.4779   -4.9929   16.7466 C   0  0  0  0  0  0  0  0  0  0  0  0
    7.4637   -3.3050   17.7540 N   0  0  0  0  0  0  0  0  0  0  0  0
    8.5982   -3.9861   17.7327 C   0  0  0  0  0  0  0  0  0  0  0  0
    6.6348   -3.8150   16.7742 N   0  0  0  0  0  0  0  0  0  0  0  0
   10.9205   -5.5126   17.5063 H   0  0  0  0  0  0  0  0  0  0  0  0
   11.2095   -6.8619   16.3755 H   0  0  0  0  0  0  0  0  0  0  0  0
    7.3953   -7.2372   13.8954 H   0  0  0  0  0  0  0  0  0  0  0  0
    7.2379   -2.5283   18.3916 H   0  0  0  0  0  0  0  0  0  0  0  0
    9.4771   -3.8022   18.3680 H   0  0  0  0  0  0  0  0  0  0  0  0
  1  2  1  0
  1  4  2  0
  1  7  1  0
  3  4  1  0
  3  6  2  0
  5  6  1  0
  5  7  1  0
  5 10  2  0
  7  9  2  0
  8  9  1  0
  8 10  1  0
  2 11  1  0
  2 12  1  0
  3 13  1  0
  8 14  1  0
  9 15  1  0
M  END
>  <filename_input>  (15) 
7BJJ_TVW_docked.sdf

>  <pdb_id>  (15) 
7BJJ_TVW

>  <pose_rank>  (15) 
14

>  <num_atoms_heavy>  (15) 
10

>  <num_torsions>  (15) 
0

>  <pose>  (15) 
[9.362452319640422, -5.9519871568908345, 16.225026089113598, -0.3529272951390329, 3.5153167074318437, -2.5595773009777907]

>  <energy>  (15) 
-267.1084925006232

>  <inter_energy>  (15) 
-250.57957362437566

>  <intra_energy>  (15) 
0.0

>  <rmsd>  (15) 
5.23358

>  <sdf_rank>  (15) 
0

$$$$

     RDKit          3D

 15 16  0  0  0  0  0  0  0  0999 V2000
    6.0806   -3.8836   18.4491 C   0  0  0  0  0  0  0  0  0  0  0  0
    5.8746   -5.1677   18.0991 N   0  0  0  0  0  0  0  0  0  0  0  0
    5.5853   -2.0650   19.8052 C   0  0  0  0  0  0  0  0  0  0  0  0
    5.3848   -3.3506   19.4553 N   0  0  0  0  0  0  0  0  0  0  0  0
    7.2087   -1.7869   18.1999 C   0  0  0  0  0  0  0  0  0  0  0  0
    6.4680   -1.2708   19.1910 N   0  0  0  0  0  0  0  0  0  0  0  0
    7.0622   -3.1032   17.8153 C   0  0  0  0  0  0  0  0  0  0  0  0
    8.5872   -2.1974   16.4937 N   0  0  0  0  0  0  0  0  0  0  0  0
    7.9275   -3.3225   16.7182 C   0  0  0  0  0  0  0  0  0  0  0  0
    8.1340   -1.2453   17.3855 N   0  0  0  0  0  0  0  0  0  0  0  0
    6.4099   -5.5822   17.3229 H   0  0  0  0  0  0  0  0  0  0  0  0
    5.1816   -5.7353   18.6076 H   0  0  0  0  0  0  0  0  0  0  0  0
    4.9951   -1.6495   20.6352 H   0  0  0  0  0  0  0  0  0  0  0  0
    9.3135   -2.0562   15.7772 H   0  0  0  0  0  0  0  0  0  0  0  0
    8.0332   -4.2602   16.1529 H   0  0  0  0  0  0  0  0  0  0  0  0
  1  2  1  0
  1  4  2  0
  1  7  1  0
  3  4  1  0
  3  6  2  0
  5  6  1  0
  5  7  1  0
  5 10  2  0
  7  9  2  0
  8  9  1  0
  8 10  1  0
  2 11  1  0
  2 12  1  0
  3 13  1  0
  8 14  1  0
  9 15  1  0
M  END
>  <filename_input>  (16) 
7BJJ_TVW_docked.sdf

>  <pdb_id>  (16) 
7BJJ_TVW

>  <pose_rank>  (16) 
15

>  <num_atoms_heavy>  (16) 
10

>  <num_torsions>  (16) 
0

>  <pose>  (16) 
[6.080618058687141, -3.883552399274055, 18.449112578859, 5.371700048894807, -10.717254199500399, -1.584202126715894]

>  <energy>  (16) 
-397.4692649437992

>  <inter_energy>  (16) 
-391.93778049827506

>  <intra_energy>  (16) 
0.0

>  <rmsd>  (16) 
1.69971

>  <sdf_rank>  (16) 
0

$$$$

     RDKit          3D

 15 16  0  0  0  0  0  0  0  0999 V2000
    6.9129   -4.8044   16.9430 C   0  0  0  0  0  0  0  0  0  0  0  0
    6.8638   -3.6266   17.5945 N   0  0  0  0  0  0  0  0  0  0  0  0
    5.9290   -6.8284   16.3714 C   0  0  0  0  0  0  0  0  0  0  0  0
    5.8814   -5.6474   17.0183 N   0  0  0  0  0  0  0  0  0  0  0  0
    8.0121   -6.3744   15.5087 C   0  0  0  0  0  0  0  0  0  0  0  0
    6.9750   -7.2145   15.6338 N   0  0  0  0  0  0  0  0  0  0  0  0
    8.0075   -5.1430   16.1297 C   0  0  0  0  0  0  0  0  0  0  0  0
    9.9437   -5.3427   15.0792 N   0  0  0  0  0  0  0  0  0  0  0  0
    9.2526   -4.5284   15.8606 C   0  0  0  0  0  0  0  0  0  0  0  0
    9.1965   -6.4866   14.8783 N   0  0  0  0  0  0  0  0  0  0  0  0
    7.6584   -2.9736   17.5386 H   0  0  0  0  0  0  0  0  0  0  0  0
    6.0317   -3.3789   18.1487 H   0  0  0  0  0  0  0  0  0  0  0  0
    5.0669   -7.5065   16.4540 H   0  0  0  0  0  0  0  0  0  0  0  0
   10.8781   -5.1555   14.6881 H   0  0  0  0  0  0  0  0  0  0  0  0
    9.5866   -3.5491   16.2339 H   0  0  0  0  0  0  0  0  0  0  0  0
  1  2  1  0
  1  4  2  0
  1  7  1  0
  3  4  1  0
  3  6  2  0
  5  6  1  0
  5  7  1  0
  5 10  2  0
  7  9  2  0
  8  9  1  0
  8 10  1  0
  2 11  1  0
  2 12  1  0
  3 13  1  0
  8 14  1  0
  9 15  1  0
M  END
>  <filename_input>  (17) 
7BJJ_TVW_docked.sdf

>  <pdb_id>  (17) 
7BJJ_TVW

>  <pose_rank>  (17) 
16

>  <num_atoms_heavy>  (17) 
10

>  <num_torsions>  (17) 
0

>  <pose>  (17) 
[6.9129480535017445, -4.804379116549577, 16.94304342797173, -2.933508970114004, -0.6013844914781181, 1.1009987920725137]

>  <energy>  (17) 
-241.87941030448798

>  <inter_energy>  (17) 
-236.56539230333365

>  <intra_energy>  (17) 
0.0

>  <rmsd>  (17) 
5.04177

>  <sdf_rank>  (17) 
0

$$$$

     RDKit          3D

 15 16  0  0  0  0  0  0  0  0999 V2000
    8.1649   -7.0821   15.3621 C   0  0  0  0  0  0  0  0  0  0  0  0
    9.3688   -7.6791   15.2713 N   0  0  0  0  0  0  0  0  0  0  0  0
    5.8869   -7.0714   14.9126 C   0  0  0  0  0  0  0  0  0  0  0  0
    7.0920   -7.6680   14.8274 N   0  0  0  0  0  0  0  0  0  0  0  0
    6.7471   -5.3005   16.1016 C   0  0  0  0  0  0  0  0  0  0  0  0
    5.6956   -5.8973   15.5225 N   0  0  0  0  0  0  0  0  0  0  0  0
    7.9994   -5.8770   16.0655 C   0  0  0  0  0  0  0  0  0  0  0  0
    8.1937   -3.9480   17.1303 N   0  0  0  0  0  0  0  0  0  0  0  0
    8.8947   -4.9848   16.7003 C   0  0  0  0  0  0  0  0  0  0  0  0
    6.8791   -4.1258   16.7461 N   0  0  0  0  0  0  0  0  0  0  0  0
   10.1990   -7.2295   15.6830 H   0  0  0  0  0  0  0  0  0  0  0  0
    9.4592   -8.5853   14.7901 H   0  0  0  0  0  0  0  0  0  0  0  0
    5.0199   -7.5740   14.4591 H   0  0  0  0  0  0  0  0  0  0  0  0
    8.5646   -3.1465   17.6602 H   0  0  0  0  0  0  0  0  0  0  0  0
    9.9793   -5.1271   16.8158 H   0  0  0  0  0  0  0  0  0  0  0  0
  1  2  1  0
  1  4  2  0
  1  7  1  0
  3  4  1  0
  3  6  2  0
  5  6  1  0
  5  7  1  0
  5 10  2  0
  7  9  2  0
  8  9  1  0
  8 10  1  0
  2 11  1  0
  2 12  1  0
  3 13  1  0
  8 14  1  0
  9 15  1  0
M  END
>  <filename_input>  (18) 
7BJJ_TVW_docked.sdf

>  <pdb_id>  (18) 
7BJJ_TVW

>  <pose_rank>  (18) 
17

>  <num_atoms_heavy>  (18) 
10

>  <num_torsions>  (18) 
0

>  <pose>  (18) 
[8.164887263929128, -7.0820637154732085, 15.362148892079851, -0.37032634402740594, 3.9321442766050385, -3.046437996135698]

>  <energy>  (18) 
-260.07195934075776

>  <inter_energy>  (18) 
-249.4226858923973

>  <intra_energy>  (18) 
0.0

>  <rmsd>  (18) 
5.19005

>  <sdf_rank>  (18) 
0

$$$$

     RDKit          3D

 15 16  0  0  0  0  0  0  0  0999 V2000
    5.1471   -7.6525   15.1198 C   0  0  0  0  0  0  0  0  0  0  0  0
    5.8148   -8.2397   14.1081 N   0  0  0  0  0  0  0  0  0  0  0  0
    3.4638   -7.7087   16.7182 C   0  0  0  0  0  0  0  0  0  0  0  0
    4.1367   -8.2950   15.7088 N   0  0  0  0  0  0  0  0  0  0  0  0
    4.7924   -5.8332   16.6347 C   0  0  0  0  0  0  0  0  0  0  0  0
    3.7594   -6.4899   17.1812 N   0  0  0  0  0  0  0  0  0  0  0  0
    5.5312   -6.3947   15.6145 C   0  0  0  0  0  0  0  0  0  0  0  0
    6.3617   -4.3806   15.9966 N   0  0  0  0  0  0  0  0  0  0  0  0
    6.4966   -5.4409   15.2163 C   0  0  0  0  0  0  0  0  0  0  0  0
    5.3030   -4.6068   16.8540 N   0  0  0  0  0  0  0  0  0  0  0  0
    6.5951   -7.7465   13.6513 H   0  0  0  0  0  0  0  0  0  0  0  0
    5.5451   -9.1819   13.7914 H   0  0  0  0  0  0  0  0  0  0  0  0
    2.6323   -8.2587   17.1830 H   0  0  0  0  0  0  0  0  0  0  0  0
    6.9458   -3.5326   15.9691 H   0  0  0  0  0  0  0  0  0  0  0  0
    7.2284   -5.5592   14.4036 H   0  0  0  0  0  0  0  0  0  0  0  0
  1  2  1  0
  1  4  2  0
  1  7  1  0
  3  4  1  0
  3  6  2  0
  5  6  1  0
  5  7  1  0
  5 10  2  0
  7  9  2  0
  8  9  1  0
  8 10  1  0
  2 11  1  0
  2 12  1  0
  3 13  1  0
  8 14  1  0
  9 15  1  0
M  END
>  <filename_input>  (19) 
7BJJ_TVW_docked.sdf

>  <pdb_id>  (19) 
7BJJ_TVW

>  <pose_rank>  (19) 
18

>  <num_atoms_heavy>  (19) 
10

>  <num_torsions>  (19) 
0

>  <pose>  (19) 
[5.147050403804308, -7.652456724989785, 15.11975799551069, -5.732954197054373, 1.2662822751463256, -10.180899926692103]

>  <energy>  (19) 
-229.51331006287523

>  <inter_energy>  (19) 
-225.5400252261713

>  <intra_energy>  (19) 
0.0

>  <rmsd>  (19) 
4.92182

>  <sdf_rank>  (19) 
0

$$$$

     RDKit          3D

 15 16  0  0  0  0  0  0  0  0999 V2000
    3.9940   -9.1913   13.7079 C   0  0  0  0  0  0  0  0  0  0  0  0
    4.4560  -10.1801   12.9188 N   0  0  0  0  0  0  0  0  0  0  0  0
    4.1226   -7.0024   14.4718 C   0  0  0  0  0  0  0  0  0  0  0  0
    4.5795   -7.9925   13.6805 N   0  0  0  0  0  0  0  0  0  0  0  0
    2.4529   -8.3333   15.3265 C   0  0  0  0  0  0  0  0  0  0  0  0
    3.0856   -7.1517   15.3021 N   0  0  0  0  0  0  0  0  0  0  0  0
    2.8628   -9.3750   14.5208 C   0  0  0  0  0  0  0  0  0  0  0  0
    1.1638  -10.1093   15.7320 N   0  0  0  0  0  0  0  0  0  0  0  0
    2.0453  -10.4894   14.8211 C   0  0  0  0  0  0  0  0  0  0  0  0
    1.4235   -8.7936   16.0622 N   0  0  0  0  0  0  0  0  0  0  0  0
    4.0065  -11.1067   12.9376 H   0  0  0  0  0  0  0  0  0  0  0  0
    5.2590  -10.0099   12.2966 H   0  0  0  0  0  0  0  0  0  0  0  0
    4.6264   -6.0253   14.4328 H   0  0  0  0  0  0  0  0  0  0  0  0
    0.4133  -10.6939   16.1268 H   0  0  0  0  0  0  0  0  0  0  0  0
    2.1275  -11.4925   14.3770 H   0  0  0  0  0  0  0  0  0  0  0  0
  1  2  1  0
  1  4  2  0
  1  7  1  0
  3  4  1  0
  3  6  2  0
  5  6  1  0
  5  7  1  0
  5 10  2  0
  7  9  2  0
  8  9  1  0
  8 10  1  0
  2 11  1  0
  2 12  1  0
  3 13  1  0
  8 14  1  0
  9 15  1  0
M  END
>  <filename_input>  (20) 
7BJJ_TVW_docked.sdf

>  <pdb_id>  (20) 
7BJJ_TVW

>  <pose_rank>  (20) 
19

>  <num_atoms_heavy>  (20) 
10

>  <num_torsions>  (20) 
0

>  <pose>  (20) 
[3.9940126889709324, -9.191300784056711, 13.707935815055784, 0.4595336636583848, -2.3627301338596154, -1.4930603728980039]

>  <energy>  (20) 
-107.33949466457045

>  <inter_energy>  (20) 
-101.15921276707554

>  <intra_energy>  (20) 
0.0

>  <rmsd>  (20) 
8.29355

>  <sdf_rank>  (20) 
0

$$$$

     RDKit          3D

 15 16  0  0  0  0  0  0  0  0999 V2000
    5.9077   -5.5130   16.5525 C   0  0  0  0  0  0  0  0  0  0  0  0
    7.2015   -5.3122   16.8681 N   0  0  0  0  0  0  0  0  0  0  0  0
    3.6560   -5.0990   16.9400 C   0  0  0  0  0  0  0  0  0  0  0  0
    4.9515   -4.8969   17.2502 N   0  0  0  0  0  0  0  0  0  0  0  0
    4.1978   -6.5030   15.2008 C   0  0  0  0  0  0  0  0  0  0  0  0
    3.2604   -5.8979   15.9439 N   0  0  0  0  0  0  0  0  0  0  0  0
    5.5395   -6.3140   15.4584 C   0  0  0  0  0  0  0  0  0  0  0  0
    5.3876   -7.7343   13.7696 N   0  0  0  0  0  0  0  0  0  0  0  0
    6.2627   -7.1266   14.5545 C   0  0  0  0  0  0  0  0  0  0  0  0
    4.1182   -7.3728   14.1761 N   0  0  0  0  0  0  0  0  0  0  0  0
    7.9421   -5.7862   16.3316 H   0  0  0  0  0  0  0  0  0  0  0  0
    7.4505   -4.6847   17.6460 H   0  0  0  0  0  0  0  0  0  0  0  0
    2.8880   -4.5823   17.5342 H   0  0  0  0  0  0  0  0  0  0  0  0
    5.6141   -8.3680   12.9898 H   0  0  0  0  0  0  0  0  0  0  0  0
    7.3566   -7.2340   14.5115 H   0  0  0  0  0  0  0  0  0  0  0  0
  1  2  1  0
  1  4  2  0
  1  7  1  0
  3  4  1  0
  3  6  2  0
  5  6  1  0
  5  7  1  0
  5 10  2  0
  7  9  2  0
  8  9  1  0
  8 10  1  0
  2 11  1  0
  2 12  1  0
  3 13  1  0
  8 14  1  0
  9 15  1  0
M  END
>  <filename_input>  (21) 
7BJJ_TVW_docked.sdf

>  <pdb_id>  (21) 
7BJJ_TVW

>  <pose_rank>  (21) 
20

>  <num_atoms_heavy>  (21) 
10

>  <num_torsions>  (21) 
0

>  <pose>  (21) 
[5.90766869687119, -5.513018524914623, 16.552526748583222, -6.794606515811153, 3.4191637011701803, 4.621701003468881]

>  <energy>  (21) 
-251.78692994355023

>  <inter_energy>  (21) 
-223.6845317649102

>  <intra_energy>  (21) 
0.0

>  <rmsd>  (21) 
5.3685

>  <sdf_rank>  (21) 
0

$$$$

     RDKit          3D

 15 16  0  0  0  0  0  0  0  0999 V2000
   13.1166   -9.8587   26.8288 C   0  0  0  0  0  0  0  0  0  0  0  0
   14.0534  -10.0640   25.8831 N   0  0  0  0  0  0  0  0  0  0  0  0
   11.3406  -10.6421   28.1029 C   0  0  0  0  0  0  0  0  0  0  0  0
   12.2817  -10.8454   27.1604 N   0  0  0  0  0  0  0  0  0  0  0  0
   12.0392   -8.4807   28.4631 C   0  0  0  0  0  0  0  0  0  0  0  0
   11.1925   -9.4804   28.7475 N   0  0  0  0  0  0  0  0  0  0  0  0
   13.0364   -8.6403   27.5238 C   0  0  0  0  0  0  0  0  0  0  0  0
   13.1635   -6.5625   28.2718 N   0  0  0  0  0  0  0  0  0  0  0  0
   13.7106   -7.4024   27.4077 C   0  0  0  0  0  0  0  0  0  0  0  0
   12.1229   -7.2121   28.9062 N   0  0  0  0  0  0  0  0  0  0  0  0
   14.6995   -9.3045   25.6248 H   0  0  0  0  0  0  0  0  0  0  0  0
   14.1237  -10.9804   25.4182 H   0  0  0  0  0  0  0  0  0  0  0  0
   10.6623  -11.4710   28.3538 H   0  0  0  0  0  0  0  0  0  0  0  0
   13.4624   -5.5916   28.4419 H   0  0  0  0  0  0  0  0  0  0  0  0
   14.5409   -7.1779   26.7219 H   0  0  0  0  0  0  0  0  0  0  0  0
  1  2  1  0
  1  4  2  0
  1  7  1  0
  3  4  1  0
  3  6  2  0
  5  6  1  0
  5  7  1  0
  5 10  2  0
  7  9  2  0
  8  9  1  0
  8 10  1  0
  2 11  1  0
  2 12  1  0
  3 13  1  0
  8 14  1  0
  9 15  1  0
M  END
>  <filename_input>  (22) 
7BJJ_TVW_docked.sdf

>  <pdb_id>  (22) 
7BJJ_TVW

>  <pose_rank>  (22) 
21

>  <num_atoms_heavy>  (22) 
10

>  <num_torsions>  (22) 
0

>  <pose>  (22) 
[13.11664793691021, -9.858747644756416, 26.82881259597201, -2.1908819944071705, 0.9919860889039117, -4.5200393224753075]

>  <energy>  (22) 
-143.76019366631982

>  <inter_energy>  (22) 
-119.83802667268633

>  <intra_energy>  (22) 
0.0

>  <rmsd>  (22) 
12.7904

>  <sdf_rank>  (22) 
0

$$$$

     RDKit          3D

 15 16  0  0  0  0  0  0  0  0999 V2000
    7.5011  -12.1755   25.7132 C   0  0  0  0  0  0  0  0  0  0  0  0
    6.8680  -12.2466   24.5265 N   0  0  0  0  0  0  0  0  0  0  0  0
    7.4438  -12.2814   28.0320 C   0  0  0  0  0  0  0  0  0  0  0  0
    6.8145  -12.3562   26.8430 N   0  0  0  0  0  0  0  0  0  0  0  0
    9.4771  -11.8852   27.0329 C   0  0  0  0  0  0  0  0  0  0  0  0
    8.7524  -12.0353   28.1507 N   0  0  0  0  0  0  0  0  0  0  0  0
    8.8897  -11.9749   25.7884 C   0  0  0  0  0  0  0  0  0  0  0  0
   11.0308  -11.5172   25.4738 N   0  0  0  0  0  0  0  0  0  0  0  0
    9.8928  -11.7108   24.8268 C   0  0  0  0  0  0  0  0  0  0  0  0
   10.7773  -11.6008   26.8288 N   0  0  0  0  0  0  0  0  0  0  0  0
    7.3950  -12.1076   23.6525 H   0  0  0  0  0  0  0  0  0  0  0  0
    5.8569  -12.4400   24.4930 H   0  0  0  0  0  0  0  0  0  0  0  0
    6.8531  -12.4298   28.9480 H   0  0  0  0  0  0  0  0  0  0  0  0
   11.9477  -11.3353   25.0413 H   0  0  0  0  0  0  0  0  0  0  0  0
    9.7521  -11.6732   23.7364 H   0  0  0  0  0  0  0  0  0  0  0  0
  1  2  1  0
  1  4  2  0
  1  7  1  0
  3  4  1  0
  3  6  2  0
  5  6  1  0
  5  7  1  0
  5 10  2  0
  7  9  2  0
  8  9  1  0
  8 10  1  0
  2 11  1  0
  2 12  1  0
  3 13  1  0
  8 14  1  0
  9 15  1  0
M  END
>  <filename_input>  (23) 
7BJJ_TVW_docked.sdf

>  <pdb_id>  (23) 
7BJJ_TVW

>  <pose_rank>  (23) 
22

>  <num_atoms_heavy>  (23) 
10

>  <num_torsions>  (23) 
0

>  <pose>  (23) 
[7.501096273582595, -12.175513534833565, 25.713207398647885, -4.6322041110338805, -1.4897738151150657, 1.9395780212761595]

>  <energy>  (23) 
-143.0214258086332

>  <inter_energy>  (23) 
-133.19954968645837

>  <intra_energy>  (23) 
0.0

>  <rmsd>  (23) 
12.0264

>  <sdf_rank>  (23) 
0

$$$$

     RDKit          3D

 15 16  0  0  0  0  0  0  0  0999 V2000
    7.2115   -9.3669   15.7123 C   0  0  0  0  0  0  0  0  0  0  0  0
    6.6050   -8.1722   15.5748 N   0  0  0  0  0  0  0  0  0  0  0  0
    7.3787  -11.4269   16.7707 C   0  0  0  0  0  0  0  0  0  0  0  0
    6.7716  -10.2326   16.6275 N   0  0  0  0  0  0  0  0  0  0  0  0
    8.8642  -10.9767   15.0736 C   0  0  0  0  0  0  0  0  0  0  0  0
    8.4213  -11.8092   16.0264 N   0  0  0  0  0  0  0  0  0  0  0  0
    8.2659   -9.7514   14.8669 C   0  0  0  0  0  0  0  0  0  0  0  0
    9.9511   -9.9091   13.4429 N   0  0  0  0  0  0  0  0  0  0  0  0
    8.9931   -9.0914   13.8490 C   0  0  0  0  0  0  0  0  0  0  0  0
    9.8907  -11.0585   14.2061 N   0  0  0  0  0  0  0  0  0  0  0  0
    6.9421   -7.5017   14.8694 H   0  0  0  0  0  0  0  0  0  0  0  0
    5.8041   -7.9291   16.1751 H   0  0  0  0  0  0  0  0  0  0  0  0
    6.9987  -12.1197   17.5359 H   0  0  0  0  0  0  0  0  0  0  0  0
   10.6255   -9.7208   12.6876 H   0  0  0  0  0  0  0  0  0  0  0  0
    8.7975   -8.0797   13.4640 H   0  0  0  0  0  0  0  0  0  0  0  0
  1  2  1  0
  1  4  2  0
  1  7  1  0
  3  4  1  0
  3  6  2  0
  5  6  1  0
  5  7  1  0
  5 10  2  0
  7  9  2  0
  8  9  1  0
  8 10  1  0
  2 11  1  0
  2 12  1  0
  3 13  1  0
  8 14  1  0
  9 15  1  0
M  END
>  <filename_input>  (24) 
7BJJ_TVW_docked.sdf

>  <pdb_id>  (24) 
7BJJ_TVW

>  <pose_rank>  (24) 
23

>  <num_atoms_heavy>  (24) 
10

>  <num_torsions>  (24) 
0

>  <pose>  (24) 
[7.21152224498708, -9.366930149557968, 15.712315430035444, -3.1338309467502814, -1.187211651702679, 2.0725010884866637]

>  <energy>  (24) 
-121.68054936967435

>  <inter_energy>  (24) 
-104.85061670643618

>  <intra_energy>  (24) 
0.0

>  <rmsd>  (24) 
8.84017

>  <sdf_rank>  (24) 
0

$$$$

     RDKit          3D

 15 16  0  0  0  0  0  0  0  0999 V2000
    5.6316    4.9455   25.8096 C   0  0  0  0  0  0  0  0  0  0  0  0
    5.5504    3.8457   25.0363 N   0  0  0  0  0  0  0  0  0  0  0  0
    4.6124    6.5230   27.1750 C   0  0  0  0  0  0  0  0  0  0  0  0
    4.5356    5.4205   26.4043 N   0  0  0  0  0  0  0  0  0  0  0  0
    6.8794    6.7120   26.8359 C   0  0  0  0  0  0  0  0  0  0  0  0
    5.7539    7.1849   27.3898 N   0  0  0  0  0  0  0  0  0  0  0  0
    6.8636    5.5741   26.0568 C   0  0  0  0  0  0  0  0  0  0  0  0
    8.9435    6.3265   26.0803 N   0  0  0  0  0  0  0  0  0  0  0  0
    8.1777    5.3738   25.5733 C   0  0  0  0  0  0  0  0  0  0  0  0
    8.1478    7.1635   26.8378 N   0  0  0  0  0  0  0  0  0  0  0  0
    6.3945    3.4764   24.5759 H   0  0  0  0  0  0  0  0  0  0  0  0
    4.6441    3.3740   24.9054 H   0  0  0  0  0  0  0  0  0  0  0  0
    3.6929    6.8959   27.6497 H   0  0  0  0  0  0  0  0  0  0  0  0
    9.9583    6.4267   25.9350 H   0  0  0  0  0  0  0  0  0  0  0  0
    8.5044    4.5701   24.8971 H   0  0  0  0  0  0  0  0  0  0  0  0
  1  2  1  0
  1  4  2  0
  1  7  1  0
  3  4  1  0
  3  6  2  0
  5  6  1  0
  5  7  1  0
  5 10  2  0
  7  9  2  0
  8  9  1  0
  8 10  1  0
  2 11  1  0
  2 12  1  0
  3 13  1  0
  8 14  1  0
  9 15  1  0
M  END
>  <filename_input>  (25) 
7BJJ_TVW_docked.sdf

>  <pdb_id>  (25) 
7BJJ_TVW

>  <pose_rank>  (25) 
24

>  <num_atoms_heavy>  (25) 
10

>  <num_torsions>  (25) 
0

>  <pose>  (25) 
[5.631583878233909, 4.945464647025952, 25.809620736332224, -2.219163311656898, 4.571494911330012, 3.3129455894195003]

>  <energy>  (25) 
-120.9017781195893

>  <inter_energy>  (25) 
-101.88728441417874

>  <intra_energy>  (25) 
0.0

>  <rmsd>  (25) 
11.5682

>  <sdf_rank>  (25) 
0

$$$$

     RDKit          3D

 15 16  0  0  0  0  0  0  0  0999 V2000
    4.7920   -4.1180   18.7400 C   0  0  0  0  0  0  0  0  0  0  0  0
    4.7270   -5.2840   18.0690 N   0  0  0  0  0  0  0  0  0  0  0  0
    3.8130   -2.5490   20.1440 C   0  0  0  0  0  0  0  0  0  0  0  0
    3.7530   -3.7170   19.4750 N   0  0  0  0  0  0  0  0  0  0  0  0
    5.9570   -2.1400   19.4190 C   0  0  0  0  0  0  0  0  0  0  0  0
    4.8830   -1.7480   20.1190 N   0  0  0  0  0  0  0  0  0  0  0  0
    5.9600   -3.3370   18.7340 C   0  0  0  0  0  0  0  0  0  0  0  0
    7.9080   -2.3590   18.3580 N   0  0  0  0  0  0  0  0  0  0  0  0
    7.1960   -3.4320   18.0530 C   0  0  0  0  0  0  0  0  0  0  0  0
    7.1440   -1.5520   19.1780 N   0  0  0  0  0  0  0  0  0  0  0  0
    5.5272   -5.5965   17.5007 H   0  0  0  0  0  0  0  0  0  0  0  0
    3.8771   -5.8632   18.1241 H   0  0  0  0  0  0  0  0  0  0  0  0
    2.9407   -2.2401   20.7386 H   0  0  0  0  0  0  0  0  0  0  0  0
    8.8669   -2.1600   18.0388 H   0  0  0  0  0  0  0  0  0  0  0  0
    7.5093   -4.2510   17.3889 H   0  0  0  0  0  0  0  0  0  0  0  0
  1  2  1  0
  1  4  2  0
  1  7  1  0
  3  4  1  0
  3  6  2  0
  5  6  1  0
  5  7  1  0
  5 10  2  0
  7  9  2  0
  8  9  1  0
  8 10  1  0
  2 11  1  0
  2 12  1  0
  3 13  1  0
  8 14  1  0
  9 15  1  0
M  END
>  <filename_input>  (26) 
7BJJ_TVW_docked.sdf

>  <pdb_id>  (26) 
7BJJ_TVW

>  <pose_rank>  (26) 
25

>  <num_atoms_heavy>  (26) 
10

>  <num_torsions>  (26) 
0

>  <pose>  (26) 
[4.792, -4.118, 18.74, 1e-06, 1e-06, 1e-06]

>  <energy>  (26) 
-463.8444609427635

>  <inter_energy>  (26) 
-461.05058248058197

>  <intra_energy>  (26) 
0.0

>  <rmsd>  (26) 
0.0

>  <sdf_rank>  (26) 
0

$$$$
