
     RDKit          3D

 23 23  0  0  0  0  0  0  0  0999 V2000
   15.7816   53.0710   14.7922 O   0  0  0  0  0  0  0  0  0  0  0  0
   17.2690   53.7965   14.7567 S   0  0  1  0  0  0  0  0  0  0  0  0
   16.9713   55.2129   14.4778 O   0  0  0  0  0  0  0  0  0  0  0  0
   18.0024   53.7439   15.9137 N   0  0  0  0  0  0  0  0  0  0  0  0
   18.1892   53.0553   13.5110 C   0  0  0  0  0  0  0  0  0  0  0  0
   18.6015   51.7379   13.6532 C   0  0  0  0  0  0  0  0  0  0  0  0
   19.3313   51.1140   12.6340 C   0  0  0  0  0  0  0  0  0  0  0  0
   18.5400   53.7596   12.3549 C   0  0  0  0  0  0  0  0  0  0  0  0
   19.2555   53.1403   11.3522 C   0  0  0  0  0  0  0  0  0  0  0  0
   19.6576   51.8315   11.4755 C   0  0  0  0  0  0  0  0  0  0  0  0
   20.4706   51.2201   10.3420 C   0  0  0  0  0  0  0  0  0  0  0  0
   21.8524   51.9110   10.2497 C   0  0  0  0  0  0  0  0  0  0  0  0
   17.3686   53.7894   16.7243 H   0  0  0  0  0  0  0  0  0  0  0  0
   18.5347   52.8626   15.9431 H   0  0  0  0  0  0  0  0  0  0  0  0
   18.3542   51.1820   14.5696 H   0  0  0  0  0  0  0  0  0  0  0  0
   19.6468   50.0658   12.7422 H   0  0  0  0  0  0  0  0  0  0  0  0
   18.2436   54.8132   12.2449 H   0  0  0  0  0  0  0  0  0  0  0  0
   19.5083   53.7015   10.4406 H   0  0  0  0  0  0  0  0  0  0  0  0
   20.6122   50.1461   10.5333 H   0  0  0  0  0  0  0  0  0  0  0  0
   19.9317   51.3620    9.3936 H   0  0  0  0  0  0  0  0  0  0  0  0
   22.2351   52.1023   11.2631 H   0  0  0  0  0  0  0  0  0  0  0  0
   22.5538   51.2575    9.7103 H   0  0  0  0  0  0  0  0  0  0  0  0
   21.7505   52.8642    9.7103 H   0  0  0  0  0  0  0  0  0  0  0  0
  1  2  2  0
  2  3  2  0
  2  4  1  1
  2  5  1  0
  5  6  2  0
  5  8  1  0
  6  7  1  0
  7 10  2  0
  8  9  2  0
  9 10  1  0
 10 11  1  0
 11 12  1  0
  4 13  1  0
  4 14  1  0
  6 15  1  0
  7 16  1  0
  8 17  1  0
  9 18  1  0
 11 19  1  0
 11 20  1  0
 12 21  1  0
 12 22  1  0
 12 23  1  0
M  END
>  <filename_input>  (1) 
7BKA_4JC_docked.sdf

>  <pdb_id>  (1) 
7BKA_4JC

>  <pose_rank>  (1) 
0

>  <num_atoms_heavy>  (1) 
12

>  <num_torsions>  (1) 
2

>  <pose>  (1) 
[18.1892079242668, 53.0553169211838, 13.510952779367297, -2.88193167916017, 2.0309906623852054, 5.02474634218019, 4.031777601267321, -6.306659541091472]

>  <energy>  (1) 
-779.9567769371877

>  <inter_energy>  (1) 
-764.626250595369

>  <intra_energy>  (1) 
0.0

>  <rmsd>  (1) 
1.05817

>  <sdf_rank>  (1) 
0

$$$$

     RDKit          3D

 23 23  0  0  0  0  0  0  0  0999 V2000
   17.1452   55.2982   14.5146 O   0  0  0  0  0  0  0  0  0  0  0  0
   17.0661   53.6645   14.7687 S   0  0  1  0  0  0  0  0  0  0  0  0
   17.5391   53.4931   16.1542 O   0  0  0  0  0  0  0  0  0  0  0  0
   15.8242   53.0912   14.6775 N   0  0  0  0  0  0  0  0  0  0  0  0
   18.0889   52.9007   13.6204 C   0  0  0  0  0  0  0  0  0  0  0  0
   18.7363   53.6666   12.6612 C   0  0  0  0  0  0  0  0  0  0  0  0
   19.5924   53.0591   11.7345 C   0  0  0  0  0  0  0  0  0  0  0  0
   18.2757   51.5148   13.6278 C   0  0  0  0  0  0  0  0  0  0  0  0
   19.1224   50.9213   12.7158 C   0  0  0  0  0  0  0  0  0  0  0  0
   19.7801   51.6710   11.7698 C   0  0  0  0  0  0  0  0  0  0  0  0
   20.6767   50.9459   10.7749 C   0  0  0  0  0  0  0  0  0  0  0  0
   20.0263   50.9577    9.3705 C   0  0  0  0  0  0  0  0  0  0  0  0
   15.4545   52.9205   15.6236 H   0  0  0  0  0  0  0  0  0  0  0  0
   15.1900   53.7247   14.1702 H   0  0  0  0  0  0  0  0  0  0  0  0
   18.5764   54.7545   12.6288 H   0  0  0  0  0  0  0  0  0  0  0  0
   20.1149   53.6686   10.9825 H   0  0  0  0  0  0  0  0  0  0  0  0
   17.7444   50.8950   14.3651 H   0  0  0  0  0  0  0  0  0  0  0  0
   19.2737   49.8322   12.7457 H   0  0  0  0  0  0  0  0  0  0  0  0
   21.6528   51.4510   10.7286 H   0  0  0  0  0  0  0  0  0  0  0  0
   20.8111   49.9043   11.1020 H   0  0  0  0  0  0  0  0  0  0  0  0
   18.9314   50.9775    9.4737 H   0  0  0  0  0  0  0  0  0  0  0  0
   20.3589   51.8499    8.8198 H   0  0  0  0  0  0  0  0  0  0  0  0
   20.3265   50.0539    8.8198 H   0  0  0  0  0  0  0  0  0  0  0  0
  1  2  2  0
  2  3  2  0
  2  4  1  1
  2  5  1  0
  5  6  2  0
  5  8  1  0
  6  7  1  0
  7 10  2  0
  8  9  2  0
  9 10  1  0
 10 11  1  0
 11 12  1  0
  4 13  1  0
  4 14  1  0
  6 15  1  0
  7 16  1  0
  8 17  1  0
  9 18  1  0
 11 19  1  0
 11 20  1  0
 12 21  1  0
 12 22  1  0
 12 23  1  0
M  END
>  <filename_input>  (2) 
7BKA_4JC_docked.sdf

>  <pdb_id>  (2) 
7BKA_4JC

>  <pose_rank>  (2) 
1

>  <num_atoms_heavy>  (2) 
12

>  <num_torsions>  (2) 
2

>  <pose>  (2) 
[18.088875821813748, 52.90068841064409, 13.620372817077078, -5.21669488402431, 3.828986060325325, 6.281878156229146, -13.681555731934886, -5.569377760944439]

>  <energy>  (2) 
-671.2256293920898

>  <inter_energy>  (2) 
-674.3415350121244

>  <intra_energy>  (2) 
0.0

>  <rmsd>  (2) 
1.33171

>  <sdf_rank>  (2) 
0

$$$$

     RDKit          3D

 23 23  0  0  0  0  0  0  0  0999 V2000
   21.1917   51.1434    8.7377 O   0  0  0  0  0  0  0  0  0  0  0  0
   21.9057   51.6257   10.1510 S   0  0  1  0  0  0  0  0  0  0  0  0
   22.7677   50.4897   10.5239 O   0  0  0  0  0  0  0  0  0  0  0  0
   22.6947   52.7449   10.0863 N   0  0  0  0  0  0  0  0  0  0  0  0
   20.6625   51.9184   11.2985 C   0  0  0  0  0  0  0  0  0  0  0  0
   20.1861   50.8725   12.0762 C   0  0  0  0  0  0  0  0  0  0  0  0
   19.1898   51.1028   13.0328 C   0  0  0  0  0  0  0  0  0  0  0  0
   20.1125   53.1942   11.4586 C   0  0  0  0  0  0  0  0  0  0  0  0
   19.1343   53.4172   12.4043 C   0  0  0  0  0  0  0  0  0  0  0  0
   18.6640   52.3921   13.1903 C   0  0  0  0  0  0  0  0  0  0  0  0
   17.5616   52.7040   14.1938 C   0  0  0  0  0  0  0  0  0  0  0  0
   17.4047   54.2360   14.3478 C   0  0  0  0  0  0  0  0  0  0  0  0
   22.9187   53.0627   11.0401 H   0  0  0  0  0  0  0  0  0  0  0  0
   23.5664   52.5219    9.5851 H   0  0  0  0  0  0  0  0  0  0  0  0
   20.5924   49.8593   11.9408 H   0  0  0  0  0  0  0  0  0  0  0  0
   18.8216   50.2757   13.6576 H   0  0  0  0  0  0  0  0  0  0  0  0
   20.4621   54.0240   10.8269 H   0  0  0  0  0  0  0  0  0  0  0  0
   18.7242   54.4299   12.5316 H   0  0  0  0  0  0  0  0  0  0  0  0
   16.6133   52.2745   13.8385 H   0  0  0  0  0  0  0  0  0  0  0  0
   17.8264   52.2682   15.1685 H   0  0  0  0  0  0  0  0  0  0  0  0
   17.3780   54.4963   15.4163 H   0  0  0  0  0  0  0  0  0  0  0  0
   18.2557   54.7419   13.8684 H   0  0  0  0  0  0  0  0  0  0  0  0
   16.4688   54.5588   13.8684 H   0  0  0  0  0  0  0  0  0  0  0  0
  1  2  2  0
  2  3  2  0
  2  4  1  6
  2  5  1  0
  5  6  2  0
  5  8  1  0
  6  7  1  0
  7 10  2  0
  8  9  2  0
  9 10  1  0
 10 11  1  0
 11 12  1  0
  4 13  1  0
  4 14  1  0
  6 15  1  0
  7 16  1  0
  8 17  1  0
  9 18  1  0
 11 19  1  0
 11 20  1  0
 12 21  1  0
 12 22  1  0
 12 23  1  0
M  END
>  <filename_input>  (3) 
7BKA_4JC_docked.sdf

>  <pdb_id>  (3) 
7BKA_4JC

>  <pose_rank>  (3) 
2

>  <num_atoms_heavy>  (3) 
12

>  <num_torsions>  (3) 
2

>  <pose>  (3) 
[20.66246288681146, 51.91844301963093, 11.298494684542803, -0.19816660065504194, 2.5929323631705783, -1.2757165605929683, 0.46399304876791453, -1.4101133218549318]

>  <energy>  (3) 
-492.7245483049316

>  <inter_energy>  (3) 
-471.6168658077

>  <intra_energy>  (3) 
0.0

>  <rmsd>  (3) 
5.17672

>  <sdf_rank>  (3) 
0

$$$$

     RDKit          3D

 23 23  0  0  0  0  0  0  0  0999 V2000
   21.8189   53.4019    9.5874 O   0  0  0  0  0  0  0  0  0  0  0  0
   21.3142   51.9106   10.0989 S   0  0  1  0  0  0  0  0  0  0  0  0
   20.5932   51.3578    8.9383 O   0  0  0  0  0  0  0  0  0  0  0  0
   22.2960   51.0184   10.4443 N   0  0  0  0  0  0  0  0  0  0  0  0
   20.2977   52.1361   11.4642 C   0  0  0  0  0  0  0  0  0  0  0  0
   19.6638   53.3559   11.6541 C   0  0  0  0  0  0  0  0  0  0  0  0
   18.8128   53.5447   12.7499 C   0  0  0  0  0  0  0  0  0  0  0  0
   20.1027   51.1126   12.3971 C   0  0  0  0  0  0  0  0  0  0  0  0
   19.2611   51.3017   13.4726 C   0  0  0  0  0  0  0  0  0  0  0  0
   18.6166   52.5008   13.6638 C   0  0  0  0  0  0  0  0  0  0  0  0
   17.7251   52.6495   14.8896 C   0  0  0  0  0  0  0  0  0  0  0  0
   17.4511   54.1476   15.1656 C   0  0  0  0  0  0  0  0  0  0  0  0
   22.3608   50.9595   11.4706 H   0  0  0  0  0  0  0  0  0  0  0  0
   22.0668   50.0903   10.0610 H   0  0  0  0  0  0  0  0  0  0  0  0
   19.8303   54.1770   10.9414 H   0  0  0  0  0  0  0  0  0  0  0  0
   18.3009   54.5078   12.8927 H   0  0  0  0  0  0  0  0  0  0  0  0
   20.6235   50.1518   12.2720 H   0  0  0  0  0  0  0  0  0  0  0  0
   19.1031   50.4812   14.1880 H   0  0  0  0  0  0  0  0  0  0  0  0
   16.7712   52.1315   14.7114 H   0  0  0  0  0  0  0  0  0  0  0  0
   18.2319   52.2085   15.7606 H   0  0  0  0  0  0  0  0  0  0  0  0
   17.4194   54.3205   16.2515 H   0  0  0  0  0  0  0  0  0  0  0  0
   18.2530   54.7550   14.7208 H   0  0  0  0  0  0  0  0  0  0  0  0
   16.4860   54.4318   14.7208 H   0  0  0  0  0  0  0  0  0  0  0  0
  1  2  2  0
  2  3  2  0
  2  4  1  1
  2  5  1  0
  5  6  2  0
  5  8  1  0
  6  7  1  0
  7 10  2  0
  8  9  2  0
  9 10  1  0
 10 11  1  0
 11 12  1  0
  4 13  1  0
  4 14  1  0
  6 15  1  0
  7 16  1  0
  8 17  1  0
  9 18  1  0
 11 19  1  0
 11 20  1  0
 12 21  1  0
 12 22  1  0
 12 23  1  0
M  END
>  <filename_input>  (4) 
7BKA_4JC_docked.sdf

>  <pdb_id>  (4) 
7BKA_4JC

>  <pose_rank>  (4) 
3

>  <num_atoms_heavy>  (4) 
12

>  <num_torsions>  (4) 
2

>  <pose>  (4) 
[20.297718375289982, 52.13610025157119, 11.464229177787919, 2.724387886198162, 1.3432801362049005, 1.5677484696772024, 5.623498096310545, 1.6541414325520365]

>  <energy>  (4) 
-429.5609296307084

>  <inter_energy>  (4) 
-427.4873278006944

>  <intra_energy>  (4) 
0.0

>  <rmsd>  (4) 
5.11209

>  <sdf_rank>  (4) 
0

$$$$

     RDKit          3D

 23 23  0  0  0  0  0  0  0  0999 V2000
   22.1102   52.2980    9.2339 O   0  0  0  0  0  0  0  0  0  0  0  0
   21.1216   51.1006    9.8074 S   0  0  1  0  0  0  0  0  0  0  0  0
   20.2758   50.7493    8.6526 O   0  0  0  0  0  0  0  0  0  0  0  0
   21.7371   49.9541   10.2385 N   0  0  0  0  0  0  0  0  0  0  0  0
   20.2186   51.7434   11.1187 C   0  0  0  0  0  0  0  0  0  0  0  0
   19.9887   50.9619   12.2422 C   0  0  0  0  0  0  0  0  0  0  0  0
   19.2749   51.4826   13.3286 C   0  0  0  0  0  0  0  0  0  0  0  0
   19.7007   53.0415   11.0721 C   0  0  0  0  0  0  0  0  0  0  0  0
   19.0016   53.5514   12.1455 C   0  0  0  0  0  0  0  0  0  0  0  0
   18.7794   52.7919   13.2696 C   0  0  0  0  0  0  0  0  0  0  0  0
   17.9737   53.4087   14.4055 C   0  0  0  0  0  0  0  0  0  0  0  0
   16.4955   52.9602   14.3096 C   0  0  0  0  0  0  0  0  0  0  0  0
   21.7468   49.9359   11.2683 H   0  0  0  0  0  0  0  0  0  0  0  0
   21.2225   49.1346    9.8855 H   0  0  0  0  0  0  0  0  0  0  0  0
   20.3684   49.9302   12.2795 H   0  0  0  0  0  0  0  0  0  0  0  0
   19.1040   50.8667   14.2239 H   0  0  0  0  0  0  0  0  0  0  0  0
   19.8518   53.6591   10.1744 H   0  0  0  0  0  0  0  0  0  0  0  0
   18.6161   54.5807   12.1018 H   0  0  0  0  0  0  0  0  0  0  0  0
   18.3921   53.0812   15.3686 H   0  0  0  0  0  0  0  0  0  0  0  0
   18.0243   54.5049   14.3304 H   0  0  0  0  0  0  0  0  0  0  0  0
   16.0839   52.8353   15.3220 H   0  0  0  0  0  0  0  0  0  0  0  0
   15.9153   53.7227   13.7694 H   0  0  0  0  0  0  0  0  0  0  0  0
   16.4368   52.0038   13.7694 H   0  0  0  0  0  0  0  0  0  0  0  0
  1  2  2  0
  2  3  2  0
  2  4  1  1
  2  5  1  0
  5  6  2  0
  5  8  1  0
  6  7  1  0
  7 10  2  0
  8  9  2  0
  9 10  1  0
 10 11  1  0
 11 12  1  0
  4 13  1  0
  4 14  1  0
  6 15  1  0
  7 16  1  0
  8 17  1  0
  9 18  1  0
 11 19  1  0
 11 20  1  0
 12 21  1  0
 12 22  1  0
 12 23  1  0
M  END
>  <filename_input>  (5) 
7BKA_4JC_docked.sdf

>  <pdb_id>  (5) 
7BKA_4JC

>  <pose_rank>  (5) 
4

>  <num_atoms_heavy>  (5) 
12

>  <num_torsions>  (5) 
2

>  <pose>  (5) 
[20.218565291361653, 51.74335208631131, 11.118711491408837, -0.429352541316071, 2.6264569456566362, -1.7084285550313112, 9.064349902778114, 6.793951409442305]

>  <energy>  (5) 
-472.5338746038337

>  <inter_energy>  (5) 
-457.63698162080186

>  <intra_energy>  (5) 
0.0

>  <rmsd>  (5) 
5.25072

>  <sdf_rank>  (5) 
0

$$$$

     RDKit          3D

 23 23  0  0  0  0  0  0  0  0999 V2000
   16.7966   54.1926   13.4368 O   0  0  0  0  0  0  0  0  0  0  0  0
   17.8828   53.1865   14.1771 S   0  0  1  0  0  0  0  0  0  0  0  0
   18.6365   54.0742   15.0807 O   0  0  0  0  0  0  0  0  0  0  0  0
   17.3580   52.1699   14.9322 N   0  0  0  0  0  0  0  0  0  0  0  0
   18.8710   52.4875   12.9593 C   0  0  0  0  0  0  0  0  0  0  0  0
   19.4651   51.2533   13.1821 C   0  0  0  0  0  0  0  0  0  0  0  0
   20.2532   50.6609   12.1877 C   0  0  0  0  0  0  0  0  0  0  0  0
   19.0965   53.1449   11.7458 C   0  0  0  0  0  0  0  0  0  0  0  0
   19.8700   52.5562   10.7681 C   0  0  0  0  0  0  0  0  0  0  0  0
   20.4525   51.3278   10.9716 C   0  0  0  0  0  0  0  0  0  0  0  0
   21.3188   50.7506    9.8598 C   0  0  0  0  0  0  0  0  0  0  0  0
   22.6520   51.5313    9.7688 C   0  0  0  0  0  0  0  0  0  0  0  0
   17.4719   52.3906   15.9318 H   0  0  0  0  0  0  0  0  0  0  0  0
   16.3565   52.0634   14.7161 H   0  0  0  0  0  0  0  0  0  0  0  0
   19.3166   50.7388   14.1429 H   0  0  0  0  0  0  0  0  0  0  0  0
   20.7134   49.6769   12.3604 H   0  0  0  0  0  0  0  0  0  0  0  0
   18.6543   54.1367   11.5704 H   0  0  0  0  0  0  0  0  0  0  0  0
   20.0234   53.0771    9.8114 H   0  0  0  0  0  0  0  0  0  0  0  0
   21.5300   49.6926   10.0745 H   0  0  0  0  0  0  0  0  0  0  0  0
   20.7834   50.8371    8.9028 H   0  0  0  0  0  0  0  0  0  0  0  0
   23.0205   51.7471   10.7825 H   0  0  0  0  0  0  0  0  0  0  0  0
   23.3954   50.9258    9.2296 H   0  0  0  0  0  0  0  0  0  0  0  0
   22.4877   52.4759    9.2296 H   0  0  0  0  0  0  0  0  0  0  0  0
  1  2  2  0
  2  3  2  0
  2  4  1  1
  2  5  1  0
  5  6  2  0
  5  8  1  0
  6  7  1  0
  7 10  2  0
  8  9  2  0
  9 10  1  0
 10 11  1  0
 11 12  1  0
  4 13  1  0
  4 14  1  0
  6 15  1  0
  7 16  1  0
  8 17  1  0
  9 18  1  0
 11 19  1  0
 11 20  1  0
 12 21  1  0
 12 22  1  0
 12 23  1  0
M  END
>  <filename_input>  (6) 
7BKA_4JC_docked.sdf

>  <pdb_id>  (6) 
7BKA_4JC

>  <pose_rank>  (6) 
5

>  <num_atoms_heavy>  (6) 
12

>  <num_torsions>  (6) 
2

>  <pose>  (6) 
[18.87096707065091, 52.48746143472467, 12.959296839515204, 0.7062279156611174, 4.4701328250057415, -4.315122411601545, 8.828073189417005, 6.356125748025549]

>  <energy>  (6) 
-543.8967240556144

>  <inter_energy>  (6) 
-527.8543537868192

>  <intra_energy>  (6) 
0.0

>  <rmsd>  (6) 
1.24816

>  <sdf_rank>  (6) 
0

$$$$

     RDKit          3D

 23 23  0  0  0  0  0  0  0  0999 V2000
   24.4075   49.9741   22.1036 O   0  0  0  0  0  0  0  0  0  0  0  0
   25.4162   48.6957   21.8062 S   0  0  1  0  0  0  0  0  0  0  0  0
   26.6265   49.0034   22.5892 O   0  0  0  0  0  0  0  0  0  0  0  0
   24.9687   47.4603   22.1972 N   0  0  0  0  0  0  0  0  0  0  0  0
   25.7165   48.6411   20.1166 C   0  0  0  0  0  0  0  0  0  0  0  0
   26.2349   47.4859   19.5485 C   0  0  0  0  0  0  0  0  0  0  0  0
   26.4613   47.4198   18.1683 C   0  0  0  0  0  0  0  0  0  0  0  0
   25.4558   49.7460   19.3000 C   0  0  0  0  0  0  0  0  0  0  0  0
   25.6767   49.6753   17.9410 C   0  0  0  0  0  0  0  0  0  0  0  0
   26.1768   48.5318   17.3646 C   0  0  0  0  0  0  0  0  0  0  0  0
   26.4243   48.5340   15.8618 C   0  0  0  0  0  0  0  0  0  0  0  0
   27.9397   48.6642   15.5755 C   0  0  0  0  0  0  0  0  0  0  0  0
   24.9510   47.4114   23.2259 H   0  0  0  0  0  0  0  0  0  0  0  0
   24.0188   47.3071   21.8298 H   0  0  0  0  0  0  0  0  0  0  0  0
   26.4688   46.6195   20.1846 H   0  0  0  0  0  0  0  0  0  0  0  0
   26.8604   46.4994   17.7171 H   0  0  0  0  0  0  0  0  0  0  0  0
   25.0725   50.6765   19.7444 H   0  0  0  0  0  0  0  0  0  0  0  0
   25.4495   50.5463   17.3088 H   0  0  0  0  0  0  0  0  0  0  0  0
   26.0513   47.5937   15.4298 H   0  0  0  0  0  0  0  0  0  0  0  0
   25.8967   49.3870   15.4101 H   0  0  0  0  0  0  0  0  0  0  0  0
   28.4898   48.7114   16.5269 H   0  0  0  0  0  0  0  0  0  0  0  0
   28.2800   47.7920   14.9981 H   0  0  0  0  0  0  0  0  0  0  0  0
   28.1263   49.5817   14.9981 H   0  0  0  0  0  0  0  0  0  0  0  0
  1  2  2  0
  2  3  2  0
  2  4  1  1
  2  5  1  0
  5  6  2  0
  5  8  1  0
  6  7  1  0
  7 10  2  0
  8  9  2  0
  9 10  1  0
 10 11  1  0
 11 12  1  0
  4 13  1  0
  4 14  1  0
  6 15  1  0
  7 16  1  0
  8 17  1  0
  9 18  1  0
 11 19  1  0
 11 20  1  0
 12 21  1  0
 12 22  1  0
 12 23  1  0
M  END
>  <filename_input>  (7) 
7BKA_4JC_docked.sdf

>  <pdb_id>  (7) 
7BKA_4JC

>  <pose_rank>  (7) 
6

>  <num_atoms_heavy>  (7) 
12

>  <num_torsions>  (7) 
2

>  <pose>  (7) 
[25.716488134259027, 48.641069449960334, 20.116562921102652, 0.42759329938245505, 0.43319237682610984, 0.021264562451875916, 2.3776540490074334, 0.6336209646649025]

>  <energy>  (7) 
-183.32927099830135

>  <inter_energy>  (7) 
-160.7538176863107

>  <intra_energy>  (7) 
0.0

>  <rmsd>  (7) 
10.5257

>  <sdf_rank>  (7) 
0

$$$$

     RDKit          3D

 23 23  0  0  0  0  0  0  0  0999 V2000
   25.9929   45.7611   15.6807 O   0  0  0  0  0  0  0  0  0  0  0  0
   27.3228   46.7405   15.5701 S   0  0  1  0  0  0  0  0  0  0  0  0
   28.4625   45.8109   15.6671 O   0  0  0  0  0  0  0  0  0  0  0  0
   27.4624   47.4525   14.4071 N   0  0  0  0  0  0  0  0  0  0  0  0
   27.2665   47.8576   16.8728 C   0  0  0  0  0  0  0  0  0  0  0  0
   28.4251   48.5121   17.2664 C   0  0  0  0  0  0  0  0  0  0  0  0
   28.3879   49.4437   18.3111 C   0  0  0  0  0  0  0  0  0  0  0  0
   26.0721   48.1148   17.5533 C   0  0  0  0  0  0  0  0  0  0  0  0
   26.0393   49.0356   18.5789 C   0  0  0  0  0  0  0  0  0  0  0  0
   27.1775   49.7006   18.9686 C   0  0  0  0  0  0  0  0  0  0  0  0
   27.0743   50.6822   20.1285 C   0  0  0  0  0  0  0  0  0  0  0  0
   27.0893   49.9157   21.4730 C   0  0  0  0  0  0  0  0  0  0  0  0
   27.6559   48.4394   14.6298 H   0  0  0  0  0  0  0  0  0  0  0  0
   28.2434   47.0648   13.8588 H   0  0  0  0  0  0  0  0  0  0  0  0
   29.3758   48.2983   16.7560 H   0  0  0  0  0  0  0  0  0  0  0  0
   29.3043   49.9714   18.6140 H   0  0  0  0  0  0  0  0  0  0  0  0
   25.1541   47.5797   17.2688 H   0  0  0  0  0  0  0  0  0  0  0  0
   25.0886   49.2411   19.0927 H   0  0  0  0  0  0  0  0  0  0  0  0
   27.9270   51.3764   20.0954 H   0  0  0  0  0  0  0  0  0  0  0  0
   26.1325   51.2442   20.0436 H   0  0  0  0  0  0  0  0  0  0  0  0
   27.0753   50.6348   22.3053 H   0  0  0  0  0  0  0  0  0  0  0  0
   26.2037   49.2662   21.5347 H   0  0  0  0  0  0  0  0  0  0  0  0
   27.9997   49.3013   21.5347 H   0  0  0  0  0  0  0  0  0  0  0  0
  1  2  2  0
  2  3  2  0
  2  4  1  6
  2  5  1  0
  5  6  2  0
  5  8  1  0
  6  7  1  0
  7 10  2  0
  8  9  2  0
  9 10  1  0
 10 11  1  0
 11 12  1  0
  4 13  1  0
  4 14  1  0
  6 15  1  0
  7 16  1  0
  8 17  1  0
  9 18  1  0
 11 19  1  0
 11 20  1  0
 12 21  1  0
 12 22  1  0
 12 23  1  0
M  END
>  <filename_input>  (8) 
7BKA_4JC_docked.sdf

>  <pdb_id>  (8) 
7BKA_4JC

>  <pose_rank>  (8) 
7

>  <num_atoms_heavy>  (8) 
12

>  <num_torsions>  (8) 
2

>  <pose>  (8) 
[27.26646267706684, 47.85757283350298, 16.872846655771117, 2.140200606421215, -0.7992131515505869, 1.4197949108690067, 1.7416188873621612, 0.2089280057336398]

>  <energy>  (8) 
-178.47599067418125

>  <inter_energy>  (8) 
-154.98246886507948

>  <intra_energy>  (8) 
0.0

>  <rmsd>  (8) 
11.5248

>  <sdf_rank>  (8) 
0

$$$$

     RDKit          3D

 23 23  0  0  0  0  0  0  0  0999 V2000
   29.1281   49.5474   16.5747 O   0  0  0  0  0  0  0  0  0  0  0  0
   27.8977   48.4553   16.7567 S   0  0  1  0  0  0  0  0  0  0  0  0
   26.9523   48.7961   15.6784 O   0  0  0  0  0  0  0  0  0  0  0  0
   28.2293   47.1323   16.6186 N   0  0  0  0  0  0  0  0  0  0  0  0
   27.2245   48.6731   18.3211 C   0  0  0  0  0  0  0  0  0  0  0  0
   26.7743   49.9281   18.7060 C   0  0  0  0  0  0  0  0  0  0  0  0
   26.2007   50.1140   19.9698 C   0  0  0  0  0  0  0  0  0  0  0  0
   27.1289   47.6075   19.2217 C   0  0  0  0  0  0  0  0  0  0  0  0
   26.5601   47.7942   20.4637 C   0  0  0  0  0  0  0  0  0  0  0  0
   26.0979   49.0295   20.8511 C   0  0  0  0  0  0  0  0  0  0  0  0
   25.5084   49.1699   22.2484 C   0  0  0  0  0  0  0  0  0  0  0  0
   24.0390   48.6841   22.2539 C   0  0  0  0  0  0  0  0  0  0  0  0
   28.3361   46.7061   17.5502 H   0  0  0  0  0  0  0  0  0  0  0  0
   27.4847   46.6439   16.1010 H   0  0  0  0  0  0  0  0  0  0  0  0
   26.8684   50.7797   18.0161 H   0  0  0  0  0  0  0  0  0  0  0  0
   25.8327   51.1064   20.2693 H   0  0  0  0  0  0  0  0  0  0  0  0
   27.5096   46.6153   18.9377 H   0  0  0  0  0  0  0  0  0  0  0  0
   26.4750   46.9424   21.1544 H   0  0  0  0  0  0  0  0  0  0  0  0
   26.0953   48.5635   22.9541 H   0  0  0  0  0  0  0  0  0  0  0  0
   25.5404   50.2275   22.5494 H   0  0  0  0  0  0  0  0  0  0  0  0
   23.6943   48.5702   23.2923 H   0  0  0  0  0  0  0  0  0  0  0  0
   23.4072   49.4212   21.7366 H   0  0  0  0  0  0  0  0  0  0  0  0
   23.9710   47.7157   21.7366 H   0  0  0  0  0  0  0  0  0  0  0  0
  1  2  2  0
  2  3  2  0
  2  4  1  6
  2  5  1  0
  5  6  2  0
  5  8  1  0
  6  7  1  0
  7 10  2  0
  8  9  2  0
  9 10  1  0
 10 11  1  0
 11 12  1  0
  4 13  1  0
  4 14  1  0
  6 15  1  0
  7 16  1  0
  8 17  1  0
  9 18  1  0
 11 19  1  0
 11 20  1  0
 12 21  1  0
 12 22  1  0
 12 23  1  0
M  END
>  <filename_input>  (9) 
7BKA_4JC_docked.sdf

>  <pdb_id>  (9) 
7BKA_4JC

>  <pose_rank>  (9) 
8

>  <num_atoms_heavy>  (9) 
12

>  <num_torsions>  (9) 
2

>  <pose>  (9) 
[27.22448118932517, 48.673145116346696, 18.321143415707404, 3.0217636486913424, 1.1380079443236346, 1.3666892469859004, -0.10125478896845187, 3.677097584940243]

>  <energy>  (9) 
-159.8965220128281

>  <inter_energy>  (9) 
-147.10926482130148

>  <intra_energy>  (9) 
0.0

>  <rmsd>  (9) 
11.7956

>  <sdf_rank>  (9) 
0

$$$$

     RDKit          3D

 23 23  0  0  0  0  0  0  0  0999 V2000
   12.8341   56.4154    7.3489 O   0  0  0  0  0  0  0  0  0  0  0  0
   12.2745   55.7029    5.9635 S   0  0  1  0  0  0  0  0  0  0  0  0
   11.3216   56.6843    5.4145 O   0  0  0  0  0  0  0  0  0  0  0  0
   13.2061   55.4374    4.9935 N   0  0  0  0  0  0  0  0  0  0  0  0
   11.5231   54.2212    6.3974 C   0  0  0  0  0  0  0  0  0  0  0  0
   12.1541   53.0203    6.1053 C   0  0  0  0  0  0  0  0  0  0  0  0
   11.5637   51.8058    6.4757 C   0  0  0  0  0  0  0  0  0  0  0  0
   10.2783   54.2015    7.0343 C   0  0  0  0  0  0  0  0  0  0  0  0
    9.7024   53.0036    7.4006 C   0  0  0  0  0  0  0  0  0  0  0  0
   10.3241   51.8079    7.1291 C   0  0  0  0  0  0  0  0  0  0  0  0
    9.6166   50.5219    7.5355 C   0  0  0  0  0  0  0  0  0  0  0  0
    9.9020   49.4104    6.4970 C   0  0  0  0  0  0  0  0  0  0  0  0
   14.1002   55.1826    5.4367 H   0  0  0  0  0  0  0  0  0  0  0  0
   12.8785   54.6563    4.4075 H   0  0  0  0  0  0  0  0  0  0  0  0
   13.1211   53.0223    5.5809 H   0  0  0  0  0  0  0  0  0  0  0  0
   12.0705   50.8548    6.2549 H   0  0  0  0  0  0  0  0  0  0  0  0
    9.7559   55.1465    7.2441 H   0  0  0  0  0  0  0  0  0  0  0  0
    8.7314   53.0045    7.9175 H   0  0  0  0  0  0  0  0  0  0  0  0
    9.9820   50.2012    8.5222 H   0  0  0  0  0  0  0  0  0  0  0  0
    8.5328   50.7046    7.5805 H   0  0  0  0  0  0  0  0  0  0  0  0
   10.1426   48.4731    7.0199 H   0  0  0  0  0  0  0  0  0  0  0  0
    9.0131   49.2607    5.8665 H   0  0  0  0  0  0  0  0  0  0  0  0
   10.7530   49.7074    5.8665 H   0  0  0  0  0  0  0  0  0  0  0  0
  1  2  2  0
  2  3  2  0
  2  4  1  6
  2  5  1  0
  5  6  2  0
  5  8  1  0
  6  7  1  0
  7 10  2  0
  8  9  2  0
  9 10  1  0
 10 11  1  0
 11 12  1  0
  4 13  1  0
  4 14  1  0
  6 15  1  0
  7 16  1  0
  8 17  1  0
  9 18  1  0
 11 19  1  0
 11 20  1  0
 12 21  1  0
 12 22  1  0
 12 23  1  0
M  END
>  <filename_input>  (10) 
7BKA_4JC_docked.sdf

>  <pdb_id>  (10) 
7BKA_4JC

>  <pose_rank>  (10) 
9

>  <num_atoms_heavy>  (10) 
12

>  <num_torsions>  (10) 
2

>  <pose>  (10) 
[11.523126438733847, 54.22124558099779, 6.397418997353809, -0.9057874380618061, 2.225754430693183, 0.10030209411809625, 3.3578480835686477, 1.34757769024614]

>  <energy>  (10) 
-158.02410482560447

>  <inter_energy>  (10) 
-139.9761416363206

>  <intra_energy>  (10) 
0.0

>  <rmsd>  (10) 
10.7117

>  <sdf_rank>  (10) 
0

$$$$

     RDKit          3D

 23 23  0  0  0  0  0  0  0  0999 V2000
   28.6061   61.7434   10.6894 O   0  0  0  0  0  0  0  0  0  0  0  0
   28.0526   60.3280   10.0333 S   0  0  1  0  0  0  0  0  0  0  0  0
   29.2081   59.8038    9.2833 O   0  0  0  0  0  0  0  0  0  0  0  0
   27.6543   59.3592   10.9175 N   0  0  0  0  0  0  0  0  0  0  0  0
   26.7187   60.7016    9.0189 C   0  0  0  0  0  0  0  0  0  0  0  0
   25.7442   61.5839    9.4634 C   0  0  0  0  0  0  0  0  0  0  0  0
   24.6642   61.9160    8.6363 C   0  0  0  0  0  0  0  0  0  0  0  0
   26.5905   60.1244    7.7516 C   0  0  0  0  0  0  0  0  0  0  0  0
   25.5274   60.4570    6.9391 C   0  0  0  0  0  0  0  0  0  0  0  0
   24.5632   61.3405    7.3628 C   0  0  0  0  0  0  0  0  0  0  0  0
   23.4010   61.6394    6.4249 C   0  0  0  0  0  0  0  0  0  0  0  0
   23.9373   62.1016    5.0487 C   0  0  0  0  0  0  0  0  0  0  0  0
   27.7927   59.6959   11.8811 H   0  0  0  0  0  0  0  0  0  0  0  0
   26.6576   59.1467   10.7680 H   0  0  0  0  0  0  0  0  0  0  0  0
   25.8204   62.0239   10.4687 H   0  0  0  0  0  0  0  0  0  0  0  0
   23.8989   62.6252    8.9847 H   0  0  0  0  0  0  0  0  0  0  0  0
   27.3417   59.4012    7.4011 H   0  0  0  0  0  0  0  0  0  0  0  0
   25.4497   60.0091    5.9375 H   0  0  0  0  0  0  0  0  0  0  0  0
   22.7958   60.7303    6.2935 H   0  0  0  0  0  0  0  0  0  0  0  0
   22.7830   62.4392    6.8590 H   0  0  0  0  0  0  0  0  0  0  0  0
   24.7629   62.8131    5.1970 H   0  0  0  0  0  0  0  0  0  0  0  0
   24.3014   61.2297    4.4854 H   0  0  0  0  0  0  0  0  0  0  0  0
   23.1287   62.5904    4.4854 H   0  0  0  0  0  0  0  0  0  0  0  0
  1  2  2  0
  2  3  2  0
  2  4  1  1
  2  5  1  0
  5  6  2  0
  5  8  1  0
  6  7  1  0
  7 10  2  0
  8  9  2  0
  9 10  1  0
 10 11  1  0
 11 12  1  0
  4 13  1  0
  4 14  1  0
  6 15  1  0
  7 16  1  0
  8 17  1  0
  9 18  1  0
 11 19  1  0
 11 20  1  0
 12 21  1  0
 12 22  1  0
 12 23  1  0
M  END
>  <filename_input>  (11) 
7BKA_4JC_docked.sdf

>  <pdb_id>  (11) 
7BKA_4JC

>  <pose_rank>  (11) 
10

>  <num_atoms_heavy>  (11) 
12

>  <num_torsions>  (11) 
2

>  <pose>  (11) 
[26.718672078291636, 60.70158268689342, 9.018869144254948, -0.1908236624166983, 0.16573288431389302, -2.717612431876047, -1.8361004549926332, -2.1278374221108365]

>  <energy>  (11) 
-155.63176320108536

>  <inter_energy>  (11) 
-124.68860496706645

>  <intra_energy>  (11) 
0.0

>  <rmsd>  (11) 
12.3981

>  <sdf_rank>  (11) 
0

$$$$

     RDKit          3D

 23 23  0  0  0  0  0  0  0  0999 V2000
   12.3424   52.7151    7.9898 O   0  0  0  0  0  0  0  0  0  0  0  0
   11.0877   52.6135    6.9149 S   0  0  1  0  0  0  0  0  0  0  0  0
   11.2511   51.2855    6.2965 O   0  0  0  0  0  0  0  0  0  0  0  0
    9.8241   52.6758    7.4428 N   0  0  0  0  0  0  0  0  0  0  0  0
   11.2545   53.8954    5.7848 C   0  0  0  0  0  0  0  0  0  0  0  0
   12.4978   54.1639    5.2300 C   0  0  0  0  0  0  0  0  0  0  0  0
   12.6426   55.1905    4.2888 C   0  0  0  0  0  0  0  0  0  0  0  0
   10.1586   54.6828    5.4181 C   0  0  0  0  0  0  0  0  0  0  0  0
   10.3049   55.6902    4.4882 C   0  0  0  0  0  0  0  0  0  0  0  0
   11.5285   55.9567    3.9212 C   0  0  0  0  0  0  0  0  0  0  0  0
   11.6233   57.1034    2.9234 C   0  0  0  0  0  0  0  0  0  0  0  0
   12.9688   57.8478    3.0994 C   0  0  0  0  0  0  0  0  0  0  0  0
    9.8811   52.6730    8.4712 H   0  0  0  0  0  0  0  0  0  0  0  0
    9.3623   53.5405    7.1269 H   0  0  0  0  0  0  0  0  0  0  0  0
   13.3725   53.5684    5.5306 H   0  0  0  0  0  0  0  0  0  0  0  0
   13.6260   55.3944    3.8401 H   0  0  0  0  0  0  0  0  0  0  0  0
    9.1747   54.4976    5.8739 H   0  0  0  0  0  0  0  0  0  0  0  0
    9.4299   56.2893    4.1958 H   0  0  0  0  0  0  0  0  0  0  0  0
   11.5595   56.7029    1.9009 H   0  0  0  0  0  0  0  0  0  0  0  0
   10.7958   57.8061    3.1009 H   0  0  0  0  0  0  0  0  0  0  0  0
   13.1844   57.9670    4.1715 H   0  0  0  0  0  0  0  0  0  0  0  0
   13.7739   57.2667    2.6259 H   0  0  0  0  0  0  0  0  0  0  0  0
   12.9044   58.8385    2.6259 H   0  0  0  0  0  0  0  0  0  0  0  0
  1  2  2  0
  2  3  2  0
  2  4  1  1
  2  5  1  0
  5  6  2  0
  5  8  1  0
  6  7  1  0
  7 10  2  0
  8  9  2  0
  9 10  1  0
 10 11  1  0
 11 12  1  0
  4 13  1  0
  4 14  1  0
  6 15  1  0
  7 16  1  0
  8 17  1  0
  9 18  1  0
 11 19  1  0
 11 20  1  0
 12 21  1  0
 12 22  1  0
 12 23  1  0
M  END
>  <filename_input>  (12) 
7BKA_4JC_docked.sdf

>  <pdb_id>  (12) 
7BKA_4JC

>  <pose_rank>  (12) 
11

>  <num_atoms_heavy>  (12) 
12

>  <num_torsions>  (12) 
2

>  <pose>  (12) 
[11.25451876749772, 53.89538153918578, 5.7848092050672975, -2.6397464391822503, -0.8122378710149021, -3.9437314822269114, -0.26949431308439364, 1.3058935392140394]

>  <energy>  (12) 
-154.88565824913695

>  <inter_energy>  (12) 
-141.1768584634121

>  <intra_energy>  (12) 
0.0

>  <rmsd>  (12) 
11.222

>  <sdf_rank>  (12) 
0

$$$$

     RDKit          3D

 23 23  0  0  0  0  0  0  0  0999 V2000
   10.3042   49.9211    4.4484 O   0  0  0  0  0  0  0  0  0  0  0  0
   11.6655   50.8595    4.3679 S   0  0  1  0  0  0  0  0  0  0  0  0
   12.7281   49.9987    4.9177 O   0  0  0  0  0  0  0  0  0  0  0  0
   12.0582   51.2606    3.1173 N   0  0  0  0  0  0  0  0  0  0  0  0
   11.3952   52.2654    5.3158 C   0  0  0  0  0  0  0  0  0  0  0  0
   11.9722   52.3664    6.5739 C   0  0  0  0  0  0  0  0  0  0  0  0
   11.7799   53.5181    7.3468 C   0  0  0  0  0  0  0  0  0  0  0  0
   10.5944   53.3110    4.8458 C   0  0  0  0  0  0  0  0  0  0  0  0
   10.4107   54.4447    5.6086 C   0  0  0  0  0  0  0  0  0  0  0  0
   10.9884   54.5624    6.8505 C   0  0  0  0  0  0  0  0  0  0  0  0
   10.7187   55.8298    7.6509 C   0  0  0  0  0  0  0  0  0  0  0  0
    9.7089   56.7273    6.8958 C   0  0  0  0  0  0  0  0  0  0  0  0
   12.7763   51.9942    3.2018 H   0  0  0  0  0  0  0  0  0  0  0  0
   12.4477   50.4563    2.6053 H   0  0  0  0  0  0  0  0  0  0  0  0
   12.5825   51.5391    6.9652 H   0  0  0  0  0  0  0  0  0  0  0  0
   12.2479   53.6025    8.3387 H   0  0  0  0  0  0  0  0  0  0  0  0
   10.1084   53.2286    3.8624 H   0  0  0  0  0  0  0  0  0  0  0  0
    9.7931   55.2668    5.2179 H   0  0  0  0  0  0  0  0  0  0  0  0
   10.3027   55.5592    8.6325 H   0  0  0  0  0  0  0  0  0  0  0  0
   11.6617   56.3802    7.7844 H   0  0  0  0  0  0  0  0  0  0  0  0
    9.0915   57.2761    7.6223 H   0  0  0  0  0  0  0  0  0  0  0  0
   10.2554   57.4432    6.2643 H   0  0  0  0  0  0  0  0  0  0  0  0
    9.0621   56.1006    6.2643 H   0  0  0  0  0  0  0  0  0  0  0  0
  1  2  2  0
  2  3  2  0
  2  4  1  6
  2  5  1  0
  5  6  2  0
  5  8  1  0
  6  7  1  0
  7 10  2  0
  8  9  2  0
  9 10  1  0
 10 11  1  0
 11 12  1  0
  4 13  1  0
  4 14  1  0
  6 15  1  0
  7 16  1  0
  8 17  1  0
  9 18  1  0
 11 19  1  0
 11 20  1  0
 12 21  1  0
 12 22  1  0
 12 23  1  0
M  END
>  <filename_input>  (13) 
7BKA_4JC_docked.sdf

>  <pdb_id>  (13) 
7BKA_4JC

>  <pose_rank>  (13) 
12

>  <num_atoms_heavy>  (13) 
12

>  <num_torsions>  (13) 
2

>  <pose>  (13) 
[11.395237584494446, 52.265404160097894, 5.315800978461404, -1.1999002899421412, 2.150733061011822, -2.75126370885088, 0.7420413976636493, -1.1088581440148542]

>  <energy>  (13) 
-116.36669997566791

>  <inter_energy>  (13) 
-116.34928551479865

>  <intra_energy>  (13) 
0.0

>  <rmsd>  (13) 
11.5554

>  <sdf_rank>  (13) 
0

$$$$

     RDKit          3D

 23 23  0  0  0  0  0  0  0  0999 V2000
   28.1926   46.7073   13.7773 O   0  0  0  0  0  0  0  0  0  0  0  0
   27.4732   47.5323   15.0191 S   0  0  1  0  0  0  0  0  0  0  0  0
   28.5869   48.2471   15.6682 O   0  0  0  0  0  0  0  0  0  0  0  0
   26.5281   48.4614   14.6690 N   0  0  0  0  0  0  0  0  0  0  0  0
   26.7295   46.3836   16.0561 C   0  0  0  0  0  0  0  0  0  0  0  0
   26.6700   45.0509   15.6738 C   0  0  0  0  0  0  0  0  0  0  0  0
   26.0883   44.1000   16.5212 C   0  0  0  0  0  0  0  0  0  0  0  0
   26.1725   46.7685   17.2797 C   0  0  0  0  0  0  0  0  0  0  0  0
   25.6039   45.8284   18.1126 C   0  0  0  0  0  0  0  0  0  0  0  0
   25.5515   44.5031   17.7512 C   0  0  0  0  0  0  0  0  0  0  0  0
   24.8823   43.5239   18.7067 C   0  0  0  0  0  0  0  0  0  0  0  0
   25.9565   42.7170   19.4751 C   0  0  0  0  0  0  0  0  0  0  0  0
   26.1146   48.8680   15.5202 H   0  0  0  0  0  0  0  0  0  0  0  0
   26.9694   49.2069   14.1119 H   0  0  0  0  0  0  0  0  0  0  0  0
   27.0812   44.7405   14.7019 H   0  0  0  0  0  0  0  0  0  0  0  0
   26.0529   43.0418   16.2229 H   0  0  0  0  0  0  0  0  0  0  0  0
   26.1879   47.8269   17.5792 H   0  0  0  0  0  0  0  0  0  0  0  0
   25.1863   46.1433   19.0803 H   0  0  0  0  0  0  0  0  0  0  0  0
   24.2625   44.0812   19.4245 H   0  0  0  0  0  0  0  0  0  0  0  0
   24.2527   42.8300   18.1305 H   0  0  0  0  0  0  0  0  0  0  0  0
   25.7993   42.8351   20.5574 H   0  0  0  0  0  0  0  0  0  0  0  0
   25.8774   41.6531   19.2071 H   0  0  0  0  0  0  0  0  0  0  0  0
   26.9562   43.0893   19.2071 H   0  0  0  0  0  0  0  0  0  0  0  0
  1  2  2  0
  2  3  2  0
  2  4  1  6
  2  5  1  0
  5  6  2  0
  5  8  1  0
  6  7  1  0
  7 10  2  0
  8  9  2  0
  9 10  1  0
 10 11  1  0
 11 12  1  0
  4 13  1  0
  4 14  1  0
  6 15  1  0
  7 16  1  0
  8 17  1  0
  9 18  1  0
 11 19  1  0
 11 20  1  0
 12 21  1  0
 12 22  1  0
 12 23  1  0
M  END
>  <filename_input>  (14) 
7BKA_4JC_docked.sdf

>  <pdb_id>  (14) 
7BKA_4JC

>  <pose_rank>  (14) 
13

>  <num_atoms_heavy>  (14) 
12

>  <num_torsions>  (14) 
2

>  <pose>  (14) 
[26.72950610437699, 46.38355407700121, 16.05614918246309, -0.5483591987167322, 2.965485410275169, 0.15759631353572334, -1.1949253202793944, 3.303705997277724]

>  <energy>  (14) 
-150.4300081653032

>  <inter_energy>  (14) 
-128.70619756318985

>  <intra_energy>  (14) 
0.0

>  <rmsd>  (14) 
11.6968

>  <sdf_rank>  (14) 
0

$$$$

     RDKit          3D

 23 23  0  0  0  0  0  0  0  0999 V2000
   15.9348   43.0293   20.3136 O   0  0  0  0  0  0  0  0  0  0  0  0
   17.4545   43.4862   19.8430 S   0  0  1  0  0  0  0  0  0  0  0  0
   17.6140   44.8384   20.4075 O   0  0  0  0  0  0  0  0  0  0  0  0
   18.4931   42.7174   20.3007 N   0  0  0  0  0  0  0  0  0  0  0  0
   17.5022   43.4751   18.1267 C   0  0  0  0  0  0  0  0  0  0  0  0
   18.4967   42.7621   17.4722 C   0  0  0  0  0  0  0  0  0  0  0  0
   18.5322   42.7246   16.0729 C   0  0  0  0  0  0  0  0  0  0  0  0
   16.5593   44.1811   17.3728 C   0  0  0  0  0  0  0  0  0  0  0  0
   16.5958   44.1384   15.9953 C   0  0  0  0  0  0  0  0  0  0  0  0
   17.5677   43.4242   15.3356 C   0  0  0  0  0  0  0  0  0  0  0  0
   17.5656   43.4455   13.8127 C   0  0  0  0  0  0  0  0  0  0  0  0
   16.1309   43.2090   13.2824 C   0  0  0  0  0  0  0  0  0  0  0  0
   18.4926   42.7178   21.3307 H   0  0  0  0  0  0  0  0  0  0  0  0
   18.3832   41.7525   19.9576 H   0  0  0  0  0  0  0  0  0  0  0  0
   19.2595   42.2245   18.0545 H   0  0  0  0  0  0  0  0  0  0  0  0
   19.3135   42.1489   15.5550 H   0  0  0  0  0  0  0  0  0  0  0  0
   15.7845   44.7734   17.8816 H   0  0  0  0  0  0  0  0  0  0  0  0
   15.8364   44.6837   15.4157 H   0  0  0  0  0  0  0  0  0  0  0  0
   17.9273   44.4231   13.4615 H   0  0  0  0  0  0  0  0  0  0  0  0
   18.2248   42.6480   13.4393 H   0  0  0  0  0  0  0  0  0  0  0  0
   15.4405   43.0952   14.1311 H   0  0  0  0  0  0  0  0  0  0  0  0
   15.8202   44.0680   12.6697 H   0  0  0  0  0  0  0  0  0  0  0  0
   16.1124   42.2957   12.6697 H   0  0  0  0  0  0  0  0  0  0  0  0
  1  2  2  0
  2  3  2  0
  2  4  1  1
  2  5  1  0
  5  6  2  0
  5  8  1  0
  6  7  1  0
  7 10  2  0
  8  9  2  0
  9 10  1  0
 10 11  1  0
 11 12  1  0
  4 13  1  0
  4 14  1  0
  6 15  1  0
  7 16  1  0
  8 17  1  0
  9 18  1  0
 11 19  1  0
 11 20  1  0
 12 21  1  0
 12 22  1  0
 12 23  1  0
M  END
>  <filename_input>  (15) 
7BKA_4JC_docked.sdf

>  <pdb_id>  (15) 
7BKA_4JC

>  <pose_rank>  (15) 
14

>  <num_atoms_heavy>  (15) 
12

>  <num_torsions>  (15) 
2

>  <pose>  (15) 
[17.50221009807477, 43.47511483036639, 18.126652457931527, 0.25312698321519544, 0.7008126731916162, 0.5588769939105646, 3.0096000264129352, -1.992074533910598]

>  <energy>  (15) 
-126.32114958522719

>  <inter_energy>  (15) 
-116.49371567450594

>  <intra_energy>  (15) 
0.0

>  <rmsd>  (15) 
10.6678

>  <sdf_rank>  (15) 
0

$$$$

     RDKit          3D

 23 23  0  0  0  0  0  0  0  0999 V2000
   16.2784   45.0513   16.3161 O   0  0  0  0  0  0  0  0  0  0  0  0
   16.5853   43.4674   16.6864 S   0  0  1  0  0  0  0  0  0  0  0  0
   15.2623   42.8209   16.6234 O   0  0  0  0  0  0  0  0  0  0  0  0
   17.4213   42.7917   15.8356 N   0  0  0  0  0  0  0  0  0  0  0  0
   17.2736   43.4158   18.2586 C   0  0  0  0  0  0  0  0  0  0  0  0
   18.6396   43.6025   18.4164 C   0  0  0  0  0  0  0  0  0  0  0  0
   19.2097   43.5873   19.6953 C   0  0  0  0  0  0  0  0  0  0  0  0
   16.4817   43.1796   19.3868 C   0  0  0  0  0  0  0  0  0  0  0  0
   17.0467   43.1692   20.6444 C   0  0  0  0  0  0  0  0  0  0  0  0
   18.3964   43.3667   20.8147 C   0  0  0  0  0  0  0  0  0  0  0  0
   18.9573   43.3125   22.2297 C   0  0  0  0  0  0  0  0  0  0  0  0
   19.9594   44.4719   22.4461 C   0  0  0  0  0  0  0  0  0  0  0  0
   18.0994   42.2436   16.3839 H   0  0  0  0  0  0  0  0  0  0  0  0
   16.8676   42.1579   15.2418 H   0  0  0  0  0  0  0  0  0  0  0  0
   19.2766   43.7628   17.5341 H   0  0  0  0  0  0  0  0  0  0  0  0
   20.2907   43.7479   19.8204 H   0  0  0  0  0  0  0  0  0  0  0  0
   15.4026   43.0011   19.2703 H   0  0  0  0  0  0  0  0  0  0  0  0
   16.4083   43.0004   21.5241 H   0  0  0  0  0  0  0  0  0  0  0  0
   18.1329   43.4038   22.9522 H   0  0  0  0  0  0  0  0  0  0  0  0
   19.4768   42.3540   22.3759 H   0  0  0  0  0  0  0  0  0  0  0  0
   20.1020   44.6369   23.5243 H   0  0  0  0  0  0  0  0  0  0  0  0
   20.9238   44.2142   21.9840 H   0  0  0  0  0  0  0  0  0  0  0  0
   19.5647   45.3888   21.9840 H   0  0  0  0  0  0  0  0  0  0  0  0
  1  2  2  0
  2  3  2  0
  2  4  1  6
  2  5  1  0
  5  6  2  0
  5  8  1  0
  6  7  1  0
  7 10  2  0
  8  9  2  0
  9 10  1  0
 10 11  1  0
 11 12  1  0
  4 13  1  0
  4 14  1  0
  6 15  1  0
  7 16  1  0
  8 17  1  0
  9 18  1  0
 11 19  1  0
 11 20  1  0
 12 21  1  0
 12 22  1  0
 12 23  1  0
M  END
>  <filename_input>  (16) 
7BKA_4JC_docked.sdf

>  <pdb_id>  (16) 
7BKA_4JC

>  <pose_rank>  (16) 
15

>  <num_atoms_heavy>  (16) 
12

>  <num_torsions>  (16) 
2

>  <pose>  (16) 
[17.273559919180567, 43.4158334557111, 18.258619085193953, 2.640929464584963, -1.4412703809576846, 0.5828214069466636, -2.538963450332532, 2.7194303874956054]

>  <energy>  (16) 
-134.5518584361217

>  <inter_energy>  (16) 
-109.7114336209147

>  <intra_energy>  (16) 
0.0

>  <rmsd>  (16) 
11.8922

>  <sdf_rank>  (16) 
0

$$$$

     RDKit          3D

 23 23  0  0  0  0  0  0  0  0999 V2000
   13.0481   61.4155   21.0388 O   0  0  0  0  0  0  0  0  0  0  0  0
   11.7972   60.3360   21.1380 S   0  0  1  0  0  0  0  0  0  0  0  0
   12.4351   59.0881   21.5948 O   0  0  0  0  0  0  0  0  0  0  0  0
   10.7954   60.6410   22.0226 N   0  0  0  0  0  0  0  0  0  0  0  0
   11.0997   60.1900   19.5759 C   0  0  0  0  0  0  0  0  0  0  0  0
   10.3508   59.0649   19.2610 C   0  0  0  0  0  0  0  0  0  0  0  0
    9.7560   58.9449   17.9990 C   0  0  0  0  0  0  0  0  0  0  0  0
   11.2800   61.1832   18.6081 C   0  0  0  0  0  0  0  0  0  0  0  0
   10.6896   61.0627   17.3681 C   0  0  0  0  0  0  0  0  0  0  0  0
    9.9339   59.9595   17.0490 C   0  0  0  0  0  0  0  0  0  0  0  0
    9.3360   59.8784   15.6507 C   0  0  0  0  0  0  0  0  0  0  0  0
   10.4432   60.0851   14.5892 C   0  0  0  0  0  0  0  0  0  0  0  0
   11.1439   60.5349   22.9860 H   0  0  0  0  0  0  0  0  0  0  0  0
   10.4897   61.6132   21.8732 H   0  0  0  0  0  0  0  0  0  0  0  0
   10.2240   58.2648   20.0051 H   0  0  0  0  0  0  0  0  0  0  0  0
    9.1522   58.0586   17.7546 H   0  0  0  0  0  0  0  0  0  0  0  0
   11.8962   62.0651   18.8373 H   0  0  0  0  0  0  0  0  0  0  0  0
   10.8250   61.8607   16.6233 H   0  0  0  0  0  0  0  0  0  0  0  0
    8.8747   58.8900   15.5084 H   0  0  0  0  0  0  0  0  0  0  0  0
    8.5752   60.6647   15.5369 H   0  0  0  0  0  0  0  0  0  0  0  0
   11.4047   60.2646   15.0925 H   0  0  0  0  0  0  0  0  0  0  0  0
   10.5207   59.1859   13.9603 H   0  0  0  0  0  0  0  0  0  0  0  0
   10.1911   60.9517   13.9603 H   0  0  0  0  0  0  0  0  0  0  0  0
  1  2  2  0
  2  3  2  0
  2  4  1  1
  2  5  1  0
  5  6  2  0
  5  8  1  0
  6  7  1  0
  7 10  2  0
  8  9  2  0
  9 10  1  0
 10 11  1  0
 11 12  1  0
  4 13  1  0
  4 14  1  0
  6 15  1  0
  7 16  1  0
  8 17  1  0
  9 18  1  0
 11 19  1  0
 11 20  1  0
 12 21  1  0
 12 22  1  0
 12 23  1  0
M  END
>  <filename_input>  (17) 
7BKA_4JC_docked.sdf

>  <pdb_id>  (17) 
7BKA_4JC

>  <pose_rank>  (17) 
16

>  <num_atoms_heavy>  (17) 
12

>  <num_torsions>  (17) 
2

>  <pose>  (17) 
[11.099696191337944, 60.189950061344774, 19.57587753852061, 0.4336764881813714, 0.7285990357096489, -0.9299640806036691, 1.7140691635285608, -0.26474690076596663]

>  <energy>  (17) 
-127.07596280474576

>  <inter_energy>  (17) 
-95.84493900677089

>  <intra_energy>  (17) 
0.0

>  <rmsd>  (17) 
12.7564

>  <sdf_rank>  (17) 
0

$$$$

     RDKit          3D

 23 23  0  0  0  0  0  0  0  0999 V2000
   23.3607   58.9352    5.8259 O   0  0  0  0  0  0  0  0  0  0  0  0
   23.8244   60.5151    5.9952 S   0  0  1  0  0  0  0  0  0  0  0  0
   24.0996   60.9585    4.6168 O   0  0  0  0  0  0  0  0  0  0  0  0
   22.8968   61.3702    6.5316 N   0  0  0  0  0  0  0  0  0  0  0  0
   25.2204   60.5523    6.9941 C   0  0  0  0  0  0  0  0  0  0  0  0
   25.1592   61.1672    8.2367 C   0  0  0  0  0  0  0  0  0  0  0  0
   26.2835   61.1828    9.0712 C   0  0  0  0  0  0  0  0  0  0  0  0
   26.4252   59.9800    6.5739 C   0  0  0  0  0  0  0  0  0  0  0  0
   27.5286   59.9944    7.4004 C   0  0  0  0  0  0  0  0  0  0  0  0
   27.4765   60.5882    8.6391 C   0  0  0  0  0  0  0  0  0  0  0  0
   28.7416   60.5934    9.4871 C   0  0  0  0  0  0  0  0  0  0  0  0
   28.5387   59.7149   10.7450 C   0  0  0  0  0  0  0  0  0  0  0  0
   22.9438   61.3269    7.5596 H   0  0  0  0  0  0  0  0  0  0  0  0
   23.0948   62.3315    6.2191 H   0  0  0  0  0  0  0  0  0  0  0  0
   24.2246   61.6440    8.5670 H   0  0  0  0  0  0  0  0  0  0  0  0
   26.2305   61.6595   10.0611 H   0  0  0  0  0  0  0  0  0  0  0  0
   26.4929   59.5159    5.5789 H   0  0  0  0  0  0  0  0  0  0  0  0
   28.4643   59.5239    7.0638 H   0  0  0  0  0  0  0  0  0  0  0  0
   29.5785   60.1944    8.8952 H   0  0  0  0  0  0  0  0  0  0  0  0
   28.9635   61.6247    9.7986 H   0  0  0  0  0  0  0  0  0  0  0  0
   28.6803   60.3281   11.6472 H   0  0  0  0  0  0  0  0  0  0  0  0
   27.5207   59.2982   10.7410 H   0  0  0  0  0  0  0  0  0  0  0  0
   29.2709   58.8940   10.7410 H   0  0  0  0  0  0  0  0  0  0  0  0
  1  2  2  0
  2  3  2  0
  2  4  1  1
  2  5  1  0
  5  6  2  0
  5  8  1  0
  6  7  1  0
  7 10  2  0
  8  9  2  0
  9 10  1  0
 10 11  1  0
 11 12  1  0
  4 13  1  0
  4 14  1  0
  6 15  1  0
  7 16  1  0
  8 17  1  0
  9 18  1  0
 11 19  1  0
 11 20  1  0
 12 21  1  0
 12 22  1  0
 12 23  1  0
M  END
>  <filename_input>  (18) 
7BKA_4JC_docked.sdf

>  <pdb_id>  (18) 
7BKA_4JC

>  <pose_rank>  (18) 
17

>  <num_atoms_heavy>  (18) 
12

>  <num_torsions>  (18) 
2

>  <pose>  (18) 
[25.220402177600096, 60.552259974768624, 6.9941417636691865, 3.6469958978828836, 2.028235847260677, -1.4121803737192924, -3.0643867606376705, 3.1172458741535185]

>  <energy>  (18) 
-126.87445576860955

>  <inter_energy>  (18) 
-96.62299173692845

>  <intra_energy>  (18) 
0.0

>  <rmsd>  (18) 
12.2071

>  <sdf_rank>  (18) 
0

$$$$

     RDKit          3D

 23 23  0  0  0  0  0  0  0  0999 V2000
   28.1360   60.6604    4.8380 O   0  0  0  0  0  0  0  0  0  0  0  0
   28.2623   60.7131    6.4876 S   0  0  1  0  0  0  0  0  0  0  0  0
   28.7353   59.3663    6.8549 O   0  0  0  0  0  0  0  0  0  0  0  0
   29.1489   61.6223    7.0040 N   0  0  0  0  0  0  0  0  0  0  0  0
   26.7079   61.0662    7.1259 C   0  0  0  0  0  0  0  0  0  0  0  0
   25.7378   60.0745    7.1586 C   0  0  0  0  0  0  0  0  0  0  0  0
   24.4742   60.3424    7.6990 C   0  0  0  0  0  0  0  0  0  0  0  0
   26.3970   62.3419    7.6072 C   0  0  0  0  0  0  0  0  0  0  0  0
   25.1527   62.6003    8.1418 C   0  0  0  0  0  0  0  0  0  0  0  0
   24.1880   61.6222    8.1925 C   0  0  0  0  0  0  0  0  0  0  0  0
   22.8261   61.9859    8.7691 C   0  0  0  0  0  0  0  0  0  0  0  0
   22.0927   62.9621    7.8181 C   0  0  0  0  0  0  0  0  0  0  0  0
   29.1156   61.5881    8.0329 H   0  0  0  0  0  0  0  0  0  0  0  0
   30.1007   61.3938    6.6835 H   0  0  0  0  0  0  0  0  0  0  0  0
   25.9623   59.0746    6.7586 H   0  0  0  0  0  0  0  0  0  0  0  0
   23.7100   59.5521    7.7360 H   0  0  0  0  0  0  0  0  0  0  0  0
   27.1489   63.1433    7.5589 H   0  0  0  0  0  0  0  0  0  0  0  0
   24.9287   63.6035    8.5335 H   0  0  0  0  0  0  0  0  0  0  0  0
   22.2250   61.0724    8.8879 H   0  0  0  0  0  0  0  0  0  0  0  0
   22.9654   62.4703    9.7468 H   0  0  0  0  0  0  0  0  0  0  0  0
   21.5361   63.7029    8.4109 H   0  0  0  0  0  0  0  0  0  0  0  0
   22.8284   63.4781    7.1837 H   0  0  0  0  0  0  0  0  0  0  0  0
   21.3922   62.3992    7.1837 H   0  0  0  0  0  0  0  0  0  0  0  0
  1  2  2  0
  2  3  2  0
  2  4  1  6
  2  5  1  0
  5  6  2  0
  5  8  1  0
  6  7  1  0
  7 10  2  0
  8  9  2  0
  9 10  1  0
 10 11  1  0
 11 12  1  0
  4 13  1  0
  4 14  1  0
  6 15  1  0
  7 16  1  0
  8 17  1  0
  9 18  1  0
 11 19  1  0
 11 20  1  0
 12 21  1  0
 12 22  1  0
 12 23  1  0
M  END
>  <filename_input>  (19) 
7BKA_4JC_docked.sdf

>  <pdb_id>  (19) 
7BKA_4JC

>  <pose_rank>  (19) 
18

>  <num_atoms_heavy>  (19) 
12

>  <num_torsions>  (19) 
2

>  <pose>  (19) 
[26.707949349087382, 61.066228772434634, 7.125855241206962, 0.4908789907024015, 2.461506552481949, -0.7456501719133066, 0.2637589411001793, 0.016118609844445787]

>  <energy>  (19) 
-124.97586381138414

>  <inter_energy>  (19) 
-115.83101873189918

>  <intra_energy>  (19) 
0.0

>  <rmsd>  (19) 
13.2988

>  <sdf_rank>  (19) 
0

$$$$

     RDKit          3D

 23 23  0  0  0  0  0  0  0  0999 V2000
   24.1069   50.6722   22.8592 O   0  0  0  0  0  0  0  0  0  0  0  0
   23.8592   49.7822   21.4857 S   0  0  1  0  0  0  0  0  0  0  0  0
   23.4239   48.4653   21.9846 O   0  0  0  0  0  0  0  0  0  0  0  0
   22.8963   50.2418   20.6250 N   0  0  0  0  0  0  0  0  0  0  0  0
   25.3452   49.7078   20.6288 C   0  0  0  0  0  0  0  0  0  0  0  0
   25.8213   48.4820   20.1854 C   0  0  0  0  0  0  0  0  0  0  0  0
   27.0193   48.4104   19.4641 C   0  0  0  0  0  0  0  0  0  0  0  0
   26.0923   50.8626   20.3758 C   0  0  0  0  0  0  0  0  0  0  0  0
   27.2694   50.7880   19.6619 C   0  0  0  0  0  0  0  0  0  0  0  0
   27.7442   49.5813   19.2055 C   0  0  0  0  0  0  0  0  0  0  0  0
   29.0664   49.5692   18.4496 C   0  0  0  0  0  0  0  0  0  0  0  0
   28.8093   49.3626   16.9375 C   0  0  0  0  0  0  0  0  0  0  0  0
   22.1049   50.6195   21.1652 H   0  0  0  0  0  0  0  0  0  0  0  0
   23.2925   50.9845   20.0315 H   0  0  0  0  0  0  0  0  0  0  0  0
   25.2557   47.5635   20.4014 H   0  0  0  0  0  0  0  0  0  0  0  0
   27.3895   47.4399   19.1022 H   0  0  0  0  0  0  0  0  0  0  0  0
   25.7389   51.8354   20.7482 H   0  0  0  0  0  0  0  0  0  0  0  0
   27.8369   51.7072   19.4547 H   0  0  0  0  0  0  0  0  0  0  0  0
   29.5829   50.5281   18.6037 H   0  0  0  0  0  0  0  0  0  0  0  0
   29.6901   48.7450   18.8260 H   0  0  0  0  0  0  0  0  0  0  0  0
   27.9586   48.6788   16.8003 H   0  0  0  0  0  0  0  0  0  0  0  0
   28.5805   50.3310   16.4687 H   0  0  0  0  0  0  0  0  0  0  0  0
   29.7059   48.9310   16.4687 H   0  0  0  0  0  0  0  0  0  0  0  0
  1  2  2  0
  2  3  2  0
  2  4  1  6
  2  5  1  0
  5  6  2  0
  5  8  1  0
  6  7  1  0
  7 10  2  0
  8  9  2  0
  9 10  1  0
 10 11  1  0
 11 12  1  0
  4 13  1  0
  4 14  1  0
  6 15  1  0
  7 16  1  0
  8 17  1  0
  9 18  1  0
 11 19  1  0
 11 20  1  0
 12 21  1  0
 12 22  1  0
 12 23  1  0
M  END
>  <filename_input>  (20) 
7BKA_4JC_docked.sdf

>  <pdb_id>  (20) 
7BKA_4JC

>  <pose_rank>  (20) 
19

>  <num_atoms_heavy>  (20) 
12

>  <num_torsions>  (20) 
2

>  <pose>  (20) 
[25.34518546868778, 49.70775802975825, 20.628752977596292, 15.737137153702205, -11.606689593744296, -2.727923622518199, -11.346334806321769, 3.2556132340660757]

>  <energy>  (20) 
-105.38081160220901

>  <inter_energy>  (20) 
-99.69710575266865

>  <intra_energy>  (20) 
0.0

>  <rmsd>  (20) 
10.6394

>  <sdf_rank>  (20) 
0

$$$$

     RDKit          3D

 23 23  0  0  0  0  0  0  0  0999 V2000
   12.1664   45.1084   10.6493 O   0  0  0  0  0  0  0  0  0  0  0  0
   12.8324   43.6007   10.4963 S   0  0  1  0  0  0  0  0  0  0  0  0
   11.8837   42.7161   11.1962 O   0  0  0  0  0  0  0  0  0  0  0  0
   12.9822   43.1254    9.2192 N   0  0  0  0  0  0  0  0  0  0  0  0
   14.3812   43.6293   11.2369 C   0  0  0  0  0  0  0  0  0  0  0  0
   15.4436   42.9726   10.6321 C   0  0  0  0  0  0  0  0  0  0  0  0
   16.7172   43.0089   11.2129 C   0  0  0  0  0  0  0  0  0  0  0  0
   14.5912   44.2970   12.4476 C   0  0  0  0  0  0  0  0  0  0  0  0
   15.8476   44.3333   13.0141 C   0  0  0  0  0  0  0  0  0  0  0  0
   16.9109   43.6984   12.4173 C   0  0  0  0  0  0  0  0  0  0  0  0
   18.2641   43.7545   13.1139 C   0  0  0  0  0  0  0  0  0  0  0  0
   18.2224   42.9224   14.4182 C   0  0  0  0  0  0  0  0  0  0  0  0
   13.2916   42.1435    9.2524 H   0  0  0  0  0  0  0  0  0  0  0  0
   12.0817   43.1850    8.7229 H   0  0  0  0  0  0  0  0  0  0  0  0
   15.2847   42.4218    9.6932 H   0  0  0  0  0  0  0  0  0  0  0  0
   17.5614   42.4986   10.7262 H   0  0  0  0  0  0  0  0  0  0  0  0
   13.7496   44.7959   12.9505 H   0  0  0  0  0  0  0  0  0  0  0  0
   16.0015   44.8781   13.9572 H   0  0  0  0  0  0  0  0  0  0  0  0
   19.0355   43.3452   12.4450 H   0  0  0  0  0  0  0  0  0  0  0  0
   18.5006   44.8002   13.3599 H   0  0  0  0  0  0  0  0  0  0  0  0
   18.2562   43.5982   15.2855 H   0  0  0  0  0  0  0  0  0  0  0  0
   17.2937   42.3337   14.4480 H   0  0  0  0  0  0  0  0  0  0  0  0
   19.0877   42.2439   14.4480 H   0  0  0  0  0  0  0  0  0  0  0  0
  1  2  2  0
  2  3  2  0
  2  4  1  6
  2  5  1  0
  5  6  2  0
  5  8  1  0
  6  7  1  0
  7 10  2  0
  8  9  2  0
  9 10  1  0
 10 11  1  0
 11 12  1  0
  4 13  1  0
  4 14  1  0
  6 15  1  0
  7 16  1  0
  8 17  1  0
  9 18  1  0
 11 19  1  0
 11 20  1  0
 12 21  1  0
 12 22  1  0
 12 23  1  0
M  END
>  <filename_input>  (21) 
7BKA_4JC_docked.sdf

>  <pdb_id>  (21) 
7BKA_4JC

>  <pose_rank>  (21) 
20

>  <num_atoms_heavy>  (21) 
12

>  <num_torsions>  (21) 
2

>  <pose>  (21) 
[14.381214568587303, 43.62926517413602, 11.236948046605349, -3.182247664511607, 2.616776973984756, -0.015527524900805143, 2.795085460608879, 0.016727245117085968]

>  <energy>  (21) 
-99.87492577352182

>  <inter_energy>  (21) 
-111.18178980862236

>  <intra_energy>  (21) 
0.0

>  <rmsd>  (21) 
10.5664

>  <sdf_rank>  (21) 
0

$$$$

     RDKit          3D

 23 23  0  0  0  0  0  0  0  0999 V2000
   11.0545   48.2389   17.6195 O   0  0  0  0  0  0  0  0  0  0  0  0
   10.8348   46.7188   17.0022 S   0  0  1  0  0  0  0  0  0  0  0  0
    9.3736   46.5274   17.0302 O   0  0  0  0  0  0  0  0  0  0  0  0
   11.2581   46.5151   15.7143 N   0  0  0  0  0  0  0  0  0  0  0  0
   11.6675   45.6110   18.0159 C   0  0  0  0  0  0  0  0  0  0  0  0
   11.6830   45.8148   19.3885 C   0  0  0  0  0  0  0  0  0  0  0  0
   12.3375   44.9055   20.2285 C   0  0  0  0  0  0  0  0  0  0  0  0
   12.3405   44.5077   17.4816 C   0  0  0  0  0  0  0  0  0  0  0  0
   12.9805   43.6130   18.3127 C   0  0  0  0  0  0  0  0  0  0  0  0
   12.9910   43.7965   19.6750 C   0  0  0  0  0  0  0  0  0  0  0  0
   13.7427   42.7849   20.5303 C   0  0  0  0  0  0  0  0  0  0  0  0
   15.2603   43.0868   20.4954 C   0  0  0  0  0  0  0  0  0  0  0  0
   12.1861   46.0684   15.7245 H   0  0  0  0  0  0  0  0  0  0  0  0
   10.5883   45.9041   15.2254 H   0  0  0  0  0  0  0  0  0  0  0  0
   11.1795   46.6934   19.8180 H   0  0  0  0  0  0  0  0  0  0  0  0
   12.3385   45.0611   21.3174 H   0  0  0  0  0  0  0  0  0  0  0  0
   12.3594   44.3530   16.3927 H   0  0  0  0  0  0  0  0  0  0  0  0
   13.4901   42.7397   17.8794 H   0  0  0  0  0  0  0  0  0  0  0  0
   13.3827   42.8462   21.5679 H   0  0  0  0  0  0  0  0  0  0  0  0
   13.5662   41.7743   20.1334 H   0  0  0  0  0  0  0  0  0  0  0  0
   15.6427   43.1629   21.5240 H   0  0  0  0  0  0  0  0  0  0  0  0
   15.7836   42.2752   19.9688 H   0  0  0  0  0  0  0  0  0  0  0  0
   15.4331   44.0369   19.9688 H   0  0  0  0  0  0  0  0  0  0  0  0
  1  2  2  0
  2  3  2  0
  2  4  1  6
  2  5  1  0
  5  6  2  0
  5  8  1  0
  6  7  1  0
  7 10  2  0
  8  9  2  0
  9 10  1  0
 10 11  1  0
 11 12  1  0
  4 13  1  0
  4 14  1  0
  6 15  1  0
  7 16  1  0
  8 17  1  0
  9 18  1  0
 11 19  1  0
 11 20  1  0
 12 21  1  0
 12 22  1  0
 12 23  1  0
M  END
>  <filename_input>  (22) 
7BKA_4JC_docked.sdf

>  <pdb_id>  (22) 
7BKA_4JC

>  <pose_rank>  (22) 
21

>  <num_atoms_heavy>  (22) 
12

>  <num_torsions>  (22) 
2

>  <pose>  (22) 
[11.667507967476663, 45.61100401449792, 18.015891069328365, 4.4872041580641, 1.3520136427339398, 0.4630202708241208, -0.40513211220338863, 0.20463730061708313]

>  <energy>  (22) 
-52.41619998398241

>  <inter_energy>  (22) 
-57.76954158894743

>  <intra_energy>  (22) 
0.0

>  <rmsd>  (22) 
12.1033

>  <sdf_rank>  (22) 
0

$$$$

     RDKit          3D

 23 23  0  0  0  0  0  0  0  0999 V2000
   14.0892   45.3996   12.9139 O   0  0  0  0  0  0  0  0  0  0  0  0
   14.5237   43.8218   12.6649 S   0  0  1  0  0  0  0  0  0  0  0  0
   15.8927   43.7368   13.2045 O   0  0  0  0  0  0  0  0  0  0  0  0
   13.7653   42.8718   13.2986 N   0  0  0  0  0  0  0  0  0  0  0  0
   14.4567   43.5150   10.9769 C   0  0  0  0  0  0  0  0  0  0  0  0
   13.2286   43.4942   10.3312 C   0  0  0  0  0  0  0  0  0  0  0  0
   13.1620   43.2697    8.9507 C   0  0  0  0  0  0  0  0  0  0  0  0
   15.6204   43.2760   10.2390 C   0  0  0  0  0  0  0  0  0  0  0  0
   15.5505   43.0591    8.8793 C   0  0  0  0  0  0  0  0  0  0  0  0
   14.3410   43.0499    8.2260 C   0  0  0  0  0  0  0  0  0  0  0  0
   14.3357   42.7743    6.7281 C   0  0  0  0  0  0  0  0  0  0  0  0
   14.4827   44.1015    5.9456 C   0  0  0  0  0  0  0  0  0  0  0  0
   13.8554   42.9847   14.3185 H   0  0  0  0  0  0  0  0  0  0  0  0
   12.7781   42.9831   13.0268 H   0  0  0  0  0  0  0  0  0  0  0  0
   12.3043   43.6546   10.9057 H   0  0  0  0  0  0  0  0  0  0  0  0
   12.1890   43.2659    8.4376 H   0  0  0  0  0  0  0  0  0  0  0  0
   16.5964   43.2611   10.7461 H   0  0  0  0  0  0  0  0  0  0  0  0
   16.4759   42.8909    8.3089 H   0  0  0  0  0  0  0  0  0  0  0  0
   15.1747   42.1086    6.4772 H   0  0  0  0  0  0  0  0  0  0  0  0
   13.3845   42.2957    6.4522 H   0  0  0  0  0  0  0  0  0  0  0  0
   14.5753   44.9371    6.6550 H   0  0  0  0  0  0  0  0  0  0  0  0
   15.3814   44.0565    5.3129 H   0  0  0  0  0  0  0  0  0  0  0  0
   13.5960   44.2542    5.3129 H   0  0  0  0  0  0  0  0  0  0  0  0
  1  2  2  0
  2  3  2  0
  2  4  1  1
  2  5  1  0
  5  6  2  0
  5  8  1  0
  6  7  1  0
  7 10  2  0
  8  9  2  0
  9 10  1  0
 10 11  1  0
 11 12  1  0
  4 13  1  0
  4 14  1  0
  6 15  1  0
  7 16  1  0
  8 17  1  0
  9 18  1  0
 11 19  1  0
 11 20  1  0
 12 21  1  0
 12 22  1  0
 12 23  1  0
M  END
>  <filename_input>  (23) 
7BKA_4JC_docked.sdf

>  <pdb_id>  (23) 
7BKA_4JC

>  <pose_rank>  (23) 
22

>  <num_atoms_heavy>  (23) 
12

>  <num_torsions>  (23) 
2

>  <pose>  (23) 
[14.456728264891051, 43.515028660065035, 10.976890254488914, -1.5545929471640554, 0.45254047839152356, 3.9391503034096016, -2.25572540706173, -2.7427649542901613]

>  <energy>  (23) 
-88.71979502302604

>  <inter_energy>  (23) 
-100.2313151491293

>  <intra_energy>  (23) 
0.0

>  <rmsd>  (23) 
10.8043

>  <sdf_rank>  (23) 
0

$$$$

     RDKit          3D

 23 23  0  0  0  0  0  0  0  0999 V2000
   16.3487   60.9389    5.6708 O   0  0  0  0  0  0  0  0  0  0  0  0
   17.1698   60.2503    4.4091 S   0  0  1  0  0  0  0  0  0  0  0  0
   16.9297   58.8050    4.5704 O   0  0  0  0  0  0  0  0  0  0  0  0
   16.7617   60.6034    3.1490 N   0  0  0  0  0  0  0  0  0  0  0  0
   18.8277   60.6679    4.5665 C   0  0  0  0  0  0  0  0  0  0  0  0
   19.1966   62.0046    4.6226 C   0  0  0  0  0  0  0  0  0  0  0  0
   20.5428   62.3582    4.7757 C   0  0  0  0  0  0  0  0  0  0  0  0
   19.8183   59.6829    4.6306 C   0  0  0  0  0  0  0  0  0  0  0  0
   21.1422   60.0355    4.7851 C   0  0  0  0  0  0  0  0  0  0  0  0
   21.5185   61.3557    4.8559 C   0  0  0  0  0  0  0  0  0  0  0  0
   23.0014   61.6733    4.9966 C   0  0  0  0  0  0  0  0  0  0  0  0
   23.2712   62.3431    6.3656 C   0  0  0  0  0  0  0  0  0  0  0  0
   15.9844   61.2759    3.2156 H   0  0  0  0  0  0  0  0  0  0  0  0
   17.5473   61.0358    2.6422 H   0  0  0  0  0  0  0  0  0  0  0  0
   18.4290   62.7888    4.5466 H   0  0  0  0  0  0  0  0  0  0  0  0
   20.8329   63.4177    4.8327 H   0  0  0  0  0  0  0  0  0  0  0  0
   19.5398   58.6212    4.5575 H   0  0  0  0  0  0  0  0  0  0  0  0
   21.9083   59.2490    4.8526 H   0  0  0  0  0  0  0  0  0  0  0  0
   23.5819   60.7416    4.9261 H   0  0  0  0  0  0  0  0  0  0  0  0
   23.3014   62.3613    4.1925 H   0  0  0  0  0  0  0  0  0  0  0  0
   22.9923   61.6509    7.1737 H   0  0  0  0  0  0  0  0  0  0  0  0
   24.3397   62.5915    6.4480 H   0  0  0  0  0  0  0  0  0  0  0  0
   22.6735   63.2628    6.4480 H   0  0  0  0  0  0  0  0  0  0  0  0
  1  2  2  0
  2  3  2  0
  2  4  1  6
  2  5  1  0
  5  6  2  0
  5  8  1  0
  6  7  1  0
  7 10  2  0
  8  9  2  0
  9 10  1  0
 10 11  1  0
 11 12  1  0
  4 13  1  0
  4 14  1  0
  6 15  1  0
  7 16  1  0
  8 17  1  0
  9 18  1  0
 11 19  1  0
 11 20  1  0
 12 21  1  0
 12 22  1  0
 12 23  1  0
M  END
>  <filename_input>  (24) 
7BKA_4JC_docked.sdf

>  <pdb_id>  (24) 
7BKA_4JC

>  <pose_rank>  (24) 
23

>  <num_atoms_heavy>  (24) 
12

>  <num_torsions>  (24) 
2

>  <pose>  (24) 
[18.827747792891106, 60.66793611137307, 4.566525352584009, 3.2061360794208764, 0.15162684904588322, -1.7529025304535522, -2.0491225397239936, -3.1880364400202192]

>  <energy>  (24) 
-111.1179128141014

>  <inter_energy>  (24) 
-105.7236845115882

>  <intra_energy>  (24) 
0.0

>  <rmsd>  (24) 
11.8636

>  <sdf_rank>  (24) 
0

$$$$

     RDKit          3D

 23 23  0  0  0  0  0  0  0  0999 V2000
   11.9468   42.7548   16.7479 O   0  0  0  0  0  0  0  0  0  0  0  0
   11.7315   43.7759   15.4630 S   0  0  1  0  0  0  0  0  0  0  0  0
   10.5650   43.2199   14.7538 O   0  0  0  0  0  0  0  0  0  0  0  0
   11.4535   45.0845   15.7622 N   0  0  0  0  0  0  0  0  0  0  0  0
   13.1621   43.7408   14.5142 C   0  0  0  0  0  0  0  0  0  0  0  0
   14.1425   42.7968   14.7852 C   0  0  0  0  0  0  0  0  0  0  0  0
   15.3028   42.7415   14.0033 C   0  0  0  0  0  0  0  0  0  0  0  0
   13.3627   44.6547   13.4749 C   0  0  0  0  0  0  0  0  0  0  0  0
   14.5050   44.5943   12.7052 C   0  0  0  0  0  0  0  0  0  0  0  0
   15.4770   43.6548   12.9551 C   0  0  0  0  0  0  0  0  0  0  0  0
   16.7264   43.6649   12.0842 C   0  0  0  0  0  0  0  0  0  0  0  0
   17.8046   42.7379   12.6953 C   0  0  0  0  0  0  0  0  0  0  0  0
   11.4280   45.2050   16.7848 H   0  0  0  0  0  0  0  0  0  0  0  0
   12.1845   45.6907   15.3633 H   0  0  0  0  0  0  0  0  0  0  0  0
   14.0077   42.0897   15.6170 H   0  0  0  0  0  0  0  0  0  0  0  0
   16.0737   41.9848   14.2109 H   0  0  0  0  0  0  0  0  0  0  0  0
   12.6053   45.4258   13.2705 H   0  0  0  0  0  0  0  0  0  0  0  0
   14.6405   45.3081   11.8793 H   0  0  0  0  0  0  0  0  0  0  0  0
   16.4700   43.3098   11.0751 H   0  0  0  0  0  0  0  0  0  0  0  0
   17.1205   44.6904   12.0296 H   0  0  0  0  0  0  0  0  0  0  0  0
   17.7495   42.7853   13.7929 H   0  0  0  0  0  0  0  0  0  0  0  0
   17.6298   41.7038   12.3637 H   0  0  0  0  0  0  0  0  0  0  0  0
   18.8008   43.0659   12.3637 H   0  0  0  0  0  0  0  0  0  0  0  0
  1  2  2  0
  2  3  2  0
  2  4  1  1
  2  5  1  0
  5  6  2  0
  5  8  1  0
  6  7  1  0
  7 10  2  0
  8  9  2  0
  9 10  1  0
 10 11  1  0
 11 12  1  0
  4 13  1  0
  4 14  1  0
  6 15  1  0
  7 16  1  0
  8 17  1  0
  9 18  1  0
 11 19  1  0
 11 20  1  0
 12 21  1  0
 12 22  1  0
 12 23  1  0
M  END
>  <filename_input>  (25) 
7BKA_4JC_docked.sdf

>  <pdb_id>  (25) 
7BKA_4JC

>  <pose_rank>  (25) 
24

>  <num_atoms_heavy>  (25) 
12

>  <num_torsions>  (25) 
2

>  <pose>  (25) 
[13.162067907745056, 43.740763069020915, 14.514168181860304, -1.561095901984673, 3.085481055576542, -4.595284289163483, -0.890274888284813, 1.759167408061925]

>  <energy>  (25) 
-94.5482172979848

>  <inter_energy>  (25) 
-97.34904937480509

>  <intra_energy>  (25) 
0.0

>  <rmsd>  (25) 
10.6012

>  <sdf_rank>  (25) 
0

$$$$

     RDKit          3D

 23 23  0  0  0  0  0  0  0  0999 V2000
   18.4770   53.8730   15.9500 O   0  0  0  0  0  0  0  0  0  0  0  0
   17.5110   53.6780   14.6200 S   0  0  1  0  0  0  0  0  0  0  0  0
   16.4280   52.7950   15.0890 O   0  0  0  0  0  0  0  0  0  0  0  0
   16.9340   54.8130   14.1120 N   0  0  0  0  0  0  0  0  0  0  0  0
   18.4580   52.9630   13.3790 C   0  0  0  0  0  0  0  0  0  0  0  0
   19.0310   51.7160   13.5850 C   0  0  0  0  0  0  0  0  0  0  0  0
   19.7850   51.1110   12.5720 C   0  0  0  0  0  0  0  0  0  0  0  0
   18.6710   53.6200   12.1630 C   0  0  0  0  0  0  0  0  0  0  0  0
   19.4110   53.0190   11.1670 C   0  0  0  0  0  0  0  0  0  0  0  0
   19.9720   51.7780   11.3540 C   0  0  0  0  0  0  0  0  0  0  0  0
   20.8020   51.1870   10.2220 C   0  0  0  0  0  0  0  0  0  0  0  0
   22.1020   52.0060   10.0360 C   0  0  0  0  0  0  0  0  0  0  0  0
   16.6264   55.4180   14.8867 H   0  0  0  0  0  0  0  0  0  0  0  0
   17.6207   55.3180   13.5338 H   0  0  0  0  0  0  0  0  0  0  0  0
   18.8924   51.2012   14.5472 H   0  0  0  0  0  0  0  0  0  0  0  0
   20.2283   50.1170   12.7316 H   0  0  0  0  0  0  0  0  0  0  0  0
   18.2459   54.6214   12.0003 H   0  0  0  0  0  0  0  0  0  0  0  0
   19.5546   53.5400   10.2089 H   0  0  0  0  0  0  0  0  0  0  0  0
   21.0592   50.1453   10.4642 H   0  0  0  0  0  0  0  0  0  0  0  0
   20.2179   51.2199    9.2905 H   0  0  0  0  0  0  0  0  0  0  0  0
   22.5154   52.2665   11.0215 H   0  0  0  0  0  0  0  0  0  0  0  0
   22.8360   51.4069    9.4771 H   0  0  0  0  0  0  0  0  0  0  0  0
   21.8785   52.9267    9.4771 H   0  0  0  0  0  0  0  0  0  0  0  0
  1  2  2  0
  2  3  2  0
  2  4  1  6
  2  5  1  0
  5  6  2  0
  5  8  1  0
  6  7  1  0
  7 10  2  0
  8  9  2  0
  9 10  1  0
 10 11  1  0
 11 12  1  0
  4 13  1  0
  4 14  1  0
  6 15  1  0
  7 16  1  0
  8 17  1  0
  9 18  1  0
 11 19  1  0
 11 20  1  0
 12 21  1  0
 12 22  1  0
 12 23  1  0
M  END
>  <filename_input>  (26) 
7BKA_4JC_docked.sdf

>  <pdb_id>  (26) 
7BKA_4JC

>  <pose_rank>  (26) 
25

>  <num_atoms_heavy>  (26) 
12

>  <num_torsions>  (26) 
2

>  <pose>  (26) 
[18.458, 52.963, 13.379, 1e-06, 1e-06, 1e-06, 0.0, 0.0]

>  <energy>  (26) 
-677.1947556420522

>  <inter_energy>  (26) 
-664.0608426037778

>  <intra_energy>  (26) 
0.0

>  <rmsd>  (26) 
0.0

>  <sdf_rank>  (26) 
0

$$$$
