
     RDKit          3D

 15 15  0  0  0  0  0  0  0  0999 V2000
   58.6021   17.6415   12.3336 C   0  0  0  0  0  0  0  0  0  0  0  0
   58.5446   17.4493   13.8298 C   0  0  0  0  0  0  0  0  0  0  0  0
   59.5655   16.8113   14.4909 C   0  0  0  0  0  0  0  0  0  0  0  0
   59.4627   16.6054   15.8591 C   0  0  0  0  0  0  0  0  0  0  0  0
   57.4089   17.6365   15.9288 C   0  0  0  0  0  0  0  0  0  0  0  0
   56.2095   18.0658   16.7396 C   0  0  0  0  0  0  0  0  0  0  0  0
   57.4294   17.8642   14.5296 C   0  0  0  0  0  0  0  0  0  0  0  0
   56.4490   18.4633   13.8804 F   0  0  0  0  0  0  0  0  0  0  0  0
   58.4323   16.9825   16.5388 N   0  0  0  0  0  0  0  0  0  0  0  0
   58.3276   18.7344   11.7340 O   0  0  0  0  0  0  0  0  0  0  0  0
   58.8390   16.5991   11.7065 O   0  0  0  0  0  0  0  0  0  0  0  0
   55.5081   19.1107   16.4352 O   0  0  0  0  0  0  0  0  0  0  0  0
   55.8825   17.4565   17.7688 O   0  0  0  0  0  0  0  0  0  0  0  0
   60.4545   16.4676   13.9419 H   0  0  0  0  0  0  0  0  0  0  0  0
   60.2888   16.1026   16.3833 H   0  0  0  0  0  0  0  0  0  0  0  0
  1  2  1  0
  1 10  1  0
  1 11  2  0
  2  3  2  0
  2  7  1  0
  3  4  1  0
  4  9  2  0
  5  6  1  0
  5  7  2  0
  5  9  1  0
  6 12  2  0
  6 13  1  0
  7  8  1  0
  3 14  1  0
  4 15  1  0
M  CHG  2  10  -1  13  -1
M  END
>  <filename_input>  (1) 
7BMI_U4B_docked.sdf

>  <pdb_id>  (1) 
7BMI_U4B

>  <pose_rank>  (1) 
0

>  <num_atoms_heavy>  (1) 
13

>  <num_torsions>  (1) 
2

>  <pose>  (1) 
[58.54456018414594, 17.449328667314546, 13.829790615271179, -0.4967408341080858, -4.697338416165169, 4.096907028839598, -0.08060563289946418, -0.625391736119267]

>  <energy>  (1) 
-902.8717385320815

>  <inter_energy>  (1) 
-876.4921327118194

>  <intra_energy>  (1) 
8.198085454474764

>  <rmsd>  (1) 
0.408413

>  <sdf_rank>  (1) 
0

$$$$

     RDKit          3D

 15 15  0  0  0  0  0  0  0  0999 V2000
   58.7446   17.3352   12.5139 C   0  0  0  0  0  0  0  0  0  0  0  0
   58.0840   17.8469   13.7712 C   0  0  0  0  0  0  0  0  0  0  0  0
   58.0847   19.1890   14.0629 C   0  0  0  0  0  0  0  0  0  0  0  0
   57.5131   19.6250   15.2495 C   0  0  0  0  0  0  0  0  0  0  0  0
   56.9450   17.4780   15.8442 C   0  0  0  0  0  0  0  0  0  0  0  0
   56.3293   16.5414   16.8561 C   0  0  0  0  0  0  0  0  0  0  0  0
   57.5286   16.9523   14.6638 C   0  0  0  0  0  0  0  0  0  0  0  0
   57.5469   15.6640   14.3785 F   0  0  0  0  0  0  0  0  0  0  0  0
   56.9866   18.8117   16.1023 N   0  0  0  0  0  0  0  0  0  0  0  0
   59.6334   17.9709   11.8542 O   0  0  0  0  0  0  0  0  0  0  0  0
   58.2681   16.2687   12.0998 O   0  0  0  0  0  0  0  0  0  0  0  0
   55.7927   16.9674   17.9547 O   0  0  0  0  0  0  0  0  0  0  0  0
   56.3647   15.3126   16.6939 O   0  0  0  0  0  0  0  0  0  0  0  0
   58.5332   19.9100   13.3637 H   0  0  0  0  0  0  0  0  0  0  0  0
   57.5085   20.7024   15.4715 H   0  0  0  0  0  0  0  0  0  0  0  0
  1  2  1  0
  1 10  1  0
  1 11  2  0
  2  3  2  0
  2  7  1  0
  3  4  1  0
  4  9  2  0
  5  6  1  0
  5  7  2  0
  5  9  1  0
  6 12  2  0
  6 13  1  0
  7  8  1  0
  3 14  1  0
  4 15  1  0
M  CHG  2  10  -1  13  -1
M  END
>  <filename_input>  (2) 
7BMI_U4B_docked.sdf

>  <pdb_id>  (2) 
7BMI_U4B

>  <pose_rank>  (2) 
1

>  <num_atoms_heavy>  (2) 
13

>  <num_torsions>  (2) 
2

>  <pose>  (2) 
[58.084001924558926, 17.84686818147997, 13.771198341641247, -0.8176142553553261, -0.06967766370061904, 1.7635726852723979, 2.622246383837573, 9.360463937229785]

>  <energy>  (2) 
-631.9859061097947

>  <inter_energy>  (2) 
-637.8781074461165

>  <intra_energy>  (2) 
26.162551853820545

>  <rmsd>  (2) 
2.08571

>  <sdf_rank>  (2) 
0

$$$$

     RDKit          3D

 15 15  0  0  0  0  0  0  0  0999 V2000
   58.6378   17.7104   12.3842 C   0  0  0  0  0  0  0  0  0  0  0  0
   58.6297   17.3586   13.8522 C   0  0  0  0  0  0  0  0  0  0  0  0
   59.6171   16.5665   14.3851 C   0  0  0  0  0  0  0  0  0  0  0  0
   59.5570   16.2191   15.7270 C   0  0  0  0  0  0  0  0  0  0  0  0
   57.6102   17.4072   16.0176 C   0  0  0  0  0  0  0  0  0  0  0  0
   56.4919   17.8442   16.9334 C   0  0  0  0  0  0  0  0  0  0  0  0
   57.5889   17.7865   14.6517 C   0  0  0  0  0  0  0  0  0  0  0  0
   56.6389   18.5355   14.1243 F   0  0  0  0  0  0  0  0  0  0  0  0
   58.5963   16.6047   16.4979 N   0  0  0  0  0  0  0  0  0  0  0  0
   57.6383   17.5730   11.6024 O   0  0  0  0  0  0  0  0  0  0  0  0
   59.7512   18.0516   11.9601 O   0  0  0  0  0  0  0  0  0  0  0  0
   55.3397   18.2264   16.4829 O   0  0  0  0  0  0  0  0  0  0  0  0
   56.6576   17.9047   18.1606 O   0  0  0  0  0  0  0  0  0  0  0  0
   60.4460   16.2114   13.7552 H   0  0  0  0  0  0  0  0  0  0  0  0
   60.3567   15.5927   16.1490 H   0  0  0  0  0  0  0  0  0  0  0  0
  1  2  1  0
  1 10  1  0
  1 11  2  0
  2  3  2  0
  2  7  1  0
  3  4  1  0
  4  9  2  0
  5  6  1  0
  5  7  2  0
  5  9  1  0
  6 12  2  0
  6 13  1  0
  7  8  1  0
  3 14  1  0
  4 15  1  0
M  CHG  2  10  -1  13  -1
M  END
>  <filename_input>  (3) 
7BMI_U4B_docked.sdf

>  <pdb_id>  (3) 
7BMI_U4B

>  <pose_rank>  (3) 
2

>  <num_atoms_heavy>  (3) 
13

>  <num_torsions>  (3) 
2

>  <pose>  (3) 
[58.62973717097682, 17.35864011809185, 13.852199660020322, 0.11239692968485578, 0.07336322828866992, -0.10695969686777061, 4.522734822418936, 0.2875080863052866]

>  <energy>  (3) 
-795.1481978978212

>  <inter_energy>  (3) 
-799.0004294271534

>  <intra_energy>  (3) 
10.291886462598555

>  <rmsd>  (3) 
0.664054

>  <sdf_rank>  (3) 
0

$$$$

     RDKit          3D

 15 15  0  0  0  0  0  0  0  0999 V2000
   58.3462   18.5691   12.4217 C   0  0  0  0  0  0  0  0  0  0  0  0
   57.7509   18.2963   13.7819 C   0  0  0  0  0  0  0  0  0  0  0  0
   57.4350   19.3329   14.6257 C   0  0  0  0  0  0  0  0  0  0  0  0
   56.9351   19.0506   15.8888 C   0  0  0  0  0  0  0  0  0  0  0  0
   57.0434   16.7871   15.5001 C   0  0  0  0  0  0  0  0  0  0  0  0
   56.8418   15.3807   16.0118 C   0  0  0  0  0  0  0  0  0  0  0  0
   57.5794   16.9932   14.2038 C   0  0  0  0  0  0  0  0  0  0  0  0
   57.8999   16.0060   13.3889 F   0  0  0  0  0  0  0  0  0  0  0  0
   56.7643   17.8424   16.3097 N   0  0  0  0  0  0  0  0  0  0  0  0
   59.3733   19.2982   12.2152 O   0  0  0  0  0  0  0  0  0  0  0  0
   57.6803   18.1059   11.4847 O   0  0  0  0  0  0  0  0  0  0  0  0
   57.0528   15.0586   17.2480 O   0  0  0  0  0  0  0  0  0  0  0  0
   56.5152   14.4625   15.2453 O   0  0  0  0  0  0  0  0  0  0  0  0
   57.5768   20.3752   14.3038 H   0  0  0  0  0  0  0  0  0  0  0  0
   56.6751   19.8862   16.5552 H   0  0  0  0  0  0  0  0  0  0  0  0
  1  2  1  0
  1 10  1  0
  1 11  2  0
  2  3  2  0
  2  7  1  0
  3  4  1  0
  4  9  2  0
  5  6  1  0
  5  7  2  0
  5  9  1  0
  6 12  2  0
  6 13  1  0
  7  8  1  0
  3 14  1  0
  4 15  1  0
M  CHG  2  10  -1  13  -1
M  END
>  <filename_input>  (4) 
7BMI_U4B_docked.sdf

>  <pdb_id>  (4) 
7BMI_U4B

>  <pose_rank>  (4) 
3

>  <num_atoms_heavy>  (4) 
13

>  <num_torsions>  (4) 
2

>  <pose>  (4) 
[57.750856013810804, 18.29632869573998, 13.781864701336252, -0.4316301502510359, -0.5348743330879899, 1.9524019439537301, 3.1763727286309886, 8.715931243968349]

>  <energy>  (4) 
-502.16769351802816

>  <inter_energy>  (4) 
-511.90844037985227

>  <intra_energy>  (4) 
9.03273181759329

>  <rmsd>  (4) 
2.5188

>  <sdf_rank>  (4) 
0

$$$$

     RDKit          3D

 15 15  0  0  0  0  0  0  0  0999 V2000
   58.8414   17.3685   12.5080 C   0  0  0  0  0  0  0  0  0  0  0  0
   58.7032   17.1494   13.9952 C   0  0  0  0  0  0  0  0  0  0  0  0
   59.6689   16.4653   14.6922 C   0  0  0  0  0  0  0  0  0  0  0  0
   59.4915   16.2364   16.0491 C   0  0  0  0  0  0  0  0  0  0  0  0
   57.4710   17.3333   16.0393 C   0  0  0  0  0  0  0  0  0  0  0  0
   56.2470   17.7863   16.7990 C   0  0  0  0  0  0  0  0  0  0  0  0
   57.5684   17.5873   14.6479 C   0  0  0  0  0  0  0  0  0  0  0  0
   56.6413   18.2310   13.9640 F   0  0  0  0  0  0  0  0  0  0  0  0
   58.4412   16.6342   16.6851 N   0  0  0  0  0  0  0  0  0  0  0  0
   59.2516   16.4858   11.6823 O   0  0  0  0  0  0  0  0  0  0  0  0
   58.6223   18.5358   12.1542 O   0  0  0  0  0  0  0  0  0  0  0  0
   56.1053   17.5766   18.0688 O   0  0  0  0  0  0  0  0  0  0  0  0
   55.2994   18.3336   16.2161 O   0  0  0  0  0  0  0  0  0  0  0  0
   60.5727   16.1030   14.1805 H   0  0  0  0  0  0  0  0  0  0  0  0
   60.2739   15.6965   16.6026 H   0  0  0  0  0  0  0  0  0  0  0  0
  1  2  1  0
  1 10  1  0
  1 11  2  0
  2  3  2  0
  2  7  1  0
  3  4  1  0
  4  9  2  0
  5  6  1  0
  5  7  2  0
  5  9  1  0
  6 12  2  0
  6 13  1  0
  7  8  1  0
  3 14  1  0
  4 15  1  0
M  CHG  2  10  -1  13  -1
M  END
>  <filename_input>  (5) 
7BMI_U4B_docked.sdf

>  <pdb_id>  (5) 
7BMI_U4B

>  <pose_rank>  (5) 
4

>  <num_atoms_heavy>  (5) 
13

>  <num_torsions>  (5) 
2

>  <pose>  (5) 
[58.70322864079379, 17.14938844239723, 13.995226060542226, -2.3124773093378956, 2.6081613495405302, 5.151606902056825, -3.2909158867604438, -3.2002089714370827]

>  <energy>  (5) 
-769.3592741357257

>  <inter_energy>  (5) 
-770.3766172455382

>  <intra_energy>  (5) 
17.453074206697497

>  <rmsd>  (5) 
0.203409

>  <sdf_rank>  (5) 
0

$$$$

     RDKit          3D

 15 15  0  0  0  0  0  0  0  0999 V2000
   58.9302   17.3003   12.4170 C   0  0  0  0  0  0  0  0  0  0  0  0
   58.8306   17.1700   13.9176 C   0  0  0  0  0  0  0  0  0  0  0  0
   59.8679   16.6354   14.6418 C   0  0  0  0  0  0  0  0  0  0  0  0
   59.7289   16.4826   16.0137 C   0  0  0  0  0  0  0  0  0  0  0  0
   57.6075   17.3677   15.9659 C   0  0  0  0  0  0  0  0  0  0  0  0
   56.3519   17.7459   16.7148 C   0  0  0  0  0  0  0  0  0  0  0  0
   57.6641   17.5350   14.5592 C   0  0  0  0  0  0  0  0  0  0  0  0
   56.6694   18.0343   13.8501 F   0  0  0  0  0  0  0  0  0  0  0  0
   58.6503   16.8151   16.6399 N   0  0  0  0  0  0  0  0  0  0  0  0
   59.0944   16.3205   11.6156 O   0  0  0  0  0  0  0  0  0  0  0  0
   58.9484   18.4739   12.0192 O   0  0  0  0  0  0  0  0  0  0  0  0
   56.0095   17.1717   17.8236 O   0  0  0  0  0  0  0  0  0  0  0  0
   55.5675   18.5920   16.2609 O   0  0  0  0  0  0  0  0  0  0  0  0
   60.7984   16.3319   14.1398 H   0  0  0  0  0  0  0  0  0  0  0  0
   60.5678   16.0630   16.5883 H   0  0  0  0  0  0  0  0  0  0  0  0
  1  2  1  0
  1 10  1  0
  1 11  2  0
  2  3  2  0
  2  7  1  0
  3  4  1  0
  4  9  2  0
  5  6  1  0
  5  7  2  0
  5  9  1  0
  6 12  2  0
  6 13  1  0
  7  8  1  0
  3 14  1  0
  4 15  1  0
M  CHG  2  10  -1  13  -1
M  END
>  <filename_input>  (6) 
7BMI_U4B_docked.sdf

>  <pdb_id>  (6) 
7BMI_U4B

>  <pose_rank>  (6) 
5

>  <num_atoms_heavy>  (6) 
13

>  <num_torsions>  (6) 
2

>  <pose>  (6) 
[58.830566026099525, 17.170015732015994, 13.917604363021601, -4.073605349034997, -1.241597992408891, 4.71049479870758, 3.3149712634090096, 8.879892901712621]

>  <energy>  (6) 
-778.879438566169

>  <inter_energy>  (6) 
-798.0493212021248

>  <intra_energy>  (6) 
9.022959035569443

>  <rmsd>  (6) 
0.264441

>  <sdf_rank>  (6) 
0

$$$$

     RDKit          3D

 15 15  0  0  0  0  0  0  0  0999 V2000
   57.7325   19.9010   14.9452 C   0  0  0  0  0  0  0  0  0  0  0  0
   57.4232   18.5410   15.5228 C   0  0  0  0  0  0  0  0  0  0  0  0
   56.2461   18.3199   16.1951 C   0  0  0  0  0  0  0  0  0  0  0  0
   56.0105   17.0739   16.7578 C   0  0  0  0  0  0  0  0  0  0  0  0
   58.0337   16.2780   16.0097 C   0  0  0  0  0  0  0  0  0  0  0  0
   59.0239   15.1402   15.9379 C   0  0  0  0  0  0  0  0  0  0  0  0
   58.3575   17.5293   15.4270 C   0  0  0  0  0  0  0  0  0  0  0  0
   59.4907   17.7587   14.7908 F   0  0  0  0  0  0  0  0  0  0  0  0
   56.8656   16.1098   16.6837 N   0  0  0  0  0  0  0  0  0  0  0  0
   57.4513   21.0088   15.5134 O   0  0  0  0  0  0  0  0  0  0  0  0
   58.1965   19.8603   13.7967 O   0  0  0  0  0  0  0  0  0  0  0  0
   58.6755   13.9082   16.1306 O   0  0  0  0  0  0  0  0  0  0  0  0
   60.2296   15.3537   15.7430 O   0  0  0  0  0  0  0  0  0  0  0  0
   55.4986   19.1217   16.2863 H   0  0  0  0  0  0  0  0  0  0  0  0
   55.0612   16.9014   17.2860 H   0  0  0  0  0  0  0  0  0  0  0  0
  1  2  1  0
  1 10  1  0
  1 11  2  0
  2  3  2  0
  2  7  1  0
  3  4  1  0
  4  9  2  0
  5  6  1  0
  5  7  2  0
  5  9  1  0
  6 12  2  0
  6 13  1  0
  7  8  1  0
  3 14  1  0
  4 15  1  0
M  CHG  2  10  -1  13  -1
M  END
>  <filename_input>  (7) 
7BMI_U4B_docked.sdf

>  <pdb_id>  (7) 
7BMI_U4B

>  <pose_rank>  (7) 
6

>  <num_atoms_heavy>  (7) 
13

>  <num_torsions>  (7) 
2

>  <pose>  (7) 
[57.423208628510764, 18.54098892841209, 15.52284538724726, -0.33906140565086507, -1.8015461588649142, 2.379500148710003, 2.9378285684875367, 9.686875958213673]

>  <energy>  (7) 
-437.21591671419566

>  <inter_energy>  (7) 
-460.86052042249315

>  <intra_energy>  (7) 
16.521372879037777

>  <rmsd>  (7) 
3.68793

>  <sdf_rank>  (7) 
0

$$$$

     RDKit          3D

 15 15  0  0  0  0  0  0  0  0999 V2000
   58.8727   17.0945   12.4940 C   0  0  0  0  0  0  0  0  0  0  0  0
   58.7757   16.9647   13.9949 C   0  0  0  0  0  0  0  0  0  0  0  0
   59.7898   16.3773   14.7112 C   0  0  0  0  0  0  0  0  0  0  0  0
   59.6516   16.2273   16.0835 C   0  0  0  0  0  0  0  0  0  0  0  0
   57.5762   17.2161   16.0512 C   0  0  0  0  0  0  0  0  0  0  0  0
   56.3453   17.6535   16.8089 C   0  0  0  0  0  0  0  0  0  0  0  0
   57.6326   17.3848   14.6446 C   0  0  0  0  0  0  0  0  0  0  0  0
   56.6594   17.9347   13.9431 F   0  0  0  0  0  0  0  0  0  0  0  0
   58.5945   16.6107   16.7173 N   0  0  0  0  0  0  0  0  0  0  0  0
   59.0704   18.1930   11.8747 O   0  0  0  0  0  0  0  0  0  0  0  0
   58.6323   16.0413   11.8866 O   0  0  0  0  0  0  0  0  0  0  0  0
   56.0672   18.9014   17.0133 O   0  0  0  0  0  0  0  0  0  0  0  0
   55.5770   16.8220   17.3145 O   0  0  0  0  0  0  0  0  0  0  0  0
   60.7011   16.0298   14.2026 H   0  0  0  0  0  0  0  0  0  0  0  0
   60.4722   15.7650   16.6518 H   0  0  0  0  0  0  0  0  0  0  0  0
  1  2  1  0
  1 10  1  0
  1 11  2  0
  2  3  2  0
  2  7  1  0
  3  4  1  0
  4  9  2  0
  5  6  1  0
  5  7  2  0
  5  9  1  0
  6 12  2  0
  6 13  1  0
  7  8  1  0
  3 14  1  0
  4 15  1  0
M  CHG  2  10  -1  13  -1
M  END
>  <filename_input>  (8) 
7BMI_U4B_docked.sdf

>  <pdb_id>  (8) 
7BMI_U4B

>  <pose_rank>  (8) 
7

>  <num_atoms_heavy>  (8) 
13

>  <num_torsions>  (8) 
2

>  <pose>  (8) 
[58.775716980521835, 16.96466885408972, 13.994885487009354, -18.679931079152777, -2.8032981145045825, 0.20258736269548802, 0.3793404436553367, -1.3302028155148875]

>  <energy>  (8) 
-736.2454487164898

>  <inter_energy>  (8) 
-733.5118840134522

>  <intra_energy>  (8) 
0.004974748653712493

>  <rmsd>  (8) 
0.601477

>  <sdf_rank>  (8) 
0

$$$$

     RDKit          3D

 15 15  0  0  0  0  0  0  0  0999 V2000
   56.4738   19.5329   16.0099 C   0  0  0  0  0  0  0  0  0  0  0  0
   56.8915   18.1987   15.4405 C   0  0  0  0  0  0  0  0  0  0  0  0
   56.6534   17.0383   16.1356 C   0  0  0  0  0  0  0  0  0  0  0  0
   57.0924   15.8314   15.6106 C   0  0  0  0  0  0  0  0  0  0  0  0
   57.9689   16.8772   13.7601 C   0  0  0  0  0  0  0  0  0  0  0  0
   58.7215   16.7705   12.4553 C   0  0  0  0  0  0  0  0  0  0  0  0
   57.5721   18.1507   14.2405 C   0  0  0  0  0  0  0  0  0  0  0  0
   57.8070   19.2742   13.5892 F   0  0  0  0  0  0  0  0  0  0  0  0
   57.7306   15.7565   14.4912 N   0  0  0  0  0  0  0  0  0  0  0  0
   57.2562   20.3349   16.6213 O   0  0  0  0  0  0  0  0  0  0  0  0
   55.2560   19.7488   15.9306 O   0  0  0  0  0  0  0  0  0  0  0  0
   59.0417   15.6295   11.9340 O   0  0  0  0  0  0  0  0  0  0  0  0
   59.1111   17.7845   11.8576 O   0  0  0  0  0  0  0  0  0  0  0  0
   56.1208   17.0655   17.0977 H   0  0  0  0  0  0  0  0  0  0  0  0
   56.8891   14.9052   16.1682 H   0  0  0  0  0  0  0  0  0  0  0  0
  1  2  1  0
  1 10  1  0
  1 11  2  0
  2  3  2  0
  2  7  1  0
  3  4  1  0
  4  9  2  0
  5  6  1  0
  5  7  2  0
  5  9  1  0
  6 12  2  0
  6 13  1  0
  7  8  1  0
  3 14  1  0
  4 15  1  0
M  CHG  2  10  -1  13  -1
M  END
>  <filename_input>  (9) 
7BMI_U4B_docked.sdf

>  <pdb_id>  (9) 
7BMI_U4B

>  <pose_rank>  (9) 
8

>  <num_atoms_heavy>  (9) 
13

>  <num_torsions>  (9) 
2

>  <pose>  (9) 
[56.8915240705345, 18.198678457260424, 15.440535522269473, 0.9907435300887968, -2.260927990689863, 1.4959080722689695, 3.986009769970943, 3.1555651322571974]

>  <energy>  (9) 
-423.4319545231004

>  <inter_energy>  (9) 
-418.09321179582787

>  <intra_energy>  (9) 
9.737536133715864

>  <rmsd>  (9) 
4.3198

>  <sdf_rank>  (9) 
0

$$$$

     RDKit          3D

 15 15  0  0  0  0  0  0  0  0999 V2000
   58.6649   15.1112   15.7826 C   0  0  0  0  0  0  0  0  0  0  0  0
   58.0062   16.4659   15.8818 C   0  0  0  0  0  0  0  0  0  0  0  0
   57.1259   16.7407   16.8996 C   0  0  0  0  0  0  0  0  0  0  0  0
   56.4983   17.9774   16.9376 C   0  0  0  0  0  0  0  0  0  0  0  0
   57.5811   18.6617   15.0283 C   0  0  0  0  0  0  0  0  0  0  0  0
   57.8026   19.7314   13.9857 C   0  0  0  0  0  0  0  0  0  0  0  0
   58.2445   17.4145   14.9077 C   0  0  0  0  0  0  0  0  0  0  0  0
   59.0817   17.1331   13.9272 F   0  0  0  0  0  0  0  0  0  0  0  0
   56.7019   18.8831   16.0409 N   0  0  0  0  0  0  0  0  0  0  0  0
   58.0523   14.0288   15.4955 O   0  0  0  0  0  0  0  0  0  0  0  0
   59.8588   15.1125   16.1151 O   0  0  0  0  0  0  0  0  0  0  0  0
   56.8840   20.5865   13.6674 O   0  0  0  0  0  0  0  0  0  0  0  0
   58.8662   19.7952   13.3516 O   0  0  0  0  0  0  0  0  0  0  0  0
   56.9208   15.9887   17.6758 H   0  0  0  0  0  0  0  0  0  0  0  0
   55.8022   18.1937   17.7614 H   0  0  0  0  0  0  0  0  0  0  0  0
  1  2  1  0
  1 10  1  0
  1 11  2  0
  2  3  2  0
  2  7  1  0
  3  4  1  0
  4  9  2  0
  5  6  1  0
  5  7  2  0
  5  9  1  0
  6 12  2  0
  6 13  1  0
  7  8  1  0
  3 14  1  0
  4 15  1  0
M  CHG  2  10  -1  13  -1
M  END
>  <filename_input>  (10) 
7BMI_U4B_docked.sdf

>  <pdb_id>  (10) 
7BMI_U4B

>  <pose_rank>  (10) 
9

>  <num_atoms_heavy>  (10) 
13

>  <num_torsions>  (10) 
2

>  <pose>  (10) 
[58.00624871022227, 16.465920064615794, 15.881796912372398, -0.8040824256662826, -1.3001119432070616, -1.110111252158218, 3.461232212880612, -3.7429275491735]

>  <energy>  (10) 
-398.58147679578883

>  <inter_energy>  (10) 
-392.9617770534115

>  <intra_energy>  (10) 
7.015032949821461

>  <rmsd>  (10) 
3.69482

>  <sdf_rank>  (10) 
0

$$$$

     RDKit          3D

 15 15  0  0  0  0  0  0  0  0999 V2000
   56.3363   16.9541   16.8512 C   0  0  0  0  0  0  0  0  0  0  0  0
   57.1155   17.8005   15.8738 C   0  0  0  0  0  0  0  0  0  0  0  0
   57.1779   19.1640   16.0269 C   0  0  0  0  0  0  0  0  0  0  0  0
   57.8603   19.9212   15.0857 C   0  0  0  0  0  0  0  0  0  0  0  0
   58.4153   18.0449   13.8784 C   0  0  0  0  0  0  0  0  0  0  0  0
   59.0877   17.4444   12.6670 C   0  0  0  0  0  0  0  0  0  0  0  0
   57.7189   17.2054   14.7842 C   0  0  0  0  0  0  0  0  0  0  0  0
   57.6397   15.8960   14.6408 F   0  0  0  0  0  0  0  0  0  0  0  0
   58.4339   19.3920   14.0576 N   0  0  0  0  0  0  0  0  0  0  0  0
   55.7955   17.3963   17.9195 O   0  0  0  0  0  0  0  0  0  0  0  0
   56.3529   15.7438   16.5853 O   0  0  0  0  0  0  0  0  0  0  0  0
   59.6854   18.1710   11.7775 O   0  0  0  0  0  0  0  0  0  0  0  0
   59.0438   16.2243   12.4509 O   0  0  0  0  0  0  0  0  0  0  0  0
   56.6924   19.6501   16.8859 H   0  0  0  0  0  0  0  0  0  0  0  0
   57.9145   21.0116   15.2205 H   0  0  0  0  0  0  0  0  0  0  0  0
  1  2  1  0
  1 10  1  0
  1 11  2  0
  2  3  2  0
  2  7  1  0
  3  4  1  0
  4  9  2  0
  5  6  1  0
  5  7  2  0
  5  9  1  0
  6 12  2  0
  6 13  1  0
  7  8  1  0
  3 14  1  0
  4 15  1  0
M  CHG  2  10  -1  13  -1
M  END
>  <filename_input>  (11) 
7BMI_U4B_docked.sdf

>  <pdb_id>  (11) 
7BMI_U4B

>  <pose_rank>  (11) 
10

>  <num_atoms_heavy>  (11) 
13

>  <num_torsions>  (11) 
2

>  <pose>  (11) 
[57.11547484775248, 17.8005044234422, 15.873761013031444, 2.4259941511732586, 1.5783400864229171, 1.5125585834787765, 2.1528258452510767, -3.2512649175759143]

>  <energy>  (11) 
-366.37462263402267

>  <inter_energy>  (11) 
-394.83180418326697

>  <intra_energy>  (11) 
32.38265251786672

>  <rmsd>  (11) 
4.5713

>  <sdf_rank>  (11) 
0

$$$$

     RDKit          3D

 15 15  0  0  0  0  0  0  0  0999 V2000
   58.8458   17.8354   12.3737 C   0  0  0  0  0  0  0  0  0  0  0  0
   58.7832   17.4697   13.8370 C   0  0  0  0  0  0  0  0  0  0  0  0
   59.8122   16.7779   14.4278 C   0  0  0  0  0  0  0  0  0  0  0  0
   59.7055   16.4126   15.7620 C   0  0  0  0  0  0  0  0  0  0  0  0
   57.6321   17.3911   15.9345 C   0  0  0  0  0  0  0  0  0  0  0  0
   56.4201   17.7015   16.7801 C   0  0  0  0  0  0  0  0  0  0  0  0
   57.6563   17.7801   14.5714 C   0  0  0  0  0  0  0  0  0  0  0  0
   56.6685   18.4327   13.9883 F   0  0  0  0  0  0  0  0  0  0  0  0
   58.6642   16.6895   16.4727 N   0  0  0  0  0  0  0  0  0  0  0  0
   59.9142   17.8424   11.6754 O   0  0  0  0  0  0  0  0  0  0  0  0
   57.7686   18.2429   11.9159 O   0  0  0  0  0  0  0  0  0  0  0  0
   56.2232   17.1488   17.9343 O   0  0  0  0  0  0  0  0  0  0  0  0
   55.5332   18.4647   16.3700 O   0  0  0  0  0  0  0  0  0  0  0  0
   60.7108   16.5165   13.8497 H   0  0  0  0  0  0  0  0  0  0  0  0
   60.5379   15.8675   16.2308 H   0  0  0  0  0  0  0  0  0  0  0  0
  1  2  1  0
  1 10  1  0
  1 11  2  0
  2  3  2  0
  2  7  1  0
  3  4  1  0
  4  9  2  0
  5  6  1  0
  5  7  2  0
  5  9  1  0
  6 12  2  0
  6 13  1  0
  7  8  1  0
  3 14  1  0
  4 15  1  0
M  CHG  2  10  -1  13  -1
M  END
>  <filename_input>  (12) 
7BMI_U4B_docked.sdf

>  <pdb_id>  (12) 
7BMI_U4B

>  <pose_rank>  (12) 
11

>  <num_atoms_heavy>  (12) 
13

>  <num_torsions>  (12) 
2

>  <pose>  (12) 
[58.783222311038145, 17.469721361479085, 13.837044505109548, -18.53605422426199, -2.6864060015322333, -0.002801759211245793, 1.9563520449927123, -3.443063824873176]

>  <energy>  (12) 
-757.5415956589488

>  <inter_energy>  (12) 
-787.9397859905546

>  <intra_energy>  (12) 
30.926667883123685

>  <rmsd>  (12) 
0.600981

>  <sdf_rank>  (12) 
0

$$$$

     RDKit          3D

 15 15  0  0  0  0  0  0  0  0999 V2000
   58.5124   17.4263   11.9745 C   0  0  0  0  0  0  0  0  0  0  0  0
   58.4400   17.3243   13.4789 C   0  0  0  0  0  0  0  0  0  0  0  0
   59.4167   16.6612   14.1809 C   0  0  0  0  0  0  0  0  0  0  0  0
   59.2985   16.5409   15.5580 C   0  0  0  0  0  0  0  0  0  0  0  0
   57.3150   17.7036   15.5577 C   0  0  0  0  0  0  0  0  0  0  0  0
   56.1442   18.2544   16.3362 C   0  0  0  0  0  0  0  0  0  0  0  0
   57.3525   17.8490   14.1479 C   0  0  0  0  0  0  0  0  0  0  0  0
   56.4137   18.4714   13.4603 F   0  0  0  0  0  0  0  0  0  0  0  0
   58.2933   17.0215   16.2096 N   0  0  0  0  0  0  0  0  0  0  0  0
   58.6039   16.4270   11.1857 O   0  0  0  0  0  0  0  0  0  0  0  0
   58.5862   18.5911   11.5575 O   0  0  0  0  0  0  0  0  0  0  0  0
   55.5699   19.3715   16.0219 O   0  0  0  0  0  0  0  0  0  0  0  0
   55.7211   17.6766   17.3484 O   0  0  0  0  0  0  0  0  0  0  0  0
   60.2828   16.2304   13.6572 H   0  0  0  0  0  0  0  0  0  0  0  0
   60.0898   16.0172   16.1145 H   0  0  0  0  0  0  0  0  0  0  0  0
  1  2  1  0
  1 10  1  0
  1 11  2  0
  2  3  2  0
  2  7  1  0
  3  4  1  0
  4  9  2  0
  5  6  1  0
  5  7  2  0
  5  9  1  0
  6 12  2  0
  6 13  1  0
  7  8  1  0
  3 14  1  0
  4 15  1  0
M  CHG  2  10  -1  13  -1
M  END
>  <filename_input>  (13) 
7BMI_U4B_docked.sdf

>  <pdb_id>  (13) 
7BMI_U4B

>  <pose_rank>  (13) 
12

>  <num_atoms_heavy>  (13) 
13

>  <num_torsions>  (13) 
2

>  <pose>  (13) 
[58.43998258460397, 17.324258902973288, 13.478946489081975, 3.2672727042076324, -1.128155480456156, 5.1240966549484455, -3.048343206489019, -0.7097490299439064]

>  <energy>  (13) 
-794.6206994231853

>  <inter_energy>  (13) 
-808.8756921203596

>  <intra_energy>  (13) 
6.694520750378562

>  <rmsd>  (13) 
0.669983

>  <sdf_rank>  (13) 
0

$$$$

     RDKit          3D

 15 15  0  0  0  0  0  0  0  0999 V2000
   58.9489   17.3109   12.4393 C   0  0  0  0  0  0  0  0  0  0  0  0
   58.8104   17.1654   13.9355 C   0  0  0  0  0  0  0  0  0  0  0  0
   59.8206   16.6049   14.6783 C   0  0  0  0  0  0  0  0  0  0  0  0
   59.6456   16.4390   16.0445 C   0  0  0  0  0  0  0  0  0  0  0  0
   57.5411   17.3607   15.9557 C   0  0  0  0  0  0  0  0  0  0  0  0
   56.2742   17.7518   16.6784 C   0  0  0  0  0  0  0  0  0  0  0  0
   57.6349   17.5429   14.5528 C   0  0  0  0  0  0  0  0  0  0  0  0
   56.6664   18.0672   13.8258 F   0  0  0  0  0  0  0  0  0  0  0  0
   58.5578   16.7828   16.6483 N   0  0  0  0  0  0  0  0  0  0  0  0
   59.2937   16.3688   11.6501 O   0  0  0  0  0  0  0  0  0  0  0  0
   58.8024   18.4738   12.0365 O   0  0  0  0  0  0  0  0  0  0  0  0
   55.8373   17.1003   17.7084 O   0  0  0  0  0  0  0  0  0  0  0  0
   55.5706   18.6889   16.2731 O   0  0  0  0  0  0  0  0  0  0  0  0
   60.7579   16.2912   14.1954 H   0  0  0  0  0  0  0  0  0  0  0  0
   60.4630   15.9986   16.6343 H   0  0  0  0  0  0  0  0  0  0  0  0
  1  2  1  0
  1 10  1  0
  1 11  2  0
  2  3  2  0
  2  7  1  0
  3  4  1  0
  4  9  2  0
  5  6  1  0
  5  7  2  0
  5  9  1  0
  6 12  2  0
  6 13  1  0
  7  8  1  0
  3 14  1  0
  4 15  1  0
M  CHG  2  10  -1  13  -1
M  END
>  <filename_input>  (14) 
7BMI_U4B_docked.sdf

>  <pdb_id>  (14) 
7BMI_U4B

>  <pose_rank>  (14) 
13

>  <num_atoms_heavy>  (14) 
13

>  <num_torsions>  (14) 
2

>  <pose>  (14) 
[58.810410001685675, 17.16537773202778, 13.93547568021848, -3.4656978190563286, -4.026278430696103, 3.463960928846143, 3.1423536833156525, 8.778358115694889]

>  <energy>  (14) 
-789.306710706289

>  <inter_energy>  (14) 
-795.9462852125336

>  <intra_energy>  (14) 
10.432362290424935

>  <rmsd>  (14) 
0.311063

>  <sdf_rank>  (14) 
0

$$$$

     RDKit          3D

 15 15  0  0  0  0  0  0  0  0999 V2000
   58.7081   17.3756   12.3646 C   0  0  0  0  0  0  0  0  0  0  0  0
   58.5708   17.1689   13.8536 C   0  0  0  0  0  0  0  0  0  0  0  0
   59.5694   16.5524   14.5673 C   0  0  0  0  0  0  0  0  0  0  0  0
   59.3946   16.3318   15.9258 C   0  0  0  0  0  0  0  0  0  0  0  0
   57.3131   17.3075   15.8858 C   0  0  0  0  0  0  0  0  0  0  0  0
   56.0584   17.6977   16.6299 C   0  0  0  0  0  0  0  0  0  0  0  0
   57.4069   17.5479   14.4917 C   0  0  0  0  0  0  0  0  0  0  0  0
   56.4492   18.1265   13.7920 F   0  0  0  0  0  0  0  0  0  0  0  0
   58.3175   16.6756   16.5484 N   0  0  0  0  0  0  0  0  0  0  0  0
   59.6689   18.0048   11.8076 O   0  0  0  0  0  0  0  0  0  0  0  0
   57.7348   16.9693   11.7137 O   0  0  0  0  0  0  0  0  0  0  0  0
   55.1273   18.4142   16.0859 O   0  0  0  0  0  0  0  0  0  0  0  0
   55.8985   17.3876   17.8197 O   0  0  0  0  0  0  0  0  0  0  0  0
   60.4971   16.2372   14.0674 H   0  0  0  0  0  0  0  0  0  0  0  0
   60.2029   15.8466   16.4926 H   0  0  0  0  0  0  0  0  0  0  0  0
  1  2  1  0
  1 10  1  0
  1 11  2  0
  2  3  2  0
  2  7  1  0
  3  4  1  0
  4  9  2  0
  5  6  1  0
  5  7  2  0
  5  9  1  0
  6 12  2  0
  6 13  1  0
  7  8  1  0
  3 14  1  0
  4 15  1  0
M  CHG  2  10  -1  13  -1
M  END
>  <filename_input>  (15) 
7BMI_U4B_docked.sdf

>  <pdb_id>  (15) 
7BMI_U4B

>  <pose_rank>  (15) 
14

>  <num_atoms_heavy>  (15) 
13

>  <num_torsions>  (15) 
2

>  <pose>  (15) 
[58.57084107164905, 17.16887567519859, 13.853613483189699, 3.707178423953023, -11.799430719192884, 2.4199806250170353, 1.2693844443587645, -0.22568746939063525]

>  <energy>  (15) 
-786.6612416118902

>  <inter_energy>  (15) 
-784.07899108534

>  <intra_energy>  (15) 
16.031087519784506

>  <rmsd>  (15) 
0.593158

>  <sdf_rank>  (15) 
0

$$$$

     RDKit          3D

 15 15  0  0  0  0  0  0  0  0999 V2000
   60.0826   15.5168   16.4424 C   0  0  0  0  0  0  0  0  0  0  0  0
   59.0384   15.8890   15.4177 C   0  0  0  0  0  0  0  0  0  0  0  0
   57.8253   15.2455   15.3926 C   0  0  0  0  0  0  0  0  0  0  0  0
   56.9038   15.5743   14.4089 C   0  0  0  0  0  0  0  0  0  0  0  0
   58.3266   17.1364   13.5025 C   0  0  0  0  0  0  0  0  0  0  0  0
   58.5961   18.1657   12.4310 C   0  0  0  0  0  0  0  0  0  0  0  0
   59.3285   16.8410   14.4612 C   0  0  0  0  0  0  0  0  0  0  0  0
   60.5031   17.4420   14.4876 F   0  0  0  0  0  0  0  0  0  0  0  0
   57.1477   16.4601   13.5023 N   0  0  0  0  0  0  0  0  0  0  0  0
   61.0585   16.2650   16.7847 O   0  0  0  0  0  0  0  0  0  0  0  0
   59.9788   14.3544   16.8595 O   0  0  0  0  0  0  0  0  0  0  0  0
   57.7385   19.0867   12.1266 O   0  0  0  0  0  0  0  0  0  0  0  0
   59.6380   18.1317   11.7597 O   0  0  0  0  0  0  0  0  0  0  0  0
   57.5870   14.4781   16.1438 H   0  0  0  0  0  0  0  0  0  0  0  0
   55.9305   15.0617   14.4012 H   0  0  0  0  0  0  0  0  0  0  0  0
  1  2  1  0
  1 10  1  0
  1 11  2  0
  2  3  2  0
  2  7  1  0
  3  4  1  0
  4  9  2  0
  5  6  1  0
  5  7  2  0
  5  9  1  0
  6 12  2  0
  6 13  1  0
  7  8  1  0
  3 14  1  0
  4 15  1  0
M  CHG  2  10  -1  13  -1
M  END
>  <filename_input>  (16) 
7BMI_U4B_docked.sdf

>  <pdb_id>  (16) 
7BMI_U4B

>  <pose_rank>  (16) 
15

>  <num_atoms_heavy>  (16) 
13

>  <num_torsions>  (16) 
2

>  <pose>  (16) 
[59.03836187570847, 15.888998849741327, 15.417729561887882, 0.7886981273100458, -8.307825689980497, -2.1529735517625803, 5.754308299596952, 3.8885464710978463]

>  <energy>  (16) 
-282.1338235577984

>  <inter_energy>  (16) 
-279.7216459744722

>  <intra_energy>  (16) 
11.373936274590731

>  <rmsd>  (16) 
4.33402

>  <sdf_rank>  (16) 
0

$$$$

     RDKit          3D

 15 15  0  0  0  0  0  0  0  0999 V2000
   53.2731    8.8323   21.0823 C   0  0  0  0  0  0  0  0  0  0  0  0
   52.6263    8.9196   19.7211 C   0  0  0  0  0  0  0  0  0  0  0  0
   51.2804    8.6898   19.5723 C   0  0  0  0  0  0  0  0  0  0  0  0
   50.7224    8.7286   18.3027 C   0  0  0  0  0  0  0  0  0  0  0  0
   52.7567    9.2170   17.3493 C   0  0  0  0  0  0  0  0  0  0  0  0
   53.5641    9.4841   16.1015 C   0  0  0  0  0  0  0  0  0  0  0  0
   53.4047    9.1727   18.6096 C   0  0  0  0  0  0  0  0  0  0  0  0
   54.6992    9.3779   18.7643 F   0  0  0  0  0  0  0  0  0  0  0  0
   51.4256    8.9629   17.2460 N   0  0  0  0  0  0  0  0  0  0  0  0
   53.8368    9.8098   21.6789 O   0  0  0  0  0  0  0  0  0  0  0  0
   53.3108    7.6823   21.5428 O   0  0  0  0  0  0  0  0  0  0  0  0
   53.4441   10.5802   15.4227 O   0  0  0  0  0  0  0  0  0  0  0  0
   54.3401    8.6303   15.6474 O   0  0  0  0  0  0  0  0  0  0  0  0
   50.6520    8.4773   20.4498 H   0  0  0  0  0  0  0  0  0  0  0  0
   49.6420    8.5534   18.1926 H   0  0  0  0  0  0  0  0  0  0  0  0
  1  2  1  0
  1 10  1  0
  1 11  2  0
  2  3  2  0
  2  7  1  0
  3  4  1  0
  4  9  2  0
  5  6  1  0
  5  7  2  0
  5  9  1  0
  6 12  2  0
  6 13  1  0
  7  8  1  0
  3 14  1  0
  4 15  1  0
M  CHG  2  10  -1  13  -1
M  END
>  <filename_input>  (17) 
7BMI_U4B_docked.sdf

>  <pdb_id>  (17) 
7BMI_U4B

>  <pose_rank>  (17) 
16

>  <num_atoms_heavy>  (17) 
13

>  <num_torsions>  (17) 
2

>  <pose>  (17) 
[52.626274873801215, 8.919644206438733, 19.721094402331445, -0.3634343989475459, -2.62150037433933, -0.18345887362565902, 0.21927747151971663, -2.002571740287707]

>  <energy>  (17) 
-154.96332063509735

>  <inter_energy>  (17) 
-139.97747081259578

>  <intra_energy>  (17) 
0.506895885717114

>  <rmsd>  (17) 
11.3658

>  <sdf_rank>  (17) 
0

$$$$

     RDKit          3D

 15 15  0  0  0  0  0  0  0  0999 V2000
   50.6160   11.1453   14.4813 C   0  0  0  0  0  0  0  0  0  0  0  0
   51.5508   10.0529   14.0211 C   0  0  0  0  0  0  0  0  0  0  0  0
   51.2527    9.3016   12.9107 C   0  0  0  0  0  0  0  0  0  0  0  0
   52.1057    8.2722   12.5398 C   0  0  0  0  0  0  0  0  0  0  0  0
   53.5153    8.7140   14.3016 C   0  0  0  0  0  0  0  0  0  0  0  0
   54.7626    8.3575   15.0745 C   0  0  0  0  0  0  0  0  0  0  0  0
   52.6830    9.7673   14.7574 C   0  0  0  0  0  0  0  0  0  0  0  0
   52.9507   10.4874   15.8304 F   0  0  0  0  0  0  0  0  0  0  0  0
   53.1709    7.9829   13.2089 N   0  0  0  0  0  0  0  0  0  0  0  0
   50.8965   12.3904   14.4670 O   0  0  0  0  0  0  0  0  0  0  0  0
   49.5671   10.7222   14.9881 O   0  0  0  0  0  0  0  0  0  0  0  0
   54.7669    7.4509   15.9989 O   0  0  0  0  0  0  0  0  0  0  0  0
   55.8267    8.9655   14.8863 O   0  0  0  0  0  0  0  0  0  0  0  0
   50.3480    9.5138   12.3220 H   0  0  0  0  0  0  0  0  0  0  0  0
   51.8656    7.6814   11.6435 H   0  0  0  0  0  0  0  0  0  0  0  0
  1  2  1  0
  1 10  1  0
  1 11  2  0
  2  3  2  0
  2  7  1  0
  3  4  1  0
  4  9  2  0
  5  6  1  0
  5  7  2  0
  5  9  1  0
  6 12  2  0
  6 13  1  0
  7  8  1  0
  3 14  1  0
  4 15  1  0
M  CHG  2  10  -1  13  -1
M  END
>  <filename_input>  (18) 
7BMI_U4B_docked.sdf

>  <pdb_id>  (18) 
7BMI_U4B

>  <pose_rank>  (18) 
17

>  <num_atoms_heavy>  (18) 
13

>  <num_torsions>  (18) 
2

>  <pose>  (18) 
[51.55077885648659, 10.052897647646207, 14.021126960210495, 0.5893135780909975, 1.9159593438472071, -0.5759687130957628, 0.2806142929125643, 1.5543092864059516]

>  <energy>  (18) 
-147.38933405475527

>  <inter_energy>  (18) 
-131.77430197156352

>  <intra_energy>  (18) 
0.2190229106705013

>  <rmsd>  (18) 
10.3616

>  <sdf_rank>  (18) 
0

$$$$

     RDKit          3D

 15 15  0  0  0  0  0  0  0  0999 V2000
   53.0177   26.1595   16.2396 C   0  0  0  0  0  0  0  0  0  0  0  0
   52.4584   26.4959   17.6009 C   0  0  0  0  0  0  0  0  0  0  0  0
   53.2107   27.1991   18.5097 C   0  0  0  0  0  0  0  0  0  0  0  0
   52.6894   27.4512   19.7705 C   0  0  0  0  0  0  0  0  0  0  0  0
   50.7339   26.3571   19.2555 C   0  0  0  0  0  0  0  0  0  0  0  0
   49.3715   25.8774   19.6956 C   0  0  0  0  0  0  0  0  0  0  0  0
   51.2047   26.0404   17.9562 C   0  0  0  0  0  0  0  0  0  0  0  0
   50.4976   25.3536   17.0788 F   0  0  0  0  0  0  0  0  0  0  0  0
   51.5206   27.0379   20.1300 N   0  0  0  0  0  0  0  0  0  0  0  0
   53.7204   26.9546   15.5302 O   0  0  0  0  0  0  0  0  0  0  0  0
   52.6425   25.0614   15.8047 O   0  0  0  0  0  0  0  0  0  0  0  0
   49.1868   24.7074   20.2186 O   0  0  0  0  0  0  0  0  0  0  0  0
   48.3610   26.5741   19.5197 O   0  0  0  0  0  0  0  0  0  0  0  0
   54.2150   27.5585   18.2410 H   0  0  0  0  0  0  0  0  0  0  0  0
   53.2938   28.0237   20.4895 H   0  0  0  0  0  0  0  0  0  0  0  0
  1  2  1  0
  1 10  1  0
  1 11  2  0
  2  3  2  0
  2  7  1  0
  3  4  1  0
  4  9  2  0
  5  6  1  0
  5  7  2  0
  5  9  1  0
  6 12  2  0
  6 13  1  0
  7  8  1  0
  3 14  1  0
  4 15  1  0
M  CHG  2  10  -1  13  -1
M  END
>  <filename_input>  (19) 
7BMI_U4B_docked.sdf

>  <pdb_id>  (19) 
7BMI_U4B

>  <pose_rank>  (19) 
18

>  <num_atoms_heavy>  (19) 
13

>  <num_torsions>  (19) 
2

>  <pose>  (19) 
[52.458448491869596, 26.495858115029574, 17.60091536946658, -0.531407735965082, -0.2542805952601961, 0.8716759712481282, 1.5580827701599727, 1.4494812974605706]

>  <energy>  (19) 
-144.19008359664272

>  <inter_energy>  (19) 
-138.47238575169777

>  <intra_energy>  (19) 
14.208650955649237

>  <rmsd>  (19) 
11.5669

>  <sdf_rank>  (19) 
0

$$$$

     RDKit          3D

 15 15  0  0  0  0  0  0  0  0999 V2000
   66.1055   25.4388   14.9938 C   0  0  0  0  0  0  0  0  0  0  0  0
   65.8441   25.4588   16.4805 C   0  0  0  0  0  0  0  0  0  0  0  0
   66.8702   25.2614   17.3719 C   0  0  0  0  0  0  0  0  0  0  0  0
   66.5922   25.2360   18.7309 C   0  0  0  0  0  0  0  0  0  0  0  0
   64.3543   25.5998   18.3490 C   0  0  0  0  0  0  0  0  0  0  0  0
   62.9613   25.7617   18.9089 C   0  0  0  0  0  0  0  0  0  0  0  0
   64.5539   25.6163   16.9454 C   0  0  0  0  0  0  0  0  0  0  0  0
   63.5748   25.7910   16.0782 F   0  0  0  0  0  0  0  0  0  0  0  0
   65.3960   25.3806   19.1939 N   0  0  0  0  0  0  0  0  0  0  0  0
   66.2838   24.3789   14.3054 O   0  0  0  0  0  0  0  0  0  0  0  0
   66.2440   26.5659   14.4975 O   0  0  0  0  0  0  0  0  0  0  0  0
   62.2328   24.7479   19.2525 O   0  0  0  0  0  0  0  0  0  0  0  0
   62.4393   26.8818   19.0099 O   0  0  0  0  0  0  0  0  0  0  0  0
   67.9008   25.1249   17.0123 H   0  0  0  0  0  0  0  0  0  0  0  0
   67.4206   25.0874   19.4390 H   0  0  0  0  0  0  0  0  0  0  0  0
  1  2  1  0
  1 10  1  0
  1 11  2  0
  2  3  2  0
  2  7  1  0
  3  4  1  0
  4  9  2  0
  5  6  1  0
  5  7  2  0
  5  9  1  0
  6 12  2  0
  6 13  1  0
  7  8  1  0
  3 14  1  0
  4 15  1  0
M  CHG  2  10  -1  13  -1
M  END
>  <filename_input>  (20) 
7BMI_U4B_docked.sdf

>  <pdb_id>  (20) 
7BMI_U4B

>  <pose_rank>  (20) 
19

>  <num_atoms_heavy>  (20) 
13

>  <num_torsions>  (20) 
2

>  <pose>  (20) 
[65.84411904035373, 25.45881878197003, 16.480508635029956, 2.9243866908046847, 2.2290850141824294, -4.659033774144757, 3.6053476690807504, 1.634043029457758]

>  <energy>  (20) 
-98.80428234248961

>  <inter_energy>  (20) 
-100.97435709453451

>  <intra_energy>  (20) 
0.000189924064620234

>  <rmsd>  (20) 
10.9549

>  <sdf_rank>  (20) 
0

$$$$

     RDKit          3D

 15 15  0  0  0  0  0  0  0  0999 V2000
   65.8666   11.6629   23.2314 C   0  0  0  0  0  0  0  0  0  0  0  0
   65.7711   13.1199   22.8480 C   0  0  0  0  0  0  0  0  0  0  0  0
   65.6027   13.4861   21.5350 C   0  0  0  0  0  0  0  0  0  0  0  0
   65.5676   14.8336   21.2063 C   0  0  0  0  0  0  0  0  0  0  0  0
   65.8462   15.4470   23.4045 C   0  0  0  0  0  0  0  0  0  0  0  0
   66.0036   16.5492   24.4246 C   0  0  0  0  0  0  0  0  0  0  0  0
   65.9149   14.0923   23.8171 C   0  0  0  0  0  0  0  0  0  0  0  0
   66.0903   13.7274   25.0731 F   0  0  0  0  0  0  0  0  0  0  0  0
   65.6991   15.7640   22.0911 N   0  0  0  0  0  0  0  0  0  0  0  0
   66.9608   11.0154   23.3446 O   0  0  0  0  0  0  0  0  0  0  0  0
   64.7667   11.0998   23.3260 O   0  0  0  0  0  0  0  0  0  0  0  0
   67.1224   16.7673   25.0388 O   0  0  0  0  0  0  0  0  0  0  0  0
   65.0408   17.2578   24.7535 O   0  0  0  0  0  0  0  0  0  0  0  0
   65.4970   12.7198   20.7530 H   0  0  0  0  0  0  0  0  0  0  0  0
   65.4224   15.1191   20.1539 H   0  0  0  0  0  0  0  0  0  0  0  0
  1  2  1  0
  1 10  1  0
  1 11  2  0
  2  3  2  0
  2  7  1  0
  3  4  1  0
  4  9  2  0
  5  6  1  0
  5  7  2  0
  5  9  1  0
  6 12  2  0
  6 13  1  0
  7  8  1  0
  3 14  1  0
  4 15  1  0
M  CHG  2  10  -1  13  -1
M  END
>  <filename_input>  (21) 
7BMI_U4B_docked.sdf

>  <pdb_id>  (21) 
7BMI_U4B

>  <pose_rank>  (21) 
20

>  <num_atoms_heavy>  (21) 
13

>  <num_torsions>  (21) 
2

>  <pose>  (21) 
[65.77107315393086, 13.119906039704786, 22.847992360246653, -1.1842140827657643, 1.8109994239258547, 1.5926426425361013, -2.3957575293342974, 1.1198340234939457]

>  <energy>  (21) 
-99.10381218104983

>  <inter_energy>  (21) 
-104.58192613921999

>  <intra_energy>  (21) 
0.0

>  <rmsd>  (21) 
12.541

>  <sdf_rank>  (21) 
0

$$$$

     RDKit          3D

 15 15  0  0  0  0  0  0  0  0999 V2000
   52.0775    8.4115   11.9784 C   0  0  0  0  0  0  0  0  0  0  0  0
   51.2333    9.5698   12.4521 C   0  0  0  0  0  0  0  0  0  0  0  0
   50.7228    9.5855   13.7271 C   0  0  0  0  0  0  0  0  0  0  0  0
   49.9097   10.6392   14.1188 C   0  0  0  0  0  0  0  0  0  0  0  0
   50.1027   11.6430   12.0594 C   0  0  0  0  0  0  0  0  0  0  0  0
   49.7280   12.7813   11.1406 C   0  0  0  0  0  0  0  0  0  0  0  0
   50.9221   10.5913   11.5772 C   0  0  0  0  0  0  0  0  0  0  0  0
   51.4073   10.5573   10.3505 F   0  0  0  0  0  0  0  0  0  0  0  0
   49.6024   11.6074   13.3225 N   0  0  0  0  0  0  0  0  0  0  0  0
   53.3428    8.3309   12.1267 O   0  0  0  0  0  0  0  0  0  0  0  0
   51.4464    7.5712   11.3216 O   0  0  0  0  0  0  0  0  0  0  0  0
   48.7170   13.5551   11.3763 O   0  0  0  0  0  0  0  0  0  0  0  0
   50.3502   12.9838   10.0874 O   0  0  0  0  0  0  0  0  0  0  0  0
   50.9560    8.7719   14.4296 H   0  0  0  0  0  0  0  0  0  0  0  0
   49.5129   10.6499   15.1446 H   0  0  0  0  0  0  0  0  0  0  0  0
  1  2  1  0
  1 10  1  0
  1 11  2  0
  2  3  2  0
  2  7  1  0
  3  4  1  0
  4  9  2  0
  5  6  1  0
  5  7  2  0
  5  9  1  0
  6 12  2  0
  6 13  1  0
  7  8  1  0
  3 14  1  0
  4 15  1  0
M  CHG  2  10  -1  13  -1
M  END
>  <filename_input>  (22) 
7BMI_U4B_docked.sdf

>  <pdb_id>  (22) 
7BMI_U4B

>  <pose_rank>  (22) 
21

>  <num_atoms_heavy>  (22) 
13

>  <num_torsions>  (22) 
2

>  <pose>  (22) 
[51.233289177001296, 9.569819317204429, 12.452080550187183, 2.3543596058811587, 3.2821393427149315, 2.5896525805045556, 0.7301603445359071, -3.538272180392979]

>  <energy>  (22) 
-125.91895101175673

>  <inter_energy>  (22) 
-120.47668831294796

>  <intra_energy>  (22) 
8.862480244977816

>  <rmsd>  (22) 
10.8149

>  <sdf_rank>  (22) 
0

$$$$

     RDKit          3D

 15 15  0  0  0  0  0  0  0  0999 V2000
   50.5612   11.8469   12.4185 C   0  0  0  0  0  0  0  0  0  0  0  0
   51.2533   10.6812   13.0827 C   0  0  0  0  0  0  0  0  0  0  0  0
   51.5267    9.5366   12.3745 C   0  0  0  0  0  0  0  0  0  0  0  0
   52.1192    8.4631   13.0236 C   0  0  0  0  0  0  0  0  0  0  0  0
   52.1825    9.6134   15.0133 C   0  0  0  0  0  0  0  0  0  0  0  0
   52.5317    9.6286   16.4823 C   0  0  0  0  0  0  0  0  0  0  0  0
   51.5587   10.7438   14.4274 C   0  0  0  0  0  0  0  0  0  0  0  0
   51.2780   11.8440   15.1000 F   0  0  0  0  0  0  0  0  0  0  0  0
   52.4158    8.4935   14.2794 N   0  0  0  0  0  0  0  0  0  0  0  0
   51.0962   12.9892   12.2228 O   0  0  0  0  0  0  0  0  0  0  0  0
   49.3657   11.6387   12.1673 O   0  0  0  0  0  0  0  0  0  0  0  0
   51.7198    9.1886   17.3899 O   0  0  0  0  0  0  0  0  0  0  0  0
   53.5988   10.1185   16.8805 O   0  0  0  0  0  0  0  0  0  0  0  0
   51.2787    9.4718   11.3048 H   0  0  0  0  0  0  0  0  0  0  0  0
   52.3443    7.5535   12.4474 H   0  0  0  0  0  0  0  0  0  0  0  0
  1  2  1  0
  1 10  1  0
  1 11  2  0
  2  3  2  0
  2  7  1  0
  3  4  1  0
  4  9  2  0
  5  6  1  0
  5  7  2  0
  5  9  1  0
  6 12  2  0
  6 13  1  0
  7  8  1  0
  3 14  1  0
  4 15  1  0
M  CHG  2  10  -1  13  -1
M  END
>  <filename_input>  (23) 
7BMI_U4B_docked.sdf

>  <pdb_id>  (23) 
7BMI_U4B

>  <pose_rank>  (23) 
22

>  <num_atoms_heavy>  (23) 
13

>  <num_torsions>  (23) 
2

>  <pose>  (23) 
[51.25333136048809, 10.681213277253859, 13.082703476079462, 0.562492034269972, 1.04193117028285, -0.6954188246333597, 0.26355655750193346, 1.5434381439637292]

>  <energy>  (23) 
-147.14975818314846

>  <inter_energy>  (23) 
-144.60567285213364

>  <intra_energy>  (23) 
0.2874455468526685

>  <rmsd>  (23) 
9.87115

>  <sdf_rank>  (23) 
0

$$$$

     RDKit          3D

 15 15  0  0  0  0  0  0  0  0999 V2000
   53.3133    9.1513   19.0875 C   0  0  0  0  0  0  0  0  0  0  0  0
   53.2128    8.7279   20.5330 C   0  0  0  0  0  0  0  0  0  0  0  0
   54.1867    7.9422   21.0991 C   0  0  0  0  0  0  0  0  0  0  0  0
   54.0432    7.5278   22.4154 C   0  0  0  0  0  0  0  0  0  0  0  0
   52.0402    8.6382   22.6182 C   0  0  0  0  0  0  0  0  0  0  0  0
   50.8448    8.9943   23.4693 C   0  0  0  0  0  0  0  0  0  0  0  0
   52.1032    9.0831   21.2735 C   0  0  0  0  0  0  0  0  0  0  0  0
   51.1676    9.8266   20.7136 F   0  0  0  0  0  0  0  0  0  0  0  0
   53.0170    7.8447   23.1313 N   0  0  0  0  0  0  0  0  0  0  0  0
   53.9547   10.1757   18.6771 O   0  0  0  0  0  0  0  0  0  0  0  0
   52.6178    8.4708   18.3199 O   0  0  0  0  0  0  0  0  0  0  0  0
   49.6291    8.7984   23.0692 O   0  0  0  0  0  0  0  0  0  0  0  0
   50.9862    9.5433   24.5720 O   0  0  0  0  0  0  0  0  0  0  0  0
   55.0704    7.6448   20.5155 H   0  0  0  0  0  0  0  0  0  0  0  0
   54.8322    6.9070   22.8649 H   0  0  0  0  0  0  0  0  0  0  0  0
  1  2  1  0
  1 10  1  0
  1 11  2  0
  2  3  2  0
  2  7  1  0
  3  4  1  0
  4  9  2  0
  5  6  1  0
  5  7  2  0
  5  9  1  0
  6 12  2  0
  6 13  1  0
  7  8  1  0
  3 14  1  0
  4 15  1  0
M  CHG  2  10  -1  13  -1
M  END
>  <filename_input>  (24) 
7BMI_U4B_docked.sdf

>  <pdb_id>  (24) 
7BMI_U4B

>  <pose_rank>  (24) 
23

>  <num_atoms_heavy>  (24) 
13

>  <num_torsions>  (24) 
2

>  <pose>  (24) 
[53.212769359959644, 8.727941224885003, 20.53303505329346, -5.633951952956144, -0.19576905900451896, 2.348287528794658, 0.7668198939571917, 0.8246478494975651]

>  <energy>  (24) 
-134.75115996287778

>  <inter_energy>  (24) 
-141.47972418737803

>  <intra_energy>  (24) 
1.4981121997407447

>  <rmsd>  (24) 
12.2227

>  <sdf_rank>  (24) 
0

$$$$

     RDKit          3D

 15 15  0  0  0  0  0  0  0  0999 V2000
   55.8350   26.5303    6.1078 C   0  0  0  0  0  0  0  0  0  0  0  0
   54.7046   26.5141    7.1082 C   0  0  0  0  0  0  0  0  0  0  0  0
   54.9108   26.9305    8.4006 C   0  0  0  0  0  0  0  0  0  0  0  0
   53.8663   26.8584    9.3109 C   0  0  0  0  0  0  0  0  0  0  0  0
   52.4480   25.9986    7.7187 C   0  0  0  0  0  0  0  0  0  0  0  0
   51.0815   25.4621    7.3651 C   0  0  0  0  0  0  0  0  0  0  0  0
   53.4703   26.0200    6.7366 C   0  0  0  0  0  0  0  0  0  0  0  0
   53.2890   25.6099    5.4955 F   0  0  0  0  0  0  0  0  0  0  0  0
   52.7022   26.4012    8.9916 N   0  0  0  0  0  0  0  0  0  0  0  0
   56.2265   27.5680    5.4760 O   0  0  0  0  0  0  0  0  0  0  0  0
   56.2967   25.4072    5.8601 O   0  0  0  0  0  0  0  0  0  0  0  0
   50.3489   24.8210    8.2188 O   0  0  0  0  0  0  0  0  0  0  0  0
   50.6301   25.5707    6.2153 O   0  0  0  0  0  0  0  0  0  0  0  0
   55.8930   27.3168    8.7105 H   0  0  0  0  0  0  0  0  0  0  0  0
   54.0363   27.2030   10.3416 H   0  0  0  0  0  0  0  0  0  0  0  0
  1  2  1  0
  1 10  1  0
  1 11  2  0
  2  3  2  0
  2  7  1  0
  3  4  1  0
  4  9  2  0
  5  6  1  0
  5  7  2  0
  5  9  1  0
  6 12  2  0
  6 13  1  0
  7  8  1  0
  3 14  1  0
  4 15  1  0
M  CHG  2  10  -1  13  -1
M  END
>  <filename_input>  (25) 
7BMI_U4B_docked.sdf

>  <pdb_id>  (25) 
7BMI_U4B

>  <pose_rank>  (25) 
24

>  <num_atoms_heavy>  (25) 
13

>  <num_torsions>  (25) 
2

>  <pose>  (25) 
[54.704553383177135, 26.514134741941163, 7.108189338041501, -0.47483641785378494, -0.7967017504214433, 0.7206779386512262, 0.8548851395875144, 2.490186982003645]

>  <energy>  (25) 
-133.03629240155186

>  <inter_energy>  (25) 
-116.25629892405533

>  <intra_energy>  (25) 
6.746556664515352

>  <rmsd>  (25) 
12.5875

>  <sdf_rank>  (25) 
0

$$$$

     RDKit          3D

 15 15  0  0  0  0  0  0  0  0999 V2000
   58.8700   17.4470   12.4360 C   0  0  0  0  0  0  0  0  0  0  0  0
   58.7820   17.2570   13.9310 C   0  0  0  0  0  0  0  0  0  0  0  0
   59.8000   16.6410   14.6170 C   0  0  0  0  0  0  0  0  0  0  0  0
   59.6700   16.4360   15.9830 C   0  0  0  0  0  0  0  0  0  0  0  0
   57.5950   17.4260   16.0030 C   0  0  0  0  0  0  0  0  0  0  0  0
   56.3690   17.8330   16.7850 C   0  0  0  0  0  0  0  0  0  0  0  0
   57.6430   17.6510   14.6040 C   0  0  0  0  0  0  0  0  0  0  0  0
   56.6660   18.2290   13.9310 F   0  0  0  0  0  0  0  0  0  0  0  0
   58.6170   16.7940   16.6380 N   0  0  0  0  0  0  0  0  0  0  0  0
   58.6690   18.5550   11.8350 O   0  0  0  0  0  0  0  0  0  0  0  0
   59.0520   16.3930   11.8100 O   0  0  0  0  0  0  0  0  0  0  0  0
   55.3200   18.3330   16.2140 O   0  0  0  0  0  0  0  0  0  0  0  0
   56.3440   17.7520   18.0220 O   0  0  0  0  0  0  0  0  0  0  0  0
   60.7081   16.3139   14.0894 H   0  0  0  0  0  0  0  0  0  0  0  0
   60.4938   15.9510   16.5273 H   0  0  0  0  0  0  0  0  0  0  0  0
  1  2  1  0
  1 10  1  0
  1 11  2  0
  2  3  2  0
  2  7  1  0
  3  4  1  0
  4  9  2  0
  5  6  1  0
  5  7  2  0
  5  9  1  0
  6 12  2  0
  6 13  1  0
  7  8  1  0
  3 14  1  0
  4 15  1  0
M  CHG  2  10  -1  13  -1
M  END
>  <filename_input>  (26) 
7BMI_U4B_docked.sdf

>  <pdb_id>  (26) 
7BMI_U4B

>  <pose_rank>  (26) 
25

>  <num_atoms_heavy>  (26) 
13

>  <num_torsions>  (26) 
2

>  <pose>  (26) 
[58.782, 17.257, 13.931, 1e-06, 1e-06, 1e-06, 0.0, 0.0]

>  <energy>  (26) 
-800.8666961675394

>  <inter_energy>  (26) 
-823.3781099863073

>  <intra_energy>  (26) 
11.394793703227652

>  <rmsd>  (26) 
0.0

>  <sdf_rank>  (26) 
0

$$$$
