
     RDKit          3D

 14 14  0  0  0  0  0  0  0  0999 V2000
  -11.1611    2.8169    8.4301 C   0  0  0  0  0  0  0  0  0  0  0  0
  -11.8806    3.5743    7.7896 O   0  0  0  0  0  0  0  0  0  0  0  0
  -11.5927    1.9734    9.2670 O   0  0  0  0  0  0  0  0  0  0  0  0
   -9.6634    2.8619    8.2152 C   0  0  0  0  0  0  0  0  0  0  0  0
   -9.1167    3.6893    7.2467 C   0  0  0  0  0  0  0  0  0  0  0  0
   -7.7457    3.7146    7.0615 C   0  0  0  0  0  0  0  0  0  0  0  0
   -6.9368    2.8916    7.8186 C   0  0  0  0  0  0  0  0  0  0  0  0
   -7.4666    2.0537    8.7447 C   0  0  0  0  0  0  0  0  0  0  0  0
   -8.8233    2.0459    8.9732 C   0  0  0  0  0  0  0  0  0  0  0  0
   -9.7697    4.3227    6.6283 H   0  0  0  0  0  0  0  0  0  0  0  0
   -7.3021    4.3882    6.3135 H   0  0  0  0  0  0  0  0  0  0  0  0
   -5.8473    2.9154    7.6690 H   0  0  0  0  0  0  0  0  0  0  0  0
   -6.8101    1.3793    9.3141 H   0  0  0  0  0  0  0  0  0  0  0  0
   -9.2458    1.3961    9.7538 H   0  0  0  0  0  0  0  0  0  0  0  0
  1  2  2  0
  1  3  1  0
  1  4  1  0
  4  5  2  0
  4  9  1  0
  5  6  1  0
  6  7  2  0
  7  8  1  0
  8  9  2  0
  5 10  1  0
  6 11  1  0
  7 12  1  0
  8 13  1  0
  9 14  1  0
M  CHG  1   3  -1
M  END
>  <filename_input>  (1) 
7BNH_BEZ_docked.sdf

>  <pdb_id>  (1) 
7BNH_BEZ

>  <pose_rank>  (1) 
0

>  <num_atoms_heavy>  (1) 
9

>  <num_torsions>  (1) 
1

>  <pose>  (1) 
[-9.66339724653695, 2.861908789857027, 8.21524427637631, -2.352015071799656, 5.061892909718615, 2.050950235756201, -0.17375828981311317]

>  <energy>  (1) 
-478.1036603734114

>  <inter_energy>  (1) 
-469.96573273426276

>  <intra_energy>  (1) 
0.0

>  <rmsd>  (1) 
0.993035

>  <sdf_rank>  (1) 
0

$$$$

     RDKit          3D

 14 14  0  0  0  0  0  0  0  0999 V2000
  -11.2248    2.7909    8.4242 C   0  0  0  0  0  0  0  0  0  0  0  0
  -11.7021    1.9270    9.1505 O   0  0  0  0  0  0  0  0  0  0  0  0
  -11.9127    3.6583    7.8138 O   0  0  0  0  0  0  0  0  0  0  0  0
   -9.7237    2.8562    8.2409 C   0  0  0  0  0  0  0  0  0  0  0  0
   -9.1686    3.6809    7.2750 C   0  0  0  0  0  0  0  0  0  0  0  0
   -7.7945    3.7250    7.1189 C   0  0  0  0  0  0  0  0  0  0  0  0
   -6.9899    2.9227    7.9025 C   0  0  0  0  0  0  0  0  0  0  0  0
   -7.5270    2.0872    8.8265 C   0  0  0  0  0  0  0  0  0  0  0  0
   -8.8881    2.0614    9.0259 C   0  0  0  0  0  0  0  0  0  0  0  0
   -9.8174    4.2975    6.6356 H   0  0  0  0  0  0  0  0  0  0  0  0
   -7.3449    4.3970    6.3730 H   0  0  0  0  0  0  0  0  0  0  0  0
   -5.8979    2.9614    7.7759 H   0  0  0  0  0  0  0  0  0  0  0  0
   -6.8730    1.4291    9.4174 H   0  0  0  0  0  0  0  0  0  0  0  0
   -9.3176    1.4139    9.8046 H   0  0  0  0  0  0  0  0  0  0  0  0
  1  2  2  0
  1  3  1  0
  1  4  1  0
  4  5  2  0
  4  9  1  0
  5  6  1  0
  6  7  2  0
  7  8  1  0
  8  9  2  0
  5 10  1  0
  6 11  1  0
  7 12  1  0
  8 13  1  0
  9 14  1  0
M  CHG  1   3  -1
M  END
>  <filename_input>  (2) 
7BNH_BEZ_docked.sdf

>  <pdb_id>  (2) 
7BNH_BEZ

>  <pose_rank>  (2) 
1

>  <num_atoms_heavy>  (2) 
9

>  <num_torsions>  (2) 
1

>  <pose>  (2) 
[-9.72368336702378, 2.85615729248308, 8.240933214332925, -2.15072761925361, 5.271220951752264, 1.6833867128381763, -3.418942158173679]

>  <energy>  (2) 
-477.6049844596198

>  <inter_energy>  (2) 
-468.9858598721028

>  <intra_energy>  (2) 
0.0

>  <rmsd>  (2) 
1.02179

>  <sdf_rank>  (2) 
0

$$$$

     RDKit          3D

 14 14  0  0  0  0  0  0  0  0999 V2000
  -11.4599    3.2918    7.4493 C   0  0  0  0  0  0  0  0  0  0  0  0
  -12.0600    3.4594    8.5044 O   0  0  0  0  0  0  0  0  0  0  0  0
  -12.0100    3.3280    6.3116 O   0  0  0  0  0  0  0  0  0  0  0  0
   -9.9676    3.0399    7.4794 C   0  0  0  0  0  0  0  0  0  0  0  0
   -9.0756    4.0691    7.2215 C   0  0  0  0  0  0  0  0  0  0  0  0
   -7.7149    3.8197    7.2495 C   0  0  0  0  0  0  0  0  0  0  0  0
   -7.2577    2.5419    7.5003 C   0  0  0  0  0  0  0  0  0  0  0  0
   -8.1246    1.5217    7.7197 C   0  0  0  0  0  0  0  0  0  0  0  0
   -9.4797    1.7590    7.7386 C   0  0  0  0  0  0  0  0  0  0  0  0
   -9.4477    5.0793    6.9956 H   0  0  0  0  0  0  0  0  0  0  0  0
   -7.0001    4.6369    7.0724 H   0  0  0  0  0  0  0  0  0  0  0  0
   -6.1751    2.3479    7.5226 H   0  0  0  0  0  0  0  0  0  0  0  0
   -7.7433    0.5028    7.8827 H   0  0  0  0  0  0  0  0  0  0  0  0
  -10.1786    0.9384    7.9583 H   0  0  0  0  0  0  0  0  0  0  0  0
  1  2  2  0
  1  3  1  0
  1  4  1  0
  4  5  2  0
  4  9  1  0
  5  6  1  0
  6  7  2  0
  7  8  1  0
  8  9  2  0
  5 10  1  0
  6 11  1  0
  7 12  1  0
  8 13  1  0
  9 14  1  0
M  CHG  1   3  -1
M  END
>  <filename_input>  (3) 
7BNH_BEZ_docked.sdf

>  <pdb_id>  (3) 
7BNH_BEZ

>  <pose_rank>  (3) 
2

>  <num_atoms_heavy>  (3) 
9

>  <num_torsions>  (3) 
1

>  <pose>  (3) 
[-9.967624508145636, 3.0399270942697765, 7.479398756558408, -3.999130411593572, 2.646918950461747, 2.3776331868264355, 4.4400696076196615]

>  <energy>  (3) 
-476.58191759243084

>  <inter_energy>  (3) 
-459.6475341968386

>  <intra_energy>  (3) 
0.0

>  <rmsd>  (3) 
1.96701

>  <sdf_rank>  (3) 
0

$$$$

     RDKit          3D

 14 14  0  0  0  0  0  0  0  0999 V2000
  -11.2115    2.8003    8.5181 C   0  0  0  0  0  0  0  0  0  0  0  0
  -11.6480    2.0736    9.4029 O   0  0  0  0  0  0  0  0  0  0  0  0
  -11.9336    3.5501    7.8008 O   0  0  0  0  0  0  0  0  0  0  0  0
   -9.7208    2.8336    8.2570 C   0  0  0  0  0  0  0  0  0  0  0  0
   -8.8568    2.0596    9.0159 C   0  0  0  0  0  0  0  0  0  0  0  0
   -7.4967    2.1056    8.7659 C   0  0  0  0  0  0  0  0  0  0  0  0
   -7.0082    2.9464    7.7864 C   0  0  0  0  0  0  0  0  0  0  0  0
   -7.8436    3.7328    7.0625 C   0  0  0  0  0  0  0  0  0  0  0  0
   -9.2027    3.6689    7.2672 C   0  0  0  0  0  0  0  0  0  0  0  0
   -9.2505    1.4120    9.8131 H   0  0  0  0  0  0  0  0  0  0  0  0
   -6.8072    1.4743    9.3456 H   0  0  0  0  0  0  0  0  0  0  0  0
   -5.9264    2.9794    7.5900 H   0  0  0  0  0  0  0  0  0  0  0  0
   -7.4336    4.4230    6.3104 H   0  0  0  0  0  0  0  0  0  0  0  0
   -9.8809    4.2766    6.6501 H   0  0  0  0  0  0  0  0  0  0  0  0
  1  2  2  0
  1  3  1  0
  1  4  1  0
  4  5  2  0
  4  9  1  0
  5  6  1  0
  6  7  2  0
  7  8  1  0
  8  9  2  0
  5 10  1  0
  6 11  1  0
  7 12  1  0
  8 13  1  0
  9 14  1  0
M  CHG  1   3  -1
M  END
>  <filename_input>  (4) 
7BNH_BEZ_docked.sdf

>  <pdb_id>  (4) 
7BNH_BEZ

>  <pose_rank>  (4) 
3

>  <num_atoms_heavy>  (4) 
9

>  <num_torsions>  (4) 
1

>  <pose>  (4) 
[-9.720831038583253, 2.8335960481932787, 8.257048471134798, 3.107302527029875, 0.23201158623164417, -0.9750818035147009, -0.11260807998076806]

>  <energy>  (4) 
-474.3958432478817

>  <inter_energy>  (4) 
-468.63435992630065

>  <intra_energy>  (4) 
0.0

>  <rmsd>  (4) 
0.952955

>  <sdf_rank>  (4) 
0

$$$$

     RDKit          3D

 14 14  0  0  0  0  0  0  0  0999 V2000
  -11.1998    2.6825    8.6832 C   0  0  0  0  0  0  0  0  0  0  0  0
  -11.9693    3.5595    8.3087 O   0  0  0  0  0  0  0  0  0  0  0  0
  -11.5575    1.6642    9.3416 O   0  0  0  0  0  0  0  0  0  0  0  0
   -9.7301    2.7915    8.3377 C   0  0  0  0  0  0  0  0  0  0  0  0
   -8.7863    2.0599    9.0416 C   0  0  0  0  0  0  0  0  0  0  0  0
   -7.4468    2.1750    8.7146 C   0  0  0  0  0  0  0  0  0  0  0  0
   -7.0580    3.0420    7.7137 C   0  0  0  0  0  0  0  0  0  0  0  0
   -7.9718    3.7874    7.0430 C   0  0  0  0  0  0  0  0  0  0  0  0
   -9.3120    3.6545    7.3246 C   0  0  0  0  0  0  0  0  0  0  0  0
   -9.1008    1.3911    9.8563 H   0  0  0  0  0  0  0  0  0  0  0  0
   -6.6945    1.5776    9.2505 H   0  0  0  0  0  0  0  0  0  0  0  0
   -5.9922    3.1299    7.4561 H   0  0  0  0  0  0  0  0  0  0  0  0
   -7.6407    4.4993    6.2726 H   0  0  0  0  0  0  0  0  0  0  0  0
  -10.0541    4.2290    6.7506 H   0  0  0  0  0  0  0  0  0  0  0  0
  1  2  2  0
  1  3  1  0
  1  4  1  0
  4  5  2  0
  4  9  1  0
  5  6  1  0
  6  7  2  0
  7  8  1  0
  8  9  2  0
  5 10  1  0
  6 11  1  0
  7 12  1  0
  8 13  1  0
  9 14  1  0
M  CHG  1   3  -1
M  END
>  <filename_input>  (5) 
7BNH_BEZ_docked.sdf

>  <pdb_id>  (5) 
7BNH_BEZ

>  <pose_rank>  (5) 
4

>  <num_atoms_heavy>  (5) 
9

>  <num_torsions>  (5) 
1

>  <pose>  (5) 
[-9.730119152368232, 2.7914572832165745, 8.337680495862354, -2.844856976436059, -0.28366972230726883, 0.9892472627713761, -3.5700211479140767]

>  <energy>  (5) 
-471.927259061319

>  <inter_energy>  (5) 
-462.81075415191305

>  <intra_energy>  (5) 
0.0

>  <rmsd>  (5) 
0.851835

>  <sdf_rank>  (5) 
0

$$$$

     RDKit          3D

 14 14  0  0  0  0  0  0  0  0999 V2000
  -11.3346    3.0909    8.4951 C   0  0  0  0  0  0  0  0  0  0  0  0
  -11.4876    2.6996    9.6462 O   0  0  0  0  0  0  0  0  0  0  0  0
  -12.2654    3.5611    7.7803 O   0  0  0  0  0  0  0  0  0  0  0  0
   -9.9564    3.0336    7.8718 C   0  0  0  0  0  0  0  0  0  0  0  0
   -9.4613    1.8406    7.3689 C   0  0  0  0  0  0  0  0  0  0  0  0
   -8.1977    1.8060    6.8061 C   0  0  0  0  0  0  0  0  0  0  0  0
   -7.4276    2.9510    6.7807 C   0  0  0  0  0  0  0  0  0  0  0  0
   -7.8910    4.1146    7.3017 C   0  0  0  0  0  0  0  0  0  0  0  0
   -9.1613    4.1790    7.8264 C   0  0  0  0  0  0  0  0  0  0  0  0
  -10.0701    0.9257    7.4169 H   0  0  0  0  0  0  0  0  0  0  0  0
   -7.8085    0.8693    6.3806 H   0  0  0  0  0  0  0  0  0  0  0  0
   -6.4239    2.9195    6.3316 H   0  0  0  0  0  0  0  0  0  0  0  0
   -7.2499    5.0085    7.3048 H   0  0  0  0  0  0  0  0  0  0  0  0
   -9.5500    5.1338    8.2101 H   0  0  0  0  0  0  0  0  0  0  0  0
  1  2  2  0
  1  3  1  0
  1  4  1  0
  4  5  2  0
  4  9  1  0
  5  6  1  0
  6  7  2  0
  7  8  1  0
  8  9  2  0
  5 10  1  0
  6 11  1  0
  7 12  1  0
  8 13  1  0
  9 14  1  0
M  CHG  1   3  -1
M  END
>  <filename_input>  (6) 
7BNH_BEZ_docked.sdf

>  <pdb_id>  (6) 
7BNH_BEZ

>  <pose_rank>  (6) 
5

>  <num_atoms_heavy>  (6) 
9

>  <num_torsions>  (6) 
1

>  <pose>  (6) 
[-9.956408724261875, 3.033646829691855, 7.8718153425994535, -1.7981153893444652, -0.07320452581781772, 0.7273347205365354, 1.2836333468033057]

>  <energy>  (6) 
-467.4925012840859

>  <inter_energy>  (6) 
-438.1154397816401

>  <intra_energy>  (6) 
0.0

>  <rmsd>  (6) 
1.59479

>  <sdf_rank>  (6) 
0

$$$$

     RDKit          3D

 14 14  0  0  0  0  0  0  0  0999 V2000
  -11.6453    3.2049    8.0625 C   0  0  0  0  0  0  0  0  0  0  0  0
  -12.4593    3.7444    7.3223 O   0  0  0  0  0  0  0  0  0  0  0  0
  -11.9435    2.6712    9.1691 O   0  0  0  0  0  0  0  0  0  0  0  0
  -10.1916    3.1461    7.6449 C   0  0  0  0  0  0  0  0  0  0  0  0
   -9.6696    1.9950    7.0759 C   0  0  0  0  0  0  0  0  0  0  0  0
   -8.3374    1.9577    6.7038 C   0  0  0  0  0  0  0  0  0  0  0  0
   -7.5313    3.0543    6.9330 C   0  0  0  0  0  0  0  0  0  0  0  0
   -8.0258    4.1725    7.5208 C   0  0  0  0  0  0  0  0  0  0  0  0
   -9.3578    4.2440    7.8582 C   0  0  0  0  0  0  0  0  0  0  0  0
  -10.3114    1.1152    6.9209 H   0  0  0  0  0  0  0  0  0  0  0  0
   -7.9224    1.0575    6.2270 H   0  0  0  0  0  0  0  0  0  0  0  0
   -6.4730    3.0211    6.6348 H   0  0  0  0  0  0  0  0  0  0  0  0
   -7.3605    5.0237    7.7280 H   0  0  0  0  0  0  0  0  0  0  0  0
   -9.7653    5.1671    8.2962 H   0  0  0  0  0  0  0  0  0  0  0  0
  1  2  2  0
  1  3  1  0
  1  4  1  0
  4  5  2  0
  4  9  1  0
  5  6  1  0
  6  7  2  0
  7  8  1  0
  8  9  2  0
  5 10  1  0
  6 11  1  0
  7 12  1  0
  8 13  1  0
  9 14  1  0
M  CHG  1   3  -1
M  END
>  <filename_input>  (7) 
7BNH_BEZ_docked.sdf

>  <pdb_id>  (7) 
7BNH_BEZ

>  <pose_rank>  (7) 
6

>  <num_atoms_heavy>  (7) 
9

>  <num_torsions>  (7) 
1

>  <pose>  (7) 
[-10.191581454520936, 3.1461194558623977, 7.644918349102092, 4.237236528162782, 0.4206585325989682, -1.3316632763606986, 4.448200386818318]

>  <energy>  (7) 
-467.06667950805127

>  <inter_energy>  (7) 
-438.43063622124293

>  <intra_energy>  (7) 
0.0

>  <rmsd>  (7) 
1.88742

>  <sdf_rank>  (7) 
0

$$$$

     RDKit          3D

 14 14  0  0  0  0  0  0  0  0999 V2000
  -11.2040    2.4567    8.4110 C   0  0  0  0  0  0  0  0  0  0  0  0
  -11.2954    1.4332    9.0784 O   0  0  0  0  0  0  0  0  0  0  0  0
  -12.1854    3.1977    8.1180 O   0  0  0  0  0  0  0  0  0  0  0  0
   -9.8445    2.8918    7.9072 C   0  0  0  0  0  0  0  0  0  0  0  0
   -9.4378    4.2111    8.0317 C   0  0  0  0  0  0  0  0  0  0  0  0
   -8.1933    4.5918    7.5620 C   0  0  0  0  0  0  0  0  0  0  0  0
   -7.3811    3.6631    6.9433 C   0  0  0  0  0  0  0  0  0  0  0  0
   -7.7855    2.3777    6.7865 C   0  0  0  0  0  0  0  0  0  0  0  0
   -9.0014    1.9705    7.2855 C   0  0  0  0  0  0  0  0  0  0  0  0
  -10.1014    4.9519    8.5017 H   0  0  0  0  0  0  0  0  0  0  0  0
   -7.8524    5.6308    7.6813 H   0  0  0  0  0  0  0  0  0  0  0  0
   -6.3920    3.9695    6.5721 H   0  0  0  0  0  0  0  0  0  0  0  0
   -7.1401    1.6596    6.2595 H   0  0  0  0  0  0  0  0  0  0  0  0
   -9.3087    0.9183    7.1941 H   0  0  0  0  0  0  0  0  0  0  0  0
  1  2  2  0
  1  3  1  0
  1  4  1  0
  4  5  2  0
  4  9  1  0
  5  6  1  0
  6  7  2  0
  7  8  1  0
  8  9  2  0
  5 10  1  0
  6 11  1  0
  7 12  1  0
  8 13  1  0
  9 14  1  0
M  CHG  1   3  -1
M  END
>  <filename_input>  (8) 
7BNH_BEZ_docked.sdf

>  <pdb_id>  (8) 
7BNH_BEZ

>  <pose_rank>  (8) 
7

>  <num_atoms_heavy>  (8) 
9

>  <num_torsions>  (8) 
1

>  <pose>  (8) 
[-9.844487579713975, 2.8917920817236733, 7.907231597277587, 1.1557789002324093, 0.1616577132499125, -0.3063729042725146, -2.438631282959871]

>  <energy>  (8) 
-462.0194491279876

>  <inter_energy>  (8) 
-440.6305022735523

>  <intra_energy>  (8) 
0.0

>  <rmsd>  (8) 
1.57337

>  <sdf_rank>  (8) 
0

$$$$

     RDKit          3D

 14 14  0  0  0  0  0  0  0  0999 V2000
  -11.1631    2.9206    7.8535 C   0  0  0  0  0  0  0  0  0  0  0  0
  -11.8523    2.7275    8.8481 O   0  0  0  0  0  0  0  0  0  0  0  0
  -11.6279    3.2630    6.7288 O   0  0  0  0  0  0  0  0  0  0  0  0
   -9.6611    2.7616    7.9527 C   0  0  0  0  0  0  0  0  0  0  0  0
   -8.8206    3.4963    7.1310 C   0  0  0  0  0  0  0  0  0  0  0  0
   -7.4501    3.3352    7.2327 C   0  0  0  0  0  0  0  0  0  0  0  0
   -6.9324    2.4204    8.1271 C   0  0  0  0  0  0  0  0  0  0  0  0
   -7.7491    1.6724    8.9106 C   0  0  0  0  0  0  0  0  0  0  0  0
   -9.1124    1.8495    8.8544 C   0  0  0  0  0  0  0  0  0  0  0  0
   -9.2411    4.2040    6.4014 H   0  0  0  0  0  0  0  0  0  0  0  0
   -6.7756    3.9341    6.6031 H   0  0  0  0  0  0  0  0  0  0  0  0
   -5.8423    2.2959    8.2056 H   0  0  0  0  0  0  0  0  0  0  0  0
   -7.3205    0.9229    9.5923 H   0  0  0  0  0  0  0  0  0  0  0  0
   -9.7699    1.2717    9.5207 H   0  0  0  0  0  0  0  0  0  0  0  0
  1  2  2  0
  1  3  1  0
  1  4  1  0
  4  5  2  0
  4  9  1  0
  5  6  1  0
  6  7  2  0
  7  8  1  0
  8  9  2  0
  5 10  1  0
  6 11  1  0
  7 12  1  0
  8 13  1  0
  9 14  1  0
M  CHG  1   3  -1
M  END
>  <filename_input>  (9) 
7BNH_BEZ_docked.sdf

>  <pdb_id>  (9) 
7BNH_BEZ

>  <pose_rank>  (9) 
8

>  <num_atoms_heavy>  (9) 
9

>  <num_torsions>  (9) 
1

>  <pose>  (9) 
[-9.661068686006315, 2.7615699730952477, 7.952661051127627, -1.2787969122912202, 5.035053318290463, 2.374564266630728, 3.543292814200247]

>  <energy>  (9) 
-425.95514456899457

>  <inter_energy>  (9) 
-422.3971715846885

>  <intra_energy>  (9) 
0.0

>  <rmsd>  (9) 
1.45713

>  <sdf_rank>  (9) 
0

$$$$

     RDKit          3D

 14 14  0  0  0  0  0  0  0  0999 V2000
   -8.8975    0.8480    8.8353 C   0  0  0  0  0  0  0  0  0  0  0  0
   -8.4551    0.7998    9.9770 O   0  0  0  0  0  0  0  0  0  0  0  0
   -9.2595   -0.1679    8.1757 O   0  0  0  0  0  0  0  0  0  0  0  0
   -9.0444    2.1925    8.1555 C   0  0  0  0  0  0  0  0  0  0  0  0
   -7.9272    2.9619    7.8703 C   0  0  0  0  0  0  0  0  0  0  0  0
   -8.0807    4.1902    7.2521 C   0  0  0  0  0  0  0  0  0  0  0  0
   -9.3461    4.6543    6.9551 C   0  0  0  0  0  0  0  0  0  0  0  0
  -10.4468    3.9230    7.2620 C   0  0  0  0  0  0  0  0  0  0  0  0
  -10.3120    2.6805    7.8375 C   0  0  0  0  0  0  0  0  0  0  0  0
   -6.9234    2.5977    8.1343 H   0  0  0  0  0  0  0  0  0  0  0  0
   -7.1974    4.7946    6.9981 H   0  0  0  0  0  0  0  0  0  0  0  0
   -9.4639    5.6308    6.4627 H   0  0  0  0  0  0  0  0  0  0  0  0
  -11.4489    4.3241    7.0503 H   0  0  0  0  0  0  0  0  0  0  0  0
  -11.2040    2.0718    8.0469 H   0  0  0  0  0  0  0  0  0  0  0  0
  1  2  2  0
  1  3  1  0
  1  4  1  0
  4  5  2  0
  4  9  1  0
  5  6  1  0
  6  7  2  0
  7  8  1  0
  8  9  2  0
  5 10  1  0
  6 11  1  0
  7 12  1  0
  8 13  1  0
  9 14  1  0
M  CHG  1   3  -1
M  END
>  <filename_input>  (10) 
7BNH_BEZ_docked.sdf

>  <pdb_id>  (10) 
7BNH_BEZ

>  <pose_rank>  (10) 
9

>  <num_atoms_heavy>  (10) 
9

>  <num_torsions>  (10) 
1

>  <pose>  (10) 
[-9.044426238358376, 2.192473229341306, 8.15552261209419, -1.563290990766787, -1.9257392735786123, 1.8085939571991605, 7.303075437393068]

>  <energy>  (10) 
-382.44980839392747

>  <inter_energy>  (10) 
-364.21524523499966

>  <intra_energy>  (10) 
0.0

>  <rmsd>  (10) 
2.62342

>  <sdf_rank>  (10) 
0

$$$$

     RDKit          3D

 14 14  0  0  0  0  0  0  0  0999 V2000
   -7.7701    0.8984    8.6873 C   0  0  0  0  0  0  0  0  0  0  0  0
   -6.6258    1.2121    8.9930 O   0  0  0  0  0  0  0  0  0  0  0  0
   -8.2528   -0.2582    8.8538 O   0  0  0  0  0  0  0  0  0  0  0  0
   -8.6874    1.9420    8.0867 C   0  0  0  0  0  0  0  0  0  0  0  0
  -10.0316    1.6667    7.8894 C   0  0  0  0  0  0  0  0  0  0  0  0
  -10.8545    2.6312    7.3355 C   0  0  0  0  0  0  0  0  0  0  0  0
  -10.3242    3.8466    6.9528 C   0  0  0  0  0  0  0  0  0  0  0  0
   -9.0031    4.1116    7.1106 C   0  0  0  0  0  0  0  0  0  0  0  0
   -8.1777    3.1813    7.6992 C   0  0  0  0  0  0  0  0  0  0  0  0
  -10.4420    0.6860    8.1719 H   0  0  0  0  0  0  0  0  0  0  0  0
  -11.9275    2.4301    7.2006 H   0  0  0  0  0  0  0  0  0  0  0  0
  -10.9819    4.6112    6.5137 H   0  0  0  0  0  0  0  0  0  0  0  0
   -8.5910    5.0720    6.7674 H   0  0  0  0  0  0  0  0  0  0  0  0
   -7.1155    3.4149    7.8641 H   0  0  0  0  0  0  0  0  0  0  0  0
  1  2  2  0
  1  3  1  0
  1  4  1  0
  4  5  2  0
  4  9  1  0
  5  6  1  0
  6  7  2  0
  7  8  1  0
  8  9  2  0
  5 10  1  0
  6 11  1  0
  7 12  1  0
  8 13  1  0
  9 14  1  0
M  CHG  1   3  -1
M  END
>  <filename_input>  (11) 
7BNH_BEZ_docked.sdf

>  <pdb_id>  (11) 
7BNH_BEZ

>  <pose_rank>  (11) 
10

>  <num_atoms_heavy>  (11) 
9

>  <num_torsions>  (11) 
1

>  <pose>  (11) 
[-8.68741891763301, 1.941954152155202, 8.086684309780432, 0.40158330277141746, 0.95595229734875, 1.5923863576971289, -3.101289402760373]

>  <energy>  (11) 
-395.22847143869967

>  <inter_energy>  (11) 
-391.0015583942668

>  <intra_energy>  (11) 
0.0

>  <rmsd>  (11) 
3.29821

>  <sdf_rank>  (11) 
0

$$$$

     RDKit          3D

 14 14  0  0  0  0  0  0  0  0999 V2000
  -11.3993    2.7975    8.5840 C   0  0  0  0  0  0  0  0  0  0  0  0
  -11.7507    2.7719    9.7576 O   0  0  0  0  0  0  0  0  0  0  0  0
  -12.2018    2.7962    7.6072 O   0  0  0  0  0  0  0  0  0  0  0  0
   -9.9226    2.8493    8.2555 C   0  0  0  0  0  0  0  0  0  0  0  0
   -9.4653    3.6119    7.1921 C   0  0  0  0  0  0  0  0  0  0  0  0
   -8.1124    3.6444    6.9038 C   0  0  0  0  0  0  0  0  0  0  0  0
   -7.2336    2.8912    7.6556 C   0  0  0  0  0  0  0  0  0  0  0  0
   -7.6768    2.1152    8.6763 C   0  0  0  0  0  0  0  0  0  0  0  0
   -9.0127    2.1036    9.0052 C   0  0  0  0  0  0  0  0  0  0  0  0
  -10.1747    4.1886    6.5803 H   0  0  0  0  0  0  0  0  0  0  0  0
   -7.7386    4.2683    6.0786 H   0  0  0  0  0  0  0  0  0  0  0  0
   -6.1586    2.9204    7.4239 H   0  0  0  0  0  0  0  0  0  0  0  0
   -6.9667    1.4941    9.2420 H   0  0  0  0  0  0  0  0  0  0  0  0
   -9.3635    1.5061    9.8597 H   0  0  0  0  0  0  0  0  0  0  0  0
  1  2  2  0
  1  3  1  0
  1  4  1  0
  4  5  2  0
  4  9  1  0
  5  6  1  0
  6  7  2  0
  7  8  1  0
  8  9  2  0
  5 10  1  0
  6 11  1  0
  7 12  1  0
  8 13  1  0
  9 14  1  0
M  CHG  1   3  -1
M  END
>  <filename_input>  (12) 
7BNH_BEZ_docked.sdf

>  <pdb_id>  (12) 
7BNH_BEZ

>  <pose_rank>  (12) 
11

>  <num_atoms_heavy>  (12) 
9

>  <num_torsions>  (12) 
1

>  <pose>  (12) 
[-9.922576398509003, 2.8492751260082474, 8.255450048753811, -1.4826967368016783, 5.380098567992038, 2.313704368579004, 3.699989178481284]

>  <energy>  (12) 
-437.1861409178368

>  <inter_energy>  (12) 
-435.3062206305314

>  <intra_energy>  (12) 
0.0

>  <rmsd>  (12) 
1.01324

>  <sdf_rank>  (12) 
0

$$$$

     RDKit          3D

 14 14  0  0  0  0  0  0  0  0999 V2000
  -10.8449    2.7983    7.6200 C   0  0  0  0  0  0  0  0  0  0  0  0
  -11.5011    3.1675    8.5867 O   0  0  0  0  0  0  0  0  0  0  0  0
  -11.3337    2.5948    6.4719 O   0  0  0  0  0  0  0  0  0  0  0  0
   -9.3554    2.5798    7.7774 C   0  0  0  0  0  0  0  0  0  0  0  0
   -8.8728    1.6618    8.6971 C   0  0  0  0  0  0  0  0  0  0  0  0
   -7.5079    1.4779    8.8303 C   0  0  0  0  0  0  0  0  0  0  0  0
   -6.6376    2.2335    8.0710 C   0  0  0  0  0  0  0  0  0  0  0  0
   -7.1007    3.1585    7.1934 C   0  0  0  0  0  0  0  0  0  0  0  0
   -8.4549    3.3250    7.0159 C   0  0  0  0  0  0  0  0  0  0  0  0
   -9.5717    1.0823    9.3182 H   0  0  0  0  0  0  0  0  0  0  0  0
   -7.1179    0.7322    9.5386 H   0  0  0  0  0  0  0  0  0  0  0  0
   -5.5533    2.0837    8.1791 H   0  0  0  0  0  0  0  0  0  0  0  0
   -6.3922    3.7766    6.6224 H   0  0  0  0  0  0  0  0  0  0  0  0
   -8.8277    4.0460    6.2734 H   0  0  0  0  0  0  0  0  0  0  0  0
  1  2  2  0
  1  3  1  0
  1  4  1  0
  4  5  2  0
  4  9  1  0
  5  6  1  0
  6  7  2  0
  7  8  1  0
  8  9  2  0
  5 10  1  0
  6 11  1  0
  7 12  1  0
  8 13  1  0
  9 14  1  0
M  CHG  1   3  -1
M  END
>  <filename_input>  (13) 
7BNH_BEZ_docked.sdf

>  <pdb_id>  (13) 
7BNH_BEZ

>  <pose_rank>  (13) 
12

>  <num_atoms_heavy>  (13) 
9

>  <num_torsions>  (13) 
1

>  <pose>  (13) 
[-9.35539313306679, 2.5797675805400795, 7.777360014363225, -2.9205380734035664, -0.011791761540671759, 0.46041919706807677, 7.212328794851258]

>  <energy>  (13) 
-421.5177427099451

>  <inter_energy>  (13) 
-417.65305767833274

>  <intra_energy>  (13) 
0.0

>  <rmsd>  (13) 
1.66012

>  <sdf_rank>  (13) 
0

$$$$

     RDKit          3D

 14 14  0  0  0  0  0  0  0  0999 V2000
  -11.2814    2.6014    8.9887 C   0  0  0  0  0  0  0  0  0  0  0  0
  -12.3226    2.6066    8.3427 O   0  0  0  0  0  0  0  0  0  0  0  0
  -11.2347    2.6339   10.2516 O   0  0  0  0  0  0  0  0  0  0  0  0
   -9.9578    2.5374    8.2571 C   0  0  0  0  0  0  0  0  0  0  0  0
   -9.7328    3.3273    7.1405 C   0  0  0  0  0  0  0  0  0  0  0  0
   -8.5183    3.2529    6.4818 C   0  0  0  0  0  0  0  0  0  0  0  0
   -7.5538    2.3688    6.9212 C   0  0  0  0  0  0  0  0  0  0  0  0
   -7.7787    1.5674    7.9924 C   0  0  0  0  0  0  0  0  0  0  0  0
   -8.9635    1.6581    8.6861 C   0  0  0  0  0  0  0  0  0  0  0  0
  -10.5162    4.0101    6.7797 H   0  0  0  0  0  0  0  0  0  0  0  0
   -8.3222    3.8959    5.6111 H   0  0  0  0  0  0  0  0  0  0  0  0
   -6.5892    2.3133    6.3954 H   0  0  0  0  0  0  0  0  0  0  0  0
   -7.0124    0.8436    8.3070 H   0  0  0  0  0  0  0  0  0  0  0  0
   -9.1266    1.0370    9.5793 H   0  0  0  0  0  0  0  0  0  0  0  0
  1  2  2  0
  1  3  1  0
  1  4  1  0
  4  5  2  0
  4  9  1  0
  5  6  1  0
  6  7  2  0
  7  8  1  0
  8  9  2  0
  5 10  1  0
  6 11  1  0
  7 12  1  0
  8 13  1  0
  9 14  1  0
M  CHG  1   3  -1
M  END
>  <filename_input>  (14) 
7BNH_BEZ_docked.sdf

>  <pdb_id>  (14) 
7BNH_BEZ

>  <pose_rank>  (14) 
13

>  <num_atoms_heavy>  (14) 
9

>  <num_torsions>  (14) 
1

>  <pose>  (14) 
[-9.957811451103273, 2.5374099473160863, 8.257100061106788, -2.3118173013048136, -1.7628358589115545, 5.299817303531365, 6.9551768183088445]

>  <energy>  (14) 
-398.17177722086944

>  <inter_energy>  (14) 
-394.61934400358405

>  <intra_energy>  (14) 
0.0

>  <rmsd>  (14) 
1.02532

>  <sdf_rank>  (14) 
0

$$$$

     RDKit          3D

 14 14  0  0  0  0  0  0  0  0999 V2000
  -11.1790    3.1452    8.0584 C   0  0  0  0  0  0  0  0  0  0  0  0
  -11.5692    2.8977    9.1933 O   0  0  0  0  0  0  0  0  0  0  0  0
  -11.9488    3.3738    7.0820 O   0  0  0  0  0  0  0  0  0  0  0  0
   -9.6915    3.2019    7.7840 C   0  0  0  0  0  0  0  0  0  0  0  0
   -9.2121    3.7978    6.6279 C   0  0  0  0  0  0  0  0  0  0  0  0
   -7.8493    3.8371    6.3916 C   0  0  0  0  0  0  0  0  0  0  0  0
   -6.9809    3.2533    7.2915 C   0  0  0  0  0  0  0  0  0  0  0  0
   -7.4439    2.6378    8.4083 C   0  0  0  0  0  0  0  0  0  0  0  0
   -8.7922    2.6264    8.6819 C   0  0  0  0  0  0  0  0  0  0  0  0
   -9.9117    4.2373    5.9018 H   0  0  0  0  0  0  0  0  0  0  0  0
   -7.4595    4.3319    5.4898 H   0  0  0  0  0  0  0  0  0  0  0  0
   -5.8981    3.2875    7.1005 H   0  0  0  0  0  0  0  0  0  0  0  0
   -6.7399    2.1469    9.0964 H   0  0  0  0  0  0  0  0  0  0  0  0
   -9.1613    2.1634    9.6090 H   0  0  0  0  0  0  0  0  0  0  0  0
  1  2  2  0
  1  3  1  0
  1  4  1  0
  4  5  2  0
  4  9  1  0
  5  6  1  0
  6  7  2  0
  7  8  1  0
  8  9  2  0
  5 10  1  0
  6 11  1  0
  7 12  1  0
  8 13  1  0
  9 14  1  0
M  CHG  1   3  -1
M  END
>  <filename_input>  (15) 
7BNH_BEZ_docked.sdf

>  <pdb_id>  (15) 
7BNH_BEZ

>  <pose_rank>  (15) 
14

>  <num_atoms_heavy>  (15) 
9

>  <num_torsions>  (15) 
1

>  <pose>  (15) 
[-9.6914518575078, 3.201904345246281, 7.78401147440089, 2.1000674128080443, 5.566322344006177, 0.7707428933624205, -2.9603099156938306]

>  <energy>  (15) 
-412.7270277436097

>  <inter_energy>  (15) 
-410.66494167310236

>  <intra_energy>  (15) 
0.0

>  <rmsd>  (15) 
1.42599

>  <sdf_rank>  (15) 
0

$$$$

     RDKit          3D

 14 14  0  0  0  0  0  0  0  0999 V2000
  -11.0992    3.2612    7.5496 C   0  0  0  0  0  0  0  0  0  0  0  0
  -12.0012    2.7645    8.2137 O   0  0  0  0  0  0  0  0  0  0  0  0
  -11.2746    4.1742    6.6928 O   0  0  0  0  0  0  0  0  0  0  0  0
   -9.6782    2.7830    7.7577 C   0  0  0  0  0  0  0  0  0  0  0  0
   -8.6077    3.5511    7.3270 C   0  0  0  0  0  0  0  0  0  0  0  0
   -7.3156    3.0964    7.5221 C   0  0  0  0  0  0  0  0  0  0  0  0
   -7.1038    1.8672    8.1129 C   0  0  0  0  0  0  0  0  0  0  0  0
   -8.1466    1.0937    8.5060 C   0  0  0  0  0  0  0  0  0  0  0  0
   -9.4371    1.5479    8.3597 C   0  0  0  0  0  0  0  0  0  0  0  0
   -8.7847    4.5177    6.8325 H   0  0  0  0  0  0  0  0  0  0  0  0
   -6.4602    3.7124    7.2075 H   0  0  0  0  0  0  0  0  0  0  0  0
   -6.0750    1.5097    8.2670 H   0  0  0  0  0  0  0  0  0  0  0  0
   -7.9601    0.1014    8.9427 H   0  0  0  0  0  0  0  0  0  0  0  0
  -10.2790    0.9370    8.7176 H   0  0  0  0  0  0  0  0  0  0  0  0
  1  2  2  0
  1  3  1  0
  1  4  1  0
  4  5  2  0
  4  9  1  0
  5  6  1  0
  6  7  2  0
  7  8  1  0
  8  9  2  0
  5 10  1  0
  6 11  1  0
  7 12  1  0
  8 13  1  0
  9 14  1  0
M  CHG  1   3  -1
M  END
>  <filename_input>  (16) 
7BNH_BEZ_docked.sdf

>  <pdb_id>  (16) 
7BNH_BEZ

>  <pose_rank>  (16) 
15

>  <num_atoms_heavy>  (16) 
9

>  <num_torsions>  (16) 
1

>  <pose>  (16) 
[-9.678201058523335, 2.7829934506476564, 7.757665195598407, -2.545666654655802, 3.7214750316699052, 2.9488265745803566, 3.358044798843065]

>  <energy>  (16) 
-409.92599300121066

>  <inter_energy>  (16) 
-404.0764142935225

>  <intra_energy>  (16) 
0.0

>  <rmsd>  (16) 
1.8569

>  <sdf_rank>  (16) 
0

$$$$

     RDKit          3D

 14 14  0  0  0  0  0  0  0  0999 V2000
  -10.6307    2.4122    7.7588 C   0  0  0  0  0  0  0  0  0  0  0  0
  -11.2772    2.4261    8.7996 O   0  0  0  0  0  0  0  0  0  0  0  0
  -11.1435    2.5222    6.6084 O   0  0  0  0  0  0  0  0  0  0  0  0
   -9.1251    2.2715    7.8254 C   0  0  0  0  0  0  0  0  0  0  0  0
   -8.3122    3.0042    6.9747 C   0  0  0  0  0  0  0  0  0  0  0  0
   -6.9379    2.8599    7.0470 C   0  0  0  0  0  0  0  0  0  0  0  0
   -6.3894    1.9634    7.9415 C   0  0  0  0  0  0  0  0  0  0  0  0
   -7.1792    1.2172    8.7538 C   0  0  0  0  0  0  0  0  0  0  0  0
   -8.5454    1.3781    8.7266 C   0  0  0  0  0  0  0  0  0  0  0  0
   -8.7575    3.6970    6.2456 H   0  0  0  0  0  0  0  0  0  0  0  0
   -6.2850    3.4576    6.3940 H   0  0  0  0  0  0  0  0  0  0  0  0
   -5.2964    1.8523    7.9967 H   0  0  0  0  0  0  0  0  0  0  0  0
   -6.7266    0.4820    9.4354 H   0  0  0  0  0  0  0  0  0  0  0  0
   -9.1808    0.8023    9.4156 H   0  0  0  0  0  0  0  0  0  0  0  0
  1  2  2  0
  1  3  1  0
  1  4  1  0
  4  5  2  0
  4  9  1  0
  5  6  1  0
  6  7  2  0
  7  8  1  0
  8  9  2  0
  5 10  1  0
  6 11  1  0
  7 12  1  0
  8 13  1  0
  9 14  1  0
M  CHG  1   3  -1
M  END
>  <filename_input>  (17) 
7BNH_BEZ_docked.sdf

>  <pdb_id>  (17) 
7BNH_BEZ

>  <pose_rank>  (17) 
16

>  <num_atoms_heavy>  (17) 
9

>  <num_torsions>  (17) 
1

>  <pose>  (17) 
[-9.125080275142677, 2.271462431020912, 7.825449345986252, -1.2106665803923902, 5.086615448894492, 2.3678596036659756, 3.73406127381155]

>  <energy>  (17) 
-377.61108123512344

>  <inter_energy>  (17) 
-367.82276907193886

>  <intra_energy>  (17) 
0.0

>  <rmsd>  (17) 
1.6204

>  <sdf_rank>  (17) 
0

$$$$

     RDKit          3D

 14 14  0  0  0  0  0  0  0  0999 V2000
  -11.3026    2.6499    8.7040 C   0  0  0  0  0  0  0  0  0  0  0  0
  -11.9588    2.6717    9.7387 O   0  0  0  0  0  0  0  0  0  0  0  0
  -11.8019    2.7752    7.5494 O   0  0  0  0  0  0  0  0  0  0  0  0
   -9.8007    2.4795    8.7846 C   0  0  0  0  0  0  0  0  0  0  0  0
   -8.9656    3.1973    7.9426 C   0  0  0  0  0  0  0  0  0  0  0  0
   -7.5952    3.0259    8.0276 C   0  0  0  0  0  0  0  0  0  0  0  0
   -7.0728    2.1175    8.9258 C   0  0  0  0  0  0  0  0  0  0  0  0
   -7.8848    1.3859    9.7294 C   0  0  0  0  0  0  0  0  0  0  0  0
   -9.2472    1.5737    9.6897 C   0  0  0  0  0  0  0  0  0  0  0  0
   -9.3903    3.8997    7.2104 H   0  0  0  0  0  0  0  0  0  0  0  0
   -6.9246    3.6115    7.3816 H   0  0  0  0  0  0  0  0  0  0  0  0
   -5.9828    1.9849    8.9909 H   0  0  0  0  0  0  0  0  0  0  0  0
   -7.4530    0.6410   10.4141 H   0  0  0  0  0  0  0  0  0  0  0  0
   -9.9002    1.0095   10.3718 H   0  0  0  0  0  0  0  0  0  0  0  0
  1  2  2  0
  1  3  1  0
  1  4  1  0
  4  5  2  0
  4  9  1  0
  5  6  1  0
  6  7  2  0
  7  8  1  0
  8  9  2  0
  5 10  1  0
  6 11  1  0
  7 12  1  0
  8 13  1  0
  9 14  1  0
M  CHG  1   3  -1
M  END
>  <filename_input>  (18) 
7BNH_BEZ_docked.sdf

>  <pdb_id>  (18) 
7BNH_BEZ

>  <pose_rank>  (18) 
17

>  <num_atoms_heavy>  (18) 
9

>  <num_torsions>  (18) 
1

>  <pose>  (18) 
[-9.80070430088353, 2.4795271088678166, 8.784582129758478, -1.148438027607749, 5.0254571458294475, 2.4856302706531395, 3.7307991618310985]

>  <energy>  (18) 
-378.0255800895333

>  <inter_energy>  (18) 
-372.73357067952554

>  <intra_energy>  (18) 
0.0

>  <rmsd>  (18) 
1.16702

>  <sdf_rank>  (18) 
0

$$$$

     RDKit          3D

 14 14  0  0  0  0  0  0  0  0999 V2000
  -11.4002    2.8113    8.5041 C   0  0  0  0  0  0  0  0  0  0  0  0
  -11.7630    2.3848    9.5941 O   0  0  0  0  0  0  0  0  0  0  0  0
  -12.1896    3.2551    7.6221 O   0  0  0  0  0  0  0  0  0  0  0  0
   -9.9233    2.8339    8.1734 C   0  0  0  0  0  0  0  0  0  0  0  0
   -9.4540    3.5782    7.1024 C   0  0  0  0  0  0  0  0  0  0  0  0
   -8.1011    3.5840    6.8123 C   0  0  0  0  0  0  0  0  0  0  0  0
   -7.2347    2.8226    7.5702 C   0  0  0  0  0  0  0  0  0  0  0  0
   -7.6902    2.0643    8.5988 C   0  0  0  0  0  0  0  0  0  0  0  0
   -9.0258    2.0794    8.9293 C   0  0  0  0  0  0  0  0  0  0  0  0
  -10.1538    4.1614    6.4859 H   0  0  0  0  0  0  0  0  0  0  0  0
   -7.7174    4.1933    5.9807 H   0  0  0  0  0  0  0  0  0  0  0  0
   -6.1597    2.8307    7.3371 H   0  0  0  0  0  0  0  0  0  0  0  0
   -6.9905    1.4362    9.1696 H   0  0  0  0  0  0  0  0  0  0  0  0
   -9.3859    1.4964    9.7898 H   0  0  0  0  0  0  0  0  0  0  0  0
  1  2  2  0
  1  3  1  0
  1  4  1  0
  4  5  2  0
  4  9  1  0
  5  6  1  0
  6  7  2  0
  7  8  1  0
  8  9  2  0
  5 10  1  0
  6 11  1  0
  7 12  1  0
  8 13  1  0
  9 14  1  0
M  CHG  1   3  -1
M  END
>  <filename_input>  (19) 
7BNH_BEZ_docked.sdf

>  <pdb_id>  (19) 
7BNH_BEZ

>  <pose_rank>  (19) 
18

>  <num_atoms_heavy>  (19) 
9

>  <num_torsions>  (19) 
1

>  <pose>  (19) 
[-9.923261725955578, 2.8338785170006098, 8.173448218458736, -1.17611891406207, 5.280410037354261, 2.6797395196323683, 3.298096989686402]

>  <energy>  (19) 
-442.33667970594615

>  <inter_energy>  (19) 
-442.3247043510277

>  <intra_energy>  (19) 
0.0

>  <rmsd>  (19) 
1.04723

>  <sdf_rank>  (19) 
0

$$$$

     RDKit          3D

 14 14  0  0  0  0  0  0  0  0999 V2000
  -10.9324    2.9242    9.0969 C   0  0  0  0  0  0  0  0  0  0  0  0
  -11.3657    2.4474   10.1392 O   0  0  0  0  0  0  0  0  0  0  0  0
  -11.6392    3.5633    8.2661 O   0  0  0  0  0  0  0  0  0  0  0  0
   -9.4636    2.7667    8.7664 C   0  0  0  0  0  0  0  0  0  0  0  0
   -8.8689    3.5709    7.8067 C   0  0  0  0  0  0  0  0  0  0  0  0
   -7.5259    3.4104    7.5147 C   0  0  0  0  0  0  0  0  0  0  0  0
   -6.7979    2.4289    8.1562 C   0  0  0  0  0  0  0  0  0  0  0  0
   -7.3805    1.6148    9.0717 C   0  0  0  0  0  0  0  0  0  0  0  0
   -8.7038    1.7876    9.4067 C   0  0  0  0  0  0  0  0  0  0  0  0
   -9.4617    4.3332    7.2799 H   0  0  0  0  0  0  0  0  0  0  0  0
   -7.0403    4.0626    6.7739 H   0  0  0  0  0  0  0  0  0  0  0  0
   -5.7303    2.3051    7.9219 H   0  0  0  0  0  0  0  0  0  0  0  0
   -6.7939    0.8149    9.5471 H   0  0  0  0  0  0  0  0  0  0  0  0
   -9.1627    1.1535   10.1796 H   0  0  0  0  0  0  0  0  0  0  0  0
  1  2  2  0
  1  3  1  0
  1  4  1  0
  4  5  2  0
  4  9  1  0
  5  6  1  0
  6  7  2  0
  7  8  1  0
  8  9  2  0
  5 10  1  0
  6 11  1  0
  7 12  1  0
  8 13  1  0
  9 14  1  0
M  CHG  1   3  -1
M  END
>  <filename_input>  (20) 
7BNH_BEZ_docked.sdf

>  <pdb_id>  (20) 
7BNH_BEZ

>  <pose_rank>  (20) 
19

>  <num_atoms_heavy>  (20) 
9

>  <num_torsions>  (20) 
1

>  <pose>  (20) 
[-9.46364253967765, 2.7667194451440844, 8.766352586211623, -2.5681046899571007, 3.2783390549268483, 4.168689020498042, 3.3369136983524834]

>  <energy>  (20) 
-390.2506106030755

>  <inter_energy>  (20) 
-394.7235211020445

>  <intra_energy>  (20) 
0.0

>  <rmsd>  (20) 
0.680245

>  <sdf_rank>  (20) 
0

$$$$

     RDKit          3D

 14 14  0  0  0  0  0  0  0  0999 V2000
  -10.9910    2.7318    8.3374 C   0  0  0  0  0  0  0  0  0  0  0  0
  -11.5057    2.6331    9.4450 O   0  0  0  0  0  0  0  0  0  0  0  0
  -11.6467    2.8461    7.2625 O   0  0  0  0  0  0  0  0  0  0  0  0
   -9.4818    2.7354    8.2211 C   0  0  0  0  0  0  0  0  0  0  0  0
   -8.8522    3.5167    7.2648 C   0  0  0  0  0  0  0  0  0  0  0  0
   -7.4718    3.5046    7.1703 C   0  0  0  0  0  0  0  0  0  0  0  0
   -6.7352    2.6896    8.0057 C   0  0  0  0  0  0  0  0  0  0  0  0
   -7.3453    1.8959    8.9213 C   0  0  0  0  0  0  0  0  0  0  0  0
   -8.7139    1.9268    9.0593 C   0  0  0  0  0  0  0  0  0  0  0  0
   -9.4472    4.1435    6.5842 H   0  0  0  0  0  0  0  0  0  0  0  0
   -6.9634    4.1422    6.4320 H   0  0  0  0  0  0  0  0  0  0  0  0
   -5.6379    2.6835    7.9281 H   0  0  0  0  0  0  0  0  0  0  0  0
   -6.7447    1.2264    9.5545 H   0  0  0  0  0  0  0  0  0  0  0  0
   -9.2027    1.3136    9.8307 H   0  0  0  0  0  0  0  0  0  0  0  0
  1  2  2  0
  1  3  1  0
  1  4  1  0
  4  5  2  0
  4  9  1  0
  5  6  1  0
  6  7  2  0
  7  8  1  0
  8  9  2  0
  5 10  1  0
  6 11  1  0
  7 12  1  0
  8 13  1  0
  9 14  1  0
M  CHG  1   3  -1
M  END
>  <filename_input>  (21) 
7BNH_BEZ_docked.sdf

>  <pdb_id>  (21) 
7BNH_BEZ

>  <pose_rank>  (21) 
20

>  <num_atoms_heavy>  (21) 
9

>  <num_torsions>  (21) 
1

>  <pose>  (21) 
[-9.481801440789502, 2.735423923671761, 8.22111527230358, -1.512912551419233, 5.344220635791688, 1.9627300194231498, 3.657656569467402]

>  <energy>  (21) 
-433.2299220579185

>  <inter_energy>  (21) 
-431.3126827645589

>  <intra_energy>  (21) 
0.0

>  <rmsd>  (21) 
1.06422

>  <sdf_rank>  (21) 
0

$$$$

     RDKit          3D

 14 14  0  0  0  0  0  0  0  0999 V2000
  -11.3513    2.9652    8.4483 C   0  0  0  0  0  0  0  0  0  0  0  0
  -11.7489    3.2540    9.5708 O   0  0  0  0  0  0  0  0  0  0  0  0
  -12.1107    2.8061    7.4502 O   0  0  0  0  0  0  0  0  0  0  0  0
   -9.8658    2.7980    8.2105 C   0  0  0  0  0  0  0  0  0  0  0  0
   -9.2125    3.5773    7.2686 C   0  0  0  0  0  0  0  0  0  0  0  0
   -7.8549    3.4080    7.0617 C   0  0  0  0  0  0  0  0  0  0  0  0
   -7.1692    2.4422    7.7701 C   0  0  0  0  0  0  0  0  0  0  0  0
   -7.8077    1.6518    8.6690 C   0  0  0  0  0  0  0  0  0  0  0  0
   -9.1482    1.8344    8.9195 C   0  0  0  0  0  0  0  0  0  0  0  0
   -9.7707    4.3267    6.6882 H   0  0  0  0  0  0  0  0  0  0  0  0
   -7.3240    4.0410    6.3353 H   0  0  0  0  0  0  0  0  0  0  0  0
   -6.0898    2.3114    7.6034 H   0  0  0  0  0  0  0  0  0  0  0  0
   -7.2526    0.8635    9.1985 H   0  0  0  0  0  0  0  0  0  0  0  0
   -9.6542    1.2204    9.6791 H   0  0  0  0  0  0  0  0  0  0  0  0
  1  2  2  0
  1  3  1  0
  1  4  1  0
  4  5  2  0
  4  9  1  0
  5  6  1  0
  6  7  2  0
  7  8  1  0
  8  9  2  0
  5 10  1  0
  6 11  1  0
  7 12  1  0
  8 13  1  0
  9 14  1  0
M  CHG  1   3  -1
M  END
>  <filename_input>  (22) 
7BNH_BEZ_docked.sdf

>  <pdb_id>  (22) 
7BNH_BEZ

>  <pose_rank>  (22) 
21

>  <num_atoms_heavy>  (22) 
9

>  <num_torsions>  (22) 
1

>  <pose>  (22) 
[-9.865780116019339, 2.7979721004832436, 8.210539545953852, -2.1524906313426317, 3.9259836252532985, 3.7872965211008998, 4.055190355508704]

>  <energy>  (22) 
-420.3333780551385

>  <inter_energy>  (22) 
-413.36181543266014

>  <intra_energy>  (22) 
0.0

>  <rmsd>  (22) 
1.16713

>  <sdf_rank>  (22) 
0

$$$$

     RDKit          3D

 14 14  0  0  0  0  0  0  0  0999 V2000
  -11.0064    2.9959    8.0805 C   0  0  0  0  0  0  0  0  0  0  0  0
  -11.9002    3.0545    8.9167 O   0  0  0  0  0  0  0  0  0  0  0  0
  -11.1180    3.4271    6.8973 O   0  0  0  0  0  0  0  0  0  0  0  0
   -9.6734    2.3900    8.4643 C   0  0  0  0  0  0  0  0  0  0  0  0
   -8.4911    2.9285    7.9810 C   0  0  0  0  0  0  0  0  0  0  0  0
   -7.2819    2.3592    8.3392 C   0  0  0  0  0  0  0  0  0  0  0  0
   -7.2642    1.2402    9.1469 C   0  0  0  0  0  0  0  0  0  0  0  0
   -8.4181    0.6863    9.5963 C   0  0  0  0  0  0  0  0  0  0  0  0
   -9.6279    1.2637    9.2861 C   0  0  0  0  0  0  0  0  0  0  0  0
   -8.5141    3.8042    7.3157 H   0  0  0  0  0  0  0  0  0  0  0  0
   -6.3382    2.7969    7.9816 H   0  0  0  0  0  0  0  0  0  0  0  0
   -6.3008    0.7911    9.4302 H   0  0  0  0  0  0  0  0  0  0  0  0
   -8.3866   -0.2262   10.2098 H   0  0  0  0  0  0  0  0  0  0  0  0
  -10.5595    0.8370    9.6863 H   0  0  0  0  0  0  0  0  0  0  0  0
  1  2  2  0
  1  3  1  0
  1  4  1  0
  4  5  2  0
  4  9  1  0
  5  6  1  0
  6  7  2  0
  7  8  1  0
  8  9  2  0
  5 10  1  0
  6 11  1  0
  7 12  1  0
  8 13  1  0
  9 14  1  0
M  CHG  1   3  -1
M  END
>  <filename_input>  (23) 
7BNH_BEZ_docked.sdf

>  <pdb_id>  (23) 
7BNH_BEZ

>  <pose_rank>  (23) 
22

>  <num_atoms_heavy>  (23) 
9

>  <num_torsions>  (23) 
1

>  <pose>  (23) 
[-9.67341386063447, 2.3900018634984197, 8.46434986664458, -1.2892330464180637, 4.17565709104718, 3.0607450011362194, 3.6984027469818477]

>  <energy>  (23) 
-373.2819329760278

>  <inter_energy>  (23) 
-375.5055886875628

>  <intra_energy>  (23) 
0.0

>  <rmsd>  (23) 
1.8117

>  <sdf_rank>  (23) 
0

$$$$

     RDKit          3D

 14 14  0  0  0  0  0  0  0  0999 V2000
   -4.6896   -3.0083    0.1565 C   0  0  0  0  0  0  0  0  0  0  0  0
   -4.0213   -2.5252   -0.7499 O   0  0  0  0  0  0  0  0  0  0  0  0
   -5.2955   -2.3226    1.0289 O   0  0  0  0  0  0  0  0  0  0  0  0
   -4.8275   -4.5126    0.2525 C   0  0  0  0  0  0  0  0  0  0  0  0
   -3.7063   -5.3129    0.4072 C   0  0  0  0  0  0  0  0  0  0  0  0
   -3.8509   -6.6866    0.4892 C   0  0  0  0  0  0  0  0  0  0  0  0
   -5.1059   -7.2509    0.3824 C   0  0  0  0  0  0  0  0  0  0  0  0
   -6.2046   -6.4773    0.1964 C   0  0  0  0  0  0  0  0  0  0  0  0
   -6.0858   -5.1071    0.1557 C   0  0  0  0  0  0  0  0  0  0  0  0
   -2.7064   -4.8581    0.4645 H   0  0  0  0  0  0  0  0  0  0  0  0
   -2.9688   -7.3265    0.6390 H   0  0  0  0  0  0  0  0  0  0  0  0
   -5.2167   -8.3433    0.4491 H   0  0  0  0  0  0  0  0  0  0  0  0
   -7.1925   -6.9464    0.0779 H   0  0  0  0  0  0  0  0  0  0  0  0
   -6.9831   -4.4804    0.0468 H   0  0  0  0  0  0  0  0  0  0  0  0
  1  2  2  0
  1  3  1  0
  1  4  1  0
  4  5  2  0
  4  9  1  0
  5  6  1  0
  6  7  2  0
  7  8  1  0
  8  9  2  0
  5 10  1  0
  6 11  1  0
  7 12  1  0
  8 13  1  0
  9 14  1  0
M  CHG  1   3  -1
M  END
>  <filename_input>  (24) 
7BNH_BEZ_docked.sdf

>  <pdb_id>  (24) 
7BNH_BEZ

>  <pose_rank>  (24) 
23

>  <num_atoms_heavy>  (24) 
9

>  <num_torsions>  (24) 
1

>  <pose>  (24) 
[-4.827483156432061, -4.512648782865526, 0.25251144048169083, 0.4834450887432072, -1.2156009747633894, -1.7506780622754505, 0.9394049378981447]

>  <energy>  (24) 
-111.55440258940347

>  <inter_energy>  (24) 
-104.7425519337911

>  <intra_energy>  (24) 
0.0

>  <rmsd>  (24) 
12.5567

>  <sdf_rank>  (24) 
0

$$$$

     RDKit          3D

 14 14  0  0  0  0  0  0  0  0999 V2000
   -2.0002   -6.1593    5.3427 C   0  0  0  0  0  0  0  0  0  0  0  0
   -1.9181   -5.2483    6.1581 O   0  0  0  0  0  0  0  0  0  0  0  0
   -2.7423   -7.1723    5.4892 O   0  0  0  0  0  0  0  0  0  0  0  0
   -1.1872   -6.0860    4.0680 C   0  0  0  0  0  0  0  0  0  0  0  0
   -0.0088   -5.3574    4.0266 C   0  0  0  0  0  0  0  0  0  0  0  0
    0.7195   -5.2982    2.8517 C   0  0  0  0  0  0  0  0  0  0  0  0
    0.2498   -5.9366    1.7218 C   0  0  0  0  0  0  0  0  0  0  0  0
   -0.9199   -6.6233    1.7443 C   0  0  0  0  0  0  0  0  0  0  0  0
   -1.6360   -6.7294    2.9144 C   0  0  0  0  0  0  0  0  0  0  0  0
    0.3457   -4.8286    4.9237 H   0  0  0  0  0  0  0  0  0  0  0  0
    1.6693   -4.7444    2.8182 H   0  0  0  0  0  0  0  0  0  0  0  0
    0.8322   -5.8880    0.7898 H   0  0  0  0  0  0  0  0  0  0  0  0
   -1.2967   -7.0961    0.8253 H   0  0  0  0  0  0  0  0  0  0  0  0
   -2.5626   -7.3217    2.9402 H   0  0  0  0  0  0  0  0  0  0  0  0
  1  2  2  0
  1  3  1  0
  1  4  1  0
  4  5  2  0
  4  9  1  0
  5  6  1  0
  6  7  2  0
  7  8  1  0
  8  9  2  0
  5 10  1  0
  6 11  1  0
  7 12  1  0
  8 13  1  0
  9 14  1  0
M  CHG  1   3  -1
M  END
>  <filename_input>  (25) 
7BNH_BEZ_docked.sdf

>  <pdb_id>  (25) 
7BNH_BEZ

>  <pose_rank>  (25) 
24

>  <num_atoms_heavy>  (25) 
9

>  <num_torsions>  (25) 
1

>  <pose>  (25) 
[-1.1872354944011925, -6.086039853302159, 4.0679899407731925, -3.0331023524013774, -1.0824822176910727, 2.7716811772008314, 0.35093887095297177]

>  <energy>  (25) 
-72.85220383011718

>  <inter_energy>  (25) 
-62.97126162417769

>  <intra_energy>  (25) 
0.0

>  <rmsd>  (25) 
13.0832

>  <sdf_rank>  (25) 
0

$$$$

     RDKit          3D

 14 14  0  0  0  0  0  0  0  0999 V2000
  -10.8360    2.5040    9.6670 C   0  0  0  0  0  0  0  0  0  0  0  0
  -11.8250    2.9310    9.0830 O   0  0  0  0  0  0  0  0  0  0  0  0
  -10.8760    1.9190   10.7870 O   0  0  0  0  0  0  0  0  0  0  0  0
   -9.4740    2.6590    9.0250 C   0  0  0  0  0  0  0  0  0  0  0  0
   -9.3280    3.3830    7.8520 C   0  0  0  0  0  0  0  0  0  0  0  0
   -8.0760    3.5110    7.2770 C   0  0  0  0  0  0  0  0  0  0  0  0
   -6.9890    2.8890    7.8570 C   0  0  0  0  0  0  0  0  0  0  0  0
   -7.1290    2.1500    8.9860 C   0  0  0  0  0  0  0  0  0  0  0  0
   -8.3580    2.0470    9.5960 C   0  0  0  0  0  0  0  0  0  0  0  0
  -10.2034    3.8536    7.3805 H   0  0  0  0  0  0  0  0  0  0  0  0
   -7.9475    4.1063    6.3610 H   0  0  0  0  0  0  0  0  0  0  0  0
   -5.9952    2.9940    7.3973 H   0  0  0  0  0  0  0  0  0  0  0  0
   -6.2583    1.6321    9.4146 H   0  0  0  0  0  0  0  0  0  0  0  0
   -8.4606    1.4819   10.5342 H   0  0  0  0  0  0  0  0  0  0  0  0
  1  2  2  0
  1  3  1  0
  1  4  1  0
  4  5  2  0
  4  9  1  0
  5  6  1  0
  6  7  2  0
  7  8  1  0
  8  9  2  0
  5 10  1  0
  6 11  1  0
  7 12  1  0
  8 13  1  0
  9 14  1  0
M  CHG  1   3  -1
M  END
>  <filename_input>  (26) 
7BNH_BEZ_docked.sdf

>  <pdb_id>  (26) 
7BNH_BEZ

>  <pose_rank>  (26) 
25

>  <num_atoms_heavy>  (26) 
9

>  <num_torsions>  (26) 
1

>  <pose>  (26) 
[-9.474, 2.659, 9.025, 1e-06, 1e-06, 1e-06, 0.0]

>  <energy>  (26) 
-367.9432302314748

>  <inter_energy>  (26) 
-367.63945181373305

>  <intra_energy>  (26) 
0.0

>  <rmsd>  (26) 
0.0

>  <sdf_rank>  (26) 
0

$$$$
