
     RDKit          3D

 74 78  0  0  0  0  0  0  0  0999 V2000
    3.9889   17.3719    8.2922 N   0  0  0  0  0  0  0  0  0  0  0  0
    2.8269   17.3716    8.9374 C   0  0  0  0  0  0  0  0  0  0  0  0
    1.9220   19.4146    7.6873 C   0  0  0  0  0  0  0  0  0  0  0  0
    3.2503   20.8524    6.3220 C   0  0  0  0  0  0  0  0  0  0  0  0
    0.7641   20.0706    7.2723 C   0  0  0  0  0  0  0  0  0  0  0  0
   -1.5718   20.4345    7.4537 C   0  0  0  0  0  0  0  0  0  0  0  0
    3.9264   22.1014    4.4669 C   0  0  0  0  0  0  0  0  0  0  0  0
    5.7898   21.3972    6.0935 C   0  0  0  0  0  0  0  0  0  0  0  0
   11.0961   18.1603    8.5363 C   0  0  0  0  0  0  0  0  0  0  0  0
    9.5901   17.9514    8.5432 C   0  0  2  0  0  0  0  0  0  0  0  0
    7.9018   17.0637    6.3307 C   0  0  0  0  0  0  0  0  0  0  0  0
    8.2652   17.5830    5.1098 C   0  0  0  0  0  0  0  0  0  0  0  0
    7.3024   18.0054    4.2170 C   0  0  0  0  0  0  0  0  0  0  0  0
    5.9743   17.9131    4.5647 C   0  0  0  0  0  0  0  0  0  0  0  0
    5.5989   17.3931    5.7893 C   0  0  0  0  0  0  0  0  0  0  0  0
    6.5615   16.9732    6.6769 C   0  0  0  0  0  0  0  0  0  0  0  0
    4.9259   16.4887    8.6149 C   0  0  0  0  0  0  0  0  0  0  0  0
    3.1669   19.7923    7.2295 C   0  0  0  0  0  0  0  0  0  0  0  0
    2.1173   21.5045    5.8853 C   0  0  0  0  0  0  0  0  0  0  0  0
    0.8582   21.1171    6.3668 C   0  0  0  0  0  0  0  0  0  0  0  0
    2.5712   22.5764    4.9012 C   0  0  0  0  0  0  0  0  0  0  0  0
    6.8311   22.0820    5.2190 C   0  0  0  0  0  0  0  0  0  0  0  0
    9.1111   21.4727    5.6617 C   0  0  0  0  0  0  0  0  0  0  0  0
    8.4434   23.7573    5.6127 C   0  0  0  0  0  0  0  0  0  0  0  0
    3.4766   15.6163   10.2991 C   0  0  0  0  0  0  0  0  0  0  0  0
    4.6844   15.5743    9.6535 C   0  0  0  0  0  0  0  0  0  0  0  0
    4.7380   13.9899   11.1712 C   0  0  0  0  0  0  0  0  0  0  0  0
    3.5085   14.6035   11.2694 C   0  0  0  0  0  0  0  0  0  0  0  0
    9.0039   17.7565    9.9371 C   0  0  0  0  0  0  0  0  0  0  0  0
    6.2215   16.4160    7.9642 N   0  0  0  0  0  0  0  0  0  0  0  0
    1.7784   18.3257    8.6201 N   0  0  0  0  0  0  0  0  0  0  0  0
    4.4255   21.4474    5.6550 N   0  0  0  0  0  0  0  0  0  0  0  0
    8.0427   22.4033    5.9325 N   0  0  1  0  0  0  0  0  0  0  0  0
    2.5640   16.5252    9.9087 N   0  0  0  0  0  0  0  0  0  0  0  0
    5.4287   14.5769   10.2033 N   0  0  0  0  0  0  0  0  0  0  0  0
   -0.4621   19.6490    7.7804 O   0  0  0  0  0  0  0  0  0  0  0  0
    6.0818   20.8455    7.0846 O   0  0  0  0  0  0  0  0  0  0  0  0
    8.7636   15.4020    8.2783 O   0  0  0  0  0  0  0  0  0  0  0  0
   10.3482   16.0271    6.8545 O   0  0  0  0  0  0  0  0  0  0  0  0
    9.1752   16.5255    7.5028 S   0  0  2  0  0  0  0  0  0  0  0  0
   -2.0605   20.7804    8.3764 H   0  0  0  0  0  0  0  0  0  0  0  0
   -1.2450   21.3036    6.8638 H   0  0  0  0  0  0  0  0  0  0  0  0
   -2.2828   19.8374    6.8638 H   0  0  0  0  0  0  0  0  0  0  0  0
    3.8496   21.3951    3.6271 H   0  0  0  0  0  0  0  0  0  0  0  0
    4.5787   22.9099    4.1052 H   0  0  0  0  0  0  0  0  0  0  0  0
   11.4639   18.2113    9.5718 H   0  0  0  0  0  0  0  0  0  0  0  0
   11.5804   17.3207    8.0161 H   0  0  0  0  0  0  0  0  0  0  0  0
   11.3336   19.1000    8.0161 H   0  0  0  0  0  0  0  0  0  0  0  0
    9.1424   18.8737    8.1444 H   0  0  0  0  0  0  0  0  0  0  0  0
    9.3297   17.6619    4.8440 H   0  0  0  0  0  0  0  0  0  0  0  0
    7.5933   18.4117    3.2371 H   0  0  0  0  0  0  0  0  0  0  0  0
    5.2026   18.2571    3.8603 H   0  0  0  0  0  0  0  0  0  0  0  0
    4.5337   17.3154    6.0528 H   0  0  0  0  0  0  0  0  0  0  0  0
    4.0736   19.2713    7.5708 H   0  0  0  0  0  0  0  0  0  0  0  0
   -0.0487   21.6398    6.0286 H   0  0  0  0  0  0  0  0  0  0  0  0
    2.6374   23.5584    5.3924 H   0  0  0  0  0  0  0  0  0  0  0  0
    1.8740   22.7094    4.0608 H   0  0  0  0  0  0  0  0  0  0  0  0
    7.0833   21.4117    4.3840 H   0  0  0  0  0  0  0  0  0  0  0  0
    6.3949   23.0288    4.8680 H   0  0  0  0  0  0  0  0  0  0  0  0
    9.5295   21.1083    6.6116 H   0  0  0  0  0  0  0  0  0  0  0  0
    8.7194   20.6229    5.0836 H   0  0  0  0  0  0  0  0  0  0  0  0
    9.8992   21.9774    5.0836 H   0  0  0  0  0  0  0  0  0  0  0  0
    8.6099   24.3199    6.5432 H   0  0  0  0  0  0  0  0  0  0  0  0
    9.3736   23.7356    5.0260 H   0  0  0  0  0  0  0  0  0  0  0  0
    7.6511   24.2453    5.0260 H   0  0  0  0  0  0  0  0  0  0  0  0
    5.0884   13.1524   11.7924 H   0  0  0  0  0  0  0  0  0  0  0  0
    2.7042   14.3479   11.9749 H   0  0  0  0  0  0  0  0  0  0  0  0
    9.7626   18.0088   10.6926 H   0  0  0  0  0  0  0  0  0  0  0  0
    8.1297   18.4123   10.0622 H   0  0  0  0  0  0  0  0  0  0  0  0
    8.6964   16.7078   10.0622 H   0  0  0  0  0  0  0  0  0  0  0  0
    6.9694   15.9196    8.4693 H   0  0  0  0  0  0  0  0  0  0  0  0
    0.8705   18.2164    9.0942 H   0  0  0  0  0  0  0  0  0  0  0  0
    7.8448   22.3282    6.9405 H   0  0  0  0  0  0  0  0  0  0  0  0
    6.3822   14.3175    9.9124 H   0  0  0  0  0  0  0  0  0  0  0  0
  1  2  2  0
  1 17  1  0
  2 31  1  0
  2 34  1  0
  3  5  2  0
  3 18  1  0
  3 31  1  0
  4 18  2  0
  4 19  1  0
  4 32  1  0
  5 20  1  0
  5 36  1  0
  6 36  1  0
  7 21  1  0
  7 32  1  0
  8 22  1  0
  8 32  1  0
  8 37  2  0
 10  9  1  0
 10 29  1  0
 10 40  1  0
 11 12  2  0
 11 16  1  0
 40 11  1  6
 12 13  1  0
 13 14  2  0
 14 15  1  0
 15 16  2  0
 16 30  1  0
 17 26  2  0
 17 30  1  0
 19 20  2  0
 19 21  1  0
 22 33  1  0
 33 23  1  0
 24 33  1  0
 25 26  1  0
 25 28  1  0
 25 34  2  0
 26 35  1  0
 27 28  2  0
 27 35  1  0
 38 40  2  0
 39 40  2  0
  6 41  1  0
  6 42  1  0
  6 43  1  0
  7 44  1  0
  7 45  1  0
  9 46  1  0
  9 47  1  0
  9 48  1  0
 10 49  1  6
 12 50  1  0
 13 51  1  0
 14 52  1  0
 15 53  1  0
 18 54  1  0
 20 55  1  0
 21 56  1  0
 21 57  1  0
 22 58  1  0
 22 59  1  0
 23 60  1  0
 23 61  1  0
 23 62  1  0
 24 63  1  0
 24 64  1  0
 24 65  1  0
 27 66  1  0
 28 67  1  0
 29 68  1  0
 29 69  1  0
 29 70  1  0
 30 71  1  0
 31 72  1  0
 33 73  1  1
 35 74  1  0
M  CHG  1  33   1
M  END
>  <filename_input>  (1) 
7BTT_F8R_docked.sdf

>  <pdb_id>  (1) 
7BTT_F8R

>  <pose_rank>  (1) 
0

>  <num_atoms_heavy>  (1) 
40

>  <num_torsions>  (1) 
8

>  <pose>  (1) 
[3.9889463623100725, 17.371946111884952, 8.29216773665376, -5.062426291298034, 1.3905069862758181, 3.425581084916781, -6.095056738574401, -0.06639583289675667, -0.7113362928363182, 0.7015491370948341, -0.09878417748416737, 6.216619075862534, 6.347085732993199, 0.806546789359657]

>  <energy>  (1) 
-2071.556277847324

>  <inter_energy>  (1) 
-2112.5825563757558

>  <intra_energy>  (1) 
59.865573834193555

>  <rmsd>  (1) 
0.51523

>  <sdf_rank>  (1) 
0

$$$$

     RDKit          3D

 74 78  0  0  0  0  0  0  0  0999 V2000
    3.9837   17.4842    8.3119 N   0  0  0  0  0  0  0  0  0  0  0  0
    2.8188   17.4783    8.9520 C   0  0  0  0  0  0  0  0  0  0  0  0
    1.9071   19.5128    7.6929 C   0  0  0  0  0  0  0  0  0  0  0  0
    3.2338   21.0669    6.4600 C   0  0  0  0  0  0  0  0  0  0  0  0
    0.7457   20.0388    7.1292 C   0  0  0  0  0  0  0  0  0  0  0  0
   -1.5870   20.3498    7.4179 C   0  0  0  0  0  0  0  0  0  0  0  0
    3.9945   22.3594    4.6685 C   0  0  0  0  0  0  0  0  0  0  0  0
    5.7127   21.8730    6.5192 C   0  0  0  0  0  0  0  0  0  0  0  0
    9.5173   14.4916    5.0372 C   0  0  0  0  0  0  0  0  0  0  0  0
   10.1020   15.1048    6.2996 C   0  0  2  0  0  0  0  0  0  0  0  0
    8.6307   16.8636    8.1095 C   0  0  0  0  0  0  0  0  0  0  0  0
    9.7364   17.6432    8.3582 C   0  0  0  0  0  0  0  0  0  0  0  0
    9.5893   18.9543    8.7602 C   0  0  0  0  0  0  0  0  0  0  0  0
    8.3246   19.4717    8.9216 C   0  0  0  0  0  0  0  0  0  0  0  0
    7.2070   18.6964    8.6746 C   0  0  0  0  0  0  0  0  0  0  0  0
    7.3577   17.3896    8.2741 C   0  0  0  0  0  0  0  0  0  0  0  0
    4.9246   16.6075    8.6409 C   0  0  0  0  0  0  0  0  0  0  0  0
    3.1522   20.0141    7.3761 C   0  0  0  0  0  0  0  0  0  0  0  0
    2.1000   21.5914    5.8777 C   0  0  0  0  0  0  0  0  0  0  0  0
    0.8390   21.0792    6.2167 C   0  0  0  0  0  0  0  0  0  0  0  0
    2.5554   22.6941    4.9289 C   0  0  0  0  0  0  0  0  0  0  0  0
    6.7749   22.6537    5.7575 C   0  0  0  0  0  0  0  0  0  0  0  0
    9.0299   21.8939    5.4356 C   0  0  0  0  0  0  0  0  0  0  0  0
    7.1837   20.4398    5.0553 C   0  0  0  0  0  0  0  0  0  0  0  0
    3.4731   15.7303   10.3208 C   0  0  0  0  0  0  0  0  0  0  0  0
    4.6840   15.6941    9.6807 C   0  0  0  0  0  0  0  0  0  0  0  0
    4.7404   14.1137   11.2024 C   0  0  0  0  0  0  0  0  0  0  0  0
    3.5068   14.7201   11.2937 C   0  0  0  0  0  0  0  0  0  0  0  0
   11.3430   14.3838    6.8142 C   0  0  0  0  0  0  0  0  0  0  0  0
    6.2234   16.5412    7.9962 N   0  0  0  0  0  0  0  0  0  0  0  0
    1.7659   18.4252    8.6277 N   0  0  0  0  0  0  0  0  0  0  0  0
    4.4127   21.7747    5.9221 N   0  0  0  0  0  0  0  0  0  0  0  0
    7.6590   21.8061    4.9956 N   0  0  1  0  0  0  0  0  0  0  0  0
    2.5568   16.6326    9.9241 N   0  0  0  0  0  0  0  0  0  0  0  0
    5.4319   14.7026   10.2362 N   0  0  0  0  0  0  0  0  0  0  0  0
   -0.4824   19.4964    7.4991 O   0  0  0  0  0  0  0  0  0  0  0  0
    5.9393   21.3661    7.5505 O   0  0  0  0  0  0  0  0  0  0  0  0
    9.1652   14.2792    8.6858 O   0  0  0  0  0  0  0  0  0  0  0  0
    7.6198   14.5560    7.1161 O   0  0  0  0  0  0  0  0  0  0  0  0
    8.8347   15.1374    7.5961 S   0  0  2  0  0  0  0  0  0  0  0  0
   -1.9243   20.6105    8.4319 H   0  0  0  0  0  0  0  0  0  0  0  0
   -1.3037   21.2659    6.8789 H   0  0  0  0  0  0  0  0  0  0  0  0
   -2.4019   19.8445    6.8789 H   0  0  0  0  0  0  0  0  0  0  0  0
    4.0918   21.6396    3.8424 H   0  0  0  0  0  0  0  0  0  0  0  0
    4.5986   23.2278    4.3671 H   0  0  0  0  0  0  0  0  0  0  0  0
    8.7820   13.7205    5.3108 H   0  0  0  0  0  0  0  0  0  0  0  0
    9.0234   15.2751    4.4438 H   0  0  0  0  0  0  0  0  0  0  0  0
   10.3234   14.0355    4.4438 H   0  0  0  0  0  0  0  0  0  0  0  0
   10.4220   16.1236    6.0359 H   0  0  0  0  0  0  0  0  0  0  0  0
   10.7437   17.2184    8.2357 H   0  0  0  0  0  0  0  0  0  0  0  0
   10.4740   19.5800    8.9497 H   0  0  0  0  0  0  0  0  0  0  0  0
    8.2014   20.5140    9.2510 H   0  0  0  0  0  0  0  0  0  0  0  0
    6.2008   19.1234    8.7979 H   0  0  0  0  0  0  0  0  0  0  0  0
    4.0604   19.5950    7.8338 H   0  0  0  0  0  0  0  0  0  0  0  0
   -0.0699   21.4999    5.7618 H   0  0  0  0  0  0  0  0  0  0  0  0
    2.4609   23.6830    5.4012 H   0  0  0  0  0  0  0  0  0  0  0  0
    1.9538   22.7438    4.0094 H   0  0  0  0  0  0  0  0  0  0  0  0
    6.2726   23.3470    5.0669 H   0  0  0  0  0  0  0  0  0  0  0  0
    7.3879   23.1858    6.4999 H   0  0  0  0  0  0  0  0  0  0  0  0
    9.0627   21.8960    6.5351 H   0  0  0  0  0  0  0  0  0  0  0  0
    9.5937   21.0301    5.0536 H   0  0  0  0  0  0  0  0  0  0  0  0
    9.4788   22.8227    5.0536 H   0  0  0  0  0  0  0  0  0  0  0  0
    7.0773   20.1342    6.1067 H   0  0  0  0  0  0  0  0  0  0  0  0
    6.2080   20.3687    4.5523 H   0  0  0  0  0  0  0  0  0  0  0  0
    7.9045   19.7785    4.5523 H   0  0  0  0  0  0  0  0  0  0  0  0
    5.0932   13.2799   11.8272 H   0  0  0  0  0  0  0  0  0  0  0  0
    2.7009   14.4612   11.9962 H   0  0  0  0  0  0  0  0  0  0  0  0
   11.3388   14.3863    7.9142 H   0  0  0  0  0  0  0  0  0  0  0  0
   11.3416   13.3459    6.4499 H   0  0  0  0  0  0  0  0  0  0  0  0
   12.2440   14.8991    6.4499 H   0  0  0  0  0  0  0  0  0  0  0  0
    6.3475   15.8200    7.2713 H   0  0  0  0  0  0  0  0  0  0  0  0
    0.8567   18.3116    9.0980 H   0  0  0  0  0  0  0  0  0  0  0  0
    7.6487   22.1355    4.0198 H   0  0  0  0  0  0  0  0  0  0  0  0
    6.3882   14.4484    9.9502 H   0  0  0  0  0  0  0  0  0  0  0  0
  1  2  2  0
  1 17  1  0
  2 31  1  0
  2 34  1  0
  3  5  2  0
  3 18  1  0
  3 31  1  0
  4 18  2  0
  4 19  1  0
  4 32  1  0
  5 20  1  0
  5 36  1  0
  6 36  1  0
  7 21  1  0
  7 32  1  0
  8 22  1  0
  8 32  1  0
  8 37  2  0
 10  9  1  0
 10 29  1  0
 10 40  1  0
 11 12  2  0
 11 16  1  0
 40 11  1  1
 12 13  1  0
 13 14  2  0
 14 15  1  0
 15 16  2  0
 16 30  1  0
 17 26  2  0
 17 30  1  0
 19 20  2  0
 19 21  1  0
 22 33  1  0
 33 23  1  0
 24 33  1  0
 25 26  1  0
 25 28  1  0
 25 34  2  0
 26 35  1  0
 27 28  2  0
 27 35  1  0
 38 40  2  0
 39 40  2  0
  6 41  1  0
  6 42  1  0
  6 43  1  0
  7 44  1  0
  7 45  1  0
  9 46  1  0
  9 47  1  0
  9 48  1  0
 10 49  1  6
 12 50  1  0
 13 51  1  0
 14 52  1  0
 15 53  1  0
 18 54  1  0
 20 55  1  0
 21 56  1  0
 21 57  1  0
 22 58  1  0
 22 59  1  0
 23 60  1  0
 23 61  1  0
 23 62  1  0
 24 63  1  0
 24 64  1  0
 24 65  1  0
 27 66  1  0
 28 67  1  0
 29 68  1  0
 29 69  1  0
 29 70  1  0
 30 71  1  0
 31 72  1  0
 33 73  1  6
 35 74  1  0
M  CHG  1  33   1
M  END
>  <filename_input>  (2) 
7BTT_F8R_docked.sdf

>  <pdb_id>  (2) 
7BTT_F8R

>  <pose_rank>  (2) 
1

>  <num_atoms_heavy>  (2) 
40

>  <num_torsions>  (2) 
8

>  <pose>  (2) 
[3.9836948462469346, 17.484231282290892, 8.311894220206032, -4.798333352974816, 3.9296919886253727, 0.9266734485679481, 0.036286823807813014, -0.417833169094636, 1.0839056275716363, -3.1244084490243798, -4.6448141733020805, -0.36583915855480736, 3.9662028483275864, 0.9098358369461492]

>  <energy>  (2) 
-1872.4776472050369

>  <inter_energy>  (2) 
-1935.3715300068786

>  <intra_energy>  (2) 
78.73489586872024

>  <rmsd>  (2) 
2.04056

>  <sdf_rank>  (2) 
0

$$$$

     RDKit          3D

 74 78  0  0  0  0  0  0  0  0999 V2000
    3.9711   17.4475    8.3086 N   0  0  0  0  0  0  0  0  0  0  0  0
    2.8082   17.4453    8.9524 C   0  0  0  0  0  0  0  0  0  0  0  0
    1.9008   19.4855    7.6995 C   0  0  0  0  0  0  0  0  0  0  0  0
    3.2102   21.1349    6.5769 C   0  0  0  0  0  0  0  0  0  0  0  0
    0.7610   19.9092    7.0178 C   0  0  0  0  0  0  0  0  0  0  0  0
   -1.2187   18.9262    6.1599 C   0  0  0  0  0  0  0  0  0  0  0  0
    4.0344   22.4724    4.8476 C   0  0  0  0  0  0  0  0  0  0  0  0
    5.5972   22.1440    6.8634 C   0  0  0  0  0  0  0  0  0  0  0  0
    8.3524   19.3706    3.8669 C   0  0  0  0  0  0  0  0  0  0  0  0
    8.8437   19.0919    5.2785 C   0  0  2  0  0  0  0  0  0  0  0  0
    8.4061   17.4844    7.6781 C   0  0  0  0  0  0  0  0  0  0  0  0
    9.6125   17.9268    8.1691 C   0  0  0  0  0  0  0  0  0  0  0  0
    9.8881   17.8467    9.5182 C   0  0  0  0  0  0  0  0  0  0  0  0
    8.9484   17.3085   10.3670 C   0  0  0  0  0  0  0  0  0  0  0  0
    7.7331   16.8608    9.8834 C   0  0  0  0  0  0  0  0  0  0  0  0
    7.4621   16.9421    8.5378 C   0  0  0  0  0  0  0  0  0  0  0  0
    4.9095   16.5664    8.6332 C   0  0  0  0  0  0  0  0  0  0  0  0
    3.1257   20.0858    7.4971 C   0  0  0  0  0  0  0  0  0  0  0  0
    2.0998   21.5593    5.8794 C   0  0  0  0  0  0  0  0  0  0  0  0
    0.8578   20.9470    6.1026 C   0  0  0  0  0  0  0  0  0  0  0  0
    2.5542   22.6887    4.9622 C   0  0  0  0  0  0  0  0  0  0  0  0
    6.6616   23.0042    6.1961 C   0  0  0  0  0  0  0  0  0  0  0  0
    8.3152   22.5988    4.5030 C   0  0  0  0  0  0  0  0  0  0  0  0
    8.8701   22.4543    6.8136 C   0  0  0  0  0  0  0  0  0  0  0  0
    3.4598   15.6925   10.3163 C   0  0  0  0  0  0  0  0  0  0  0  0
    4.6685   15.6524    9.6722 C   0  0  0  0  0  0  0  0  0  0  0  0
    4.7234   14.0694   11.1914 C   0  0  0  0  0  0  0  0  0  0  0  0
    3.4926   14.6806   11.2875 C   0  0  0  0  0  0  0  0  0  0  0  0
   10.3593   18.9652    5.3871 C   0  0  0  0  0  0  0  0  0  0  0  0
    6.2059   16.4959    7.9842 N   0  0  0  0  0  0  0  0  0  0  0  0
    1.7582   18.3971    8.6331 N   0  0  0  0  0  0  0  0  0  0  0  0
    4.3743   21.9339    6.1448 N   0  0  0  0  0  0  0  0  0  0  0  0
    7.8360   22.2564    5.8198 N   0  0  1  0  0  0  0  0  0  0  0  0
    2.5459   16.5992    9.9241 N   0  0  0  0  0  0  0  0  0  0  0  0
    5.4142   14.6569   10.2238 N   0  0  0  0  0  0  0  0  0  0  0  0
   -0.4489   19.2697    7.2755 O   0  0  0  0  0  0  0  0  0  0  0  0
    5.7626   21.6654    7.9196 O   0  0  0  0  0  0  0  0  0  0  0  0
    8.5001   16.4221    5.1962 O   0  0  0  0  0  0  0  0  0  0  0  0
    6.6597   17.5924    5.6111 O   0  0  0  0  0  0  0  0  0  0  0  0
    8.0597   17.5803    5.9016 S   0  0  2  0  0  0  0  0  0  0  0  0
   -2.1761   18.4989    6.4925 H   0  0  0  0  0  0  0  0  0  0  0  0
   -1.4087   19.8249    5.5547 H   0  0  0  0  0  0  0  0  0  0  0  0
   -0.6767   18.1846    5.5547 H   0  0  0  0  0  0  0  0  0  0  0  0
    4.2705   21.7570    4.0461 H   0  0  0  0  0  0  0  0  0  0  0  0
    4.5920   23.3857    4.5927 H   0  0  0  0  0  0  0  0  0  0  0  0
    7.3964   19.9129    3.9118 H   0  0  0  0  0  0  0  0  0  0  0  0
    9.0958   19.9815    3.3339 H   0  0  0  0  0  0  0  0  0  0  0  0
    8.2095   18.4191    3.3339 H   0  0  0  0  0  0  0  0  0  0  0  0
    8.5606   19.9627    5.8882 H   0  0  0  0  0  0  0  0  0  0  0  0
   10.3617   18.3469    7.4819 H   0  0  0  0  0  0  0  0  0  0  0  0
   10.8492   18.2093    9.9115 H   0  0  0  0  0  0  0  0  0  0  0  0
    9.1665   17.2336   11.4426 H   0  0  0  0  0  0  0  0  0  0  0  0
    6.9856   16.4410   10.5726 H   0  0  0  0  0  0  0  0  0  0  0  0
    4.0160   19.7469    8.0471 H   0  0  0  0  0  0  0  0  0  0  0  0
   -0.0336   21.2875    5.5554 H   0  0  0  0  0  0  0  0  0  0  0  0
    2.3335   23.6700    5.4077 H   0  0  0  0  0  0  0  0  0  0  0  0
    2.0433   22.6815    3.9881 H   0  0  0  0  0  0  0  0  0  0  0  0
    6.2297   23.4574    5.2916 H   0  0  0  0  0  0  0  0  0  0  0  0
    6.9756   23.7646    6.9264 H   0  0  0  0  0  0  0  0  0  0  0  0
    9.2072   23.2363    4.5918 H   0  0  0  0  0  0  0  0  0  0  0  0
    8.5741   21.6799    3.9566 H   0  0  0  0  0  0  0  0  0  0  0  0
    7.5297   23.1414    3.9566 H   0  0  0  0  0  0  0  0  0  0  0  0
    8.4327   22.3706    7.8195 H   0  0  0  0  0  0  0  0  0  0  0  0
    9.6504   21.6892    6.6882 H   0  0  0  0  0  0  0  0  0  0  0  0
    9.3127   23.4535    6.6882 H   0  0  0  0  0  0  0  0  0  0  0  0
    5.0747   13.2331   11.8136 H   0  0  0  0  0  0  0  0  0  0  0  0
    2.6879   14.4239   11.9923 H   0  0  0  0  0  0  0  0  0  0  0  0
   10.6501   18.9409    6.4476 H   0  0  0  0  0  0  0  0  0  0  0  0
   10.6857   18.0367    4.8960 H   0  0  0  0  0  0  0  0  0  0  0  0
   10.8353   19.8267    4.8960 H   0  0  0  0  0  0  0  0  0  0  0  0
    6.2320   16.0886    7.0385 H   0  0  0  0  0  0  0  0  0  0  0  0
    0.8500   18.2864    9.1061 H   0  0  0  0  0  0  0  0  0  0  0  0
    7.5769   21.2602    5.7812 H   0  0  0  0  0  0  0  0  0  0  0  0
    6.3685   14.3993    9.9343 H   0  0  0  0  0  0  0  0  0  0  0  0
  1  2  2  0
  1 17  1  0
  2 31  1  0
  2 34  1  0
  3  5  2  0
  3 18  1  0
  3 31  1  0
  4 18  2  0
  4 19  1  0
  4 32  1  0
  5 20  1  0
  5 36  1  0
  6 36  1  0
  7 21  1  0
  7 32  1  0
  8 22  1  0
  8 32  1  0
  8 37  2  0
 10  9  1  0
 10 29  1  0
 10 40  1  0
 11 12  2  0
 11 16  1  0
 40 11  1  1
 12 13  1  0
 13 14  2  0
 14 15  1  0
 15 16  2  0
 16 30  1  0
 17 26  2  0
 17 30  1  0
 19 20  2  0
 19 21  1  0
 22 33  1  0
 33 23  1  0
 24 33  1  0
 25 26  1  0
 25 28  1  0
 25 34  2  0
 26 35  1  0
 27 28  2  0
 27 35  1  0
 38 40  2  0
 39 40  2  0
  6 41  1  0
  6 42  1  0
  6 43  1  0
  7 44  1  0
  7 45  1  0
  9 46  1  0
  9 47  1  0
  9 48  1  0
 10 49  1  1
 12 50  1  0
 13 51  1  0
 14 52  1  0
 15 53  1  0
 18 54  1  0
 20 55  1  0
 21 56  1  0
 21 57  1  0
 22 58  1  0
 22 59  1  0
 23 60  1  0
 23 61  1  0
 23 62  1  0
 24 63  1  0
 24 64  1  0
 24 65  1  0
 27 66  1  0
 28 67  1  0
 29 68  1  0
 29 69  1  0
 29 70  1  0
 30 71  1  0
 31 72  1  0
 33 73  1  6
 35 74  1  0
M  CHG  1  33   1
M  END
>  <filename_input>  (3) 
7BTT_F8R_docked.sdf

>  <pdb_id>  (3) 
7BTT_F8R

>  <pose_rank>  (3) 
2

>  <num_atoms_heavy>  (3) 
40

>  <num_torsions>  (3) 
8

>  <pose>  (3) 
[3.971079148364028, 17.44751976702952, 8.308592821472956, -5.192524080249023, 2.1102945634451533, 2.810239820907769, -0.09727850188271474, 0.8489076938840291, 0.8397189233783237, 1.3067706189308124, 2.0699917022313676, 0.7720583998202746, -2.127219554454977, -6.185996861245971]

>  <energy>  (3) 
-1844.3622988235004

>  <inter_energy>  (3) 
-1918.5032035278898

>  <intra_energy>  (3) 
87.93222882573421

>  <rmsd>  (3) 
2.29621

>  <sdf_rank>  (3) 
0

$$$$

     RDKit          3D

 74 78  0  0  0  0  0  0  0  0999 V2000
    3.5996   17.8235    7.7938 N   0  0  0  0  0  0  0  0  0  0  0  0
    2.6147   17.7766    8.6852 C   0  0  0  0  0  0  0  0  0  0  0  0
    1.3587   19.7665    7.6761 C   0  0  0  0  0  0  0  0  0  0  0  0
    2.3029   21.4899    6.3219 C   0  0  0  0  0  0  0  0  0  0  0  0
    0.0799   20.1051    7.2364 C   0  0  0  0  0  0  0  0  0  0  0  0
   -2.2591   19.7192    7.1981 C   0  0  0  0  0  0  0  0  0  0  0  0
    2.6735   22.8633    4.4686 C   0  0  0  0  0  0  0  0  0  0  0  0
    4.6244   22.6616    6.1320 C   0  0  0  0  0  0  0  0  0  0  0  0
   10.2778   20.3588    7.0302 C   0  0  0  0  0  0  0  0  0  0  0  0
   10.0835   18.8509    7.0325 C   0  0  2  0  0  0  0  0  0  0  0  0
    8.1469   16.6674    7.1561 C   0  0  0  0  0  0  0  0  0  0  0  0
    9.2649   15.8692    7.2296 C   0  0  0  0  0  0  0  0  0  0  0  0
    9.1445   14.4955    7.1959 C   0  0  0  0  0  0  0  0  0  0  0  0
    7.8953   13.9313    7.0759 C   0  0  0  0  0  0  0  0  0  0  0  0
    6.7658   14.7248    7.0010 C   0  0  0  0  0  0  0  0  0  0  0  0
    6.8897   16.0938    7.0347 C   0  0  0  0  0  0  0  0  0  0  0  0
    4.6245   16.9858    7.8945 C   0  0  0  0  0  0  0  0  0  0  0  0
    2.4750   20.4466    7.2365 C   0  0  0  0  0  0  0  0  0  0  0  0
    1.0496   21.8310    5.8609 C   0  0  0  0  0  0  0  0  0  0  0  0
   -0.0783   21.1380    6.3242 C   0  0  0  0  0  0  0  0  0  0  0  0
    1.2343   22.9796    4.8760 C   0  0  0  0  0  0  0  0  0  0  0  0
    5.4734   23.5856    5.2698 C   0  0  0  0  0  0  0  0  0  0  0  0
    6.4888   23.9117    3.1185 C   0  0  0  0  0  0  0  0  0  0  0  0
    6.8449   21.9037    4.3469 C   0  0  0  0  0  0  0  0  0  0  0  0
    3.6346   16.0636    9.8612 C   0  0  0  0  0  0  0  0  0  0  0  0
    4.6658   16.0703    8.9590 C   0  0  0  0  0  0  0  0  0  0  0  0
    5.1331   14.5027   10.4222 C   0  0  0  0  0  0  0  0  0  0  0  0
    3.9310   15.0615   10.7972 C   0  0  0  0  0  0  0  0  0  0  0  0
   10.6513   18.1570    5.7993 C   0  0  0  0  0  0  0  0  0  0  0  0
    5.7413   16.9658    6.9675 N   0  0  0  0  0  0  0  0  0  0  0  0
    1.4794   18.6801    8.6152 N   0  0  0  0  0  0  0  0  0  0  0  0
    3.3004   22.3619    5.6701 N   0  0  0  0  0  0  0  0  0  0  0  0
    5.9105   22.9669    4.0424 N   0  0  1  0  0  0  0  0  0  0  0  0
    2.6170   16.9274    9.6891 N   0  0  0  0  0  0  0  0  0  0  0  0
    5.5597   15.1118    9.3243 N   0  0  0  0  0  0  0  0  0  0  0  0
   -1.0080   19.3874    7.7270 O   0  0  0  0  0  0  0  0  0  0  0  0
    5.0287   22.2057    7.1323 O   0  0  0  0  0  0  0  0  0  0  0  0
    7.5450   19.1097    6.1713 O   0  0  0  0  0  0  0  0  0  0  0  0
    7.7863   19.0572    8.3776 O   0  0  0  0  0  0  0  0  0  0  0  0
    8.3170   18.4716    7.1861 S   0  0  2  0  0  0  0  0  0  0  0  0
   -2.9664   19.9067    8.0194 H   0  0  0  0  0  0  0  0  0  0  0  0
   -2.1674   20.6241    6.5794 H   0  0  0  0  0  0  0  0  0  0  0  0
   -2.6278   18.8878    6.5794 H   0  0  0  0  0  0  0  0  0  0  0  0
    2.7941   22.1577    3.6333 H   0  0  0  0  0  0  0  0  0  0  0  0
    3.1055   23.8098    4.1114 H   0  0  0  0  0  0  0  0  0  0  0  0
   10.3249   20.7241    8.0668 H   0  0  0  0  0  0  0  0  0  0  0  0
   11.2154   20.6070    6.5112 H   0  0  0  0  0  0  0  0  0  0  0  0
    9.4338   20.8365    6.5112 H   0  0  0  0  0  0  0  0  0  0  0  0
   10.6463   18.4621    7.8940 H   0  0  0  0  0  0  0  0  0  0  0  0
   10.2604   16.3290    7.3158 H   0  0  0  0  0  0  0  0  0  0  0  0
   10.0381   13.8576    7.2643 H   0  0  0  0  0  0  0  0  0  0  0  0
    7.7943   12.8366    7.0392 H   0  0  0  0  0  0  0  0  0  0  0  0
    5.7713   14.2626    6.9147 H   0  0  0  0  0  0  0  0  0  0  0  0
    3.4779   20.1744    7.5972 H   0  0  0  0  0  0  0  0  0  0  0  0
   -1.0819   21.4117    5.9665 H   0  0  0  0  0  0  0  0  0  0  0  0
    1.0397   23.9480    5.3603 H   0  0  0  0  0  0  0  0  0  0  0  0
    0.5418   22.9282    4.0229 H   0  0  0  0  0  0  0  0  0  0  0  0
    4.8790   24.4770    5.0207 H   0  0  0  0  0  0  0  0  0  0  0  0
    6.3735   23.8408    5.8484 H   0  0  0  0  0  0  0  0  0  0  0  0
    6.9827   24.7183    3.6800 H   0  0  0  0  0  0  0  0  0  0  0  0
    7.2285   23.3996    2.4854 H   0  0  0  0  0  0  0  0  0  0  0  0
    5.6964   24.3375    2.4854 H   0  0  0  0  0  0  0  0  0  0  0  0
    6.9376   21.7984    5.4380 H   0  0  0  0  0  0  0  0  0  0  0  0
    6.4790   20.9596    3.9171 H   0  0  0  0  0  0  0  0  0  0  0  0
    7.8282   22.1455    3.9171 H   0  0  0  0  0  0  0  0  0  0  0  0
    5.6526   13.6870   10.9464 H   0  0  0  0  0  0  0  0  0  0  0  0
    3.3195   14.7761   11.6658 H   0  0  0  0  0  0  0  0  0  0  0  0
   11.3190   17.3410    6.1125 H   0  0  0  0  0  0  0  0  0  0  0  0
    9.8271   17.7460    5.1978 H   0  0  0  0  0  0  0  0  0  0  0  0
   11.2173   18.8835    5.1978 H   0  0  0  0  0  0  0  0  0  0  0  0
    5.7115   17.6378    6.1875 H   0  0  0  0  0  0  0  0  0  0  0  0
    0.7081   18.5343    9.2821 H   0  0  0  0  0  0  0  0  0  0  0  0
    5.0809   22.5767    3.5728 H   0  0  0  0  0  0  0  0  0  0  0  0
    6.4335   14.8930    8.8248 H   0  0  0  0  0  0  0  0  0  0  0  0
  1  2  2  0
  1 17  1  0
  2 31  1  0
  2 34  1  0
  3  5  2  0
  3 18  1  0
  3 31  1  0
  4 18  2  0
  4 19  1  0
  4 32  1  0
  5 20  1  0
  5 36  1  0
  6 36  1  0
  7 21  1  0
  7 32  1  0
  8 22  1  0
  8 32  1  0
  8 37  2  0
 10  9  1  0
 10 29  1  0
 10 40  1  0
 11 12  2  0
 11 16  1  0
 40 11  1  1
 12 13  1  0
 13 14  2  0
 14 15  1  0
 15 16  2  0
 16 30  1  0
 17 26  2  0
 17 30  1  0
 19 20  2  0
 19 21  1  0
 22 33  1  0
 33 23  1  0
 24 33  1  0
 25 26  1  0
 25 28  1  0
 25 34  2  0
 26 35  1  0
 27 28  2  0
 27 35  1  0
 38 40  2  0
 39 40  2  0
  6 41  1  0
  6 42  1  0
  6 43  1  0
  7 44  1  0
  7 45  1  0
  9 46  1  0
  9 47  1  0
  9 48  1  0
 10 49  1  1
 12 50  1  0
 13 51  1  0
 14 52  1  0
 15 53  1  0
 18 54  1  0
 20 55  1  0
 21 56  1  0
 21 57  1  0
 22 58  1  0
 22 59  1  0
 23 60  1  0
 23 61  1  0
 23 62  1  0
 24 63  1  0
 24 64  1  0
 24 65  1  0
 27 66  1  0
 28 67  1  0
 29 68  1  0
 29 69  1  0
 29 70  1  0
 30 71  1  0
 31 72  1  0
 33 73  1  6
 35 74  1  0
M  CHG  1  33   1
M  END
>  <filename_input>  (4) 
7BTT_F8R_docked.sdf

>  <pdb_id>  (4) 
7BTT_F8R

>  <pose_rank>  (4) 
3

>  <num_atoms_heavy>  (4) 
40

>  <num_torsions>  (4) 
8

>  <pose>  (4) 
[3.5996073058577935, 17.823527178365865, 7.793809590804608, -0.20102242027060185, -5.974497460966276, -0.9629772035599579, 62.69599253066382, 12.683171494807391, 26.68703861810629, 8.154216847734546, -72.03863334610021, 1.2173382356102334, 11.221694673117108, -0.11831246553311488]

>  <energy>  (4) 
-1300.7007714477547

>  <inter_energy>  (4) 
-1429.3115357657746

>  <intra_energy>  (4) 
127.56166561843382

>  <rmsd>  (4) 
2.18373

>  <sdf_rank>  (4) 
0

$$$$

     RDKit          3D

 74 78  0  0  0  0  0  0  0  0999 V2000
    4.0399   17.4206    8.3916 N   0  0  0  0  0  0  0  0  0  0  0  0
    2.8756   17.4151    9.0328 C   0  0  0  0  0  0  0  0  0  0  0  0
    1.9624   19.4484    7.7731 C   0  0  0  0  0  0  0  0  0  0  0  0
    1.0445   21.0815    6.2946 C   0  0  0  0  0  0  0  0  0  0  0  0
    3.2520   19.8856    7.4746 C   0  0  0  0  0  0  0  0  0  0  0  0
    5.5181   19.9867    8.1646 C   0  0  0  0  0  0  0  0  0  0  0  0
    0.7261   23.1334    5.2236 C   0  0  0  0  0  0  0  0  0  0  0  0
   -1.2873   21.5333    5.2190 C   0  0  0  0  0  0  0  0  0  0  0  0
   10.6323   18.2761    7.9860 C   0  0  0  0  0  0  0  0  0  0  0  0
    9.5655   17.3630    8.5690 C   0  0  2  0  0  0  0  0  0  0  0  0
    7.8823   16.7380    6.2647 C   0  0  0  0  0  0  0  0  0  0  0  0
    8.2087   17.1146    4.9826 C   0  0  0  0  0  0  0  0  0  0  0  0
    7.2466   17.6349    4.1422 C   0  0  0  0  0  0  0  0  0  0  0  0
    5.9589   17.7848    4.6033 C   0  0  0  0  0  0  0  0  0  0  0  0
    5.6209   17.4096    5.8902 C   0  0  0  0  0  0  0  0  0  0  0  0
    6.5828   16.8914    6.7252 C   0  0  0  0  0  0  0  0  0  0  0  0
    4.9813   16.5443    8.7203 C   0  0  0  0  0  0  0  0  0  0  0  0
    0.8534   20.0274    7.1927 C   0  0  0  0  0  0  0  0  0  0  0  0
    2.3095   21.5411    5.9974 C   0  0  0  0  0  0  0  0  0  0  0  0
    3.4294   20.9364    6.5867 C   0  0  0  0  0  0  0  0  0  0  0  0
    2.1453   22.6941    5.0140 C   0  0  0  0  0  0  0  0  0  0  0  0
   -2.1163   22.5564    4.4547 C   0  0  0  0  0  0  0  0  0  0  0  0
   -2.8392   22.9889    6.7033 C   0  0  0  0  0  0  0  0  0  0  0  0
   -2.6502   24.7554    5.1185 C   0  0  0  0  0  0  0  0  0  0  0  0
    3.5316   15.6682   10.4023 C   0  0  0  0  0  0  0  0  0  0  0  0
    4.7418   15.6317    9.7610 C   0  0  0  0  0  0  0  0  0  0  0  0
    4.8001   14.0525   11.2840 C   0  0  0  0  0  0  0  0  0  0  0  0
    3.5665   14.6588   11.3760 C   0  0  0  0  0  0  0  0  0  0  0  0
    9.9629   16.7230    9.8946 C   0  0  0  0  0  0  0  0  0  0  0  0
    6.2795   16.4777    8.0743 N   0  0  0  0  0  0  0  0  0  0  0  0
    1.8223   18.3616    8.7089 N   0  0  0  0  0  0  0  0  0  0  0  0
    0.0595   21.8945    5.5537 N   0  0  0  0  0  0  0  0  0  0  0  0
   -2.9577   23.3540    5.3128 N   0  0  1  0  0  0  0  0  0  0  0  0
    2.6148   16.5701   10.0060 N   0  0  0  0  0  0  0  0  0  0  0  0
    5.4905   14.6407   10.3165 N   0  0  0  0  0  0  0  0  0  0  0  0
    4.3312   19.2517    8.0850 O   0  0  0  0  0  0  0  0  0  0  0  0
   -1.7241   20.4917    5.5291 O   0  0  0  0  0  0  0  0  0  0  0  0
    8.7496   14.8599    8.0019 O   0  0  0  0  0  0  0  0  0  0  0  0
   10.3325   15.6562    6.6644 O   0  0  0  0  0  0  0  0  0  0  0  0
    9.1571   16.0693    7.3659 S   0  0  2  0  0  0  0  0  0  0  0  0
    5.7791   20.1484    9.2209 H   0  0  0  0  0  0  0  0  0  0  0  0
    6.3273   19.4314    7.6677 H   0  0  0  0  0  0  0  0  0  0  0  0
    5.3815   20.9586    7.6677 H   0  0  0  0  0  0  0  0  0  0  0  0
    0.6519   23.8567    6.0490 H   0  0  0  0  0  0  0  0  0  0  0  0
    0.2927   23.6452    4.3517 H   0  0  0  0  0  0  0  0  0  0  0  0
   11.1917   18.7548    8.8032 H   0  0  0  0  0  0  0  0  0  0  0  0
   11.3226   17.6846    7.3665 H   0  0  0  0  0  0  0  0  0  0  0  0
   10.1546   19.0493    7.3665 H   0  0  0  0  0  0  0  0  0  0  0  0
    8.6905   17.9955    8.7797 H   0  0  0  0  0  0  0  0  0  0  0  0
    9.2427   17.0001    4.6254 H   0  0  0  0  0  0  0  0  0  0  0  0
    7.5061   17.9271    3.1140 H   0  0  0  0  0  0  0  0  0  0  0  0
    5.1897   18.2078    3.9405 H   0  0  0  0  0  0  0  0  0  0  0  0
    4.5862   17.5252    6.2450 H   0  0  0  0  0  0  0  0  0  0  0  0
   -0.1585   19.6679    7.4310 H   0  0  0  0  0  0  0  0  0  0  0  0
    4.4418   21.2932    6.3464 H   0  0  0  0  0  0  0  0  0  0  0  0
    2.3031   22.3543    3.9798 H   0  0  0  0  0  0  0  0  0  0  0  0
    2.8728   23.5030    5.1767 H   0  0  0  0  0  0  0  0  0  0  0  0
   -1.4331   23.2266    3.9124 H   0  0  0  0  0  0  0  0  0  0  0  0
   -2.7755   22.0014    3.7711 H   0  0  0  0  0  0  0  0  0  0  0  0
   -3.1176   23.8470    7.3327 H   0  0  0  0  0  0  0  0  0  0  0  0
   -3.5093   22.1435    6.9187 H   0  0  0  0  0  0  0  0  0  0  0  0
   -1.8006   22.6977    6.9187 H   0  0  0  0  0  0  0  0  0  0  0  0
   -2.5425   25.2463    6.0971 H   0  0  0  0  0  0  0  0  0  0  0  0
   -1.7099   24.8499    4.5555 H   0  0  0  0  0  0  0  0  0  0  0  0
   -3.4645   25.2349    4.5555 H   0  0  0  0  0  0  0  0  0  0  0  0
    5.1536   13.2192   11.9090 H   0  0  0  0  0  0  0  0  0  0  0  0
    2.7614   14.4004   12.0796 H   0  0  0  0  0  0  0  0  0  0  0  0
    9.5829   17.3351   10.7258 H   0  0  0  0  0  0  0  0  0  0  0  0
    9.5333   15.7123    9.9572 H   0  0  0  0  0  0  0  0  0  0  0  0
   11.0593   16.6599    9.9572 H   0  0  0  0  0  0  0  0  0  0  0  0
    7.0584   16.0991    8.6318 H   0  0  0  0  0  0  0  0  0  0  0  0
    0.9136   18.2482    9.1803 H   0  0  0  0  0  0  0  0  0  0  0  0
   -3.9372   23.1734    5.0507 H   0  0  0  0  0  0  0  0  0  0  0  0
    6.4465   14.3864   10.0297 H   0  0  0  0  0  0  0  0  0  0  0  0
  1  2  2  0
  1 17  1  0
  2 31  1  0
  2 34  1  0
  3  5  2  0
  3 18  1  0
  3 31  1  0
  4 18  2  0
  4 19  1  0
  4 32  1  0
  5 20  1  0
  5 36  1  0
  6 36  1  0
  7 21  1  0
  7 32  1  0
  8 22  1  0
  8 32  1  0
  8 37  2  0
 10  9  1  0
 10 29  1  0
 10 40  1  0
 11 12  2  0
 11 16  1  0
 40 11  1  6
 12 13  1  0
 13 14  2  0
 14 15  1  0
 15 16  2  0
 16 30  1  0
 17 26  2  0
 17 30  1  0
 19 20  2  0
 19 21  1  0
 22 33  1  0
 33 23  1  0
 24 33  1  0
 25 26  1  0
 25 28  1  0
 25 34  2  0
 26 35  1  0
 27 28  2  0
 27 35  1  0
 38 40  2  0
 39 40  2  0
  6 41  1  0
  6 42  1  0
  6 43  1  0
  7 44  1  0
  7 45  1  0
  9 46  1  0
  9 47  1  0
  9 48  1  0
 10 49  1  1
 12 50  1  0
 13 51  1  0
 14 52  1  0
 15 53  1  0
 18 54  1  0
 20 55  1  0
 21 56  1  0
 21 57  1  0
 22 58  1  0
 22 59  1  0
 23 60  1  0
 23 61  1  0
 23 62  1  0
 24 63  1  0
 24 64  1  0
 24 65  1  0
 27 66  1  0
 28 67  1  0
 29 68  1  0
 29 69  1  0
 29 70  1  0
 30 71  1  0
 31 72  1  0
 33 73  1  6
 35 74  1  0
M  CHG  1  33   1
M  END
>  <filename_input>  (5) 
7BTT_F8R_docked.sdf

>  <pdb_id>  (5) 
7BTT_F8R

>  <pose_rank>  (5) 
4

>  <num_atoms_heavy>  (5) 
40

>  <num_torsions>  (5) 
8

>  <pose>  (5) 
[4.0399052769211306, 17.42064700316263, 8.391567475571083, -4.9020063672507055, 3.7949524977000983, 0.9538010668855725, -3.085256289556841, 0.45496244484595416, 1.1156099216355304, -1.0902981992972602, -0.23513364008221393, -6.097974481132961, 0.33056464118924755, 1.5349284102758263]

>  <energy>  (5) 
-1618.7419872411263

>  <inter_energy>  (5) 
-1863.5859134834852

>  <intra_energy>  (5) 
231.9074097967562

>  <rmsd>  (5) 
4.24654

>  <sdf_rank>  (5) 
0

$$$$

     RDKit          3D

 74 78  0  0  0  0  0  0  0  0999 V2000
    3.9962   17.4951    8.1691 N   0  0  0  0  0  0  0  0  0  0  0  0
    2.8333   17.4927    8.8129 C   0  0  0  0  0  0  0  0  0  0  0  0
    1.9264   19.5340    7.5614 C   0  0  0  0  0  0  0  0  0  0  0  0
    1.0139   21.2546    6.1821 C   0  0  0  0  0  0  0  0  0  0  0  0
    3.2160   19.8804    7.1608 C   0  0  0  0  0  0  0  0  0  0  0  0
    5.3912   19.9073    8.1037 C   0  0  0  0  0  0  0  0  0  0  0  0
    0.7620   23.3418    5.1631 C   0  0  0  0  0  0  0  0  0  0  0  0
   -1.3585   21.8941    5.3098 C   0  0  0  0  0  0  0  0  0  0  0  0
   10.3726   19.2524    5.4811 C   0  0  0  0  0  0  0  0  0  0  0  0
    8.9050   19.6390    5.5733 C   0  0  2  0  0  0  0  0  0  0  0  0
    8.3708   17.6854    7.6784 C   0  0  0  0  0  0  0  0  0  0  0  0
    9.5852   18.0617    8.2038 C   0  0  0  0  0  0  0  0  0  0  0  0
    9.9392   17.6839    9.4823 C   0  0  0  0  0  0  0  0  0  0  0  0
    9.0701   16.9163   10.2231 C   0  0  0  0  0  0  0  0  0  0  0  0
    7.8476   16.5328    9.7040 C   0  0  0  0  0  0  0  0  0  0  0  0
    7.4982   16.9111    8.4290 C   0  0  0  0  0  0  0  0  0  0  0  0
    4.9343   16.6135    8.4932 C   0  0  0  0  0  0  0  0  0  0  0  0
    0.8195   20.2024    7.0818 C   0  0  0  0  0  0  0  0  0  0  0  0
    2.2807   21.6250    5.7851 C   0  0  0  0  0  0  0  0  0  0  0  0
    3.3973   20.9300    6.2724 C   0  0  0  0  0  0  0  0  0  0  0  0
    2.1223   22.8032    4.8311 C   0  0  0  0  0  0  0  0  0  0  0  0
   -2.1693   22.9879    4.6283 C   0  0  0  0  0  0  0  0  0  0  0  0
   -2.3957   25.2173    5.4907 C   0  0  0  0  0  0  0  0  0  0  0  0
   -4.2780   23.7674    5.3403 C   0  0  0  0  0  0  0  0  0  0  0  0
    3.4844   15.7387   10.1755 C   0  0  0  0  0  0  0  0  0  0  0  0
    4.6930   15.6988    9.5315 C   0  0  0  0  0  0  0  0  0  0  0  0
    4.7475   14.1146   11.0494 C   0  0  0  0  0  0  0  0  0  0  0  0
    3.5168   14.7261   11.1459 C   0  0  0  0  0  0  0  0  0  0  0  0
    8.6249   20.7493    6.5801 C   0  0  0  0  0  0  0  0  0  0  0  0
    6.2309   16.5432    7.8442 N   0  0  0  0  0  0  0  0  0  0  0  0
    1.7835   18.4449    8.4941 N   0  0  0  0  0  0  0  0  0  0  0  0
    0.0344   22.1499    5.5346 N   0  0  0  0  0  0  0  0  0  0  0  0
   -2.8498   23.8501    5.5631 N   0  0  1  0  0  0  0  0  0  0  0  0
    2.5707   16.6459    9.7839 N   0  0  0  0  0  0  0  0  0  0  0  0
    5.4385   14.7028   10.0824 N   0  0  0  0  0  0  0  0  0  0  0  0
    4.2917   19.1589    7.6723 O   0  0  0  0  0  0  0  0  0  0  0  0
   -1.8446   20.8823    5.6442 O   0  0  0  0  0  0  0  0  0  0  0  0
    8.1080   17.1204    5.0500 O   0  0  0  0  0  0  0  0  0  0  0  0
    6.5270   18.4572    5.8514 O   0  0  0  0  0  0  0  0  0  0  0  0
    7.9215   18.1743    5.9920 S   0  0  2  0  0  0  0  0  0  0  0  0
    5.4150   19.9235    9.2034 H   0  0  0  0  0  0  0  0  0  0  0  0
    6.3171   19.4511    7.7236 H   0  0  0  0  0  0  0  0  0  0  0  0
    5.3064   20.9360    7.7236 H   0  0  0  0  0  0  0  0  0  0  0  0
    0.8102   24.0547    5.9994 H   0  0  0  0  0  0  0  0  0  0  0  0
    0.2974   23.8986    4.3359 H   0  0  0  0  0  0  0  0  0  0  0  0
   10.7873   19.1431    6.4941 H   0  0  0  0  0  0  0  0  0  0  0  0
   10.4672   18.2986    4.9413 H   0  0  0  0  0  0  0  0  0  0  0  0
   10.9249   20.0356    4.9413 H   0  0  0  0  0  0  0  0  0  0  0  0
    8.6212   20.0354    4.5873 H   0  0  0  0  0  0  0  0  0  0  0  0
   10.2779   18.6673    7.6010 H   0  0  0  0  0  0  0  0  0  0  0  0
   10.9064   17.9930    9.9053 H   0  0  0  0  0  0  0  0  0  0  0  0
    9.3512   16.6044   11.2397 H   0  0  0  0  0  0  0  0  0  0  0  0
    7.1567   15.9271   10.3088 H   0  0  0  0  0  0  0  0  0  0  0  0
   -0.1932   19.9142    7.4000 H   0  0  0  0  0  0  0  0  0  0  0  0
    4.4102   21.2155    5.9521 H   0  0  0  0  0  0  0  0  0  0  0  0
    2.1685   22.4701    3.7838 H   0  0  0  0  0  0  0  0  0  0  0  0
    2.9189   23.5537    4.9410 H   0  0  0  0  0  0  0  0  0  0  0  0
   -1.4889   23.6000    4.0181 H   0  0  0  0  0  0  0  0  0  0  0  0
   -2.9383   22.4944    4.0159 H   0  0  0  0  0  0  0  0  0  0  0  0
   -2.2639   25.6143    6.5081 H   0  0  0  0  0  0  0  0  0  0  0  0
   -1.4361   25.2571    4.9544 H   0  0  0  0  0  0  0  0  0  0  0  0
   -3.1409   25.8233    4.9544 H   0  0  0  0  0  0  0  0  0  0  0  0
   -4.7990   23.7373    6.3086 H   0  0  0  0  0  0  0  0  0  0  0  0
   -4.6119   24.6478    4.7715 H   0  0  0  0  0  0  0  0  0  0  0  0
   -4.5081   22.8545    4.7715 H   0  0  0  0  0  0  0  0  0  0  0  0
    5.0986   13.2778   11.6711 H   0  0  0  0  0  0  0  0  0  0  0  0
    2.7120   14.4690   11.8504 H   0  0  0  0  0  0  0  0  0  0  0  0
    8.7251   20.3522    7.6011 H   0  0  0  0  0  0  0  0  0  0  0  0
    9.3446   21.5680    6.4328 H   0  0  0  0  0  0  0  0  0  0  0  0
    7.6029   21.1285    6.4328 H   0  0  0  0  0  0  0  0  0  0  0  0
    6.2482   16.1978    6.8740 H   0  0  0  0  0  0  0  0  0  0  0  0
    0.8752   18.3341    8.9670 H   0  0  0  0  0  0  0  0  0  0  0  0
   -2.6267   23.5232    6.5140 H   0  0  0  0  0  0  0  0  0  0  0  0
    6.3927   14.4451    9.7928 H   0  0  0  0  0  0  0  0  0  0  0  0
  1  2  2  0
  1 17  1  0
  2 31  1  0
  2 34  1  0
  3  5  2  0
  3 18  1  0
  3 31  1  0
  4 18  2  0
  4 19  1  0
  4 32  1  0
  5 20  1  0
  5 36  1  0
  6 36  1  0
  7 21  1  0
  7 32  1  0
  8 22  1  0
  8 32  1  0
  8 37  2  0
 10  9  1  0
 10 29  1  0
 10 40  1  0
 11 12  2  0
 11 16  1  0
 40 11  1  1
 12 13  1  0
 13 14  2  0
 14 15  1  0
 15 16  2  0
 16 30  1  0
 17 26  2  0
 17 30  1  0
 19 20  2  0
 19 21  1  0
 22 33  1  0
 33 23  1  0
 24 33  1  0
 25 26  1  0
 25 28  1  0
 25 34  2  0
 26 35  1  0
 27 28  2  0
 27 35  1  0
 38 40  2  0
 39 40  2  0
  6 41  1  0
  6 42  1  0
  6 43  1  0
  7 44  1  0
  7 45  1  0
  9 46  1  0
  9 47  1  0
  9 48  1  0
 10 49  1  6
 12 50  1  0
 13 51  1  0
 14 52  1  0
 15 53  1  0
 18 54  1  0
 20 55  1  0
 21 56  1  0
 21 57  1  0
 22 58  1  0
 22 59  1  0
 23 60  1  0
 23 61  1  0
 23 62  1  0
 24 63  1  0
 24 64  1  0
 24 65  1  0
 27 66  1  0
 28 67  1  0
 29 68  1  0
 29 69  1  0
 29 70  1  0
 30 71  1  0
 31 72  1  0
 33 73  1  1
 35 74  1  0
M  CHG  1  33   1
M  END
>  <filename_input>  (6) 
7BTT_F8R_docked.sdf

>  <pdb_id>  (6) 
7BTT_F8R

>  <pose_rank>  (6) 
5

>  <num_atoms_heavy>  (6) 
40

>  <num_torsions>  (6) 
8

>  <pose>  (6) 
[3.996197298148822, 17.495125619039737, 8.169148420474333, -5.248265187363104, 2.0399184534764983, 2.7564471778451494, -2.9778559892080727, 0.8378538005439435, -5.143382231043562, 0.9663156636166483, -4.140860269060466, 7.250646309416289, 4.372253709635549, -2.0734104689619106]

>  <energy>  (6) 
-1389.1027293852194

>  <inter_energy>  (6) 
-1695.157182509406

>  <intra_energy>  (6) 
299.7697427412568

>  <rmsd>  (6) 
4.82549

>  <sdf_rank>  (6) 
0

$$$$

     RDKit          3D

 74 78  0  0  0  0  0  0  0  0999 V2000
    3.9053   17.4277    8.3229 N   0  0  0  0  0  0  0  0  0  0  0  0
    2.7309   17.4029    8.9449 C   0  0  0  0  0  0  0  0  0  0  0  0
    1.8114   19.4315    7.6820 C   0  0  0  0  0  0  0  0  0  0  0  0
    3.1326   21.0307    6.5019 C   0  0  0  0  0  0  0  0  0  0  0  0
    0.6555   19.9219    7.0765 C   0  0  0  0  0  0  0  0  0  0  0  0
   -1.7104   20.0761    7.0735 C   0  0  0  0  0  0  0  0  0  0  0  0
    3.9176   22.3519    4.7421 C   0  0  0  0  0  0  0  0  0  0  0  0
    5.5806   21.9151    6.6545 C   0  0  0  0  0  0  0  0  0  0  0  0
   11.4492   15.8934    7.9985 C   0  0  0  0  0  0  0  0  0  0  0  0
   10.2379   15.0118    7.7390 C   0  0  2  0  0  0  0  0  0  0  0  0
    8.4583   17.2370    8.3836 C   0  0  0  0  0  0  0  0  0  0  0  0
    9.4310   18.2094    8.4037 C   0  0  0  0  0  0  0  0  0  0  0  0
    9.1192   19.5147    8.0850 C   0  0  0  0  0  0  0  0  0  0  0  0
    7.8220   19.8369    7.7580 C   0  0  0  0  0  0  0  0  0  0  0  0
    6.8372   18.8670    7.7352 C   0  0  0  0  0  0  0  0  0  0  0  0
    7.1519   17.5669    8.0537 C   0  0  0  0  0  0  0  0  0  0  0  0
    4.8528   16.5619    8.6621 C   0  0  0  0  0  0  0  0  0  0  0  0
    3.0508   19.9731    7.4125 C   0  0  0  0  0  0  0  0  0  0  0  0
    2.0050   21.5205    5.8788 C   0  0  0  0  0  0  0  0  0  0  0  0
    0.7494   20.9675    6.1698 C   0  0  0  0  0  0  0  0  0  0  0  0
    2.4598   22.6399    4.9495 C   0  0  0  0  0  0  0  0  0  0  0  0
    6.6449   22.7314    5.9341 C   0  0  0  0  0  0  0  0  0  0  0  0
    5.6764   24.9170    6.1593 C   0  0  0  0  0  0  0  0  0  0  0  0
    7.0891   24.3895    4.3171 C   0  0  0  0  0  0  0  0  0  0  0  0
    3.3875   15.6567   10.3149 C   0  0  0  0  0  0  0  0  0  0  0  0
    4.6084   15.6400    9.6934 C   0  0  0  0  0  0  0  0  0  0  0  0
    4.6627   14.0526   11.2079 C   0  0  0  0  0  0  0  0  0  0  0  0
    3.4198   14.6419   11.2831 C   0  0  0  0  0  0  0  0  0  0  0  0
    9.7724   15.0201    6.2871 C   0  0  0  0  0  0  0  0  0  0  0  0
    6.1622   16.5163    8.0372 N   0  0  0  0  0  0  0  0  0  0  0  0
    1.6705   18.3374    8.6091 N   0  0  0  0  0  0  0  0  0  0  0  0
    4.3075   21.7772    6.0094 N   0  0  0  0  0  0  0  0  0  0  0  0
    6.1062   23.8819    5.2512 N   0  0  1  0  0  0  0  0  0  0  0  0
    2.4653   16.5488    9.9086 N   0  0  0  0  0  0  0  0  0  0  0  0
    5.3610   14.6557   10.2554 N   0  0  0  0  0  0  0  0  0  0  0  0
   -0.5675   19.3396    7.3996 O   0  0  0  0  0  0  0  0  0  0  0  0
    5.7850   21.4127    7.6927 O   0  0  0  0  0  0  0  0  0  0  0  0
    9.2037   15.3801   10.1982 O   0  0  0  0  0  0  0  0  0  0  0  0
    7.7670   14.6353    8.6784 O   0  0  0  0  0  0  0  0  0  0  0  0
    8.8754   15.5277    8.8186 S   0  0  2  0  0  0  0  0  0  0  0  0
   -2.2134   20.4003    7.9965 H   0  0  0  0  0  0  0  0  0  0  0  0
   -1.4220   20.9587    6.4838 H   0  0  0  0  0  0  0  0  0  0  0  0
   -2.3950   19.4488    6.4838 H   0  0  0  0  0  0  0  0  0  0  0  0
    4.0683   21.6380    3.9189 H   0  0  0  0  0  0  0  0  0  0  0  0
    4.5044   23.2400    4.4648 H   0  0  0  0  0  0  0  0  0  0  0  0
   11.5982   16.0018    9.0829 H   0  0  0  0  0  0  0  0  0  0  0  0
   12.3413   15.4318    7.5501 H   0  0  0  0  0  0  0  0  0  0  0  0
   11.2843   16.8842    7.5501 H   0  0  0  0  0  0  0  0  0  0  0  0
   10.5465   13.9794    7.9601 H   0  0  0  0  0  0  0  0  0  0  0  0
   10.4635   17.9446    8.6756 H   0  0  0  0  0  0  0  0  0  0  0  0
    9.8994   20.2900    8.0921 H   0  0  0  0  0  0  0  0  0  0  0  0
    7.5658   20.8779    7.5120 H   0  0  0  0  0  0  0  0  0  0  0  0
    5.8055   19.1343    7.4631 H   0  0  0  0  0  0  0  0  0  0  0  0
    3.9543   19.5819    7.9030 H   0  0  0  0  0  0  0  0  0  0  0  0
   -0.1550   21.3603    5.6823 H   0  0  0  0  0  0  0  0  0  0  0  0
    2.3164   23.6239    5.4196 H   0  0  0  0  0  0  0  0  0  0  0  0
    1.8914   22.6730    4.0083 H   0  0  0  0  0  0  0  0  0  0  0  0
    7.3825   23.0764    6.6738 H   0  0  0  0  0  0  0  0  0  0  0  0
    7.1001   22.0803    5.1733 H   0  0  0  0  0  0  0  0  0  0  0  0
    5.8175   24.5772    7.1959 H   0  0  0  0  0  0  0  0  0  0  0  0
    6.2714   25.8260    5.9872 H   0  0  0  0  0  0  0  0  0  0  0  0
    4.6125   25.1372    5.9872 H   0  0  0  0  0  0  0  0  0  0  0  0
    7.9325   24.8250    4.8729 H   0  0  0  0  0  0  0  0  0  0  0  0
    7.4528   23.5665    3.6843 H   0  0  0  0  0  0  0  0  0  0  0  0
    6.6287   25.1625    3.6843 H   0  0  0  0  0  0  0  0  0  0  0  0
    5.0169   13.2203   11.8339 H   0  0  0  0  0  0  0  0  0  0  0  0
    2.6067   14.3687   11.9718 H   0  0  0  0  0  0  0  0  0  0  0  0
    8.6731   15.0395    6.2546 H   0  0  0  0  0  0  0  0  0  0  0  0
   10.1701   15.9113    5.7796 H   0  0  0  0  0  0  0  0  0  0  0  0
   10.1384   14.1153    5.7796 H   0  0  0  0  0  0  0  0  0  0  0  0
    6.4085   15.6520    7.5341 H   0  0  0  0  0  0  0  0  0  0  0  0
    0.7557   18.2091    9.0647 H   0  0  0  0  0  0  0  0  0  0  0  0
    5.2643   23.5801    4.7403 H   0  0  0  0  0  0  0  0  0  0  0  0
    6.3249   14.4157    9.9830 H   0  0  0  0  0  0  0  0  0  0  0  0
  1  2  2  0
  1 17  1  0
  2 31  1  0
  2 34  1  0
  3  5  2  0
  3 18  1  0
  3 31  1  0
  4 18  2  0
  4 19  1  0
  4 32  1  0
  5 20  1  0
  5 36  1  0
  6 36  1  0
  7 21  1  0
  7 32  1  0
  8 22  1  0
  8 32  1  0
  8 37  2  0
 10  9  1  0
 10 29  1  0
 10 40  1  0
 11 12  2  0
 11 16  1  0
 40 11  1  1
 12 13  1  0
 13 14  2  0
 14 15  1  0
 15 16  2  0
 16 30  1  0
 17 26  2  0
 17 30  1  0
 19 20  2  0
 19 21  1  0
 22 33  1  0
 33 23  1  0
 24 33  1  0
 25 26  1  0
 25 28  1  0
 25 34  2  0
 26 35  1  0
 27 28  2  0
 27 35  1  0
 38 40  2  0
 39 40  2  0
  6 41  1  0
  6 42  1  0
  6 43  1  0
  7 44  1  0
  7 45  1  0
  9 46  1  0
  9 47  1  0
  9 48  1  0
 10 49  1  1
 12 50  1  0
 13 51  1  0
 14 52  1  0
 15 53  1  0
 18 54  1  0
 20 55  1  0
 21 56  1  0
 21 57  1  0
 22 58  1  0
 22 59  1  0
 23 60  1  0
 23 61  1  0
 23 62  1  0
 24 63  1  0
 24 64  1  0
 24 65  1  0
 27 66  1  0
 28 67  1  0
 29 68  1  0
 29 69  1  0
 29 70  1  0
 30 71  1  0
 31 72  1  0
 33 73  1  6
 35 74  1  0
M  CHG  1  33   1
M  END
>  <filename_input>  (7) 
7BTT_F8R_docked.sdf

>  <pdb_id>  (7) 
7BTT_F8R

>  <pose_rank>  (7) 
6

>  <num_atoms_heavy>  (7) 
40

>  <num_torsions>  (7) 
8

>  <pose>  (7) 
[3.905337917624464, 17.427719722438074, 8.322924282387396, -3.065633642839144, 4.863564956465061, -2.4606797364795994, 0.007648512242042536, -0.24088088528578078, -2.828940648001848, 0.16962675754408807, -4.958381436142625, -0.669931525804445, -2.474741218901314, -2.160776362824169]

>  <energy>  (7) 
-1754.2442640727531

>  <inter_energy>  (7) 
-1935.8025768381906

>  <intra_energy>  (7) 
182.61642388070265

>  <rmsd>  (7) 
1.92477

>  <sdf_rank>  (7) 
0

$$$$

     RDKit          3D

 74 78  0  0  0  0  0  0  0  0999 V2000
    3.9509   17.4171    8.2541 N   0  0  0  0  0  0  0  0  0  0  0  0
    2.8135   17.3961    8.9418 C   0  0  0  0  0  0  0  0  0  0  0  0
    1.8344   19.4336    7.7395 C   0  0  0  0  0  0  0  0  0  0  0  0
    0.9448   21.3857    6.6939 C   0  0  0  0  0  0  0  0  0  0  0  0
    2.9979   19.5421    6.9794 C   0  0  0  0  0  0  0  0  0  0  0  0
    4.3208   17.8192    6.0291 C   0  0  0  0  0  0  0  0  0  0  0  0
    0.8527   23.5424    5.8002 C   0  0  0  0  0  0  0  0  0  0  0  0
   -1.3902   22.5378    6.5579 C   0  0  0  0  0  0  0  0  0  0  0  0
   11.4862   14.9786    6.9776 C   0  0  0  0  0  0  0  0  0  0  0  0
   10.0395   15.0487    6.5151 C   0  0  2  0  0  0  0  0  0  0  0  0
    8.5198   17.1671    7.8328 C   0  0  0  0  0  0  0  0  0  0  0  0
    9.5016   18.1301    7.8019 C   0  0  0  0  0  0  0  0  0  0  0  0
    9.1662   19.4664    7.7366 C   0  0  0  0  0  0  0  0  0  0  0  0
    7.8387   19.8275    7.7148 C   0  0  0  0  0  0  0  0  0  0  0  0
    6.8445   18.8674    7.7458 C   0  0  0  0  0  0  0  0  0  0  0  0
    7.1827   17.5362    7.8111 C   0  0  0  0  0  0  0  0  0  0  0  0
    4.9115   16.5454    8.5362 C   0  0  0  0  0  0  0  0  0  0  0  0
    0.8013   20.3376    7.6078 C   0  0  0  0  0  0  0  0  0  0  0  0
    2.0932   21.5221    5.9440 C   0  0  0  0  0  0  0  0  0  0  0  0
    3.1320   20.5896    6.0801 C   0  0  0  0  0  0  0  0  0  0  0  0
    1.9175   22.7670    5.0821 C   0  0  0  0  0  0  0  0  0  0  0  0
   -2.1155   23.8121    6.1476 C   0  0  0  0  0  0  0  0  0  0  0  0
   -2.2055   22.7084    4.0170 C   0  0  0  0  0  0  0  0  0  0  0  0
   -3.4013   24.7315    4.3976 C   0  0  0  0  0  0  0  0  0  0  0  0
    3.5378   15.6419   10.2668 C   0  0  0  0  0  0  0  0  0  0  0  0
    4.7214   15.6213    9.5769 C   0  0  0  0  0  0  0  0  0  0  0  0
    4.8534   14.0285   11.0810 C   0  0  0  0  0  0  0  0  0  0  0  0
    3.6198   14.6238   11.2285 C   0  0  0  0  0  0  0  0  0  0  0  0
    9.7965   16.0736    5.4127 C   0  0  0  0  0  0  0  0  0  0  0  0
    6.1830   16.4954    7.8378 N   0  0  0  0  0  0  0  0  0  0  0  0
    1.7407   18.3370    8.6697 N   0  0  0  0  0  0  0  0  0  0  0  0
    0.0301   22.4972    6.3651 N   0  0  0  0  0  0  0  0  0  0  0  0
   -2.2124   23.9695    4.7172 N   0  0  1  0  0  0  0  0  0  0  0  0
    2.5987   16.5400    9.9164 N   0  0  0  0  0  0  0  0  0  0  0  0
    5.4996   14.6313   10.0922 N   0  0  0  0  0  0  0  0  0  0  0  0
    3.9999   18.5903    7.1505 O   0  0  0  0  0  0  0  0  0  0  0  0
   -1.9600   21.6233    7.0171 O   0  0  0  0  0  0  0  0  0  0  0  0
    9.5960   15.0821    9.1713 O   0  0  0  0  0  0  0  0  0  0  0  0
    7.8324   14.5496    7.9324 O   0  0  0  0  0  0  0  0  0  0  0  0
    8.9709   15.4146    7.9336 S   0  0  2  0  0  0  0  0  0  0  0  0
    4.7246   16.8491    6.3546 H   0  0  0  0  0  0  0  0  0  0  0  0
    3.4160   17.6558    5.4253 H   0  0  0  0  0  0  0  0  0  0  0  0
    5.0744   18.3460    5.4253 H   0  0  0  0  0  0  0  0  0  0  0  0
    1.2858   24.1765    6.5878 H   0  0  0  0  0  0  0  0  0  0  0  0
    0.2975   24.2321    5.1474 H   0  0  0  0  0  0  0  0  0  0  0  0
   11.5200   14.9769    8.0770 H   0  0  0  0  0  0  0  0  0  0  0  0
   11.9491   14.0569    6.5951 H   0  0  0  0  0  0  0  0  0  0  0  0
   12.0361   15.8511    6.5951 H   0  0  0  0  0  0  0  0  0  0  0  0
    9.7988   14.0659    6.0837 H   0  0  0  0  0  0  0  0  0  0  0  0
   10.5603   17.8327    7.8293 H   0  0  0  0  0  0  0  0  0  0  0  0
    9.9519   20.2355    7.7024 H   0  0  0  0  0  0  0  0  0  0  0  0
    7.5654   20.8921    7.6722 H   0  0  0  0  0  0  0  0  0  0  0  0
    5.7865   19.1673    7.7184 H   0  0  0  0  0  0  0  0  0  0  0  0
   -0.1148   20.2362    8.2082 H   0  0  0  0  0  0  0  0  0  0  0  0
    4.0471   20.6884    5.4777 H   0  0  0  0  0  0  0  0  0  0  0  0
    1.5914   22.4991    4.0662 H   0  0  0  0  0  0  0  0  0  0  0  0
    2.8505   23.3359    4.9558 H   0  0  0  0  0  0  0  0  0  0  0  0
   -3.1320   23.7875    6.5673 H   0  0  0  0  0  0  0  0  0  0  0  0
   -1.5325   24.6613    6.5335 H   0  0  0  0  0  0  0  0  0  0  0  0
   -2.2010   21.8844    4.7458 H   0  0  0  0  0  0  0  0  0  0  0  0
   -3.1033   22.6346    3.3857 H   0  0  0  0  0  0  0  0  0  0  0  0
   -1.3070   22.6444    3.3857 H   0  0  0  0  0  0  0  0  0  0  0  0
   -3.8951   25.0480    5.3282 H   0  0  0  0  0  0  0  0  0  0  0  0
   -3.1213   25.6189    3.8109 H   0  0  0  0  0  0  0  0  0  0  0  0
   -4.0906   24.1066    3.8109 H   0  0  0  0  0  0  0  0  0  0  0  0
    5.2383   13.1923   11.6832 H   0  0  0  0  0  0  0  0  0  0  0  0
    2.8458   14.3523   11.9614 H   0  0  0  0  0  0  0  0  0  0  0  0
    9.5651   17.0496    5.8641 H   0  0  0  0  0  0  0  0  0  0  0  0
   10.6985   16.1624    4.7894 H   0  0  0  0  0  0  0  0  0  0  0  0
    8.9507   15.7480    4.7894 H   0  0  0  0  0  0  0  0  0  0  0  0
    6.3918   15.6352    7.3111 H   0  0  0  0  0  0  0  0  0  0  0  0
    0.8526   18.2118    9.1762 H   0  0  0  0  0  0  0  0  0  0  0  0
   -1.3763   24.4797    4.3985 H   0  0  0  0  0  0  0  0  0  0  0  0
    6.4452   14.3874    9.7647 H   0  0  0  0  0  0  0  0  0  0  0  0
  1  2  2  0
  1 17  1  0
  2 31  1  0
  2 34  1  0
  3  5  2  0
  3 18  1  0
  3 31  1  0
  4 18  2  0
  4 19  1  0
  4 32  1  0
  5 20  1  0
  5 36  1  0
  6 36  1  0
  7 21  1  0
  7 32  1  0
  8 22  1  0
  8 32  1  0
  8 37  2  0
 10  9  1  0
 10 29  1  0
 10 40  1  0
 11 12  2  0
 11 16  1  0
 40 11  1  1
 12 13  1  0
 13 14  2  0
 14 15  1  0
 15 16  2  0
 16 30  1  0
 17 26  2  0
 17 30  1  0
 19 20  2  0
 19 21  1  0
 22 33  1  0
 33 23  1  0
 24 33  1  0
 25 26  1  0
 25 28  1  0
 25 34  2  0
 26 35  1  0
 27 28  2  0
 27 35  1  0
 38 40  2  0
 39 40  2  0
  6 41  1  0
  6 42  1  0
  6 43  1  0
  7 44  1  0
  7 45  1  0
  9 46  1  0
  9 47  1  0
  9 48  1  0
 10 49  1  6
 12 50  1  0
 13 51  1  0
 14 52  1  0
 15 53  1  0
 18 54  1  0
 20 55  1  0
 21 56  1  0
 21 57  1  0
 22 58  1  0
 22 59  1  0
 23 60  1  0
 23 61  1  0
 23 62  1  0
 24 63  1  0
 24 64  1  0
 24 65  1  0
 27 66  1  0
 28 67  1  0
 29 68  1  0
 29 69  1  0
 29 70  1  0
 30 71  1  0
 31 72  1  0
 33 73  1  6
 35 74  1  0
M  CHG  1  33   1
M  END
>  <filename_input>  (8) 
7BTT_F8R_docked.sdf

>  <pdb_id>  (8) 
7BTT_F8R

>  <pose_rank>  (8) 
7

>  <num_atoms_heavy>  (8) 
40

>  <num_torsions>  (8) 
8

>  <pose>  (8) 
[3.950880323706108, 17.4171020587492, 8.254146674282545, 2.937788893731202, 5.509241721700472, 0.9923494964547468, -2.6373316193317646, -1.0190178429986654, -2.2172382085611244, -0.5962464606213964, -4.948042101623938, -0.4799813376179118, -2.5104834423038342, -1.450227232319472]

>  <energy>  (8) 
-1308.1292552049167

>  <inter_energy>  (8) 
-1740.6584202045126

>  <intra_energy>  (8) 
417.2287893262883

>  <rmsd>  (8) 
4.45449

>  <sdf_rank>  (8) 
0

$$$$

     RDKit          3D

 74 78  0  0  0  0  0  0  0  0999 V2000
    4.2159   17.3574    8.4913 N   0  0  0  0  0  0  0  0  0  0  0  0
    2.9785   17.2945    8.9725 C   0  0  0  0  0  0  0  0  0  0  0  0
    2.1786   19.3634    7.6938 C   0  0  0  0  0  0  0  0  0  0  0  0
    1.7889   21.6283    7.0507 C   0  0  0  0  0  0  0  0  0  0  0  0
    3.0729   19.2045    6.6363 C   0  0  0  0  0  0  0  0  0  0  0  0
    4.1865   17.6980    5.1831 C   0  0  0  0  0  0  0  0  0  0  0  0
    2.2285   23.8077    6.3325 C   0  0  0  0  0  0  0  0  0  0  0  0
    0.0479   23.4731    7.6543 C   0  0  0  0  0  0  0  0  0  0  0  0
   10.2472   17.0731    9.7800 C   0  0  0  0  0  0  0  0  0  0  0  0
   10.7112   16.2033    8.6225 C   0  0  2  0  0  0  0  0  0  0  0  0
    8.4201   17.2729    7.1595 C   0  0  0  0  0  0  0  0  0  0  0  0
    9.0500   18.2167    6.3818 C   0  0  0  0  0  0  0  0  0  0  0  0
    8.4044   19.3889    6.0478 C   0  0  0  0  0  0  0  0  0  0  0  0
    7.1276   19.6103    6.5104 C   0  0  0  0  0  0  0  0  0  0  0  0
    6.4861   18.6683    7.2928 C   0  0  0  0  0  0  0  0  0  0  0  0
    7.1330   17.5009    7.6239 C   0  0  0  0  0  0  0  0  0  0  0  0
    5.1314   16.4886    8.9026 C   0  0  0  0  0  0  0  0  0  0  0  0
    1.5273   20.5592    7.9125 C   0  0  0  0  0  0  0  0  0  0  0  0
    2.6817   21.4988    6.0087 C   0  0  0  0  0  0  0  0  0  0  0  0
    3.3294   20.2740    5.7911 C   0  0  0  0  0  0  0  0  0  0  0  0
    2.7370   22.8466    5.2988 C   0  0  0  0  0  0  0  0  0  0  0  0
   -0.2677   24.9578    7.5365 C   0  0  0  0  0  0  0  0  0  0  0  0
   -2.0964   26.4815    7.8521 C   0  0  0  0  0  0  0  0  0  0  0  0
   -1.9339   25.1582    5.8798 C   0  0  0  0  0  0  0  0  0  0  0  0
    3.5007   15.5004   10.3386 C   0  0  0  0  0  0  0  0  0  0  0  0
    4.7849   15.5225    9.8615 C   0  0  0  0  0  0  0  0  0  0  0  0
    4.6897   13.8747   11.3081 C   0  0  0  0  0  0  0  0  0  0  0  0
    3.4375   14.4471   11.2631 C   0  0  0  0  0  0  0  0  0  0  0  0
   11.7725   16.8610    7.7475 C   0  0  0  0  0  0  0  0  0  0  0  0
    6.5043   16.4828    8.4311 N   0  0  0  0  0  0  0  0  0  0  0  0
    1.9493   18.2306    8.5544 N   0  0  0  0  0  0  0  0  0  0  0  0
    1.2664   23.0093    7.0572 N   0  0  0  0  0  0  0  0  0  0  0  0
   -1.6664   25.2196    7.3014 N   0  0  1  0  0  0  0  0  0  0  0  0
    2.6175   16.3986    9.8647 N   0  0  0  0  0  0  0  0  0  0  0  0
    5.4832   14.5239   10.4669 N   0  0  0  0  0  0  0  0  0  0  0  0
    3.6896   17.9681    6.4618 O   0  0  0  0  0  0  0  0  0  0  0  0
   -0.6675   22.7318    8.2115 O   0  0  0  0  0  0  0  0  0  0  0  0
    8.4329   14.8109    8.2709 O   0  0  0  0  0  0  0  0  0  0  0  0
    9.7083   14.9949    6.4631 O   0  0  0  0  0  0  0  0  0  0  0  0
    9.2827   15.7424    7.6052 S   0  0  2  0  0  0  0  0  0  0  0  0
    5.1501   17.1741    5.2673 H   0  0  0  0  0  0  0  0  0  0  0  0
    3.4712   17.0646    4.6380 H   0  0  0  0  0  0  0  0  0  0  0  0
    4.3292   18.6427    4.6380 H   0  0  0  0  0  0  0  0  0  0  0  0
    3.0403   24.1476    6.9924 H   0  0  0  0  0  0  0  0  0  0  0  0
    1.8014   24.7263    5.9040 H   0  0  0  0  0  0  0  0  0  0  0  0
   10.5070   16.5862   10.7316 H   0  0  0  0  0  0  0  0  0  0  0  0
   10.7420   18.0539    9.7230 H   0  0  0  0  0  0  0  0  0  0  0  0
    9.1571   17.2085    9.7230 H   0  0  0  0  0  0  0  0  0  0  0  0
   11.1824   15.3137    9.0661 H   0  0  0  0  0  0  0  0  0  0  0  0
   10.0744   18.0355    6.0243 H   0  0  0  0  0  0  0  0  0  0  0  0
    8.9052   20.1391    5.4181 H   0  0  0  0  0  0  0  0  0  0  0  0
    6.6116   20.5475    6.2549 H   0  0  0  0  0  0  0  0  0  0  0  0
    5.4618   18.8519    7.6491 H   0  0  0  0  0  0  0  0  0  0  0  0
    0.8181   20.6692    8.7462 H   0  0  0  0  0  0  0  0  0  0  0  0
    4.0363   20.1622    4.9557 H   0  0  0  0  0  0  0  0  0  0  0  0
    2.0911   22.8488    4.4084 H   0  0  0  0  0  0  0  0  0  0  0  0
    3.7446   23.0995    4.9372 H   0  0  0  0  0  0  0  0  0  0  0  0
    0.0296   25.4547    8.4719 H   0  0  0  0  0  0  0  0  0  0  0  0
    0.2897   25.3452    6.6709 H   0  0  0  0  0  0  0  0  0  0  0  0
   -2.0780   26.4275    8.9507 H   0  0  0  0  0  0  0  0  0  0  0  0
   -1.4194   27.2794    7.5129 H   0  0  0  0  0  0  0  0  0  0  0  0
   -3.1197   26.7000    7.5129 H   0  0  0  0  0  0  0  0  0  0  0  0
   -2.9941   24.9148    5.7164 H   0  0  0  0  0  0  0  0  0  0  0  0
   -1.7064   26.1319    5.4215 H   0  0  0  0  0  0  0  0  0  0  0  0
   -1.3045   24.3812    5.4215 H   0  0  0  0  0  0  0  0  0  0  0  0
    4.9828   13.0212   11.9371 H   0  0  0  0  0  0  0  0  0  0  0  0
    2.5552   14.1371   11.8424 H   0  0  0  0  0  0  0  0  0  0  0  0
   12.5337   17.3327    8.3863 H   0  0  0  0  0  0  0  0  0  0  0  0
   12.2479   16.0990    7.1124 H   0  0  0  0  0  0  0  0  0  0  0  0
   11.3017   17.6258    7.1124 H   0  0  0  0  0  0  0  0  0  0  0  0
    7.0852   15.6752    8.6981 H   0  0  0  0  0  0  0  0  0  0  0  0
    0.9905   18.0739    8.8963 H   0  0  0  0  0  0  0  0  0  0  0  0
   -2.2098   24.4931    7.7891 H   0  0  0  0  0  0  0  0  0  0  0  0
    6.4755   14.3058   10.2978 H   0  0  0  0  0  0  0  0  0  0  0  0
  1  2  2  0
  1 17  1  0
  2 31  1  0
  2 34  1  0
  3  5  2  0
  3 18  1  0
  3 31  1  0
  4 18  2  0
  4 19  1  0
  4 32  1  0
  5 20  1  0
  5 36  1  0
  6 36  1  0
  7 21  1  0
  7 32  1  0
  8 22  1  0
  8 32  1  0
  8 37  2  0
 10  9  1  0
 10 29  1  0
 10 40  1  0
 11 12  2  0
 11 16  1  0
 40 11  1  6
 12 13  1  0
 13 14  2  0
 14 15  1  0
 15 16  2  0
 16 30  1  0
 17 26  2  0
 17 30  1  0
 19 20  2  0
 19 21  1  0
 22 33  1  0
 33 23  1  0
 24 33  1  0
 25 26  1  0
 25 28  1  0
 25 34  2  0
 26 35  1  0
 27 28  2  0
 27 35  1  0
 38 40  2  0
 39 40  2  0
  6 41  1  0
  6 42  1  0
  6 43  1  0
  7 44  1  0
  7 45  1  0
  9 46  1  0
  9 47  1  0
  9 48  1  0
 10 49  1  1
 12 50  1  0
 13 51  1  0
 14 52  1  0
 15 53  1  0
 18 54  1  0
 20 55  1  0
 21 56  1  0
 21 57  1  0
 22 58  1  0
 22 59  1  0
 23 60  1  0
 23 61  1  0
 23 62  1  0
 24 63  1  0
 24 64  1  0
 24 65  1  0
 27 66  1  0
 28 67  1  0
 29 68  1  0
 29 69  1  0
 29 70  1  0
 30 71  1  0
 31 72  1  0
 33 73  1  1
 35 74  1  0
M  CHG  1  33   1
M  END
>  <filename_input>  (9) 
7BTT_F8R_docked.sdf

>  <pdb_id>  (9) 
7BTT_F8R

>  <pose_rank>  (9) 
8

>  <num_atoms_heavy>  (9) 
40

>  <num_torsions>  (9) 
8

>  <pose>  (9) 
[4.2158997707948105, 17.357435329098788, 8.491291453307323, 0.05449837291842634, -0.13819546051518208, 0.025073495664088806, -2.0534636980016927, -0.3199563154524283, -1.0252237249252338, 1.5411188231096296, 0.402820697829956, 0.2730584609826781, -0.3998801621461508, -2.316879730051072]

>  <energy>  (9) 
-1403.7576184473276

>  <inter_energy>  (9) 
-1593.819945387044

>  <intra_energy>  (9) 
181.94134264305916

>  <rmsd>  (9) 
3.98333

>  <sdf_rank>  (9) 
0

$$$$

     RDKit          3D

 74 78  0  0  0  0  0  0  0  0999 V2000
    4.1836   17.5538    8.6442 N   0  0  0  0  0  0  0  0  0  0  0  0
    2.9131   17.1632    8.6423 C   0  0  0  0  0  0  0  0  0  0  0  0
    2.0885   19.2265    7.3701 C   0  0  0  0  0  0  0  0  0  0  0  0
    1.3192   21.3817    6.6930 C   0  0  0  0  0  0  0  0  0  0  0  0
    3.3581   19.5089    6.8685 C   0  0  0  0  0  0  0  0  0  0  0  0
    5.2798   18.4861    5.9290 C   0  0  0  0  0  0  0  0  0  0  0  0
    1.3032   23.6921    6.3463 C   0  0  0  0  0  0  0  0  0  0  0  0
   -0.9987   22.5496    6.4448 C   0  0  0  0  0  0  0  0  0  0  0  0
   10.3251   20.9571    7.8360 C   0  0  0  0  0  0  0  0  0  0  0  0
    9.0402   20.5280    7.1456 C   0  0  2  0  0  0  0  0  0  0  0  0
    8.3211   17.7779    7.8192 C   0  0  0  0  0  0  0  0  0  0  0  0
    9.2997   17.4486    6.9102 C   0  0  0  0  0  0  0  0  0  0  0  0
    9.4988   16.1334    6.5456 C   0  0  0  0  0  0  0  0  0  0  0  0
    8.7005   15.1546    7.0914 C   0  0  0  0  0  0  0  0  0  0  0  0
    7.7142   15.4753    8.0054 C   0  0  0  0  0  0  0  0  0  0  0  0
    7.5185   16.7876    8.3664 C   0  0  0  0  0  0  0  0  0  0  0  0
    5.0998   16.8241    9.2691 C   0  0  0  0  0  0  0  0  0  0  0  0
    1.0614   20.1430    7.2875 C   0  0  0  0  0  0  0  0  0  0  0  0
    2.5712   21.6888    6.2052 C   0  0  0  0  0  0  0  0  0  0  0  0
    3.6042   20.7436    6.2862 C   0  0  0  0  0  0  0  0  0  0  0  0
    2.4990   23.1079    5.6537 C   0  0  0  0  0  0  0  0  0  0  0  0
   -1.6889   23.8909    6.2382 C   0  0  0  0  0  0  0  0  0  0  0  0
   -1.4586   23.4076    3.8975 C   0  0  0  0  0  0  0  0  0  0  0  0
   -3.6061   23.5040    4.9207 C   0  0  0  0  0  0  0  0  0  0  0  0
    3.3879   15.2946    9.9231 C   0  0  0  0  0  0  0  0  0  0  0  0
    4.7098   15.6542    9.9416 C   0  0  0  0  0  0  0  0  0  0  0  0
    4.5589   13.7904   11.0905 C   0  0  0  0  0  0  0  0  0  0  0  0
    3.2893   14.1027   10.6564 C   0  0  0  0  0  0  0  0  0  0  0  0
    8.1963   21.6930    6.6404 C   0  0  0  0  0  0  0  0  0  0  0  0
    6.5077   17.1735    9.3219 N   0  0  0  0  0  0  0  0  0  0  0  0
    1.8788   17.9364    7.9770 N   0  0  0  0  0  0  0  0  0  0  0  0
    0.4344   22.5467    6.4925 N   0  0  0  0  0  0  0  0  0  0  0  0
   -2.2588   24.0343    4.9211 N   0  0  1  0  0  0  0  0  0  0  0  0
    2.5143   16.0699    9.2545 N   0  0  0  0  0  0  0  0  0  0  0  0
    5.3966   14.7222   10.6564 N   0  0  0  0  0  0  0  0  0  0  0  0
    4.3498   18.5367    6.9719 O   0  0  0  0  0  0  0  0  0  0  0  0
   -1.6053   21.5548    6.5648 O   0  0  0  0  0  0  0  0  0  0  0  0
    6.6794   19.8761    8.2657 O   0  0  0  0  0  0  0  0  0  0  0  0
    8.4245   19.7844    9.6350 O   0  0  0  0  0  0  0  0  0  0  0  0
    8.0576   19.5108    8.2804 S   0  0  2  0  0  0  0  0  0  0  0  0
    6.2960   18.4308    6.3464 H   0  0  0  0  0  0  0  0  0  0  0  0
    5.0887   17.5970    5.3102 H   0  0  0  0  0  0  0  0  0  0  0  0
    5.1863   19.3907    5.3102 H   0  0  0  0  0  0  0  0  0  0  0  0
    1.5767   24.1110    7.3259 H   0  0  0  0  0  0  0  0  0  0  0  0
    0.8413   24.5247    5.7953 H   0  0  0  0  0  0  0  0  0  0  0  0
   10.1883   20.9114    8.9265 H   0  0  0  0  0  0  0  0  0  0  0  0
   11.1428   20.2833    7.5404 H   0  0  0  0  0  0  0  0  0  0  0  0
   10.5737   21.9871    7.5404 H   0  0  0  0  0  0  0  0  0  0  0  0
    9.3374   19.9518    6.2570 H   0  0  0  0  0  0  0  0  0  0  0  0
    9.9269   18.2387    6.4717 H   0  0  0  0  0  0  0  0  0  0  0  0
   10.2877   15.8697    5.8258 H   0  0  0  0  0  0  0  0  0  0  0  0
    8.8488   14.1051    6.7971 H   0  0  0  0  0  0  0  0  0  0  0  0
    7.0881   14.6834    8.4425 H   0  0  0  0  0  0  0  0  0  0  0  0
    0.0619   19.9047    7.6805 H   0  0  0  0  0  0  0  0  0  0  0  0
    4.6030   20.9798    5.8905 H   0  0  0  0  0  0  0  0  0  0  0  0
    2.3564   23.0992    4.5630 H   0  0  0  0  0  0  0  0  0  0  0  0
    3.4198   23.6835    5.8298 H   0  0  0  0  0  0  0  0  0  0  0  0
   -2.4941   23.9889    6.9812 H   0  0  0  0  0  0  0  0  0  0  0  0
   -0.9259   24.6748    6.3538 H   0  0  0  0  0  0  0  0  0  0  0  0
   -0.6759   22.7945    4.3680 H   0  0  0  0  0  0  0  0  0  0  0  0
   -2.0987   22.7681    3.2719 H   0  0  0  0  0  0  0  0  0  0  0  0
   -0.9912   24.1823    3.2719 H   0  0  0  0  0  0  0  0  0  0  0  0
   -3.9475   23.3697    5.9577 H   0  0  0  0  0  0  0  0  0  0  0  0
   -4.2761   24.2056    4.4020 H   0  0  0  0  0  0  0  0  0  0  0  0
   -3.6182   22.5341    4.4020 H   0  0  0  0  0  0  0  0  0  0  0  0
    4.8322   12.9139   11.6963 H   0  0  0  0  0  0  0  0  0  0  0  0
    2.3720   13.5267   10.8485 H   0  0  0  0  0  0  0  0  0  0  0  0
    7.7917   22.2514    7.4974 H   0  0  0  0  0  0  0  0  0  0  0  0
    8.8215   22.3609    6.0296 H   0  0  0  0  0  0  0  0  0  0  0  0
    7.3667   21.3071    6.0296 H   0  0  0  0  0  0  0  0  0  0  0  0
    6.8148   17.7519   10.1169 H   0  0  0  0  0  0  0  0  0  0  0  0
    0.9310   17.5352    7.9362 H   0  0  0  0  0  0  0  0  0  0  0  0
   -2.2804   25.0387    4.6941 H   0  0  0  0  0  0  0  0  0  0  0  0
    6.4112   14.7380   10.8331 H   0  0  0  0  0  0  0  0  0  0  0  0
  1  2  2  0
  1 17  1  0
  2 31  1  0
  2 34  1  0
  3  5  2  0
  3 18  1  0
  3 31  1  0
  4 18  2  0
  4 19  1  0
  4 32  1  0
  5 20  1  0
  5 36  1  0
  6 36  1  0
  7 21  1  0
  7 32  1  0
  8 22  1  0
  8 32  1  0
  8 37  2  0
 10  9  1  0
 10 29  1  0
 10 40  1  0
 11 12  2  0
 11 16  1  0
 40 11  1  6
 12 13  1  0
 13 14  2  0
 14 15  1  0
 15 16  2  0
 16 30  1  0
 17 26  2  0
 17 30  1  0
 19 20  2  0
 19 21  1  0
 22 33  1  0
 33 23  1  0
 24 33  1  0
 25 26  1  0
 25 28  1  0
 25 34  2  0
 26 35  1  0
 27 28  2  0
 27 35  1  0
 38 40  2  0
 39 40  2  0
  6 41  1  0
  6 42  1  0
  6 43  1  0
  7 44  1  0
  7 45  1  0
  9 46  1  0
  9 47  1  0
  9 48  1  0
 10 49  1  6
 12 50  1  0
 13 51  1  0
 14 52  1  0
 15 53  1  0
 18 54  1  0
 20 55  1  0
 21 56  1  0
 21 57  1  0
 22 58  1  0
 22 59  1  0
 23 60  1  0
 23 61  1  0
 23 62  1  0
 24 63  1  0
 24 64  1  0
 24 65  1  0
 27 66  1  0
 28 67  1  0
 29 68  1  0
 29 69  1  0
 29 70  1  0
 30 71  1  0
 31 72  1  0
 33 73  1  6
 35 74  1  0
M  CHG  1  33   1
M  END
>  <filename_input>  (10) 
7BTT_F8R_docked.sdf

>  <pdb_id>  (10) 
7BTT_F8R

>  <pose_rank>  (10) 
9

>  <num_atoms_heavy>  (10) 
40

>  <num_torsions>  (10) 
8

>  <pose>  (10) 
[4.183600833650742, 17.553779369593897, 8.644235553281817, 0.20785182986949094, -0.48654694553432914, 0.25518771455162503, -8.500841413435444, -0.5310354427526419, -1.609562485193141, -1.700626897388321, -13.890518949381248, -38.435167711490166, 17.51229786347975, 1.2855926932291426]

>  <energy>  (10) 
-1099.6282890522682

>  <inter_energy>  (10) 
-1281.611965549675

>  <intra_energy>  (10) 
194.52911529206474

>  <rmsd>  (10) 
4.60208

>  <sdf_rank>  (10) 
0

$$$$

     RDKit          3D

 74 78  0  0  0  0  0  0  0  0999 V2000
    3.9398   17.5316    8.0616 N   0  0  0  0  0  0  0  0  0  0  0  0
    2.7774   17.5198    8.7061 C   0  0  0  0  0  0  0  0  0  0  0  0
    1.7979   19.4608    7.3537 C   0  0  0  0  0  0  0  0  0  0  0  0
    3.0489   21.0946    6.1450 C   0  0  0  0  0  0  0  0  0  0  0  0
    0.6428   19.8123    6.6569 C   0  0  0  0  0  0  0  0  0  0  0  0
   -1.6094   19.9416    7.3866 C   0  0  0  0  0  0  0  0  0  0  0  0
    3.8235   22.3709    4.3479 C   0  0  0  0  0  0  0  0  0  0  0  0
    5.4019   22.1949    6.3707 C   0  0  0  0  0  0  0  0  0  0  0  0
    9.8346   21.0050    7.9492 C   0  0  0  0  0  0  0  0  0  0  0  0
    9.8754   19.4900    7.8277 C   0  0  2  0  0  0  0  0  0  0  0  0
    8.4486   17.0690    8.6256 C   0  0  0  0  0  0  0  0  0  0  0  0
    9.6283   16.6446    9.1917 C   0  0  0  0  0  0  0  0  0  0  0  0
    9.8058   15.3171    9.5215 C   0  0  0  0  0  0  0  0  0  0  0  0
    8.7949   14.4188    9.2674 C   0  0  0  0  0  0  0  0  0  0  0  0
    7.6058   14.8353    8.6985 C   0  0  0  0  0  0  0  0  0  0  0  0
    7.4326   16.1595    8.3710 C   0  0  0  0  0  0  0  0  0  0  0  0
    4.9091   16.7022    8.4287 C   0  0  0  0  0  0  0  0  0  0  0  0
    3.0017   20.0904    7.1164 C   0  0  0  0  0  0  0  0  0  0  0  0
    1.9230   21.4469    5.4322 C   0  0  0  0  0  0  0  0  0  0  0  0
    0.7027   20.8058    5.6908 C   0  0  0  0  0  0  0  0  0  0  0  0
    2.3373   22.5437    4.4581 C   0  0  0  0  0  0  0  0  0  0  0  0
    6.4353   23.0555    5.6569 C   0  0  0  0  0  0  0  0  0  0  0  0
    7.6124   21.9276    3.8940 C   0  0  0  0  0  0  0  0  0  0  0  0
    8.7919   23.1104    5.5903 C   0  0  0  0  0  0  0  0  0  0  0  0
    3.4908   15.8620   10.1552 C   0  0  0  0  0  0  0  0  0  0  0  0
    4.7005   15.8333    9.5125 C   0  0  0  0  0  0  0  0  0  0  0  0
    4.8115   14.3312   11.1088 C   0  0  0  0  0  0  0  0  0  0  0  0
    3.5594   14.9018   11.1758 C   0  0  0  0  0  0  0  0  0  0  0  0
   10.3501   18.9961    6.4655 C   0  0  0  0  0  0  0  0  0  0  0  0
    6.2077   16.6460    7.7825 N   0  0  0  0  0  0  0  0  0  0  0  0
    1.6940   18.4160    8.3408 N   0  0  0  0  0  0  0  0  0  0  0  0
    4.1846   21.9091    5.6687 N   0  0  0  0  0  0  0  0  0  0  0  0
    7.6183   22.3206    5.2819 N   0  0  1  0  0  0  0  0  0  0  0  0
    2.5451   16.7145    9.7192 N   0  0  0  0  0  0  0  0  0  0  0  0
    5.4812   14.8941   10.1122 N   0  0  0  0  0  0  0  0  0  0  0  0
   -0.5445   19.1468    6.9512 O   0  0  0  0  0  0  0  0  0  0  0  0
    5.5859   21.7750    7.4485 O   0  0  0  0  0  0  0  0  0  0  0  0
    7.3347   18.9902    7.0877 O   0  0  0  0  0  0  0  0  0  0  0  0
    7.5953   19.5707    9.2146 O   0  0  0  0  0  0  0  0  0  0  0  0
    8.2311   18.8129    8.1822 S   0  0  2  0  0  0  0  0  0  0  0  0
   -1.6298   19.9568    8.4863 H   0  0  0  0  0  0  0  0  0  0  0  0
   -1.4808   20.9664    7.0080 H   0  0  0  0  0  0  0  0  0  0  0  0
   -2.5552   19.5269    7.0080 H   0  0  0  0  0  0  0  0  0  0  0  0
    4.0810   21.6247    3.5818 H   0  0  0  0  0  0  0  0  0  0  0  0
    4.3499   23.2883    4.0455 H   0  0  0  0  0  0  0  0  0  0  0  0
    9.8270   21.2874    9.0123 H   0  0  0  0  0  0  0  0  0  0  0  0
   10.7215   21.4359    7.4616 H   0  0  0  0  0  0  0  0  0  0  0  0
    8.9259   21.3876    7.4616 H   0  0  0  0  0  0  0  0  0  0  0  0
   10.6142   19.1349    8.5612 H   0  0  0  0  0  0  0  0  0  0  0  0
   10.4347   17.3680    9.3825 H   0  0  0  0  0  0  0  0  0  0  0  0
   10.7457   14.9800    9.9828 H   0  0  0  0  0  0  0  0  0  0  0  0
    8.9346   13.3573    9.5198 H   0  0  0  0  0  0  0  0  0  0  0  0
    6.8010   14.1099    8.5086 H   0  0  0  0  0  0  0  0  0  0  0  0
    3.9042   19.8088    7.6787 H   0  0  0  0  0  0  0  0  0  0  0  0
   -0.2010   21.0891    5.1313 H   0  0  0  0  0  0  0  0  0  0  0  0
    2.0853   23.5381    4.8553 H   0  0  0  0  0  0  0  0  0  0  0  0
    1.8243   22.4712    3.4877 H   0  0  0  0  0  0  0  0  0  0  0  0
    5.9774   23.4708    4.7470 H   0  0  0  0  0  0  0  0  0  0  0  0
    6.7463   23.8449    6.3570 H   0  0  0  0  0  0  0  0  0  0  0  0
    7.5958   20.8300    3.8238 H   0  0  0  0  0  0  0  0  0  0  0  0
    6.7204   22.3401    3.3999 H   0  0  0  0  0  0  0  0  0  0  0  0
    8.5164   22.3130    3.3999 H   0  0  0  0  0  0  0  0  0  0  0  0
    8.9059   23.1871    6.6817 H   0  0  0  0  0  0  0  0  0  0  0  0
    9.6822   22.6270    5.1617 H   0  0  0  0  0  0  0  0  0  0  0  0
    8.6793   24.1172    5.1617 H   0  0  0  0  0  0  0  0  0  0  0  0
    5.1923   13.5404   11.7717 H   0  0  0  0  0  0  0  0  0  0  0  0
    2.7641   14.6519   11.8934 H   0  0  0  0  0  0  0  0  0  0  0  0
   11.1063   18.2093    6.6039 H   0  0  0  0  0  0  0  0  0  0  0  0
    9.4957   18.5889    5.9050 H   0  0  0  0  0  0  0  0  0  0  0  0
   10.7908   19.8336    5.9050 H   0  0  0  0  0  0  0  0  0  0  0  0
    6.2600   16.9856    6.8115 H   0  0  0  0  0  0  0  0  0  0  0  0
    0.7901   18.2965    8.8198 H   0  0  0  0  0  0  0  0  0  0  0  0
    7.6337   21.4473    5.8278 H   0  0  0  0  0  0  0  0  0  0  0  0
    6.4444   14.6568    9.8349 H   0  0  0  0  0  0  0  0  0  0  0  0
  1  2  2  0
  1 17  1  0
  2 31  1  0
  2 34  1  0
  3  5  2  0
  3 18  1  0
  3 31  1  0
  4 18  2  0
  4 19  1  0
  4 32  1  0
  5 20  1  0
  5 36  1  0
  6 36  1  0
  7 21  1  0
  7 32  1  0
  8 22  1  0
  8 32  1  0
  8 37  2  0
 10  9  1  0
 10 29  1  0
 10 40  1  0
 11 12  2  0
 11 16  1  0
 40 11  1  1
 12 13  1  0
 13 14  2  0
 14 15  1  0
 15 16  2  0
 16 30  1  0
 17 26  2  0
 17 30  1  0
 19 20  2  0
 19 21  1  0
 22 33  1  0
 33 23  1  0
 24 33  1  0
 25 26  1  0
 25 28  1  0
 25 34  2  0
 26 35  1  0
 27 28  2  0
 27 35  1  0
 38 40  2  0
 39 40  2  0
  6 41  1  0
  6 42  1  0
  6 43  1  0
  7 44  1  0
  7 45  1  0
  9 46  1  0
  9 47  1  0
  9 48  1  0
 10 49  1  1
 12 50  1  0
 13 51  1  0
 14 52  1  0
 15 53  1  0
 18 54  1  0
 20 55  1  0
 21 56  1  0
 21 57  1  0
 22 58  1  0
 22 59  1  0
 23 60  1  0
 23 61  1  0
 23 62  1  0
 24 63  1  0
 24 64  1  0
 24 65  1  0
 27 66  1  0
 28 67  1  0
 29 68  1  0
 29 69  1  0
 29 70  1  0
 30 71  1  0
 31 72  1  0
 33 73  1  1
 35 74  1  0
M  CHG  1  33   1
M  END
>  <filename_input>  (11) 
7BTT_F8R_docked.sdf

>  <pdb_id>  (11) 
7BTT_F8R

>  <pose_rank>  (11) 
10

>  <num_atoms_heavy>  (11) 
40

>  <num_torsions>  (11) 
8

>  <pose>  (11) 
[3.939809676701987, 17.531639611313995, 8.06155362944158, 4.9145405538898395, 0.515065501883638, -3.7999837964327314, 6.19029803322636, -0.971111771724702, 0.8663032459683334, 0.6656237743130574, -9.602557408147158, 1.3548748437668565, -1.0257322586342112, 0.25499371639918916]

>  <energy>  (11) 
-1681.8310203332496

>  <inter_energy>  (11) 
-1747.2860723295262

>  <intra_energy>  (11) 
118.97228062531937

>  <rmsd>  (11) 
2.34241

>  <sdf_rank>  (11) 
0

$$$$

     RDKit          3D

 74 78  0  0  0  0  0  0  0  0999 V2000
    1.1966   20.5338    6.7884 N   0  0  0  0  0  0  0  0  0  0  0  0
    0.8936   19.4929    7.5575 C   0  0  0  0  0  0  0  0  0  0  0  0
    3.3369   18.8328    7.9443 C   0  0  0  0  0  0  0  0  0  0  0  0
    5.2223   20.1054    7.2223 C   0  0  0  0  0  0  0  0  0  0  0  0
    4.1666   17.7553    8.2507 C   0  0  0  0  0  0  0  0  0  0  0  0
    4.1245   16.1118    9.9591 C   0  0  0  0  0  0  0  0  0  0  0  0
    7.3763   21.0101    7.2025 C   0  0  0  0  0  0  0  0  0  0  0  0
    5.5896   22.3207    5.8972 C   0  0  0  0  0  0  0  0  0  0  0  0
    0.9611   25.7450    1.3825 C   0  0  0  0  0  0  0  0  0  0  0  0
    1.1183   24.4356    2.1392 C   0  0  2  0  0  0  0  0  0  0  0  0
   -0.1420   24.6730    4.7639 C   0  0  0  0  0  0  0  0  0  0  0  0
   -0.3386   25.9987    5.0739 C   0  0  0  0  0  0  0  0  0  0  0  0
   -0.1328   26.4521    6.3602 C   0  0  0  0  0  0  0  0  0  0  0  0
    0.2829   25.5670    7.3282 C   0  0  0  0  0  0  0  0  0  0  0  0
    0.4837   24.2328    7.0266 C   0  0  0  0  0  0  0  0  0  0  0  0
    0.2777   23.7846    5.7431 C   0  0  0  0  0  0  0  0  0  0  0  0
    0.2276   21.2497    6.2308 C   0  0  0  0  0  0  0  0  0  0  0  0
    3.8430   20.0071    7.4277 C   0  0  0  0  0  0  0  0  0  0  0  0
    6.0633   19.0588    7.5336 C   0  0  0  0  0  0  0  0  0  0  0  0
    5.5344   17.8662    8.0486 C   0  0  0  0  0  0  0  0  0  0  0  0
    7.4809   19.5135    7.2063 C   0  0  0  0  0  0  0  0  0  0  0  0
    6.6219   23.3713    5.5116 C   0  0  0  0  0  0  0  0  0  0  0  0
    7.1987   22.7947    3.2532 C   0  0  0  0  0  0  0  0  0  0  0  0
    8.8313   23.6758    4.7452 C   0  0  0  0  0  0  0  0  0  0  0  0
   -1.3783   19.7971    7.2354 C   0  0  0  0  0  0  0  0  0  0  0  0
   -1.1116   20.8836    6.4444 C   0  0  0  0  0  0  0  0  0  0  0  0
   -3.2964   20.6857    6.5088 C   0  0  0  0  0  0  0  0  0  0  0  0
   -2.7747   19.6693    7.2786 C   0  0  0  0  0  0  0  0  0  0  0  0
    1.4543   23.2468    1.2456 C   0  0  0  0  0  0  0  0  0  0  0  0
    0.4658   22.4006    5.3789 N   0  0  0  0  0  0  0  0  0  0  0  0
    1.9236   18.6794    8.1799 N   0  0  0  0  0  0  0  0  0  0  0  0
    6.0339   21.2297    6.7149 N   0  0  0  0  0  0  0  0  0  0  0  0
    7.6394   22.8625    4.6250 N   0  0  1  0  0  0  0  0  0  0  0  0
   -0.3487   19.1270    7.7852 N   0  0  0  0  0  0  0  0  0  0  0  0
   -2.2947   21.4032    6.0185 N   0  0  0  0  0  0  0  0  0  0  0  0
    3.5928   16.5925    8.7586 O   0  0  0  0  0  0  0  0  0  0  0  0
    4.4739   22.3937    5.5482 O   0  0  0  0  0  0  0  0  0  0  0  0
   -0.7565   22.7106    3.0122 O   0  0  0  0  0  0  0  0  0  0  0  0
   -1.5209   24.7130    2.4335 O   0  0  0  0  0  0  0  0  0  0  0  0
   -0.4007   24.0902    3.0673 S   0  0  2  0  0  0  0  0  0  0  0  0
    3.6035   16.5828   10.8056 H   0  0  0  0  0  0  0  0  0  0  0  0
    3.9919   15.0209   10.0081 H   0  0  0  0  0  0  0  0  0  0  0  0
    5.1966   16.3534   10.0081 H   0  0  0  0  0  0  0  0  0  0  0  0
    7.5030   21.4198    8.2155 H   0  0  0  0  0  0  0  0  0  0  0  0
    8.1494   21.5017    6.5937 H   0  0  0  0  0  0  0  0  0  0  0  0
    0.8616   26.5732    2.0995 H   0  0  0  0  0  0  0  0  0  0  0  0
    1.8457   25.9116    0.7503 H   0  0  0  0  0  0  0  0  0  0  0  0
    0.0622   25.6974    0.7503 H   0  0  0  0  0  0  0  0  0  0  0  0
    1.9740   24.5651    2.8182 H   0  0  0  0  0  0  0  0  0  0  0  0
   -0.6619   26.7012    4.2916 H   0  0  0  0  0  0  0  0  0  0  0  0
   -0.2994   27.5104    6.6097 H   0  0  0  0  0  0  0  0  0  0  0  0
    0.4576   25.9250    8.3535 H   0  0  0  0  0  0  0  0  0  0  0  0
    0.8071   23.5324    7.8107 H   0  0  0  0  0  0  0  0  0  0  0  0
    3.1765   20.8473    7.1829 H   0  0  0  0  0  0  0  0  0  0  0  0
    6.1998   17.0245    8.2905 H   0  0  0  0  0  0  0  0  0  0  0  0
    7.7965   19.1388    6.2214 H   0  0  0  0  0  0  0  0  0  0  0  0
    8.2273   19.1379    7.9217 H   0  0  0  0  0  0  0  0  0  0  0  0
    6.1051   24.2035    5.0112 H   0  0  0  0  0  0  0  0  0  0  0  0
    7.1227   23.6953    6.4358 H   0  0  0  0  0  0  0  0  0  0  0  0
    6.1118   22.6276    3.2251 H   0  0  0  0  0  0  0  0  0  0  0  0
    7.4375   23.7402    2.7441 H   0  0  0  0  0  0  0  0  0  0  0  0
    7.7106   21.9647    2.7441 H   0  0  0  0  0  0  0  0  0  0  0  0
    9.0619   23.8332    5.8092 H   0  0  0  0  0  0  0  0  0  0  0  0
    9.6749   23.1641    4.2589 H   0  0  0  0  0  0  0  0  0  0  0  0
    8.6624   24.6479    4.2589 H   0  0  0  0  0  0  0  0  0  0  0  0
   -4.3659   20.8712    6.3305 H   0  0  0  0  0  0  0  0  0  0  0  0
   -3.3449   18.9027    7.8238 H   0  0  0  0  0  0  0  0  0  0  0  0
    1.7004   22.3760    1.8710 H   0  0  0  0  0  0  0  0  0  0  0  0
    0.5882   23.0091    0.6105 H   0  0  0  0  0  0  0  0  0  0  0  0
    2.3167   23.4976    0.6105 H   0  0  0  0  0  0  0  0  0  0  0  0
    0.8011   22.2116    4.4235 H   0  0  0  0  0  0  0  0  0  0  0  0
    1.6233   17.9429    8.8343 H   0  0  0  0  0  0  0  0  0  0  0  0
    7.8491   21.8945    4.9076 H   0  0  0  0  0  0  0  0  0  0  0  0
   -2.3967   22.2273    5.4091 H   0  0  0  0  0  0  0  0  0  0  0  0
  1  2  2  0
  1 17  1  0
  2 31  1  0
  2 34  1  0
  3  5  2  0
  3 18  1  0
  3 31  1  0
  4 18  2  0
  4 19  1  0
  4 32  1  0
  5 20  1  0
  5 36  1  0
  6 36  1  0
  7 21  1  0
  7 32  1  0
  8 22  1  0
  8 32  1  0
  8 37  2  0
 10  9  1  0
 10 29  1  0
 10 40  1  0
 11 12  2  0
 11 16  1  0
 40 11  1  1
 12 13  1  0
 13 14  2  0
 14 15  1  0
 15 16  2  0
 16 30  1  0
 17 26  2  0
 17 30  1  0
 19 20  2  0
 19 21  1  0
 22 33  1  0
 33 23  1  0
 24 33  1  0
 25 26  1  0
 25 28  1  0
 25 34  2  0
 26 35  1  0
 27 28  2  0
 27 35  1  0
 38 40  2  0
 39 40  2  0
  6 41  1  0
  6 42  1  0
  6 43  1  0
  7 44  1  0
  7 45  1  0
  9 46  1  0
  9 47  1  0
  9 48  1  0
 10 49  1  1
 12 50  1  0
 13 51  1  0
 14 52  1  0
 15 53  1  0
 18 54  1  0
 20 55  1  0
 21 56  1  0
 21 57  1  0
 22 58  1  0
 22 59  1  0
 23 60  1  0
 23 61  1  0
 23 62  1  0
 24 63  1  0
 24 64  1  0
 24 65  1  0
 27 66  1  0
 28 67  1  0
 29 68  1  0
 29 69  1  0
 29 70  1  0
 30 71  1  0
 31 72  1  0
 33 73  1  1
 35 74  1  0
M  CHG  1  33   1
M  END
>  <filename_input>  (12) 
7BTT_F8R_docked.sdf

>  <pdb_id>  (12) 
7BTT_F8R

>  <pose_rank>  (12) 
11

>  <num_atoms_heavy>  (12) 
40

>  <num_torsions>  (12) 
8

>  <pose>  (12) 
[1.1966218343214758, 20.53379748632797, 6.788361546104457, -2.2258961292307125, -1.6151943592938827, 1.9104538442575736, 0.7695021263705718, 0.9909292826138076, -2.3118818315009624, 0.3188833437629536, -1.6066727195553043, 0.7556577163002633, -0.05785924339455347, 1.3516006424086435]

>  <energy>  (12) 
-636.5702501754658

>  <inter_energy>  (12) 
-664.9882176451823

>  <intra_energy>  (12) 
54.90398141905073

>  <rmsd>  (12) 
8.01104

>  <sdf_rank>  (12) 
0

$$$$

     RDKit          3D

 74 78  0  0  0  0  0  0  0  0999 V2000
    6.7797   20.2503    5.0360 N   0  0  0  0  0  0  0  0  0  0  0  0
    5.8963   21.2179    4.8118 C   0  0  0  0  0  0  0  0  0  0  0  0
    4.0883   20.1607    6.2845 C   0  0  0  0  0  0  0  0  0  0  0  0
    4.3939   18.1881    7.5924 C   0  0  0  0  0  0  0  0  0  0  0  0
    2.7200   20.1392    6.5502 C   0  0  0  0  0  0  0  0  0  0  0  0
    0.7688   21.4750    6.7237 C   0  0  0  0  0  0  0  0  0  0  0  0
    4.1715   16.6753    9.3590 C   0  0  0  0  0  0  0  0  0  0  0  0
    6.3082   16.4534    7.9452 C   0  0  0  0  0  0  0  0  0  0  0  0
    9.9585   19.2483    9.1668 C   0  0  0  0  0  0  0  0  0  0  0  0
   10.9376   19.5172    8.0351 C   0  0  2  0  0  0  0  0  0  0  0  0
   11.3174   18.9348    5.1978 C   0  0  0  0  0  0  0  0  0  0  0  0
   12.6607   19.0380    4.9202 C   0  0  0  0  0  0  0  0  0  0  0  0
   13.0864   19.5866    3.7284 C   0  0  0  0  0  0  0  0  0  0  0  0
   12.1538   20.0408    2.8245 C   0  0  0  0  0  0  0  0  0  0  0  0
   10.8015   19.9418    3.0943 C   0  0  0  0  0  0  0  0  0  0  0  0
   10.3809   19.3946    4.2835 C   0  0  0  0  0  0  0  0  0  0  0  0
    7.9575   20.2741    4.4241 C   0  0  0  0  0  0  0  0  0  0  0  0
    4.9351   19.1966    6.7898 C   0  0  0  0  0  0  0  0  0  0  0  0
    3.0467   18.1566    7.8818 C   0  0  0  0  0  0  0  0  0  0  0  0
    2.1949   19.1373    7.3529 C   0  0  0  0  0  0  0  0  0  0  0  0
    2.8129   16.9515    8.7855 C   0  0  0  0  0  0  0  0  0  0  0  0
    6.7838   15.3013    8.8196 C   0  0  0  0  0  0  0  0  0  0  0  0
    7.5223   17.1711   10.1327 C   0  0  0  0  0  0  0  0  0  0  0  0
    7.0654   15.0674   11.1492 C   0  0  0  0  0  0  0  0  0  0  0  0
    7.3047   22.2859    3.3175 C   0  0  0  0  0  0  0  0  0  0  0  0
    8.2486   21.3151    3.5270 C   0  0  0  0  0  0  0  0  0  0  0  0
    9.1162   22.7209    2.0821 C   0  0  0  0  0  0  0  0  0  0  0  0
    7.8578   23.1862    2.3946 C   0  0  0  0  0  0  0  0  0  0  0  0
   10.7692   20.8887    7.3907 C   0  0  0  0  0  0  0  0  0  0  0  0
    8.9810   19.2616    4.6094 N   0  0  0  0  0  0  0  0  0  0  0  0
    4.5940   21.2253    5.4553 N   0  0  0  0  0  0  0  0  0  0  0  0
    5.0519   17.0586    8.2792 N   0  0  0  0  0  0  0  0  0  0  0  0
    7.5489   15.7391    9.9612 N   0  0  1  0  0  0  0  0  0  0  0  0
    6.1385   22.2112    3.9850 N   0  0  0  0  0  0  0  0  0  0  0  0
    9.3376   21.6058    2.7649 N   0  0  0  0  0  0  0  0  0  0  0  0
    1.9162   21.1348    6.0006 O   0  0  0  0  0  0  0  0  0  0  0  0
    6.9378   16.8397    7.0362 O   0  0  0  0  0  0  0  0  0  0  0  0
    9.4390   17.7153    6.7083 O   0  0  0  0  0  0  0  0  0  0  0  0
   11.5160   17.0662    7.1479 O   0  0  0  0  0  0  0  0  0  0  0  0
   10.7686   18.2261    6.7731 S   0  0  2  0  0  0  0  0  0  0  0  0
    0.9821   21.4117    7.8010 H   0  0  0  0  0  0  0  0  0  0  0  0
    0.4661   22.5015    6.4696 H   0  0  0  0  0  0  0  0  0  0  0  0
   -0.0445   20.7793    6.4696 H   0  0  0  0  0  0  0  0  0  0  0  0
    4.3551   17.2842   10.2565 H   0  0  0  0  0  0  0  0  0  0  0  0
    4.3058   15.6333    9.6848 H   0  0  0  0  0  0  0  0  0  0  0  0
   10.4667   19.3879   10.1323 H   0  0  0  0  0  0  0  0  0  0  0  0
    9.1123   19.9474    9.0934 H   0  0  0  0  0  0  0  0  0  0  0  0
    9.5880   18.2152    9.0934 H   0  0  0  0  0  0  0  0  0  0  0  0
   11.9438   19.5045    8.4794 H   0  0  0  0  0  0  0  0  0  0  0  0
   13.3996   18.6811    5.6527 H   0  0  0  0  0  0  0  0  0  0  0  0
   14.1606   19.6602    3.5029 H   0  0  0  0  0  0  0  0  0  0  0  0
   12.4879   20.4877    1.8765 H   0  0  0  0  0  0  0  0  0  0  0  0
   10.0646   20.2996    2.3601 H   0  0  0  0  0  0  0  0  0  0  0  0
    6.0119   19.2207    6.5663 H   0  0  0  0  0  0  0  0  0  0  0  0
    1.1175   19.1120    7.5732 H   0  0  0  0  0  0  0  0  0  0  0  0
    2.4482   16.0905    8.2062 H   0  0  0  0  0  0  0  0  0  0  0  0
    2.0513   17.1361    9.5574 H   0  0  0  0  0  0  0  0  0  0  0  0
    5.9040   14.7474    9.1788 H   0  0  0  0  0  0  0  0  0  0  0  0
    7.4426   14.6711    8.2040 H   0  0  0  0  0  0  0  0  0  0  0  0
    7.5179   17.4119   11.2060 H   0  0  0  0  0  0  0  0  0  0  0  0
    8.4124   17.6134    9.6614 H   0  0  0  0  0  0  0  0  0  0  0  0
    6.6164   17.5800    9.6614 H   0  0  0  0  0  0  0  0  0  0  0  0
    7.4401   15.5879   12.0429 H   0  0  0  0  0  0  0  0  0  0  0  0
    5.9655   15.0767   11.1537 H   0  0  0  0  0  0  0  0  0  0  0  0
    7.4233   14.0273   11.1537 H   0  0  0  0  0  0  0  0  0  0  0  0
    9.8203   23.1953    1.3827 H   0  0  0  0  0  0  0  0  0  0  0  0
    7.3776   24.0920    1.9959 H   0  0  0  0  0  0  0  0  0  0  0  0
   10.6753   21.6536    8.1756 H   0  0  0  0  0  0  0  0  0  0  0  0
   11.6469   21.1105    6.7658 H   0  0  0  0  0  0  0  0  0  0  0  0
    9.8640   20.8916    6.7658 H   0  0  0  0  0  0  0  0  0  0  0  0
    8.6797   18.3626    5.0118 H   0  0  0  0  0  0  0  0  0  0  0  0
    3.9909   22.0473    5.3088 H   0  0  0  0  0  0  0  0  0  0  0  0
    8.5340   15.4877    9.7963 H   0  0  0  0  0  0  0  0  0  0  0  0
   10.2012   21.0459    2.7246 H   0  0  0  0  0  0  0  0  0  0  0  0
  1  2  2  0
  1 17  1  0
  2 31  1  0
  2 34  1  0
  3  5  2  0
  3 18  1  0
  3 31  1  0
  4 18  2  0
  4 19  1  0
  4 32  1  0
  5 20  1  0
  5 36  1  0
  6 36  1  0
  7 21  1  0
  7 32  1  0
  8 22  1  0
  8 32  1  0
  8 37  2  0
 10  9  1  0
 10 29  1  0
 10 40  1  0
 11 12  2  0
 11 16  1  0
 40 11  1  6
 12 13  1  0
 13 14  2  0
 14 15  1  0
 15 16  2  0
 16 30  1  0
 17 26  2  0
 17 30  1  0
 19 20  2  0
 19 21  1  0
 22 33  1  0
 33 23  1  0
 24 33  1  0
 25 26  1  0
 25 28  1  0
 25 34  2  0
 26 35  1  0
 27 28  2  0
 27 35  1  0
 38 40  2  0
 39 40  2  0
  6 41  1  0
  6 42  1  0
  6 43  1  0
  7 44  1  0
  7 45  1  0
  9 46  1  0
  9 47  1  0
  9 48  1  0
 10 49  1  1
 12 50  1  0
 13 51  1  0
 14 52  1  0
 15 53  1  0
 18 54  1  0
 20 55  1  0
 21 56  1  0
 21 57  1  0
 22 58  1  0
 22 59  1  0
 23 60  1  0
 23 61  1  0
 23 62  1  0
 24 63  1  0
 24 64  1  0
 24 65  1  0
 27 66  1  0
 28 67  1  0
 29 68  1  0
 29 69  1  0
 29 70  1  0
 30 71  1  0
 31 72  1  0
 33 73  1  6
 35 74  1  0
M  CHG  1  33   1
M  END
>  <filename_input>  (13) 
7BTT_F8R_docked.sdf

>  <pdb_id>  (13) 
7BTT_F8R

>  <pose_rank>  (13) 
12

>  <num_atoms_heavy>  (13) 
40

>  <num_torsions>  (13) 
8

>  <pose>  (13) 
[6.779685746551262, 20.250339971625134, 5.0359985004637515, 2.98261050733221, -1.302655423845389, -0.5015465604357637, 0.7020429843900075, 0.564544083145472, 1.2595011579851434, -0.9212572921877242, -2.5940927784636125, -0.5981249481857347, -0.125849544059011, -0.5492464021552581]

>  <energy>  (13) 
-403.58259599585904

>  <inter_energy>  (13) 
-589.5393748906306

>  <intra_energy>  (13) 
214.03278414558875

>  <rmsd>  (13) 
6.34747

>  <sdf_rank>  (13) 
0

$$$$

     RDKit          3D

 74 78  0  0  0  0  0  0  0  0999 V2000
    6.6161   18.7916    7.1664 N   0  0  0  0  0  0  0  0  0  0  0  0
    5.7486   18.2629    8.0235 C   0  0  0  0  0  0  0  0  0  0  0  0
    3.7584   19.5923    7.1137 C   0  0  0  0  0  0  0  0  0  0  0  0
    3.8982   21.1348    5.2981 C   0  0  0  0  0  0  0  0  0  0  0  0
    2.4259   19.9433    7.3250 C   0  0  0  0  0  0  0  0  0  0  0  0
    1.3448   17.9973    8.1408 C   0  0  0  0  0  0  0  0  0  0  0  0
    3.2961   22.3068    3.3688 C   0  0  0  0  0  0  0  0  0  0  0  0
    5.8149   22.1794    3.8721 C   0  0  0  0  0  0  0  0  0  0  0  0
   12.3069   17.9882    5.3470 C   0  0  0  0  0  0  0  0  0  0  0  0
   12.1748   18.7062    4.0134 C   0  0  2  0  0  0  0  0  0  0  0  0
   10.5713   20.5943    5.5618 C   0  0  0  0  0  0  0  0  0  0  0  0
   11.3620   21.7051    5.7439 C   0  0  0  0  0  0  0  0  0  0  0  0
   11.3217   22.4025    6.9333 C   0  0  0  0  0  0  0  0  0  0  0  0
   10.4909   21.9688    7.9408 C   0  0  0  0  0  0  0  0  0  0  0  0
    9.6927   20.8535    7.7676 C   0  0  0  0  0  0  0  0  0  0  0  0
    9.7357   20.1607    6.5807 C   0  0  0  0  0  0  0  0  0  0  0  0
    7.9014   18.4678    7.2406 C   0  0  0  0  0  0  0  0  0  0  0  0
    4.5074   20.1773    6.1144 C   0  0  0  0  0  0  0  0  0  0  0  0
    2.5774   21.4852    5.4782 C   0  0  0  0  0  0  0  0  0  0  0  0
    1.8300   20.8901    6.5050 C   0  0  0  0  0  0  0  0  0  0  0  0
    2.2431   22.5250    4.4150 C   0  0  0  0  0  0  0  0  0  0  0  0
    6.1211   22.9782    2.6126 C   0  0  0  0  0  0  0  0  0  0  0  0
    7.2502   22.1054    0.6816 C   0  0  0  0  0  0  0  0  0  0  0  0
    8.2597   23.7854    2.0329 C   0  0  0  0  0  0  0  0  0  0  0  0
    7.4071   17.0699    9.1113 C   0  0  0  0  0  0  0  0  0  0  0  0
    8.3337   17.5829    8.2422 C   0  0  0  0  0  0  0  0  0  0  0  0
    9.4314   16.2635    9.6101 C   0  0  0  0  0  0  0  0  0  0  0  0
    8.1067   16.2255    9.9863 C   0  0  0  0  0  0  0  0  0  0  0  0
   13.3569   19.6111    3.6838 C   0  0  0  0  0  0  0  0  0  0  0  0
    8.9169   18.9952    6.3474 N   0  0  0  0  0  0  0  0  0  0  0  0
    4.3353   18.5965    7.9810 N   0  0  0  0  0  0  0  0  0  0  0  0
    4.4377   21.8955    4.1533 N   0  0  0  0  0  0  0  0  0  0  0  0
    7.3882   22.6294    2.0184 N   0  0  1  0  0  0  0  0  0  0  0  0
    6.1170   17.4255    8.9679 N   0  0  0  0  0  0  0  0  0  0  0  0
    9.5531   17.0750    8.5683 N   0  0  0  0  0  0  0  0  0  0  0  0
    1.7270   19.3246    8.3584 O   0  0  0  0  0  0  0  0  0  0  0  0
    6.6633   21.8039    4.5870 O   0  0  0  0  0  0  0  0  0  0  0  0
    9.4946   18.8557    3.7968 O   0  0  0  0  0  0  0  0  0  0  0  0
   10.6067   20.5304    2.8547 O   0  0  0  0  0  0  0  0  0  0  0  0
   10.6428   19.6761    4.0007 S   0  0  2  0  0  0  0  0  0  0  0  0
    1.1999   17.4942    9.1083 H   0  0  0  0  0  0  0  0  0  0  0  0
    0.4038   17.9753    7.5716 H   0  0  0  0  0  0  0  0  0  0  0  0
    2.1299   17.4782    7.5716 H   0  0  0  0  0  0  0  0  0  0  0  0
    2.9960   21.5199    2.6611 H   0  0  0  0  0  0  0  0  0  0  0  0
    3.4878   23.1948    2.7485 H   0  0  0  0  0  0  0  0  0  0  0  0
   12.1742   18.7097    6.1666 H   0  0  0  0  0  0  0  0  0  0  0  0
   11.5377   17.2052    5.4197 H   0  0  0  0  0  0  0  0  0  0  0  0
   13.3043   17.5301    5.4197 H   0  0  0  0  0  0  0  0  0  0  0  0
   12.1543   17.9272    3.2369 H   0  0  0  0  0  0  0  0  0  0  0  0
   12.0303   22.0391    4.9365 H   0  0  0  0  0  0  0  0  0  0  0  0
   11.9472   23.2961    7.0749 H   0  0  0  0  0  0  0  0  0  0  0  0
   10.4617   22.5157    8.8947 H   0  0  0  0  0  0  0  0  0  0  0  0
    9.0253   20.5214    8.5766 H   0  0  0  0  0  0  0  0  0  0  0  0
    5.5603   19.8969    5.9631 H   0  0  0  0  0  0  0  0  0  0  0  0
    0.7780   21.1724    6.6590 H   0  0  0  0  0  0  0  0  0  0  0  0
    2.3038   23.5429    4.8276 H   0  0  0  0  0  0  0  0  0  0  0  0
    1.2208   22.4227    4.0220 H   0  0  0  0  0  0  0  0  0  0  0  0
    5.3254   22.7910    1.8766 H   0  0  0  0  0  0  0  0  0  0  0  0
    6.1733   24.0387    2.9001 H   0  0  0  0  0  0  0  0  0  0  0  0
    6.9703   21.0428    0.7313 H   0  0  0  0  0  0  0  0  0  0  0  0
    6.4690   22.6658    0.1470 H   0  0  0  0  0  0  0  0  0  0  0  0
    8.2060   22.2082    0.1470 H   0  0  0  0  0  0  0  0  0  0  0  0
    8.4742   24.0699    3.0736 H   0  0  0  0  0  0  0  0  0  0  0  0
    9.2007   23.5417    1.5181 H   0  0  0  0  0  0  0  0  0  0  0  0
    7.7663   24.6230    1.5181 H   0  0  0  0  0  0  0  0  0  0  0  0
   10.2516   15.7125   10.0933 H   0  0  0  0  0  0  0  0  0  0  0  0
    7.6786   15.6433   10.8157 H   0  0  0  0  0  0  0  0  0  0  0  0
   13.8191   19.9650    4.6171 H   0  0  0  0  0  0  0  0  0  0  0  0
   14.0981   19.0474    3.0982 H   0  0  0  0  0  0  0  0  0  0  0  0
   13.0062   20.4737    3.0982 H   0  0  0  0  0  0  0  0  0  0  0  0
    9.0674   18.4895    5.4628 H   0  0  0  0  0  0  0  0  0  0  0  0
    3.7026   18.0866    8.6138 H   0  0  0  0  0  0  0  0  0  0  0  0
    7.8036   21.8737    2.5817 H   0  0  0  0  0  0  0  0  0  0  0  0
   10.4352   17.2881    8.0810 H   0  0  0  0  0  0  0  0  0  0  0  0
  1  2  2  0
  1 17  1  0
  2 31  1  0
  2 34  1  0
  3  5  2  0
  3 18  1  0
  3 31  1  0
  4 18  2  0
  4 19  1  0
  4 32  1  0
  5 20  1  0
  5 36  1  0
  6 36  1  0
  7 21  1  0
  7 32  1  0
  8 22  1  0
  8 32  1  0
  8 37  2  0
 10  9  1  0
 10 29  1  0
 10 40  1  0
 11 12  2  0
 11 16  1  0
 40 11  1  1
 12 13  1  0
 13 14  2  0
 14 15  1  0
 15 16  2  0
 16 30  1  0
 17 26  2  0
 17 30  1  0
 19 20  2  0
 19 21  1  0
 22 33  1  0
 33 23  1  0
 24 33  1  0
 25 26  1  0
 25 28  1  0
 25 34  2  0
 26 35  1  0
 27 28  2  0
 27 35  1  0
 38 40  2  0
 39 40  2  0
  6 41  1  0
  6 42  1  0
  6 43  1  0
  7 44  1  0
  7 45  1  0
  9 46  1  0
  9 47  1  0
  9 48  1  0
 10 49  1  6
 12 50  1  0
 13 51  1  0
 14 52  1  0
 15 53  1  0
 18 54  1  0
 20 55  1  0
 21 56  1  0
 21 57  1  0
 22 58  1  0
 22 59  1  0
 23 60  1  0
 23 61  1  0
 23 62  1  0
 24 63  1  0
 24 64  1  0
 24 65  1  0
 27 66  1  0
 28 67  1  0
 29 68  1  0
 29 69  1  0
 29 70  1  0
 30 71  1  0
 31 72  1  0
 33 73  1  1
 35 74  1  0
M  CHG  1  33   1
M  END
>  <filename_input>  (14) 
7BTT_F8R_docked.sdf

>  <pdb_id>  (14) 
7BTT_F8R

>  <pose_rank>  (14) 
13

>  <num_atoms_heavy>  (14) 
40

>  <num_torsions>  (14) 
8

>  <pose>  (14) 
[6.616138136891644, 18.791579726086898, 7.166362989117935, -0.3205682593027743, -2.264252615066016, -5.2802327140392435, -30.83109205436518, 8.187707468557328, -12.361129484299504, 0.9943196465637517, 8.13811947793892, -31.142405641312006, 6.094524328414868, -2.420774703011594]

>  <energy>  (14) 
-614.3762804479518

>  <inter_energy>  (14) 
-669.4776245863993

>  <intra_energy>  (14) 
68.63636576134132

>  <rmsd>  (14) 
4.08229

>  <sdf_rank>  (14) 
0

$$$$

     RDKit          3D

 74 78  0  0  0  0  0  0  0  0999 V2000
    2.3234   20.3099    6.3764 N   0  0  0  0  0  0  0  0  0  0  0  0
    1.7923   19.3982    7.1848 C   0  0  0  0  0  0  0  0  0  0  0  0
    4.0564   18.4165    7.8672 C   0  0  0  0  0  0  0  0  0  0  0  0
    6.1884   19.3758    7.3881 C   0  0  0  0  0  0  0  0  0  0  0  0
    4.6612   17.2014    8.1851 C   0  0  0  0  0  0  0  0  0  0  0  0
    4.3112   15.3747    9.6555 C   0  0  0  0  0  0  0  0  0  0  0  0
    8.4546   19.8986    7.6105 C   0  0  0  0  0  0  0  0  0  0  0  0
    7.0464   21.5472    6.2274 C   0  0  0  0  0  0  0  0  0  0  0  0
    1.3123   27.5123    3.7403 C   0  0  0  0  0  0  0  0  0  0  0  0
    0.2495   26.4815    4.0859 C   0  0  2  0  0  0  0  0  0  0  0  0
    0.9894   23.7683    3.2952 C   0  0  0  0  0  0  0  0  0  0  0  0
    0.4522   24.1367    2.0836 C   0  0  0  0  0  0  0  0  0  0  0  0
    0.3914   23.2325    1.0438 C   0  0  0  0  0  0  0  0  0  0  0  0
    0.8629   21.9540    1.2343 C   0  0  0  0  0  0  0  0  0  0  0  0
    1.4043   21.5739    2.4482 C   0  0  0  0  0  0  0  0  0  0  0  0
    1.4630   22.4780    3.4825 C   0  0  0  0  0  0  0  0  0  0  0  0
    1.5334   21.1107    5.6715 C   0  0  0  0  0  0  0  0  0  0  0  0
    4.7987   19.5068    7.4644 C   0  0  0  0  0  0  0  0  0  0  0  0
    6.8091   18.1890    7.7136 C   0  0  0  0  0  0  0  0  0  0  0  0
    6.0414   17.0848    8.1117 C   0  0  0  0  0  0  0  0  0  0  0  0
    8.3076   18.4072    7.5395 C   0  0  0  0  0  0  0  0  0  0  0  0
    8.2718   22.4203    5.9946 C   0  0  0  0  0  0  0  0  0  0  0  0
    8.4735   23.0788    3.6943 C   0  0  0  0  0  0  0  0  0  0  0  0
   10.3468   22.2264    4.8910 C   0  0  0  0  0  0  0  0  0  0  0  0
   -0.3650   20.0094    6.6103 C   0  0  0  0  0  0  0  0  0  0  0  0
    0.1396   20.9695    5.7731 C   0  0  0  0  0  0  0  0  0  0  0  0
   -2.0460   21.1074    5.6277 C   0  0  0  0  0  0  0  0  0  0  0  0
   -1.7622   20.0964    6.5194 C   0  0  0  0  0  0  0  0  0  0  0  0
   -0.7517   26.9592    5.1319 C   0  0  0  0  0  0  0  0  0  0  0  0
    2.0256   22.1332    4.7663 N   0  0  0  0  0  0  0  0  0  0  0  0
    2.6211   18.4979    7.9675 N   0  0  0  0  0  0  0  0  0  0  0  0
    7.2213   20.3642    7.0187 N   0  0  0  0  0  0  0  0  0  0  0  0
    8.9096   22.1693    4.7256 N   0  0  1  0  0  0  0  0  0  0  0  0
    0.4925   19.2439    7.3103 N   0  0  0  0  0  0  0  0  0  0  0  0
   -0.9038   21.6208    5.1913 N   0  0  0  0  0  0  0  0  0  0  0  0
    3.8552   16.1345    8.5739 O   0  0  0  0  0  0  0  0  0  0  0  0
    5.9977   21.8241    5.7854 O   0  0  0  0  0  0  0  0  0  0  0  0
    0.4489   24.4570    5.8507 O   0  0  0  0  0  0  0  0  0  0  0  0
    2.3852   25.2353    5.0934 O   0  0  0  0  0  0  0  0  0  0  0  0
    1.0509   24.9595    4.6599 S   0  0  2  0  0  0  0  0  0  0  0  0
    4.0180   15.8633   10.5964 H   0  0  0  0  0  0  0  0  0  0  0  0
    3.8672   14.3693    9.6105 H   0  0  0  0  0  0  0  0  0  0  0  0
    5.4073   15.2938    9.6105 H   0  0  0  0  0  0  0  0  0  0  0  0
    8.5490   20.2394    8.6521 H   0  0  0  0  0  0  0  0  0  0  0  0
    9.3542   20.2748    7.1013 H   0  0  0  0  0  0  0  0  0  0  0  0
    1.7379   27.9250    4.6669 H   0  0  0  0  0  0  0  0  0  0  0  0
    2.1093   27.0341    3.1520 H   0  0  0  0  0  0  0  0  0  0  0  0
    0.8587   28.3235    3.1520 H   0  0  0  0  0  0  0  0  0  0  0  0
   -0.3254   26.3011    3.1656 H   0  0  0  0  0  0  0  0  0  0  0  0
    0.0689   25.1581    1.9432 H   0  0  0  0  0  0  0  0  0  0  0  0
   -0.0297   23.5305    0.0722 H   0  0  0  0  0  0  0  0  0  0  0  0
    0.8084   21.2261    0.4114 H   0  0  0  0  0  0  0  0  0  0  0  0
    1.7868   20.5518    2.5861 H   0  0  0  0  0  0  0  0  0  0  0  0
    4.3084   20.4578    7.2090 H   0  0  0  0  0  0  0  0  0  0  0  0
    6.5307   16.1325    8.3641 H   0  0  0  0  0  0  0  0  0  0  0  0
    8.6504   18.0242    6.5670 H   0  0  0  0  0  0  0  0  0  0  0  0
    8.9081   17.8809    8.2961 H   0  0  0  0  0  0  0  0  0  0  0  0
    7.9621   23.4753    6.0288 H   0  0  0  0  0  0  0  0  0  0  0  0
    9.0010   22.1808    6.7825 H   0  0  0  0  0  0  0  0  0  0  0  0
    8.0421   23.9785    4.1574 H   0  0  0  0  0  0  0  0  0  0  0  0
    9.3328   23.3640    3.0696 H   0  0  0  0  0  0  0  0  0  0  0  0
    7.7131   22.5874    3.0696 H   0  0  0  0  0  0  0  0  0  0  0  0
   10.5923   22.2362    5.9632 H   0  0  0  0  0  0  0  0  0  0  0  0
   10.8056   21.3458    4.4178 H   0  0  0  0  0  0  0  0  0  0  0  0
   10.7343   23.1407    4.4178 H   0  0  0  0  0  0  0  0  0  0  0  0
   -3.0524   21.4345    5.3277 H   0  0  0  0  0  0  0  0  0  0  0  0
   -2.4928   19.4750    7.0581 H   0  0  0  0  0  0  0  0  0  0  0  0
   -0.3504   26.7677    6.1380 H   0  0  0  0  0  0  0  0  0  0  0  0
   -0.9268   28.0379    5.0061 H   0  0  0  0  0  0  0  0  0  0  0  0
   -1.7003   26.4166    5.0061 H   0  0  0  0  0  0  0  0  0  0  0  0
    2.8553   22.6631    5.0689 H   0  0  0  0  0  0  0  0  0  0  0  0
    2.1510   17.8753    8.6400 H   0  0  0  0  0  0  0  0  0  0  0  0
    8.6326   21.2275    4.4139 H   0  0  0  0  0  0  0  0  0  0  0  0
   -0.8195   22.3937    4.5157 H   0  0  0  0  0  0  0  0  0  0  0  0
  1  2  2  0
  1 17  1  0
  2 31  1  0
  2 34  1  0
  3  5  2  0
  3 18  1  0
  3 31  1  0
  4 18  2  0
  4 19  1  0
  4 32  1  0
  5 20  1  0
  5 36  1  0
  6 36  1  0
  7 21  1  0
  7 32  1  0
  8 22  1  0
  8 32  1  0
  8 37  2  0
 10  9  1  0
 10 29  1  0
 10 40  1  0
 11 12  2  0
 11 16  1  0
 40 11  1  6
 12 13  1  0
 13 14  2  0
 14 15  1  0
 15 16  2  0
 16 30  1  0
 17 26  2  0
 17 30  1  0
 19 20  2  0
 19 21  1  0
 22 33  1  0
 33 23  1  0
 24 33  1  0
 25 26  1  0
 25 28  1  0
 25 34  2  0
 26 35  1  0
 27 28  2  0
 27 35  1  0
 38 40  2  0
 39 40  2  0
  6 41  1  0
  6 42  1  0
  6 43  1  0
  7 44  1  0
  7 45  1  0
  9 46  1  0
  9 47  1  0
  9 48  1  0
 10 49  1  6
 12 50  1  0
 13 51  1  0
 14 52  1  0
 15 53  1  0
 18 54  1  0
 20 55  1  0
 21 56  1  0
 21 57  1  0
 22 58  1  0
 22 59  1  0
 23 60  1  0
 23 61  1  0
 23 62  1  0
 24 63  1  0
 24 64  1  0
 24 65  1  0
 27 66  1  0
 28 67  1  0
 29 68  1  0
 29 69  1  0
 29 70  1  0
 30 71  1  0
 31 72  1  0
 33 73  1  6
 35 74  1  0
M  CHG  1  33   1
M  END
>  <filename_input>  (15) 
7BTT_F8R_docked.sdf

>  <pdb_id>  (15) 
7BTT_F8R

>  <pose_rank>  (15) 
14

>  <num_atoms_heavy>  (15) 
40

>  <num_torsions>  (15) 
8

>  <pose>  (15) 
[2.323441615104041, 20.30991715933317, 6.3764133518653665, -2.4274726636761113, -1.3462924728025338, 1.8935364274399082, -5.382923477885879, 0.8013180471094625, 4.501088560173459, 0.5863943927339548, -22.44062538154452, -19.74627853781169, -1.4628180812033171, 1.2451834094037701]

>  <energy>  (15) 
-671.9580875049834

>  <inter_energy>  (15) 
-699.9220511333168

>  <intra_energy>  (15) 
54.327646391885814

>  <rmsd>  (15) 
7.71419

>  <sdf_rank>  (15) 
0

$$$$

     RDKit          3D

 74 78  0  0  0  0  0  0  0  0999 V2000
    3.9299   17.5276    8.4254 N   0  0  0  0  0  0  0  0  0  0  0  0
    2.7592   17.4788    9.0529 C   0  0  0  0  0  0  0  0  0  0  0  0
    1.7630   19.4353    7.7357 C   0  0  0  0  0  0  0  0  0  0  0  0
    3.0301   20.9916    6.4442 C   0  0  0  0  0  0  0  0  0  0  0  0
    0.5791   19.9252    7.1865 C   0  0  0  0  0  0  0  0  0  0  0  0
   -1.7852   19.8941    7.0115 C   0  0  0  0  0  0  0  0  0  0  0  0
    3.7254   22.2632    4.6117 C   0  0  0  0  0  0  0  0  0  0  0  0
    5.4918   21.8508    6.4348 C   0  0  0  0  0  0  0  0  0  0  0  0
   10.1322   19.9447    7.8534 C   0  0  0  0  0  0  0  0  0  0  0  0
   10.1842   18.8196    6.8321 C   0  0  2  0  0  0  0  0  0  0  0  0
    8.6431   16.8003    8.2748 C   0  0  0  0  0  0  0  0  0  0  0  0
    9.8440   16.4442    8.8433 C   0  0  0  0  0  0  0  0  0  0  0  0
    9.8775   15.5850    9.9219 C   0  0  0  0  0  0  0  0  0  0  0  0
    8.6978   15.0780   10.4163 C   0  0  0  0  0  0  0  0  0  0  0  0
    7.4859   15.4296    9.8517 C   0  0  0  0  0  0  0  0  0  0  0  0
    7.4564   16.2861    8.7765 C   0  0  0  0  0  0  0  0  0  0  0  0
    4.9091   16.7066    8.7854 C   0  0  0  0  0  0  0  0  0  0  0  0
    2.9902   19.9562    7.3827 C   0  0  0  0  0  0  0  0  0  0  0  0
    1.8734   21.4802    5.8759 C   0  0  0  0  0  0  0  0  0  0  0  0
    0.6311   20.9486    6.2517 C   0  0  0  0  0  0  0  0  0  0  0  0
    2.2852   22.5727    4.8959 C   0  0  0  0  0  0  0  0  0  0  0  0
    6.5210   22.6380    5.6353 C   0  0  0  0  0  0  0  0  0  0  0  0
    8.2087   22.0388    4.0359 C   0  0  0  0  0  0  0  0  0  0  0  0
    8.7460   22.3011    6.3403 C   0  0  0  0  0  0  0  0  0  0  0  0
    3.4829   15.7979   10.4701 C   0  0  0  0  0  0  0  0  0  0  0  0
    4.7016   15.8071    9.8440 C   0  0  0  0  0  0  0  0  0  0  0  0
    4.8181   14.2675   11.4038 C   0  0  0  0  0  0  0  0  0  0  0  0
    3.5550   14.8137   11.4672 C   0  0  0  0  0  0  0  0  0  0  0  0
   10.4900   19.2910    5.4146 C   0  0  0  0  0  0  0  0  0  0  0  0
    6.2172   16.6900    8.1563 N   0  0  0  0  0  0  0  0  0  0  0  0
    1.6648   18.3643    8.6948 N   0  0  0  0  0  0  0  0  0  0  0  0
    4.1821   21.7131    5.8675 N   0  0  0  0  0  0  0  0  0  0  0  0
    7.7323   21.8946    5.3898 N   0  0  1  0  0  0  0  0  0  0  0  0
    2.5278   16.6441   10.0422 N   0  0  0  0  0  0  0  0  0  0  0  0
    5.4910   14.8672   10.4311 N   0  0  0  0  0  0  0  0  0  0  0  0
   -0.6291   19.3647    7.5931 O   0  0  0  0  0  0  0  0  0  0  0  0
    5.7507   21.3698    7.4709 O   0  0  0  0  0  0  0  0  0  0  0  0
    8.3782   17.2306    5.6211 O   0  0  0  0  0  0  0  0  0  0  0  0
    7.5148   18.8353    6.8893 O   0  0  0  0  0  0  0  0  0  0  0  0
    8.6110   17.9181    6.8484 S   0  0  2  0  0  0  0  0  0  0  0  0
   -2.4806   20.2125    7.8021 H   0  0  0  0  0  0  0  0  0  0  0  0
   -1.5183   20.7597    6.3874 H   0  0  0  0  0  0  0  0  0  0  0  0
   -2.2662   19.1265    6.3874 H   0  0  0  0  0  0  0  0  0  0  0  0
    3.8210   21.5289    3.7982 H   0  0  0  0  0  0  0  0  0  0  0  0
    4.3043   23.1378    4.2803 H   0  0  0  0  0  0  0  0  0  0  0  0
   10.1518   19.5201    8.8679 H   0  0  0  0  0  0  0  0  0  0  0  0
   11.0007   20.6055    7.7155 H   0  0  0  0  0  0  0  0  0  0  0  0
    9.2063   20.5224    7.7155 H   0  0  0  0  0  0  0  0  0  0  0  0
   11.0169   18.1642    7.1275 H   0  0  0  0  0  0  0  0  0  0  0  0
   10.7830   16.8468    8.4356 H   0  0  0  0  0  0  0  0  0  0  0  0
   10.8375   15.3081   10.3821 H   0  0  0  0  0  0  0  0  0  0  0  0
    8.7193   14.3851   11.2704 H   0  0  0  0  0  0  0  0  0  0  0  0
    6.5483   15.0255   10.2612 H   0  0  0  0  0  0  0  0  0  0  0  0
    3.9166   19.5658    7.8293 H   0  0  0  0  0  0  0  0  0  0  0  0
   -0.2959   21.3408    5.8079 H   0  0  0  0  0  0  0  0  0  0  0  0
    2.1794   23.5689    5.3503 H   0  0  0  0  0  0  0  0  0  0  0  0
    1.6637   22.5910    3.9885 H   0  0  0  0  0  0  0  0  0  0  0  0
    6.0768   22.9139    4.6676 H   0  0  0  0  0  0  0  0  0  0  0  0
    6.7926   23.5229    6.2296 H   0  0  0  0  0  0  0  0  0  0  0  0
    9.2615   22.3574    4.0496 H   0  0  0  0  0  0  0  0  0  0  0  0
    8.1241   21.0748    3.5129 H   0  0  0  0  0  0  0  0  0  0  0  0
    7.6038   22.7941    3.5129 H   0  0  0  0  0  0  0  0  0  0  0  0
    8.3708   22.1506    7.3633 H   0  0  0  0  0  0  0  0  0  0  0  0
    9.6530   21.6972    6.1899 H   0  0  0  0  0  0  0  0  0  0  0  0
    8.9844   23.3644    6.1899 H   0  0  0  0  0  0  0  0  0  0  0  0
    5.2042   13.4671   12.0521 H   0  0  0  0  0  0  0  0  0  0  0  0
    2.7546   14.5316   12.1671 H   0  0  0  0  0  0  0  0  0  0  0  0
   11.0881   20.2132    5.4560 H   0  0  0  0  0  0  0  0  0  0  0  0
   11.0547   18.5112    4.8827 H   0  0  0  0  0  0  0  0  0  0  0  0
    9.5476   19.4886    4.8827 H   0  0  0  0  0  0  0  0  0  0  0  0
    6.2656   16.9954    7.1739 H   0  0  0  0  0  0  0  0  0  0  0  0
    0.7567   18.2166    9.1579 H   0  0  0  0  0  0  0  0  0  0  0  0
    7.5197   20.8945    5.5147 H   0  0  0  0  0  0  0  0  0  0  0  0
    6.4620   14.6542   10.1615 H   0  0  0  0  0  0  0  0  0  0  0  0
  1  2  2  0
  1 17  1  0
  2 31  1  0
  2 34  1  0
  3  5  2  0
  3 18  1  0
  3 31  1  0
  4 18  2  0
  4 19  1  0
  4 32  1  0
  5 20  1  0
  5 36  1  0
  6 36  1  0
  7 21  1  0
  7 32  1  0
  8 22  1  0
  8 32  1  0
  8 37  2  0
 10  9  1  0
 10 29  1  0
 10 40  1  0
 11 12  2  0
 11 16  1  0
 40 11  1  1
 12 13  1  0
 13 14  2  0
 14 15  1  0
 15 16  2  0
 16 30  1  0
 17 26  2  0
 17 30  1  0
 19 20  2  0
 19 21  1  0
 22 33  1  0
 33 23  1  0
 24 33  1  0
 25 26  1  0
 25 28  1  0
 25 34  2  0
 26 35  1  0
 27 28  2  0
 27 35  1  0
 38 40  2  0
 39 40  2  0
  6 41  1  0
  6 42  1  0
  6 43  1  0
  7 44  1  0
  7 45  1  0
  9 46  1  0
  9 47  1  0
  9 48  1  0
 10 49  1  1
 12 50  1  0
 13 51  1  0
 14 52  1  0
 15 53  1  0
 18 54  1  0
 20 55  1  0
 21 56  1  0
 21 57  1  0
 22 58  1  0
 22 59  1  0
 23 60  1  0
 23 61  1  0
 23 62  1  0
 24 63  1  0
 24 64  1  0
 24 65  1  0
 27 66  1  0
 28 67  1  0
 29 68  1  0
 29 69  1  0
 29 70  1  0
 30 71  1  0
 31 72  1  0
 33 73  1  1
 35 74  1  0
M  CHG  1  33   1
M  END
>  <filename_input>  (16) 
7BTT_F8R_docked.sdf

>  <pdb_id>  (16) 
7BTT_F8R

>  <pose_rank>  (16) 
15

>  <num_atoms_heavy>  (16) 
40

>  <num_torsions>  (16) 
8

>  <pose>  (16) 
[3.9299293901755608, 17.52760638417431, 8.425353235005808, 1.6526368359811472, 2.1845167298697032, -5.595267513314712, 6.362597886266353, 0.05679160480103135, 0.6127034373411234, 1.309045656290695, -9.672286096358073, 0.609126269191712, -1.8670458593159853, 1.6589552280696864]

>  <energy>  (16) 
-1648.2054483106476

>  <inter_energy>  (16) 
-1845.805895860864

>  <intra_energy>  (16) 
192.22242932152156

>  <rmsd>  (16) 
2.32924

>  <sdf_rank>  (16) 
0

$$$$

     RDKit          3D

 74 78  0  0  0  0  0  0  0  0999 V2000
    6.4736   21.0353    5.0163 N   0  0  0  0  0  0  0  0  0  0  0  0
    5.5009   21.6222    4.3263 C   0  0  0  0  0  0  0  0  0  0  0  0
    3.6331   20.6705    5.7964 C   0  0  0  0  0  0  0  0  0  0  0  0
    3.8334   18.7760    7.2338 C   0  0  0  0  0  0  0  0  0  0  0  0
    2.4425   21.0352    6.4232 C   0  0  0  0  0  0  0  0  0  0  0  0
    0.4211   22.2698    6.3186 C   0  0  0  0  0  0  0  0  0  0  0  0
    3.7924   17.4948    9.1871 C   0  0  0  0  0  0  0  0  0  0  0  0
    5.2928   16.6161    7.2923 C   0  0  0  0  0  0  0  0  0  0  0  0
   10.5651   16.5399    7.7769 C   0  0  0  0  0  0  0  0  0  0  0  0
   10.2810   17.7299    6.8742 C   0  0  2  0  0  0  0  0  0  0  0  0
   10.1101   20.5991    7.3958 C   0  0  0  0  0  0  0  0  0  0  0  0
   10.9818   21.2047    8.2708 C   0  0  0  0  0  0  0  0  0  0  0  0
   11.5342   22.4317    7.9679 C   0  0  0  0  0  0  0  0  0  0  0  0
   11.1952   23.0500    6.7864 C   0  0  0  0  0  0  0  0  0  0  0  0
   10.3198   22.4499    5.9005 C   0  0  0  0  0  0  0  0  0  0  0  0
    9.7710   21.2267    6.2060 C   0  0  0  0  0  0  0  0  0  0  0  0
    7.7346   21.1598    4.6203 C   0  0  0  0  0  0  0  0  0  0  0  0
    4.3357   19.5483    6.1822 C   0  0  0  0  0  0  0  0  0  0  0  0
    2.6671   19.1269    7.8789 C   0  0  0  0  0  0  0  0  0  0  0  0
    1.9568   20.2649    7.4695 C   0  0  0  0  0  0  0  0  0  0  0  0
    2.4320   18.0894    8.9706 C   0  0  0  0  0  0  0  0  0  0  0  0
    5.7173   15.4367    8.1565 C   0  0  0  0  0  0  0  0  0  0  0  0
    7.5636   15.3407    9.6888 C   0  0  0  0  0  0  0  0  0  0  0  0
    7.6187   14.1445    7.6312 C   0  0  0  0  0  0  0  0  0  0  0  0
    6.9897   22.4752    2.7729 C   0  0  0  0  0  0  0  0  0  0  0  0
    8.0242   21.8960    3.4596 C   0  0  0  0  0  0  0  0  0  0  0  0
    8.9222   22.9359    1.7482 C   0  0  0  0  0  0  0  0  0  0  0  0
    7.5618   23.1413    1.6787 C   0  0  0  0  0  0  0  0  0  0  0  0
   11.5324   18.3453    6.2577 C   0  0  0  0  0  0  0  0  0  0  0  0
    8.8585   20.5550    5.3118 N   0  0  0  0  0  0  0  0  0  0  0  0
    4.1079   21.5045    4.7214 N   0  0  0  0  0  0  0  0  0  0  0  0
    4.3760   17.5573    7.8666 N   0  0  0  0  0  0  0  0  0  0  0  0
    7.1481   15.3351    8.3074 N   0  0  1  0  0  0  0  0  0  0  0  0
    5.7366   22.3250    3.2403 N   0  0  0  0  0  0  0  0  0  0  0  0
    9.1850   22.1934    2.8151 N   0  0  0  0  0  0  0  0  0  0  0  0
    1.7741   22.1732    5.9792 O   0  0  0  0  0  0  0  0  0  0  0  0
    5.6962   16.7599    6.2021 O   0  0  0  0  0  0  0  0  0  0  0  0
    9.3942   18.7316    9.2115 O   0  0  0  0  0  0  0  0  0  0  0  0
    7.9816   18.9288    7.5103 O   0  0  0  0  0  0  0  0  0  0  0  0
    9.3781   18.9936    7.8101 S   0  0  2  0  0  0  0  0  0  0  0  0
    0.3174   22.2772    7.4136 H   0  0  0  0  0  0  0  0  0  0  0  0
    0.0046   23.1999    5.9045 H   0  0  0  0  0  0  0  0  0  0  0  0
   -0.1232   21.4082    5.9045 H   0  0  0  0  0  0  0  0  0  0  0  0
    4.3750   18.0877    9.9075 H   0  0  0  0  0  0  0  0  0  0  0  0
    3.7644   16.4781    9.6060 H   0  0  0  0  0  0  0  0  0  0  0  0
   10.4907   16.8518    8.8291 H   0  0  0  0  0  0  0  0  0  0  0  0
    9.8316   15.7449    7.5773 H   0  0  0  0  0  0  0  0  0  0  0  0
   11.5788   16.1621    7.5773 H   0  0  0  0  0  0  0  0  0  0  0  0
    9.6758   17.3525    6.0367 H   0  0  0  0  0  0  0  0  0  0  0  0
   11.2398   20.7075    9.2175 H   0  0  0  0  0  0  0  0  0  0  0  0
   12.2385   22.9110    8.6637 H   0  0  0  0  0  0  0  0  0  0  0  0
   11.6255   24.0329    6.5439 H   0  0  0  0  0  0  0  0  0  0  0  0
   10.0633   22.9491    4.9545 H   0  0  0  0  0  0  0  0  0  0  0  0
    5.2700   19.2673    5.6742 H   0  0  0  0  0  0  0  0  0  0  0  0
    1.0207   20.5447    7.9749 H   0  0  0  0  0  0  0  0  0  0  0  0
    1.7165   17.3233    8.6375 H   0  0  0  0  0  0  0  0  0  0  0  0
    2.0023   18.5210    9.8866 H   0  0  0  0  0  0  0  0  0  0  0  0
    5.2670   15.5526    9.1534 H   0  0  0  0  0  0  0  0  0  0  0  0
    5.3734   14.5203    7.6546 H   0  0  0  0  0  0  0  0  0  0  0  0
    6.6761   15.3286   10.3386 H   0  0  0  0  0  0  0  0  0  0  0  0
    8.1779   14.4509    9.8905 H   0  0  0  0  0  0  0  0  0  0  0  0
    8.1534   16.2470    9.8905 H   0  0  0  0  0  0  0  0  0  0  0  0
    7.9160   13.3925    8.3769 H   0  0  0  0  0  0  0  0  0  0  0  0
    6.8136   13.7380    7.0014 H   0  0  0  0  0  0  0  0  0  0  0  0
    8.4841   14.3983    7.0014 H   0  0  0  0  0  0  0  0  0  0  0  0
    9.6666   23.3233    1.0370 H   0  0  0  0  0  0  0  0  0  0  0  0
    7.0256   23.7182    0.9107 H   0  0  0  0  0  0  0  0  0  0  0  0
   12.2096   18.6783    7.0580 H   0  0  0  0  0  0  0  0  0  0  0  0
   12.0415   17.5948    5.6352 H   0  0  0  0  0  0  0  0  0  0  0  0
   11.2488   19.2067    5.6352 H   0  0  0  0  0  0  0  0  0  0  0  0
    9.0203   19.5509    5.1488 H   0  0  0  0  0  0  0  0  0  0  0  0
    3.4124   22.0546    4.1976 H   0  0  0  0  0  0  0  0  0  0  0  0
    7.5711   16.1697    7.8768 H   0  0  0  0  0  0  0  0  0  0  0  0
   10.1235   21.8888    3.1104 H   0  0  0  0  0  0  0  0  0  0  0  0
  1  2  2  0
  1 17  1  0
  2 31  1  0
  2 34  1  0
  3  5  2  0
  3 18  1  0
  3 31  1  0
  4 18  2  0
  4 19  1  0
  4 32  1  0
  5 20  1  0
  5 36  1  0
  6 36  1  0
  7 21  1  0
  7 32  1  0
  8 22  1  0
  8 32  1  0
  8 37  2  0
 10  9  1  0
 10 29  1  0
 10 40  1  0
 11 12  2  0
 11 16  1  0
 40 11  1  1
 12 13  1  0
 13 14  2  0
 14 15  1  0
 15 16  2  0
 16 30  1  0
 17 26  2  0
 17 30  1  0
 19 20  2  0
 19 21  1  0
 22 33  1  0
 33 23  1  0
 24 33  1  0
 25 26  1  0
 25 28  1  0
 25 34  2  0
 26 35  1  0
 27 28  2  0
 27 35  1  0
 38 40  2  0
 39 40  2  0
  6 41  1  0
  6 42  1  0
  6 43  1  0
  7 44  1  0
  7 45  1  0
  9 46  1  0
  9 47  1  0
  9 48  1  0
 10 49  1  6
 12 50  1  0
 13 51  1  0
 14 52  1  0
 15 53  1  0
 18 54  1  0
 20 55  1  0
 21 56  1  0
 21 57  1  0
 22 58  1  0
 22 59  1  0
 23 60  1  0
 23 61  1  0
 23 62  1  0
 24 63  1  0
 24 64  1  0
 24 65  1  0
 27 66  1  0
 28 67  1  0
 29 68  1  0
 29 69  1  0
 29 70  1  0
 30 71  1  0
 31 72  1  0
 33 73  1  6
 35 74  1  0
M  CHG  1  33   1
M  END
>  <filename_input>  (17) 
7BTT_F8R_docked.sdf

>  <pdb_id>  (17) 
7BTT_F8R

>  <pose_rank>  (17) 
16

>  <num_atoms_heavy>  (17) 
40

>  <num_torsions>  (17) 
8

>  <pose>  (17) 
[6.4736476272027925, 21.03525911565395, 5.016272883852741, -3.1176017906831484, 0.987133050083674, -0.0017952625973540611, -0.03127993156023731, -0.28452696281385914, 0.6300003360178652, 1.082378495128438, -1.5348767544921733, -0.6082460859054697, 2.994683673107554, -0.8595974648170075]

>  <energy>  (17) 
-695.50842193375

>  <inter_energy>  (17) 
-709.0588401448547

>  <intra_energy>  (17) 
52.42168991171435

>  <rmsd>  (17) 
6.49342

>  <sdf_rank>  (17) 
0

$$$$

     RDKit          3D

 74 78  0  0  0  0  0  0  0  0999 V2000
    6.9337   17.7589    7.5978 N   0  0  0  0  0  0  0  0  0  0  0  0
    6.7211   16.4536    7.4648 C   0  0  0  0  0  0  0  0  0  0  0  0
    4.1790   16.6574    7.6920 C   0  0  0  0  0  0  0  0  0  0  0  0
    2.6973   18.4609    7.1948 C   0  0  0  0  0  0  0  0  0  0  0  0
    3.3442   16.2414    8.7281 C   0  0  0  0  0  0  0  0  0  0  0  0
    3.5262   15.2183   10.8591 C   0  0  0  0  0  0  0  0  0  0  0  0
    0.7006   19.6175    6.8285 C   0  0  0  0  0  0  0  0  0  0  0  0
    2.8050   20.6288    5.7502 C   0  0  0  0  0  0  0  0  0  0  0  0
    9.3075   23.7431    4.9927 C   0  0  0  0  0  0  0  0  0  0  0  0
    9.0813   22.5277    4.1076 C   0  0  2  0  0  0  0  0  0  0  0  0
   10.0172   20.9568    6.3857 C   0  0  0  0  0  0  0  0  0  0  0  0
   11.2385   21.5486    6.1608 C   0  0  0  0  0  0  0  0  0  0  0  0
   12.2476   21.4425    7.0952 C   0  0  0  0  0  0  0  0  0  0  0  0
   12.0243   20.7283    8.2498 C   0  0  0  0  0  0  0  0  0  0  0  0
   10.8006   20.1295    8.4850 C   0  0  0  0  0  0  0  0  0  0  0  0
    9.7971   20.2373    7.5512 C   0  0  0  0  0  0  0  0  0  0  0  0
    8.1749   18.2297    7.6126 C   0  0  0  0  0  0  0  0  0  0  0  0
    3.8764   17.7611    6.9224 C   0  0  0  0  0  0  0  0  0  0  0  0
    1.8488   18.0578    8.2034 C   0  0  0  0  0  0  0  0  0  0  0  0
    2.1737   16.9398    8.9854 C   0  0  0  0  0  0  0  0  0  0  0  0
    0.6688   19.0227    8.2055 C   0  0  0  0  0  0  0  0  0  0  0  0
    1.9743   21.7567    5.1537 C   0  0  0  0  0  0  0  0  0  0  0  0
    3.6774   23.4448    5.2784 C   0  0  0  0  0  0  0  0  0  0  0  0
    1.3720   24.0358    5.2184 C   0  0  0  0  0  0  0  0  0  0  0  0
    8.9889   15.9974    7.3837 C   0  0  0  0  0  0  0  0  0  0  0  0
    9.2535   17.3359    7.5084 C   0  0  0  0  0  0  0  0  0  0  0  0
   11.1993   16.3302    7.3700 C   0  0  0  0  0  0  0  0  0  0  0  0
   10.2316   15.3526    7.2944 C   0  0  0  0  0  0  0  0  0  0  0  0
    7.9773   22.7184    3.0734 C   0  0  0  0  0  0  0  0  0  0  0  0
    8.4998   19.6375    7.7526 N   0  0  0  0  0  0  0  0  0  0  0  0
    5.3793   15.8972    7.4513 N   0  0  0  0  0  0  0  0  0  0  0  0
    2.1144   19.6438    6.5305 N   0  0  0  0  0  0  0  0  0  0  0  0
    2.3419   23.0560    5.6606 N   0  0  1  0  0  0  0  0  0  0  0  0
    7.7066   15.5898    7.3568 N   0  0  0  0  0  0  0  0  0  0  0  0
   10.6031   17.5080    7.4958 N   0  0  0  0  0  0  0  0  0  0  0  0
    3.7117   15.1260    9.4763 O   0  0  0  0  0  0  0  0  0  0  0  0
    3.9618   20.5575    5.5811 O   0  0  0  0  0  0  0  0  0  0  0  0
    8.5584   19.8993    4.3731 O   0  0  0  0  0  0  0  0  0  0  0  0
    7.4043   21.2268    5.7275 O   0  0  0  0  0  0  0  0  0  0  0  0
    8.7028   21.0894    5.1449 S   0  0  2  0  0  0  0  0  0  0  0  0
    4.3959   14.7858   11.3755 H   0  0  0  0  0  0  0  0  0  0  0  0
    3.4183   16.2750   11.1449 H   0  0  0  0  0  0  0  0  0  0  0  0
    2.6184   14.6666   11.1449 H   0  0  0  0  0  0  0  0  0  0  0  0
    0.1549   18.9874    6.1108 H   0  0  0  0  0  0  0  0  0  0  0  0
    0.2216   20.6059    6.7672 H   0  0  0  0  0  0  0  0  0  0  0  0
    9.2516   23.4427    6.0494 H   0  0  0  0  0  0  0  0  0  0  0  0
   10.3002   24.1687    4.7845 H   0  0  0  0  0  0  0  0  0  0  0  0
    8.5342   24.4973    4.7845 H   0  0  0  0  0  0  0  0  0  0  0  0
   10.0122   22.3719    3.5426 H   0  0  0  0  0  0  0  0  0  0  0  0
   11.4113   22.1096    5.2306 H   0  0  0  0  0  0  0  0  0  0  0  0
   13.2208   21.9239    6.9190 H   0  0  0  0  0  0  0  0  0  0  0  0
   12.8285   20.6326    8.9942 H   0  0  0  0  0  0  0  0  0  0  0  0
   10.6303   19.5689    9.4160 H   0  0  0  0  0  0  0  0  0  0  0  0
    4.5476   18.0834    6.1127 H   0  0  0  0  0  0  0  0  0  0  0  0
    1.5047   16.6188    9.7974 H   0  0  0  0  0  0  0  0  0  0  0  0
    0.7980   19.8002    8.9728 H   0  0  0  0  0  0  0  0  0  0  0  0
   -0.2871   18.5303    8.4376 H   0  0  0  0  0  0  0  0  0  0  0  0
    2.1122   21.7543    4.0624 H   0  0  0  0  0  0  0  0  0  0  0  0
    0.9261   21.5780    5.4354 H   0  0  0  0  0  0  0  0  0  0  0  0
    4.2807   23.6204    6.1813 H   0  0  0  0  0  0  0  0  0  0  0  0
    4.1359   22.6428    4.6813 H   0  0  0  0  0  0  0  0  0  0  0  0
    3.6339   24.3675    4.6813 H   0  0  0  0  0  0  0  0  0  0  0  0
    0.9035   24.5091    6.0939 H   0  0  0  0  0  0  0  0  0  0  0  0
    1.8761   24.8032    4.6126 H   0  0  0  0  0  0  0  0  0  0  0  0
    0.5995   23.5395    4.6126 H   0  0  0  0  0  0  0  0  0  0  0  0
   12.2857   16.1618    7.3323 H   0  0  0  0  0  0  0  0  0  0  0  0
   10.4012   14.2713    7.1847 H   0  0  0  0  0  0  0  0  0  0  0  0
    7.0187   22.8840    3.5868 H   0  0  0  0  0  0  0  0  0  0  0  0
    8.2113   23.5894    2.4437 H   0  0  0  0  0  0  0  0  0  0  0  0
    7.9055   21.8194    2.4437 H   0  0  0  0  0  0  0  0  0  0  0  0
    7.7314   20.2685    8.0213 H   0  0  0  0  0  0  0  0  0  0  0  0
    5.2790   14.8908    7.2565 H   0  0  0  0  0  0  0  0  0  0  0  0
    2.3406   23.0054    6.6894 H   0  0  0  0  0  0  0  0  0  0  0  0
   11.0873   18.4139    7.5723 H   0  0  0  0  0  0  0  0  0  0  0  0
  1  2  2  0
  1 17  1  0
  2 31  1  0
  2 34  1  0
  3  5  2  0
  3 18  1  0
  3 31  1  0
  4 18  2  0
  4 19  1  0
  4 32  1  0
  5 20  1  0
  5 36  1  0
  6 36  1  0
  7 21  1  0
  7 32  1  0
  8 22  1  0
  8 32  1  0
  8 37  2  0
 10  9  1  0
 10 29  1  0
 10 40  1  0
 11 12  2  0
 11 16  1  0
 40 11  1  1
 12 13  1  0
 13 14  2  0
 14 15  1  0
 15 16  2  0
 16 30  1  0
 17 26  2  0
 17 30  1  0
 19 20  2  0
 19 21  1  0
 22 33  1  0
 33 23  1  0
 24 33  1  0
 25 26  1  0
 25 28  1  0
 25 34  2  0
 26 35  1  0
 27 28  2  0
 27 35  1  0
 38 40  2  0
 39 40  2  0
  6 41  1  0
  6 42  1  0
  6 43  1  0
  7 44  1  0
  7 45  1  0
  9 46  1  0
  9 47  1  0
  9 48  1  0
 10 49  1  6
 12 50  1  0
 13 51  1  0
 14 52  1  0
 15 53  1  0
 18 54  1  0
 20 55  1  0
 21 56  1  0
 21 57  1  0
 22 58  1  0
 22 59  1  0
 23 60  1  0
 23 61  1  0
 23 62  1  0
 24 63  1  0
 24 64  1  0
 24 65  1  0
 27 66  1  0
 28 67  1  0
 29 68  1  0
 29 69  1  0
 29 70  1  0
 30 71  1  0
 31 72  1  0
 33 73  1  1
 35 74  1  0
M  CHG  1  33   1
M  END
>  <filename_input>  (18) 
7BTT_F8R_docked.sdf

>  <pdb_id>  (18) 
7BTT_F8R

>  <pose_rank>  (18) 
17

>  <num_atoms_heavy>  (18) 
40

>  <num_torsions>  (18) 
8

>  <pose>  (18) 
[6.933717981683756, 17.758927103417342, 7.5978145272411926, 1.004789244327915, 0.04611989220660881, 1.1404909657247289, -11.150912361146833, -0.6801161499229389, -1.4445143598395844, 0.06794844704551023, 3.571280790937538, -1.1492501144188143, 4.399611604707237, 2.121050274855816]

>  <energy>  (18) 
-595.7171166454146

>  <inter_energy>  (18) 
-698.1665076140163

>  <intra_energy>  (18) 
104.22443861264489

>  <rmsd>  (18) 
5.52786

>  <sdf_rank>  (18) 
0

$$$$

     RDKit          3D

 74 78  0  0  0  0  0  0  0  0999 V2000
    6.8060   20.0693    6.3781 N   0  0  0  0  0  0  0  0  0  0  0  0
    7.0527   21.3571    6.5959 C   0  0  0  0  0  0  0  0  0  0  0  0
    4.6217   22.0739    6.2325 C   0  0  0  0  0  0  0  0  0  0  0  0
    2.5184   22.7190    5.3077 C   0  0  0  0  0  0  0  0  0  0  0  0
    4.1191   20.8062    6.5219 C   0  0  0  0  0  0  0  0  0  0  0  0
    4.4460   18.5862    7.2874 C   0  0  0  0  0  0  0  0  0  0  0  0
    0.5322   22.5911    4.0840 C   0  0  0  0  0  0  0  0  0  0  0  0
    1.3999   24.9601    4.5832 C   0  0  0  0  0  0  0  0  0  0  0  0
    4.8641   14.2616    9.2349 C   0  0  0  0  0  0  0  0  0  0  0  0
    6.3350   14.6120    9.3938 C   0  0  2  0  0  0  0  0  0  0  0  0
    8.2330   15.8883    7.5766 C   0  0  0  0  0  0  0  0  0  0  0  0
    9.0918   14.8785    7.9440 C   0  0  0  0  0  0  0  0  0  0  0  0
   10.2735   14.6843    7.2596 C   0  0  0  0  0  0  0  0  0  0  0  0
   10.5905   15.5187    6.2124 C   0  0  0  0  0  0  0  0  0  0  0  0
    9.7343   16.5365    5.8356 C   0  0  0  0  0  0  0  0  0  0  0  0
    8.5573   16.7272    6.5204 C   0  0  0  0  0  0  0  0  0  0  0  0
    7.8031   19.1930    6.3886 C   0  0  0  0  0  0  0  0  0  0  0  0
    3.8396   23.0391    5.6337 C   0  0  0  0  0  0  0  0  0  0  0  0
    2.0055   21.4668    5.5695 C   0  0  0  0  0  0  0  0  0  0  0  0
    2.8086   20.4977    6.1883 C   0  0  0  0  0  0  0  0  0  0  0  0
    0.5648   21.4621    5.0715 C   0  0  0  0  0  0  0  0  0  0  0  0
    0.2236   25.5649    3.8291 C   0  0  0  0  0  0  0  0  0  0  0  0
    0.9934   27.3739    2.4506 C   0  0  0  0  0  0  0  0  0  0  0  0
   -0.9908   27.5848    3.7491 C   0  0  0  0  0  0  0  0  0  0  0  0
    9.3255   20.9804    6.8190 C   0  0  0  0  0  0  0  0  0  0  0  0
    9.1153   19.6428    6.6096 C   0  0  0  0  0  0  0  0  0  0  0  0
   11.2746   19.8901    6.9145 C   0  0  0  0  0  0  0  0  0  0  0  0
   10.7054   21.1406    7.0149 C   0  0  0  0  0  0  0  0  0  0  0  0
    6.7779   14.7574   10.8455 C   0  0  0  0  0  0  0  0  0  0  0  0
    7.6261   17.7702    6.1617 N   0  0  0  0  0  0  0  0  0  0  0  0
    5.9915   22.3490    6.5855 N   0  0  0  0  0  0  0  0  0  0  0  0
    1.4748   23.5296    4.6489 N   0  0  0  0  0  0  0  0  0  0  0  0
    0.3293   26.9949    3.6737 N   0  0  1  0  0  0  0  0  0  0  0  0
    8.2671   21.8116    6.8140 N   0  0  0  0  0  0  0  0  0  0  0  0
   10.3159   19.0059    6.6744 N   0  0  0  0  0  0  0  0  0  0  0  0
    4.9561   19.8794    7.1381 O   0  0  0  0  0  0  0  0  0  0  0  0
    2.2182   25.6278    5.0895 O   0  0  0  0  0  0  0  0  0  0  0  0
    6.7521   17.2724    9.3621 O   0  0  0  0  0  0  0  0  0  0  0  0
    5.5921   16.4842    7.6411 O   0  0  0  0  0  0  0  0  0  0  0  0
    6.6898   16.1446    8.4920 S   0  0  2  0  0  0  0  0  0  0  0  0
    4.3529   18.3500    8.3577 H   0  0  0  0  0  0  0  0  0  0  0  0
    3.4564   18.5251    6.8110 H   0  0  0  0  0  0  0  0  0  0  0  0
    5.1274   17.8660    6.8110 H   0  0  0  0  0  0  0  0  0  0  0  0
    0.8541   22.2563    3.0869 H   0  0  0  0  0  0  0  0  0  0  0  0
   -0.4721   23.0145    3.9358 H   0  0  0  0  0  0  0  0  0  0  0  0
    4.4039   14.1520   10.2280 H   0  0  0  0  0  0  0  0  0  0  0  0
    4.3539   15.0634    8.6808 H   0  0  0  0  0  0  0  0  0  0  0  0
    4.7702   13.3160    8.6808 H   0  0  0  0  0  0  0  0  0  0  0  0
    6.9063   13.7689    8.9780 H   0  0  0  0  0  0  0  0  0  0  0  0
    8.8348   14.2222    8.7885 H   0  0  0  0  0  0  0  0  0  0  0  0
   10.9554   13.8707    7.5479 H   0  0  0  0  0  0  0  0  0  0  0  0
   11.5359   15.3742    5.6690 H   0  0  0  0  0  0  0  0  0  0  0  0
    9.9937   17.1916    4.9908 H   0  0  0  0  0  0  0  0  0  0  0  0
    4.2461   24.0381    5.4177 H   0  0  0  0  0  0  0  0  0  0  0  0
    2.4018   19.4995    6.4077 H   0  0  0  0  0  0  0  0  0  0  0  0
   -0.1377   21.6425    5.8984 H   0  0  0  0  0  0  0  0  0  0  0  0
    0.2667   20.4990    4.6313 H   0  0  0  0  0  0  0  0  0  0  0  0
    0.1743   25.1064    2.8304 H   0  0  0  0  0  0  0  0  0  0  0  0
   -0.6834   25.3640    4.4183 H   0  0  0  0  0  0  0  0  0  0  0  0
    1.9260   27.9061    2.6895 H   0  0  0  0  0  0  0  0  0  0  0  0
    1.2255   26.4723    1.8648 H   0  0  0  0  0  0  0  0  0  0  0  0
    0.3351   28.0324    1.8648 H   0  0  0  0  0  0  0  0  0  0  0  0
   -1.2758   27.7121    4.8039 H   0  0  0  0  0  0  0  0  0  0  0  0
   -0.9834   28.5652    3.2504 H   0  0  0  0  0  0  0  0  0  0  0  0
   -1.7162   26.9252    3.2504 H   0  0  0  0  0  0  0  0  0  0  0  0
   12.3460   19.6628    7.0166 H   0  0  0  0  0  0  0  0  0  0  0  0
   11.2329   22.0856    7.2115 H   0  0  0  0  0  0  0  0  0  0  0  0
    5.9463   14.4844   11.5117 H   0  0  0  0  0  0  0  0  0  0  0  0
    7.6337   14.0930   11.0360 H   0  0  0  0  0  0  0  0  0  0  0  0
    7.0734   15.7997   11.0360 H   0  0  0  0  0  0  0  0  0  0  0  0
    6.7530   17.4769    5.7008 H   0  0  0  0  0  0  0  0  0  0  0  0
    6.2346   23.3148    6.8484 H   0  0  0  0  0  0  0  0  0  0  0  0
    0.9147   27.3534    4.4416 H   0  0  0  0  0  0  0  0  0  0  0  0
   10.4582   17.9928    6.5552 H   0  0  0  0  0  0  0  0  0  0  0  0
  1  2  2  0
  1 17  1  0
  2 31  1  0
  2 34  1  0
  3  5  2  0
  3 18  1  0
  3 31  1  0
  4 18  2  0
  4 19  1  0
  4 32  1  0
  5 20  1  0
  5 36  1  0
  6 36  1  0
  7 21  1  0
  7 32  1  0
  8 22  1  0
  8 32  1  0
  8 37  2  0
 10  9  1  0
 10 29  1  0
 10 40  1  0
 11 12  2  0
 11 16  1  0
 40 11  1  6
 12 13  1  0
 13 14  2  0
 14 15  1  0
 15 16  2  0
 16 30  1  0
 17 26  2  0
 17 30  1  0
 19 20  2  0
 19 21  1  0
 22 33  1  0
 33 23  1  0
 24 33  1  0
 25 26  1  0
 25 28  1  0
 25 34  2  0
 26 35  1  0
 27 28  2  0
 27 35  1  0
 38 40  2  0
 39 40  2  0
  6 41  1  0
  6 42  1  0
  6 43  1  0
  7 44  1  0
  7 45  1  0
  9 46  1  0
  9 47  1  0
  9 48  1  0
 10 49  1  6
 12 50  1  0
 13 51  1  0
 14 52  1  0
 15 53  1  0
 18 54  1  0
 20 55  1  0
 21 56  1  0
 21 57  1  0
 22 58  1  0
 22 59  1  0
 23 60  1  0
 23 61  1  0
 23 62  1  0
 24 63  1  0
 24 64  1  0
 24 65  1  0
 27 66  1  0
 28 67  1  0
 29 68  1  0
 29 69  1  0
 29 70  1  0
 30 71  1  0
 31 72  1  0
 33 73  1  1
 35 74  1  0
M  CHG  1  33   1
M  END
>  <filename_input>  (19) 
7BTT_F8R_docked.sdf

>  <pdb_id>  (19) 
7BTT_F8R

>  <pose_rank>  (19) 
18

>  <num_atoms_heavy>  (19) 
40

>  <num_torsions>  (19) 
8

>  <pose>  (19) 
[6.805970114463429, 20.069299146405484, 6.378085647322845, 2.8661152460768484, -2.9561776842148553, 0.5076004563498253, -2.1719873904996674, 0.16284381365240888, -0.21425978068839932, 0.5168716299031639, -2.581286494902045, -1.0834905586331791, -1.8452530080296559, 0.6785568875588307]

>  <energy>  (19) 
-367.7269754200416

>  <inter_energy>  (19) 
-636.2858219470991

>  <intra_energy>  (19) 
276.50596587789295

>  <rmsd>  (19) 
5.80894

>  <sdf_rank>  (19) 
0

$$$$

     RDKit          3D

 74 78  0  0  0  0  0  0  0  0999 V2000
    5.6353   18.7045    7.7456 N   0  0  0  0  0  0  0  0  0  0  0  0
    4.5694   17.9365    7.9479 C   0  0  0  0  0  0  0  0  0  0  0  0
    2.9174   19.6761    7.0532 C   0  0  0  0  0  0  0  0  0  0  0  0
    3.4930   21.6701    5.8750 C   0  0  0  0  0  0  0  0  0  0  0  0
    1.6375   20.1734    7.2936 C   0  0  0  0  0  0  0  0  0  0  0  0
   -0.3593   18.8951    7.3089 C   0  0  0  0  0  0  0  0  0  0  0  0
    3.2972   23.4896    4.4226 C   0  0  0  0  0  0  0  0  0  0  0  0
    5.6945   22.7569    4.9971 C   0  0  0  0  0  0  0  0  0  0  0  0
   11.2487   21.6087    5.1273 C   0  0  0  0  0  0  0  0  0  0  0  0
   10.5040   20.5898    4.2794 C   0  0  2  0  0  0  0  0  0  0  0  0
   10.0369   18.8072    6.5461 C   0  0  0  0  0  0  0  0  0  0  0  0
   11.3041   18.3212    6.3215 C   0  0  0  0  0  0  0  0  0  0  0  0
   11.9353   17.5516    7.2764 C   0  0  0  0  0  0  0  0  0  0  0  0
   11.2798   17.2646    8.4516 C   0  0  0  0  0  0  0  0  0  0  0  0
   10.0062   17.7480    8.6867 C   0  0  0  0  0  0  0  0  0  0  0  0
    9.3800   18.5147    7.7324 C   0  0  0  0  0  0  0  0  0  0  0  0
    6.8375   18.2793    8.1148 C   0  0  0  0  0  0  0  0  0  0  0  0
    3.8546   20.4076    6.3543 C   0  0  0  0  0  0  0  0  0  0  0  0
    2.2280   22.1747    6.0866 C   0  0  0  0  0  0  0  0  0  0  0  0
    1.2877   21.4247    6.8080 C   0  0  0  0  0  0  0  0  0  0  0  0
    2.1768   23.5440    5.4188 C   0  0  0  0  0  0  0  0  0  0  0  0
    6.2586   23.8504    4.1004 C   0  0  0  0  0  0  0  0  0  0  0  0
    8.2304   25.0191    4.8156 C   0  0  0  0  0  0  0  0  0  0  0  0
    6.2197   26.1972    4.3290 C   0  0  0  0  0  0  0  0  0  0  0  0
    5.8392   16.2722    8.9353 C   0  0  0  0  0  0  0  0  0  0  0  0
    6.9658   17.0263    8.7367 C   0  0  0  0  0  0  0  0  0  0  0  0
    7.6242   15.1749    9.7142 C   0  0  0  0  0  0  0  0  0  0  0  0
    6.2580   15.0877    9.5595 C   0  0  0  0  0  0  0  0  0  0  0  0
    9.8885   21.1769    3.0140 C   0  0  0  0  0  0  0  0  0  0  0  0
    8.0543   19.0495    7.9325 N   0  0  0  0  0  0  0  0  0  0  0  0
    3.2358   18.3674    7.5656 N   0  0  0  0  0  0  0  0  0  0  0  0
    4.2674   22.6494    5.0867 N   0  0  0  0  0  0  0  0  0  0  0  0
    6.7891   24.9685    4.8412 N   0  0  1  0  0  0  0  0  0  0  0  0
    4.6539   16.7555    8.5196 N   0  0  0  0  0  0  0  0  0  0  0  0
    8.0338   16.3346    9.2183 N   0  0  0  0  0  0  0  0  0  0  0  0
    0.7406   19.3905    8.0160 O   0  0  0  0  0  0  0  0  0  0  0  0
    6.3899   22.0251    5.5910 O   0  0  0  0  0  0  0  0  0  0  0  0
    8.3120   19.0382    4.4801 O   0  0  0  0  0  0  0  0  0  0  0  0
    8.3434   20.7970    5.8345 O   0  0  0  0  0  0  0  0  0  0  0  0
    9.2104   19.8050    5.2788 S   0  0  2  0  0  0  0  0  0  0  0  0
   -1.1259   18.5499    8.0182 H   0  0  0  0  0  0  0  0  0  0  0  0
   -0.7775   19.6918    6.6762 H   0  0  0  0  0  0  0  0  0  0  0  0
   -0.0398   18.0540    6.6762 H   0  0  0  0  0  0  0  0  0  0  0  0
    2.9649   23.0403    3.4751 H   0  0  0  0  0  0  0  0  0  0  0  0
    3.6895   24.4805    4.1500 H   0  0  0  0  0  0  0  0  0  0  0  0
   11.0870   21.3874    6.1926 H   0  0  0  0  0  0  0  0  0  0  0  0
   12.3241   21.5578    4.9014 H   0  0  0  0  0  0  0  0  0  0  0  0
   10.8739   22.6178    4.9014 H   0  0  0  0  0  0  0  0  0  0  0  0
   11.2486   19.8510    3.9483 H   0  0  0  0  0  0  0  0  0  0  0  0
   11.8169   18.5476    5.3751 H   0  0  0  0  0  0  0  0  0  0  0  0
   12.9523   17.1712    7.1001 H   0  0  0  0  0  0  0  0  0  0  0  0
   11.7748   16.6436    9.2127 H   0  0  0  0  0  0  0  0  0  0  0  0
    9.4954   17.5201    9.6339 H   0  0  0  0  0  0  0  0  0  0  0  0
    4.8637   20.0068    6.1780 H   0  0  0  0  0  0  0  0  0  0  0  0
    0.2794   21.8262    6.9876 H   0  0  0  0  0  0  0  0  0  0  0  0
    2.3422   24.3461    6.1532 H   0  0  0  0  0  0  0  0  0  0  0  0
    1.2022   23.7591    4.9564 H   0  0  0  0  0  0  0  0  0  0  0  0
    7.0654   23.4207    3.4886 H   0  0  0  0  0  0  0  0  0  0  0  0
    5.4311   24.2283    3.4819 H   0  0  0  0  0  0  0  0  0  0  0  0
    8.6152   25.0326    5.8460 H   0  0  0  0  0  0  0  0  0  0  0  0
    8.6191   24.1340    4.2906 H   0  0  0  0  0  0  0  0  0  0  0  0
    8.5561   25.9292    4.2906 H   0  0  0  0  0  0  0  0  0  0  0  0
    5.9213   26.8413    5.1694 H   0  0  0  0  0  0  0  0  0  0  0  0
    6.9676   26.7196    3.7143 H   0  0  0  0  0  0  0  0  0  0  0  0
    5.3377   25.9644    3.7143 H   0  0  0  0  0  0  0  0  0  0  0  0
    8.2680   14.4100   10.1728 H   0  0  0  0  0  0  0  0  0  0  0  0
    5.6171   14.2483    9.8672 H   0  0  0  0  0  0  0  0  0  0  0  0
    9.1176   21.9122    3.2883 H   0  0  0  0  0  0  0  0  0  0  0  0
   10.6718   21.6710    2.4204 H   0  0  0  0  0  0  0  0  0  0  0  0
    9.4320   20.3712    2.4204 H   0  0  0  0  0  0  0  0  0  0  0  0
    7.9630   20.0753    7.9473 H   0  0  0  0  0  0  0  0  0  0  0  0
    2.4654   17.6915    7.6677 H   0  0  0  0  0  0  0  0  0  0  0  0
    6.5233   24.8474    5.8289 H   0  0  0  0  0  0  0  0  0  0  0  0
    9.0105   16.6614    9.2004 H   0  0  0  0  0  0  0  0  0  0  0  0
  1  2  2  0
  1 17  1  0
  2 31  1  0
  2 34  1  0
  3  5  2  0
  3 18  1  0
  3 31  1  0
  4 18  2  0
  4 19  1  0
  4 32  1  0
  5 20  1  0
  5 36  1  0
  6 36  1  0
  7 21  1  0
  7 32  1  0
  8 22  1  0
  8 32  1  0
  8 37  2  0
 10  9  1  0
 10 29  1  0
 10 40  1  0
 11 12  2  0
 11 16  1  0
 40 11  1  1
 12 13  1  0
 13 14  2  0
 14 15  1  0
 15 16  2  0
 16 30  1  0
 17 26  2  0
 17 30  1  0
 19 20  2  0
 19 21  1  0
 22 33  1  0
 33 23  1  0
 24 33  1  0
 25 26  1  0
 25 28  1  0
 25 34  2  0
 26 35  1  0
 27 28  2  0
 27 35  1  0
 38 40  2  0
 39 40  2  0
  6 41  1  0
  6 42  1  0
  6 43  1  0
  7 44  1  0
  7 45  1  0
  9 46  1  0
  9 47  1  0
  9 48  1  0
 10 49  1  6
 12 50  1  0
 13 51  1  0
 14 52  1  0
 15 53  1  0
 18 54  1  0
 20 55  1  0
 21 56  1  0
 21 57  1  0
 22 58  1  0
 22 59  1  0
 23 60  1  0
 23 61  1  0
 23 62  1  0
 24 63  1  0
 24 64  1  0
 24 65  1  0
 27 66  1  0
 28 67  1  0
 29 68  1  0
 29 69  1  0
 29 70  1  0
 30 71  1  0
 31 72  1  0
 33 73  1  1
 35 74  1  0
M  CHG  1  33   1
M  END
>  <filename_input>  (20) 
7BTT_F8R_docked.sdf

>  <pdb_id>  (20) 
7BTT_F8R

>  <pose_rank>  (20) 
19

>  <num_atoms_heavy>  (20) 
40

>  <num_torsions>  (20) 
8

>  <pose>  (20) 
[5.635327088930163, 18.704464117058368, 7.745648376633039, 0.36890629747161396, -0.2578958157718602, 0.5197915733984587, -11.644794564972763, 1.2428281798430763, -1.6522748701357326, 0.8008758657331435, 3.8903721359944057, -0.9085570305284546, 4.3214393835826455, 1.8595932276134253]

>  <energy>  (20) 
-748.9332537403054

>  <inter_energy>  (20) 
-932.0785512837952

>  <intra_energy>  (20) 
155.81417576483017

>  <rmsd>  (20) 
3.35549

>  <sdf_rank>  (20) 
0

$$$$

     RDKit          3D

 74 78  0  0  0  0  0  0  0  0999 V2000
    5.7289   22.7946    4.5879 N   0  0  0  0  0  0  0  0  0  0  0  0
    4.6987   22.9277    5.4173 C   0  0  0  0  0  0  0  0  0  0  0  0
    5.4808   21.0591    6.9831 C   0  0  0  0  0  0  0  0  0  0  0  0
    7.6662   20.2028    7.4148 C   0  0  0  0  0  0  0  0  0  0  0  0
    4.9259   19.8069    7.2425 C   0  0  0  0  0  0  0  0  0  0  0  0
    2.8913   19.1451    8.2642 C   0  0  0  0  0  0  0  0  0  0  0  0
    9.3857   19.0128    8.4568 C   0  0  0  0  0  0  0  0  0  0  0  0
   10.1098   21.0279    7.0323 C   0  0  0  0  0  0  0  0  0  0  0  0
    8.6334   28.7777    3.4896 C   0  0  0  0  0  0  0  0  0  0  0  0
    9.2613   27.5430    2.8627 C   0  0  2  0  0  0  0  0  0  0  0  0
    8.9487   24.6427    3.0186 C   0  0  0  0  0  0  0  0  0  0  0  0
   10.2908   24.6596    3.3199 C   0  0  0  0  0  0  0  0  0  0  0  0
   10.9897   23.4784    3.4572 C   0  0  0  0  0  0  0  0  0  0  0  0
   10.3334   22.2824    3.2779 C   0  0  0  0  0  0  0  0  0  0  0  0
    8.9849   22.2549    2.9745 C   0  0  0  0  0  0  0  0  0  0  0  0
    8.2915   23.4344    2.8383 C   0  0  0  0  0  0  0  0  0  0  0  0
    5.7954   23.5376    3.4898 C   0  0  0  0  0  0  0  0  0  0  0  0
    6.8410   21.2737    7.0590 C   0  0  0  0  0  0  0  0  0  0  0  0
    7.1378   18.9603    7.6918 C   0  0  0  0  0  0  0  0  0  0  0  0
    5.7536   18.7530    7.6007 C   0  0  0  0  0  0  0  0  0  0  0  0
    8.3050   18.0513    8.0590 C   0  0  0  0  0  0  0  0  0  0  0  0
   11.5688   20.7680    7.3813 C   0  0  0  0  0  0  0  0  0  0  0  0
   13.4845   21.9516    6.5476 C   0  0  0  0  0  0  0  0  0  0  0  0
   11.5070   23.1168    7.1798 C   0  0  0  0  0  0  0  0  0  0  0  0
    3.7123   24.5413    4.0827 C   0  0  0  0  0  0  0  0  0  0  0  0
    4.7606   24.4441    3.2059 C   0  0  0  0  0  0  0  0  0  0  0  0
    3.4046   25.9617    2.3843 C   0  0  0  0  0  0  0  0  0  0  0  0
    2.8445   25.5116    3.5597 C   0  0  0  0  0  0  0  0  0  0  0  0
    9.8077   27.7779    1.4588 C   0  0  0  0  0  0  0  0  0  0  0  0
    6.8816   23.4595    2.5301 N   0  0  0  0  0  0  0  0  0  0  0  0
    4.5843   22.1290    6.6252 N   0  0  0  0  0  0  0  0  0  0  0  0
    9.1304   20.1456    7.5967 N   0  0  0  0  0  0  0  0  0  0  0  0
   12.3561   21.9747    7.4460 N   0  0  1  0  0  0  0  0  0  0  0  0
    3.7171   23.7718    5.1868 N   0  0  0  0  0  0  0  0  0  0  0  0
    4.5473   25.3187    2.1857 N   0  0  0  0  0  0  0  0  0  0  0  0
    3.5460   19.6520    7.1374 O   0  0  0  0  0  0  0  0  0  0  0  0
    9.7896   21.9127    6.3349 O   0  0  0  0  0  0  0  0  0  0  0  0
    7.2539   26.2299    1.6383 O   0  0  0  0  0  0  0  0  0  0  0  0
    7.0579   26.3972    3.8433 O   0  0  0  0  0  0  0  0  0  0  0  0
    8.0428   26.2006    2.8256 S   0  0  2  0  0  0  0  0  0  0  0  0
    3.3804   19.5238    9.1737 H   0  0  0  0  0  0  0  0  0  0  0  0
    1.8394   19.4667    8.2526 H   0  0  0  0  0  0  0  0  0  0  0  0
    2.9389   18.0462    8.2526 H   0  0  0  0  0  0  0  0  0  0  0  0
    9.2988   19.2917    9.5173 H   0  0  0  0  0  0  0  0  0  0  0  0
   10.3999   18.6009    8.3491 H   0  0  0  0  0  0  0  0  0  0  0  0
    8.6758   28.6942    4.5856 H   0  0  0  0  0  0  0  0  0  0  0  0
    9.1856   29.6731    3.1684 H   0  0  0  0  0  0  0  0  0  0  0  0
    7.5845   28.8589    3.1684 H   0  0  0  0  0  0  0  0  0  0  0  0
   10.1238   27.2749    3.4905 H   0  0  0  0  0  0  0  0  0  0  0  0
   10.8096   25.6205    3.4521 H   0  0  0  0  0  0  0  0  0  0  0  0
   12.0608   23.4923    3.7075 H   0  0  0  0  0  0  0  0  0  0  0  0
   10.8879   21.3376    3.3770 H   0  0  0  0  0  0  0  0  0  0  0  0
    8.4684   21.2926    2.8427 H   0  0  0  0  0  0  0  0  0  0  0  0
    7.2670   22.2649    6.8444 H   0  0  0  0  0  0  0  0  0  0  0  0
    5.3273   17.7613    7.8120 H   0  0  0  0  0  0  0  0  0  0  0  0
    8.6169   17.4440    7.1965 H   0  0  0  0  0  0  0  0  0  0  0  0
    8.0555   17.3338    8.8546 H   0  0  0  0  0  0  0  0  0  0  0  0
   11.6115   20.2686    8.3604 H   0  0  0  0  0  0  0  0  0  0  0  0
   11.9918   20.1416    6.5821 H   0  0  0  0  0  0  0  0  0  0  0  0
   14.4170   21.9325    7.1307 H   0  0  0  0  0  0  0  0  0  0  0  0
   13.4300   21.0544    5.9136 H   0  0  0  0  0  0  0  0  0  0  0  0
   13.4668   22.8503    5.9136 H   0  0  0  0  0  0  0  0  0  0  0  0
   11.1781   23.5591    8.1318 H   0  0  0  0  0  0  0  0  0  0  0  0
   12.0696   23.8654    6.6027 H   0  0  0  0  0  0  0  0  0  0  0  0
   10.6281   22.7936    6.6027 H   0  0  0  0  0  0  0  0  0  0  0  0
    2.9755   26.7271    1.7210 H   0  0  0  0  0  0  0  0  0  0  0  0
    1.8964   25.8490    4.0039 H   0  0  0  0  0  0  0  0  0  0  0  0
   10.8164   28.2116    1.5257 H   0  0  0  0  0  0  0  0  0  0  0  0
    9.8552   26.8207    0.9189 H   0  0  0  0  0  0  0  0  0  0  0  0
    9.1457   28.4709    0.9189 H   0  0  0  0  0  0  0  0  0  0  0  0
    6.6215   23.4180    1.5344 H   0  0  0  0  0  0  0  0  0  0  0  0
    3.8096   22.3419    7.2698 H   0  0  0  0  0  0  0  0  0  0  0  0
   12.7469   22.0461    8.3963 H   0  0  0  0  0  0  0  0  0  0  0  0
    5.1765   25.4596    1.3825 H   0  0  0  0  0  0  0  0  0  0  0  0
  1  2  2  0
  1 17  1  0
  2 31  1  0
  2 34  1  0
  3  5  2  0
  3 18  1  0
  3 31  1  0
  4 18  2  0
  4 19  1  0
  4 32  1  0
  5 20  1  0
  5 36  1  0
  6 36  1  0
  7 21  1  0
  7 32  1  0
  8 22  1  0
  8 32  1  0
  8 37  2  0
 10  9  1  0
 10 29  1  0
 10 40  1  0
 11 12  2  0
 11 16  1  0
 40 11  1  1
 12 13  1  0
 13 14  2  0
 14 15  1  0
 15 16  2  0
 16 30  1  0
 17 26  2  0
 17 30  1  0
 19 20  2  0
 19 21  1  0
 22 33  1  0
 33 23  1  0
 24 33  1  0
 25 26  1  0
 25 28  1  0
 25 34  2  0
 26 35  1  0
 27 28  2  0
 27 35  1  0
 38 40  2  0
 39 40  2  0
  6 41  1  0
  6 42  1  0
  6 43  1  0
  7 44  1  0
  7 45  1  0
  9 46  1  0
  9 47  1  0
  9 48  1  0
 10 49  1  1
 12 50  1  0
 13 51  1  0
 14 52  1  0
 15 53  1  0
 18 54  1  0
 20 55  1  0
 21 56  1  0
 21 57  1  0
 22 58  1  0
 22 59  1  0
 23 60  1  0
 23 61  1  0
 23 62  1  0
 24 63  1  0
 24 64  1  0
 24 65  1  0
 27 66  1  0
 28 67  1  0
 29 68  1  0
 29 69  1  0
 29 70  1  0
 30 71  1  0
 31 72  1  0
 33 73  1  1
 35 74  1  0
M  CHG  1  33   1
M  END
>  <filename_input>  (21) 
7BTT_F8R_docked.sdf

>  <pdb_id>  (21) 
7BTT_F8R

>  <pose_rank>  (21) 
20

>  <num_atoms_heavy>  (21) 
40

>  <num_torsions>  (21) 
8

>  <pose>  (21) 
[5.728865334532869, 22.794602664251375, 4.58792301074011, -2.666939983501828, 0.14849667919903706, 1.808497041765214, -4.899833403567749, 1.0205895909456162, 0.22059726754320957, -3.216785251277065, -13.139159012762532, -23.308484015877024, 11.194946810784494, -5.823026292784555]

>  <energy>  (21) 
-383.4381596187553

>  <inter_energy>  (21) 
-484.9687644629061

>  <intra_energy>  (21) 
117.70654929632036

>  <rmsd>  (21) 
8.19754

>  <sdf_rank>  (21) 
0

$$$$

     RDKit          3D

 74 78  0  0  0  0  0  0  0  0999 V2000
    6.2309   19.5970    6.0817 N   0  0  0  0  0  0  0  0  0  0  0  0
    6.4379   20.8020    5.5601 C   0  0  0  0  0  0  0  0  0  0  0  0
    4.1091   21.6706    6.1748 C   0  0  0  0  0  0  0  0  0  0  0  0
    1.7339   21.8180    5.9952 C   0  0  0  0  0  0  0  0  0  0  0  0
    3.9911   21.1417    7.4591 C   0  0  0  0  0  0  0  0  0  0  0  0
    4.9774   20.3543    9.4663 C   0  0  0  0  0  0  0  0  0  0  0  0
   -0.5170   21.2166    6.1684 C   0  0  0  0  0  0  0  0  0  0  0  0
    0.0466   22.9764    4.3798 C   0  0  0  0  0  0  0  0  0  0  0  0
    5.2507   14.0148   10.5335 C   0  0  0  0  0  0  0  0  0  0  0  0
    6.6493   14.5831   10.3530 C   0  0  2  0  0  0  0  0  0  0  0  0
    8.0209   15.6887    8.0228 C   0  0  0  0  0  0  0  0  0  0  0  0
    9.0240   14.8112    8.3637 C   0  0  0  0  0  0  0  0  0  0  0  0
   10.1119   14.6388    7.5335 C   0  0  0  0  0  0  0  0  0  0  0  0
   10.1897   15.3625    6.3658 C   0  0  0  0  0  0  0  0  0  0  0  0
    9.1870   16.2469    6.0144 C   0  0  0  0  0  0  0  0  0  0  0  0
    8.1042   16.4163    6.8447 C   0  0  0  0  0  0  0  0  0  0  0  0
    7.1675   18.6617    5.9803 C   0  0  0  0  0  0  0  0  0  0  0  0
    2.9987   22.0173    5.4340 C   0  0  0  0  0  0  0  0  0  0  0  0
    1.5931   21.2811    7.2568 C   0  0  0  0  0  0  0  0  0  0  0  0
    2.7310   20.9426    8.0036 C   0  0  0  0  0  0  0  0  0  0  0  0
    0.0977   21.1867    7.5367 C   0  0  0  0  0  0  0  0  0  0  0  0
   -1.4174   23.0469    3.9678 C   0  0  0  0  0  0  0  0  0  0  0  0
   -1.6410   23.0243    1.5772 C   0  0  0  0  0  0  0  0  0  0  0  0
   -2.8615   24.5784    2.9048 C   0  0  0  0  0  0  0  0  0  0  0  0
    8.5293   20.2036    4.7695 C   0  0  0  0  0  0  0  0  0  0  0  0
    8.3623   18.9519    5.3012 C   0  0  0  0  0  0  0  0  0  0  0  0
   10.3426   18.9638    4.3552 C   0  0  0  0  0  0  0  0  0  0  0  0
    9.7952   20.2135    4.1648 C   0  0  0  0  0  0  0  0  0  0  0  0
    7.2755   15.0948   11.6456 C   0  0  0  0  0  0  0  0  0  0  0  0
    7.0277   17.3213    6.5196 N   0  0  0  0  0  0  0  0  0  0  0  0
    5.4362   21.8508    5.6428 N   0  0  0  0  0  0  0  0  0  0  0  0
    0.3910   22.0684    5.4348 N   0  0  0  0  0  0  0  0  0  0  0  0
   -1.6298   23.8287    2.7745 N   0  0  1  0  0  0  0  0  0  0  0  0
    7.5472   21.1104    4.9251 N   0  0  0  0  0  0  0  0  0  0  0  0
    9.4792   18.2218    5.0352 N   0  0  0  0  0  0  0  0  0  0  0  0
    5.1512   20.8228    8.1604 O   0  0  0  0  0  0  0  0  0  0  0  0
    0.8670   23.6307    3.8594 O   0  0  0  0  0  0  0  0  0  0  0  0
    6.5934   17.2056    9.7427 O   0  0  0  0  0  0  0  0  0  0  0  0
    5.3534   15.9110    8.4330 O   0  0  0  0  0  0  0  0  0  0  0  0
    6.6030   15.9191    9.1279 S   0  0  2  0  0  0  0  0  0  0  0  0
    5.2687   21.1395   10.1794 H   0  0  0  0  0  0  0  0  0  0  0  0
    3.9213   20.0897    9.6234 H   0  0  0  0  0  0  0  0  0  0  0  0
    5.6055   19.4650    9.6234 H   0  0  0  0  0  0  0  0  0  0  0  0
   -0.5586   20.2088    5.7295 H   0  0  0  0  0  0  0  0  0  0  0  0
   -1.5564   21.5767    6.1630 H   0  0  0  0  0  0  0  0  0  0  0  0
    5.0275   13.9241   11.6068 H   0  0  0  0  0  0  0  0  0  0  0  0
    4.5183   14.6866   10.0622 H   0  0  0  0  0  0  0  0  0  0  0  0
    5.1945   13.0225   10.0622 H   0  0  0  0  0  0  0  0  0  0  0  0
    7.2842   13.7538   10.0077 H   0  0  0  0  0  0  0  0  0  0  0  0
    8.9582   14.2439    9.3038 H   0  0  0  0  0  0  0  0  0  0  0  0
   10.9091   13.9300    7.8021 H   0  0  0  0  0  0  0  0  0  0  0  0
   11.0595   15.2358    5.7045 H   0  0  0  0  0  0  0  0  0  0  0  0
    9.2553   16.8132    5.0738 H   0  0  0  0  0  0  0  0  0  0  0  0
    3.1058   22.4409    4.4245 H   0  0  0  0  0  0  0  0  0  0  0  0
    2.6248   20.5220    9.0144 H   0  0  0  0  0  0  0  0  0  0  0  0
   -0.2441   22.0405    8.1401 H   0  0  0  0  0  0  0  0  0  0  0  0
   -0.1752   20.2881    8.1096 H   0  0  0  0  0  0  0  0  0  0  0  0
   -1.7801   22.0244    3.7862 H   0  0  0  0  0  0  0  0  0  0  0  0
   -1.9660   23.5380    4.7850 H   0  0  0  0  0  0  0  0  0  0  0  0
   -1.6557   21.9591    1.8512 H   0  0  0  0  0  0  0  0  0  0  0  0
   -2.5359   23.2627    0.9836 H   0  0  0  0  0  0  0  0  0  0  0  0
   -0.7398   23.2378    0.9836 H   0  0  0  0  0  0  0  0  0  0  0  0
   -3.0937   24.7198    3.9707 H   0  0  0  0  0  0  0  0  0  0  0  0
   -2.7463   25.5598    2.4214 H   0  0  0  0  0  0  0  0  0  0  0  0
   -3.6803   24.0254    2.4214 H   0  0  0  0  0  0  0  0  0  0  0  0
   11.3314   18.6359    4.0019 H   0  0  0  0  0  0  0  0  0  0  0  0
   10.2622   21.0591    3.6384 H   0  0  0  0  0  0  0  0  0  0  0  0
    6.7452   14.6615   12.5065 H   0  0  0  0  0  0  0  0  0  0  0  0
    8.3348   14.8005   11.6815 H   0  0  0  0  0  0  0  0  0  0  0  0
    7.1981   16.1915   11.6815 H   0  0  0  0  0  0  0  0  0  0  0  0
    6.0689   16.9838    6.6862 H   0  0  0  0  0  0  0  0  0  0  0  0
    5.6919   22.7870    5.2978 H   0  0  0  0  0  0  0  0  0  0  0  0
   -0.8362   24.4780    2.6771 H   0  0  0  0  0  0  0  0  0  0  0  0
    9.6308   17.2431    5.3185 H   0  0  0  0  0  0  0  0  0  0  0  0
  1  2  2  0
  1 17  1  0
  2 31  1  0
  2 34  1  0
  3  5  2  0
  3 18  1  0
  3 31  1  0
  4 18  2  0
  4 19  1  0
  4 32  1  0
  5 20  1  0
  5 36  1  0
  6 36  1  0
  7 21  1  0
  7 32  1  0
  8 22  1  0
  8 32  1  0
  8 37  2  0
 10  9  1  0
 10 29  1  0
 10 40  1  0
 11 12  2  0
 11 16  1  0
 40 11  1  6
 12 13  1  0
 13 14  2  0
 14 15  1  0
 15 16  2  0
 16 30  1  0
 17 26  2  0
 17 30  1  0
 19 20  2  0
 19 21  1  0
 22 33  1  0
 33 23  1  0
 24 33  1  0
 25 26  1  0
 25 28  1  0
 25 34  2  0
 26 35  1  0
 27 28  2  0
 27 35  1  0
 38 40  2  0
 39 40  2  0
  6 41  1  0
  6 42  1  0
  6 43  1  0
  7 44  1  0
  7 45  1  0
  9 46  1  0
  9 47  1  0
  9 48  1  0
 10 49  1  6
 12 50  1  0
 13 51  1  0
 14 52  1  0
 15 53  1  0
 18 54  1  0
 20 55  1  0
 21 56  1  0
 21 57  1  0
 22 58  1  0
 22 59  1  0
 23 60  1  0
 23 61  1  0
 23 62  1  0
 24 63  1  0
 24 64  1  0
 24 65  1  0
 27 66  1  0
 28 67  1  0
 29 68  1  0
 29 69  1  0
 29 70  1  0
 30 71  1  0
 31 72  1  0
 33 73  1  6
 35 74  1  0
M  CHG  1  33   1
M  END
>  <filename_input>  (22) 
7BTT_F8R_docked.sdf

>  <pdb_id>  (22) 
7BTT_F8R

>  <pose_rank>  (22) 
21

>  <num_atoms_heavy>  (22) 
40

>  <num_torsions>  (22) 
8

>  <pose>  (22) 
[6.2309222746406, 19.597018352852178, 6.081745375139883, 2.405770920442902, -2.425054762204218, 0.30897352042542003, -1.7747768205018581, 0.007439621131341945, -0.1897478679988093, 0.5612136857118547, -2.5263433723935274, -0.5685166458993454, -1.7361681641350424, 0.6687524382830303]

>  <energy>  (22) 
-429.92635554203196

>  <inter_energy>  (22) 
-618.7544427345065

>  <intra_energy>  (22) 
182.21331410525661

>  <rmsd>  (22) 
6.114

>  <sdf_rank>  (22) 
0

$$$$

     RDKit          3D

 74 78  0  0  0  0  0  0  0  0999 V2000
    8.9737   19.9544    6.5887 N   0  0  0  0  0  0  0  0  0  0  0  0
    8.8543   19.3116    7.7460 C   0  0  0  0  0  0  0  0  0  0  0  0
    6.2958   19.2587    7.6636 C   0  0  0  0  0  0  0  0  0  0  0  0
    4.8543   20.7924    6.5388 C   0  0  0  0  0  0  0  0  0  0  0  0
    5.2894   18.2941    7.6633 C   0  0  0  0  0  0  0  0  0  0  0  0
    5.6722   15.9728    7.3690 C   0  0  0  0  0  0  0  0  0  0  0  0
    3.2778   21.6020    5.0164 C   0  0  0  0  0  0  0  0  0  0  0  0
    4.8782   23.3474    6.0195 C   0  0  0  0  0  0  0  0  0  0  0  0
   12.8175   20.0809    2.2134 C   0  0  0  0  0  0  0  0  0  0  0  0
   12.4744   21.4763    1.7167 C   0  0  2  0  0  0  0  0  0  0  0  0
   10.6384   22.9487    3.4473 C   0  0  0  0  0  0  0  0  0  0  0  0
   10.7336   24.3062    3.2466 C   0  0  0  0  0  0  0  0  0  0  0  0
   10.6824   25.1748    4.3169 C   0  0  0  0  0  0  0  0  0  0  0  0
   10.5471   24.6689    5.5893 C   0  0  0  0  0  0  0  0  0  0  0  0
   10.4509   23.3062    5.8015 C   0  0  0  0  0  0  0  0  0  0  0  0
   10.5025   22.4434    4.7321 C   0  0  0  0  0  0  0  0  0  0  0  0
   10.1748   20.3106    6.1498 C   0  0  0  0  0  0  0  0  0  0  0  0
    6.0963   20.5076    7.1138 C   0  0  0  0  0  0  0  0  0  0  0  0
    3.8504   19.8484    6.5124 C   0  0  0  0  0  0  0  0  0  0  0  0
    4.0630   18.5856    7.0845 C   0  0  0  0  0  0  0  0  0  0  0  0
    2.6604   20.4828    5.8020 C   0  0  0  0  0  0  0  0  0  0  0  0
    4.2167   24.4461    5.1988 C   0  0  0  0  0  0  0  0  0  0  0  0
    5.5782   23.9744    3.2781 C   0  0  0  0  0  0  0  0  0  0  0  0
    4.3796   26.0239    3.4538 C   0  0  0  0  0  0  0  0  0  0  0  0
   11.1379   19.3666    8.1194 C   0  0  0  0  0  0  0  0  0  0  0  0
   11.3079   20.0212    6.9278 C   0  0  0  0  0  0  0  0  0  0  0  0
   13.3110   19.7736    7.7898 C   0  0  0  0  0  0  0  0  0  0  0  0
   12.4175   19.2066    8.6718 C   0  0  0  0  0  0  0  0  0  0  0  0
   13.3297   22.5759    2.3363 C   0  0  0  0  0  0  0  0  0  0  0  0
   10.3988   21.0135    4.8996 N   0  0  0  0  0  0  0  0  0  0  0  0
    7.5582   18.9108    8.2652 N   0  0  0  0  0  0  0  0  0  0  0  0
    4.3724   22.0146    5.8648 N   0  0  0  0  0  0  0  0  0  0  0  0
    5.0818   24.9859    4.1788 N   0  0  1  0  0  0  0  0  0  0  0  0
    9.8938   19.0176    8.4956 N   0  0  0  0  0  0  0  0  0  0  0  0
   12.6371   20.2542    6.7537 N   0  0  0  0  0  0  0  0  0  0  0  0
    5.5495   17.0558    8.2449 O   0  0  0  0  0  0  0  0  0  0  0  0
    5.7677   23.5710    6.7478 O   0  0  0  0  0  0  0  0  0  0  0  0
    9.9786   20.6176    2.2523 O   0  0  0  0  0  0  0  0  0  0  0  0
   10.0983   22.3452    0.8631 O   0  0  0  0  0  0  0  0  0  0  0  0
   10.7218   21.8151    2.0356 S   0  0  2  0  0  0  0  0  0  0  0  0
    5.7776   15.0433    7.9477 H   0  0  0  0  0  0  0  0  0  0  0  0
    4.7754   15.9104    6.7351 H   0  0  0  0  0  0  0  0  0  0  0  0
    6.5603   16.1127    6.7351 H   0  0  0  0  0  0  0  0  0  0  0  0
    3.6428   21.2484    4.0408 H   0  0  0  0  0  0  0  0  0  0  0  0
    2.5736   22.4144    4.7838 H   0  0  0  0  0  0  0  0  0  0  0  0
   12.8193   20.0734    3.3134 H   0  0  0  0  0  0  0  0  0  0  0  0
   12.0685   19.3654    1.8431 H   0  0  0  0  0  0  0  0  0  0  0  0
   13.8128   19.7943    1.8431 H   0  0  0  0  0  0  0  0  0  0  0  0
   12.6879   21.4879    0.6377 H   0  0  0  0  0  0  0  0  0  0  0  0
   10.8512   24.7014    2.2268 H   0  0  0  0  0  0  0  0  0  0  0  0
   10.7491   26.2607    4.1549 H   0  0  0  0  0  0  0  0  0  0  0  0
   10.5151   25.3564    6.4473 H   0  0  0  0  0  0  0  0  0  0  0  0
   10.3334   22.9135    6.8223 H   0  0  0  0  0  0  0  0  0  0  0  0
    6.8963   21.2625    7.1274 H   0  0  0  0  0  0  0  0  0  0  0  0
    3.2624   17.8313    7.0742 H   0  0  0  0  0  0  0  0  0  0  0  0
    1.9292   20.8685    6.5276 H   0  0  0  0  0  0  0  0  0  0  0  0
    2.1081   19.7705    5.1715 H   0  0  0  0  0  0  0  0  0  0  0  0
    3.3206   24.0306    4.7147 H   0  0  0  0  0  0  0  0  0  0  0  0
    3.9679   25.2669    5.8876 H   0  0  0  0  0  0  0  0  0  0  0  0
    5.9897   23.1360    3.8591 H   0  0  0  0  0  0  0  0  0  0  0  0
    4.7554   23.6124    2.6441 H   0  0  0  0  0  0  0  0  0  0  0  0
    6.3680   24.4037    2.6441 H   0  0  0  0  0  0  0  0  0  0  0  0
    3.9108   26.7169    4.1679 H   0  0  0  0  0  0  0  0  0  0  0  0
    5.0912   26.5750    2.8214 H   0  0  0  0  0  0  0  0  0  0  0  0
    3.6034   25.5685    2.8214 H   0  0  0  0  0  0  0  0  0  0  0  0
   14.4020   19.8199    7.9228 H   0  0  0  0  0  0  0  0  0  0  0  0
   12.6612   18.7205    9.6280 H   0  0  0  0  0  0  0  0  0  0  0  0
   13.2767   22.5077    3.4329 H   0  0  0  0  0  0  0  0  0  0  0  0
   14.3737   22.4553    2.0115 H   0  0  0  0  0  0  0  0  0  0  0  0
   12.9559   23.5582    2.0115 H   0  0  0  0  0  0  0  0  0  0  0  0
   10.4926   20.4370    4.0513 H   0  0  0  0  0  0  0  0  0  0  0  0
    7.5402   18.3390    9.1218 H   0  0  0  0  0  0  0  0  0  0  0  0
    5.9084   25.3859    4.6453 H   0  0  0  0  0  0  0  0  0  0  0  0
   13.0555   20.7305    5.9420 H   0  0  0  0  0  0  0  0  0  0  0  0
  1  2  2  0
  1 17  1  0
  2 31  1  0
  2 34  1  0
  3  5  2  0
  3 18  1  0
  3 31  1  0
  4 18  2  0
  4 19  1  0
  4 32  1  0
  5 20  1  0
  5 36  1  0
  6 36  1  0
  7 21  1  0
  7 32  1  0
  8 22  1  0
  8 32  1  0
  8 37  2  0
 10  9  1  0
 10 29  1  0
 10 40  1  0
 11 12  2  0
 11 16  1  0
 40 11  1  1
 12 13  1  0
 13 14  2  0
 14 15  1  0
 15 16  2  0
 16 30  1  0
 17 26  2  0
 17 30  1  0
 19 20  2  0
 19 21  1  0
 22 33  1  0
 33 23  1  0
 24 33  1  0
 25 26  1  0
 25 28  1  0
 25 34  2  0
 26 35  1  0
 27 28  2  0
 27 35  1  0
 38 40  2  0
 39 40  2  0
  6 41  1  0
  6 42  1  0
  6 43  1  0
  7 44  1  0
  7 45  1  0
  9 46  1  0
  9 47  1  0
  9 48  1  0
 10 49  1  6
 12 50  1  0
 13 51  1  0
 14 52  1  0
 15 53  1  0
 18 54  1  0
 20 55  1  0
 21 56  1  0
 21 57  1  0
 22 58  1  0
 22 59  1  0
 23 60  1  0
 23 61  1  0
 23 62  1  0
 24 63  1  0
 24 64  1  0
 24 65  1  0
 27 66  1  0
 28 67  1  0
 29 68  1  0
 29 69  1  0
 29 70  1  0
 30 71  1  0
 31 72  1  0
 33 73  1  1
 35 74  1  0
M  CHG  1  33   1
M  END
>  <filename_input>  (23) 
7BTT_F8R_docked.sdf

>  <pdb_id>  (23) 
7BTT_F8R

>  <pose_rank>  (23) 
22

>  <num_atoms_heavy>  (23) 
40

>  <num_torsions>  (23) 
8

>  <pose>  (23) 
[8.973657224202109, 19.954382820898868, 6.588656494444672, 0.3883986698727645, -2.745714565103098, -4.256805139780044, -31.666704688731528, 7.574841147403021, -11.720679452421411, -0.09001290062408593, 8.149869873203402, -31.179197290970357, 6.274222945238492, -1.4140584437404489]

>  <energy>  (23) 
-547.304801652119

>  <inter_energy>  (23) 
-603.7148522808045

>  <intra_energy>  (23) 
47.71129198792648

>  <rmsd>  (23) 
6.57452

>  <sdf_rank>  (23) 
0

$$$$

     RDKit          3D

 74 78  0  0  0  0  0  0  0  0999 V2000
    6.0577   19.5248    6.7271 N   0  0  0  0  0  0  0  0  0  0  0  0
    5.8337   18.8100    7.8251 C   0  0  0  0  0  0  0  0  0  0  0  0
    3.2856   18.9303    7.6058 C   0  0  0  0  0  0  0  0  0  0  0  0
    1.9818   20.6498    6.5867 C   0  0  0  0  0  0  0  0  0  0  0  0
    2.2511   18.0157    7.4139 C   0  0  0  0  0  0  0  0  0  0  0  0
    2.9577   15.8070    6.9201 C   0  0  0  0  0  0  0  0  0  0  0  0
    0.5492   21.7062    5.0733 C   0  0  0  0  0  0  0  0  0  0  0  0
    2.1270   23.2462    6.3972 C   0  0  0  0  0  0  0  0  0  0  0  0
   10.7306   20.1567    3.6044 C   0  0  0  0  0  0  0  0  0  0  0  0
   10.4369   21.4648    2.8873 C   0  0  2  0  0  0  0  0  0  0  0  0
    7.9388   22.6190    3.8675 C   0  0  0  0  0  0  0  0  0  0  0  0
    7.8335   23.9791    3.6900 C   0  0  0  0  0  0  0  0  0  0  0  0
    7.2984   24.7727    4.6831 C   0  0  0  0  0  0  0  0  0  0  0  0
    6.8817   24.1917    5.8587 C   0  0  0  0  0  0  0  0  0  0  0  0
    6.9835   22.8259    6.0469 C   0  0  0  0  0  0  0  0  0  0  0  0
    7.5177   22.0380    5.0546 C   0  0  0  0  0  0  0  0  0  0  0  0
    7.3014   19.8324    6.3794 C   0  0  0  0  0  0  0  0  0  0  0  0
    3.1680   20.2448    7.2057 C   0  0  0  0  0  0  0  0  0  0  0  0
    0.9524   19.7588    6.3718 C   0  0  0  0  0  0  0  0  0  0  0  0
    1.0810   18.4272    6.7931 C   0  0  0  0  0  0  0  0  0  0  0  0
   -0.1606   20.5251    5.6666 C   0  0  0  0  0  0  0  0  0  0  0  0
    1.5640   24.4644    5.6782 C   0  0  0  0  0  0  0  0  0  0  0  0
    2.5461   24.3985    3.4881 C   0  0  0  0  0  0  0  0  0  0  0  0
    2.1903   26.4697    4.6067 C   0  0  0  0  0  0  0  0  0  0  0  0
    8.0915   18.6890    8.3201 C   0  0  0  0  0  0  0  0  0  0  0  0
    8.3687   19.4147    7.1915 C   0  0  0  0  0  0  0  0  0  0  0  0
   10.3007   18.9758    8.1356 C   0  0  0  0  0  0  0  0  0  0  0  0
    9.3255   18.4066    8.9248 C   0  0  0  0  0  0  0  0  0  0  0  0
   10.9047   22.7004    3.6483 C   0  0  0  0  0  0  0  0  0  0  0  0
    7.6386   20.6069    5.1988 N   0  0  0  0  0  0  0  0  0  0  0  0
    4.4881   18.4585    8.2446 N   0  0  0  0  0  0  0  0  0  0  0  0
    1.5910   21.9649    6.0408 N   0  0  0  0  0  0  0  0  0  0  0  0
    2.5059   25.0657    4.7663 N   0  0  1  0  0  0  0  0  0  0  0  0
    6.8090   18.3959    8.6037 N   0  0  0  0  0  0  0  0  0  0  0  0
    9.7173   19.5722    7.1048 N   0  0  0  0  0  0  0  0  0  0  0  0
    2.4271   16.7053    7.8510 O   0  0  0  0  0  0  0  0  0  0  0  0
    2.9671   23.3410    7.2079 O   0  0  0  0  0  0  0  0  0  0  0  0
    8.0414   20.3035    2.4801 O   0  0  0  0  0  0  0  0  0  0  0  0
    8.4276   22.1125    1.2525 O   0  0  0  0  0  0  0  0  0  0  0  0
    8.6572   21.5869    2.5623 S   0  0  2  0  0  0  0  0  0  0  0  0
    3.4481   14.9770    7.4498 H   0  0  0  0  0  0  0  0  0  0  0  0
    2.1480   15.4120    6.2891 H   0  0  0  0  0  0  0  0  0  0  0  0
    3.6946   16.3255    6.2891 H   0  0  0  0  0  0  0  0  0  0  0  0
    0.9735   21.4612    4.0885 H   0  0  0  0  0  0  0  0  0  0  0  0
   -0.1091   22.5697    4.8970 H   0  0  0  0  0  0  0  0  0  0  0  0
   10.6943   20.3184    4.6918 H   0  0  0  0  0  0  0  0  0  0  0  0
    9.9787   19.4058    3.3201 H   0  0  0  0  0  0  0  0  0  0  0  0
   11.7314   19.7994    3.3201 H   0  0  0  0  0  0  0  0  0  0  0  0
   11.0085   21.4442    1.9477 H   0  0  0  0  0  0  0  0  0  0  0  0
    8.1780   24.4363    2.7507 H   0  0  0  0  0  0  0  0  0  0  0  0
    7.2058   25.8590    4.5368 H   0  0  0  0  0  0  0  0  0  0  0  0
    6.4628   24.8210    6.6577 H   0  0  0  0  0  0  0  0  0  0  0  0
    6.6384   22.3711    6.9871 H   0  0  0  0  0  0  0  0  0  0  0  0
    3.9889   20.9583    7.3699 H   0  0  0  0  0  0  0  0  0  0  0  0
    0.2592   17.7139    6.6322 H   0  0  0  0  0  0  0  0  0  0  0  0
   -0.9306   20.8481    6.3828 H   0  0  0  0  0  0  0  0  0  0  0  0
   -0.6878   19.9197    4.9145 H   0  0  0  0  0  0  0  0  0  0  0  0
    0.6741   24.1559    5.1100 H   0  0  0  0  0  0  0  0  0  0  0  0
    1.3218   25.2159    6.4441 H   0  0  0  0  0  0  0  0  0  0  0  0
    2.6114   23.3115    3.6437 H   0  0  0  0  0  0  0  0  0  0  0  0
    1.6322   24.6337    2.9228 H   0  0  0  0  0  0  0  0  0  0  0  0
    3.4252   24.7415    2.9228 H   0  0  0  0  0  0  0  0  0  0  0  0
    2.0853   26.9367    5.5971 H   0  0  0  0  0  0  0  0  0  0  0  0
    2.9992   26.9665    4.0509 H   0  0  0  0  0  0  0  0  0  0  0  0
    1.2467   26.5725    4.0509 H   0  0  0  0  0  0  0  0  0  0  0  0
   11.3831   18.9412    8.3283 H   0  0  0  0  0  0  0  0  0  0  0  0
    9.4843   17.8384    9.8532 H   0  0  0  0  0  0  0  0  0  0  0  0
   10.8339   22.5134    4.7300 H   0  0  0  0  0  0  0  0  0  0  0  0
   11.9488   22.9216    3.3820 H   0  0  0  0  0  0  0  0  0  0  0  0
   10.2689   23.5576    3.3820 H   0  0  0  0  0  0  0  0  0  0  0  0
    7.9984   20.0855    4.3867 H   0  0  0  0  0  0  0  0  0  0  0  0
    4.3865   17.8293    9.0537 H   0  0  0  0  0  0  0  0  0  0  0  0
    3.4470   24.9649    5.1727 H   0  0  0  0  0  0  0  0  0  0  0  0
   10.2096   20.0772    6.3540 H   0  0  0  0  0  0  0  0  0  0  0  0
  1  2  2  0
  1 17  1  0
  2 31  1  0
  2 34  1  0
  3  5  2  0
  3 18  1  0
  3 31  1  0
  4 18  2  0
  4 19  1  0
  4 32  1  0
  5 20  1  0
  5 36  1  0
  6 36  1  0
  7 21  1  0
  7 32  1  0
  8 22  1  0
  8 32  1  0
  8 37  2  0
 10  9  1  0
 10 29  1  0
 10 40  1  0
 11 12  2  0
 11 16  1  0
 40 11  1  1
 12 13  1  0
 13 14  2  0
 14 15  1  0
 15 16  2  0
 16 30  1  0
 17 26  2  0
 17 30  1  0
 19 20  2  0
 19 21  1  0
 22 33  1  0
 33 23  1  0
 24 33  1  0
 25 26  1  0
 25 28  1  0
 25 34  2  0
 26 35  1  0
 27 28  2  0
 27 35  1  0
 38 40  2  0
 39 40  2  0
  6 41  1  0
  6 42  1  0
  6 43  1  0
  7 44  1  0
  7 45  1  0
  9 46  1  0
  9 47  1  0
  9 48  1  0
 10 49  1  6
 12 50  1  0
 13 51  1  0
 14 52  1  0
 15 53  1  0
 18 54  1  0
 20 55  1  0
 21 56  1  0
 21 57  1  0
 22 58  1  0
 22 59  1  0
 23 60  1  0
 23 61  1  0
 23 62  1  0
 24 63  1  0
 24 64  1  0
 24 65  1  0
 27 66  1  0
 28 67  1  0
 29 68  1  0
 29 69  1  0
 29 70  1  0
 30 71  1  0
 31 72  1  0
 33 73  1  1
 35 74  1  0
M  CHG  1  33   1
M  END
>  <filename_input>  (24) 
7BTT_F8R_docked.sdf

>  <pdb_id>  (24) 
7BTT_F8R

>  <pose_rank>  (24) 
23

>  <num_atoms_heavy>  (24) 
40

>  <num_torsions>  (24) 
8

>  <pose>  (24) 
[6.057711183793639, 19.524842384728405, 6.727078769778783, 0.15755211697285454, -2.6026895879933782, -4.460586384552553, -31.727445485171188, 7.8880396967963025, -11.68966516562842, 0.36288687360456096, 7.862256957808072, -31.2902442043482, 6.362654519760852, -1.5309649992092573]

>  <energy>  (24) 
-587.0362618446885

>  <inter_energy>  (24) 
-623.3940141970372

>  <intra_energy>  (24) 
43.76649731981703

>  <rmsd>  (24) 
5.34774

>  <sdf_rank>  (24) 
0

$$$$

     RDKit          3D

 74 78  0  0  0  0  0  0  0  0999 V2000
    4.9568   21.9518    5.1800 N   0  0  0  0  0  0  0  0  0  0  0  0
    4.0302   22.5754    5.9007 C   0  0  0  0  0  0  0  0  0  0  0  0
    3.4511   20.5028    7.2879 C   0  0  0  0  0  0  0  0  0  0  0  0
    4.7659   18.5502    7.6804 C   0  0  0  0  0  0  0  0  0  0  0  0
    2.2823   19.7726    7.4984 C   0  0  0  0  0  0  0  0  0  0  0  0
    0.0131   19.6938    6.8161 C   0  0  0  0  0  0  0  0  0  0  0  0
    5.4954   16.5637    8.6705 C   0  0  0  0  0  0  0  0  0  0  0  0
    7.2573   17.8681    7.3258 C   0  0  0  0  0  0  0  0  0  0  0  0
    9.6311   23.2594   -1.2973 C   0  0  0  0  0  0  0  0  0  0  0  0
    9.7064   22.3030   -0.1178 C   0  0  2  0  0  0  0  0  0  0  0  0
    8.9332   22.1897    2.6970 C   0  0  0  0  0  0  0  0  0  0  0  0
   10.2797   22.1014    2.9640 C   0  0  0  0  0  0  0  0  0  0  0  0
   10.7193   21.7221    4.2151 C   0  0  0  0  0  0  0  0  0  0  0  0
    9.7969   21.4210    5.1907 C   0  0  0  0  0  0  0  0  0  0  0  0
    8.4415   21.5063    4.9323 C   0  0  0  0  0  0  0  0  0  0  0  0
    8.0071   21.8847    3.6837 C   0  0  0  0  0  0  0  0  0  0  0  0
    5.5801   22.5972    4.2015 C   0  0  0  0  0  0  0  0  0  0  0  0
    4.6942   19.9112    7.3693 C   0  0  0  0  0  0  0  0  0  0  0  0
    3.6242   17.8126    7.9089 C   0  0  0  0  0  0  0  0  0  0  0  0
    2.3657   18.4242    7.8126 C   0  0  0  0  0  0  0  0  0  0  0  0
    4.0694   16.3921    8.2370 C   0  0  0  0  0  0  0  0  0  0  0  0
    8.3094   16.8198    7.6609 C   0  0  0  0  0  0  0  0  0  0  0  0
   10.1541   17.8492    6.5195 C   0  0  0  0  0  0  0  0  0  0  0  0
    9.6320   18.4273    8.7691 C   0  0  0  0  0  0  0  0  0  0  0  0
    4.2674   24.5312    4.6858 C   0  0  0  0  0  0  0  0  0  0  0  0
    5.2358   23.9306    3.9250 C   0  0  0  0  0  0  0  0  0  0  0  0
    5.0301   25.9782    3.1623 C   0  0  0  0  0  0  0  0  0  0  0  0
    4.1349   25.8407    4.2003 C   0  0  0  0  0  0  0  0  0  0  0  0
    9.6469   20.8323   -0.5154 C   0  0  0  0  0  0  0  0  0  0  0  0
    6.6036   21.9964    3.3657 N   0  0  0  0  0  0  0  0  0  0  0  0
    3.3199   21.9033    6.9749 N   0  0  0  0  0  0  0  0  0  0  0  0
    5.9398   17.6720    7.8567 N   0  0  0  0  0  0  0  0  0  0  0  0
    9.6369   17.3715    7.7784 N   0  0  1  0  0  0  0  0  0  0  0  0
    3.6889   23.8249    5.6746 N   0  0  0  0  0  0  0  0  0  0  0  0
    5.6812   24.8331    3.0094 N   0  0  0  0  0  0  0  0  0  0  0  0
    1.0571   20.4256    7.3903 O   0  0  0  0  0  0  0  0  0  0  0  0
    7.5052   18.8027    6.6648 O   0  0  0  0  0  0  0  0  0  0  0  0
    7.1473   22.0326    0.6763 O   0  0  0  0  0  0  0  0  0  0  0  0
    8.0106   24.0573    0.9665 O   0  0  0  0  0  0  0  0  0  0  0  0
    8.3658   22.6745    1.0453 S   0  0  2  0  0  0  0  0  0  0  0  0
   -0.6094   19.2576    7.6112 H   0  0  0  0  0  0  0  0  0  0  0  0
   -0.6019   20.3596    6.1928 H   0  0  0  0  0  0  0  0  0  0  0  0
    0.4291   18.8887    6.1928 H   0  0  0  0  0  0  0  0  0  0  0  0
    5.5587   16.8067    9.7414 H   0  0  0  0  0  0  0  0  0  0  0  0
    6.1038   15.6560    8.5442 H   0  0  0  0  0  0  0  0  0  0  0  0
    9.5498   24.2922   -0.9273 H   0  0  0  0  0  0  0  0  0  0  0  0
   10.5399   23.1595   -1.9089 H   0  0  0  0  0  0  0  0  0  0  0  0
    8.7492   23.0185   -1.9089 H   0  0  0  0  0  0  0  0  0  0  0  0
   10.6892   22.4582    0.3513 H   0  0  0  0  0  0  0  0  0  0  0  0
   11.0101   22.3347    2.1752 H   0  0  0  0  0  0  0  0  0  0  0  0
   11.7962   21.6609    4.4308 H   0  0  0  0  0  0  0  0  0  0  0  0
   10.1418   21.1090    6.1875 H   0  0  0  0  0  0  0  0  0  0  0  0
    7.7131   21.2724    5.7227 H   0  0  0  0  0  0  0  0  0  0  0  0
    5.6085   20.4970    7.1934 H   0  0  0  0  0  0  0  0  0  0  0  0
    1.4508   17.8384    7.9851 H   0  0  0  0  0  0  0  0  0  0  0  0
    4.0031   15.7445    7.3503 H   0  0  0  0  0  0  0  0  0  0  0  0
    3.4430   15.9131    9.0040 H   0  0  0  0  0  0  0  0  0  0  0  0
    8.0406   16.3465    8.6168 H   0  0  0  0  0  0  0  0  0  0  0  0
    8.3264   16.0945    6.8341 H   0  0  0  0  0  0  0  0  0  0  0  0
   10.9505   18.5848    6.7057 H   0  0  0  0  0  0  0  0  0  0  0  0
   10.5626   17.0039    5.9463 H   0  0  0  0  0  0  0  0  0  0  0  0
    9.3438   18.3234    5.9463 H   0  0  0  0  0  0  0  0  0  0  0  0
    9.6341   17.9850    9.7763 H   0  0  0  0  0  0  0  0  0  0  0  0
   10.5273   19.0536    8.6419 H   0  0  0  0  0  0  0  0  0  0  0  0
    8.7310   19.0453    8.6419 H   0  0  0  0  0  0  0  0  0  0  0  0
    5.1800   26.8867    2.5605 H   0  0  0  0  0  0  0  0  0  0  0  0
    3.4466   26.6116    4.5771 H   0  0  0  0  0  0  0  0  0  0  0  0
    9.6217   20.2084    0.3902 H   0  0  0  0  0  0  0  0  0  0  0  0
    8.7407   20.6500   -1.1116 H   0  0  0  0  0  0  0  0  0  0  0  0
   10.5355   20.5774   -1.1116 H   0  0  0  0  0  0  0  0  0  0  0  0
    6.2993   21.6134    2.4592 H   0  0  0  0  0  0  0  0  0  0  0  0
    2.6787   22.4661    7.5521 H   0  0  0  0  0  0  0  0  0  0  0  0
   10.2676   16.6149    8.0797 H   0  0  0  0  0  0  0  0  0  0  0  0
    6.4117   24.6543    2.3056 H   0  0  0  0  0  0  0  0  0  0  0  0
  1  2  2  0
  1 17  1  0
  2 31  1  0
  2 34  1  0
  3  5  2  0
  3 18  1  0
  3 31  1  0
  4 18  2  0
  4 19  1  0
  4 32  1  0
  5 20  1  0
  5 36  1  0
  6 36  1  0
  7 21  1  0
  7 32  1  0
  8 22  1  0
  8 32  1  0
  8 37  2  0
 10  9  1  0
 10 29  1  0
 10 40  1  0
 11 12  2  0
 11 16  1  0
 40 11  1  1
 12 13  1  0
 13 14  2  0
 14 15  1  0
 15 16  2  0
 16 30  1  0
 17 26  2  0
 17 30  1  0
 19 20  2  0
 19 21  1  0
 22 33  1  0
 33 23  1  0
 24 33  1  0
 25 26  1  0
 25 28  1  0
 25 34  2  0
 26 35  1  0
 27 28  2  0
 27 35  1  0
 38 40  2  0
 39 40  2  0
  6 41  1  0
  6 42  1  0
  6 43  1  0
  7 44  1  0
  7 45  1  0
  9 46  1  0
  9 47  1  0
  9 48  1  0
 10 49  1  1
 12 50  1  0
 13 51  1  0
 14 52  1  0
 15 53  1  0
 18 54  1  0
 20 55  1  0
 21 56  1  0
 21 57  1  0
 22 58  1  0
 22 59  1  0
 23 60  1  0
 23 61  1  0
 23 62  1  0
 24 63  1  0
 24 64  1  0
 24 65  1  0
 27 66  1  0
 28 67  1  0
 29 68  1  0
 29 69  1  0
 29 70  1  0
 30 71  1  0
 31 72  1  0
 33 73  1  1
 35 74  1  0
M  CHG  1  33   1
M  END
>  <filename_input>  (25) 
7BTT_F8R_docked.sdf

>  <pdb_id>  (25) 
7BTT_F8R

>  <pose_rank>  (25) 
24

>  <num_atoms_heavy>  (25) 
40

>  <num_torsions>  (25) 
8

>  <pose>  (25) 
[4.956819988056033, 21.951815696651078, 5.179982623570124, -2.345701797803933, 0.7141887537007705, 1.404999808547716, -5.048162437133222, -0.5939822612664534, 0.22556890204231625, -2.25583397633343, -13.797703888592652, -24.190381564758596, 11.454662912482023, -5.8895660202394176]

>  <energy>  (25) 
-573.9488085120015

>  <inter_energy>  (25) 
-625.568886143436

>  <intra_energy>  (25) 
66.02756246662335

>  <rmsd>  (25) 
7.25671

>  <sdf_rank>  (25) 
0

$$$$

     RDKit          3D

 74 78  0  0  0  0  0  0  0  0999 V2000
    3.9240   17.6510    8.1930 N   0  0  0  0  0  0  0  0  0  0  0  0
    2.7640   17.6490    8.8420 C   0  0  0  0  0  0  0  0  0  0  0  0
    1.8390   19.6700    7.5710 C   0  0  0  0  0  0  0  0  0  0  0  0
    3.1500   21.2420    6.3440 C   0  0  0  0  0  0  0  0  0  0  0  0
    0.6760   20.1590    6.9780 C   0  0  0  0  0  0  0  0  0  0  0  0
   -1.6850   20.1650    6.7610 C   0  0  0  0  0  0  0  0  0  0  0  0
    3.9130   22.5310    4.5510 C   0  0  0  0  0  0  0  0  0  0  0  0
    5.6060   22.1120    6.4410 C   0  0  0  0  0  0  0  0  0  0  0  0
   10.9030   17.3320    9.2360 C   0  0  0  0  0  0  0  0  0  0  0  0
    9.7540   17.8880    8.4100 C   0  0  2  0  0  0  0  0  0  0  0  0
    7.8620   17.3470    6.2510 C   0  0  0  0  0  0  0  0  0  0  0  0
    8.2470   17.9420    5.0720 C   0  0  0  0  0  0  0  0  0  0  0  0
    7.3100   18.5340    4.2510 C   0  0  0  0  0  0  0  0  0  0  0  0
    5.9870   18.5340    4.6290 C   0  0  0  0  0  0  0  0  0  0  0  0
    5.5900   17.9390    5.8120 C   0  0  0  0  0  0  0  0  0  0  0  0
    6.5270   17.3500    6.6280 C   0  0  0  0  0  0  0  0  0  0  0  0
    4.8690   16.7790    8.5230 C   0  0  0  0  0  0  0  0  0  0  0  0
    3.0770   20.1990    7.2720 C   0  0  0  0  0  0  0  0  0  0  0  0
    2.0150   21.7300    5.7330 C   0  0  0  0  0  0  0  0  0  0  0  0
    0.7610   21.1900    6.0540 C   0  0  0  0  0  0  0  0  0  0  0  0
    2.4610   22.8320    4.7790 C   0  0  0  0  0  0  0  0  0  0  0  0
    6.6630   22.9100    5.6900 C   0  0  0  0  0  0  0  0  0  0  0  0
    8.3790   21.2490    5.9390 C   0  0  0  0  0  0  0  0  0  0  0  0
    8.9310   23.5160    5.4660 C   0  0  0  0  0  0  0  0  0  0  0  0
    3.4320   15.9150   10.2220 C   0  0  0  0  0  0  0  0  0  0  0  0
    4.6380   15.8750    9.5730 C   0  0  0  0  0  0  0  0  0  0  0  0
    4.7090   14.3090   11.1090 C   0  0  0  0  0  0  0  0  0  0  0  0
    3.4750   14.9140   11.2040 C   0  0  0  0  0  0  0  0  0  0  0  0
    8.6220   18.4720    9.2480 C   0  0  0  0  0  0  0  0  0  0  0  0
    6.1630   16.7090    7.8690 N   0  0  0  0  0  0  0  0  0  0  0  0
    1.7070   18.5910    8.5170 N   0  0  0  0  0  0  0  0  0  0  0  0
    4.3210   21.9730    5.8200 N   0  0  0  0  0  0  0  0  0  0  0  0
    8.0050   22.6280    6.1370 N   0  0  1  0  0  0  0  0  0  0  0  0
    2.5110   16.8120    9.8240 N   0  0  0  0  0  0  0  0  0  0  0  0
    5.3920   14.8900   10.1320 N   0  0  0  0  0  0  0  0  0  0  0  0
   -0.5450   19.5900    7.3310 O   0  0  0  0  0  0  0  0  0  0  0  0
    5.8250   21.6240    7.4830 O   0  0  0  0  0  0  0  0  0  0  0  0
    8.5790   15.4880    8.0750 O   0  0  0  0  0  0  0  0  0  0  0  0
   10.1670   15.9690    6.6000 O   0  0  0  0  0  0  0  0  0  0  0  0
    9.1030   16.5850    7.3300 S   0  0  2  0  0  0  0  0  0  0  0  0
   -2.3614   20.5062    7.5585 H   0  0  0  0  0  0  0  0  0  0  0  0
   -1.3907   21.0225    6.1380 H   0  0  0  0  0  0  0  0  0  0  0  0
   -2.1997   19.4187    6.1380 H   0  0  0  0  0  0  0  0  0  0  0  0
    4.0448   21.8037    3.7364 H   0  0  0  0  0  0  0  0  0  0  0  0
    4.5007   23.4108    4.2501 H   0  0  0  0  0  0  0  0  0  0  0  0
   10.6729   17.4433   10.3059 H   0  0  0  0  0  0  0  0  0  0  0  0
   11.0425   16.2667    8.9998 H   0  0  0  0  0  0  0  0  0  0  0  0
   11.8249   17.8837    8.9998 H   0  0  0  0  0  0  0  0  0  0  0  0
   10.1644   18.7205    7.8196 H   0  0  0  0  0  0  0  0  0  0  0  0
    9.3082   17.9457    4.7823 H   0  0  0  0  0  0  0  0  0  0  0  0
    7.6173   19.0013    3.3038 H   0  0  0  0  0  0  0  0  0  0  0  0
    5.2367   19.0128    3.9826 H   0  0  0  0  0  0  0  0  0  0  0  0
    4.5282   17.9368    6.0995 H   0  0  0  0  0  0  0  0  0  0  0  0
    3.9863   19.8091    7.7528 H   0  0  0  0  0  0  0  0  0  0  0  0
   -0.1491   21.5815    5.5761 H   0  0  0  0  0  0  0  0  0  0  0  0
    2.3322   23.8241    5.2364 H   0  0  0  0  0  0  0  0  0  0  0  0
    1.8766   22.8548    3.8474 H   0  0  0  0  0  0  0  0  0  0  0  0
    6.5915   22.6663    4.6197 H   0  0  0  0  0  0  0  0  0  0  0  0
    6.4692   23.9756    5.8822 H   0  0  0  0  0  0  0  0  0  0  0  0
    8.5113   20.7611    6.9159 H   0  0  0  0  0  0  0  0  0  0  0  0
    7.5886   20.7321    5.3750 H   0  0  0  0  0  0  0  0  0  0  0  0
    9.3223   21.2023    5.3750 H   0  0  0  0  0  0  0  0  0  0  0  0
    9.5124   24.0736    6.2151 H   0  0  0  0  0  0  0  0  0  0  0  0
    9.6137   22.9263    4.8366 H   0  0  0  0  0  0  0  0  0  0  0  0
    8.3704   24.2228    4.8366 H   0  0  0  0  0  0  0  0  0  0  0  0
    5.0680   13.4817   11.7388 H   0  0  0  0  0  0  0  0  0  0  0  0
    2.6750   14.6603   11.9151 H   0  0  0  0  0  0  0  0  0  0  0  0
    8.8563   18.3511   10.3159 H   0  0  0  0  0  0  0  0  0  0  0  0
    8.5083   19.5413    9.0163 H   0  0  0  0  0  0  0  0  0  0  0  0
    7.6847   17.9449    9.0163 H   0  0  0  0  0  0  0  0  0  0  0  0
    6.8908   16.1485    8.3349 H   0  0  0  0  0  0  0  0  0  0  0  0
    0.8015   18.4801    8.9953 H   0  0  0  0  0  0  0  0  0  0  0  0
    8.0403   22.7922    7.1532 H   0  0  0  0  0  0  0  0  0  0  0  0
    6.3465   14.6348    9.8411 H   0  0  0  0  0  0  0  0  0  0  0  0
  1  2  2  0
  1 17  1  0
  2 31  1  0
  2 34  1  0
  3  5  2  0
  3 18  1  0
  3 31  1  0
  4 18  2  0
  4 19  1  0
  4 32  1  0
  5 20  1  0
  5 36  1  0
  6 36  1  0
  7 21  1  0
  7 32  1  0
  8 22  1  0
  8 32  1  0
  8 37  2  0
 10  9  1  0
 10 29  1  0
 10 40  1  0
 11 12  2  0
 11 16  1  0
 40 11  1  6
 12 13  1  0
 13 14  2  0
 14 15  1  0
 15 16  2  0
 16 30  1  0
 17 26  2  0
 17 30  1  0
 19 20  2  0
 19 21  1  0
 22 33  1  0
 33 23  1  0
 24 33  1  0
 25 26  1  0
 25 28  1  0
 25 34  2  0
 26 35  1  0
 27 28  2  0
 27 35  1  0
 38 40  2  0
 39 40  2  0
  6 41  1  0
  6 42  1  0
  6 43  1  0
  7 44  1  0
  7 45  1  0
  9 46  1  0
  9 47  1  0
  9 48  1  0
 10 49  1  6
 12 50  1  0
 13 51  1  0
 14 52  1  0
 15 53  1  0
 18 54  1  0
 20 55  1  0
 21 56  1  0
 21 57  1  0
 22 58  1  0
 22 59  1  0
 23 60  1  0
 23 61  1  0
 23 62  1  0
 24 63  1  0
 24 64  1  0
 24 65  1  0
 27 66  1  0
 28 67  1  0
 29 68  1  0
 29 69  1  0
 29 70  1  0
 30 71  1  0
 31 72  1  0
 33 73  1  1
 35 74  1  0
M  CHG  1  33   1
M  END
>  <filename_input>  (26) 
7BTT_F8R_docked.sdf

>  <pdb_id>  (26) 
7BTT_F8R

>  <pose_rank>  (26) 
25

>  <num_atoms_heavy>  (26) 
40

>  <num_torsions>  (26) 
8

>  <pose>  (26) 
[3.924, 17.651, 8.193, 1e-06, 1e-06, 1e-06, 0.0, 0.0, 0.0, 0.0, 0.0, 0.0, 0.0, 0.0]

>  <energy>  (26) 
-1847.7175609159763

>  <inter_energy>  (26) 
-1943.6835334191992

>  <intra_energy>  (26) 
86.04284311214647

>  <rmsd>  (26) 
0.0

>  <sdf_rank>  (26) 
0

$$$$
