
     RDKit          3D

 70 75  0  0  0  0  0  0  0  0999 V2000
   41.9950   12.6299   53.4808 C   0  0  1  0  0  0  0  0  0  0  0  0
   41.7881   11.0118   51.8619 C   0  0  1  0  0  0  0  0  0  0  0  0
   42.5898    9.8268   49.9470 C   0  0  0  0  0  0  0  0  0  0  0  0
   43.4236    8.6787   49.6236 C   0  0  0  0  0  0  0  0  0  0  0  0
   43.3160    8.9365   51.7808 C   0  0  0  0  0  0  0  0  0  0  0  0
   43.6103    8.4039   48.1997 C   0  0  0  0  0  0  0  0  0  0  0  0
   42.2250   10.2317   47.6920 C   0  0  0  0  0  0  0  0  0  0  0  0
   40.8105   10.5822   52.9337 C   0  0  1  0  0  0  0  0  0  0  0  0
   40.9360   11.6874   53.9845 C   0  0  2  0  0  0  0  0  0  0  0  0
   39.4321   10.6063   52.3898 C   0  0  0  0  0  0  0  0  0  0  0  0
   45.9010   15.1289   54.5705 O   0  0  0  0  0  0  0  0  0  0  0  0
   44.6148   14.8034   55.2854 P   0  0  1  0  0  0  0  0  0  0  0  0
   44.7924   13.8945   56.6251 O   0  0  0  0  0  0  0  0  0  0  0  0
   43.9709   16.1872   55.7552 O   0  0  0  0  0  0  0  0  0  0  0  0
   42.8638   16.8020   55.0863 C   0  0  2  0  0  0  0  0  0  0  0  0
   43.1258   18.2796   55.2141 C   0  0  1  0  0  0  0  0  0  0  0  0
   42.6531   19.0538   53.9878 C   0  0  0  0  0  0  0  0  0  0  0  0
   43.4333   18.8125   52.8091 O   0  0  0  0  0  0  0  0  0  0  0  0
   42.4740   18.6440   56.4341 O   0  0  0  0  0  0  0  0  0  0  0  0
   41.6293   17.6033   56.8950 C   0  0  1  0  0  0  0  0  0  0  0  0
   40.3609   18.2007   57.4049 N   0  0  0  0  0  0  0  0  0  0  0  0
   39.5515   19.1092   56.7527 C   0  0  0  0  0  0  0  0  0  0  0  0
   38.4211   19.6353   57.4251 C   0  0  0  0  0  0  0  0  0  0  0  0
   38.1117   19.1815   58.7239 C   0  0  0  0  0  0  0  0  0  0  0  0
   37.0969   19.5931   59.3992 O   0  0  0  0  0  0  0  0  0  0  0  0
   38.9314   18.3084   59.3350 N   0  0  0  0  0  0  0  0  0  0  0  0
   40.0237   17.8251   58.7155 C   0  0  0  0  0  0  0  0  0  0  0  0
   40.7683   17.0058   59.2906 O   0  0  0  0  0  0  0  0  0  0  0  0
   41.5110   16.6076   55.7489 C   0  0  2  0  0  0  0  0  0  0  0  0
   41.2946   15.2747   56.2607 O   0  0  0  0  0  0  0  0  0  0  0  0
   43.6066   14.1376   54.2521 O   0  0  0  0  0  0  0  0  0  0  0  0
   42.9564   12.9416   54.6024 C   0  0  0  0  0  0  0  0  0  0  0  0
   39.6339   12.3662   54.1301 C   0  0  0  0  0  0  0  0  0  0  0  0
   38.7944   11.8546   52.9701 C   0  0  1  0  0  0  0  0  0  0  0  0
   38.7709   12.8274   51.9568 O   0  0  0  0  0  0  0  0  0  0  0  0
   37.4576   11.5465   53.4001 O   0  0  0  0  0  0  0  0  0  0  0  0
   42.6908   11.8858   52.5012 O   0  0  0  0  0  0  0  0  0  0  0  0
   42.5530    9.9077   51.2417 N   0  0  0  0  0  0  0  0  0  0  0  0
   43.8603    8.1804   50.7847 N   0  0  0  0  0  0  0  0  0  0  0  0
   41.9939   10.5579   48.9860 N   0  0  0  0  0  0  0  0  0  0  0  0
   41.6285   11.0004   46.7531 N   0  0  0  0  0  0  0  0  0  0  0  0
   42.9864    9.2021   47.3224 N   0  0  0  0  0  0  0  0  0  0  0  0
   44.3175    7.4276   47.8396 O   0  0  0  0  0  0  0  0  0  0  0  0
   41.5723   13.5707   53.0985 H   0  0  0  0  0  0  0  0  0  0  0  0
   41.2204   11.4675   51.0372 H   0  0  0  0  0  0  0  0  0  0  0  0
   43.4752    8.7781   52.8576 H   0  0  0  0  0  0  0  0  0  0  0  0
   41.0102    9.5711   53.3180 H   0  0  0  0  0  0  0  0  0  0  0  0
   41.2154   11.2968   54.9742 H   0  0  0  0  0  0  0  0  0  0  0  0
   39.4522   10.6590   51.2912 H   0  0  0  0  0  0  0  0  0  0  0  0
   38.8708    9.6981   52.6546 H   0  0  0  0  0  0  0  0  0  0  0  0
   42.8064   16.3691   54.0767 H   0  0  0  0  0  0  0  0  0  0  0  0
   44.1964   18.5288   55.2551 H   0  0  0  0  0  0  0  0  0  0  0  0
   41.6119   18.7674   53.7781 H   0  0  0  0  0  0  0  0  0  0  0  0
   42.7587   20.1225   54.2261 H   0  0  0  0  0  0  0  0  0  0  0  0
   44.3458   18.5303   53.0694 H   0  0  0  0  0  0  0  0  0  0  0  0
   42.0177   17.0404   57.7566 H   0  0  0  0  0  0  0  0  0  0  0  0
   39.7815   19.4208   55.7232 H   0  0  0  0  0  0  0  0  0  0  0  0
   37.7892   20.3924   56.9376 H   0  0  0  0  0  0  0  0  0  0  0  0
   38.7191   18.0036   60.2957 H   0  0  0  0  0  0  0  0  0  0  0  0
   40.6677   16.7530   55.0577 H   0  0  0  0  0  0  0  0  0  0  0  0
   41.2981   15.2967   57.2505 H   0  0  0  0  0  0  0  0  0  0  0  0
   42.4084   13.0700   55.5475 H   0  0  0  0  0  0  0  0  0  0  0  0
   43.6785   12.1242   54.7451 H   0  0  0  0  0  0  0  0  0  0  0  0
   39.1664   12.1049   55.0909 H   0  0  0  0  0  0  0  0  0  0  0  0
   39.7341   13.4616   54.1174 H   0  0  0  0  0  0  0  0  0  0  0  0
   38.7491   13.7289   52.3653 H   0  0  0  0  0  0  0  0  0  0  0  0
   37.4228   11.5385   54.3895 H   0  0  0  0  0  0  0  0  0  0  0  0
   41.7709   10.7960   45.7537 H   0  0  0  0  0  0  0  0  0  0  0  0
   41.0318   11.7903   47.0373 H   0  0  0  0  0  0  0  0  0  0  0  0
   43.1004    9.0112   46.3167 H   0  0  0  0  0  0  0  0  0  0  0  0
  1  9  1  0
  1 32  1  0
  1 37  1  0
  2  8  1  0
  2 37  1  0
  2 38  1  0
  3  4  2  0
  3 38  1  0
  3 40  1  0
  4  6  1  0
  4 39  1  0
  5 38  1  0
  5 39  2  0
  6 42  1  0
  6 43  2  0
  7 40  2  0
  7 41  1  0
  7 42  1  0
  8  9  1  0
  8 10  1  0
  9 33  1  0
 10 34  1  0
 11 12  2  0
 12 13  1  1
 12 14  1  0
 12 31  1  0
 15 14  1  0
 15 16  1  0
 15 29  1  0
 16 17  1  0
 16 19  1  0
 17 18  1  0
 19 20  1  0
 20 21  1  0
 20 29  1  0
 21 22  1  0
 21 27  1  0
 22 23  2  0
 23 24  1  0
 24 25  2  0
 24 26  1  0
 26 27  1  0
 27 28  2  0
 29 30  1  0
 31 32  1  0
 33 34  1  0
 34 35  1  6
 34 36  1  0
  1 44  1  6
  2 45  1  6
  5 46  1  0
  8 47  1  1
  9 48  1  1
 10 49  1  0
 10 50  1  0
 15 51  1  6
 16 52  1  1
 17 53  1  0
 17 54  1  0
 18 55  1  0
 20 56  1  1
 22 57  1  0
 23 58  1  0
 26 59  1  0
 29 60  1  6
 30 61  1  0
 32 62  1  0
 32 63  1  0
 33 64  1  0
 33 65  1  0
 35 66  1  0
 36 67  1  0
 41 68  1  0
 41 69  1  0
 42 70  1  0
M  CHG  1  13  -1
M  END
>  <filename_input>  (1) 
7C0U_FGO_docked.sdf

>  <pdb_id>  (1) 
7C0U_FGO

>  <pose_rank>  (1) 
0

>  <num_atoms_heavy>  (1) 
43

>  <num_torsions>  (1) 
8

>  <pose>  (1) 
[42.95638198900391, 12.941593840207158, 54.6023979631869, -3.971469523508392, 3.129799158507556, -3.3278689952525715, 0.2972616583907522, -0.09939692515873282, 6.683742505038309, -13.367056662754061, 13.423079420366447, 11.952937707935607, -0.12104118292190633, 4.001777061783815]

>  <energy>  (1) 
-1186.5871592536673

>  <inter_energy>  (1) 
-1183.493079363199

>  <intra_energy>  (1) 
5.923574183946075

>  <rmsd>  (1) 
0.718849

>  <sdf_rank>  (1) 
0

$$$$

     RDKit          3D

 70 75  0  0  0  0  0  0  0  0999 V2000
   42.7696   12.0370   53.7291 C   0  0  1  0  0  0  0  0  0  0  0  0
   41.6524   11.2521   51.8804 C   0  0  1  0  0  0  0  0  0  0  0  0
   42.7019    9.8565   50.2482 C   0  0  0  0  0  0  0  0  0  0  0  0
   42.7332    9.6702   48.8052 C   0  0  0  0  0  0  0  0  0  0  0  0
   41.3837   11.2977   49.3165 C   0  0  0  0  0  0  0  0  0  0  0  0
   43.5808    8.5828   48.3183 C   0  0  0  0  0  0  0  0  0  0  0  0
   44.2027    8.1105   50.5337 C   0  0  0  0  0  0  0  0  0  0  0  0
   41.5779   10.1060   52.8652 C   0  0  1  0  0  0  0  0  0  0  0  0
   42.2943   10.6585   54.0993 C   0  0  2  0  0  0  0  0  0  0  0  0
   40.1630    9.8459   53.2213 C   0  0  0  0  0  0  0  0  0  0  0  0
   44.6363   14.9312   53.7232 O   0  0  0  0  0  0  0  0  0  0  0  0
   44.6751   14.5256   55.1742 P   0  0  1  0  0  0  0  0  0  0  0  0
   46.1063   14.7719   55.9113 O   0  0  0  0  0  0  0  0  0  0  0  0
   43.6042   15.4245   55.9458 O   0  0  0  0  0  0  0  0  0  0  0  0
   42.6415   16.2446   55.2736 C   0  0  2  0  0  0  0  0  0  0  0  0
   43.1036   17.6535   55.5376 C   0  0  1  0  0  0  0  0  0  0  0  0
   42.8258   18.5786   54.3571 C   0  0  0  0  0  0  0  0  0  0  0  0
   42.4754   19.9170   54.7347 O   0  0  0  0  0  0  0  0  0  0  0  0
   42.4343   18.0179   56.7480 O   0  0  0  0  0  0  0  0  0  0  0  0
   41.4216   17.0819   57.0760 C   0  0  1  0  0  0  0  0  0  0  0  0
   40.2220   17.8205   57.5671 N   0  0  0  0  0  0  0  0  0  0  0  0
   39.4597   18.7279   56.8590 C   0  0  0  0  0  0  0  0  0  0  0  0
   38.3983   19.3993   57.5142 C   0  0  0  0  0  0  0  0  0  0  0  0
   38.1043   19.0890   58.8580 C   0  0  0  0  0  0  0  0  0  0  0  0
   37.1493   19.6378   59.5231 O   0  0  0  0  0  0  0  0  0  0  0  0
   38.8778   18.2122   59.5215 N   0  0  0  0  0  0  0  0  0  0  0  0
   39.9066   17.5910   58.9162 C   0  0  0  0  0  0  0  0  0  0  0  0
   40.6081   16.7703   59.5414 O   0  0  0  0  0  0  0  0  0  0  0  0
   41.2353   16.2032   55.8463 C   0  0  2  0  0  0  0  0  0  0  0  0
   40.7980   14.8825   56.2333 O   0  0  0  0  0  0  0  0  0  0  0  0
   44.2019   13.0129   55.2980 O   0  0  0  0  0  0  0  0  0  0  0  0
   44.2096   12.1964   54.1539 C   0  0  0  0  0  0  0  0  0  0  0  0
   41.3471   10.6994   55.2302 C   0  0  0  0  0  0  0  0  0  0  0  0
   39.9852   10.4316   54.6095 C   0  0  1  0  0  0  0  0  0  0  0  0
   39.2974   11.6485   54.4699 O   0  0  0  0  0  0  0  0  0  0  0  0
   39.2246    9.5156   55.4153 O   0  0  0  0  0  0  0  0  0  0  0  0
   42.7245   12.0570   52.3167 O   0  0  0  0  0  0  0  0  0  0  0  0
   41.8992   10.8498   50.4783 N   0  0  0  0  0  0  0  0  0  0  0  0
   41.8911   10.5672   48.2824 N   0  0  0  0  0  0  0  0  0  0  0  0
   43.4477    9.0971   51.0730 N   0  0  0  0  0  0  0  0  0  0  0  0
   44.9217    7.3535   51.3928 N   0  0  0  0  0  0  0  0  0  0  0  0
   44.2703    7.8749   49.2236 N   0  0  0  0  0  0  0  0  0  0  0  0
   43.6613    8.3589   47.0827 O   0  0  0  0  0  0  0  0  0  0  0  0
   42.1673   12.8289   54.1982 H   0  0  0  0  0  0  0  0  0  0  0  0
   40.6775   11.7613   51.8665 H   0  0  0  0  0  0  0  0  0  0  0  0
   40.6649   12.1244   49.2174 H   0  0  0  0  0  0  0  0  0  0  0  0
   42.0104    9.1734   52.4738 H   0  0  0  0  0  0  0  0  0  0  0  0
   43.1457   10.0333   54.4063 H   0  0  0  0  0  0  0  0  0  0  0  0
   39.4886   10.3391   52.5057 H   0  0  0  0  0  0  0  0  0  0  0  0
   39.9243    8.7724   53.1955 H   0  0  0  0  0  0  0  0  0  0  0  0
   42.5870   15.9017   54.2298 H   0  0  0  0  0  0  0  0  0  0  0  0
   44.1941   17.7379   55.6550 H   0  0  0  0  0  0  0  0  0  0  0  0
   43.7292   18.6212   53.7310 H   0  0  0  0  0  0  0  0  0  0  0  0
   41.9594   18.1615   53.8230 H   0  0  0  0  0  0  0  0  0  0  0  0
   42.4570   19.9872   55.7220 H   0  0  0  0  0  0  0  0  0  0  0  0
   41.6698   16.4050   57.9068 H   0  0  0  0  0  0  0  0  0  0  0  0
   39.6741   18.9273   55.7987 H   0  0  0  0  0  0  0  0  0  0  0  0
   37.8077   20.1571   56.9785 H   0  0  0  0  0  0  0  0  0  0  0  0
   38.6791   18.0120   60.5122 H   0  0  0  0  0  0  0  0  0  0  0  0
   40.4673   16.5230   55.1266 H   0  0  0  0  0  0  0  0  0  0  0  0
   40.7767   14.8182   57.2210 H   0  0  0  0  0  0  0  0  0  0  0  0
   44.6465   11.2150   54.3907 H   0  0  0  0  0  0  0  0  0  0  0  0
   44.8134   12.6440   53.3507 H   0  0  0  0  0  0  0  0  0  0  0  0
   41.5943    9.9242   55.9704 H   0  0  0  0  0  0  0  0  0  0  0  0
   41.3780   11.6620   55.7617 H   0  0  0  0  0  0  0  0  0  0  0  0
   39.0902   12.0151   55.3658 H   0  0  0  0  0  0  0  0  0  0  0  0
   39.3842    9.7078   56.3732 H   0  0  0  0  0  0  0  0  0  0  0  0
   45.5129    6.5896   51.0354 H   0  0  0  0  0  0  0  0  0  0  0  0
   44.8782    7.5408   52.4047 H   0  0  0  0  0  0  0  0  0  0  0  0
   44.8804    7.1142   48.8918 H   0  0  0  0  0  0  0  0  0  0  0  0
  1  9  1  0
  1 32  1  0
  1 37  1  0
  2  8  1  0
  2 37  1  0
  2 38  1  0
  3  4  2  0
  3 38  1  0
  3 40  1  0
  4  6  1  0
  4 39  1  0
  5 38  1  0
  5 39  2  0
  6 42  1  0
  6 43  2  0
  7 40  2  0
  7 41  1  0
  7 42  1  0
  8  9  1  0
  8 10  1  0
  9 33  1  0
 10 34  1  0
 11 12  2  0
 12 13  1  1
 12 14  1  0
 12 31  1  0
 15 14  1  0
 15 16  1  0
 15 29  1  0
 16 17  1  0
 16 19  1  0
 17 18  1  0
 19 20  1  0
 20 21  1  0
 20 29  1  0
 21 22  1  0
 21 27  1  0
 22 23  2  0
 23 24  1  0
 24 25  2  0
 24 26  1  0
 26 27  1  0
 27 28  2  0
 29 30  1  0
 31 32  1  0
 33 34  1  0
 34 35  1  6
 34 36  1  0
  1 44  1  1
  2 45  1  6
  5 46  1  0
  8 47  1  6
  9 48  1  1
 10 49  1  0
 10 50  1  0
 15 51  1  6
 16 52  1  1
 17 53  1  0
 17 54  1  0
 18 55  1  0
 20 56  1  1
 22 57  1  0
 23 58  1  0
 26 59  1  0
 29 60  1  6
 30 61  1  0
 32 62  1  0
 32 63  1  0
 33 64  1  0
 33 65  1  0
 35 66  1  0
 36 67  1  0
 41 68  1  0
 41 69  1  0
 42 70  1  0
M  CHG  1  13  -1
M  END
>  <filename_input>  (2) 
7C0U_FGO_docked.sdf

>  <pdb_id>  (2) 
7C0U_FGO

>  <pose_rank>  (2) 
1

>  <num_atoms_heavy>  (2) 
43

>  <num_torsions>  (2) 
8

>  <pose>  (2) 
[44.209619485438594, 12.196383043084293, 54.15387247381595, 1.5616234533834616, 0.5892246159498968, 0.7382870615541932, 1.2472731537811186, -15.574091823202581, 39.48033398540297, 47.500280187424266, 11.81310221536642, 6.3010621758165195, 0.0844267954360188, 1.462134848866968]

>  <energy>  (2) 
-1082.1656833441239

>  <inter_energy>  (2) 
-1094.945036680866

>  <intra_energy>  (2) 
27.785346391586344

>  <rmsd>  (2) 
1.81985

>  <sdf_rank>  (2) 
0

$$$$

     RDKit          3D

 70 75  0  0  0  0  0  0  0  0999 V2000
   41.7158   16.0597   54.9055 C   0  0  1  0  0  0  0  0  0  0  0  0
   40.9589   17.8050   56.1950 C   0  0  1  0  0  0  0  0  0  0  0  0
   39.1705   18.8928   57.3489 C   0  0  0  0  0  0  0  0  0  0  0  0
   38.5700   18.9345   58.6739 C   0  0  0  0  0  0  0  0  0  0  0  0
   40.2444   17.5462   58.6589 C   0  0  0  0  0  0  0  0  0  0  0  0
   37.4074   19.8087   58.8227 C   0  0  0  0  0  0  0  0  0  0  0  0
   37.6200   20.4317   56.5678 C   0  0  0  0  0  0  0  0  0  0  0  0
   42.4588   17.8304   56.3914 C   0  0  1  0  0  0  0  0  0  0  0  0
   42.9475   16.6868   55.4999 C   0  0  2  0  0  0  0  0  0  0  0  0
   43.0089   19.1025   55.8664 C   0  0  0  0  0  0  0  0  0  0  0  0
   44.7424   12.4822   56.0948 O   0  0  0  0  0  0  0  0  0  0  0  0
   44.0312   13.2375   55.0016 P   0  0  1  0  0  0  0  0  0  0  0  0
   45.0144   13.9423   53.9112 O   0  0  0  0  0  0  0  0  0  0  0  0
   43.1416   12.1822   54.1985 O   0  0  0  0  0  0  0  0  0  0  0  0
   42.4987   12.4863   52.9553 C   0  0  2  0  0  0  0  0  0  0  0  0
   41.2808   11.6006   52.9398 C   0  0  1  0  0  0  0  0  0  0  0  0
   40.0943   12.2695   52.2532 C   0  0  0  0  0  0  0  0  0  0  0  0
   39.4624   11.4554   51.2559 O   0  0  0  0  0  0  0  0  0  0  0  0
   41.7324   10.3993   52.3082 O   0  0  0  0  0  0  0  0  0  0  0  0
   43.0028   10.5825   51.7066 C   0  0  1  0  0  0  0  0  0  0  0  0
   43.0137    9.8956   50.3823 N   0  0  0  0  0  0  0  0  0  0  0  0
   42.2808   10.2394   49.2640 C   0  0  0  0  0  0  0  0  0  0  0  0
   42.3547    9.4206   48.1104 C   0  0  0  0  0  0  0  0  0  0  0  0
   43.2155    8.3036   48.1052 C   0  0  0  0  0  0  0  0  0  0  0  0
   43.3561    7.5176   47.0964 O   0  0  0  0  0  0  0  0  0  0  0  0
   43.9020    7.9892   49.2176 N   0  0  0  0  0  0  0  0  0  0  0  0
   43.8159    8.7442   50.3281 C   0  0  0  0  0  0  0  0  0  0  0  0
   44.4685    8.4470   51.3489 O   0  0  0  0  0  0  0  0  0  0  0  0
   43.2656   12.0825   51.7080 C   0  0  2  0  0  0  0  0  0  0  0  0
   44.6839   12.3446   51.7806 O   0  0  0  0  0  0  0  0  0  0  0  0
   43.0386   14.2878   55.6643 O   0  0  0  0  0  0  0  0  0  0  0  0
   41.8095   14.5587   55.0384 C   0  0  0  0  0  0  0  0  0  0  0  0
   43.8334   17.2337   54.4541 C   0  0  0  0  0  0  0  0  0  0  0  0
   43.6607   18.7417   54.5448 C   0  0  1  0  0  0  0  0  0  0  0  0
   42.8005   19.1674   53.5190 O   0  0  0  0  0  0  0  0  0  0  0  0
   44.9293   19.4109   54.4450 O   0  0  0  0  0  0  0  0  0  0  0  0
   40.6598   16.5078   55.7309 O   0  0  0  0  0  0  0  0  0  0  0  0
   40.1689   18.0668   57.4182 N   0  0  0  0  0  0  0  0  0  0  0  0
   39.2547   18.0745   59.4345 N   0  0  0  0  0  0  0  0  0  0  0  0
   38.7037   19.6522   56.3396 N   0  0  0  0  0  0  0  0  0  0  0  0
   37.1650   21.1641   55.5263 N   0  0  0  0  0  0  0  0  0  0  0  0
   37.0122   20.5103   57.7514 N   0  0  0  0  0  0  0  0  0  0  0  0
   36.8330   19.8995   59.9385 O   0  0  0  0  0  0  0  0  0  0  0  0
   41.5832   16.3186   53.8446 H   0  0  0  0  0  0  0  0  0  0  0  0
   40.6866   18.6115   55.4983 H   0  0  0  0  0  0  0  0  0  0  0  0
   40.9890   16.8092   58.9942 H   0  0  0  0  0  0  0  0  0  0  0  0
   42.7564   17.7373   57.4463 H   0  0  0  0  0  0  0  0  0  0  0  0
   43.5240   15.9349   56.0587 H   0  0  0  0  0  0  0  0  0  0  0  0
   42.2035   19.8356   55.7113 H   0  0  0  0  0  0  0  0  0  0  0  0
   43.7248   19.5593   56.5655 H   0  0  0  0  0  0  0  0  0  0  0  0
   42.3506   13.5756   52.9181 H   0  0  0  0  0  0  0  0  0  0  0  0
   40.8858   11.3877   53.9441 H   0  0  0  0  0  0  0  0  0  0  0  0
   39.3465   12.5193   53.0203 H   0  0  0  0  0  0  0  0  0  0  0  0
   40.4852   13.1588   51.7372 H   0  0  0  0  0  0  0  0  0  0  0  0
   38.9190   10.7553   51.6971 H   0  0  0  0  0  0  0  0  0  0  0  0
   43.8412   10.1197   52.2478 H   0  0  0  0  0  0  0  0  0  0  0  0
   41.6470   11.1384   49.2686 H   0  0  0  0  0  0  0  0  0  0  0  0
   41.7451    9.6543   47.2251 H   0  0  0  0  0  0  0  0  0  0  0  0
   44.5053    7.1544   49.2198 H   0  0  0  0  0  0  0  0  0  0  0  0
   42.9518   12.6364   50.8109 H   0  0  0  0  0  0  0  0  0  0  0  0
   44.9618   12.3960   52.7294 H   0  0  0  0  0  0  0  0  0  0  0  0
   40.9791   14.1793   55.6520 H   0  0  0  0  0  0  0  0  0  0  0  0
   41.7478   14.0685   54.0556 H   0  0  0  0  0  0  0  0  0  0  0  0
   44.8791   16.9516   54.6462 H   0  0  0  0  0  0  0  0  0  0  0  0
   43.5826   16.8474   53.4551 H   0  0  0  0  0  0  0  0  0  0  0  0
   41.9875   19.5696   53.9157 H   0  0  0  0  0  0  0  0  0  0  0  0
   45.2777   19.5947   55.3532 H   0  0  0  0  0  0  0  0  0  0  0  0
   36.3436   21.7740   55.6455 H   0  0  0  0  0  0  0  0  0  0  0  0
   37.6397   21.1120   54.6138 H   0  0  0  0  0  0  0  0  0  0  0  0
   36.2019   21.1389   57.8470 H   0  0  0  0  0  0  0  0  0  0  0  0
  1  9  1  0
  1 32  1  0
  1 37  1  0
  2  8  1  0
  2 37  1  0
  2 38  1  0
  3  4  2  0
  3 38  1  0
  3 40  1  0
  4  6  1  0
  4 39  1  0
  5 38  1  0
  5 39  2  0
  6 42  1  0
  6 43  2  0
  7 40  2  0
  7 41  1  0
  7 42  1  0
  8  9  1  0
  8 10  1  0
  9 33  1  0
 10 34  1  0
 11 12  2  0
 12 13  1  6
 12 14  1  0
 12 31  1  0
 15 14  1  0
 15 16  1  0
 15 29  1  0
 16 17  1  0
 16 19  1  0
 17 18  1  0
 19 20  1  0
 20 21  1  0
 20 29  1  0
 21 22  1  0
 21 27  1  0
 22 23  2  0
 23 24  1  0
 24 25  2  0
 24 26  1  0
 26 27  1  0
 27 28  2  0
 29 30  1  0
 31 32  1  0
 33 34  1  0
 34 35  1  6
 34 36  1  0
  1 44  1  6
  2 45  1  6
  5 46  1  0
  8 47  1  1
  9 48  1  1
 10 49  1  0
 10 50  1  0
 15 51  1  6
 16 52  1  1
 17 53  1  0
 17 54  1  0
 18 55  1  0
 20 56  1  1
 22 57  1  0
 23 58  1  0
 26 59  1  0
 29 60  1  6
 30 61  1  0
 32 62  1  0
 32 63  1  0
 33 64  1  0
 33 65  1  0
 35 66  1  0
 36 67  1  0
 41 68  1  0
 41 69  1  0
 42 70  1  0
M  CHG  1  13  -1
M  END
>  <filename_input>  (3) 
7C0U_FGO_docked.sdf

>  <pdb_id>  (3) 
7C0U_FGO

>  <pose_rank>  (3) 
2

>  <num_atoms_heavy>  (3) 
43

>  <num_torsions>  (3) 
8

>  <pose>  (3) 
[41.80948105680615, 14.55873323365893, 55.03837076954444, 1.409788176382231, -0.3671591959793852, -0.9580648398294329, 3.0704933246830293, -0.012196433651522346, 1.3811804036360056, 0.6747124741636543, -3.8992502888797422, -0.7057673322800532, 0.16995364882842834, 1.2051797190037412]

>  <energy>  (3) 
-924.6615204985103

>  <inter_energy>  (3) 
-955.0547908122323

>  <intra_energy>  (3) 
47.32812561011459

>  <rmsd>  (3) 
10.6694

>  <sdf_rank>  (3) 
0

$$$$

     RDKit          3D

 70 75  0  0  0  0  0  0  0  0999 V2000
   42.4698   12.2022   54.7004 C   0  0  1  0  0  0  0  0  0  0  0  0
   40.7710   12.7423   53.2498 C   0  0  1  0  0  0  0  0  0  0  0  0
   38.7238   13.8151   52.6403 C   0  0  0  0  0  0  0  0  0  0  0  0
   38.2471   15.1081   52.1723 C   0  0  0  0  0  0  0  0  0  0  0  0
   40.4043   15.1644   52.4453 C   0  0  0  0  0  0  0  0  0  0  0  0
   36.8031   15.2246   51.9743 C   0  0  0  0  0  0  0  0  0  0  0  0
   36.5590   12.9811   52.6260 C   0  0  0  0  0  0  0  0  0  0  0  0
   41.8948   12.2908   52.3431 C   0  0  1  0  0  0  0  0  0  0  0  0
   43.0020   11.9026   53.3254 C   0  0  2  0  0  0  0  0  0  0  0  0
   41.4794   11.0771   51.6009 C   0  0  0  0  0  0  0  0  0  0  0  0
   45.7847   15.6694   54.0692 O   0  0  0  0  0  0  0  0  0  0  0  0
   45.0067   15.0452   55.1990 P   0  0  1  0  0  0  0  0  0  0  0  0
   45.9184   14.5066   56.4365 O   0  0  0  0  0  0  0  0  0  0  0  0
   44.0495   16.1755   55.7960 O   0  0  0  0  0  0  0  0  0  0  0  0
   42.9188   16.6970   55.0885 C   0  0  2  0  0  0  0  0  0  0  0  0
   43.1346   18.1875   55.0888 C   0  0  1  0  0  0  0  0  0  0  0  0
   42.6289   18.8402   53.8063 C   0  0  0  0  0  0  0  0  0  0  0  0
   41.2097   18.7449   53.6235 O   0  0  0  0  0  0  0  0  0  0  0  0
   42.4804   18.6334   56.2799 O   0  0  0  0  0  0  0  0  0  0  0  0
   41.6724   17.6097   56.8353 C   0  0  1  0  0  0  0  0  0  0  0  0
   40.3894   18.2085   57.3054 N   0  0  0  0  0  0  0  0  0  0  0  0
   39.6023   19.1188   56.6289 C   0  0  0  0  0  0  0  0  0  0  0  0
   38.4519   19.6459   57.2656 C   0  0  0  0  0  0  0  0  0  0  0  0
   38.1011   19.1913   58.5536 C   0  0  0  0  0  0  0  0  0  0  0  0
   37.0659   19.6037   59.1969 O   0  0  0  0  0  0  0  0  0  0  0  0
   38.8997   18.3164   59.1894 N   0  0  0  0  0  0  0  0  0  0  0  0
   40.0104   17.8321   58.6043 C   0  0  0  0  0  0  0  0  0  0  0  0
   40.7353   17.0112   59.2018 O   0  0  0  0  0  0  0  0  0  0  0  0
   41.5776   16.5174   55.7784 C   0  0  2  0  0  0  0  0  0  0  0  0
   41.4072   15.2266   56.4029 O   0  0  0  0  0  0  0  0  0  0  0  0
   44.0765   13.8981   54.6106 O   0  0  0  0  0  0  0  0  0  0  0  0
   43.5192   12.9505   55.4866 C   0  0  0  0  0  0  0  0  0  0  0  0
   43.3088   10.4681   53.1658 C   0  0  0  0  0  0  0  0  0  0  0  0
   42.1970    9.9265   52.2813 C   0  0  1  0  0  0  0  0  0  0  0  0
   41.2574    9.2575   53.0833 O   0  0  0  0  0  0  0  0  0  0  0  0
   42.7233    9.0392   51.2799 O   0  0  0  0  0  0  0  0  0  0  0  0
   41.3841   13.0782   54.4741 O   0  0  0  0  0  0  0  0  0  0  0  0
   40.0121   13.9142   52.7603 N   0  0  0  0  0  0  0  0  0  0  0  0
   39.3165   15.9058   52.0886 N   0  0  0  0  0  0  0  0  0  0  0  0
   37.8826   12.7814   52.8325 N   0  0  0  0  0  0  0  0  0  0  0  0
   35.7410   11.9281   52.8497 N   0  0  0  0  0  0  0  0  0  0  0  0
   36.0508   14.1407   52.2096 N   0  0  0  0  0  0  0  0  0  0  0  0
   36.3138   16.3111   51.5702 O   0  0  0  0  0  0  0  0  0  0  0  0
   42.1909   11.2913   55.2503 H   0  0  0  0  0  0  0  0  0  0  0  0
   40.0329   11.9296   53.3185 H   0  0  0  0  0  0  0  0  0  0  0  0
   41.4413   15.5304   52.4718 H   0  0  0  0  0  0  0  0  0  0  0  0
   42.1910   13.0563   51.6108 H   0  0  0  0  0  0  0  0  0  0  0  0
   43.9342   12.4596   53.1497 H   0  0  0  0  0  0  0  0  0  0  0  0
   40.3894   10.9419   51.6626 H   0  0  0  0  0  0  0  0  0  0  0  0
   41.7318   11.1434   50.5323 H   0  0  0  0  0  0  0  0  0  0  0  0
   42.8678   16.1787   54.1196 H   0  0  0  0  0  0  0  0  0  0  0  0
   44.1971   18.4723   55.0981 H   0  0  0  0  0  0  0  0  0  0  0  0
   42.9040   19.9050   53.8283 H   0  0  0  0  0  0  0  0  0  0  0  0
   43.0945   18.2996   52.9690 H   0  0  0  0  0  0  0  0  0  0  0  0
   40.7645   18.7149   54.5073 H   0  0  0  0  0  0  0  0  0  0  0  0
   42.0847   17.1340   57.7374 H   0  0  0  0  0  0  0  0  0  0  0  0
   39.8652   19.4310   55.6074 H   0  0  0  0  0  0  0  0  0  0  0  0
   37.8369   20.4043   56.7592 H   0  0  0  0  0  0  0  0  0  0  0  0
   38.6567   18.0110   60.1426 H   0  0  0  0  0  0  0  0  0  0  0  0
   40.7252   16.5777   55.0857 H   0  0  0  0  0  0  0  0  0  0  0  0
   41.4210   15.3317   57.3872 H   0  0  0  0  0  0  0  0  0  0  0  0
   43.0594   13.4551   56.3492 H   0  0  0  0  0  0  0  0  0  0  0  0
   44.2888   12.2662   55.8732 H   0  0  0  0  0  0  0  0  0  0  0  0
   44.2880   10.3330   52.6830 H   0  0  0  0  0  0  0  0  0  0  0  0
   43.3608    9.9456   54.1324 H   0  0  0  0  0  0  0  0  0  0  0  0
   41.4708    9.4094   54.0380 H   0  0  0  0  0  0  0  0  0  0  0  0
   43.1758    8.2764   51.7199 H   0  0  0  0  0  0  0  0  0  0  0  0
   34.7254   12.0256   52.7079 H   0  0  0  0  0  0  0  0  0  0  0  0
   36.1333   11.0283   53.1619 H   0  0  0  0  0  0  0  0  0  0  0  0
   35.0336   14.2069   52.0619 H   0  0  0  0  0  0  0  0  0  0  0  0
  1  9  1  0
  1 32  1  0
  1 37  1  0
  2  8  1  0
  2 37  1  0
  2 38  1  0
  3  4  2  0
  3 38  1  0
  3 40  1  0
  4  6  1  0
  4 39  1  0
  5 38  1  0
  5 39  2  0
  6 42  1  0
  6 43  2  0
  7 40  2  0
  7 41  1  0
  7 42  1  0
  8  9  1  0
  8 10  1  0
  9 33  1  0
 10 34  1  0
 11 12  2  0
 12 13  1  1
 12 14  1  0
 12 31  1  0
 15 14  1  0
 15 16  1  0
 15 29  1  0
 16 17  1  0
 16 19  1  0
 17 18  1  0
 19 20  1  0
 20 21  1  0
 20 29  1  0
 21 22  1  0
 21 27  1  0
 22 23  2  0
 23 24  1  0
 24 25  2  0
 24 26  1  0
 26 27  1  0
 27 28  2  0
 29 30  1  0
 31 32  1  0
 33 34  1  0
 34 35  1  1
 34 36  1  0
  1 44  1  1
  2 45  1  1
  5 46  1  0
  8 47  1  6
  9 48  1  6
 10 49  1  0
 10 50  1  0
 15 51  1  6
 16 52  1  1
 17 53  1  0
 17 54  1  0
 18 55  1  0
 20 56  1  1
 22 57  1  0
 23 58  1  0
 26 59  1  0
 29 60  1  6
 30 61  1  0
 32 62  1  0
 32 63  1  0
 33 64  1  0
 33 65  1  0
 35 66  1  0
 36 67  1  0
 41 68  1  0
 41 69  1  0
 42 70  1  0
M  CHG  1  13  -1
M  END
>  <filename_input>  (4) 
7C0U_FGO_docked.sdf

>  <pdb_id>  (4) 
7C0U_FGO

>  <pose_rank>  (4) 
3

>  <num_atoms_heavy>  (4) 
43

>  <num_torsions>  (4) 
8

>  <pose>  (4) 
[43.51923444391179, 12.950504959087183, 55.48664983588827, 5.048409757329995, -0.3072030068052684, -3.1742704513675095, 10.104165420284762, 6.107836031210887, 0.26857135778502417, 6.059873287896466, 0.2736142276507415, -0.27460763405660643, -0.2210349662216533, 0.06659687515756268]

>  <energy>  (4) 
-879.3821630934793

>  <inter_energy>  (4) 
-892.7859195093434

>  <intra_energy>  (4) 
20.583727107568414

>  <rmsd>  (4) 
4.51054

>  <sdf_rank>  (4) 
0

$$$$

     RDKit          3D

 70 75  0  0  0  0  0  0  0  0999 V2000
   42.7671   16.8243   55.6501 C   0  0  1  0  0  0  0  0  0  0  0  0
   40.7854   17.7993   56.2856 C   0  0  1  0  0  0  0  0  0  0  0  0
   38.9761   18.8943   57.3995 C   0  0  0  0  0  0  0  0  0  0  0  0
   38.3711   18.9689   58.7211 C   0  0  0  0  0  0  0  0  0  0  0  0
   40.0681   17.6086   58.7549 C   0  0  0  0  0  0  0  0  0  0  0  0
   37.1940   19.8282   58.8387 C   0  0  0  0  0  0  0  0  0  0  0  0
   37.4028   20.3814   56.5654 C   0  0  0  0  0  0  0  0  0  0  0  0
   41.6176   18.9588   55.7838 C   0  0  1  0  0  0  0  0  0  0  0  0
   42.9168   18.2874   55.3333 C   0  0  2  0  0  0  0  0  0  0  0  0
   40.9662   19.5635   54.5978 C   0  0  0  0  0  0  0  0  0  0  0  0
   45.1001   12.8132   55.9643 O   0  0  0  0  0  0  0  0  0  0  0  0
   44.3680   13.9750   55.3433 P   0  0  1  0  0  0  0  0  0  0  0  0
   45.2086   14.7770   54.2020 O   0  0  0  0  0  0  0  0  0  0  0  0
   43.0695   13.3864   54.6240 O   0  0  0  0  0  0  0  0  0  0  0  0
   41.8338   13.1524   55.3092 C   0  0  2  0  0  0  0  0  0  0  0  0
   41.6549   11.6581   55.2542 C   0  0  1  0  0  0  0  0  0  0  0  0
   40.9818   11.1147   56.5106 C   0  0  0  0  0  0  0  0  0  0  0  0
   41.1633   11.9366   57.6716 O   0  0  0  0  0  0  0  0  0  0  0  0
   40.9213   11.4398   54.0459 O   0  0  0  0  0  0  0  0  0  0  0  0
   40.4137   12.6573   53.5270 C   0  0  1  0  0  0  0  0  0  0  0  0
   39.0248   12.4297   53.0322 N   0  0  0  0  0  0  0  0  0  0  0  0
   37.8605   12.4933   53.7712 C   0  0  0  0  0  0  0  0  0  0  0  0
   36.6295   12.1657   53.1516 C   0  0  0  0  0  0  0  0  0  0  0  0
   36.6079   11.8354   51.7808 C   0  0  0  0  0  0  0  0  0  0  0  0
   35.5341   11.5415   51.1359 O   0  0  0  0  0  0  0  0  0  0  0  0
   37.7629   11.7674   51.0959 N   0  0  0  0  0  0  0  0  0  0  0  0
   38.9405   12.0484   51.6832 C   0  0  0  0  0  0  0  0  0  0  0  0
   40.0030   11.9930   51.0316 O   0  0  0  0  0  0  0  0  0  0  0  0
   40.5935   13.6988   54.6234 C   0  0  2  0  0  0  0  0  0  0  0  0
   40.7718   15.0107   54.0467 O   0  0  0  0  0  0  0  0  0  0  0  0
   43.8706   14.9464   56.4994 O   0  0  0  0  0  0  0  0  0  0  0  0
   44.0185   16.3350   56.3388 C   0  0  0  0  0  0  0  0  0  0  0  0
   43.0997   18.5106   53.8861 C   0  0  0  0  0  0  0  0  0  0  0  0
   41.7736   19.0803   53.4076 C   0  0  1  0  0  0  0  0  0  0  0  0
   41.0358   18.0617   52.7818 O   0  0  0  0  0  0  0  0  0  0  0  0
   41.9826   20.1768   52.5016 O   0  0  0  0  0  0  0  0  0  0  0  0
   41.7056   16.7730   56.5817 O   0  0  0  0  0  0  0  0  0  0  0  0
   39.9877   18.0875   57.4979 N   0  0  0  0  0  0  0  0  0  0  0  0
   39.0677   18.1453   59.5107 N   0  0  0  0  0  0  0  0  0  0  0  0
   38.4999   19.6128   56.3650 N   0  0  0  0  0  0  0  0  0  0  0  0
   36.9389   21.0721   55.4997 N   0  0  0  0  0  0  0  0  0  0  0  0
   36.7904   20.4882   57.7443 N   0  0  0  0  0  0  0  0  0  0  0  0
   36.6150   19.9456   59.9496 O   0  0  0  0  0  0  0  0  0  0  0  0
   42.5911   16.2158   54.7508 H   0  0  0  0  0  0  0  0  0  0  0  0
   40.0486   17.5403   55.5110 H   0  0  0  0  0  0  0  0  0  0  0  0
   40.8237   16.8952   59.1156 H   0  0  0  0  0  0  0  0  0  0  0  0
   41.7567   19.7471   56.5382 H   0  0  0  0  0  0  0  0  0  0  0  0
   43.8009   18.6976   55.8433 H   0  0  0  0  0  0  0  0  0  0  0  0
   39.9223   19.2261   54.5177 H   0  0  0  0  0  0  0  0  0  0  0  0
   40.9421   20.6615   54.6584 H   0  0  0  0  0  0  0  0  0  0  0  0
   41.9078   13.6318   56.2965 H   0  0  0  0  0  0  0  0  0  0  0  0
   42.6068   11.1071   55.2368 H   0  0  0  0  0  0  0  0  0  0  0  0
   39.9030   11.0266   56.3144 H   0  0  0  0  0  0  0  0  0  0  0  0
   41.4530   10.1453   56.7301 H   0  0  0  0  0  0  0  0  0  0  0  0
   41.0421   11.3878   58.4866 H   0  0  0  0  0  0  0  0  0  0  0  0
   40.9460   13.0408   52.6440 H   0  0  0  0  0  0  0  0  0  0  0  0
   37.8884   12.7949   54.8287 H   0  0  0  0  0  0  0  0  0  0  0  0
   35.6973   12.1688   53.7354 H   0  0  0  0  0  0  0  0  0  0  0  0
   37.7459   11.4949   50.1028 H   0  0  0  0  0  0  0  0  0  0  0  0
   39.7466   13.8381   55.3114 H   0  0  0  0  0  0  0  0  0  0  0  0
   40.8627   15.6798   54.7706 H   0  0  0  0  0  0  0  0  0  0  0  0
   44.9021   16.5539   55.7213 H   0  0  0  0  0  0  0  0  0  0  0  0
   44.1588   16.8342   57.3089 H   0  0  0  0  0  0  0  0  0  0  0  0
   43.9160   19.2253   53.7048 H   0  0  0  0  0  0  0  0  0  0  0  0
   43.3688   17.5856   53.3551 H   0  0  0  0  0  0  0  0  0  0  0  0
   40.6186   17.4857   53.4704 H   0  0  0  0  0  0  0  0  0  0  0  0
   42.1408   21.0063   53.0183 H   0  0  0  0  0  0  0  0  0  0  0  0
   36.1073   21.6719   55.5971 H   0  0  0  0  0  0  0  0  0  0  0  0
   37.4170   20.9983   54.5903 H   0  0  0  0  0  0  0  0  0  0  0  0
   35.9696   21.1061   57.8177 H   0  0  0  0  0  0  0  0  0  0  0  0
  1  9  1  0
  1 32  1  0
  1 37  1  0
  2  8  1  0
  2 37  1  0
  2 38  1  0
  3  4  2  0
  3 38  1  0
  3 40  1  0
  4  6  1  0
  4 39  1  0
  5 38  1  0
  5 39  2  0
  6 42  1  0
  6 43  2  0
  7 40  2  0
  7 41  1  0
  7 42  1  0
  8  9  1  0
  8 10  1  0
  9 33  1  0
 10 34  1  0
 11 12  2  0
 12 13  1  6
 12 14  1  0
 12 31  1  0
 15 14  1  0
 15 16  1  0
 15 29  1  0
 16 17  1  0
 16 19  1  0
 17 18  1  0
 19 20  1  0
 20 21  1  0
 20 29  1  0
 21 22  1  0
 21 27  1  0
 22 23  2  0
 23 24  1  0
 24 25  2  0
 24 26  1  0
 26 27  1  0
 27 28  2  0
 29 30  1  0
 31 32  1  0
 33 34  1  0
 34 35  1  6
 34 36  1  0
  1 44  1  6
  2 45  1  6
  5 46  1  0
  8 47  1  1
  9 48  1  1
 10 49  1  0
 10 50  1  0
 15 51  1  1
 16 52  1  6
 17 53  1  0
 17 54  1  0
 18 55  1  0
 20 56  1  6
 22 57  1  0
 23 58  1  0
 26 59  1  0
 29 60  1  1
 30 61  1  0
 32 62  1  0
 32 63  1  0
 33 64  1  0
 33 65  1  0
 35 66  1  0
 36 67  1  0
 41 68  1  0
 41 69  1  0
 42 70  1  0
M  CHG  1  13  -1
M  END
>  <filename_input>  (5) 
7C0U_FGO_docked.sdf

>  <pdb_id>  (5) 
7C0U_FGO

>  <pose_rank>  (5) 
4

>  <num_atoms_heavy>  (5) 
43

>  <num_torsions>  (5) 
8

>  <pose>  (5) 
[44.01845288625823, 16.335027608591634, 56.33882989972682, 2.860136260725733, -0.30320066109629074, 2.3471917033789027, 0.031570420507185025, -1.1388322068705077, -1.1062051816302034, -0.6990085443479773, 0.5428810647317336, -0.079676428097872, 0.5048491268690543, -1.5035540963077585]

>  <energy>  (5) 
-758.957216517679

>  <inter_energy>  (5) 
-791.5918886010219

>  <intra_energy>  (5) 
31.485859086416855

>  <rmsd>  (5) 
9.50979

>  <sdf_rank>  (5) 
0

$$$$

     RDKit          3D

 70 75  0  0  0  0  0  0  0  0999 V2000
   41.4467   12.8534   54.7000 C   0  0  1  0  0  0  0  0  0  0  0  0
   39.3615   12.6052   53.7661 C   0  0  1  0  0  0  0  0  0  0  0  0
   37.5561   13.2799   52.3523 C   0  0  0  0  0  0  0  0  0  0  0  0
   37.1396   13.1766   50.9617 C   0  0  0  0  0  0  0  0  0  0  0  0
   39.0474   12.1707   51.2440 C   0  0  0  0  0  0  0  0  0  0  0  0
   35.8815   13.8384   50.6193 C   0  0  0  0  0  0  0  0  0  0  0  0
   35.6480   14.4971   52.8619 C   0  0  0  0  0  0  0  0  0  0  0  0
   39.7070   11.2177   54.2603 C   0  0  1  0  0  0  0  0  0  0  0  0
   41.0797   11.4094   54.9087 C   0  0  2  0  0  0  0  0  0  0  0  0
   38.7449   10.8087   55.3108 C   0  0  0  0  0  0  0  0  0  0  0  0
   44.6904   15.0619   53.9534 O   0  0  0  0  0  0  0  0  0  0  0  0
   44.5224   14.5497   55.3608 P   0  0  1  0  0  0  0  0  0  0  0  0
   45.9135   14.3587   56.1858 O   0  0  0  0  0  0  0  0  0  0  0  0
   43.6635   15.6334   56.1597 O   0  0  0  0  0  0  0  0  0  0  0  0
   42.9025   16.6600   55.5131 C   0  0  2  0  0  0  0  0  0  0  0  0
   43.4109   17.9399   56.1225 C   0  0  1  0  0  0  0  0  0  0  0  0
   43.4219   19.0882   55.1185 C   0  0  0  0  0  0  0  0  0  0  0  0
   42.3438   20.0190   55.2850 O   0  0  0  0  0  0  0  0  0  0  0  0
   42.5606   18.1483   57.2536 O   0  0  0  0  0  0  0  0  0  0  0  0
   41.4391   17.2821   57.2187 C   0  0  1  0  0  0  0  0  0  0  0  0
   40.2275   18.0433   57.6409 N   0  0  0  0  0  0  0  0  0  0  0  0
   39.5818   19.0349   56.9299 C   0  0  0  0  0  0  0  0  0  0  0  0
   38.4877   19.7109   57.5237 C   0  0  0  0  0  0  0  0  0  0  0  0
   38.0433   19.3224   58.8044 C   0  0  0  0  0  0  0  0  0  0  0  0
   37.0488   19.8702   59.4097 O   0  0  0  0  0  0  0  0  0  0  0  0
   38.7061   18.3638   59.4747 N   0  0  0  0  0  0  0  0  0  0  0  0
   39.7647   17.7361   58.9308 C   0  0  0  0  0  0  0  0  0  0  0  0
   40.3623   16.8397   59.5600 O   0  0  0  0  0  0  0  0  0  0  0  0
   41.4163   16.6661   55.8262 C   0  0  2  0  0  0  0  0  0  0  0  0
   40.8200   15.3515   55.8673 O   0  0  0  0  0  0  0  0  0  0  0  0
   43.6726   13.2066   55.3211 O   0  0  0  0  0  0  0  0  0  0  0  0
   42.8688   12.9369   54.1999 C   0  0  0  0  0  0  0  0  0  0  0  0
   40.9871   11.0778   56.3437 C   0  0  0  0  0  0  0  0  0  0  0  0
   39.4973   10.9516   56.6204 C   0  0  1  0  0  0  0  0  0  0  0  0
   39.0449   12.1275   57.2417 O   0  0  0  0  0  0  0  0  0  0  0  0
   39.2239    9.8095   57.4498 O   0  0  0  0  0  0  0  0  0  0  0  0
   40.5910   13.2872   53.6622 O   0  0  0  0  0  0  0  0  0  0  0  0
   38.6831   12.6443   52.4519 N   0  0  0  0  0  0  0  0  0  0  0  0
   38.1004   12.5034   50.3207 N   0  0  0  0  0  0  0  0  0  0  0  0
   36.7985   13.9104   53.2698 N   0  0  0  0  0  0  0  0  0  0  0  0
   34.9233   15.1400   53.8050 N   0  0  0  0  0  0  0  0  0  0  0  0
   35.2111   14.4531   51.6035 N   0  0  0  0  0  0  0  0  0  0  0  0
   35.4538   13.7933   49.4369 O   0  0  0  0  0  0  0  0  0  0  0  0
   41.3547   13.4474   55.6212 H   0  0  0  0  0  0  0  0  0  0  0  0
   38.6487   13.0572   54.4716 H   0  0  0  0  0  0  0  0  0  0  0  0
   39.9665   11.6035   51.0351 H   0  0  0  0  0  0  0  0  0  0  0  0
   39.6878   10.4598   53.4634 H   0  0  0  0  0  0  0  0  0  0  0  0
   41.8473   10.7555   54.4693 H   0  0  0  0  0  0  0  0  0  0  0  0
   37.8615   11.4641   55.3005 H   0  0  0  0  0  0  0  0  0  0  0  0
   38.3813    9.7820   55.1566 H   0  0  0  0  0  0  0  0  0  0  0  0
   43.0145   16.5199   54.4278 H   0  0  0  0  0  0  0  0  0  0  0  0
   44.4649   17.8846   56.4326 H   0  0  0  0  0  0  0  0  0  0  0  0
   44.3704   19.6343   55.2280 H   0  0  0  0  0  0  0  0  0  0  0  0
   43.3039   18.6398   54.1210 H   0  0  0  0  0  0  0  0  0  0  0  0
   42.1777   20.1624   56.2504 H   0  0  0  0  0  0  0  0  0  0  0  0
   41.4811   16.4431   57.9288 H   0  0  0  0  0  0  0  0  0  0  0  0
   39.9130   19.2971   55.9142 H   0  0  0  0  0  0  0  0  0  0  0  0
   37.9884   20.5328   56.9898 H   0  0  0  0  0  0  0  0  0  0  0  0
   38.3976   18.1050   60.4228 H   0  0  0  0  0  0  0  0  0  0  0  0
   40.8181   17.1914   55.0670 H   0  0  0  0  0  0  0  0  0  0  0  0
   40.6947   15.0753   56.8097 H   0  0  0  0  0  0  0  0  0  0  0  0
   43.1662   11.9829   53.7401 H   0  0  0  0  0  0  0  0  0  0  0  0
   42.9759   13.7216   53.4365 H   0  0  0  0  0  0  0  0  0  0  0  0
   41.5019   10.1291   56.5557 H   0  0  0  0  0  0  0  0  0  0  0  0
   41.4628   11.8412   56.9768 H   0  0  0  0  0  0  0  0  0  0  0  0
   39.0869   12.0185   58.2248 H   0  0  0  0  0  0  0  0  0  0  0  0
   39.2865   10.0710   58.4026 H   0  0  0  0  0  0  0  0  0  0  0  0
   34.0399   15.6035   53.5487 H   0  0  0  0  0  0  0  0  0  0  0  0
   35.2546   15.1663   54.7800 H   0  0  0  0  0  0  0  0  0  0  0  0
   34.3174   14.9125   51.3771 H   0  0  0  0  0  0  0  0  0  0  0  0
  1  9  1  0
  1 32  1  0
  1 37  1  0
  2  8  1  0
  2 37  1  0
  2 38  1  0
  3  4  2  0
  3 38  1  0
  3 40  1  0
  4  6  1  0
  4 39  1  0
  5 38  1  0
  5 39  2  0
  6 42  1  0
  6 43  2  0
  7 40  2  0
  7 41  1  0
  7 42  1  0
  8  9  1  0
  8 10  1  0
  9 33  1  0
 10 34  1  0
 11 12  2  0
 12 13  1  1
 12 14  1  0
 12 31  1  0
 15 14  1  0
 15 16  1  0
 15 29  1  0
 16 17  1  0
 16 19  1  0
 17 18  1  0
 19 20  1  0
 20 21  1  0
 20 29  1  0
 21 22  1  0
 21 27  1  0
 22 23  2  0
 23 24  1  0
 24 25  2  0
 24 26  1  0
 26 27  1  0
 27 28  2  0
 29 30  1  0
 31 32  1  0
 33 34  1  0
 34 35  1  1
 34 36  1  0
  1 44  1  1
  2 45  1  1
  5 46  1  0
  8 47  1  6
  9 48  1  6
 10 49  1  0
 10 50  1  0
 15 51  1  6
 16 52  1  1
 17 53  1  0
 17 54  1  0
 18 55  1  0
 20 56  1  1
 22 57  1  0
 23 58  1  0
 26 59  1  0
 29 60  1  6
 30 61  1  0
 32 62  1  0
 32 63  1  0
 33 64  1  0
 33 65  1  0
 35 66  1  0
 36 67  1  0
 41 68  1  0
 41 69  1  0
 42 70  1  0
M  CHG  1  13  -1
M  END
>  <filename_input>  (6) 
7C0U_FGO_docked.sdf

>  <pdb_id>  (6) 
7C0U_FGO

>  <pose_rank>  (6) 
5

>  <num_atoms_heavy>  (6) 
43

>  <num_torsions>  (6) 
8

>  <pose>  (6) 
[42.86881390744689, 12.93686932518024, 54.19988871897003, 2.2387664822347615, 0.8839819798002767, 0.3036651188646568, 7.662667842735195, -0.15460676624583106, -11.017232824854165, 2.8422506631483717, -6.9451175993868555, 6.034295632595205, 6.514949038159567, 0.73535138026083]

>  <energy>  (6) 
-777.9734404593756

>  <inter_energy>  (6) 
-803.3840837071413

>  <intra_energy>  (6) 
24.432797183908438

>  <rmsd>  (6) 
4.39307

>  <sdf_rank>  (6) 
0

$$$$

     RDKit          3D

 70 75  0  0  0  0  0  0  0  0999 V2000
   42.9450   15.9733   54.9604 C   0  0  1  0  0  0  0  0  0  0  0  0
   41.5179   17.3487   56.1239 C   0  0  1  0  0  0  0  0  0  0  0  0
   39.8407   18.2921   57.5417 C   0  0  0  0  0  0  0  0  0  0  0  0
   39.2992   18.1224   58.8818 C   0  0  0  0  0  0  0  0  0  0  0  0
   40.8939   16.6842   58.5358 C   0  0  0  0  0  0  0  0  0  0  0  0
   38.1928   19.0080   59.2421 C   0  0  0  0  0  0  0  0  0  0  0  0
   38.3446   20.0158   57.1258 C   0  0  0  0  0  0  0  0  0  0  0  0
   42.8164   18.1239   56.0801 C   0  0  1  0  0  0  0  0  0  0  0  0
   43.7418   17.2105   55.2733 C   0  0  2  0  0  0  0  0  0  0  0  0
   42.6207   19.3819   55.3214 C   0  0  0  0  0  0  0  0  0  0  0  0
   43.5265   12.0941   56.0079 O   0  0  0  0  0  0  0  0  0  0  0  0
   43.3294   12.3165   54.5304 P   0  0  1  0  0  0  0  0  0  0  0  0
   44.2198   11.3466   53.5718 O   0  0  0  0  0  0  0  0  0  0  0  0
   41.7987   11.9996   54.2039 O   0  0  0  0  0  0  0  0  0  0  0  0
   40.7070   12.6581   54.8565 C   0  0  2  0  0  0  0  0  0  0  0  0
   39.8539   11.5332   55.3809 C   0  0  1  0  0  0  0  0  0  0  0  0
   39.1943   11.8857   56.7104 C   0  0  0  0  0  0  0  0  0  0  0  0
   39.4597   10.9460   57.7606 O   0  0  0  0  0  0  0  0  0  0  0  0
   38.9374   11.2660   54.3158 O   0  0  0  0  0  0  0  0  0  0  0  0
   38.9793   12.2882   53.3346 C   0  0  1  0  0  0  0  0  0  0  0  0
   37.5870   12.5905   52.8922 N   0  0  0  0  0  0  0  0  0  0  0  0
   36.4859   12.7926   53.7000 C   0  0  0  0  0  0  0  0  0  0  0  0
   35.2166   12.9889   53.1024 C   0  0  0  0  0  0  0  0  0  0  0  0
   35.1094   13.0299   51.6969 C   0  0  0  0  0  0  0  0  0  0  0  0
   34.0005   13.2197   51.0725 O   0  0  0  0  0  0  0  0  0  0  0  0
   36.1999   12.8129   50.9411 N   0  0  0  0  0  0  0  0  0  0  0  0
   37.4048   12.5964   51.4997 C   0  0  0  0  0  0  0  0  0  0  0  0
   38.4103   12.4088   50.7853 O   0  0  0  0  0  0  0  0  0  0  0  0
   39.7740   13.4353   53.9440 C   0  0  2  0  0  0  0  0  0  0  0  0
   40.4519   14.1825   52.9108 O   0  0  0  0  0  0  0  0  0  0  0  0
   43.5758   13.8530   54.2044 O   0  0  0  0  0  0  0  0  0  0  0  0
   43.7821   14.7539   55.2635 C   0  0  0  0  0  0  0  0  0  0  0  0
   44.1586   17.9100   54.0426 C   0  0  0  0  0  0  0  0  0  0  0  0
   43.2662   19.1390   53.9701 C   0  0  1  0  0  0  0  0  0  0  0  0
   42.2352   18.9033   53.0454 O   0  0  0  0  0  0  0  0  0  0  0  0
   44.0227   20.3015   53.5917 O   0  0  0  0  0  0  0  0  0  0  0  0
   41.8701   16.0060   55.8775 O   0  0  0  0  0  0  0  0  0  0  0  0
   40.7950   17.4223   57.4126 N   0  0  0  0  0  0  0  0  0  0  0  0
   39.9675   17.1093   59.4421 N   0  0  0  0  0  0  0  0  0  0  0  0
   39.3741   19.2411   56.7081 N   0  0  0  0  0  0  0  0  0  0  0  0
   37.8868   20.9435   56.2552 N   0  0  0  0  0  0  0  0  0  0  0  0
   37.7918   19.9081   58.3338 N   0  0  0  0  0  0  0  0  0  0  0  0
   37.6713   18.9229   60.3840 O   0  0  0  0  0  0  0  0  0  0  0  0
   42.6234   15.9357   53.9092 H   0  0  0  0  0  0  0  0  0  0  0  0
   40.8302   17.7820   55.3828 H   0  0  0  0  0  0  0  0  0  0  0  0
   41.6108   15.8657   58.6968 H   0  0  0  0  0  0  0  0  0  0  0  0
   43.1978   18.3815   57.0792 H   0  0  0  0  0  0  0  0  0  0  0  0
   44.6552   16.9440   55.8252 H   0  0  0  0  0  0  0  0  0  0  0  0
   41.5485   19.5976   55.2030 H   0  0  0  0  0  0  0  0  0  0  0  0
   43.0640   20.2458   55.8383 H   0  0  0  0  0  0  0  0  0  0  0  0
   41.1344   13.3680   55.5799 H   0  0  0  0  0  0  0  0  0  0  0  0
   40.4313   10.6315   55.6332 H   0  0  0  0  0  0  0  0  0  0  0  0
   39.5622   12.8725   57.0281 H   0  0  0  0  0  0  0  0  0  0  0  0
   38.1077   11.8736   56.5396 H   0  0  0  0  0  0  0  0  0  0  0  0
   39.3350   11.3876   58.6378 H   0  0  0  0  0  0  0  0  0  0  0  0
   39.4955   12.0132   52.4029 H   0  0  0  0  0  0  0  0  0  0  0  0
   36.5928   12.8011   54.7948 H   0  0  0  0  0  0  0  0  0  0  0  0
   34.3212   13.1084   53.7300 H   0  0  0  0  0  0  0  0  0  0  0  0
   36.1114   12.8123   49.9149 H   0  0  0  0  0  0  0  0  0  0  0  0
   39.1952   14.2056   54.4747 H   0  0  0  0  0  0  0  0  0  0  0  0
   41.0555   14.8479   53.3267 H   0  0  0  0  0  0  0  0  0  0  0  0
   44.8452   15.0292   55.3261 H   0  0  0  0  0  0  0  0  0  0  0  0
   43.4972   14.3061   56.2270 H   0  0  0  0  0  0  0  0  0  0  0  0
   45.2170   18.2033   54.1036 H   0  0  0  0  0  0  0  0  0  0  0  0
   44.0602   17.2735   53.1509 H   0  0  0  0  0  0  0  0  0  0  0  0
   41.3941   18.7110   53.5308 H   0  0  0  0  0  0  0  0  0  0  0  0
   44.3304   20.7742   54.4053 H   0  0  0  0  0  0  0  0  0  0  0  0
   37.1054   21.5590   56.5222 H   0  0  0  0  0  0  0  0  0  0  0  0
   38.3195   21.0346   55.3250 H   0  0  0  0  0  0  0  0  0  0  0  0
   37.0214   20.5456   58.5804 H   0  0  0  0  0  0  0  0  0  0  0  0
  1  9  1  0
  1 32  1  0
  1 37  1  0
  2  8  1  0
  2 37  1  0
  2 38  1  0
  3  4  2  0
  3 38  1  0
  3 40  1  0
  4  6  1  0
  4 39  1  0
  5 38  1  0
  5 39  2  0
  6 42  1  0
  6 43  2  0
  7 40  2  0
  7 41  1  0
  7 42  1  0
  8  9  1  0
  8 10  1  0
  9 33  1  0
 10 34  1  0
 11 12  2  0
 12 13  1  6
 12 14  1  0
 12 31  1  0
 15 14  1  0
 15 16  1  0
 15 29  1  0
 16 17  1  0
 16 19  1  0
 17 18  1  0
 19 20  1  0
 20 21  1  0
 20 29  1  0
 21 22  1  0
 21 27  1  0
 22 23  2  0
 23 24  1  0
 24 25  2  0
 24 26  1  0
 26 27  1  0
 27 28  2  0
 29 30  1  0
 31 32  1  0
 33 34  1  0
 34 35  1  6
 34 36  1  0
  1 44  1  6
  2 45  1  6
  5 46  1  0
  8 47  1  1
  9 48  1  1
 10 49  1  0
 10 50  1  0
 15 51  1  1
 16 52  1  1
 17 53  1  0
 17 54  1  0
 18 55  1  0
 20 56  1  6
 22 57  1  0
 23 58  1  0
 26 59  1  0
 29 60  1  1
 30 61  1  0
 32 62  1  0
 32 63  1  0
 33 64  1  0
 33 65  1  0
 35 66  1  0
 36 67  1  0
 41 68  1  0
 41 69  1  0
 42 70  1  0
M  CHG  1  13  -1
M  END
>  <filename_input>  (7) 
7C0U_FGO_docked.sdf

>  <pdb_id>  (7) 
7C0U_FGO

>  <pose_rank>  (7) 
6

>  <num_atoms_heavy>  (7) 
43

>  <num_torsions>  (7) 
8

>  <pose>  (7) 
[43.78207733306732, 14.753932795333771, 55.263472645130975, 1.977719791795169, -1.7451216756779846, 3.3226312601485053, 0.6819315757308775, -0.6754532049280442, 1.2574348443244412, 3.088802742630968, 0.041209528814837346, -0.28280811392973626, -0.18393653623313486, 3.0355731570592783]

>  <energy>  (7) 
-758.9381490715421

>  <inter_energy>  (7) 
-759.3791877952568

>  <intra_energy>  (7) 
1.1438279611626543

>  <rmsd>  (7) 
9.42464

>  <sdf_rank>  (7) 
0

$$$$

     RDKit          3D

 70 75  0  0  0  0  0  0  0  0999 V2000
   42.1794   11.7105   54.4642 C   0  0  1  0  0  0  0  0  0  0  0  0
   40.1145   11.7814   53.4577 C   0  0  1  0  0  0  0  0  0  0  0  0
   37.7362   11.8766   53.6771 C   0  0  0  0  0  0  0  0  0  0  0  0
   36.6653   12.8615   53.7113 C   0  0  0  0  0  0  0  0  0  0  0  0
   38.5836   13.8562   53.4625 C   0  0  0  0  0  0  0  0  0  0  0  0
   35.3158   12.3333   53.9060 C   0  0  0  0  0  0  0  0  0  0  0  0
   36.2022   10.1586   53.9548 C   0  0  0  0  0  0  0  0  0  0  0  0
   41.0673   12.2166   52.3660 C   0  0  1  0  0  0  0  0  0  0  0  0
   42.4371   12.1295   53.0424 C   0  0  2  0  0  0  0  0  0  0  0  0
   41.0305   11.2386   51.2531 C   0  0  0  0  0  0  0  0  0  0  0  0
   45.4627   15.1884   54.1518 O   0  0  0  0  0  0  0  0  0  0  0  0
   44.8625   14.3559   55.2554 P   0  0  1  0  0  0  0  0  0  0  0  0
   45.9425   13.7433   56.3094 O   0  0  0  0  0  0  0  0  0  0  0  0
   43.8958   15.3096   56.0957 O   0  0  0  0  0  0  0  0  0  0  0  0
   43.0120   16.2589   55.4884 C   0  0  2  0  0  0  0  0  0  0  0  0
   43.5615   17.5980   55.9044 C   0  0  1  0  0  0  0  0  0  0  0  0
   43.3831   18.6535   54.8178 C   0  0  0  0  0  0  0  0  0  0  0  0
   43.4041   18.1272   53.4840 O   0  0  0  0  0  0  0  0  0  0  0  0
   42.8829   17.8868   57.1299 O   0  0  0  0  0  0  0  0  0  0  0  0
   41.7991   16.9973   57.3381 C   0  0  1  0  0  0  0  0  0  0  0  0
   40.6388   17.7667   57.8740 N   0  0  0  0  0  0  0  0  0  0  0  0
   40.2598   17.8815   59.1965 C   0  0  0  0  0  0  0  0  0  0  0  0
   39.0758   18.5900   59.5174 C   0  0  0  0  0  0  0  0  0  0  0  0
   38.3374   19.2110   58.4890 C   0  0  0  0  0  0  0  0  0  0  0  0
   37.2618   19.8869   58.6929 O   0  0  0  0  0  0  0  0  0  0  0  0
   38.7269   19.0647   57.2106 N   0  0  0  0  0  0  0  0  0  0  0  0
   39.8341   18.3689   56.8932 C   0  0  0  0  0  0  0  0  0  0  0  0
   40.1900   18.2522   55.7032 O   0  0  0  0  0  0  0  0  0  0  0  0
   41.5898   16.2609   56.0217 C   0  0  2  0  0  0  0  0  0  0  0  0
   41.0518   14.9427   56.2627 O   0  0  0  0  0  0  0  0  0  0  0  0
   43.9608   13.2176   54.6084 O   0  0  0  0  0  0  0  0  0  0  0  0
   42.9764   12.5934   55.3941 C   0  0  0  0  0  0  0  0  0  0  0  0
   43.2663   11.1388   52.3293 C   0  0  0  0  0  0  0  0  0  0  0  0
   42.3044   10.4264   51.3916 C   0  0  1  0  0  0  0  0  0  0  0  0
   41.9556    9.1848   51.9489 O   0  0  0  0  0  0  0  0  0  0  0  0
   42.8931   10.2450   50.0926 O   0  0  0  0  0  0  0  0  0  0  0  0
   40.8080   11.9841   54.6683 O   0  0  0  0  0  0  0  0  0  0  0  0
   38.8418   12.5343   53.5064 N   0  0  0  0  0  0  0  0  0  0  0  0
   37.2419   14.0620   53.5956 N   0  0  0  0  0  0  0  0  0  0  0  0
   37.4838   10.5575   53.7741 N   0  0  0  0  0  0  0  0  0  0  0  0
   35.9878    8.8286   54.0702 N   0  0  0  0  0  0  0  0  0  0  0  0
   35.1737   11.0046   54.0079 N   0  0  0  0  0  0  0  0  0  0  0  0
   34.3363   13.1220   53.9460 O   0  0  0  0  0  0  0  0  0  0  0  0
   42.4490   10.6600   54.6477 H   0  0  0  0  0  0  0  0  0  0  0  0
   39.8243   10.7374   53.2688 H   0  0  0  0  0  0  0  0  0  0  0  0
   39.3382   14.6469   53.3386 H   0  0  0  0  0  0  0  0  0  0  0  0
   40.8294   13.2100   51.9579 H   0  0  0  0  0  0  0  0  0  0  0  0
   42.9782   13.0870   53.0212 H   0  0  0  0  0  0  0  0  0  0  0  0
   40.1476   10.5884   51.3406 H   0  0  0  0  0  0  0  0  0  0  0  0
   40.9648   11.7344   50.2734 H   0  0  0  0  0  0  0  0  0  0  0  0
   42.9654   16.0264   54.4142 H   0  0  0  0  0  0  0  0  0  0  0  0
   44.6512   17.5926   56.0545 H   0  0  0  0  0  0  0  0  0  0  0  0
   42.4164   19.1538   54.9770 H   0  0  0  0  0  0  0  0  0  0  0  0
   44.2359   19.3433   54.9011 H   0  0  0  0  0  0  0  0  0  0  0  0
   43.4437   17.1386   53.5200 H   0  0  0  0  0  0  0  0  0  0  0  0
   41.9754   16.2250   58.1014 H   0  0  0  0  0  0  0  0  0  0  0  0
   40.8699   17.4282   59.9917 H   0  0  0  0  0  0  0  0  0  0  0  0
   38.7349   18.6552   60.5612 H   0  0  0  0  0  0  0  0  0  0  0  0
   38.1672   19.4934   56.4597 H   0  0  0  0  0  0  0  0  0  0  0  0
   40.8674   16.7046   55.3208 H   0  0  0  0  0  0  0  0  0  0  0  0
   40.9877   14.7857   57.2380 H   0  0  0  0  0  0  0  0  0  0  0  0
   42.3223   13.3488   55.8540 H   0  0  0  0  0  0  0  0  0  0  0  0
   43.4299   12.0070   56.2068 H   0  0  0  0  0  0  0  0  0  0  0  0
   44.0630   11.6393   51.7594 H   0  0  0  0  0  0  0  0  0  0  0  0
   43.7644   10.4420   53.0194 H   0  0  0  0  0  0  0  0  0  0  0  0
   41.9738    9.2496   52.9366 H   0  0  0  0  0  0  0  0  0  0  0  0
   43.8342    9.9551   50.1943 H   0  0  0  0  0  0  0  0  0  0  0  0
   35.0318    8.4712   54.2090 H   0  0  0  0  0  0  0  0  0  0  0  0
   36.7804    8.1728   54.0193 H   0  0  0  0  0  0  0  0  0  0  0  0
   34.2266   10.6197   54.1331 H   0  0  0  0  0  0  0  0  0  0  0  0
  1  9  1  0
  1 32  1  0
  1 37  1  0
  2  8  1  0
  2 37  1  0
  2 38  1  0
  3  4  2  0
  3 38  1  0
  3 40  1  0
  4  6  1  0
  4 39  1  0
  5 38  1  0
  5 39  2  0
  6 42  1  0
  6 43  2  0
  7 40  2  0
  7 41  1  0
  7 42  1  0
  8  9  1  0
  8 10  1  0
  9 33  1  0
 10 34  1  0
 11 12  2  0
 12 13  1  1
 12 14  1  0
 12 31  1  0
 15 14  1  0
 15 16  1  0
 15 29  1  0
 16 17  1  0
 16 19  1  0
 17 18  1  0
 19 20  1  0
 20 21  1  0
 20 29  1  0
 21 22  1  0
 21 27  1  0
 22 23  2  0
 23 24  1  0
 24 25  2  0
 24 26  1  0
 26 27  1  0
 27 28  2  0
 29 30  1  0
 31 32  1  0
 33 34  1  0
 34 35  1  1
 34 36  1  0
  1 44  1  6
  2 45  1  6
  5 46  1  0
  8 47  1  6
  9 48  1  1
 10 49  1  0
 10 50  1  0
 15 51  1  6
 16 52  1  1
 17 53  1  0
 17 54  1  0
 18 55  1  0
 20 56  1  1
 22 57  1  0
 23 58  1  0
 26 59  1  0
 29 60  1  6
 30 61  1  0
 32 62  1  0
 32 63  1  0
 33 64  1  0
 33 65  1  0
 35 66  1  0
 36 67  1  0
 41 68  1  0
 41 69  1  0
 42 70  1  0
M  CHG  1  13  -1
M  END
>  <filename_input>  (8) 
7C0U_FGO_docked.sdf

>  <pdb_id>  (8) 
7C0U_FGO

>  <pose_rank>  (8) 
7

>  <num_atoms_heavy>  (8) 
43

>  <num_torsions>  (8) 
8

>  <pose>  (8) 
[42.97640570795755, 12.593398872972667, 55.394113672521016, -0.5659404257855577, -0.34060833785691624, -0.004748979225582348, -3.4978408438594024, 6.303548452233667, 6.633937648953313, 6.69337728425388, -0.20962041238372675, -0.048244198274242686, -2.7100481454416565, -1.593204776732822]

>  <energy>  (8) 
-763.9356195089881

>  <inter_energy>  (8) 
-819.3780135852911

>  <intra_energy>  (8) 
58.34711860346845

>  <rmsd>  (8) 
4.87279

>  <sdf_rank>  (8) 
0

$$$$

     RDKit          3D

 70 75  0  0  0  0  0  0  0  0999 V2000
   40.9091   17.0441   53.1494 C   0  0  1  0  0  0  0  0  0  0  0  0
   40.6930   18.3695   55.0144 C   0  0  1  0  0  0  0  0  0  0  0  0
   39.6022   18.3963   57.1412 C   0  0  0  0  0  0  0  0  0  0  0  0
   38.5262   19.0975   57.8257 C   0  0  0  0  0  0  0  0  0  0  0  0
   38.7419   19.8608   55.8003 C   0  0  0  0  0  0  0  0  0  0  0  0
   38.2884   18.7058   59.2142 C   0  0  0  0  0  0  0  0  0  0  0  0
   40.0126   17.1207   59.0350 C   0  0  0  0  0  0  0  0  0  0  0  0
   41.4448   17.1557   55.5149 C   0  0  1  0  0  0  0  0  0  0  0  0
   41.6100   16.3029   54.2552 C   0  0  2  0  0  0  0  0  0  0  0  0
   42.7899   17.5619   55.9864 C   0  0  0  0  0  0  0  0  0  0  0  0
   40.6209   13.3038   51.2351 O   0  0  0  0  0  0  0  0  0  0  0  0
   39.6518   13.5245   52.3680 P   0  0  1  0  0  0  0  0  0  0  0  0
   38.0818   13.4902   51.9366 O   0  0  0  0  0  0  0  0  0  0  0  0
   39.8641   12.3342   53.4113 O   0  0  0  0  0  0  0  0  0  0  0  0
   41.1310   11.7036   53.6316 C   0  0  2  0  0  0  0  0  0  0  0  0
   42.1144   12.5780   52.8992 C   0  0  1  0  0  0  0  0  0  0  0  0
   43.4613   12.6474   53.6116 C   0  0  0  0  0  0  0  0  0  0  0  0
   43.3652   12.6479   55.0424 O   0  0  0  0  0  0  0  0  0  0  0  0
   42.1662   12.0173   51.5843 O   0  0  0  0  0  0  0  0  0  0  0  0
   41.5325   10.7501   51.5418 C   0  0  1  0  0  0  0  0  0  0  0  0
   42.3499    9.8293   50.6993 N   0  0  0  0  0  0  0  0  0  0  0  0
   43.2724    8.9017   51.1400 C   0  0  0  0  0  0  0  0  0  0  0  0
   44.0209    8.1654   50.1890 C   0  0  0  0  0  0  0  0  0  0  0  0
   43.7719    8.3520   48.8136 C   0  0  0  0  0  0  0  0  0  0  0  0
   44.3926    7.7141   47.8845 O   0  0  0  0  0  0  0  0  0  0  0  0
   42.8778    9.2757   48.4200 N   0  0  0  0  0  0  0  0  0  0  0  0
   42.1829   10.0009   49.3154 C   0  0  0  0  0  0  0  0  0  0  0  0
   41.3474   10.8458   48.9354 O   0  0  0  0  0  0  0  0  0  0  0  0
   41.3008   10.3377   52.9893 C   0  0  2  0  0  0  0  0  0  0  0  0
   40.1343    9.4925   53.0910 O   0  0  0  0  0  0  0  0  0  0  0  0
   40.0286   14.8788   53.1105 O   0  0  0  0  0  0  0  0  0  0  0  0
   40.0357   16.0809   52.3819 C   0  0  0  0  0  0  0  0  0  0  0  0
   43.0481   16.1382   53.9681 C   0  0  0  0  0  0  0  0  0  0  0  0
   43.7468   17.1204   54.8950 C   0  0  1  0  0  0  0  0  0  0  0  0
   44.1094   18.2633   54.1630 O   0  0  0  0  0  0  0  0  0  0  0  0
   44.9070   16.5219   55.4971 O   0  0  0  0  0  0  0  0  0  0  0  0
   40.0673   17.9609   53.8189 O   0  0  0  0  0  0  0  0  0  0  0  0
   39.6601   18.8844   55.9402 N   0  0  0  0  0  0  0  0  0  0  0  0
   38.0449   19.9996   56.9644 N   0  0  0  0  0  0  0  0  0  0  0  0
   40.3003   17.4158   57.7449 N   0  0  0  0  0  0  0  0  0  0  0  0
   40.7477   16.1463   59.6165 N   0  0  0  0  0  0  0  0  0  0  0  0
   39.0499   17.7296   59.7270 N   0  0  0  0  0  0  0  0  0  0  0  0
   37.3745   19.2658   59.8733 O   0  0  0  0  0  0  0  0  0  0  0  0
   41.6131   17.5232   52.4531 H   0  0  0  0  0  0  0  0  0  0  0  0
   41.4091   19.1957   54.8939 H   0  0  0  0  0  0  0  0  0  0  0  0
   38.5796   20.4540   54.8883 H   0  0  0  0  0  0  0  0  0  0  0  0
   40.9318   16.6425   56.3417 H   0  0  0  0  0  0  0  0  0  0  0  0
   41.1803   15.2968   54.3693 H   0  0  0  0  0  0  0  0  0  0  0  0
   42.8374   18.6524   56.1225 H   0  0  0  0  0  0  0  0  0  0  0  0
   43.0382   17.1087   56.9575 H   0  0  0  0  0  0  0  0  0  0  0  0
   41.2534   11.5793   54.7177 H   0  0  0  0  0  0  0  0  0  0  0  0
   41.8108   13.6346   52.8602 H   0  0  0  0  0  0  0  0  0  0  0  0
   44.0597   11.7766   53.3055 H   0  0  0  0  0  0  0  0  0  0  0  0
   43.9249   13.6024   53.3235 H   0  0  0  0  0  0  0  0  0  0  0  0
   44.2743   12.6429   55.4342 H   0  0  0  0  0  0  0  0  0  0  0  0
   40.5461   10.7430   51.0551 H   0  0  0  0  0  0  0  0  0  0  0  0
   43.4245    8.7362   52.2168 H   0  0  0  0  0  0  0  0  0  0  0  0
   44.7907    7.4532   50.5210 H   0  0  0  0  0  0  0  0  0  0  0  0
   42.7218    9.4312   47.4138 H   0  0  0  0  0  0  0  0  0  0  0  0
   42.0914    9.7352   53.4604 H   0  0  0  0  0  0  0  0  0  0  0  0
   39.9210    9.3379   54.0453 H   0  0  0  0  0  0  0  0  0  0  0  0
   39.0141   16.4796   52.2972 H   0  0  0  0  0  0  0  0  0  0  0  0
   40.4174   15.9249   51.3622 H   0  0  0  0  0  0  0  0  0  0  0  0
   43.3700   15.1083   54.1818 H   0  0  0  0  0  0  0  0  0  0  0  0
   43.2836   16.3276   52.9104 H   0  0  0  0  0  0  0  0  0  0  0  0
   44.3417   18.9953   54.7878 H   0  0  0  0  0  0  0  0  0  0  0  0
   44.8259   16.5637   56.4829 H   0  0  0  0  0  0  0  0  0  0  0  0
   40.5702   15.8823   60.5962 H   0  0  0  0  0  0  0  0  0  0  0  0
   41.4853   15.6679   59.0798 H   0  0  0  0  0  0  0  0  0  0  0  0
   38.8837   17.4364   60.7004 H   0  0  0  0  0  0  0  0  0  0  0  0
  1  9  1  0
  1 32  1  0
  1 37  1  0
  2  8  1  0
  2 37  1  0
  2 38  1  0
  3  4  2  0
  3 38  1  0
  3 40  1  0
  4  6  1  0
  4 39  1  0
  5 38  1  0
  5 39  2  0
  6 42  1  0
  6 43  2  0
  7 40  2  0
  7 41  1  0
  7 42  1  0
  8  9  1  0
  8 10  1  0
  9 33  1  0
 10 34  1  0
 11 12  2  0
 12 13  1  6
 12 14  1  0
 12 31  1  0
 15 14  1  0
 15 16  1  0
 15 29  1  0
 16 17  1  0
 16 19  1  0
 17 18  1  0
 19 20  1  0
 20 21  1  0
 20 29  1  0
 21 22  1  0
 21 27  1  0
 22 23  2  0
 23 24  1  0
 24 25  2  0
 24 26  1  0
 26 27  1  0
 27 28  2  0
 29 30  1  0
 31 32  1  0
 33 34  1  0
 34 35  1  6
 34 36  1  0
  1 44  1  6
  2 45  1  6
  5 46  1  0
  8 47  1  1
  9 48  1  1
 10 49  1  0
 10 50  1  0
 15 51  1  1
 16 52  1  6
 17 53  1  0
 17 54  1  0
 18 55  1  0
 20 56  1  6
 22 57  1  0
 23 58  1  0
 26 59  1  0
 29 60  1  1
 30 61  1  0
 32 62  1  0
 32 63  1  0
 33 64  1  0
 33 65  1  0
 35 66  1  0
 36 67  1  0
 41 68  1  0
 41 69  1  0
 42 70  1  0
M  CHG  1  13  -1
M  END
>  <filename_input>  (9) 
7C0U_FGO_docked.sdf

>  <pdb_id>  (9) 
7C0U_FGO

>  <pose_rank>  (9) 
8

>  <num_atoms_heavy>  (9) 
43

>  <num_torsions>  (9) 
8

>  <pose>  (9) 
[40.0357430849939, 16.08092899475332, 52.381949877609365, -2.5538356814480543, 1.80405137053765, 1.6101959241964097, 9.525645152075692, -2.1990506142010338, -5.428573349590679, -14.618852646675148, 5.893490687494478, -10.459072826527144, 0.6992904686313455, -1.6988394374609017]

>  <energy>  (9) 
-749.6037878351653

>  <inter_energy>  (9) 
-970.167395384417

>  <intra_energy>  (9) 
224.6791939413997

>  <rmsd>  (9) 
10.5557

>  <sdf_rank>  (9) 
0

$$$$

     RDKit          3D

 70 75  0  0  0  0  0  0  0  0999 V2000
   40.6251   11.4748   53.2253 C   0  0  1  0  0  0  0  0  0  0  0  0
   42.5691   10.4269   52.5894 C   0  0  1  0  0  0  0  0  0  0  0  0
   42.7978    9.7497   50.3085 C   0  0  0  0  0  0  0  0  0  0  0  0
   43.4565    8.7194   49.5194 C   0  0  0  0  0  0  0  0  0  0  0  0
   43.9052    8.4415   51.6295 C   0  0  0  0  0  0  0  0  0  0  0  0
   43.2661    8.8019   48.0720 C   0  0  0  0  0  0  0  0  0  0  0  0
   41.9067   10.6918   48.3848 C   0  0  0  0  0  0  0  0  0  0  0  0
   42.8469   11.8930   52.3398 C   0  0  1  0  0  0  0  0  0  0  0  0
   41.5578   12.5764   52.8009 C   0  0  2  0  0  0  0  0  0  0  0  0
   43.9560   12.3458   53.2123 C   0  0  0  0  0  0  0  0  0  0  0  0
   36.5446   11.0118   54.4497 O   0  0  0  0  0  0  0  0  0  0  0  0
   36.9096   10.7229   53.0164 P   0  0  1  0  0  0  0  0  0  0  0  0
   36.1415    9.4438   52.3634 O   0  0  0  0  0  0  0  0  0  0  0  0
   36.4861   11.9982   52.1536 O   0  0  0  0  0  0  0  0  0  0  0  0
   35.5651   12.9895   52.6228 C   0  0  2  0  0  0  0  0  0  0  0  0
   34.3877   12.8745   51.6907 C   0  0  1  0  0  0  0  0  0  0  0  0
   33.0654   13.1452   52.4012 C   0  0  0  0  0  0  0  0  0  0  0  0
   31.9144   12.6616   51.6957 O   0  0  0  0  0  0  0  0  0  0  0  0
   34.6913   13.7880   50.6327 O   0  0  0  0  0  0  0  0  0  0  0  0
   35.7820   14.6258   50.9757 C   0  0  1  0  0  0  0  0  0  0  0  0
   35.4882   16.0140   50.5149 N   0  0  0  0  0  0  0  0  0  0  0  0
   35.8673   16.5880   49.3179 C   0  0  0  0  0  0  0  0  0  0  0  0
   35.5700   17.9525   49.0806 C   0  0  0  0  0  0  0  0  0  0  0  0
   34.8453   18.6834   50.0445 C   0  0  0  0  0  0  0  0  0  0  0  0
   34.5187   19.9199   49.9032 O   0  0  0  0  0  0  0  0  0  0  0  0
   34.5064   18.0970   51.2059 N   0  0  0  0  0  0  0  0  0  0  0  0
   34.8101   16.8096   51.4527 C   0  0  0  0  0  0  0  0  0  0  0  0
   34.4782   16.2753   52.5301 O   0  0  0  0  0  0  0  0  0  0  0  0
   36.0209   14.4299   52.4668 C   0  0  2  0  0  0  0  0  0  0  0  0
   37.4133   14.6424   52.7854 O   0  0  0  0  0  0  0  0  0  0  0  0
   38.4892   10.5794   52.9070 O   0  0  0  0  0  0  0  0  0  0  0  0
   39.2628   11.7178   52.6216 C   0  0  0  0  0  0  0  0  0  0  0  0
   41.8666   13.4846   53.9224 C   0  0  0  0  0  0  0  0  0  0  0  0
   43.2939   13.1434   54.3201 C   0  0  1  0  0  0  0  0  0  0  0  0
   43.2692   12.3333   55.4676 O   0  0  0  0  0  0  0  0  0  0  0  0
   44.0579   14.3364   54.5653 O   0  0  0  0  0  0  0  0  0  0  0  0
   41.1649   10.3100   52.6345 O   0  0  0  0  0  0  0  0  0  0  0  0
   43.0897    9.5115   51.5502 N   0  0  0  0  0  0  0  0  0  0  0  0
   44.1391    7.9544   50.3772 N   0  0  0  0  0  0  0  0  0  0  0  0
   42.0248   10.6907   49.7340 N   0  0  0  0  0  0  0  0  0  0  0  0
   41.1408   11.6639   47.8402 N   0  0  0  0  0  0  0  0  0  0  0  0
   42.4907    9.7874   47.5991 N   0  0  0  0  0  0  0  0  0  0  0  0
   43.8032    7.9465   47.3217 O   0  0  0  0  0  0  0  0  0  0  0  0
   40.5262   11.4064   54.3187 H   0  0  0  0  0  0  0  0  0  0  0  0
   43.0804   10.1300   53.5169 H   0  0  0  0  0  0  0  0  0  0  0  0
   44.3183    8.0254   52.5602 H   0  0  0  0  0  0  0  0  0  0  0  0
   43.1215   12.1075   51.2965 H   0  0  0  0  0  0  0  0  0  0  0  0
   41.0949   13.1806   52.0068 H   0  0  0  0  0  0  0  0  0  0  0  0
   44.4957   11.4825   53.6288 H   0  0  0  0  0  0  0  0  0  0  0  0
   44.6939   12.9459   52.6596 H   0  0  0  0  0  0  0  0  0  0  0  0
   35.4001   12.8057   53.6947 H   0  0  0  0  0  0  0  0  0  0  0  0
   34.2430   11.8574   51.2974 H   0  0  0  0  0  0  0  0  0  0  0  0
   33.0965   12.6584   53.3871 H   0  0  0  0  0  0  0  0  0  0  0  0
   32.9598   14.2378   52.4713 H   0  0  0  0  0  0  0  0  0  0  0  0
   31.2262   12.3724   52.3459 H   0  0  0  0  0  0  0  0  0  0  0  0
   36.7295   14.3792   50.4742 H   0  0  0  0  0  0  0  0  0  0  0  0
   36.3941   15.9927   48.5575 H   0  0  0  0  0  0  0  0  0  0  0  0
   35.9020   18.4384   48.1513 H   0  0  0  0  0  0  0  0  0  0  0  0
   34.0048   18.6437   51.9203 H   0  0  0  0  0  0  0  0  0  0  0  0
   35.4983   15.1229   53.1426 H   0  0  0  0  0  0  0  0  0  0  0  0
   37.5279   14.6599   53.7686 H   0  0  0  0  0  0  0  0  0  0  0  0
   38.8030   12.6113   53.0691 H   0  0  0  0  0  0  0  0  0  0  0  0
   39.3336   11.8881   51.5372 H   0  0  0  0  0  0  0  0  0  0  0  0
   41.7945   14.5342   53.6015 H   0  0  0  0  0  0  0  0  0  0  0  0
   41.1631   13.3633   54.7593 H   0  0  0  0  0  0  0  0  0  0  0  0
   43.2867   12.9050   56.2756 H   0  0  0  0  0  0  0  0  0  0  0  0
   44.1474   14.4762   55.5413 H   0  0  0  0  0  0  0  0  0  0  0  0
   41.0174   11.7107   46.8187 H   0  0  0  0  0  0  0  0  0  0  0  0
   40.6807   12.3576   48.4469 H   0  0  0  0  0  0  0  0  0  0  0  0
   42.3392    9.8487   46.5822 H   0  0  0  0  0  0  0  0  0  0  0  0
  1  9  1  0
  1 32  1  0
  1 37  1  0
  2  8  1  0
  2 37  1  0
  2 38  1  0
  3  4  2  0
  3 38  1  0
  3 40  1  0
  4  6  1  0
  4 39  1  0
  5 38  1  0
  5 39  2  0
  6 42  1  0
  6 43  2  0
  7 40  2  0
  7 41  1  0
  7 42  1  0
  8  9  1  0
  8 10  1  0
  9 33  1  0
 10 34  1  0
 11 12  2  0
 12 13  1  6
 12 14  1  0
 12 31  1  0
 15 14  1  0
 15 16  1  0
 15 29  1  0
 16 17  1  0
 16 19  1  0
 17 18  1  0
 19 20  1  0
 20 21  1  0
 20 29  1  0
 21 22  1  0
 21 27  1  0
 22 23  2  0
 23 24  1  0
 24 25  2  0
 24 26  1  0
 26 27  1  0
 27 28  2  0
 29 30  1  0
 31 32  1  0
 33 34  1  0
 34 35  1  1
 34 36  1  0
  1 44  1  1
  2 45  1  1
  5 46  1  0
  8 47  1  6
  9 48  1  6
 10 49  1  0
 10 50  1  0
 15 51  1  1
 16 52  1  6
 17 53  1  0
 17 54  1  0
 18 55  1  0
 20 56  1  6
 22 57  1  0
 23 58  1  0
 26 59  1  0
 29 60  1  1
 30 61  1  0
 32 62  1  0
 32 63  1  0
 33 64  1  0
 33 65  1  0
 35 66  1  0
 36 67  1  0
 41 68  1  0
 41 69  1  0
 42 70  1  0
M  CHG  1  13  -1
M  END
>  <filename_input>  (10) 
7C0U_FGO_docked.sdf

>  <pdb_id>  (10) 
7C0U_FGO

>  <pose_rank>  (10) 
9

>  <num_atoms_heavy>  (10) 
43

>  <num_torsions>  (10) 
8

>  <pose>  (10) 
[39.2627556648359, 11.717823770258617, 52.62158341619221, 1.4652101056968307, -1.9282852472206835, -2.2340587288023017, -0.18808567897068115, 3.0243067652616875, -12.55987747888595, 1.6138063790832178, -1.2544052289102652, -0.08236531970477003, -2.6420664543219656, -3.8904897273773575]

>  <energy>  (10) 
-739.5475669626401

>  <inter_energy>  (10) 
-789.9289536299123

>  <intra_energy>  (10) 
68.66066486712907

>  <rmsd>  (10) 
6.92739

>  <sdf_rank>  (10) 
0

$$$$

     RDKit          3D

 70 75  0  0  0  0  0  0  0  0999 V2000
   39.8538   12.6082   51.9796 C   0  0  1  0  0  0  0  0  0  0  0  0
   41.0813   10.7402   52.5137 C   0  0  1  0  0  0  0  0  0  0  0  0
   42.4138    9.9007   50.7156 C   0  0  0  0  0  0  0  0  0  0  0  0
   43.5646    9.0365   50.4991 C   0  0  0  0  0  0  0  0  0  0  0  0
   43.1173    9.1620   52.6240 C   0  0  0  0  0  0  0  0  0  0  0  0
   43.9989    8.8845   49.1112 C   0  0  0  0  0  0  0  0  0  0  0  0
   42.2416   10.2887   48.4348 C   0  0  0  0  0  0  0  0  0  0  0  0
   41.4824   11.7525   53.5641 C   0  0  1  0  0  0  0  0  0  0  0  0
   40.6309   12.9749   53.2146 C   0  0  2  0  0  0  0  0  0  0  0  0
   41.0780   11.2668   54.9047 C   0  0  0  0  0  0  0  0  0  0  0  0
   39.0995   16.4012   51.3497 O   0  0  0  0  0  0  0  0  0  0  0  0
   37.9925   15.4201   51.0611 P   0  0  1  0  0  0  0  0  0  0  0  0
   36.9357   15.2084   52.2821 O   0  0  0  0  0  0  0  0  0  0  0  0
   37.1565   15.9983   49.8295 O   0  0  0  0  0  0  0  0  0  0  0  0
   35.7251   15.9876   49.7817 C   0  0  2  0  0  0  0  0  0  0  0  0
   35.4030   15.7610   48.3280 C   0  0  1  0  0  0  0  0  0  0  0  0
   34.1442   14.9195   48.1441 C   0  0  0  0  0  0  0  0  0  0  0  0
   33.3757   15.2652   46.9837 O   0  0  0  0  0  0  0  0  0  0  0  0
   35.3209   17.0798   47.7804 O   0  0  0  0  0  0  0  0  0  0  0  0
   35.2885   18.0594   48.8045 C   0  0  1  0  0  0  0  0  0  0  0  0
   34.2935   19.1088   48.4378 N   0  0  0  0  0  0  0  0  0  0  0  0
   32.9640   19.1556   48.8065 C   0  0  0  0  0  0  0  0  0  0  0  0
   32.1410   20.1894   48.2959 C   0  0  0  0  0  0  0  0  0  0  0  0
   32.7051   21.1813   47.4674 C   0  0  0  0  0  0  0  0  0  0  0  0
   32.0352   22.1631   46.9747 O   0  0  0  0  0  0  0  0  0  0  0  0
   33.9998   21.0951   47.1156 N   0  0  0  0  0  0  0  0  0  0  0  0
   34.7826   20.1004   47.5719 C   0  0  0  0  0  0  0  0  0  0  0  0
   35.9856   20.0403   47.2467 O   0  0  0  0  0  0  0  0  0  0  0  0
   35.0511   17.3090   50.1082 C   0  0  2  0  0  0  0  0  0  0  0  0
   35.6533   18.0174   51.2131 O   0  0  0  0  0  0  0  0  0  0  0  0
   38.6350   14.0431   50.5935 O   0  0  0  0  0  0  0  0  0  0  0  0
   39.9511   13.7347   50.9791 C   0  0  0  0  0  0  0  0  0  0  0  0
   39.7343   13.2792   54.3464 C   0  0  0  0  0  0  0  0  0  0  0  0
   39.8476   12.0762   55.2694 C   0  0  1  0  0  0  0  0  0  0  0  0
   38.7274   11.2490   55.0844 O   0  0  0  0  0  0  0  0  0  0  0  0
   39.9439   12.4898   56.6429 O   0  0  0  0  0  0  0  0  0  0  0  0
   40.5401   11.4918   51.4508 O   0  0  0  0  0  0  0  0  0  0  0  0
   42.1921    9.9126   51.9942 N   0  0  0  0  0  0  0  0  0  0  0  0
   43.9701    8.6255   51.7048 N   0  0  0  0  0  0  0  0  0  0  0  0
   41.7674   10.4838   49.6884 N   0  0  0  0  0  0  0  0  0  0  0  0
   41.5814   10.9068   47.4297 N   0  0  0  0  0  0  0  0  0  0  0  0
   43.2967    9.5209   48.1636 N   0  0  0  0  0  0  0  0  0  0  0  0
   44.9866    8.1527   48.8425 O   0  0  0  0  0  0  0  0  0  0  0  0
   38.7934   12.4096   52.1944 H   0  0  0  0  0  0  0  0  0  0  0  0
   40.3796   10.0265   52.9699 H   0  0  0  0  0  0  0  0  0  0  0  0
   43.1758    9.0063   53.7114 H   0  0  0  0  0  0  0  0  0  0  0  0
   42.5647   11.9483   53.5821 H   0  0  0  0  0  0  0  0  0  0  0  0
   41.2397   13.8718   53.0273 H   0  0  0  0  0  0  0  0  0  0  0  0
   40.8369   10.1941   54.8692 H   0  0  0  0  0  0  0  0  0  0  0  0
   41.8827   11.3879   55.6447 H   0  0  0  0  0  0  0  0  0  0  0  0
   35.3759   15.2448   50.5140 H   0  0  0  0  0  0  0  0  0  0  0  0
   36.1652   15.1676   47.8018 H   0  0  0  0  0  0  0  0  0  0  0  0
   34.4429   13.8642   48.0594 H   0  0  0  0  0  0  0  0  0  0  0  0
   33.5039   15.1097   49.0181 H   0  0  0  0  0  0  0  0  0  0  0  0
   32.5101   15.6545   47.2651 H   0  0  0  0  0  0  0  0  0  0  0  0
   36.2248   18.6216   48.9357 H   0  0  0  0  0  0  0  0  0  0  0  0
   32.5486   18.3992   49.4886 H   0  0  0  0  0  0  0  0  0  0  0  0
   31.0697   20.2182   48.5439 H   0  0  0  0  0  0  0  0  0  0  0  0
   34.4001   21.8041   46.4847 H   0  0  0  0  0  0  0  0  0  0  0  0
   34.0037   17.1922   50.4234 H   0  0  0  0  0  0  0  0  0  0  0  0
   35.3283   17.6351   52.0666 H   0  0  0  0  0  0  0  0  0  0  0  0
   40.4271   14.6125   51.4407 H   0  0  0  0  0  0  0  0  0  0  0  0
   40.5612   13.4435   50.1114 H   0  0  0  0  0  0  0  0  0  0  0  0
   40.0592   14.1948   54.8623 H   0  0  0  0  0  0  0  0  0  0  0  0
   38.6987   13.4540   54.0191 H   0  0  0  0  0  0  0  0  0  0  0  0
   38.3654   10.9817   55.9662 H   0  0  0  0  0  0  0  0  0  0  0  0
   39.7639   11.7163   57.2339 H   0  0  0  0  0  0  0  0  0  0  0  0
   41.9001   10.7921   46.4570 H   0  0  0  0  0  0  0  0  0  0  0  0
   40.7598   11.4925   47.6367 H   0  0  0  0  0  0  0  0  0  0  0  0
   43.5855    9.4116   47.1810 H   0  0  0  0  0  0  0  0  0  0  0  0
  1  9  1  0
  1 32  1  0
  1 37  1  0
  2  8  1  0
  2 37  1  0
  2 38  1  0
  3  4  2  0
  3 38  1  0
  3 40  1  0
  4  6  1  0
  4 39  1  0
  5 38  1  0
  5 39  2  0
  6 42  1  0
  6 43  2  0
  7 40  2  0
  7 41  1  0
  7 42  1  0
  8  9  1  0
  8 10  1  0
  9 33  1  0
 10 34  1  0
 11 12  2  0
 12 13  1  1
 12 14  1  0
 12 31  1  0
 15 14  1  0
 15 16  1  0
 15 29  1  0
 16 17  1  0
 16 19  1  0
 17 18  1  0
 19 20  1  0
 20 21  1  0
 20 29  1  0
 21 22  1  0
 21 27  1  0
 22 23  2  0
 23 24  1  0
 24 25  2  0
 24 26  1  0
 26 27  1  0
 27 28  2  0
 29 30  1  0
 31 32  1  0
 33 34  1  0
 34 35  1  1
 34 36  1  0
  1 44  1  1
  2 45  1  1
  5 46  1  0
  8 47  1  1
  9 48  1  6
 10 49  1  0
 10 50  1  0
 15 51  1  1
 16 52  1  6
 17 53  1  0
 17 54  1  0
 18 55  1  0
 20 56  1  1
 22 57  1  0
 23 58  1  0
 26 59  1  0
 29 60  1  1
 30 61  1  0
 32 62  1  0
 32 63  1  0
 33 64  1  0
 33 65  1  0
 35 66  1  0
 36 67  1  0
 41 68  1  0
 41 69  1  0
 42 70  1  0
M  CHG  1  13  -1
M  END
>  <filename_input>  (11) 
7C0U_FGO_docked.sdf

>  <pdb_id>  (11) 
7C0U_FGO

>  <pose_rank>  (11) 
10

>  <num_atoms_heavy>  (11) 
43

>  <num_torsions>  (11) 
8

>  <pose>  (11) 
[39.951097105409694, 13.734724266606836, 50.979120760012414, 1.0942994349156465, -3.703258972850222, -2.0800361667580742, 0.8423040695679929, 1.7624406545666935, -0.7410667759186054, 3.6183892621984195, -3.3335208554519493, -0.6067063534787477, 0.6276094247424249, 1.493863116136919]

>  <energy>  (11) 
-568.5168342253517

>  <inter_energy>  (11) 
-613.6636354313973

>  <intra_energy>  (11) 
44.754984347850126

>  <rmsd>  (11) 
7.75041

>  <sdf_rank>  (11) 
0

$$$$

     RDKit          3D

 70 75  0  0  0  0  0  0  0  0999 V2000
   38.0006   17.2762   52.7012 C   0  0  1  0  0  0  0  0  0  0  0  0
   38.9407   18.6609   54.2761 C   0  0  1  0  0  0  0  0  0  0  0  0
   40.7916   18.6297   55.7884 C   0  0  0  0  0  0  0  0  0  0  0  0
   42.0811   19.2781   55.9748 C   0  0  0  0  0  0  0  0  0  0  0  0
   41.1077   20.0557   54.1918 C   0  0  0  0  0  0  0  0  0  0  0  0
   42.8637   18.8280   57.1249 C   0  0  0  0  0  0  0  0  0  0  0  0
   41.1307   17.3471   57.6916 C   0  0  0  0  0  0  0  0  0  0  0  0
   38.1895   19.6047   53.3630 C   0  0  1  0  0  0  0  0  0  0  0  0
   37.5427   18.6641   52.3440 C   0  0  2  0  0  0  0  0  0  0  0  0
   37.1138   20.2836   54.1236 C   0  0  0  0  0  0  0  0  0  0  0  0
   37.8941   13.7671   50.9390 O   0  0  0  0  0  0  0  0  0  0  0  0
   38.8779   14.0847   52.0355 P   0  0  1  0  0  0  0  0  0  0  0  0
   38.3299   13.8041   53.5433 O   0  0  0  0  0  0  0  0  0  0  0  0
   40.1436   13.1337   51.8262 O   0  0  0  0  0  0  0  0  0  0  0  0
   40.1120   11.7233   52.0731 C   0  0  2  0  0  0  0  0  0  0  0  0
   41.3029   11.4741   52.9607 C   0  0  1  0  0  0  0  0  0  0  0  0
   41.0389   10.3678   53.9771 C   0  0  0  0  0  0  0  0  0  0  0  0
   40.8024   10.8436   55.3090 O   0  0  0  0  0  0  0  0  0  0  0  0
   42.3669   11.1981   52.0455 O   0  0  0  0  0  0  0  0  0  0  0  0
   41.8735   10.9887   50.7333 C   0  0  1  0  0  0  0  0  0  0  0  0
   42.6126    9.8496   50.1153 N   0  0  0  0  0  0  0  0  0  0  0  0
   43.1953    8.7850   50.7732 C   0  0  0  0  0  0  0  0  0  0  0  0
   43.9320    7.8314   50.0283 C   0  0  0  0  0  0  0  0  0  0  0  0
   44.0102    7.9553   48.6258 C   0  0  0  0  0  0  0  0  0  0  0  0
   44.6430    7.1267   47.8719 O   0  0  0  0  0  0  0  0  0  0  0  0
   43.4444    9.0139   48.0201 N   0  0  0  0  0  0  0  0  0  0  0  0
   42.7674    9.9406   48.7224 C   0  0  0  0  0  0  0  0  0  0  0  0
   42.2369   10.9111   48.1451 O   0  0  0  0  0  0  0  0  0  0  0  0
   40.3631   10.8426   50.8614 C   0  0  2  0  0  0  0  0  0  0  0  0
   39.7096   11.3005   49.6578 O   0  0  0  0  0  0  0  0  0  0  0  0
   39.3769   15.5839   51.8603 O   0  0  0  0  0  0  0  0  0  0  0  0
   38.4607   16.5678   51.4498 C   0  0  0  0  0  0  0  0  0  0  0  0
   36.0750   18.7887   52.4346 C   0  0  0  0  0  0  0  0  0  0  0  0
   35.8287   19.5993   53.6972 C   0  0  1  0  0  0  0  0  0  0  0  0
   35.4487   18.7302   54.7335 O   0  0  0  0  0  0  0  0  0  0  0  0
   34.8134   20.5936   53.4794 O   0  0  0  0  0  0  0  0  0  0  0  0
   39.1277   17.4800   53.5291 O   0  0  0  0  0  0  0  0  0  0  0  0
   40.2613   19.1535   54.7261 N   0  0  0  0  0  0  0  0  0  0  0  0
   42.2348   20.1301   54.9562 N   0  0  0  0  0  0  0  0  0  0  0  0
   40.3364   17.7046   56.6545 N   0  0  0  0  0  0  0  0  0  0  0  0
   40.6514   16.3999   58.5289 N   0  0  0  0  0  0  0  0  0  0  0  0
   42.3271   17.8895   57.9169 N   0  0  0  0  0  0  0  0  0  0  0  0
   43.9894   19.3414   57.3538 O   0  0  0  0  0  0  0  0  0  0  0  0
   37.2074   16.6823   53.1788 H   0  0  0  0  0  0  0  0  0  0  0  0
   38.3538   18.5287   55.1970 H   0  0  0  0  0  0  0  0  0  0  0  0
   40.9188   20.6416   53.2801 H   0  0  0  0  0  0  0  0  0  0  0  0
   38.8342   20.3764   52.9171 H   0  0  0  0  0  0  0  0  0  0  0  0
   37.8295   18.9037   51.3094 H   0  0  0  0  0  0  0  0  0  0  0  0
   37.2730   20.1647   55.2056 H   0  0  0  0  0  0  0  0  0  0  0  0
   37.0890   21.3648   53.9225 H   0  0  0  0  0  0  0  0  0  0  0  0
   39.1126   11.4787   52.4623 H   0  0  0  0  0  0  0  0  0  0  0  0
   41.5536   12.3319   53.6020 H   0  0  0  0  0  0  0  0  0  0  0  0
   40.1544    9.8015   53.6499 H   0  0  0  0  0  0  0  0  0  0  0  0
   41.9473    9.7488   54.0169 H   0  0  0  0  0  0  0  0  0  0  0  0
   41.1338   10.1767   55.9614 H   0  0  0  0  0  0  0  0  0  0  0  0
   42.0470   11.8216   50.0361 H   0  0  0  0  0  0  0  0  0  0  0  0
   43.0888    8.6783   51.8628 H   0  0  0  0  0  0  0  0  0  0  0  0
   44.4394    7.0005   50.5403 H   0  0  0  0  0  0  0  0  0  0  0  0
   43.5309    9.1174   46.9990 H   0  0  0  0  0  0  0  0  0  0  0  0
   39.9778    9.8198   50.9848 H   0  0  0  0  0  0  0  0  0  0  0  0
   38.9231   11.8516   49.8985 H   0  0  0  0  0  0  0  0  0  0  0  0
   37.6044   16.1008   50.9413 H   0  0  0  0  0  0  0  0  0  0  0  0
   38.9240   17.2716   50.7427 H   0  0  0  0  0  0  0  0  0  0  0  0
   35.6759   19.3131   51.5539 H   0  0  0  0  0  0  0  0  0  0  0  0
   35.5774   17.8082   52.4682 H   0  0  0  0  0  0  0  0  0  0  0  0
   35.6352   19.1568   55.6071 H   0  0  0  0  0  0  0  0  0  0  0  0
   34.4793   20.9207   54.3520 H   0  0  0  0  0  0  0  0  0  0  0  0
   41.2149   16.0912   59.3340 H   0  0  0  0  0  0  0  0  0  0  0  0
   39.7227   15.9870   58.3618 H   0  0  0  0  0  0  0  0  0  0  0  0
   42.8637   17.5730   58.7372 H   0  0  0  0  0  0  0  0  0  0  0  0
  1  9  1  0
  1 32  1  0
  1 37  1  0
  2  8  1  0
  2 37  1  0
  2 38  1  0
  3  4  2  0
  3 38  1  0
  3 40  1  0
  4  6  1  0
  4 39  1  0
  5 38  1  0
  5 39  2  0
  6 42  1  0
  6 43  2  0
  7 40  2  0
  7 41  1  0
  7 42  1  0
  8  9  1  0
  8 10  1  0
  9 33  1  0
 10 34  1  0
 11 12  2  0
 12 13  1  1
 12 14  1  0
 12 31  1  0
 15 14  1  0
 15 16  1  0
 15 29  1  0
 16 17  1  0
 16 19  1  0
 17 18  1  0
 19 20  1  0
 20 21  1  0
 20 29  1  0
 21 22  1  0
 21 27  1  0
 22 23  2  0
 23 24  1  0
 24 25  2  0
 24 26  1  0
 26 27  1  0
 27 28  2  0
 29 30  1  0
 31 32  1  0
 33 34  1  0
 34 35  1  1
 34 36  1  0
  1 44  1  1
  2 45  1  1
  5 46  1  0
  8 47  1  6
  9 48  1  6
 10 49  1  0
 10 50  1  0
 15 51  1  1
 16 52  1  1
 17 53  1  0
 17 54  1  0
 18 55  1  0
 20 56  1  6
 22 57  1  0
 23 58  1  0
 26 59  1  0
 29 60  1  1
 30 61  1  0
 32 62  1  0
 32 63  1  0
 33 64  1  0
 33 65  1  0
 35 66  1  0
 36 67  1  0
 41 68  1  0
 41 69  1  0
 42 70  1  0
M  CHG  1  13  -1
M  END
>  <filename_input>  (12) 
7C0U_FGO_docked.sdf

>  <pdb_id>  (12) 
7C0U_FGO

>  <pose_rank>  (12) 
11

>  <num_atoms_heavy>  (12) 
43

>  <num_torsions>  (12) 
8

>  <pose>  (12) 
[38.460681634023295, 16.56782231263548, 51.44984858249309, -3.2677894129953096, 0.16371872499474183, 0.9115985292500732, -0.49748697444084605, -5.852834168703677, -0.9506055667721774, -2.4135859346082755, -2.1872451432918467, -0.32661020155170434, -0.514434163967132, -2.8846748260748964]

>  <energy>  (12) 
-713.079347400485

>  <inter_energy>  (12) 
-719.3942750102133

>  <intra_energy>  (12) 
9.740595609046368

>  <rmsd>  (12) 
10.6897

>  <sdf_rank>  (12) 
0

$$$$

     RDKit          3D

 70 75  0  0  0  0  0  0  0  0999 V2000
   43.0610   15.7090   55.3208 C   0  0  1  0  0  0  0  0  0  0  0  0
   41.7072   17.2607   56.3411 C   0  0  1  0  0  0  0  0  0  0  0  0
   39.8800   18.2738   57.5024 C   0  0  0  0  0  0  0  0  0  0  0  0
   39.2205   18.2129   58.7984 C   0  0  0  0  0  0  0  0  0  0  0  0
   40.8789   16.8066   58.7403 C   0  0  0  0  0  0  0  0  0  0  0  0
   38.0618   19.0883   58.9688 C   0  0  0  0  0  0  0  0  0  0  0  0
   38.3830   19.8950   56.7862 C   0  0  0  0  0  0  0  0  0  0  0  0
   43.0922   17.8604   56.4457 C   0  0  1  0  0  0  0  0  0  0  0  0
   43.9729   16.8328   55.7318 C   0  0  2  0  0  0  0  0  0  0  0  0
   43.1438   19.1316   55.6854 C   0  0  0  0  0  0  0  0  0  0  0  0
   44.2629   11.5491   53.3339 O   0  0  0  0  0  0  0  0  0  0  0  0
   43.2911   12.5043   53.9776 P   0  0  1  0  0  0  0  0  0  0  0  0
   42.0276   12.9242   53.0396 O   0  0  0  0  0  0  0  0  0  0  0  0
   42.6835   11.7698   55.2589 O   0  0  0  0  0  0  0  0  0  0  0  0
   41.2765   11.6482   55.4971 C   0  0  2  0  0  0  0  0  0  0  0  0
   40.9510   12.8064   56.4032 C   0  0  1  0  0  0  0  0  0  0  0  0
   39.5623   13.3752   56.1302 C   0  0  0  0  0  0  0  0  0  0  0  0
   39.5032   14.2508   54.9960 O   0  0  0  0  0  0  0  0  0  0  0  0
   41.1277   12.2776   57.7205 O   0  0  0  0  0  0  0  0  0  0  0  0
   41.2545   10.8661   57.6938 C   0  0  1  0  0  0  0  0  0  0  0  0
   40.4803   10.2900   58.8315 N   0  0  0  0  0  0  0  0  0  0  0  0
   39.2230   10.6707   59.2559 C   0  0  0  0  0  0  0  0  0  0  0  0
   38.6709   10.0662   60.4120 C   0  0  0  0  0  0  0  0  0  0  0  0
   39.3893    9.0496   61.0747 C   0  0  0  0  0  0  0  0  0  0  0  0
   38.9560    8.4369   62.1198 O   0  0  0  0  0  0  0  0  0  0  0  0
   40.6180    8.7155   60.6433 N   0  0  0  0  0  0  0  0  0  0  0  0
   41.1631    9.3048   59.5634 C   0  0  0  0  0  0  0  0  0  0  0  0
   42.2994    8.9756   59.1673 O   0  0  0  0  0  0  0  0  0  0  0  0
   40.8524   10.4258   56.2926 C   0  0  2  0  0  0  0  0  0  0  0  0
   41.5504    9.2160   55.9257 O   0  0  0  0  0  0  0  0  0  0  0  0
   44.0888   13.7784   54.4951 O   0  0  0  0  0  0  0  0  0  0  0  0
   43.6956   14.3918   55.6972 C   0  0  0  0  0  0  0  0  0  0  0  0
   44.6068   17.4695   54.5611 C   0  0  0  0  0  0  0  0  0  0  0  0
   43.8940   18.8038   54.4081 C   0  0  1  0  0  0  0  0  0  0  0  0
   42.9468   18.7022   53.3757 O   0  0  0  0  0  0  0  0  0  0  0  0
   44.8310   19.8573   54.1266 O   0  0  0  0  0  0  0  0  0  0  0  0
   41.9070   15.8831   56.1179 O   0  0  0  0  0  0  0  0  0  0  0  0
   40.8653   17.4305   57.5459 N   0  0  0  0  0  0  0  0  0  0  0  0
   39.8608   17.2823   59.5132 N   0  0  0  0  0  0  0  0  0  0  0  0
   39.4676   19.1218   56.5412 N   0  0  0  0  0  0  0  0  0  0  0  0
   37.9836   20.7186   55.7911 N   0  0  0  0  0  0  0  0  0  0  0  0
   37.7231   19.8829   57.9441 N   0  0  0  0  0  0  0  0  0  0  0  0
   37.4385   19.0935   60.0617 O   0  0  0  0  0  0  0  0  0  0  0  0
   42.8522   15.7112   54.2408 H   0  0  0  0  0  0  0  0  0  0  0  0
   41.1650   17.7782   55.5359 H   0  0  0  0  0  0  0  0  0  0  0  0
   41.5996   16.0334   59.0448 H   0  0  0  0  0  0  0  0  0  0  0  0
   43.3939   18.0685   57.4829 H   0  0  0  0  0  0  0  0  0  0  0  0
   44.7794   16.4510   56.3751 H   0  0  0  0  0  0  0  0  0  0  0  0
   42.1276   19.4846   55.4556 H   0  0  0  0  0  0  0  0  0  0  0  0
   43.6370   19.9316   56.2569 H   0  0  0  0  0  0  0  0  0  0  0  0
   40.7789   11.5982   54.5174 H   0  0  0  0  0  0  0  0  0  0  0  0
   41.6015   13.6789   56.2434 H   0  0  0  0  0  0  0  0  0  0  0  0
   38.8730   12.5360   55.9556 H   0  0  0  0  0  0  0  0  0  0  0  0
   39.2855   13.9749   57.0099 H   0  0  0  0  0  0  0  0  0  0  0  0
   39.4398   15.1888   55.3062 H   0  0  0  0  0  0  0  0  0  0  0  0
   42.2757   10.4908   57.8562 H   0  0  0  0  0  0  0  0  0  0  0  0
   38.6566   11.4345   58.7029 H   0  0  0  0  0  0  0  0  0  0  0  0
   37.6891   10.3874   60.7900 H   0  0  0  0  0  0  0  0  0  0  0  0
   41.1524    7.9948   61.1491 H   0  0  0  0  0  0  0  0  0  0  0  0
   39.7947   10.1618   56.1459 H   0  0  0  0  0  0  0  0  0  0  0  0
   41.8283    8.7341   56.7447 H   0  0  0  0  0  0  0  0  0  0  0  0
   44.5714   14.5624   56.3407 H   0  0  0  0  0  0  0  0  0  0  0  0
   42.9917   13.7569   56.2552 H   0  0  0  0  0  0  0  0  0  0  0  0
   45.6815   17.6228   54.7385 H   0  0  0  0  0  0  0  0  0  0  0  0
   44.5234   16.8492   53.6565 H   0  0  0  0  0  0  0  0  0  0  0  0
   42.0422   18.6051   53.7661 H   0  0  0  0  0  0  0  0  0  0  0  0
   45.1675   20.2357   54.9773 H   0  0  0  0  0  0  0  0  0  0  0  0
   37.1642   21.3283   55.9249 H   0  0  0  0  0  0  0  0  0  0  0  0
   38.4986   20.7364   54.8993 H   0  0  0  0  0  0  0  0  0  0  0  0
   36.9161   20.5129   58.0565 H   0  0  0  0  0  0  0  0  0  0  0  0
  1  9  1  0
  1 32  1  0
  1 37  1  0
  2  8  1  0
  2 37  1  0
  2 38  1  0
  3  4  2  0
  3 38  1  0
  3 40  1  0
  4  6  1  0
  4 39  1  0
  5 38  1  0
  5 39  2  0
  6 42  1  0
  6 43  2  0
  7 40  2  0
  7 41  1  0
  7 42  1  0
  8  9  1  0
  8 10  1  0
  9 33  1  0
 10 34  1  0
 11 12  2  0
 12 13  1  6
 12 14  1  0
 12 31  1  0
 15 14  1  0
 15 16  1  0
 15 29  1  0
 16 17  1  0
 16 19  1  0
 17 18  1  0
 19 20  1  0
 20 21  1  0
 20 29  1  0
 21 22  1  0
 21 27  1  0
 22 23  2  0
 23 24  1  0
 24 25  2  0
 24 26  1  0
 26 27  1  0
 27 28  2  0
 29 30  1  0
 31 32  1  0
 33 34  1  0
 34 35  1  6
 34 36  1  0
  1 44  1  6
  2 45  1  6
  5 46  1  0
  8 47  1  1
  9 48  1  1
 10 49  1  0
 10 50  1  0
 15 51  1  6
 16 52  1  6
 17 53  1  0
 17 54  1  0
 18 55  1  0
 20 56  1  1
 22 57  1  0
 23 58  1  0
 26 59  1  0
 29 60  1  1
 30 61  1  0
 32 62  1  0
 32 63  1  0
 33 64  1  0
 33 65  1  0
 35 66  1  0
 36 67  1  0
 41 68  1  0
 41 69  1  0
 42 70  1  0
M  CHG  1  13  -1
M  END
>  <filename_input>  (13) 
7C0U_FGO_docked.sdf

>  <pdb_id>  (13) 
7C0U_FGO

>  <pose_rank>  (13) 
12

>  <num_atoms_heavy>  (13) 
43

>  <num_torsions>  (13) 
8

>  <pose>  (13) 
[43.695618829693046, 14.391777656941844, 55.697236419469895, -0.3230512254472904, 0.6515880461529859, -1.6068320449417324, 1.1781763526881808, -0.4836297820845233, 1.7253216969379108, 0.6953913467087947, -3.173588250012796, 0.26356713141466803, -0.25683543094793915, 3.8267113119308127]

>  <energy>  (13) 
-714.4320141114157

>  <inter_energy>  (13) 
-725.412599970424

>  <intra_energy>  (13) 
17.494432365470768

>  <rmsd>  (13) 
9.25516

>  <sdf_rank>  (13) 
0

$$$$

     RDKit          3D

 70 75  0  0  0  0  0  0  0  0999 V2000
   39.8413   12.3047   55.5412 C   0  0  1  0  0  0  0  0  0  0  0  0
   41.9658   13.0472   56.0069 C   0  0  1  0  0  0  0  0  0  0  0  0
   42.3504   15.3978   55.8065 C   0  0  0  0  0  0  0  0  0  0  0  0
   43.4444   16.3240   55.5545 C   0  0  0  0  0  0  0  0  0  0  0  0
   44.1817   14.2777   55.5338 C   0  0  0  0  0  0  0  0  0  0  0  0
   43.0973   17.7443   55.5703 C   0  0  0  0  0  0  0  0  0  0  0  0
   40.8608   17.1662   55.9966 C   0  0  0  0  0  0  0  0  0  0  0  0
   41.2732   13.0570   57.3520 C   0  0  1  0  0  0  0  0  0  0  0  0
   39.8744   12.5275   57.0287 C   0  0  2  0  0  0  0  0  0  0  0  0
   41.9396   12.0964   58.2629 C   0  0  0  0  0  0  0  0  0  0  0  0
   38.5949   13.9678   51.3397 O   0  0  0  0  0  0  0  0  0  0  0  0
   38.6806   12.8959   52.3957 P   0  0  1  0  0  0  0  0  0  0  0  0
   37.4074   11.8814   52.4401 O   0  0  0  0  0  0  0  0  0  0  0  0
   39.9627   12.0042   52.0622 O   0  0  0  0  0  0  0  0  0  0  0  0
   39.8863   10.6066   51.7586 C   0  0  2  0  0  0  0  0  0  0  0  0
   40.7137    9.9472   52.8304 C   0  0  1  0  0  0  0  0  0  0  0  0
   40.1509    8.5882   53.2343 C   0  0  0  0  0  0  0  0  0  0  0  0
   38.7195    8.5492   53.3118 O   0  0  0  0  0  0  0  0  0  0  0  0
   42.0310    9.9031   52.2749 O   0  0  0  0  0  0  0  0  0  0  0  0
   42.0152   10.2137   50.8920 C   0  0  1  0  0  0  0  0  0  0  0  0
   42.9490    9.2938   50.1796 N   0  0  0  0  0  0  0  0  0  0  0  0
   42.8573    8.8714   48.8685 C   0  0  0  0  0  0  0  0  0  0  0  0
   43.7925    7.9265   48.3795 C   0  0  0  0  0  0  0  0  0  0  0  0
   44.8311    7.4774   49.2210 C   0  0  0  0  0  0  0  0  0  0  0  0
   45.7312    6.6346   48.8537 O   0  0  0  0  0  0  0  0  0  0  0  0
   44.8802    7.8974   50.4972 N   0  0  0  0  0  0  0  0  0  0  0  0
   43.9789    8.7725   50.9795 C   0  0  0  0  0  0  0  0  0  0  0  0
   44.0445    9.1628   52.1626 O   0  0  0  0  0  0  0  0  0  0  0  0
   40.5546   10.1827   50.4622 C   0  0  2  0  0  0  0  0  0  0  0  0
   40.3341   11.0934   49.3634 O   0  0  0  0  0  0  0  0  0  0  0  0
   38.9348   13.5833   53.8065 O   0  0  0  0  0  0  0  0  0  0  0  0
   38.5718   12.8974   54.9786 C   0  0  0  0  0  0  0  0  0  0  0  0
   39.6506   11.2702   57.7682 C   0  0  0  0  0  0  0  0  0  0  0  0
   41.0155   10.8946   58.3229 C   0  0  1  0  0  0  0  0  0  0  0  0
   41.5769    9.8892   57.5183 O   0  0  0  0  0  0  0  0  0  0  0  0
   40.9108   10.4464   59.6850 O   0  0  0  0  0  0  0  0  0  0  0  0
   40.9319   13.0567   55.0486 O   0  0  0  0  0  0  0  0  0  0  0  0
   42.8551   14.2033   55.7590 N   0  0  0  0  0  0  0  0  0  0  0  0
   44.5498   15.5855   55.4139 N   0  0  0  0  0  0  0  0  0  0  0  0
   41.0898   15.8314   55.9963 N   0  0  0  0  0  0  0  0  0  0  0  0
   39.5875   17.5668   56.2121 N   0  0  0  0  0  0  0  0  0  0  0  0
   41.8156   18.0718   55.7849 N   0  0  0  0  0  0  0  0  0  0  0  0
   43.9884   18.6073   55.3601 O   0  0  0  0  0  0  0  0  0  0  0  0
   39.8883   11.2384   55.2752 H   0  0  0  0  0  0  0  0  0  0  0  0
   42.6210   12.1649   55.9607 H   0  0  0  0  0  0  0  0  0  0  0  0
   44.8624   13.4169   55.4584 H   0  0  0  0  0  0  0  0  0  0  0  0
   41.2798   14.0466   57.8323 H   0  0  0  0  0  0  0  0  0  0  0  0
   39.0805   13.2288   57.3250 H   0  0  0  0  0  0  0  0  0  0  0  0
   42.9232   11.8067   57.8647 H   0  0  0  0  0  0  0  0  0  0  0  0
   42.1144   12.5295   59.2588 H   0  0  0  0  0  0  0  0  0  0  0  0
   38.8209   10.3422   51.6870 H   0  0  0  0  0  0  0  0  0  0  0  0
   40.7107   10.4987   53.7822 H   0  0  0  0  0  0  0  0  0  0  0  0
   40.4775    7.8443   52.4927 H   0  0  0  0  0  0  0  0  0  0  0  0
   40.5302    8.3742   54.2444 H   0  0  0  0  0  0  0  0  0  0  0  0
   38.4405    8.5416   54.2616 H   0  0  0  0  0  0  0  0  0  0  0  0
   42.3922   11.2157   50.6393 H   0  0  0  0  0  0  0  0  0  0  0  0
   42.0673    9.2639   48.2113 H   0  0  0  0  0  0  0  0  0  0  0  0
   43.7092    7.5459   47.3508 H   0  0  0  0  0  0  0  0  0  0  0  0
   45.6218    7.5426   51.1177 H   0  0  0  0  0  0  0  0  0  0  0  0
   40.1770    9.2245   50.0760 H   0  0  0  0  0  0  0  0  0  0  0  0
   40.1166   11.9918   49.7179 H   0  0  0  0  0  0  0  0  0  0  0  0
   37.8517   12.0996   54.7440 H   0  0  0  0  0  0  0  0  0  0  0  0
   38.0944   13.5738   55.7028 H   0  0  0  0  0  0  0  0  0  0  0  0
   38.9300   11.4245   58.5848 H   0  0  0  0  0  0  0  0  0  0  0  0
   39.2329   10.4808   57.1260 H   0  0  0  0  0  0  0  0  0  0  0  0
   41.9694    9.1862   58.0944 H   0  0  0  0  0  0  0  0  0  0  0  0
   41.0880   11.2046   60.2964 H   0  0  0  0  0  0  0  0  0  0  0  0
   39.3583   18.5709   56.2224 H   0  0  0  0  0  0  0  0  0  0  0  0
   38.8468   16.8678   56.3659 H   0  0  0  0  0  0  0  0  0  0  0  0
   41.5565   19.0687   55.7862 H   0  0  0  0  0  0  0  0  0  0  0  0
  1  9  1  0
  1 32  1  0
  1 37  1  0
  2  8  1  0
  2 37  1  0
  2 38  1  0
  3  4  2  0
  3 38  1  0
  3 40  1  0
  4  6  1  0
  4 39  1  0
  5 38  1  0
  5 39  2  0
  6 42  1  0
  6 43  2  0
  7 40  2  0
  7 41  1  0
  7 42  1  0
  8  9  1  0
  8 10  1  0
  9 33  1  0
 10 34  1  0
 11 12  2  0
 12 13  1  1
 12 14  1  0
 12 31  1  0
 15 14  1  0
 15 16  1  0
 15 29  1  0
 16 17  1  0
 16 19  1  0
 17 18  1  0
 19 20  1  0
 20 21  1  0
 20 29  1  0
 21 22  1  0
 21 27  1  0
 22 23  2  0
 23 24  1  0
 24 25  2  0
 24 26  1  0
 26 27  1  0
 27 28  2  0
 29 30  1  0
 31 32  1  0
 33 34  1  0
 34 35  1  6
 34 36  1  0
  1 44  1  1
  2 45  1  1
  5 46  1  0
  8 47  1  1
  9 48  1  6
 10 49  1  0
 10 50  1  0
 15 51  1  6
 16 52  1  1
 17 53  1  0
 17 54  1  0
 18 55  1  0
 20 56  1  1
 22 57  1  0
 23 58  1  0
 26 59  1  0
 29 60  1  6
 30 61  1  0
 32 62  1  0
 32 63  1  0
 33 64  1  0
 33 65  1  0
 35 66  1  0
 36 67  1  0
 41 68  1  0
 41 69  1  0
 42 70  1  0
M  CHG  1  13  -1
M  END
>  <filename_input>  (14) 
7C0U_FGO_docked.sdf

>  <pdb_id>  (14) 
7C0U_FGO

>  <pose_rank>  (14) 
13

>  <num_atoms_heavy>  (14) 
43

>  <num_torsions>  (14) 
8

>  <pose>  (14) 
[38.571799246699655, 12.897363329080262, 54.978563180217606, 1.8328761468941044, 2.1816800584912865, -2.535963050876875, -0.8246416087292003, -3.3783361456870544, -0.9021927484980956, -0.34709412277515544, -3.011980095749219, -0.16050354841033512, 1.6455876190089196, -1.7578653942262847]

>  <energy>  (14) 
-698.7530681778715

>  <inter_energy>  (14) 
-760.7894256720745

>  <intra_energy>  (14) 
73.12819058932223

>  <rmsd>  (14) 
9.57276

>  <sdf_rank>  (14) 
0

$$$$

     RDKit          3D

 70 75  0  0  0  0  0  0  0  0999 V2000
   43.9511   11.0321   53.4659 C   0  0  1  0  0  0  0  0  0  0  0  0
   42.5334   10.1380   51.8936 C   0  0  1  0  0  0  0  0  0  0  0  0
   41.8331   10.1437   49.6082 C   0  0  0  0  0  0  0  0  0  0  0  0
   40.7631   10.6776   48.7786 C   0  0  0  0  0  0  0  0  0  0  0  0
   40.4689   11.2760   50.8490 C   0  0  0  0  0  0  0  0  0  0  0  0
   40.8168   10.3263   47.3602 C   0  0  0  0  0  0  0  0  0  0  0  0
   42.7996    9.1313   47.7580 C   0  0  0  0  0  0  0  0  0  0  0  0
   43.9097    9.7252   51.4201 C   0  0  1  0  0  0  0  0  0  0  0  0
   44.8356   10.2976   52.4955 C   0  0  2  0  0  0  0  0  0  0  0  0
   44.0221    8.2475   51.4423 C   0  0  0  0  0  0  0  0  0  0  0  0
   41.8801   12.5764   56.1582 O   0  0  0  0  0  0  0  0  0  0  0  0
   42.7276   13.4382   55.2580 P   0  0  1  0  0  0  0  0  0  0  0  0
   42.0350   13.8223   53.8349 O   0  0  0  0  0  0  0  0  0  0  0  0
   42.9855   14.8146   56.0257 O   0  0  0  0  0  0  0  0  0  0  0  0
   42.5903   16.0880   55.5030 C   0  0  2  0  0  0  0  0  0  0  0  0
   43.2947   17.0865   56.3833 C   0  0  1  0  0  0  0  0  0  0  0  0
   43.7213   18.3309   55.6112 C   0  0  0  0  0  0  0  0  0  0  0  0
   43.0602   19.5326   56.0300 O   0  0  0  0  0  0  0  0  0  0  0  0
   42.3648   17.3341   57.4415 O   0  0  0  0  0  0  0  0  0  0  0  0
   41.0869   16.8019   57.1364 C   0  0  1  0  0  0  0  0  0  0  0  0
   40.0426   17.7771   57.5653 N   0  0  0  0  0  0  0  0  0  0  0  0
   39.5250   18.8185   56.8212 C   0  0  0  0  0  0  0  0  0  0  0  0
   38.5928   19.7004   57.4211 C   0  0  0  0  0  0  0  0  0  0  0  0
   38.1689   19.4672   58.7457 C   0  0  0  0  0  0  0  0  0  0  0  0
   37.3147   20.2071   59.3607 O   0  0  0  0  0  0  0  0  0  0  0  0
   38.7062   18.4531   59.4460 N   0  0  0  0  0  0  0  0  0  0  0  0
   39.6142   17.6275   58.8944 C   0  0  0  0  0  0  0  0  0  0  0  0
   40.0950   16.6831   59.5527 O   0  0  0  0  0  0  0  0  0  0  0  0
   41.1187   16.4299   55.6600 C   0  0  2  0  0  0  0  0  0  0  0  0
   40.2284   15.3229   55.4009 O   0  0  0  0  0  0  0  0  0  0  0  0
   44.1396   12.7365   55.0549 O   0  0  0  0  0  0  0  0  0  0  0  0
   44.5509   12.3867   53.7570 C   0  0  0  0  0  0  0  0  0  0  0  0
   45.5559    9.1901   53.1529 C   0  0  0  0  0  0  0  0  0  0  0  0
   44.8620    7.9282   52.6647 C   0  0  1  0  0  0  0  0  0  0  0  0
   43.9921    7.4664   53.6664 O   0  0  0  0  0  0  0  0  0  0  0  0
   45.8216    6.9124   52.3269 O   0  0  0  0  0  0  0  0  0  0  0  0
   42.7429   11.2302   52.7600 O   0  0  0  0  0  0  0  0  0  0  0  0
   41.6068   10.5547   50.8181 N   0  0  0  0  0  0  0  0  0  0  0  0
   39.9420   11.3480   49.5931 N   0  0  0  0  0  0  0  0  0  0  0  0
   42.8322    9.4094   49.0831 N   0  0  0  0  0  0  0  0  0  0  0  0
   43.8067    8.3734   47.2686 N   0  0  0  0  0  0  0  0  0  0  0  0
   41.8452    9.5762   46.9409 N   0  0  0  0  0  0  0  0  0  0  0  0
   39.9275   10.7505   46.5777 O   0  0  0  0  0  0  0  0  0  0  0  0
   43.8217   10.4860   54.4120 H   0  0  0  0  0  0  0  0  0  0  0  0
   42.0537    9.2681   52.3658 H   0  0  0  0  0  0  0  0  0  0  0  0
   40.0326   11.7356   51.7481 H   0  0  0  0  0  0  0  0  0  0  0  0
   44.1360   10.0713   50.4008 H   0  0  0  0  0  0  0  0  0  0  0  0
   45.5914   10.9802   52.0797 H   0  0  0  0  0  0  0  0  0  0  0  0
   43.0270    7.7866   51.5275 H   0  0  0  0  0  0  0  0  0  0  0  0
   44.4759    7.8568   50.5195 H   0  0  0  0  0  0  0  0  0  0  0  0
   42.8203   16.0891   54.4273 H   0  0  0  0  0  0  0  0  0  0  0  0
   44.2498   16.7152   56.7831 H   0  0  0  0  0  0  0  0  0  0  0  0
   44.8045   18.4672   55.7460 H   0  0  0  0  0  0  0  0  0  0  0  0
   43.4429   18.1643   54.5602 H   0  0  0  0  0  0  0  0  0  0  0  0
   43.0394   19.5703   57.0191 H   0  0  0  0  0  0  0  0  0  0  0  0
   40.8266   15.8833   57.6826 H   0  0  0  0  0  0  0  0  0  0  0  0
   39.8329   18.9617   55.7749 H   0  0  0  0  0  0  0  0  0  0  0  0
   38.2025   20.5609   56.8579 H   0  0  0  0  0  0  0  0  0  0  0  0
   38.4172   18.3054   60.4236 H   0  0  0  0  0  0  0  0  0  0  0  0
   40.7773   17.1999   54.9525 H   0  0  0  0  0  0  0  0  0  0  0  0
   39.9199   14.9394   56.2599 H   0  0  0  0  0  0  0  0  0  0  0  0
   45.6486   12.3345   53.7077 H   0  0  0  0  0  0  0  0  0  0  0  0
   44.2201   13.1339   53.0207 H   0  0  0  0  0  0  0  0  0  0  0  0
   46.6155    9.1881   52.8575 H   0  0  0  0  0  0  0  0  0  0  0  0
   45.5359    9.2760   54.2493 H   0  0  0  0  0  0  0  0  0  0  0  0
   44.3755    7.6699   54.5561 H   0  0  0  0  0  0  0  0  0  0  0  0
   46.1925    6.5197   53.1566 H   0  0  0  0  0  0  0  0  0  0  0  0
   43.8302    8.1323   46.2675 H   0  0  0  0  0  0  0  0  0  0  0  0
   44.5504    8.0372   47.8970 H   0  0  0  0  0  0  0  0  0  0  0  0
   41.9005    9.3324   45.9417 H   0  0  0  0  0  0  0  0  0  0  0  0
  1  9  1  0
  1 32  1  0
  1 37  1  0
  2  8  1  0
  2 37  1  0
  2 38  1  0
  3  4  2  0
  3 38  1  0
  3 40  1  0
  4  6  1  0
  4 39  1  0
  5 38  1  0
  5 39  2  0
  6 42  1  0
  6 43  2  0
  7 40  2  0
  7 41  1  0
  7 42  1  0
  8  9  1  0
  8 10  1  0
  9 33  1  0
 10 34  1  0
 11 12  2  0
 12 13  1  6
 12 14  1  0
 12 31  1  0
 15 14  1  0
 15 16  1  0
 15 29  1  0
 16 17  1  0
 16 19  1  0
 17 18  1  0
 19 20  1  0
 20 21  1  0
 20 29  1  0
 21 22  1  0
 21 27  1  0
 22 23  2  0
 23 24  1  0
 24 25  2  0
 24 26  1  0
 26 27  1  0
 27 28  2  0
 29 30  1  0
 31 32  1  0
 33 34  1  0
 34 35  1  1
 34 36  1  0
  1 44  1  1
  2 45  1  1
  5 46  1  0
  8 47  1  6
  9 48  1  6
 10 49  1  0
 10 50  1  0
 15 51  1  6
 16 52  1  1
 17 53  1  0
 17 54  1  0
 18 55  1  0
 20 56  1  1
 22 57  1  0
 23 58  1  0
 26 59  1  0
 29 60  1  6
 30 61  1  0
 32 62  1  0
 32 63  1  0
 33 64  1  0
 33 65  1  0
 35 66  1  0
 36 67  1  0
 41 68  1  0
 41 69  1  0
 42 70  1  0
M  CHG  1  13  -1
M  END
>  <filename_input>  (15) 
7C0U_FGO_docked.sdf

>  <pdb_id>  (15) 
7C0U_FGO

>  <pose_rank>  (15) 
14

>  <num_atoms_heavy>  (15) 
43

>  <num_torsions>  (15) 
8

>  <pose>  (15) 
[44.550909948813946, 12.386678510087924, 53.7570256571129, 1.3922804755410914, 1.6438860504609911, 1.4337566669798205, -5.844548544732608, 4.311719500267922, 8.419797942962814, -0.9838353506462989, 3.22978367568752, -0.998371993330736, 0.5381796305652687, -5.340305508856216]

>  <energy>  (15) 
-686.9686632298756

>  <inter_energy>  (15) 
-767.16604052279

>  <intra_energy>  (15) 
103.98283432218494

>  <rmsd>  (15) 
3.22864

>  <sdf_rank>  (15) 
0

$$$$

     RDKit          3D

 70 75  0  0  0  0  0  0  0  0999 V2000
   43.4573   10.0279   50.7338 C   0  0  1  0  0  0  0  0  0  0  0  0
   44.9778    8.3097   50.6024 C   0  0  1  0  0  0  0  0  0  0  0  0
   46.7868    6.7813   50.9269 C   0  0  0  0  0  0  0  0  0  0  0  0
   47.4540    6.0673   52.0053 C   0  0  0  0  0  0  0  0  0  0  0  0
   45.8285    7.2718   52.8041 C   0  0  0  0  0  0  0  0  0  0  0  0
   48.5929    5.2374   51.6151 C   0  0  0  0  0  0  0  0  0  0  0  0
   48.2419    5.8543   49.3759 C   0  0  0  0  0  0  0  0  0  0  0  0
   43.6742    7.6769   50.1675 C   0  0  1  0  0  0  0  0  0  0  0  0
   42.6834    8.8414   50.2272 C   0  0  2  0  0  0  0  0  0  0  0  0
   43.7840    7.2260   48.7600 C   0  0  0  0  0  0  0  0  0  0  0  0
   40.7372    9.0846   54.1164 O   0  0  0  0  0  0  0  0  0  0  0  0
   40.5131   10.2427   53.1785 P   0  0  1  0  0  0  0  0  0  0  0  0
   38.9560   10.5022   52.7780 O   0  0  0  0  0  0  0  0  0  0  0  0
   41.0177   11.5612   53.9250 O   0  0  0  0  0  0  0  0  0  0  0  0
   40.1269   12.5281   54.4930 C   0  0  2  0  0  0  0  0  0  0  0  0
   39.8935   13.5172   53.3816 C   0  0  1  0  0  0  0  0  0  0  0  0
   38.4761   14.0804   53.4036 C   0  0  0  0  0  0  0  0  0  0  0  0
   38.0262   14.5776   52.1360 O   0  0  0  0  0  0  0  0  0  0  0  0
   40.9232   14.4933   53.5628 O   0  0  0  0  0  0  0  0  0  0  0  0
   41.5653   14.3348   54.8166 C   0  0  1  0  0  0  0  0  0  0  0  0
   41.8017   15.6821   55.4120 N   0  0  0  0  0  0  0  0  0  0  0  0
   40.9834   16.3513   56.3000 C   0  0  0  0  0  0  0  0  0  0  0  0
   41.3267   17.6660   56.7004 C   0  0  0  0  0  0  0  0  0  0  0  0
   42.5232   18.2454   56.2301 C   0  0  0  0  0  0  0  0  0  0  0  0
   42.9190   19.4255   56.5557 O   0  0  0  0  0  0  0  0  0  0  0  0
   43.2877   17.5712   55.3535 N   0  0  0  0  0  0  0  0  0  0  0  0
   42.9549   16.3332   54.9445 C   0  0  0  0  0  0  0  0  0  0  0  0
   43.6807   15.7147   54.1401 O   0  0  0  0  0  0  0  0  0  0  0  0
   40.7060   13.3670   55.6191 C   0  0  2  0  0  0  0  0  0  0  0  0
   41.5224   12.6201   56.5470 O   0  0  0  0  0  0  0  0  0  0  0  0
   41.4267   10.0468   51.8922 O   0  0  0  0  0  0  0  0  0  0  0  0
   42.6646   10.7092   51.8233 C   0  0  0  0  0  0  0  0  0  0  0  0
   42.1429    9.0861   48.8760 C   0  0  0  0  0  0  0  0  0  0  0  0
   43.0128    8.2510   47.9499 C   0  0  1  0  0  0  0  0  0  0  0  0
   43.9515    9.0880   47.3238 O   0  0  0  0  0  0  0  0  0  0  0  0
   42.2127    7.5721   46.9671 O   0  0  0  0  0  0  0  0  0  0  0  0
   44.6156    9.4684   51.3191 O   0  0  0  0  0  0  0  0  0  0  0  0
   45.8215    7.4581   51.4694 N   0  0  0  0  0  0  0  0  0  0  0  0
   46.8392    6.4194   53.1389 N   0  0  0  0  0  0  0  0  0  0  0  0
   47.1744    6.6433   49.6448 N   0  0  0  0  0  0  0  0  0  0  0  0
   48.6170    5.7559   48.0807 N   0  0  0  0  0  0  0  0  0  0  0  0
   48.9078    5.1809   50.3137 N   0  0  0  0  0  0  0  0  0  0  0  0
   49.2215    4.5882   52.4905 O   0  0  0  0  0  0  0  0  0  0  0  0
   43.6758   10.7569   49.9396 H   0  0  0  0  0  0  0  0  0  0  0  0
   45.5866    8.5006   49.7063 H   0  0  0  0  0  0  0  0  0  0  0  0
   45.1276    7.7356   53.5137 H   0  0  0  0  0  0  0  0  0  0  0  0
   43.3891    6.8115   50.7838 H   0  0  0  0  0  0  0  0  0  0  0  0
   41.8301    8.6340   50.8898 H   0  0  0  0  0  0  0  0  0  0  0  0
   44.8376    7.1995   48.4450 H   0  0  0  0  0  0  0  0  0  0  0  0
   43.3851    6.2102   48.6224 H   0  0  0  0  0  0  0  0  0  0  0  0
   39.2602   11.9827   54.8948 H   0  0  0  0  0  0  0  0  0  0  0  0
   39.9555   13.0673   52.3797 H   0  0  0  0  0  0  0  0  0  0  0  0
   37.7915   13.2815   53.7246 H   0  0  0  0  0  0  0  0  0  0  0  0
   38.4841   14.9351   54.0960 H   0  0  0  0  0  0  0  0  0  0  0  0
   37.3690   15.3038   52.2808 H   0  0  0  0  0  0  0  0  0  0  0  0
   42.5705   13.8907   54.7679 H   0  0  0  0  0  0  0  0  0  0  0  0
   40.0757   15.8693   56.6920 H   0  0  0  0  0  0  0  0  0  0  0  0
   40.6647   18.2309   57.3732 H   0  0  0  0  0  0  0  0  0  0  0  0
   44.1445   18.0106   54.9879 H   0  0  0  0  0  0  0  0  0  0  0  0
   39.9350   13.8141   56.2638 H   0  0  0  0  0  0  0  0  0  0  0  0
   41.2664   12.8542   57.4742 H   0  0  0  0  0  0  0  0  0  0  0  0
   43.1929   10.6279   52.7847 H   0  0  0  0  0  0  0  0  0  0  0  0
   42.5308   11.7794   51.6070 H   0  0  0  0  0  0  0  0  0  0  0  0
   41.0927    8.7644   48.8151 H   0  0  0  0  0  0  0  0  0  0  0  0
   42.1602   10.1533   48.6100 H   0  0  0  0  0  0  0  0  0  0  0  0
   44.4824    9.5615   48.0123 H   0  0  0  0  0  0  0  0  0  0  0  0
   41.5425    7.0035   47.4228 H   0  0  0  0  0  0  0  0  0  0  0  0
   49.4226    5.1690   47.8210 H   0  0  0  0  0  0  0  0  0  0  0  0
   48.0972    6.2679   47.3536 H   0  0  0  0  0  0  0  0  0  0  0  0
   49.7005    4.5900   50.0250 H   0  0  0  0  0  0  0  0  0  0  0  0
  1  9  1  0
  1 32  1  0
  1 37  1  0
  2  8  1  0
  2 37  1  0
  2 38  1  0
  3  4  2  0
  3 38  1  0
  3 40  1  0
  4  6  1  0
  4 39  1  0
  5 38  1  0
  5 39  2  0
  6 42  1  0
  6 43  2  0
  7 40  2  0
  7 41  1  0
  7 42  1  0
  8  9  1  0
  8 10  1  0
  9 33  1  0
 10 34  1  0
 11 12  2  0
 12 13  1  6
 12 14  1  0
 12 31  1  0
 15 14  1  0
 15 16  1  0
 15 29  1  0
 16 17  1  0
 16 19  1  0
 17 18  1  0
 19 20  1  0
 20 21  1  0
 20 29  1  0
 21 22  1  0
 21 27  1  0
 22 23  2  0
 23 24  1  0
 24 25  2  0
 24 26  1  0
 26 27  1  0
 27 28  2  0
 29 30  1  0
 31 32  1  0
 33 34  1  0
 34 35  1  6
 34 36  1  0
  1 44  1  6
  2 45  1  6
  5 46  1  0
  8 47  1  1
  9 48  1  1
 10 49  1  0
 10 50  1  0
 15 51  1  1
 16 52  1  6
 17 53  1  0
 17 54  1  0
 18 55  1  0
 20 56  1  6
 22 57  1  0
 23 58  1  0
 26 59  1  0
 29 60  1  1
 30 61  1  0
 32 62  1  0
 32 63  1  0
 33 64  1  0
 33 65  1  0
 35 66  1  0
 36 67  1  0
 41 68  1  0
 41 69  1  0
 42 70  1  0
M  CHG  1  13  -1
M  END
>  <filename_input>  (16) 
7C0U_FGO_docked.sdf

>  <pdb_id>  (16) 
7C0U_FGO

>  <pose_rank>  (16) 
15

>  <num_atoms_heavy>  (16) 
43

>  <num_torsions>  (16) 
8

>  <pose>  (16) 
[42.66461200850872, 10.70923164286446, 51.82332008007358, -0.4183599257130901, -0.8936434623845745, -3.492487935435858, 2.996754584893817, -6.943360538257434, 6.474900038003227, 14.070186173764862, 3.5110300445205995, 0.3412862308431671, -5.645242847220443, 2.489167053759593]

>  <energy>  (16) 
-686.2253073747945

>  <inter_energy>  (16) 
-675.8473638626318

>  <intra_energy>  (16) 
12.472103043577523

>  <rmsd>  (16) 
5.92299

>  <sdf_rank>  (16) 
0

$$$$

     RDKit          3D

 70 75  0  0  0  0  0  0  0  0999 V2000
   42.9522   16.8153   56.2895 C   0  0  1  0  0  0  0  0  0  0  0  0
   41.1672   18.2137   56.6632 C   0  0  1  0  0  0  0  0  0  0  0  0
   39.2165   19.5896   56.5395 C   0  0  0  0  0  0  0  0  0  0  0  0
   38.5807   20.5313   55.6301 C   0  0  0  0  0  0  0  0  0  0  0  0
   40.4308   19.7891   54.7595 C   0  0  0  0  0  0  0  0  0  0  0  0
   37.3362   21.1364   56.1022 C   0  0  0  0  0  0  0  0  0  0  0  0
   37.5057   19.8797   58.0794 C   0  0  0  0  0  0  0  0  0  0  0  0
   40.5839   16.8271   56.8244 C   0  0  1  0  0  0  0  0  0  0  0  0
   41.7913   15.9126   56.6076 C   0  0  2  0  0  0  0  0  0  0  0  0
   40.1027   16.6472   58.2146 C   0  0  0  0  0  0  0  0  0  0  0  0
   44.6842   13.8211   56.0987 O   0  0  0  0  0  0  0  0  0  0  0  0
   43.7209   13.6924   54.9468 P   0  0  1  0  0  0  0  0  0  0  0  0
   44.3736   13.1008   53.5771 O   0  0  0  0  0  0  0  0  0  0  0  0
   42.5847   12.6625   55.3925 O   0  0  0  0  0  0  0  0  0  0  0  0
   42.0874   11.6276   54.5364 C   0  0  2  0  0  0  0  0  0  0  0  0
   41.4882   12.3665   53.3688 C   0  0  1  0  0  0  0  0  0  0  0  0
   41.6657   11.6073   52.0578 C   0  0  0  0  0  0  0  0  0  0  0  0
   42.6184   10.5377   52.1274 O   0  0  0  0  0  0  0  0  0  0  0  0
   40.1267   12.5780   53.7528 O   0  0  0  0  0  0  0  0  0  0  0  0
   39.7902   11.8080   54.8944 C   0  0  1  0  0  0  0  0  0  0  0  0
   38.4246   11.2373   54.7067 N   0  0  0  0  0  0  0  0  0  0  0  0
   38.0192   10.3659   53.7157 C   0  0  0  0  0  0  0  0  0  0  0  0
   36.6557    9.9891   53.6417 C   0  0  0  0  0  0  0  0  0  0  0  0
   35.7497   10.4651   54.6119 C   0  0  0  0  0  0  0  0  0  0  0  0
   34.4998   10.1603   54.6294 O   0  0  0  0  0  0  0  0  0  0  0  0
   36.1760   11.3253   55.5531 N   0  0  0  0  0  0  0  0  0  0  0  0
   37.4634   11.7121   55.6139 C   0  0  0  0  0  0  0  0  0  0  0  0
   37.8470   12.5014   56.5007 O   0  0  0  0  0  0  0  0  0  0  0  0
   40.9299   10.8183   55.0952 C   0  0  2  0  0  0  0  0  0  0  0  0
   41.0674   10.4864   56.4939 O   0  0  0  0  0  0  0  0  0  0  0  0
   43.0184   15.0979   54.7046 O   0  0  0  0  0  0  0  0  0  0  0  0
   43.6874   16.2736   55.0872 C   0  0  0  0  0  0  0  0  0  0  0  0
   42.0344   15.1330   57.8368 C   0  0  0  0  0  0  0  0  0  0  0  0
   41.1453   15.7758   58.8895 C   0  0  1  0  0  0  0  0  0  0  0  0
   41.9289   16.6090   59.7051 O   0  0  0  0  0  0  0  0  0  0  0  0
   40.4838   14.7760   59.6832 O   0  0  0  0  0  0  0  0  0  0  0  0
   42.3536   18.0415   55.9215 O   0  0  0  0  0  0  0  0  0  0  0  0
   40.2958   19.1740   55.9509 N   0  0  0  0  0  0  0  0  0  0  0  0
   39.3775   20.6326   54.5614 N   0  0  0  0  0  0  0  0  0  0  0  0
   38.6600   19.2677   57.7227 N   0  0  0  0  0  0  0  0  0  0  0  0
   36.9866   19.5490   59.2833 N   0  0  0  0  0  0  0  0  0  0  0  0
   36.8749   20.7603   57.3029 N   0  0  0  0  0  0  0  0  0  0  0  0
   36.7262   21.9602   55.3725 O   0  0  0  0  0  0  0  0  0  0  0  0
   43.6561   16.9058   57.1299 H   0  0  0  0  0  0  0  0  0  0  0  0
   41.3148   18.6463   57.6637 H   0  0  0  0  0  0  0  0  0  0  0  0
   41.2619   19.6347   54.0557 H   0  0  0  0  0  0  0  0  0  0  0  0
   39.7433   16.6318   56.1424 H   0  0  0  0  0  0  0  0  0  0  0  0
   41.6335   15.1948   55.7891 H   0  0  0  0  0  0  0  0  0  0  0  0
   40.0245   17.6190   58.7241 H   0  0  0  0  0  0  0  0  0  0  0  0
   39.1029   16.1897   58.2466 H   0  0  0  0  0  0  0  0  0  0  0  0
   42.9175   10.9326   54.3419 H   0  0  0  0  0  0  0  0  0  0  0  0
   41.9868   13.3242   53.1589 H   0  0  0  0  0  0  0  0  0  0  0  0
   40.6922   11.1850   51.7681 H   0  0  0  0  0  0  0  0  0  0  0  0
   42.0504   12.3287   51.3219 H   0  0  0  0  0  0  0  0  0  0  0  0
   42.8075   10.3254   53.0758 H   0  0  0  0  0  0  0  0  0  0  0  0
   39.7076   12.3807   55.8299 H   0  0  0  0  0  0  0  0  0  0  0  0
   38.7464    9.9688   52.9922 H   0  0  0  0  0  0  0  0  0  0  0  0
   36.3061    9.3301   52.8333 H   0  0  0  0  0  0  0  0  0  0  0  0
   35.5043   11.6953   56.2407 H   0  0  0  0  0  0  0  0  0  0  0  0
   40.8179    9.8363   54.6122 H   0  0  0  0  0  0  0  0  0  0  0  0
   40.7528   11.2458   57.0457 H   0  0  0  0  0  0  0  0  0  0  0  0
   43.6661   17.0065   54.2672 H   0  0  0  0  0  0  0  0  0  0  0  0
   44.7421   16.0709   55.3248 H   0  0  0  0  0  0  0  0  0  0  0  0
   41.7577   14.0789   57.6876 H   0  0  0  0  0  0  0  0  0  0  0  0
   43.0947   15.1408   58.1293 H   0  0  0  0  0  0  0  0  0  0  0  0
   41.7417   16.4100   60.6567 H   0  0  0  0  0  0  0  0  0  0  0  0
   40.6163   14.9762   60.6436 H   0  0  0  0  0  0  0  0  0  0  0  0
   36.1101   19.9851   59.6036 H   0  0  0  0  0  0  0  0  0  0  0  0
   37.4677   18.8611   59.8802 H   0  0  0  0  0  0  0  0  0  0  0  0
   35.9927   21.1705   57.6411 H   0  0  0  0  0  0  0  0  0  0  0  0
  1  9  1  0
  1 32  1  0
  1 37  1  0
  2  8  1  0
  2 37  1  0
  2 38  1  0
  3  4  2  0
  3 38  1  0
  3 40  1  0
  4  6  1  0
  4 39  1  0
  5 38  1  0
  5 39  2  0
  6 42  1  0
  6 43  2  0
  7 40  2  0
  7 41  1  0
  7 42  1  0
  8  9  1  0
  8 10  1  0
  9 33  1  0
 10 34  1  0
 11 12  2  0
 12 13  1  6
 12 14  1  0
 12 31  1  0
 15 14  1  0
 15 16  1  0
 15 29  1  0
 16 17  1  0
 16 19  1  0
 17 18  1  0
 19 20  1  0
 20 21  1  0
 20 29  1  0
 21 22  1  0
 21 27  1  0
 22 23  2  0
 23 24  1  0
 24 25  2  0
 24 26  1  0
 26 27  1  0
 27 28  2  0
 29 30  1  0
 31 32  1  0
 33 34  1  0
 34 35  1  1
 34 36  1  0
  1 44  1  1
  2 45  1  1
  5 46  1  0
  8 47  1  6
  9 48  1  6
 10 49  1  0
 10 50  1  0
 15 51  1  6
 16 52  1  6
 17 53  1  0
 17 54  1  0
 18 55  1  0
 20 56  1  1
 22 57  1  0
 23 58  1  0
 26 59  1  0
 29 60  1  6
 30 61  1  0
 32 62  1  0
 32 63  1  0
 33 64  1  0
 33 65  1  0
 35 66  1  0
 36 67  1  0
 41 68  1  0
 41 69  1  0
 42 70  1  0
M  CHG  1  13  -1
M  END
>  <filename_input>  (17) 
7C0U_FGO_docked.sdf

>  <pdb_id>  (17) 
7C0U_FGO

>  <pose_rank>  (17) 
16

>  <num_atoms_heavy>  (17) 
43

>  <num_torsions>  (17) 
8

>  <pose>  (17) 
[43.687358917067435, 16.273582850531504, 55.08720883436461, 3.2673243444017195, -2.04994386039278, 0.24286625348349278, -3.211284985711148, -1.142370822488796, 8.003537407359211, 9.941200656641598, 2.9584658674313378, 0.8514684906426774, -6.209631415188834, -1.3116088940531756]

>  <energy>  (17) 
-614.079010661138

>  <inter_energy>  (17) 
-661.4253207591773

>  <intra_energy>  (17) 
56.848028222118664

>  <rmsd>  (17) 
9.30226

>  <sdf_rank>  (17) 
0

$$$$

     RDKit          3D

 70 75  0  0  0  0  0  0  0  0999 V2000
   42.0225   15.8106   54.4737 C   0  0  1  0  0  0  0  0  0  0  0  0
   41.2628   17.4607   53.0659 C   0  0  1  0  0  0  0  0  0  0  0  0
   39.3161   16.7917   51.8510 C   0  0  0  0  0  0  0  0  0  0  0  0
   38.3986   17.3181   50.8515 C   0  0  0  0  0  0  0  0  0  0  0  0
   39.9213   18.7997   51.3179 C   0  0  0  0  0  0  0  0  0  0  0  0
   37.2996   16.4353   50.4631 C   0  0  0  0  0  0  0  0  0  0  0  0
   38.1284   14.8004   51.9321 C   0  0  0  0  0  0  0  0  0  0  0  0
   40.9682   17.9976   54.4493 C   0  0  1  0  0  0  0  0  0  0  0  0
   41.5115   16.9042   55.3717 C   0  0  2  0  0  0  0  0  0  0  0  0
   41.7484   19.2364   54.6799 C   0  0  0  0  0  0  0  0  0  0  0  0
   43.3078   11.4789   56.0043 O   0  0  0  0  0  0  0  0  0  0  0  0
   43.2851   12.5934   54.9901 P   0  0  1  0  0  0  0  0  0  0  0  0
   44.7365   12.9582   54.3477 O   0  0  0  0  0  0  0  0  0  0  0  0
   42.3587   12.1143   53.7808 O   0  0  0  0  0  0  0  0  0  0  0  0
   42.0833   10.7362   53.5045 C   0  0  2  0  0  0  0  0  0  0  0  0
   43.4279   10.0634   53.5915 C   0  0  1  0  0  0  0  0  0  0  0  0
   43.3263    8.6500   54.1560 C   0  0  0  0  0  0  0  0  0  0  0  0
   43.2895    7.6234   53.1554 O   0  0  0  0  0  0  0  0  0  0  0  0
   43.9394   10.1347   52.2576 O   0  0  0  0  0  0  0  0  0  0  0  0
   42.9315   10.5291   51.3422 C   0  0  1  0  0  0  0  0  0  0  0  0
   43.0620    9.7142   50.0994 N   0  0  0  0  0  0  0  0  0  0  0  0
   43.6025    8.4485   49.9908 C   0  0  0  0  0  0  0  0  0  0  0  0
   43.7209    7.8548   48.7101 C   0  0  0  0  0  0  0  0  0  0  0  0
   43.2351    8.5416   47.5784 C   0  0  0  0  0  0  0  0  0  0  0  0
   43.2871    8.0700   46.3824 O   0  0  0  0  0  0  0  0  0  0  0  0
   42.7297    9.7795   47.7192 N   0  0  0  0  0  0  0  0  0  0  0  0
   42.6399   10.3637   48.9280 C   0  0  0  0  0  0  0  0  0  0  0  0
   42.1571   11.5082   49.0447 O   0  0  0  0  0  0  0  0  0  0  0  0
   41.6099   10.4354   52.0930 C   0  0  2  0  0  0  0  0  0  0  0  0
   40.6667   11.3974   51.5730 O   0  0  0  0  0  0  0  0  0  0  0  0
   42.5930   13.8676   55.6419 O   0  0  0  0  0  0  0  0  0  0  0  0
   41.5171   14.4794   54.9755 C   0  0  0  0  0  0  0  0  0  0  0  0
   42.5912   17.4672   56.2052 C   0  0  0  0  0  0  0  0  0  0  0  0
   42.8882   18.8274   55.5939 C   0  0  1  0  0  0  0  0  0  0  0  0
   44.0481   18.7333   54.8070 O   0  0  0  0  0  0  0  0  0  0  0  0
   43.0556   19.8245   56.6161 O   0  0  0  0  0  0  0  0  0  0  0  0
   41.4136   16.0680   53.2245 O   0  0  0  0  0  0  0  0  0  0  0  0
   40.2040   17.7137   52.0641 N   0  0  0  0  0  0  0  0  0  0  0  0
   38.8036   18.5614   50.5734 N   0  0  0  0  0  0  0  0  0  0  0  0
   39.1784   15.5479   52.3481 N   0  0  0  0  0  0  0  0  0  0  0  0
   38.0084   13.5650   52.4682 N   0  0  0  0  0  0  0  0  0  0  0  0
   37.2429   15.2221   51.0296 N   0  0  0  0  0  0  0  0  0  0  0  0
   36.4646   16.8186   49.6035 O   0  0  0  0  0  0  0  0  0  0  0  0
   43.1213   15.7835   54.4285 H   0  0  0  0  0  0  0  0  0  0  0  0
   42.1550   17.9737   52.6776 H   0  0  0  0  0  0  0  0  0  0  0  0
   40.5021   19.7339   51.3105 H   0  0  0  0  0  0  0  0  0  0  0  0
   39.9039   18.2287   54.6037 H   0  0  0  0  0  0  0  0  0  0  0  0
   40.7434   16.5083   56.0523 H   0  0  0  0  0  0  0  0  0  0  0  0
   42.1387   19.6285   53.7292 H   0  0  0  0  0  0  0  0  0  0  0  0
   41.1324   20.0324   55.1236 H   0  0  0  0  0  0  0  0  0  0  0  0
   41.2933   10.4119   54.1978 H   0  0  0  0  0  0  0  0  0  0  0  0
   44.1138   10.5534   54.2982 H   0  0  0  0  0  0  0  0  0  0  0  0
   44.1985    8.4721   54.8022 H   0  0  0  0  0  0  0  0  0  0  0  0
   42.3744    8.5941   54.7044 H   0  0  0  0  0  0  0  0  0  0  0  0
   43.2577    6.7363   53.5938 H   0  0  0  0  0  0  0  0  0  0  0  0
   43.0126   11.5661   50.9843 H   0  0  0  0  0  0  0  0  0  0  0  0
   43.9373    7.9075   50.8881 H   0  0  0  0  0  0  0  0  0  0  0  0
   44.1884    6.8653   48.5992 H   0  0  0  0  0  0  0  0  0  0  0  0
   42.4050   10.2904   46.8858 H   0  0  0  0  0  0  0  0  0  0  0  0
   41.0675    9.4817   52.0144 H   0  0  0  0  0  0  0  0  0  0  0  0
   40.2159   11.8572   52.3250 H   0  0  0  0  0  0  0  0  0  0  0  0
   40.6766   14.6294   55.6692 H   0  0  0  0  0  0  0  0  0  0  0  0
   41.1561   13.8535   54.1461 H   0  0  0  0  0  0  0  0  0  0  0  0
   42.2585   17.5759   57.2480 H   0  0  0  0  0  0  0  0  0  0  0  0
   43.4798   16.8192   56.2252 H   0  0  0  0  0  0  0  0  0  0  0  0
   44.8417   18.6689   55.3953 H   0  0  0  0  0  0  0  0  0  0  0  0
   42.9842   19.3989   57.5071 H   0  0  0  0  0  0  0  0  0  0  0  0
   37.2278   12.9549   52.1865 H   0  0  0  0  0  0  0  0  0  0  0  0
   38.6977   13.2339   53.1583 H   0  0  0  0  0  0  0  0  0  0  0  0
   36.4802   14.5866   50.7551 H   0  0  0  0  0  0  0  0  0  0  0  0
  1  9  1  0
  1 32  1  0
  1 37  1  0
  2  8  1  0
  2 37  1  0
  2 38  1  0
  3  4  2  0
  3 38  1  0
  3 40  1  0
  4  6  1  0
  4 39  1  0
  5 38  1  0
  5 39  2  0
  6 42  1  0
  6 43  2  0
  7 40  2  0
  7 41  1  0
  7 42  1  0
  8  9  1  0
  8 10  1  0
  9 33  1  0
 10 34  1  0
 11 12  2  0
 12 13  1  6
 12 14  1  0
 12 31  1  0
 15 14  1  0
 15 16  1  0
 15 29  1  0
 16 17  1  0
 16 19  1  0
 17 18  1  0
 19 20  1  0
 20 21  1  0
 20 29  1  0
 21 22  1  0
 21 27  1  0
 22 23  2  0
 23 24  1  0
 24 25  2  0
 24 26  1  0
 26 27  1  0
 27 28  2  0
 29 30  1  0
 31 32  1  0
 33 34  1  0
 34 35  1  6
 34 36  1  0
  1 44  1  6
  2 45  1  6
  5 46  1  0
  8 47  1  6
  9 48  1  1
 10 49  1  0
 10 50  1  0
 15 51  1  1
 16 52  1  1
 17 53  1  0
 17 54  1  0
 18 55  1  0
 20 56  1  6
 22 57  1  0
 23 58  1  0
 26 59  1  0
 29 60  1  1
 30 61  1  0
 32 62  1  0
 32 63  1  0
 33 64  1  0
 33 65  1  0
 35 66  1  0
 36 67  1  0
 41 68  1  0
 41 69  1  0
 42 70  1  0
M  CHG  1  13  -1
M  END
>  <filename_input>  (18) 
7C0U_FGO_docked.sdf

>  <pdb_id>  (18) 
7C0U_FGO

>  <pose_rank>  (18) 
17

>  <num_atoms_heavy>  (18) 
43

>  <num_torsions>  (18) 
8

>  <pose>  (18) 
[41.5170788673089, 14.479393960230077, 54.97550470381047, -2.6890128682584717, 1.8090124782098944, 3.0728477760286874, 7.572398300251354, 2.2677663652324136, -4.580171978586813, -5.295202075284944, -1.3323715446550586, -5.159613360870612, -0.5391742992349288, 0.6294301016435476]

>  <energy>  (18) 
-674.1147960670779

>  <inter_energy>  (18) 
-732.7382670802308

>  <intra_energy>  (18) 
72.00953459858053

>  <rmsd>  (18) 
9.40406

>  <sdf_rank>  (18) 
0

$$$$

     RDKit          3D

 70 75  0  0  0  0  0  0  0  0999 V2000
   41.8295    8.9350   59.2319 C   0  0  1  0  0  0  0  0  0  0  0  0
   43.0368    7.3236   60.3399 C   0  0  1  0  0  0  0  0  0  0  0  0
   45.2541    7.5580   61.2013 C   0  0  0  0  0  0  0  0  0  0  0  0
   46.5197    6.8395   61.2136 C   0  0  0  0  0  0  0  0  0  0  0  0
   45.0347    5.7126   60.0928 C   0  0  0  0  0  0  0  0  0  0  0  0
   47.6064    7.4698   61.9617 C   0  0  0  0  0  0  0  0  0  0  0  0
   46.1767    9.2602   62.4795 C   0  0  0  0  0  0  0  0  0  0  0  0
   42.5480    8.2359   61.4433 C   0  0  1  0  0  0  0  0  0  0  0  0
   41.7190    9.2799   60.6922 C   0  0  2  0  0  0  0  0  0  0  0  0
   41.6472    7.4845   62.3491 C   0  0  0  0  0  0  0  0  0  0  0  0
   42.5773   12.2332   56.5931 O   0  0  0  0  0  0  0  0  0  0  0  0
   41.4387   11.3157   56.2281 P   0  0  1  0  0  0  0  0  0  0  0  0
   39.9839   12.0417   56.1330 O   0  0  0  0  0  0  0  0  0  0  0  0
   41.7508   10.7282   54.7763 O   0  0  0  0  0  0  0  0  0  0  0  0
   41.4165   11.4160   53.5654 C   0  0  2  0  0  0  0  0  0  0  0  0
   40.2518   10.6416   53.0070 C   0  0  1  0  0  0  0  0  0  0  0  0
   39.2513   11.5457   52.2940 C   0  0  0  0  0  0  0  0  0  0  0  0
   39.2580   12.9028   52.7572 O   0  0  0  0  0  0  0  0  0  0  0  0
   40.8601    9.6535   52.1707 O   0  0  0  0  0  0  0  0  0  0  0  0
   42.2337    9.9337   51.9615 C   0  0  1  0  0  0  0  0  0  0  0  0
   42.5700    9.6628   50.5335 N   0  0  0  0  0  0  0  0  0  0  0  0
   42.1074   10.3487   49.4283 C   0  0  0  0  0  0  0  0  0  0  0  0
   42.4689    9.8992   48.1344 C   0  0  0  0  0  0  0  0  0  0  0  0
   43.3372    8.7963   47.9995 C   0  0  0  0  0  0  0  0  0  0  0  0
   43.7291    8.3331   46.8649 O   0  0  0  0  0  0  0  0  0  0  0  0
   43.7552    8.1421   49.0972 N   0  0  0  0  0  0  0  0  0  0  0  0
   43.3936    8.5437   50.3295 C   0  0  0  0  0  0  0  0  0  0  0  0
   43.7995    7.9341   51.3395 O   0  0  0  0  0  0  0  0  0  0  0  0
   42.4641   11.3514   52.4675 C   0  0  2  0  0  0  0  0  0  0  0  0
   43.8200   11.5026   52.9407 O   0  0  0  0  0  0  0  0  0  0  0  0
   41.4201   10.0910   57.2416 O   0  0  0  0  0  0  0  0  0  0  0  0
   42.1355   10.1884   58.4477 C   0  0  0  0  0  0  0  0  0  0  0  0
   40.3204    9.2134   61.1584 C   0  0  0  0  0  0  0  0  0  0  0  0
   40.2460    7.9435   61.9914 C   0  0  1  0  0  0  0  0  0  0  0  0
   39.6507    6.9270   61.2261 O   0  0  0  0  0  0  0  0  0  0  0  0
   39.4983    8.1647   63.1993 O   0  0  0  0  0  0  0  0  0  0  0  0
   42.9556    8.0845   59.1558 O   0  0  0  0  0  0  0  0  0  0  0  0
   44.4266    6.8432   60.5025 N   0  0  0  0  0  0  0  0  0  0  0  0
   46.3246    5.7039   60.5358 N   0  0  0  0  0  0  0  0  0  0  0  0
   45.1161    8.7525   61.8074 N   0  0  0  0  0  0  0  0  0  0  0  0
   45.9963   10.4507   63.0945 N   0  0  0  0  0  0  0  0  0  0  0  0
   47.3611    8.6521   62.5430 N   0  0  0  0  0  0  0  0  0  0  0  0
   48.7320    6.9103   62.0185 O   0  0  0  0  0  0  0  0  0  0  0  0
   40.9091    8.4803   58.8371 H   0  0  0  0  0  0  0  0  0  0  0  0
   42.4164    6.4153   60.3405 H   0  0  0  0  0  0  0  0  0  0  0  0
   44.5636    4.9193   59.4938 H   0  0  0  0  0  0  0  0  0  0  0  0
   43.3654    8.6590   62.0457 H   0  0  0  0  0  0  0  0  0  0  0  0
   42.0754   10.3056   60.8678 H   0  0  0  0  0  0  0  0  0  0  0  0
   41.7515    6.4018   62.1851 H   0  0  0  0  0  0  0  0  0  0  0  0
   41.8819    7.6702   63.4076 H   0  0  0  0  0  0  0  0  0  0  0  0
   41.2635   12.4754   53.8190 H   0  0  0  0  0  0  0  0  0  0  0  0
   39.6332   10.1676   53.7833 H   0  0  0  0  0  0  0  0  0  0  0  0
   39.4893   11.5457   51.2200 H   0  0  0  0  0  0  0  0  0  0  0  0
   38.2502   11.1421   52.5061 H   0  0  0  0  0  0  0  0  0  0  0  0
   39.2581   12.9136   53.7472 H   0  0  0  0  0  0  0  0  0  0  0  0
   42.9272    9.2880   52.5202 H   0  0  0  0  0  0  0  0  0  0  0  0
   41.4658   11.2337   49.5509 H   0  0  0  0  0  0  0  0  0  0  0  0
   42.0751   10.4068   47.2415 H   0  0  0  0  0  0  0  0  0  0  0  0
   44.3638    7.3177   48.9928 H   0  0  0  0  0  0  0  0  0  0  0  0
   42.3631   12.1590   51.7275 H   0  0  0  0  0  0  0  0  0  0  0  0
   43.8259   11.5032   53.9307 H   0  0  0  0  0  0  0  0  0  0  0  0
   41.8124   11.0767   59.0102 H   0  0  0  0  0  0  0  0  0  0  0  0
   43.2152   10.2869   58.2620 H   0  0  0  0  0  0  0  0  0  0  0  0
   40.0744   10.0932   61.7711 H   0  0  0  0  0  0  0  0  0  0  0  0
   39.6053    9.2030   60.3227 H   0  0  0  0  0  0  0  0  0  0  0  0
   39.2538    6.2495   61.8290 H   0  0  0  0  0  0  0  0  0  0  0  0
   40.0786    7.9931   63.9828 H   0  0  0  0  0  0  0  0  0  0  0  0
   46.7705   10.8817   63.6196 H   0  0  0  0  0  0  0  0  0  0  0  0
   45.0846   10.9266   63.0379 H   0  0  0  0  0  0  0  0  0  0  0  0
   48.1224    9.1118   63.0626 H   0  0  0  0  0  0  0  0  0  0  0  0
  1  9  1  0
  1 32  1  0
  1 37  1  0
  2  8  1  0
  2 37  1  0
  2 38  1  0
  3  4  2  0
  3 38  1  0
  3 40  1  0
  4  6  1  0
  4 39  1  0
  5 38  1  0
  5 39  2  0
  6 42  1  0
  6 43  2  0
  7 40  2  0
  7 41  1  0
  7 42  1  0
  8  9  1  0
  8 10  1  0
  9 33  1  0
 10 34  1  0
 11 12  2  0
 12 13  1  6
 12 14  1  0
 12 31  1  0
 15 14  1  0
 15 16  1  0
 15 29  1  0
 16 17  1  0
 16 19  1  0
 17 18  1  0
 19 20  1  0
 20 21  1  0
 20 29  1  0
 21 22  1  0
 21 27  1  0
 22 23  2  0
 23 24  1  0
 24 25  2  0
 24 26  1  0
 26 27  1  0
 27 28  2  0
 29 30  1  0
 31 32  1  0
 33 34  1  0
 34 35  1  6
 34 36  1  0
  1 44  1  6
  2 45  1  6
  5 46  1  0
  8 47  1  1
  9 48  1  6
 10 49  1  0
 10 50  1  0
 15 51  1  1
 16 52  1  1
 17 53  1  0
 17 54  1  0
 18 55  1  0
 20 56  1  1
 22 57  1  0
 23 58  1  0
 26 59  1  0
 29 60  1  6
 30 61  1  0
 32 62  1  0
 32 63  1  0
 33 64  1  0
 33 65  1  0
 35 66  1  0
 36 67  1  0
 41 68  1  0
 41 69  1  0
 42 70  1  0
M  CHG  1  13  -1
M  END
>  <filename_input>  (19) 
7C0U_FGO_docked.sdf

>  <pdb_id>  (19) 
7C0U_FGO

>  <pose_rank>  (19) 
18

>  <num_atoms_heavy>  (19) 
43

>  <num_torsions>  (19) 
8

>  <pose>  (19) 
[42.13551085342038, 10.188350424690531, 58.44767206415993, 3.0181273578862142, -2.4183835652402257, -2.709340329297867, 0.5964516926265828, -2.8021586318647755, 0.39865682114986895, 3.4884678946974566, 3.8585909655556048, 0.05726446886618806, 0.15773443192781783, -1.5123601821851487]

>  <energy>  (19) 
-668.6851208298264

>  <inter_energy>  (19) 
-682.0699998804018

>  <intra_energy>  (19) 
34.47132244034488

>  <rmsd>  (19) 
10.5964

>  <sdf_rank>  (19) 
0

$$$$

     RDKit          3D

 70 75  0  0  0  0  0  0  0  0999 V2000
   42.4006   17.1915   58.0610 C   0  0  1  0  0  0  0  0  0  0  0  0
   40.4136   18.3376   57.9195 C   0  0  1  0  0  0  0  0  0  0  0  0
   38.4760   19.6141   57.3450 C   0  0  0  0  0  0  0  0  0  0  0  0
   37.8664   20.2394   56.1809 C   0  0  0  0  0  0  0  0  0  0  0  0
   39.7288   19.2688   55.6147 C   0  0  0  0  0  0  0  0  0  0  0  0
   36.6166   20.9593   56.4217 C   0  0  0  0  0  0  0  0  0  0  0  0
   36.7355   20.3545   58.6884 C   0  0  0  0  0  0  0  0  0  0  0  0
   39.9935   16.9154   58.2192 C   0  0  1  0  0  0  0  0  0  0  0  0
   41.3273   16.1761   58.3446 C   0  0  2  0  0  0  0  0  0  0  0  0
   39.3040   16.8649   59.5301 C   0  0  0  0  0  0  0  0  0  0  0  0
   45.0050   15.8163   54.9367 O   0  0  0  0  0  0  0  0  0  0  0  0
   43.5505   15.9943   54.5844 P   0  0  1  0  0  0  0  0  0  0  0  0
   43.2805   16.8208   53.2073 O   0  0  0  0  0  0  0  0  0  0  0  0
   42.9335   14.5370   54.3700 O   0  0  0  0  0  0  0  0  0  0  0  0
   41.9170   14.2524   53.4021 C   0  0  2  0  0  0  0  0  0  0  0  0
   40.7235   15.0412   53.8729 C   0  0  1  0  0  0  0  0  0  0  0  0
   39.8924   15.5726   52.7095 C   0  0  0  0  0  0  0  0  0  0  0  0
   40.2090   16.9198   52.3338 O   0  0  0  0  0  0  0  0  0  0  0  0
   40.0276   14.1372   54.7357 O   0  0  0  0  0  0  0  0  0  0  0  0
   40.5303   12.8179   54.6092 C   0  0  1  0  0  0  0  0  0  0  0  0
   39.3850   11.8619   54.6153 N   0  0  0  0  0  0  0  0  0  0  0  0
   38.9214   11.1303   55.6903 C   0  0  0  0  0  0  0  0  0  0  0  0
   37.8680   10.2039   55.4934 C   0  0  0  0  0  0  0  0  0  0  0  0
   37.2757   10.0859   54.2191 C   0  0  0  0  0  0  0  0  0  0  0  0
   36.3050    9.2833   53.9565 O   0  0  0  0  0  0  0  0  0  0  0  0
   37.7635   10.8022   53.1912 N   0  0  0  0  0  0  0  0  0  0  0  0
   38.7832   11.6634   53.3620 C   0  0  0  0  0  0  0  0  0  0  0  0
   39.2172   12.3306   52.4012 O   0  0  0  0  0  0  0  0  0  0  0  0
   41.4241   12.8159   53.3762 C   0  0  2  0  0  0  0  0  0  0  0  0
   42.4729   11.8332   53.5167 O   0  0  0  0  0  0  0  0  0  0  0  0
   42.7983   16.6505   55.8217 O   0  0  0  0  0  0  0  0  0  0  0  0
   43.3977   16.6026   57.0923 C   0  0  0  0  0  0  0  0  0  0  0  0
   41.4497   15.6277   59.7091 C   0  0  0  0  0  0  0  0  0  0  0  0
   40.3155   16.2703   60.4918 C   0  0  1  0  0  0  0  0  0  0  0  0
   40.8313   17.3225   61.2667 O   0  0  0  0  0  0  0  0  0  0  0  0
   39.6591   15.3049   61.3311 O   0  0  0  0  0  0  0  0  0  0  0  0
   41.7235   18.2454   57.4065 O   0  0  0  0  0  0  0  0  0  0  0  0
   39.5643   19.0401   56.9325 N   0  0  0  0  0  0  0  0  0  0  0  0
   38.6860   20.0145   55.1491 N   0  0  0  0  0  0  0  0  0  0  0  0
   37.8926   19.6629   58.5576 N   0  0  0  0  0  0  0  0  0  0  0  0
   36.1889   20.4012   59.9242 N   0  0  0  0  0  0  0  0  0  0  0  0
   36.1276   20.9616   57.6694 N   0  0  0  0  0  0  0  0  0  0  0  0
   36.0281   21.5262   55.4649 O   0  0  0  0  0  0  0  0  0  0  0  0
   42.9294   17.5090   58.9718 H   0  0  0  0  0  0  0  0  0  0  0  0
   40.3276   18.9268   58.8444 H   0  0  0  0  0  0  0  0  0  0  0  0
   40.5733   18.9095   55.0083 H   0  0  0  0  0  0  0  0  0  0  0  0
   39.3170   16.4973   57.4592 H   0  0  0  0  0  0  0  0  0  0  0  0
   41.4081   15.3326   57.6431 H   0  0  0  0  0  0  0  0  0  0  0  0
   39.0142   17.8760   59.8522 H   0  0  0  0  0  0  0  0  0  0  0  0
   38.3808   16.2684   59.4852 H   0  0  0  0  0  0  0  0  0  0  0  0
   42.3330   14.4805   52.4096 H   0  0  0  0  0  0  0  0  0  0  0  0
   40.9959   15.9612   54.4108 H   0  0  0  0  0  0  0  0  0  0  0  0
   40.0608   14.9220   51.8386 H   0  0  0  0  0  0  0  0  0  0  0  0
   38.8438   15.5729   53.0416 H   0  0  0  0  0  0  0  0  0  0  0  0
   40.3377   17.4679   53.1481 H   0  0  0  0  0  0  0  0  0  0  0  0
   41.1571   12.4800   55.4477 H   0  0  0  0  0  0  0  0  0  0  0  0
   39.3648   11.2651   56.6879 H   0  0  0  0  0  0  0  0  0  0  0  0
   37.5146    9.5811   56.3284 H   0  0  0  0  0  0  0  0  0  0  0  0
   37.3487   10.6897   52.2552 H   0  0  0  0  0  0  0  0  0  0  0  0
   40.9462   12.5414   52.4243 H   0  0  0  0  0  0  0  0  0  0  0  0
   42.6463   11.6707   54.4778 H   0  0  0  0  0  0  0  0  0  0  0  0
   44.3258   17.1931   57.0968 H   0  0  0  0  0  0  0  0  0  0  0  0
   43.6588   15.5706   57.3695 H   0  0  0  0  0  0  0  0  0  0  0  0
   41.3406   14.5332   59.6977 H   0  0  0  0  0  0  0  0  0  0  0  0
   42.4328   15.8405   60.1544 H   0  0  0  0  0  0  0  0  0  0  0  0
   40.7259   17.1074   62.2273 H   0  0  0  0  0  0  0  0  0  0  0  0
   39.8148   15.5339   62.2816 H   0  0  0  0  0  0  0  0  0  0  0  0
   35.3091   20.9139   60.0791 H   0  0  0  0  0  0  0  0  0  0  0  0
   36.6523   19.9241   60.7106 H   0  0  0  0  0  0  0  0  0  0  0  0
   35.2415   21.4551   57.8492 H   0  0  0  0  0  0  0  0  0  0  0  0
  1  9  1  0
  1 32  1  0
  1 37  1  0
  2  8  1  0
  2 37  1  0
  2 38  1  0
  3  4  2  0
  3 38  1  0
  3 40  1  0
  4  6  1  0
  4 39  1  0
  5 38  1  0
  5 39  2  0
  6 42  1  0
  6 43  2  0
  7 40  2  0
  7 41  1  0
  7 42  1  0
  8  9  1  0
  8 10  1  0
  9 33  1  0
 10 34  1  0
 11 12  2  0
 12 13  1  6
 12 14  1  0
 12 31  1  0
 15 14  1  0
 15 16  1  0
 15 29  1  0
 16 17  1  0
 16 19  1  0
 17 18  1  0
 19 20  1  0
 20 21  1  0
 20 29  1  0
 21 22  1  0
 21 27  1  0
 22 23  2  0
 23 24  1  0
 24 25  2  0
 24 26  1  0
 26 27  1  0
 27 28  2  0
 29 30  1  0
 31 32  1  0
 33 34  1  0
 34 35  1  1
 34 36  1  0
  1 44  1  1
  2 45  1  1
  5 46  1  0
  8 47  1  6
  9 48  1  6
 10 49  1  0
 10 50  1  0
 15 51  1  6
 16 52  1  1
 17 53  1  0
 17 54  1  0
 18 55  1  0
 20 56  1  1
 22 57  1  0
 23 58  1  0
 26 59  1  0
 29 60  1  6
 30 61  1  0
 32 62  1  0
 32 63  1  0
 33 64  1  0
 33 65  1  0
 35 66  1  0
 36 67  1  0
 41 68  1  0
 41 69  1  0
 42 70  1  0
M  CHG  1  13  -1
M  END
>  <filename_input>  (20) 
7C0U_FGO_docked.sdf

>  <pdb_id>  (20) 
7C0U_FGO

>  <pose_rank>  (20) 
19

>  <num_atoms_heavy>  (20) 
43

>  <num_torsions>  (20) 
8

>  <pose>  (20) 
[43.39767450105296, 16.602629647560974, 57.09227104204671, -0.7341934853761818, 1.4225779889120098, -0.6370871086980644, 4.425285121032079, -0.8899467558634867, -5.718502297773635, 2.8824126778199743, -3.481189655202255, 0.80175299574122, 3.5647431103625746, -2.732417536309061]

>  <energy>  (20) 
-556.8143667665205

>  <inter_energy>  (20) 
-617.0746188742664

>  <intra_energy>  (20) 
63.601722209436964

>  <rmsd>  (20) 
9.56163

>  <sdf_rank>  (20) 
0

$$$$

     RDKit          3D

 70 75  0  0  0  0  0  0  0  0999 V2000
   36.1332   15.1592   52.6062 C   0  0  1  0  0  0  0  0  0  0  0  0
   34.3826   16.6444   52.5010 C   0  0  1  0  0  0  0  0  0  0  0  0
   34.1594   18.4650   54.0337 C   0  0  0  0  0  0  0  0  0  0  0  0
   33.1234   19.1685   54.7751 C   0  0  0  0  0  0  0  0  0  0  0  0
   32.2390   17.5688   53.5960 C   0  0  0  0  0  0  0  0  0  0  0  0
   33.5733   20.2948   55.5918 C   0  0  0  0  0  0  0  0  0  0  0  0
   35.7821   19.8691   54.9155 C   0  0  0  0  0  0  0  0  0  0  0  0
   35.5029   17.3490   51.7680 C   0  0  1  0  0  0  0  0  0  0  0  0
   36.6461   16.3331   51.8173 C   0  0  2  0  0  0  0  0  0  0  0  0
   35.1194   17.5554   50.3513 C   0  0  0  0  0  0  0  0  0  0  0  0
   38.3770   12.0218   54.5278 O   0  0  0  0  0  0  0  0  0  0  0  0
   39.1408   13.0924   53.7918 P   0  0  1  0  0  0  0  0  0  0  0  0
   40.0931   14.0184   54.7342 O   0  0  0  0  0  0  0  0  0  0  0  0
   40.1046   12.3569   52.7525 O   0  0  0  0  0  0  0  0  0  0  0  0
   41.0675   11.3706   53.1412 C   0  0  2  0  0  0  0  0  0  0  0  0
   42.3980   12.0282   52.8850 C   0  0  1  0  0  0  0  0  0  0  0  0
   43.4492   11.6134   53.9094 C   0  0  0  0  0  0  0  0  0  0  0  0
   44.6104   12.4548   53.9271 O   0  0  0  0  0  0  0  0  0  0  0  0
   42.7093   11.6690   51.5359 O   0  0  0  0  0  0  0  0  0  0  0  0
   41.8436   10.6508   51.0634 C   0  0  1  0  0  0  0  0  0  0  0  0
   42.6405    9.6672   50.2739 N   0  0  0  0  0  0  0  0  0  0  0  0
   43.5244    8.7290   50.7682 C   0  0  0  0  0  0  0  0  0  0  0  0
   44.2602    7.9272   49.8614 C   0  0  0  0  0  0  0  0  0  0  0  0
   44.0369    8.0621   48.4756 C   0  0  0  0  0  0  0  0  0  0  0  0
   44.6482    7.3639   47.5844 O   0  0  0  0  0  0  0  0  0  0  0  0
   43.1806    8.9975   48.0290 N   0  0  0  0  0  0  0  0  0  0  0  0
   42.4987    9.7840   48.8816 C   0  0  0  0  0  0  0  0  0  0  0  0
   41.6981   10.6393   48.4528 O   0  0  0  0  0  0  0  0  0  0  0  0
   41.1024   10.1183   52.2825 C   0  0  2  0  0  0  0  0  0  0  0  0
   39.7972    9.6299   51.9039 O   0  0  0  0  0  0  0  0  0  0  0  0
   38.1156   13.9686   52.9499 O   0  0  0  0  0  0  0  0  0  0  0  0
   37.1694   14.7568   53.6278 C   0  0  0  0  0  0  0  0  0  0  0  0
   37.0058   15.9428   50.4404 C   0  0  0  0  0  0  0  0  0  0  0  0
   35.8969   16.5127   49.5702 C   0  0  1  0  0  0  0  0  0  0  0  0
   35.0026   15.4829   49.2338 O   0  0  0  0  0  0  0  0  0  0  0  0
   36.4355   17.1168   48.3819 O   0  0  0  0  0  0  0  0  0  0  0  0
   35.0090   15.6643   53.2977 O   0  0  0  0  0  0  0  0  0  0  0  0
   33.5672   17.5174   53.3739 N   0  0  0  0  0  0  0  0  0  0  0  0
   31.9610   18.5910   54.4550 N   0  0  0  0  0  0  0  0  0  0  0  0
   35.4570   18.8101   54.1364 N   0  0  0  0  0  0  0  0  0  0  0  0
   37.0913   20.2013   54.9782 N   0  0  0  0  0  0  0  0  0  0  0  0
   34.8854   20.5665   55.6126 N   0  0  0  0  0  0  0  0  0  0  0  0
   32.7369   20.9528   56.2631 O   0  0  0  0  0  0  0  0  0  0  0  0
   35.9028   14.2931   51.9683 H   0  0  0  0  0  0  0  0  0  0  0  0
   33.6789   16.2439   51.7564 H   0  0  0  0  0  0  0  0  0  0  0  0
   31.4944   16.8911   53.1530 H   0  0  0  0  0  0  0  0  0  0  0  0
   35.7522   18.3284   52.2022 H   0  0  0  0  0  0  0  0  0  0  0  0
   37.5514   16.7416   52.2902 H   0  0  0  0  0  0  0  0  0  0  0  0
   34.0373   17.4078   50.2197 H   0  0  0  0  0  0  0  0  0  0  0  0
   35.3452   18.5763   50.0099 H   0  0  0  0  0  0  0  0  0  0  0  0
   40.8284   11.0633   54.1700 H   0  0  0  0  0  0  0  0  0  0  0  0
   42.3713   13.1218   53.0005 H   0  0  0  0  0  0  0  0  0  0  0  0
   42.9883   11.6391   54.9078 H   0  0  0  0  0  0  0  0  0  0  0  0
   43.7900   10.6067   53.6259 H   0  0  0  0  0  0  0  0  0  0  0  0
   44.8683   12.6416   54.8645 H   0  0  0  0  0  0  0  0  0  0  0  0
   41.0733   10.9911   50.3557 H   0  0  0  0  0  0  0  0  0  0  0  0
   43.6557    8.6056   51.8533 H   0  0  0  0  0  0  0  0  0  0  0  0
   45.0005    7.2047   50.2355 H   0  0  0  0  0  0  0  0  0  0  0  0
   43.0440    9.1143   47.0148 H   0  0  0  0  0  0  0  0  0  0  0  0
   41.5559    9.2569   52.7948 H   0  0  0  0  0  0  0  0  0  0  0  0
   39.2698    9.4326   52.7182 H   0  0  0  0  0  0  0  0  0  0  0  0
   37.6524   15.6499   54.0509 H   0  0  0  0  0  0  0  0  0  0  0  0
   36.7121   14.2006   54.4594 H   0  0  0  0  0  0  0  0  0  0  0  0
   37.9786   16.3719   50.1581 H   0  0  0  0  0  0  0  0  0  0  0  0
   37.0999   14.8524   50.3301 H   0  0  0  0  0  0  0  0  0  0  0  0
   34.6460   15.0722   50.0610 H   0  0  0  0  0  0  0  0  0  0  0  0
   37.0726   17.8312   48.6345 H   0  0  0  0  0  0  0  0  0  0  0  0
   37.3932   20.9986   55.5562 H   0  0  0  0  0  0  0  0  0  0  0  0
   37.7866   19.6570   54.4479 H   0  0  0  0  0  0  0  0  0  0  0  0
   35.2160   21.3500   56.1938 H   0  0  0  0  0  0  0  0  0  0  0  0
  1  9  1  0
  1 32  1  0
  1 37  1  0
  2  8  1  0
  2 37  1  0
  2 38  1  0
  3  4  2  0
  3 38  1  0
  3 40  1  0
  4  6  1  0
  4 39  1  0
  5 38  1  0
  5 39  2  0
  6 42  1  0
  6 43  2  0
  7 40  2  0
  7 41  1  0
  7 42  1  0
  8  9  1  0
  8 10  1  0
  9 33  1  0
 10 34  1  0
 11 12  2  0
 12 13  1  1
 12 14  1  0
 12 31  1  0
 15 14  1  0
 15 16  1  0
 15 29  1  0
 16 17  1  0
 16 19  1  0
 17 18  1  0
 19 20  1  0
 20 21  1  0
 20 29  1  0
 21 22  1  0
 21 27  1  0
 22 23  2  0
 23 24  1  0
 24 25  2  0
 24 26  1  0
 26 27  1  0
 27 28  2  0
 29 30  1  0
 31 32  1  0
 33 34  1  0
 34 35  1  6
 34 36  1  0
  1 44  1  6
  2 45  1  6
  5 46  1  0
  8 47  1  1
  9 48  1  1
 10 49  1  0
 10 50  1  0
 15 51  1  1
 16 52  1  6
 17 53  1  0
 17 54  1  0
 18 55  1  0
 20 56  1  6
 22 57  1  0
 23 58  1  0
 26 59  1  0
 29 60  1  1
 30 61  1  0
 32 62  1  0
 32 63  1  0
 33 64  1  0
 33 65  1  0
 35 66  1  0
 36 67  1  0
 41 68  1  0
 41 69  1  0
 42 70  1  0
M  CHG  1  13  -1
M  END
>  <filename_input>  (21) 
7C0U_FGO_docked.sdf

>  <pdb_id>  (21) 
7C0U_FGO

>  <pose_rank>  (21) 
20

>  <num_atoms_heavy>  (21) 
43

>  <num_torsions>  (21) 
8

>  <pose>  (21) 
[37.169427874498545, 14.756766412018873, 53.62783454343222, 2.4821869706817825, 0.11397793927048641, 4.167655684302797, 1.6652714501733183, 3.270570593669566, 0.7400780990026306, -1.9304508784993295, -1.9292589975379737, -0.03135507584046053, 0.2789909356881077, 2.3447081203653877]

>  <energy>  (21) 
-636.4875255743261

>  <inter_energy>  (21) 
-661.9815634960463

>  <intra_energy>  (21) 
28.402569140420464

>  <rmsd>  (21) 
11.2275

>  <sdf_rank>  (21) 
0

$$$$

     RDKit          3D

 70 75  0  0  0  0  0  0  0  0999 V2000
   42.3645   15.8865   54.7785 C   0  0  1  0  0  0  0  0  0  0  0  0
   41.2247   17.4428   56.0276 C   0  0  1  0  0  0  0  0  0  0  0  0
   39.5336   18.4422   57.3896 C   0  0  0  0  0  0  0  0  0  0  0  0
   38.9827   18.3304   58.7320 C   0  0  0  0  0  0  0  0  0  0  0  0
   40.5849   16.8842   58.4621 C   0  0  0  0  0  0  0  0  0  0  0  0
   37.8707   19.2270   59.0443 C   0  0  0  0  0  0  0  0  0  0  0  0
   38.0347   20.1399   56.8863 C   0  0  0  0  0  0  0  0  0  0  0  0
   42.6589   17.9228   56.0677 C   0  0  1  0  0  0  0  0  0  0  0  0
   43.3952   16.8966   55.2038 C   0  0  2  0  0  0  0  0  0  0  0  0
   42.7598   19.2476   55.4112 C   0  0  0  0  0  0  0  0  0  0  0  0
   42.6157   11.8526   55.7679 O   0  0  0  0  0  0  0  0  0  0  0  0
   42.1016   12.1209   54.3769 P   0  0  1  0  0  0  0  0  0  0  0  0
   42.7521   11.1796   53.2180 O   0  0  0  0  0  0  0  0  0  0  0  0
   40.5339   11.8169   54.3847 O   0  0  0  0  0  0  0  0  0  0  0  0
   39.6048   12.5193   55.2181 C   0  0  2  0  0  0  0  0  0  0  0  0
   39.2711   11.5392   56.3118 C   0  0  1  0  0  0  0  0  0  0  0  0
   39.0370   12.2319   57.6505 C   0  0  0  0  0  0  0  0  0  0  0  0
   39.8917   11.7682   58.7046 O   0  0  0  0  0  0  0  0  0  0  0  0
   38.1390   10.8261   55.8062 O   0  0  0  0  0  0  0  0  0  0  0  0
   37.6035   11.4616   54.6579 C   0  0  1  0  0  0  0  0  0  0  0  0
   36.1142   11.4313   54.7394 N   0  0  0  0  0  0  0  0  0  0  0  0
   35.3072   12.2718   55.4798 C   0  0  0  0  0  0  0  0  0  0  0  0
   33.9091   12.0446   55.5029 C   0  0  0  0  0  0  0  0  0  0  0  0
   33.3618   11.0018   54.7274 C   0  0  0  0  0  0  0  0  0  0  0  0
   32.1038   10.7365   54.6769 O   0  0  0  0  0  0  0  0  0  0  0  0
   34.1792   10.1926   54.0312 N   0  0  0  0  0  0  0  0  0  0  0  0
   35.5113   10.3823   54.0263 C   0  0  0  0  0  0  0  0  0  0  0  0
   36.2563    9.6308   53.3655 O   0  0  0  0  0  0  0  0  0  0  0  0
   38.2625   12.8322   54.5797 C   0  0  2  0  0  0  0  0  0  0  0  0
   38.3536   13.2690   53.2063 O   0  0  0  0  0  0  0  0  0  0  0  0
   42.2834   13.6663   54.0508 O   0  0  0  0  0  0  0  0  0  0  0  0
   42.9131   14.4965   54.9942 C   0  0  0  0  0  0  0  0  0  0  0  0
   43.9912   17.5824   54.0410 C   0  0  0  0  0  0  0  0  0  0  0  0
   43.3831   18.9759   54.0549 C   0  0  1  0  0  0  0  0  0  0  0  0
   42.3565   19.0379   53.0979 O   0  0  0  0  0  0  0  0  0  0  0  0
   44.3813   19.9747   53.7846 O   0  0  0  0  0  0  0  0  0  0  0  0
   41.2916   16.0787   55.6780 O   0  0  0  0  0  0  0  0  0  0  0  0
   40.4918   17.5711   57.3064 N   0  0  0  0  0  0  0  0  0  0  0  0
   39.6503   17.3457   59.3417 N   0  0  0  0  0  0  0  0  0  0  0  0
   39.0700   19.3514   56.5111 N   0  0  0  0  0  0  0  0  0  0  0  0
   37.5803   21.0262   55.9718 N   0  0  0  0  0  0  0  0  0  0  0  0
   37.4734   20.0841   58.0938 N   0  0  0  0  0  0  0  0  0  0  0  0
   37.3409   19.1910   60.1850 O   0  0  0  0  0  0  0  0  0  0  0  0
   42.0770   15.9990   53.7227 H   0  0  0  0  0  0  0  0  0  0  0  0
   40.6693   18.0688   55.3136 H   0  0  0  0  0  0  0  0  0  0  0  0
   41.3034   16.0763   58.6647 H   0  0  0  0  0  0  0  0  0  0  0  0
   43.0531   18.0156   57.0904 H   0  0  0  0  0  0  0  0  0  0  0  0
   44.2125   16.3992   55.7465 H   0  0  0  0  0  0  0  0  0  0  0  0
   41.7624   19.6965   55.2939 H   0  0  0  0  0  0  0  0  0  0  0  0
   43.3592   19.9544   56.0038 H   0  0  0  0  0  0  0  0  0  0  0  0
   40.0712   13.4749   55.5000 H   0  0  0  0  0  0  0  0  0  0  0  0
   40.0955   10.8483   56.5420 H   0  0  0  0  0  0  0  0  0  0  0  0
   39.2072   13.3103   57.5163 H   0  0  0  0  0  0  0  0  0  0  0  0
   38.0050   12.0002   57.9524 H   0  0  0  0  0  0  0  0  0  0  0  0
   39.4853   11.9887   59.5800 H   0  0  0  0  0  0  0  0  0  0  0  0
   37.8233   10.9565   53.7057 H   0  0  0  0  0  0  0  0  0  0  0  0
   35.7446   13.1078   56.0452 H   0  0  0  0  0  0  0  0  0  0  0  0
   33.2552   12.6771   56.1213 H   0  0  0  0  0  0  0  0  0  0  0  0
   33.7780    9.4126   53.4912 H   0  0  0  0  0  0  0  0  0  0  0  0
   37.7329   13.6601   55.0738 H   0  0  0  0  0  0  0  0  0  0  0  0
   38.5556   14.2379   53.1809 H   0  0  0  0  0  0  0  0  0  0  0  0
   44.0021   14.4898   54.8391 H   0  0  0  0  0  0  0  0  0  0  0  0
   42.7213   14.1487   56.0200 H   0  0  0  0  0  0  0  0  0  0  0  0
   45.0852   17.6365   54.1425 H   0  0  0  0  0  0  0  0  0  0  0  0
   43.7893   17.0517   53.0989 H   0  0  0  0  0  0  0  0  0  0  0  0
   41.4807   19.0908   53.5564 H   0  0  0  0  0  0  0  0  0  0  0  0
   44.7344   20.3280   54.6393 H   0  0  0  0  0  0  0  0  0  0  0  0
   36.7948   21.6501   56.2054 H   0  0  0  0  0  0  0  0  0  0  0  0
   38.0197   21.0774   55.0416 H   0  0  0  0  0  0  0  0  0  0  0  0
   36.6990   20.7292   58.3061 H   0  0  0  0  0  0  0  0  0  0  0  0
  1  9  1  0
  1 32  1  0
  1 37  1  0
  2  8  1  0
  2 37  1  0
  2 38  1  0
  3  4  2  0
  3 38  1  0
  3 40  1  0
  4  6  1  0
  4 39  1  0
  5 38  1  0
  5 39  2  0
  6 42  1  0
  6 43  2  0
  7 40  2  0
  7 41  1  0
  7 42  1  0
  8  9  1  0
  8 10  1  0
  9 33  1  0
 10 34  1  0
 11 12  2  0
 12 13  1  6
 12 14  1  0
 12 31  1  0
 15 14  1  0
 15 16  1  0
 15 29  1  0
 16 17  1  0
 16 19  1  0
 17 18  1  0
 19 20  1  0
 20 21  1  0
 20 29  1  0
 21 22  1  0
 21 27  1  0
 22 23  2  0
 23 24  1  0
 24 25  2  0
 24 26  1  0
 26 27  1  0
 27 28  2  0
 29 30  1  0
 31 32  1  0
 33 34  1  0
 34 35  1  6
 34 36  1  0
  1 44  1  6
  2 45  1  6
  5 46  1  0
  8 47  1  1
  9 48  1  1
 10 49  1  0
 10 50  1  0
 15 51  1  1
 16 52  1  1
 17 53  1  0
 17 54  1  0
 18 55  1  0
 20 56  1  6
 22 57  1  0
 23 58  1  0
 26 59  1  0
 29 60  1  1
 30 61  1  0
 32 62  1  0
 32 63  1  0
 33 64  1  0
 33 65  1  0
 35 66  1  0
 36 67  1  0
 41 68  1  0
 41 69  1  0
 42 70  1  0
M  CHG  1  13  -1
M  END
>  <filename_input>  (22) 
7C0U_FGO_docked.sdf

>  <pdb_id>  (22) 
7C0U_FGO

>  <pose_rank>  (22) 
21

>  <num_atoms_heavy>  (22) 
43

>  <num_torsions>  (22) 
8

>  <pose>  (22) 
[42.91313940827843, 14.49653396118865, 54.99423687634814, 1.8043064872518728, -1.8621037153269924, 2.966308105025959, 0.42902231092801885, -0.42321122075383244, 0.9570863576657674, 3.256095248449143, 0.11545928913350002, 0.0960143147593385, 0.3897514212771025, 3.074714329398596]

>  <energy>  (22) 
-720.3307903346456

>  <inter_energy>  (22) 
-715.0857487738945

>  <intra_energy>  (22) 
1.4289837794734077

>  <rmsd>  (22) 
9.60317

>  <sdf_rank>  (22) 
0

$$$$

     RDKit          3D

 70 75  0  0  0  0  0  0  0  0999 V2000
   40.5803   12.8576   53.3936 C   0  0  1  0  0  0  0  0  0  0  0  0
   38.4969   11.9293   53.1116 C   0  0  1  0  0  0  0  0  0  0  0  0
   36.5059   10.6067   53.1055 C   0  0  0  0  0  0  0  0  0  0  0  0
   35.8288    9.6198   53.9335 C   0  0  0  0  0  0  0  0  0  0  0  0
   37.6851   10.2402   54.8825 C   0  0  0  0  0  0  0  0  0  0  0  0
   34.5752    9.0885   53.4005 C   0  0  0  0  0  0  0  0  0  0  0  0
   34.8125   10.4823   51.5246 C   0  0  0  0  0  0  0  0  0  0  0  0
   38.2085   13.3726   53.4618 C   0  0  1  0  0  0  0  0  0  0  0  0
   39.6043   13.9817   53.6109 C   0  0  2  0  0  0  0  0  0  0  0  0
   37.5265   14.0348   52.3248 C   0  0  0  0  0  0  0  0  0  0  0  0
   44.9874   14.4496   54.2507 O   0  0  0  0  0  0  0  0  0  0  0  0
   43.7615   14.2145   55.0953 P   0  0  1  0  0  0  0  0  0  0  0  0
   43.9320   13.0654   56.2367 O   0  0  0  0  0  0  0  0  0  0  0  0
   43.4478   15.5784   55.8646 O   0  0  0  0  0  0  0  0  0  0  0  0
   42.6378   16.6211   55.3098 C   0  0  2  0  0  0  0  0  0  0  0  0
   43.1961   17.8849   55.9093 C   0  0  1  0  0  0  0  0  0  0  0  0
   43.1263   19.0594   54.9386 C   0  0  0  0  0  0  0  0  0  0  0  0
   41.7950   19.5279   54.6844 O   0  0  0  0  0  0  0  0  0  0  0  0
   42.4414   18.0624   57.1113 O   0  0  0  0  0  0  0  0  0  0  0  0
   41.3197   17.1965   57.1454 C   0  0  1  0  0  0  0  0  0  0  0  0
   40.1477   17.9452   57.6854 N   0  0  0  0  0  0  0  0  0  0  0  0
   39.3666   18.8616   57.0102 C   0  0  0  0  0  0  0  0  0  0  0  0
   38.3386   19.5415   57.7085 C   0  0  0  0  0  0  0  0  0  0  0  0
   38.0955   19.2308   59.0623 C   0  0  0  0  0  0  0  0  0  0  0  0
   37.1732   19.7870   59.7661 O   0  0  0  0  0  0  0  0  0  0  0  0
   38.8864   18.3450   59.6927 N   0  0  0  0  0  0  0  0  0  0  0  0
   39.8842   17.7156   59.0456 C   0  0  0  0  0  0  0  0  0  0  0  0
   40.6022   16.8867   59.6406 O   0  0  0  0  0  0  0  0  0  0  0  0
   41.1822   16.6176   55.7436 C   0  0  2  0  0  0  0  0  0  0  0  0
   40.5895   15.3019   55.7985 O   0  0  0  0  0  0  0  0  0  0  0  0
   42.5277   13.9151   54.1385 O   0  0  0  0  0  0  0  0  0  0  0  0
   41.6269   12.8918   54.4812 C   0  0  0  0  0  0  0  0  0  0  0  0
   39.7763   15.0481   52.6055 C   0  0  0  0  0  0  0  0  0  0  0  0
   38.5882   14.8975   51.6686 C   0  0  1  0  0  0  0  0  0  0  0  0
   39.0058   14.2383   50.5005 O   0  0  0  0  0  0  0  0  0  0  0  0
   38.0228   16.1793   51.3459 O   0  0  0  0  0  0  0  0  0  0  0  0
   39.8097   11.6851   53.5636 O   0  0  0  0  0  0  0  0  0  0  0  0
   37.5870   10.9454   53.7383 N   0  0  0  0  0  0  0  0  0  0  0  0
   36.6050    9.4161   55.0027 N   0  0  0  0  0  0  0  0  0  0  0  0
   35.9780   11.0316   51.9419 N   0  0  0  0  0  0  0  0  0  0  0  0
   34.3226   10.9162   50.3415 N   0  0  0  0  0  0  0  0  0  0  0  0
   34.1443    9.5658   52.2246 N   0  0  0  0  0  0  0  0  0  0  0  0
   33.9302    8.2316   54.0584 O   0  0  0  0  0  0  0  0  0  0  0  0
   41.0780   12.9170   52.4145 H   0  0  0  0  0  0  0  0  0  0  0  0
   38.3575   11.8008   52.0280 H   0  0  0  0  0  0  0  0  0  0  0  0
   38.5089   10.3174   55.6074 H   0  0  0  0  0  0  0  0  0  0  0  0
   37.5730   13.4804   54.3532 H   0  0  0  0  0  0  0  0  0  0  0  0
   39.7617   14.4349   54.6008 H   0  0  0  0  0  0  0  0  0  0  0  0
   37.1456   13.2859   51.6148 H   0  0  0  0  0  0  0  0  0  0  0  0
   36.6617   14.6291   52.6550 H   0  0  0  0  0  0  0  0  0  0  0  0
   42.6604   16.5100   54.2157 H   0  0  0  0  0  0  0  0  0  0  0  0
   44.2718   17.8222   56.1305 H   0  0  0  0  0  0  0  0  0  0  0  0
   43.7112   19.8907   55.3589 H   0  0  0  0  0  0  0  0  0  0  0  0
   43.5269   18.7026   53.9782 H   0  0  0  0  0  0  0  0  0  0  0  0
   41.3326   19.6906   55.5445 H   0  0  0  0  0  0  0  0  0  0  0  0
   41.4186   16.3390   57.8272 H   0  0  0  0  0  0  0  0  0  0  0  0
   39.5404   19.0615   55.9425 H   0  0  0  0  0  0  0  0  0  0  0  0
   37.7344   20.3062   57.1984 H   0  0  0  0  0  0  0  0  0  0  0  0
   38.7255   18.1444   60.6901 H   0  0  0  0  0  0  0  0  0  0  0  0
   40.5246   17.1624   55.0501 H   0  0  0  0  0  0  0  0  0  0  0  0
   40.4687   15.0337   56.7438 H   0  0  0  0  0  0  0  0  0  0  0  0
   41.1583   13.1081   55.4526 H   0  0  0  0  0  0  0  0  0  0  0  0
   42.1409   11.9231   54.5683 H   0  0  0  0  0  0  0  0  0  0  0  0
   39.7676   16.0378   53.0855 H   0  0  0  0  0  0  0  0  0  0  0  0
   40.7358   14.9655   52.0741 H   0  0  0  0  0  0  0  0  0  0  0  0
   39.5193   13.4279   50.7445 H   0  0  0  0  0  0  0  0  0  0  0  0
   37.8084   16.6653   52.1814 H   0  0  0  0  0  0  0  0  0  0  0  0
   33.4392   10.5313   49.9776 H   0  0  0  0  0  0  0  0  0  0  0  0
   34.8327   11.6317   49.8041 H   0  0  0  0  0  0  0  0  0  0  0  0
   33.2563    9.2082   51.8447 H   0  0  0  0  0  0  0  0  0  0  0  0
  1  9  1  0
  1 32  1  0
  1 37  1  0
  2  8  1  0
  2 37  1  0
  2 38  1  0
  3  4  2  0
  3 38  1  0
  3 40  1  0
  4  6  1  0
  4 39  1  0
  5 38  1  0
  5 39  2  0
  6 42  1  0
  6 43  2  0
  7 40  2  0
  7 41  1  0
  7 42  1  0
  8  9  1  0
  8 10  1  0
  9 33  1  0
 10 34  1  0
 11 12  2  0
 12 13  1  1
 12 14  1  0
 12 31  1  0
 15 14  1  0
 15 16  1  0
 15 29  1  0
 16 17  1  0
 16 19  1  0
 17 18  1  0
 19 20  1  0
 20 21  1  0
 20 29  1  0
 21 22  1  0
 21 27  1  0
 22 23  2  0
 23 24  1  0
 24 25  2  0
 24 26  1  0
 26 27  1  0
 27 28  2  0
 29 30  1  0
 31 32  1  0
 33 34  1  0
 34 35  1  6
 34 36  1  0
  1 44  1  6
  2 45  1  6
  5 46  1  0
  8 47  1  1
  9 48  1  1
 10 49  1  0
 10 50  1  0
 15 51  1  6
 16 52  1  1
 17 53  1  0
 17 54  1  0
 18 55  1  0
 20 56  1  1
 22 57  1  0
 23 58  1  0
 26 59  1  0
 29 60  1  6
 30 61  1  0
 32 62  1  0
 32 63  1  0
 33 64  1  0
 33 65  1  0
 35 66  1  0
 36 67  1  0
 41 68  1  0
 41 69  1  0
 42 70  1  0
M  CHG  1  13  -1
M  END
>  <filename_input>  (23) 
7C0U_FGO_docked.sdf

>  <pdb_id>  (23) 
7C0U_FGO

>  <pose_rank>  (23) 
22

>  <num_atoms_heavy>  (23) 
43

>  <num_torsions>  (23) 
8

>  <pose>  (23) 
[41.62694559796365, 12.891758884861858, 54.48120070108556, -4.547945453532902, 2.5987163558132953, 3.034774261522295, 8.00258910834565, 5.497703249291349, 0.4775642351049796, 5.6089935998564, 0.5846479995506915, -0.6839441246542148, 0.35106272104699093, 0.15264503161576493]

>  <energy>  (23) 
-629.9487159397812

>  <inter_energy>  (23) 
-692.4914273456365

>  <intra_energy>  (23) 
65.12784951182205

>  <rmsd>  (23) 
4.73979

>  <sdf_rank>  (23) 
0

$$$$

     RDKit          3D

 70 75  0  0  0  0  0  0  0  0999 V2000
   41.7948   10.7637   57.5228 C   0  0  1  0  0  0  0  0  0  0  0  0
   40.7429    9.3884   59.0339 C   0  0  1  0  0  0  0  0  0  0  0  0
   42.1745    7.9577   60.3057 C   0  0  0  0  0  0  0  0  0  0  0  0
   42.1123    6.7141   61.0591 C   0  0  0  0  0  0  0  0  0  0  0  0
   40.1534    7.1871   60.2403 C   0  0  0  0  0  0  0  0  0  0  0  0
   43.3580    6.2879   61.6950 C   0  0  0  0  0  0  0  0  0  0  0  0
   44.4315    8.1743   60.7968 C   0  0  0  0  0  0  0  0  0  0  0  0
   40.9288   10.6857   59.7898 C   0  0  1  0  0  0  0  0  0  0  0  0
   41.5970   11.5981   58.7590 C   0  0  2  0  0  0  0  0  0  0  0  0
   39.6050   11.2565   60.1335 C   0  0  0  0  0  0  0  0  0  0  0  0
   44.8142   13.1082   54.8742 O   0  0  0  0  0  0  0  0  0  0  0  0
   43.3831   12.8702   55.2821 P   0  0  1  0  0  0  0  0  0  0  0  0
   42.3969   14.1508   55.0822 O   0  0  0  0  0  0  0  0  0  0  0  0
   42.8125   11.7055   54.3504 O   0  0  0  0  0  0  0  0  0  0  0  0
   42.0421   11.9551   53.1692 C   0  0  2  0  0  0  0  0  0  0  0  0
   41.0126   10.8559   53.1573 C   0  0  1  0  0  0  0  0  0  0  0  0
   39.6786   11.3261   52.5862 C   0  0  0  0  0  0  0  0  0  0  0  0
   38.6391   11.4587   53.5652 O   0  0  0  0  0  0  0  0  0  0  0  0
   41.6369    9.8027   52.4178 O   0  0  0  0  0  0  0  0  0  0  0  0
   42.8073   10.2603   51.7621 C   0  0  1  0  0  0  0  0  0  0  0  0
   42.8571    9.6684   50.3936 N   0  0  0  0  0  0  0  0  0  0  0  0
   41.9721    9.8966   49.3589 C   0  0  0  0  0  0  0  0  0  0  0  0
   42.1273    9.1814   48.1460 C   0  0  0  0  0  0  0  0  0  0  0  0
   43.2123    8.2931   47.9972 C   0  0  0  0  0  0  0  0  0  0  0  0
   43.4375    7.6171   46.9259 O   0  0  0  0  0  0  0  0  0  0  0  0
   44.0452    8.0831   49.0315 N   0  0  0  0  0  0  0  0  0  0  0  0
   43.8887    8.7358   50.1977 C   0  0  0  0  0  0  0  0  0  0  0  0
   44.6770    8.5399   51.1446 O   0  0  0  0  0  0  0  0  0  0  0  0
   42.7851   11.7801   51.8561 C   0  0  2  0  0  0  0  0  0  0  0  0
   44.1312   12.3030   51.8694 O   0  0  0  0  0  0  0  0  0  0  0  0
   43.3573   12.3357   56.7792 O   0  0  0  0  0  0  0  0  0  0  0  0
   43.2024   10.9582   57.0127 C   0  0  0  0  0  0  0  0  0  0  0  0
   40.7186   12.7542   58.4954 C   0  0  0  0  0  0  0  0  0  0  0  0
   39.3971   12.4006   59.1590 C   0  0  1  0  0  0  0  0  0  0  0  0
   38.4940   11.9606   58.1770 O   0  0  0  0  0  0  0  0  0  0  0  0
   38.8582   13.5310   59.8651 O   0  0  0  0  0  0  0  0  0  0  0  0
   41.6729    9.4304   57.9752 O   0  0  0  0  0  0  0  0  0  0  0  0
   40.9846    8.1659   59.8315 N   0  0  0  0  0  0  0  0  0  0  0  0
   40.8447    6.2931   61.0039 N   0  0  0  0  0  0  0  0  0  0  0  0
   43.3257    8.6429   60.1707 N   0  0  0  0  0  0  0  0  0  0  0  0
   45.5645    8.8989   60.6579 N   0  0  0  0  0  0  0  0  0  0  0  0
   44.4451    7.0502   61.5127 N   0  0  0  0  0  0  0  0  0  0  0  0
   43.3852    5.2223   62.3635 O   0  0  0  0  0  0  0  0  0  0  0  0
   41.0845   11.0222   56.7237 H   0  0  0  0  0  0  0  0  0  0  0  0
   39.6925    9.3206   58.7144 H   0  0  0  0  0  0  0  0  0  0  0  0
   39.0830    7.1196   59.9959 H   0  0  0  0  0  0  0  0  0  0  0  0
   41.5019   10.5631   60.7207 H   0  0  0  0  0  0  0  0  0  0  0  0
   42.5624   11.9920   59.1094 H   0  0  0  0  0  0  0  0  0  0  0  0
   38.8160   10.4996   60.0130 H   0  0  0  0  0  0  0  0  0  0  0  0
   39.5636   11.5957   61.1791 H   0  0  0  0  0  0  0  0  0  0  0  0
   41.6911   12.9964   53.2179 H   0  0  0  0  0  0  0  0  0  0  0  0
   40.7328   10.5121   54.1640 H   0  0  0  0  0  0  0  0  0  0  0  0
   39.8322   12.3057   52.1100 H   0  0  0  0  0  0  0  0  0  0  0  0
   39.3483   10.5559   51.8737 H   0  0  0  0  0  0  0  0  0  0  0  0
   39.0320   11.4086   54.4725 H   0  0  0  0  0  0  0  0  0  0  0  0
   43.7519    9.9344   52.2222 H   0  0  0  0  0  0  0  0  0  0  0  0
   41.1562   10.6251   49.4749 H   0  0  0  0  0  0  0  0  0  0  0  0
   41.4067    9.3180   47.3262 H   0  0  0  0  0  0  0  0  0  0  0  0
   44.8178    7.4096   48.9292 H   0  0  0  0  0  0  0  0  0  0  0  0
   42.3138   12.3165   51.0194 H   0  0  0  0  0  0  0  0  0  0  0  0
   44.4307   12.4193   52.8058 H   0  0  0  0  0  0  0  0  0  0  0  0
   43.9293   10.6164   57.7642 H   0  0  0  0  0  0  0  0  0  0  0  0
   43.3757   10.3779   56.0944 H   0  0  0  0  0  0  0  0  0  0  0  0
   41.1406   13.6694   58.9364 H   0  0  0  0  0  0  0  0  0  0  0  0
   40.6025   12.9493   57.4191 H   0  0  0  0  0  0  0  0  0  0  0  0
   37.6953   11.5715   58.6138 H   0  0  0  0  0  0  0  0  0  0  0  0
   38.9317   13.3767   60.8402 H   0  0  0  0  0  0  0  0  0  0  0  0
   46.4342    8.5873   61.1134 H   0  0  0  0  0  0  0  0  0  0  0  0
   45.5580    9.7625   60.0967 H   0  0  0  0  0  0  0  0  0  0  0  0
   45.3315    6.7538   61.9456 H   0  0  0  0  0  0  0  0  0  0  0  0
  1  9  1  0
  1 32  1  0
  1 37  1  0
  2  8  1  0
  2 37  1  0
  2 38  1  0
  3  4  2  0
  3 38  1  0
  3 40  1  0
  4  6  1  0
  4 39  1  0
  5 38  1  0
  5 39  2  0
  6 42  1  0
  6 43  2  0
  7 40  2  0
  7 41  1  0
  7 42  1  0
  8  9  1  0
  8 10  1  0
  9 33  1  0
 10 34  1  0
 11 12  2  0
 12 13  1  1
 12 14  1  0
 12 31  1  0
 15 14  1  0
 15 16  1  0
 15 29  1  0
 16 17  1  0
 16 19  1  0
 17 18  1  0
 19 20  1  0
 20 21  1  0
 20 29  1  0
 21 22  1  0
 21 27  1  0
 22 23  2  0
 23 24  1  0
 24 25  2  0
 24 26  1  0
 26 27  1  0
 27 28  2  0
 29 30  1  0
 31 32  1  0
 33 34  1  0
 34 35  1  6
 34 36  1  0
  1 44  1  6
  2 45  1  6
  5 46  1  0
  8 47  1  1
  9 48  1  1
 10 49  1  0
 10 50  1  0
 15 51  1  1
 16 52  1  1
 17 53  1  0
 17 54  1  0
 18 55  1  0
 20 56  1  1
 22 57  1  0
 23 58  1  0
 26 59  1  0
 29 60  1  6
 30 61  1  0
 32 62  1  0
 32 63  1  0
 33 64  1  0
 33 65  1  0
 35 66  1  0
 36 67  1  0
 41 68  1  0
 41 69  1  0
 42 70  1  0
M  CHG  1  13  -1
M  END
>  <filename_input>  (24) 
7C0U_FGO_docked.sdf

>  <pdb_id>  (24) 
7C0U_FGO

>  <pose_rank>  (24) 
23

>  <num_atoms_heavy>  (24) 
43

>  <num_torsions>  (24) 
8

>  <pose>  (24) 
[43.20242201033094, 10.958241374398737, 57.01265002316185, 0.6743726785834464, 1.1227677307786184, 0.021295841461948146, -4.204577410215041, 21.669759435853287, -10.802883919102701, 7.734845525257176, -2.6392347355344823, -0.5632141537553317, 0.12723414627694304, -2.959251095913066]

>  <energy>  (24) 
-616.1758850155602

>  <inter_energy>  (24) 
-629.5403414903409

>  <intra_energy>  (24) 
30.097909847081475

>  <rmsd>  (24) 
9.78913

>  <sdf_rank>  (24) 
0

$$$$

     RDKit          3D

 70 75  0  0  0  0  0  0  0  0999 V2000
   42.0337   15.4198   54.1640 C   0  0  1  0  0  0  0  0  0  0  0  0
   41.3251   16.5162   56.0553 C   0  0  1  0  0  0  0  0  0  0  0  0
   40.4407   17.0620   58.2079 C   0  0  0  0  0  0  0  0  0  0  0  0
   40.6114   16.6864   59.6035 C   0  0  0  0  0  0  0  0  0  0  0  0
   41.9705   15.5384   58.3521 C   0  0  0  0  0  0  0  0  0  0  0  0
   39.7346   17.3608   60.5598 C   0  0  0  0  0  0  0  0  0  0  0  0
   38.7846   18.5787   58.7902 C   0  0  0  0  0  0  0  0  0  0  0  0
   42.4545   17.3785   55.5357 C   0  0  1  0  0  0  0  0  0  0  0  0
   42.8893   16.6536   54.2603 C   0  0  2  0  0  0  0  0  0  0  0  0
   41.9309   18.7135   55.1614 C   0  0  0  0  0  0  0  0  0  0  0  0
   42.9320   11.6362   54.8189 O   0  0  0  0  0  0  0  0  0  0  0  0
   42.0751   11.7985   53.5898 P   0  0  1  0  0  0  0  0  0  0  0  0
   42.4487   10.7948   52.3628 O   0  0  0  0  0  0  0  0  0  0  0  0
   40.5723   11.4622   54.0126 O   0  0  0  0  0  0  0  0  0  0  0  0
   39.7912   12.3081   54.8642 C   0  0  2  0  0  0  0  0  0  0  0  0
   39.3137   11.3931   55.9610 C   0  0  1  0  0  0  0  0  0  0  0  0
   39.2241   12.1078   57.3055 C   0  0  0  0  0  0  0  0  0  0  0  0
   39.9112   11.4363   58.3701 O   0  0  0  0  0  0  0  0  0  0  0  0
   38.0679   10.8866   55.4736 O   0  0  0  0  0  0  0  0  0  0  0  0
   37.6294   11.6108   54.3367 C   0  0  1  0  0  0  0  0  0  0  0  0
   36.1584   11.8348   54.4446 N   0  0  0  0  0  0  0  0  0  0  0  0
   35.4851   12.4305   55.4922 C   0  0  0  0  0  0  0  0  0  0  0  0
   34.0699   12.4861   55.4622 C   0  0  0  0  0  0  0  0  0  0  0  0
   33.3786   11.9836   54.3406 C   0  0  0  0  0  0  0  0  0  0  0  0
   32.0975   12.0088   54.2235 O   0  0  0  0  0  0  0  0  0  0  0  0
   34.0656   11.3953   53.3458 N   0  0  0  0  0  0  0  0  0  0  0  0
   35.4081   11.3116   53.3789 C   0  0  0  0  0  0  0  0  0  0  0  0
   36.0330   10.7739   52.4425 O   0  0  0  0  0  0  0  0  0  0  0  0
   38.5114   12.8492   54.2507 C   0  0  2  0  0  0  0  0  0  0  0  0
   38.6524   13.2719   52.8771 O   0  0  0  0  0  0  0  0  0  0  0  0
   42.1106   13.3216   53.1357 O   0  0  0  0  0  0  0  0  0  0  0  0
   42.9100   14.2313   53.8494 C   0  0  0  0  0  0  0  0  0  0  0  0
   42.6829   17.5456   53.1029 C   0  0  0  0  0  0  0  0  0  0  0  0
   41.8659   18.7074   53.6457 C   0  0  1  0  0  0  0  0  0  0  0  0
   40.5207   18.5322   53.2809 O   0  0  0  0  0  0  0  0  0  0  0  0
   42.3613   19.9613   53.1462 O   0  0  0  0  0  0  0  0  0  0  0  0
   41.5149   15.2490   55.4674 O   0  0  0  0  0  0  0  0  0  0  0  0
   41.2915   16.3584   57.5260 N   0  0  0  0  0  0  0  0  0  0  0  0
   41.5483   15.7334   59.6343 N   0  0  0  0  0  0  0  0  0  0  0  0
   39.5574   18.0078   57.8357 N   0  0  0  0  0  0  0  0  0  0  0  0
   37.8935   19.5084   58.3782 N   0  0  0  0  0  0  0  0  0  0  0  0
   38.8779   18.2752   60.0846 N   0  0  0  0  0  0  0  0  0  0  0  0
   39.8222   17.0905   61.7856 O   0  0  0  0  0  0  0  0  0  0  0  0
   41.2563   15.5073   53.3906 H   0  0  0  0  0  0  0  0  0  0  0  0
   40.3718   17.0000   55.7960 H   0  0  0  0  0  0  0  0  0  0  0  0
   42.7455   14.8225   58.0406 H   0  0  0  0  0  0  0  0  0  0  0  0
   43.2611   17.5198   56.2702 H   0  0  0  0  0  0  0  0  0  0  0  0
   43.9538   16.3768   54.2761 H   0  0  0  0  0  0  0  0  0  0  0  0
   40.9295   18.8685   55.5894 H   0  0  0  0  0  0  0  0  0  0  0  0
   42.5685   19.5253   55.5413 H   0  0  0  0  0  0  0  0  0  0  0  0
   40.4186   13.1683   55.1405 H   0  0  0  0  0  0  0  0  0  0  0  0
   40.0117   10.5703   56.1747 H   0  0  0  0  0  0  0  0  0  0  0  0
   39.6584   13.1122   57.1929 H   0  0  0  0  0  0  0  0  0  0  0  0
   38.1596   12.1350   57.5812 H   0  0  0  0  0  0  0  0  0  0  0  0
   39.5738   11.7661   59.2405 H   0  0  0  0  0  0  0  0  0  0  0  0
   37.7435   11.0811   53.3794 H   0  0  0  0  0  0  0  0  0  0  0  0
   36.0409   12.8570   56.3402 H   0  0  0  0  0  0  0  0  0  0  0  0
   33.5144   12.9180   56.3077 H   0  0  0  0  0  0  0  0  0  0  0  0
   33.5545   11.0013   52.5431 H   0  0  0  0  0  0  0  0  0  0  0  0
   38.1394   13.7525   54.7563 H   0  0  0  0  0  0  0  0  0  0  0  0
   38.9654   14.2108   52.8512 H   0  0  0  0  0  0  0  0  0  0  0  0
   43.7685   14.5441   53.2369 H   0  0  0  0  0  0  0  0  0  0  0  0
   43.3060   13.7755   54.7689 H   0  0  0  0  0  0  0  0  0  0  0  0
   43.6475   17.9004   52.7109 H   0  0  0  0  0  0  0  0  0  0  0  0
   42.1750   17.0347   52.2716 H   0  0  0  0  0  0  0  0  0  0  0  0
   39.9643   18.4597   54.0966 H   0  0  0  0  0  0  0  0  0  0  0  0
   42.5942   20.5506   53.9068 H   0  0  0  0  0  0  0  0  0  0  0  0
   37.2810   19.9738   59.0632 H   0  0  0  0  0  0  0  0  0  0  0  0
   37.8272   19.7513   57.3795 H   0  0  0  0  0  0  0  0  0  0  0  0
   38.2636   18.7659   60.7501 H   0  0  0  0  0  0  0  0  0  0  0  0
  1  9  1  0
  1 32  1  0
  1 37  1  0
  2  8  1  0
  2 37  1  0
  2 38  1  0
  3  4  2  0
  3 38  1  0
  3 40  1  0
  4  6  1  0
  4 39  1  0
  5 38  1  0
  5 39  2  0
  6 42  1  0
  6 43  2  0
  7 40  2  0
  7 41  1  0
  7 42  1  0
  8  9  1  0
  8 10  1  0
  9 33  1  0
 10 34  1  0
 11 12  2  0
 12 13  1  6
 12 14  1  0
 12 31  1  0
 15 14  1  0
 15 16  1  0
 15 29  1  0
 16 17  1  0
 16 19  1  0
 17 18  1  0
 19 20  1  0
 20 21  1  0
 20 29  1  0
 21 22  1  0
 21 27  1  0
 22 23  2  0
 23 24  1  0
 24 25  2  0
 24 26  1  0
 26 27  1  0
 27 28  2  0
 29 30  1  0
 31 32  1  0
 33 34  1  0
 34 35  1  1
 34 36  1  0
  1 44  1  6
  2 45  1  6
  5 46  1  0
  8 47  1  1
  9 48  1  1
 10 49  1  0
 10 50  1  0
 15 51  1  1
 16 52  1  1
 17 53  1  0
 17 54  1  0
 18 55  1  0
 20 56  1  6
 22 57  1  0
 23 58  1  0
 26 59  1  0
 29 60  1  1
 30 61  1  0
 32 62  1  0
 32 63  1  0
 33 64  1  0
 33 65  1  0
 35 66  1  0
 36 67  1  0
 41 68  1  0
 41 69  1  0
 42 70  1  0
M  CHG  1  13  -1
M  END
>  <filename_input>  (25) 
7C0U_FGO_docked.sdf

>  <pdb_id>  (25) 
7C0U_FGO

>  <pose_rank>  (25) 
24

>  <num_atoms_heavy>  (25) 
43

>  <num_torsions>  (25) 
8

>  <pose>  (25) 
[42.91003929598162, 14.231288597241631, 53.84939313576865, 2.5689616848517276, -2.14558451160782, 2.082717877922333, 0.44426139099321177, -0.5859505293319403, 1.345680672355266, 3.239918442000905, 0.2767392464880676, -0.2814417481752914, -0.03798097379211472, 2.9862193775740122]

>  <energy>  (25) 
-636.7253413396799

>  <inter_energy>  (25) 
-642.1713659265747

>  <intra_energy>  (25) 
0.6894011083405923

>  <rmsd>  (25) 
9.23833

>  <sdf_rank>  (25) 
0

$$$$

     RDKit          3D

 70 75  0  0  0  0  0  0  0  0999 V2000
   42.3480   12.3270   53.8910 C   0  0  1  0  0  0  0  0  0  0  0  0
   41.9650   10.7770   52.2380 C   0  0  1  0  0  0  0  0  0  0  0  0
   42.5730    9.8260   50.1310 C   0  0  0  0  0  0  0  0  0  0  0  0
   43.3920    8.7480   49.5970 C   0  0  0  0  0  0  0  0  0  0  0  0
   43.5230    8.7770   51.7680 C   0  0  0  0  0  0  0  0  0  0  0  0
   43.4230    8.6290   48.1400 C   0  0  0  0  0  0  0  0  0  0  0  0
   41.9460   10.4490   47.9860 C   0  0  0  0  0  0  0  0  0  0  0  0
   41.2350   10.2170   53.4390 C   0  0  1  0  0  0  0  0  0  0  0  0
   41.4710   11.2770   54.5170 C   0  0  2  0  0  0  0  0  0  0  0  0
   39.7820   10.1530   53.1540 C   0  0  0  0  0  0  0  0  0  0  0  0
   45.7730   15.6740   54.2780 O   0  0  0  0  0  0  0  0  0  0  0  0
   45.0070   14.7200   55.1580 P   0  0  1  0  0  0  0  0  0  0  0  0
   45.9100   13.9480   56.2720 O   0  0  0  0  0  0  0  0  0  0  0  0
   43.9280   15.5800   55.9620 O   0  0  0  0  0  0  0  0  0  0  0  0
   42.9810   16.4430   55.3220 C   0  0  2  0  0  0  0  0  0  0  0  0
   43.4310   17.8310   55.6950 C   0  0  1  0  0  0  0  0  0  0  0  0
   43.1820   18.8350   54.5740 C   0  0  0  0  0  0  0  0  0  0  0  0
   41.8010   18.9780   54.2150 O   0  0  0  0  0  0  0  0  0  0  0  0
   42.7280   18.1100   56.9090 O   0  0  0  0  0  0  0  0  0  0  0  0
   41.7100   17.1520   57.1440 C   0  0  1  0  0  0  0  0  0  0  0  0
   40.4950   17.8530   57.6520 N   0  0  0  0  0  0  0  0  0  0  0  0
   39.8030   18.8710   57.0270 C   0  0  0  0  0  0  0  0  0  0  0  0
   38.7130   19.4790   57.6970 C   0  0  0  0  0  0  0  0  0  0  0  0
   38.3200   18.9980   58.9630 C   0  0  0  0  0  0  0  0  0  0  0  0
   37.3330   19.4800   59.6330 O   0  0  0  0  0  0  0  0  0  0  0  0
   39.0270   18.0160   59.5490 N   0  0  0  0  0  0  0  0  0  0  0  0
   40.0820   17.4520   58.9330 C   0  0  0  0  0  0  0  0  0  0  0  0
   40.7210   16.5330   59.4840 O   0  0  0  0  0  0  0  0  0  0  0  0
   41.5600   16.3600   55.8520 C   0  0  2  0  0  0  0  0  0  0  0  0
   41.1170   15.0150   56.1350 O   0  0  0  0  0  0  0  0  0  0  0  0
   44.2090   13.6990   54.2370 O   0  0  0  0  0  0  0  0  0  0  0  0
   43.4740   12.6630   54.8390 C   0  0  0  0  0  0  0  0  0  0  0  0
   40.1720   11.8380   54.9360 C   0  0  0  0  0  0  0  0  0  0  0  0
   39.1730   11.3150   53.9160 C   0  0  1  0  0  0  0  0  0  0  0  0
   38.8930   12.3300   52.9860 O   0  0  0  0  0  0  0  0  0  0  0  0
   37.9640   10.8770   54.5590 O   0  0  0  0  0  0  0  0  0  0  0  0
   42.9040   11.6910   52.7580 O   0  0  0  0  0  0  0  0  0  0  0  0
   42.6810    9.7710   51.4230 N   0  0  0  0  0  0  0  0  0  0  0  0
   43.9690    8.1480   50.6430 N   0  0  0  0  0  0  0  0  0  0  0  0
   41.8550   10.6310   49.3250 N   0  0  0  0  0  0  0  0  0  0  0  0
   41.2290   11.2890   47.2060 N   0  0  0  0  0  0  0  0  0  0  0  0
   42.6850    9.4910   47.4270 N   0  0  0  0  0  0  0  0  0  0  0  0
   44.1080    7.7210   47.6020 O   0  0  0  0  0  0  0  0  0  0  0  0
   41.7950   13.2469   53.6501 H   0  0  0  0  0  0  0  0  0  0  0  0
   41.2238   11.2232   51.5586 H   0  0  0  0  0  0  0  0  0  0  0  0
   43.8067    8.5137   52.7976 H   0  0  0  0  0  0  0  0  0  0  0  0
   41.5748    9.2086   53.7175 H   0  0  0  0  0  0  0  0  0  0  0  0
   41.9552   10.8638   55.4141 H   0  0  0  0  0  0  0  0  0  0  0  0
   39.5959   10.2599   52.0751 H   0  0  0  0  0  0  0  0  0  0  0  0
   39.3465    9.1898   53.4582 H   0  0  0  0  0  0  0  0  0  0  0  0
   42.9560   16.1729   54.2560 H   0  0  0  0  0  0  0  0  0  0  0  0
   44.5176   17.9089   55.8475 H   0  0  0  0  0  0  0  0  0  0  0  0
   43.5584   19.8163   54.8987 H   0  0  0  0  0  0  0  0  0  0  0  0
   43.7043   18.4542   53.6840 H   0  0  0  0  0  0  0  0  0  0  0  0
   41.2508   19.0350   55.0361 H   0  0  0  0  0  0  0  0  0  0  0  0
   41.9379   16.4197   57.9325 H   0  0  0  0  0  0  0  0  0  0  0  0
   40.0946   19.2060   56.0207 H   0  0  0  0  0  0  0  0  0  0  0  0
   38.1771   20.3202   57.2331 H   0  0  0  0  0  0  0  0  0  0  0  0
   38.7559   17.6892   60.4874 H   0  0  0  0  0  0  0  0  0  0  0  0
   40.8107   16.7275   55.1355 H   0  0  0  0  0  0  0  0  0  0  0  0
   41.0730   14.8814   57.1150 H   0  0  0  0  0  0  0  0  0  0  0  0
   43.0695   12.9967   55.8060 H   0  0  0  0  0  0  0  0  0  0  0  0
   44.1084   11.7847   55.0292 H   0  0  0  0  0  0  0  0  0  0  0  0
   39.9094   11.4931   55.9470 H   0  0  0  0  0  0  0  0  0  0  0  0
   40.1884   12.9372   54.9738 H   0  0  0  0  0  0  0  0  0  0  0  0
   38.6629   13.1641   53.4671 H   0  0  0  0  0  0  0  0  0  0  0  0
   38.0790   10.9187   55.5414 H   0  0  0  0  0  0  0  0  0  0  0  0
   41.2622   11.1944   46.1809 H   0  0  0  0  0  0  0  0  0  0  0  0
   40.6496   12.0235   47.6369 H   0  0  0  0  0  0  0  0  0  0  0  0
   42.6891    9.4094   46.4002 H   0  0  0  0  0  0  0  0  0  0  0  0
  1  9  1  0
  1 32  1  0
  1 37  1  0
  2  8  1  0
  2 37  1  0
  2 38  1  0
  3  4  2  0
  3 38  1  0
  3 40  1  0
  4  6  1  0
  4 39  1  0
  5 38  1  0
  5 39  2  0
  6 42  1  0
  6 43  2  0
  7 40  2  0
  7 41  1  0
  7 42  1  0
  8  9  1  0
  8 10  1  0
  9 33  1  0
 10 34  1  0
 11 12  2  0
 12 13  1  1
 12 14  1  0
 12 31  1  0
 15 14  1  0
 15 16  1  0
 15 29  1  0
 16 17  1  0
 16 19  1  0
 17 18  1  0
 19 20  1  0
 20 21  1  0
 20 29  1  0
 21 22  1  0
 21 27  1  0
 22 23  2  0
 23 24  1  0
 24 25  2  0
 24 26  1  0
 26 27  1  0
 27 28  2  0
 29 30  1  0
 31 32  1  0
 33 34  1  0
 34 35  1  6
 34 36  1  0
  1 44  1  6
  2 45  1  6
  5 46  1  0
  8 47  1  1
  9 48  1  1
 10 49  1  0
 10 50  1  0
 15 51  1  6
 16 52  1  1
 17 53  1  0
 17 54  1  0
 18 55  1  0
 20 56  1  1
 22 57  1  0
 23 58  1  0
 26 59  1  0
 29 60  1  6
 30 61  1  0
 32 62  1  0
 32 63  1  0
 33 64  1  0
 33 65  1  0
 35 66  1  0
 36 67  1  0
 41 68  1  0
 41 69  1  0
 42 70  1  0
M  CHG  1  13  -1
M  END
>  <filename_input>  (26) 
7C0U_FGO_docked.sdf

>  <pdb_id>  (26) 
7C0U_FGO

>  <pose_rank>  (26) 
25

>  <num_atoms_heavy>  (26) 
43

>  <num_torsions>  (26) 
8

>  <pose>  (26) 
[43.474, 12.663, 54.839, 1e-06, 1e-06, 1e-06, 0.0, 0.0, 0.0, 0.0, 0.0, 0.0, 0.0, 0.0]

>  <energy>  (26) 
-1179.9289802358408

>  <inter_energy>  (26) 
-1195.4285049723223

>  <intra_energy>  (26) 
9.491063092050055

>  <rmsd>  (26) 
0.0

>  <sdf_rank>  (26) 
0

$$$$
