
     RDKit          3D

 15 16  0  0  0  0  0  0  0  0999 V2000
   33.4927   38.5472   27.3611 C   0  0  0  0  0  0  0  0  0  0  0  0
   33.2500   37.1919   27.1834 N   0  0  0  0  0  0  0  0  0  0  0  0
   32.0362   36.8084   26.8689 C   0  0  0  0  0  0  0  0  0  0  0  0
   31.8222   35.4859   26.6563 N   0  0  0  0  0  0  0  0  0  0  0  0
   30.9942   37.6705   26.6991 N   0  0  0  0  0  0  0  0  0  0  0  0
   31.1326   38.9759   26.8883 C   0  0  0  0  0  0  0  0  0  0  0  0
   30.0747   39.7672   26.7437 O   0  0  0  0  0  0  0  0  0  0  0  0
   32.4222   39.5159   27.2493 C   0  0  0  0  0  0  0  0  0  0  0  0
   32.9579   40.6850   27.4654 N   0  0  0  0  0  0  0  0  0  0  0  0
   34.2818   40.5809   27.7893 N   0  0  0  0  0  0  0  0  0  0  0  0
   34.6008   39.1962   27.7172 N   0  0  0  0  0  0  0  0  0  0  0  0
   30.8808   35.1500   26.4075 H   0  0  0  0  0  0  0  0  0  0  0  0
   32.6011   34.8176   26.7436 H   0  0  0  0  0  0  0  0  0  0  0  0
   30.1642   40.7434   26.8820 H   0  0  0  0  0  0  0  0  0  0  0  0
   32.4466   41.5767   27.4000 H   0  0  0  0  0  0  0  0  0  0  0  0
  1  2  2  0
  1  8  1  0
  1 11  1  0
  2  3  1  0
  3  4  1  0
  3  5  2  0
  5  6  1  0
  6  7  1  0
  6  8  2  0
  8  9  1  0
  9 10  1  0
 10 11  2  0
  4 12  1  0
  4 13  1  0
  7 14  1  0
  9 15  1  0
M  END
>  <filename_input>  (1) 
7C3U_AZG_docked.sdf

>  <pdb_id>  (1) 
7C3U_AZG

>  <pose_rank>  (1) 
0

>  <num_atoms_heavy>  (1) 
11

>  <num_torsions>  (1) 
0

>  <pose>  (1) 
[33.49267461159375, 38.54718629754175, 27.361149924538566, -0.7216023486015823, 3.0252423318864126, 0.06980340346773696]

>  <energy>  (1) 
-656.9704693364645

>  <inter_energy>  (1) 
-654.4792153877124

>  <intra_energy>  (1) 
0.0

>  <rmsd>  (1) 
2.99398

>  <sdf_rank>  (1) 
0

$$$$

     RDKit          3D

 15 16  0  0  0  0  0  0  0  0999 V2000
   31.8136   38.8403   26.9392 C   0  0  0  0  0  0  0  0  0  0  0  0
   31.4662   37.5135   26.7240 N   0  0  0  0  0  0  0  0  0  0  0  0
   32.3894   36.5931   26.8650 C   0  0  0  0  0  0  0  0  0  0  0  0
   32.0267   35.2973   26.6936 N   0  0  0  0  0  0  0  0  0  0  0  0
   33.6770   36.8658   27.2192 N   0  0  0  0  0  0  0  0  0  0  0  0
   34.0996   38.1091   27.4049 C   0  0  0  0  0  0  0  0  0  0  0  0
   35.3746   38.3206   27.7147 O   0  0  0  0  0  0  0  0  0  0  0  0
   33.1751   39.2096   27.2660 C   0  0  0  0  0  0  0  0  0  0  0  0
   33.1827   40.5060   27.4062 N   0  0  0  0  0  0  0  0  0  0  0  0
   31.9606   41.0506   27.1264 N   0  0  0  0  0  0  0  0  0  0  0  0
   31.0984   39.9591   26.8272 N   0  0  0  0  0  0  0  0  0  0  0  0
   32.7265   34.5486   26.7969 H   0  0  0  0  0  0  0  0  0  0  0  0
   31.0515   35.0620   26.4602 H   0  0  0  0  0  0  0  0  0  0  0  0
   35.7032   39.2437   27.8560 H   0  0  0  0  0  0  0  0  0  0  0  0
   34.0077   41.0522   27.6924 H   0  0  0  0  0  0  0  0  0  0  0  0
  1  2  2  0
  1  8  1  0
  1 11  1  0
  2  3  1  0
  3  4  1  0
  3  5  2  0
  5  6  1  0
  6  7  1  0
  6  8  2  0
  8  9  1  0
  9 10  1  0
 10 11  2  0
  4 12  1  0
  4 13  1  0
  7 14  1  0
  9 15  1  0
M  END
>  <filename_input>  (2) 
7C3U_AZG_docked.sdf

>  <pdb_id>  (2) 
7C3U_AZG

>  <pose_rank>  (2) 
1

>  <num_atoms_heavy>  (2) 
11

>  <num_torsions>  (2) 
0

>  <pose>  (2) 
[31.813625386556016, 38.8403126177304, 26.93923692334249, 0.23698196064844768, 0.031576285954363334, -0.8990620686924774]

>  <energy>  (2) 
-510.6486289273863

>  <inter_energy>  (2) 
-512.1874368579408

>  <intra_energy>  (2) 
0.0

>  <rmsd>  (2) 
1.88981

>  <sdf_rank>  (2) 
0

$$$$

     RDKit          3D

 15 16  0  0  0  0  0  0  0  0999 V2000
   32.8737   37.5782   26.7442 C   0  0  0  0  0  0  0  0  0  0  0  0
   33.7323   38.5822   27.1710 N   0  0  0  0  0  0  0  0  0  0  0  0
   33.2347   39.7704   27.4158 C   0  0  0  0  0  0  0  0  0  0  0  0
   34.0769   40.7306   27.8728 N   0  0  0  0  0  0  0  0  0  0  0  0
   31.9133   40.0761   27.2805 N   0  0  0  0  0  0  0  0  0  0  0  0
   31.0342   39.1856   26.8410 C   0  0  0  0  0  0  0  0  0  0  0  0
   29.7638   39.5474   26.6943 O   0  0  0  0  0  0  0  0  0  0  0  0
   31.4670   37.8442   26.5272 C   0  0  0  0  0  0  0  0  0  0  0  0
   30.9345   36.7201   26.1360 N   0  0  0  0  0  0  0  0  0  0  0  0
   31.8751   35.7382   25.9963 N   0  0  0  0  0  0  0  0  0  0  0  0
   33.1139   36.3157   26.3916 N   0  0  0  0  0  0  0  0  0  0  0  0
   33.7195   41.6751   28.0754 H   0  0  0  0  0  0  0  0  0  0  0  0
   35.0736   40.5151   28.0173 H   0  0  0  0  0  0  0  0  0  0  0  0
   29.0973   38.8926   26.3670 H   0  0  0  0  0  0  0  0  0  0  0  0
   29.9292   36.5883   25.9546 H   0  0  0  0  0  0  0  0  0  0  0  0
  1  2  2  0
  1  8  1  0
  1 11  1  0
  2  3  1  0
  3  4  1  0
  3  5  2  0
  5  6  1  0
  6  7  1  0
  6  8  2  0
  8  9  1  0
  9 10  1  0
 10 11  2  0
  4 12  1  0
  4 13  1  0
  7 14  1  0
  9 15  1  0
M  END
>  <filename_input>  (3) 
7C3U_AZG_docked.sdf

>  <pdb_id>  (3) 
7C3U_AZG

>  <pose_rank>  (3) 
2

>  <num_atoms_heavy>  (3) 
11

>  <num_torsions>  (3) 
0

>  <pose>  (3) 
[32.87371381603981, 37.57816393668869, 26.744234238953393, 0.4447043594985069, 0.6735725479365539, -4.435677446573982]

>  <energy>  (3) 
-560.3369106983388

>  <inter_energy>  (3) 
-529.329368027383

>  <intra_energy>  (3) 
0.0

>  <rmsd>  (3) 
3.29884

>  <sdf_rank>  (3) 
0

$$$$

     RDKit          3D

 15 16  0  0  0  0  0  0  0  0999 V2000
   32.0960   37.7059   26.9168 C   0  0  0  0  0  0  0  0  0  0  0  0
   33.2548   36.9941   27.1957 N   0  0  0  0  0  0  0  0  0  0  0  0
   34.2780   37.6369   27.7048 C   0  0  0  0  0  0  0  0  0  0  0  0
   35.3890   36.9219   28.0123 N   0  0  0  0  0  0  0  0  0  0  0  0
   34.2664   38.9711   27.9835 N   0  0  0  0  0  0  0  0  0  0  0  0
   33.2135   39.7301   27.7111 C   0  0  0  0  0  0  0  0  0  0  0  0
   33.2690   41.0323   27.9708 O   0  0  0  0  0  0  0  0  0  0  0  0
   32.0294   39.1355   27.1371 C   0  0  0  0  0  0  0  0  0  0  0  0
   30.8299   39.5078   26.7863 N   0  0  0  0  0  0  0  0  0  0  0  0
   30.1075   38.4657   26.2760 N   0  0  0  0  0  0  0  0  0  0  0  0
   30.9443   37.3189   26.3691 N   0  0  0  0  0  0  0  0  0  0  0  0
   36.2111   37.3950   28.4138 H   0  0  0  0  0  0  0  0  0  0  0  0
   35.4105   35.9059   27.8443 H   0  0  0  0  0  0  0  0  0  0  0  0
   32.4901   41.6103   27.7723 H   0  0  0  0  0  0  0  0  0  0  0  0
   30.4712   40.4686   26.8820 H   0  0  0  0  0  0  0  0  0  0  0  0
  1  2  2  0
  1  8  1  0
  1 11  1  0
  2  3  1  0
  3  4  1  0
  3  5  2  0
  5  6  1  0
  6  7  1  0
  6  8  2  0
  8  9  1  0
  9 10  1  0
 10 11  2  0
  4 12  1  0
  4 13  1  0
  7 14  1  0
  9 15  1  0
M  END
>  <filename_input>  (4) 
7C3U_AZG_docked.sdf

>  <pdb_id>  (4) 
7C3U_AZG

>  <pose_rank>  (4) 
3

>  <num_atoms_heavy>  (4) 
11

>  <num_torsions>  (4) 
0

>  <pose>  (4) 
[32.09595067077559, 37.705861360549505, 26.916793046391703, 0.0248296814332266, -0.19537311180527017, 0.3930237814627176]

>  <energy>  (4) 
-501.0287562736704

>  <inter_energy>  (4) 
-489.6554445062933

>  <intra_energy>  (4) 
0.0

>  <rmsd>  (4) 
0.872733

>  <sdf_rank>  (4) 
0

$$$$

     RDKit          3D

 15 16  0  0  0  0  0  0  0  0999 V2000
   31.9771   39.7659   26.9883 C   0  0  0  0  0  0  0  0  0  0  0  0
   32.5837   41.0036   27.1543 N   0  0  0  0  0  0  0  0  0  0  0  0
   33.8602   41.0412   27.4518 C   0  0  0  0  0  0  0  0  0  0  0  0
   34.4502   42.2569   27.5692 N   0  0  0  0  0  0  0  0  0  0  0  0
   34.6316   39.9275   27.6021 N   0  0  0  0  0  0  0  0  0  0  0  0
   34.1211   38.7078   27.4988 C   0  0  0  0  0  0  0  0  0  0  0  0
   34.9114   37.6565   27.6897 O   0  0  0  0  0  0  0  0  0  0  0  0
   32.7218   38.5397   27.1849 C   0  0  0  0  0  0  0  0  0  0  0  0
   31.8893   37.5617   26.9591 N   0  0  0  0  0  0  0  0  0  0  0  0
   30.6281   38.0222   26.7028 N   0  0  0  0  0  0  0  0  0  0  0  0
   30.7106   39.4423   26.7292 N   0  0  0  0  0  0  0  0  0  0  0  0
   35.4513   42.3232   27.8020 H   0  0  0  0  0  0  0  0  0  0  0  0
   33.8970   43.1138   27.4255 H   0  0  0  0  0  0  0  0  0  0  0  0
   34.5432   36.7405   27.6155 H   0  0  0  0  0  0  0  0  0  0  0  0
   32.1500   36.5654   26.9723 H   0  0  0  0  0  0  0  0  0  0  0  0
  1  2  2  0
  1  8  1  0
  1 11  1  0
  2  3  1  0
  3  4  1  0
  3  5  2  0
  5  6  1  0
  6  7  1  0
  6  8  2  0
  8  9  1  0
  9 10  1  0
 10 11  2  0
  4 12  1  0
  4 13  1  0
  7 14  1  0
  9 15  1  0
M  END
>  <filename_input>  (5) 
7C3U_AZG_docked.sdf

>  <pdb_id>  (5) 
7C3U_AZG

>  <pose_rank>  (5) 
4

>  <num_atoms_heavy>  (5) 
11

>  <num_torsions>  (5) 
0

>  <pose>  (5) 
[31.97706705505933, 39.76592302895251, 26.98833529571666, 3.0143416267090535, 0.2748354855078622, 0.6695835001791276]

>  <energy>  (5) 
-415.22947929317036

>  <inter_energy>  (5) 
-408.54571309316356

>  <intra_energy>  (5) 
0.0

>  <rmsd>  (5) 
2.97664

>  <sdf_rank>  (5) 
0

$$$$

     RDKit          3D

 15 16  0  0  0  0  0  0  0  0999 V2000
   33.3439   40.1338   27.5330 C   0  0  0  0  0  0  0  0  0  0  0  0
   33.7518   38.8186   27.7100 N   0  0  0  0  0  0  0  0  0  0  0  0
   34.9666   38.5928   28.1487 C   0  0  0  0  0  0  0  0  0  0  0  0
   35.3380   37.3050   28.3578 N   0  0  0  0  0  0  0  0  0  0  0  0
   35.8550   39.5819   28.4490 N   0  0  0  0  0  0  0  0  0  0  0  0
   35.5579   40.8622   28.2711 C   0  0  0  0  0  0  0  0  0  0  0  0
   36.4744   41.7843   28.5467 O   0  0  0  0  0  0  0  0  0  0  0  0
   34.2516   41.2344   27.7809 C   0  0  0  0  0  0  0  0  0  0  0  0
   33.5851   42.3267   27.5300 N   0  0  0  0  0  0  0  0  0  0  0  0
   32.3305   42.0552   27.0603 N   0  0  0  0  0  0  0  0  0  0  0  0
   32.2007   40.6384   27.0699 N   0  0  0  0  0  0  0  0  0  0  0  0
   36.2850   37.0915   28.7021 H   0  0  0  0  0  0  0  0  0  0  0  0
   34.6730   36.5406   28.1722 H   0  0  0  0  0  0  0  0  0  0  0  0
   36.2657   42.7435   28.4185 H   0  0  0  0  0  0  0  0  0  0  0  0
   33.9580   43.2768   27.6686 H   0  0  0  0  0  0  0  0  0  0  0  0
  1  2  2  0
  1  8  1  0
  1 11  1  0
  2  3  1  0
  3  4  1  0
  3  5  2  0
  5  6  1  0
  6  7  1  0
  6  8  2  0
  8  9  1  0
  9 10  1  0
 10 11  2  0
  4 12  1  0
  4 13  1  0
  7 14  1  0
  9 15  1  0
M  END
>  <filename_input>  (6) 
7C3U_AZG_docked.sdf

>  <pdb_id>  (6) 
7C3U_AZG

>  <pose_rank>  (6) 
5

>  <num_atoms_heavy>  (6) 
11

>  <num_torsions>  (6) 
0

>  <pose>  (6) 
[33.34385701080748, 40.13381261500871, 27.53304627878314, -0.1487161026205803, 2.208854947209894, 5.4952218562879125]

>  <energy>  (6) 
-346.2713195917214

>  <inter_energy>  (6) 
-340.35563912992217

>  <intra_energy>  (6) 
0.0

>  <rmsd>  (6) 
2.55699

>  <sdf_rank>  (6) 
0

$$$$

     RDKit          3D

 15 16  0  0  0  0  0  0  0  0999 V2000
   34.5143   40.1453   28.3348 C   0  0  0  0  0  0  0  0  0  0  0  0
   35.0781   38.9100   28.6240 N   0  0  0  0  0  0  0  0  0  0  0  0
   36.1339   38.8692   29.4005 C   0  0  0  0  0  0  0  0  0  0  0  0
   36.6493   37.6532   29.7097 N   0  0  0  0  0  0  0  0  0  0  0  0
   36.7090   39.9768   29.9486 N   0  0  0  0  0  0  0  0  0  0  0  0
   36.2558   41.1964   29.6912 C   0  0  0  0  0  0  0  0  0  0  0  0
   36.8762   42.2439   30.2240 O   0  0  0  0  0  0  0  0  0  0  0  0
   35.1032   41.3685   28.8385 C   0  0  0  0  0  0  0  0  0  0  0  0
   34.3566   42.3447   28.4026 N   0  0  0  0  0  0  0  0  0  0  0  0
   33.3598   41.8907   27.5848 N   0  0  0  0  0  0  0  0  0  0  0  0
   33.4840   40.4737   27.5560 N   0  0  0  0  0  0  0  0  0  0  0  0
   37.4781   37.5844   30.3172 H   0  0  0  0  0  0  0  0  0  0  0  0
   36.2117   36.7985   29.3369 H   0  0  0  0  0  0  0  0  0  0  0  0
   36.5483   43.1597   30.0399 H   0  0  0  0  0  0  0  0  0  0  0  0
   34.5003   43.3355   28.6446 H   0  0  0  0  0  0  0  0  0  0  0  0
  1  2  2  0
  1  8  1  0
  1 11  1  0
  2  3  1  0
  3  4  1  0
  3  5  2  0
  5  6  1  0
  6  7  1  0
  6  8  2  0
  8  9  1  0
  9 10  1  0
 10 11  2  0
  4 12  1  0
  4 13  1  0
  7 14  1  0
  9 15  1  0
M  END
>  <filename_input>  (7) 
7C3U_AZG_docked.sdf

>  <pdb_id>  (7) 
7C3U_AZG

>  <pose_rank>  (7) 
6

>  <num_atoms_heavy>  (7) 
11

>  <num_torsions>  (7) 
0

>  <pose>  (7) 
[34.51429686246377, 40.14525303587744, 28.334792795074787, -1.2177790527146213, 5.340256372662478, 1.9792428471514025]

>  <energy>  (7) 
-277.1628770562029

>  <inter_energy>  (7) 
-280.5487874981014

>  <intra_energy>  (7) 
0.0

>  <rmsd>  (7) 
3.73663

>  <sdf_rank>  (7) 
0

$$$$

     RDKit          3D

 15 16  0  0  0  0  0  0  0  0999 V2000
   31.4905   37.9608   26.8067 C   0  0  0  0  0  0  0  0  0  0  0  0
   32.2404   36.7957   26.8951 N   0  0  0  0  0  0  0  0  0  0  0  0
   33.4941   36.8841   27.2688 C   0  0  0  0  0  0  0  0  0  0  0  0
   34.2033   35.7345   27.3923 N   0  0  0  0  0  0  0  0  0  0  0  0
   34.1050   38.0612   27.5836 N   0  0  0  0  0  0  0  0  0  0  0  0
   33.4709   39.2222   27.4878 C   0  0  0  0  0  0  0  0  0  0  0  0
   34.1252   40.3432   27.7732 O   0  0  0  0  0  0  0  0  0  0  0  0
   32.0877   39.2524   27.0745 C   0  0  0  0  0  0  0  0  0  0  0  0
   31.1435   40.1369   26.9113 N   0  0  0  0  0  0  0  0  0  0  0  0
   29.9811   39.5602   26.4817 N   0  0  0  0  0  0  0  0  0  0  0  0
   30.2308   38.1609   26.4206 N   0  0  0  0  0  0  0  0  0  0  0  0
   35.1907   35.7673   27.6839 H   0  0  0  0  0  0  0  0  0  0  0  0
   33.7546   34.8287   27.1944 H   0  0  0  0  0  0  0  0  0  0  0  0
   33.6639   41.2165   27.7057 H   0  0  0  0  0  0  0  0  0  0  0  0
   31.2594   41.1456   27.0848 H   0  0  0  0  0  0  0  0  0  0  0  0
  1  2  2  0
  1  8  1  0
  1 11  1  0
  2  3  1  0
  3  4  1  0
  3  5  2  0
  5  6  1  0
  6  7  1  0
  6  8  2  0
  8  9  1  0
  9 10  1  0
 10 11  2  0
  4 12  1  0
  4 13  1  0
  7 14  1  0
  9 15  1  0
M  END
>  <filename_input>  (8) 
7C3U_AZG_docked.sdf

>  <pdb_id>  (8) 
7C3U_AZG

>  <pose_rank>  (8) 
7

>  <num_atoms_heavy>  (8) 
11

>  <num_torsions>  (8) 
0

>  <pose>  (8) 
[31.49046402298845, 37.96075321490252, 26.80672838306905, -3.364769272897609, 3.809384565970817, 3.4863844196967197]

>  <energy>  (8) 
-514.5045015939094

>  <inter_energy>  (8) 
-511.76063991213505

>  <intra_energy>  (8) 
0.0

>  <rmsd>  (8) 
0.442997

>  <sdf_rank>  (8) 
0

$$$$

     RDKit          3D

 15 16  0  0  0  0  0  0  0  0999 V2000
   24.9537   31.2664   27.0105 C   0  0  0  0  0  0  0  0  0  0  0  0
   24.6657   32.3209   26.1546 N   0  0  0  0  0  0  0  0  0  0  0  0
   23.9912   33.3427   26.6238 C   0  0  0  0  0  0  0  0  0  0  0  0
   23.7535   34.3851   25.7889 N   0  0  0  0  0  0  0  0  0  0  0  0
   23.5594   33.4320   27.9136 N   0  0  0  0  0  0  0  0  0  0  0  0
   23.7590   32.4515   28.7841 C   0  0  0  0  0  0  0  0  0  0  0  0
   23.2857   32.5759   30.0197 O   0  0  0  0  0  0  0  0  0  0  0  0
   24.4810   31.2683   28.3792 C   0  0  0  0  0  0  0  0  0  0  0  0
   24.9073   30.1604   28.9188 N   0  0  0  0  0  0  0  0  0  0  0  0
   25.5609   29.3758   28.0101 N   0  0  0  0  0  0  0  0  0  0  0  0
   25.5755   30.1084   26.7905 N   0  0  0  0  0  0  0  0  0  0  0  0
   23.2267   35.2040   26.1246 H   0  0  0  0  0  0  0  0  0  0  0  0
   24.0999   34.3576   24.8193 H   0  0  0  0  0  0  0  0  0  0  0  0
   23.4277   31.8515   30.6794 H   0  0  0  0  0  0  0  0  0  0  0  0
   24.7687   29.9077   29.9076 H   0  0  0  0  0  0  0  0  0  0  0  0
  1  2  2  0
  1  8  1  0
  1 11  1  0
  2  3  1  0
  3  4  1  0
  3  5  2  0
  5  6  1  0
  6  7  1  0
  6  8  2  0
  8  9  1  0
  9 10  1  0
 10 11  2  0
  4 12  1  0
  4 13  1  0
  7 14  1  0
  9 15  1  0
M  END
>  <filename_input>  (9) 
7C3U_AZG_docked.sdf

>  <pdb_id>  (9) 
7C3U_AZG

>  <pose_rank>  (9) 
8

>  <num_atoms_heavy>  (9) 
11

>  <num_torsions>  (9) 
0

>  <pose>  (9) 
[24.953655499717264, 31.266370407514096, 27.010481666652915, 0.7645783458807176, 1.3061925283377611, 2.045094802755631]

>  <energy>  (9) 
-176.89044088953534

>  <inter_energy>  (9) 
-155.67467079966275

>  <intra_energy>  (9) 
0.0

>  <rmsd>  (9) 
11.3083

>  <sdf_rank>  (9) 
0

$$$$

     RDKit          3D

 15 16  0  0  0  0  0  0  0  0999 V2000
   36.2764   40.4498   29.4747 C   0  0  0  0  0  0  0  0  0  0  0  0
   37.2574   39.4718   29.3829 N   0  0  0  0  0  0  0  0  0  0  0  0
   38.5040   39.8471   29.2263 C   0  0  0  0  0  0  0  0  0  0  0  0
   39.4573   38.8832   29.1809 N   0  0  0  0  0  0  0  0  0  0  0  0
   38.8946   41.1509   29.1545 N   0  0  0  0  0  0  0  0  0  0  0  0
   38.0165   42.1441   29.1946 C   0  0  0  0  0  0  0  0  0  0  0  0
   38.4489   43.3960   29.0847 O   0  0  0  0  0  0  0  0  0  0  0  0
   36.6110   41.8534   29.3533 C   0  0  0  0  0  0  0  0  0  0  0  0
   35.4930   42.5121   29.4814 N   0  0  0  0  0  0  0  0  0  0  0  0
   34.4227   41.6704   29.6016 N   0  0  0  0  0  0  0  0  0  0  0  0
   34.9527   40.3501   29.5925 N   0  0  0  0  0  0  0  0  0  0  0  0
   40.4466   39.1426   29.0589 H   0  0  0  0  0  0  0  0  0  0  0  0
   39.1919   37.8918   29.2685 H   0  0  0  0  0  0  0  0  0  0  0  0
   37.8041   44.1467   29.1130 H   0  0  0  0  0  0  0  0  0  0  0  0
   35.4248   43.5398   29.4909 H   0  0  0  0  0  0  0  0  0  0  0  0
  1  2  2  0
  1  8  1  0
  1 11  1  0
  2  3  1  0
  3  4  1  0
  3  5  2  0
  5  6  1  0
  6  7  1  0
  6  8  2  0
  8  9  1  0
  9 10  1  0
 10 11  2  0
  4 12  1  0
  4 13  1  0
  7 14  1  0
  9 15  1  0
M  END
>  <filename_input>  (10) 
7C3U_AZG_docked.sdf

>  <pdb_id>  (10) 
7C3U_AZG

>  <pose_rank>  (10) 
9

>  <num_atoms_heavy>  (10) 
11

>  <num_torsions>  (10) 
0

>  <pose>  (10) 
[36.27635889432099, 40.44979334107926, 29.474676836636185, -1.6689955877532956, 5.891063648666508, 2.5677830381408397]

>  <energy>  (10) 
-180.48957756003054

>  <inter_energy>  (10) 
-171.98595494905467

>  <intra_energy>  (10) 
0.0

>  <rmsd>  (10) 
5.52419

>  <sdf_rank>  (10) 
0

$$$$

     RDKit          3D

 15 16  0  0  0  0  0  0  0  0999 V2000
   37.5938   36.1328   18.2318 C   0  0  0  0  0  0  0  0  0  0  0  0
   36.3420   35.5568   18.4010 N   0  0  0  0  0  0  0  0  0  0  0  0
   35.2832   36.3272   18.3333 C   0  0  0  0  0  0  0  0  0  0  0  0
   34.0643   35.7451   18.4578 N   0  0  0  0  0  0  0  0  0  0  0  0
   35.3415   37.6686   18.0984 N   0  0  0  0  0  0  0  0  0  0  0  0
   36.4989   38.3023   17.9644 C   0  0  0  0  0  0  0  0  0  0  0  0
   36.4989   39.6173   17.7720 O   0  0  0  0  0  0  0  0  0  0  0  0
   37.7355   37.5599   18.0318 C   0  0  0  0  0  0  0  0  0  0  0  0
   39.0129   37.7903   17.9066 N   0  0  0  0  0  0  0  0  0  0  0  0
   39.7500   36.6526   18.0819 N   0  0  0  0  0  0  0  0  0  0  0  0
   38.8145   35.6014   18.2914 N   0  0  0  0  0  0  0  0  0  0  0  0
   33.2114   36.3206   18.4095 H   0  0  0  0  0  0  0  0  0  0  0  0
   33.9916   34.7277   18.6007 H   0  0  0  0  0  0  0  0  0  0  0  0
   37.3558   40.1026   17.6704 H   0  0  0  0  0  0  0  0  0  0  0  0
   39.4165   38.7154   17.7010 H   0  0  0  0  0  0  0  0  0  0  0  0
  1  2  2  0
  1  8  1  0
  1 11  1  0
  2  3  1  0
  3  4  1  0
  3  5  2  0
  5  6  1  0
  6  7  1  0
  6  8  2  0
  8  9  1  0
  9 10  1  0
 10 11  2  0
  4 12  1  0
  4 13  1  0
  7 14  1  0
  9 15  1  0
M  END
>  <filename_input>  (11) 
7C3U_AZG_docked.sdf

>  <pdb_id>  (11) 
7C3U_AZG

>  <pose_rank>  (11) 
10

>  <num_atoms_heavy>  (11) 
11

>  <num_torsions>  (11) 
0

>  <pose>  (11) 
[37.59380750980658, 36.13276144044419, 18.231750779962752, 0.8169765297109638, 3.235458814364066, -0.11555641220542087]

>  <energy>  (11) 
-116.18931685290507

>  <inter_energy>  (11) 
-112.76390979241637

>  <intra_energy>  (11) 
0.0

>  <rmsd>  (11) 
10.5837

>  <sdf_rank>  (11) 
0

$$$$

     RDKit          3D

 15 16  0  0  0  0  0  0  0  0999 V2000
   26.4448   43.7446   18.7550 C   0  0  0  0  0  0  0  0  0  0  0  0
   27.2315   42.6007   18.7605 N   0  0  0  0  0  0  0  0  0  0  0  0
   28.4584   42.6816   18.3050 C   0  0  0  0  0  0  0  0  0  0  0  0
   29.2301   41.5672   18.3555 N   0  0  0  0  0  0  0  0  0  0  0  0
   29.0109   43.8333   17.8295 N   0  0  0  0  0  0  0  0  0  0  0  0
   28.3151   44.9598   17.7537 C   0  0  0  0  0  0  0  0  0  0  0  0
   28.8924   46.0452   17.2487 O   0  0  0  0  0  0  0  0  0  0  0  0
   26.9473   44.9909   18.2156 C   0  0  0  0  0  0  0  0  0  0  0  0
   25.9893   45.8651   18.3513 N   0  0  0  0  0  0  0  0  0  0  0  0
   24.8572   45.2969   18.8650 N   0  0  0  0  0  0  0  0  0  0  0  0
   25.1753   43.9327   19.1142 N   0  0  0  0  0  0  0  0  0  0  0  0
   30.1987   41.5952   18.0062 H   0  0  0  0  0  0  0  0  0  0  0  0
   28.8475   40.6929   18.7431 H   0  0  0  0  0  0  0  0  0  0  0  0
   28.3843   46.8926   17.1864 H   0  0  0  0  0  0  0  0  0  0  0  0
   26.0750   46.8608   18.1021 H   0  0  0  0  0  0  0  0  0  0  0  0
  1  2  2  0
  1  8  1  0
  1 11  1  0
  2  3  1  0
  3  4  1  0
  3  5  2  0
  5  6  1  0
  6  7  1  0
  6  8  2  0
  8  9  1  0
  9 10  1  0
 10 11  2  0
  4 12  1  0
  4 13  1  0
  7 14  1  0
  9 15  1  0
M  END
>  <filename_input>  (12) 
7C3U_AZG_docked.sdf

>  <pdb_id>  (12) 
7C3U_AZG

>  <pose_rank>  (12) 
11

>  <num_atoms_heavy>  (12) 
11

>  <num_torsions>  (12) 
0

>  <pose>  (12) 
[26.444791549658188, 43.74462105682705, 18.754989028402985, -0.29792924249619146, 0.5311155044572091, -0.06659089281313847]

>  <energy>  (12) 
-153.9616089382568

>  <inter_energy>  (12) 
-138.5979965838043

>  <intra_energy>  (12) 
0.0

>  <rmsd>  (12) 
11.7707

>  <sdf_rank>  (12) 
0

$$$$

     RDKit          3D

 15 16  0  0  0  0  0  0  0  0999 V2000
   25.7549   45.1398   18.5664 C   0  0  0  0  0  0  0  0  0  0  0  0
   26.4679   46.2992   18.8397 N   0  0  0  0  0  0  0  0  0  0  0  0
   27.7778   46.2409   18.8543 C   0  0  0  0  0  0  0  0  0  0  0  0
   28.4629   47.3895   19.0805 N   0  0  0  0  0  0  0  0  0  0  0  0
   28.4837   45.1011   18.6084 N   0  0  0  0  0  0  0  0  0  0  0  0
   27.8788   43.9436   18.3775 C   0  0  0  0  0  0  0  0  0  0  0  0
   28.6159   42.8558   18.1788 O   0  0  0  0  0  0  0  0  0  0  0  0
   26.4365   43.8809   18.3481 C   0  0  0  0  0  0  0  0  0  0  0  0
   25.5090   42.9937   18.1183 N   0  0  0  0  0  0  0  0  0  0  0  0
   24.2574   43.5297   18.2392 N   0  0  0  0  0  0  0  0  0  0  0  0
   24.4428   44.9101   18.5294 N   0  0  0  0  0  0  0  0  0  0  0  0
   29.4927   47.3798   19.0986 H   0  0  0  0  0  0  0  0  0  0  0  0
   27.9534   48.2714   19.2341 H   0  0  0  0  0  0  0  0  0  0  0  0
   28.1772   41.9854   18.0054 H   0  0  0  0  0  0  0  0  0  0  0  0
   25.6963   42.0103   17.8758 H   0  0  0  0  0  0  0  0  0  0  0  0
  1  2  2  0
  1  8  1  0
  1 11  1  0
  2  3  1  0
  3  4  1  0
  3  5  2  0
  5  6  1  0
  6  7  1  0
  6  8  2  0
  8  9  1  0
  9 10  1  0
 10 11  2  0
  4 12  1  0
  4 13  1  0
  7 14  1  0
  9 15  1  0
M  END
>  <filename_input>  (13) 
7C3U_AZG_docked.sdf

>  <pdb_id>  (13) 
7C3U_AZG

>  <pose_rank>  (13) 
12

>  <num_atoms_heavy>  (13) 
11

>  <num_torsions>  (13) 
0

>  <pose>  (13) 
[25.75494883200548, 45.13975338915546, 18.566371365438492, -2.9490917616950707, -0.13132392817604946, -0.351368218651178]

>  <energy>  (13) 
-153.398215570991

>  <inter_energy>  (13) 
-141.74367449296494

>  <intra_energy>  (13) 
0.0

>  <rmsd>  (13) 
12.4983

>  <sdf_rank>  (13) 
0

$$$$

     RDKit          3D

 15 16  0  0  0  0  0  0  0  0999 V2000
   24.1295   30.2273   28.3543 C   0  0  0  0  0  0  0  0  0  0  0  0
   25.0055   29.4394   29.0886 N   0  0  0  0  0  0  0  0  0  0  0  0
   25.5153   29.9303   30.1924 C   0  0  0  0  0  0  0  0  0  0  0  0
   26.3362   29.1346   30.9225 N   0  0  0  0  0  0  0  0  0  0  0  0
   25.2273   31.1754   30.6663 N   0  0  0  0  0  0  0  0  0  0  0  0
   24.4312   32.0051   30.0053 C   0  0  0  0  0  0  0  0  0  0  0  0
   24.2124   33.2210   30.4951 O   0  0  0  0  0  0  0  0  0  0  0  0
   23.8189   31.5796   28.7687 C   0  0  0  0  0  0  0  0  0  0  0  0
   22.9806   32.0522   27.8889 N   0  0  0  0  0  0  0  0  0  0  0  0
   22.7588   31.1626   26.8750 N   0  0  0  0  0  0  0  0  0  0  0  0
   23.5103   29.9982   27.1967 N   0  0  0  0  0  0  0  0  0  0  0  0
   26.7540   29.4883   31.7950 H   0  0  0  0  0  0  0  0  0  0  0  0
   26.5417   28.1768   30.6043 H   0  0  0  0  0  0  0  0  0  0  0  0
   23.6203   33.8502   30.0118 H   0  0  0  0  0  0  0  0  0  0  0  0
   22.5399   32.9811   27.9503 H   0  0  0  0  0  0  0  0  0  0  0  0
  1  2  2  0
  1  8  1  0
  1 11  1  0
  2  3  1  0
  3  4  1  0
  3  5  2  0
  5  6  1  0
  6  7  1  0
  6  8  2  0
  8  9  1  0
  9 10  1  0
 10 11  2  0
  4 12  1  0
  4 13  1  0
  7 14  1  0
  9 15  1  0
M  END
>  <filename_input>  (14) 
7C3U_AZG_docked.sdf

>  <pdb_id>  (14) 
7C3U_AZG

>  <pose_rank>  (14) 
13

>  <num_atoms_heavy>  (14) 
11

>  <num_torsions>  (14) 
0

>  <pose>  (14) 
[24.129492266510535, 30.227303045662495, 28.354281635442465, -0.7200249447872541, 4.763103603322591, -2.348142678008679]

>  <energy>  (14) 
-110.65117344054464

>  <inter_energy>  (14) 
-108.83127458578844

>  <intra_energy>  (14) 
0.0

>  <rmsd>  (14) 
11.6398

>  <sdf_rank>  (14) 
0

$$$$

     RDKit          3D

 15 16  0  0  0  0  0  0  0  0999 V2000
   27.7752   43.2017   17.7009 C   0  0  0  0  0  0  0  0  0  0  0  0
   28.9953   43.8399   17.8779 N   0  0  0  0  0  0  0  0  0  0  0  0
   29.0016   45.0543   18.3723 C   0  0  0  0  0  0  0  0  0  0  0  0
   30.2024   45.6501   18.5799 N   0  0  0  0  0  0  0  0  0  0  0  0
   27.8719   45.7276   18.7305 N   0  0  0  0  0  0  0  0  0  0  0  0
   26.6654   45.2046   18.5575 C   0  0  0  0  0  0  0  0  0  0  0  0
   25.5957   45.9191   18.8916 O   0  0  0  0  0  0  0  0  0  0  0  0
   26.5312   43.8755   18.0095 C   0  0  0  0  0  0  0  0  0  0  0  0
   25.5763   43.0285   17.7426 N   0  0  0  0  0  0  0  0  0  0  0  0
   26.0652   41.8694   17.2080 N   0  0  0  0  0  0  0  0  0  0  0  0
   27.4812   42.0065   17.1899 N   0  0  0  0  0  0  0  0  0  0  0  0
   30.2441   46.6037   18.9670 H   0  0  0  0  0  0  0  0  0  0  0  0
   31.0725   45.1489   18.3505 H   0  0  0  0  0  0  0  0  0  0  0  0
   24.6893   45.5407   18.7677 H   0  0  0  0  0  0  0  0  0  0  0  0
   24.5770   43.2105   17.9136 H   0  0  0  0  0  0  0  0  0  0  0  0
  1  2  2  0
  1  8  1  0
  1 11  1  0
  2  3  1  0
  3  4  1  0
  3  5  2  0
  5  6  1  0
  6  7  1  0
  6  8  2  0
  8  9  1  0
  9 10  1  0
 10 11  2  0
  4 12  1  0
  4 13  1  0
  7 14  1  0
  9 15  1  0
M  END
>  <filename_input>  (15) 
7C3U_AZG_docked.sdf

>  <pdb_id>  (15) 
7C3U_AZG

>  <pose_rank>  (15) 
14

>  <num_atoms_heavy>  (15) 
11

>  <num_torsions>  (15) 
0

>  <pose>  (15) 
[27.775181671407562, 43.201680923445124, 17.70094526452201, -0.5832878388878713, 0.3303034834928714, -4.803150101433691]

>  <energy>  (15) 
-147.3360385751537

>  <inter_energy>  (15) 
-139.58816735381686

>  <intra_energy>  (15) 
0.0

>  <rmsd>  (15) 
12.1674

>  <sdf_rank>  (15) 
0

$$$$

     RDKit          3D

 15 16  0  0  0  0  0  0  0  0999 V2000
   28.9749   45.4560   18.4556 C   0  0  0  0  0  0  0  0  0  0  0  0
   27.6742   45.8425   18.7492 N   0  0  0  0  0  0  0  0  0  0  0  0
   26.7637   44.9119   18.9048 C   0  0  0  0  0  0  0  0  0  0  0  0
   25.5065   45.3010   19.2334 N   0  0  0  0  0  0  0  0  0  0  0  0
   27.0245   43.5781   18.8006 N   0  0  0  0  0  0  0  0  0  0  0  0
   28.2311   43.1272   18.4847 C   0  0  0  0  0  0  0  0  0  0  0  0
   28.4216   41.8177   18.3615 O   0  0  0  0  0  0  0  0  0  0  0  0
   29.3141   44.0596   18.2774 C   0  0  0  0  0  0  0  0  0  0  0  0
   30.5910   44.0200   18.0158 N   0  0  0  0  0  0  0  0  0  0  0  0
   31.1263   45.2745   17.9260 N   0  0  0  0  0  0  0  0  0  0  0  0
   30.0666   46.1800   18.2109 N   0  0  0  0  0  0  0  0  0  0  0  0
   24.7667   44.5962   19.3633 H   0  0  0  0  0  0  0  0  0  0  0  0
   25.2916   46.3012   19.3529 H   0  0  0  0  0  0  0  0  0  0  0  0
   29.3172   41.4678   18.1261 H   0  0  0  0  0  0  0  0  0  0  0  0
   31.1296   43.1509   17.8921 H   0  0  0  0  0  0  0  0  0  0  0  0
  1  2  2  0
  1  8  1  0
  1 11  1  0
  2  3  1  0
  3  4  1  0
  3  5  2  0
  5  6  1  0
  6  7  1  0
  6  8  2  0
  8  9  1  0
  9 10  1  0
 10 11  2  0
  4 12  1  0
  4 13  1  0
  7 14  1  0
  9 15  1  0
M  END
>  <filename_input>  (16) 
7C3U_AZG_docked.sdf

>  <pdb_id>  (16) 
7C3U_AZG

>  <pose_rank>  (16) 
15

>  <num_atoms_heavy>  (16) 
11

>  <num_torsions>  (16) 
0

>  <pose>  (16) 
[28.97491403203682, 45.4559810755559, 18.455583921210103, 0.027249432847366042, -0.43415458397786216, 3.722412595759508]

>  <energy>  (16) 
-138.3909461861359

>  <inter_energy>  (16) 
-125.45481819494292

>  <intra_energy>  (16) 
0.0

>  <rmsd>  (16) 
11.9631

>  <sdf_rank>  (16) 
0

$$$$

     RDKit          3D

 15 16  0  0  0  0  0  0  0  0999 V2000
   31.4539   29.9528   19.4068 C   0  0  0  0  0  0  0  0  0  0  0  0
   32.2568   30.0266   20.5370 N   0  0  0  0  0  0  0  0  0  0  0  0
   33.1871   30.9493   20.5859 C   0  0  0  0  0  0  0  0  0  0  0  0
   33.9362   31.0379   21.7133 N   0  0  0  0  0  0  0  0  0  0  0  0
   33.4080   31.8498   19.5868 N   0  0  0  0  0  0  0  0  0  0  0  0
   32.7116   31.8226   18.4584 C   0  0  0  0  0  0  0  0  0  0  0  0
   32.9924   32.7021   17.5025 O   0  0  0  0  0  0  0  0  0  0  0  0
   31.6659   30.8422   18.2839 C   0  0  0  0  0  0  0  0  0  0  0  0
   30.7673   30.5313   17.3916 N   0  0  0  0  0  0  0  0  0  0  0  0
   30.0172   29.4580   17.7841 N   0  0  0  0  0  0  0  0  0  0  0  0
   30.4796   29.1036   19.0821 N   0  0  0  0  0  0  0  0  0  0  0  0
   34.6757   31.7512   21.7855 H   0  0  0  0  0  0  0  0  0  0  0  0
   33.7655   30.3919   22.4971 H   0  0  0  0  0  0  0  0  0  0  0  0
   32.4802   32.6928   16.6553 H   0  0  0  0  0  0  0  0  0  0  0  0
   30.6386   31.0325   16.5011 H   0  0  0  0  0  0  0  0  0  0  0  0
  1  2  2  0
  1  8  1  0
  1 11  1  0
  2  3  1  0
  3  4  1  0
  3  5  2  0
  5  6  1  0
  6  7  1  0
  6  8  2  0
  8  9  1  0
  9 10  1  0
 10 11  2  0
  4 12  1  0
  4 13  1  0
  7 14  1  0
  9 15  1  0
M  END
>  <filename_input>  (17) 
7C3U_AZG_docked.sdf

>  <pdb_id>  (17) 
7C3U_AZG

>  <pose_rank>  (17) 
16

>  <num_atoms_heavy>  (17) 
11

>  <num_torsions>  (17) 
0

>  <pose>  (17) 
[31.45394603151918, 29.952804579175922, 19.406794987000936, -1.1091735777136347, -0.3886560054732904, 0.412754830109252]

>  <energy>  (17) 
-135.890505587458

>  <inter_energy>  (17) 
-118.9287730586283

>  <intra_energy>  (17) 
0.0

>  <rmsd>  (17) 
11.3868

>  <sdf_rank>  (17) 
0

$$$$

     RDKit          3D

 15 16  0  0  0  0  0  0  0  0999 V2000
   25.2419   47.7444   33.0856 C   0  0  0  0  0  0  0  0  0  0  0  0
   24.4884   47.5051   31.9444 N   0  0  0  0  0  0  0  0  0  0  0  0
   25.0581   47.6587   30.7734 C   0  0  0  0  0  0  0  0  0  0  0  0
   24.3236   47.3805   29.6675 N   0  0  0  0  0  0  0  0  0  0  0  0
   26.3579   48.0360   30.6119 N   0  0  0  0  0  0  0  0  0  0  0  0
   27.1341   48.3212   31.6489 C   0  0  0  0  0  0  0  0  0  0  0  0
   28.3838   48.7185   31.4327 O   0  0  0  0  0  0  0  0  0  0  0  0
   26.6132   48.1996   32.9901 C   0  0  0  0  0  0  0  0  0  0  0  0
   27.0447   48.3315   34.2135 N   0  0  0  0  0  0  0  0  0  0  0  0
   26.0587   48.0789   35.1259 N   0  0  0  0  0  0  0  0  0  0  0  0
   24.9091   47.7054   34.3754 N   0  0  0  0  0  0  0  0  0  0  0  0
   24.7398   47.4903   28.7318 H   0  0  0  0  0  0  0  0  0  0  0  0
   23.3496   47.0595   29.7635 H   0  0  0  0  0  0  0  0  0  0  0  0
   28.9738   48.9346   32.1978 H   0  0  0  0  0  0  0  0  0  0  0  0
   28.0093   48.5938   34.4618 H   0  0  0  0  0  0  0  0  0  0  0  0
  1  2  2  0
  1  8  1  0
  1 11  1  0
  2  3  1  0
  3  4  1  0
  3  5  2  0
  5  6  1  0
  6  7  1  0
  6  8  2  0
  8  9  1  0
  9 10  1  0
 10 11  2  0
  4 12  1  0
  4 13  1  0
  7 14  1  0
  9 15  1  0
M  END
>  <filename_input>  (18) 
7C3U_AZG_docked.sdf

>  <pdb_id>  (18) 
7C3U_AZG

>  <pose_rank>  (18) 
17

>  <num_atoms_heavy>  (18) 
11

>  <num_torsions>  (18) 
0

>  <pose>  (18) 
[25.241902795579456, 47.744448641978884, 33.085576914992444, 1.1962916419965228, 1.3065702663468712, -0.6168184848516288]

>  <energy>  (18) 
-135.72726119254688

>  <inter_energy>  (18) 
-120.33734891399156

>  <intra_energy>  (18) 
0.0

>  <rmsd>  (18) 
13.0355

>  <sdf_rank>  (18) 
0

$$$$

     RDKit          3D

 15 16  0  0  0  0  0  0  0  0999 V2000
   24.4703   35.4165   36.5991 C   0  0  0  0  0  0  0  0  0  0  0  0
   25.2208   34.2577   36.7455 N   0  0  0  0  0  0  0  0  0  0  0  0
   26.4810   34.3666   37.0910 C   0  0  0  0  0  0  0  0  0  0  0  0
   27.1915   33.2254   37.2721 N   0  0  0  0  0  0  0  0  0  0  0  0
   27.0982   35.5596   37.3223 N   0  0  0  0  0  0  0  0  0  0  0  0
   26.4633   36.7137   37.1666 C   0  0  0  0  0  0  0  0  0  0  0  0
   27.1234   37.8489   37.3714 O   0  0  0  0  0  0  0  0  0  0  0  0
   25.0731   36.7210   36.7766 C   0  0  0  0  0  0  0  0  0  0  0  0
   24.1268   37.5956   36.5762 N   0  0  0  0  0  0  0  0  0  0  0  0
   22.9566   36.9957   36.2032 N   0  0  0  0  0  0  0  0  0  0  0  0
   23.2041   35.5948   36.2236 N   0  0  0  0  0  0  0  0  0  0  0  0
   28.1838   33.2742   37.5438 H   0  0  0  0  0  0  0  0  0  0  0  0
   26.7386   32.3100   37.1380 H   0  0  0  0  0  0  0  0  0  0  0  0
   26.6615   38.7172   37.2586 H   0  0  0  0  0  0  0  0  0  0  0  0
   24.2464   38.6127   36.6856 H   0  0  0  0  0  0  0  0  0  0  0  0
  1  2  2  0
  1  8  1  0
  1 11  1  0
  2  3  1  0
  3  4  1  0
  3  5  2  0
  5  6  1  0
  6  7  1  0
  6  8  2  0
  8  9  1  0
  9 10  1  0
 10 11  2  0
  4 12  1  0
  4 13  1  0
  7 14  1  0
  9 15  1  0
M  END
>  <filename_input>  (19) 
7C3U_AZG_docked.sdf

>  <pdb_id>  (19) 
7C3U_AZG

>  <pose_rank>  (19) 
18

>  <num_atoms_heavy>  (19) 
11

>  <num_torsions>  (19) 
0

>  <pose>  (19) 
[24.470271260870145, 35.416475017455824, 36.59905479143921, 0.24978131389490948, -4.178387632602614, -4.804773342650958]

>  <energy>  (19) 
-62.37495698696262

>  <inter_energy>  (19) 
-61.80186620248267

>  <intra_energy>  (19) 
0.0

>  <rmsd>  (19) 
12.495

>  <sdf_rank>  (19) 
0

$$$$

     RDKit          3D

 15 16  0  0  0  0  0  0  0  0999 V2000
   39.4260   37.3973   18.6902 C   0  0  0  0  0  0  0  0  0  0  0  0
   40.2592   36.6381   19.5006 N   0  0  0  0  0  0  0  0  0  0  0  0
   41.1796   37.2526   20.2038 C   0  0  0  0  0  0  0  0  0  0  0  0
   41.9588   36.5040   21.0237 N   0  0  0  0  0  0  0  0  0  0  0  0
   41.3618   38.6033   20.1893 N   0  0  0  0  0  0  0  0  0  0  0  0
   40.6344   39.3958   19.4135 C   0  0  0  0  0  0  0  0  0  0  0  0
   40.8780   40.7022   19.4121 O   0  0  0  0  0  0  0  0  0  0  0  0
   39.5959   38.8314   18.5839 C   0  0  0  0  0  0  0  0  0  0  0  0
   38.6764   39.2524   17.7607 N   0  0  0  0  0  0  0  0  0  0  0  0
   37.9504   38.2163   17.2432 N   0  0  0  0  0  0  0  0  0  0  0  0
   38.4530   37.0343   17.8551 N   0  0  0  0  0  0  0  0  0  0  0  0
   42.6916   36.9542   21.5905 H   0  0  0  0  0  0  0  0  0  0  0  0
   41.8177   35.4852   21.0796 H   0  0  0  0  0  0  0  0  0  0  0  0
   40.3424   41.3050   18.8376 H   0  0  0  0  0  0  0  0  0  0  0  0
   38.5169   40.2432   17.5291 H   0  0  0  0  0  0  0  0  0  0  0  0
  1  2  2  0
  1  8  1  0
  1 11  1  0
  2  3  1  0
  3  4  1  0
  3  5  2  0
  5  6  1  0
  6  7  1  0
  6  8  2  0
  8  9  1  0
  9 10  1  0
 10 11  2  0
  4 12  1  0
  4 13  1  0
  7 14  1  0
  9 15  1  0
M  END
>  <filename_input>  (20) 
7C3U_AZG_docked.sdf

>  <pdb_id>  (20) 
7C3U_AZG

>  <pose_rank>  (20) 
19

>  <num_atoms_heavy>  (20) 
11

>  <num_torsions>  (20) 
0

>  <pose>  (20) 
[39.425956057636434, 37.39730855129299, 18.690172798268854, 2.683619769623129, 4.479543362454164, -2.189783012615752]

>  <energy>  (20) 
-114.86292496935224

>  <inter_energy>  (20) 
-113.61707582159667

>  <intra_energy>  (20) 
0.0

>  <rmsd>  (20) 
10.9136

>  <sdf_rank>  (20) 
0

$$$$

     RDKit          3D

 15 16  0  0  0  0  0  0  0  0999 V2000
   26.2879   48.3329   23.6944 C   0  0  0  0  0  0  0  0  0  0  0  0
   25.2094   48.1064   24.5387 N   0  0  0  0  0  0  0  0  0  0  0  0
   24.0020   48.1072   24.0273 C   0  0  0  0  0  0  0  0  0  0  0  0
   22.9607   47.8425   24.8553 N   0  0  0  0  0  0  0  0  0  0  0  0
   23.7444   48.3126   22.7047 N   0  0  0  0  0  0  0  0  0  0  0  0
   24.7143   48.5744   21.8389 C   0  0  0  0  0  0  0  0  0  0  0  0
   24.4034   48.8017   20.5670 O   0  0  0  0  0  0  0  0  0  0  0  0
   26.0863   48.6113   22.2877 C   0  0  0  0  0  0  0  0  0  0  0  0
   27.2718   48.7761   21.7702 N   0  0  0  0  0  0  0  0  0  0  0  0
   28.2510   48.7092   22.7214 N   0  0  0  0  0  0  0  0  0  0  0  0
   27.5925   48.4253   23.9502 N   0  0  0  0  0  0  0  0  0  0  0  0
   21.9988   47.8350   24.4869 H   0  0  0  0  0  0  0  0  0  0  0  0
   23.1318   47.6490   25.8524 H   0  0  0  0  0  0  0  0  0  0  0  0
   25.1177   48.9983   19.9103 H   0  0  0  0  0  0  0  0  0  0  0  0
   27.4484   48.9368   20.7682 H   0  0  0  0  0  0  0  0  0  0  0  0
  1  2  2  0
  1  8  1  0
  1 11  1  0
  2  3  1  0
  3  4  1  0
  3  5  2  0
  5  6  1  0
  6  7  1  0
  6  8  2  0
  8  9  1  0
  9 10  1  0
 10 11  2  0
  4 12  1  0
  4 13  1  0
  7 14  1  0
  9 15  1  0
M  END
>  <filename_input>  (21) 
7C3U_AZG_docked.sdf

>  <pdb_id>  (21) 
7C3U_AZG

>  <pose_rank>  (21) 
20

>  <num_atoms_heavy>  (21) 
11

>  <num_torsions>  (21) 
0

>  <pose>  (21) 
[26.287930997711605, 48.33287373737896, 23.694366367125195, -0.41150234760488835, -2.5200669824226747, 1.9274520060678586]

>  <energy>  (21) 
-84.3792229054096

>  <inter_energy>  (21) 
-56.88827961070588

>  <intra_energy>  (21) 
0.0

>  <rmsd>  (21) 
13.4029

>  <sdf_rank>  (21) 
0

$$$$

     RDKit          3D

 15 16  0  0  0  0  0  0  0  0999 V2000
   23.0734   45.4524   24.0434 C   0  0  0  0  0  0  0  0  0  0  0  0
   22.9020   45.6679   22.6826 N   0  0  0  0  0  0  0  0  0  0  0  0
   23.2344   46.8351   22.1861 C   0  0  0  0  0  0  0  0  0  0  0  0
   23.1019   47.0181   20.8486 N   0  0  0  0  0  0  0  0  0  0  0  0
   23.7478   47.8529   22.9333 N   0  0  0  0  0  0  0  0  0  0  0  0
   23.9064   47.7420   24.2454 C   0  0  0  0  0  0  0  0  0  0  0  0
   24.3784   48.7783   24.9307 O   0  0  0  0  0  0  0  0  0  0  0  0
   23.5636   46.5056   24.9078 C   0  0  0  0  0  0  0  0  0  0  0  0
   23.6149   46.0030   26.1099 N   0  0  0  0  0  0  0  0  0  0  0  0
   23.1286   44.7259   26.1437 N   0  0  0  0  0  0  0  0  0  0  0  0
   22.7854   44.3960   24.8029 N   0  0  0  0  0  0  0  0  0  0  0  0
   23.3539   47.9225   20.4251 H   0  0  0  0  0  0  0  0  0  0  0  0
   22.7495   46.2525   20.2564 H   0  0  0  0  0  0  0  0  0  0  0  0
   24.5016   48.7090   25.9105 H   0  0  0  0  0  0  0  0  0  0  0  0
   23.9772   46.5061   26.9324 H   0  0  0  0  0  0  0  0  0  0  0  0
  1  2  2  0
  1  8  1  0
  1 11  1  0
  2  3  1  0
  3  4  1  0
  3  5  2  0
  5  6  1  0
  6  7  1  0
  6  8  2  0
  8  9  1  0
  9 10  1  0
 10 11  2  0
  4 12  1  0
  4 13  1  0
  7 14  1  0
  9 15  1  0
M  END
>  <filename_input>  (22) 
7C3U_AZG_docked.sdf

>  <pdb_id>  (22) 
7C3U_AZG

>  <pose_rank>  (22) 
21

>  <num_atoms_heavy>  (22) 
11

>  <num_torsions>  (22) 
0

>  <pose>  (22) 
[23.073359494392545, 45.452388393044636, 24.043364096024842, -2.306259854849451, -3.3645113044140573, -1.4502125812747755]

>  <energy>  (22) 
-28.715451654237757

>  <inter_energy>  (22) 
-13.648799301419583

>  <intra_energy>  (22) 
0.0

>  <rmsd>  (22) 
12.9306

>  <sdf_rank>  (22) 
0

$$$$

     RDKit          3D

 15 16  0  0  0  0  0  0  0  0999 V2000
   40.7777   28.7637   27.5729 C   0  0  0  0  0  0  0  0  0  0  0  0
   39.4057   28.5859   27.4573 N   0  0  0  0  0  0  0  0  0  0  0  0
   38.6549   28.7996   28.5109 C   0  0  0  0  0  0  0  0  0  0  0  0
   37.3123   28.6637   28.3730 N   0  0  0  0  0  0  0  0  0  0  0  0
   39.1472   29.1952   29.7188 N   0  0  0  0  0  0  0  0  0  0  0  0
   40.4484   29.3498   29.9235 C   0  0  0  0  0  0  0  0  0  0  0  0
   40.8767   29.7028   31.1311 O   0  0  0  0  0  0  0  0  0  0  0  0
   41.3765   29.1311   28.8391 C   0  0  0  0  0  0  0  0  0  0  0  0
   42.6601   29.2214   28.6284 N   0  0  0  0  0  0  0  0  0  0  0  0
   42.9867   28.8712   27.3480 N   0  0  0  0  0  0  0  0  0  0  0  0
   41.7592   28.5795   26.6906 N   0  0  0  0  0  0  0  0  0  0  0  0
   36.6929   28.8242   29.1802 H   0  0  0  0  0  0  0  0  0  0  0  0
   36.9123   28.4001   27.4613 H   0  0  0  0  0  0  0  0  0  0  0  0
   41.8454   29.8216   31.2975 H   0  0  0  0  0  0  0  0  0  0  0  0
   43.3436   29.5196   29.3389 H   0  0  0  0  0  0  0  0  0  0  0  0
  1  2  2  0
  1  8  1  0
  1 11  1  0
  2  3  1  0
  3  4  1  0
  3  5  2  0
  5  6  1  0
  6  7  1  0
  6  8  2  0
  8  9  1  0
  9 10  1  0
 10 11  2  0
  4 12  1  0
  4 13  1  0
  7 14  1  0
  9 15  1  0
M  END
>  <filename_input>  (23) 
7C3U_AZG_docked.sdf

>  <pdb_id>  (23) 
7C3U_AZG

>  <pose_rank>  (23) 
22

>  <num_atoms_heavy>  (23) 
11

>  <num_torsions>  (23) 
0

>  <pose>  (23) 
[40.777683926124645, 28.763660526141994, 27.57294540527142, -0.610409849054125, -1.8150089841689026, -1.5311722112935697]

>  <energy>  (23) 
-27.079832842667106

>  <inter_energy>  (23) 
-21.094811682680568

>  <intra_energy>  (23) 
0.0

>  <rmsd>  (23) 
12.8633

>  <sdf_rank>  (23) 
0

$$$$

     RDKit          3D

 15 16  0  0  0  0  0  0  0  0999 V2000
   32.7635   38.5340   37.3149 C   0  0  0  0  0  0  0  0  0  0  0  0
   33.7061   37.5157   37.2683 N   0  0  0  0  0  0  0  0  0  0  0  0
   34.9769   37.8383   37.2508 C   0  0  0  0  0  0  0  0  0  0  0  0
   35.8880   36.8333   37.2484 N   0  0  0  0  0  0  0  0  0  0  0  0
   35.4282   39.1240   37.2824 N   0  0  0  0  0  0  0  0  0  0  0  0
   34.5937   40.1549   37.2882 C   0  0  0  0  0  0  0  0  0  0  0  0
   35.0879   41.3885   37.2833 O   0  0  0  0  0  0  0  0  0  0  0  0
   33.1682   39.9242   37.2968 C   0  0  0  0  0  0  0  0  0  0  0  0
   32.0723   40.6287   37.3503 N   0  0  0  0  0  0  0  0  0  0  0  0
   30.9603   39.8341   37.3250 N   0  0  0  0  0  0  0  0  0  0  0  0
   31.4317   38.4919   37.3003 N   0  0  0  0  0  0  0  0  0  0  0  0
   36.8947   37.0508   37.2349 H   0  0  0  0  0  0  0  0  0  0  0  0
   35.5731   35.8527   37.2602 H   0  0  0  0  0  0  0  0  0  0  0  0
   34.4762   42.1669   37.2875 H   0  0  0  0  0  0  0  0  0  0  0  0
   32.0475   41.6569   37.4049 H   0  0  0  0  0  0  0  0  0  0  0  0
  1  2  2  0
  1  8  1  0
  1 11  1  0
  2  3  1  0
  3  4  1  0
  3  5  2  0
  5  6  1  0
  6  7  1  0
  6  8  2  0
  8  9  1  0
  9 10  1  0
 10 11  2  0
  4 12  1  0
  4 13  1  0
  7 14  1  0
  9 15  1  0
M  END
>  <filename_input>  (24) 
7C3U_AZG_docked.sdf

>  <pdb_id>  (24) 
7C3U_AZG

>  <pose_rank>  (24) 
23

>  <num_atoms_heavy>  (24) 
11

>  <num_torsions>  (24) 
0

>  <pose>  (24) 
[32.7635470665871, 38.53398282418632, 37.31485320548392, 1.029713443562304, -5.448854473312325, -2.398265027777385]

>  <energy>  (24) 
-21.938715144967084

>  <inter_energy>  (24) 
-15.508179069706385

>  <intra_energy>  (24) 
0.0

>  <rmsd>  (24) 
10.2283

>  <sdf_rank>  (24) 
0

$$$$

     RDKit          3D

 15 16  0  0  0  0  0  0  0  0999 V2000
   34.8316   29.5189   31.7455 C   0  0  0  0  0  0  0  0  0  0  0  0
   34.2091   30.0610   30.6292 N   0  0  0  0  0  0  0  0  0  0  0  0
   34.8815   30.1245   29.5054 C   0  0  0  0  0  0  0  0  0  0  0  0
   34.2475   30.6169   28.4120 N   0  0  0  0  0  0  0  0  0  0  0  0
   36.1627   29.6799   29.3681 N   0  0  0  0  0  0  0  0  0  0  0  0
   36.8416   29.1848   30.3943 C   0  0  0  0  0  0  0  0  0  0  0  0
   38.1001   28.7986   30.2126 O   0  0  0  0  0  0  0  0  0  0  0  0
   36.2088   29.0753   31.6876 C   0  0  0  0  0  0  0  0  0  0  0  0
   36.5012   28.6225   32.8750 N   0  0  0  0  0  0  0  0  0  0  0  0
   35.4645   28.7935   33.7493 N   0  0  0  0  0  0  0  0  0  0  0  0
   34.4038   29.3734   32.9991 N   0  0  0  0  0  0  0  0  0  0  0  0
   34.7460   30.6809   27.5129 H   0  0  0  0  0  0  0  0  0  0  0  0
   33.2677   30.9269   28.4808 H   0  0  0  0  0  0  0  0  0  0  0  0
   38.6183   28.4272   30.9700 H   0  0  0  0  0  0  0  0  0  0  0  0
   37.4022   28.1894   33.1234 H   0  0  0  0  0  0  0  0  0  0  0  0
  1  2  2  0
  1  8  1  0
  1 11  1  0
  2  3  1  0
  3  4  1  0
  3  5  2  0
  5  6  1  0
  6  7  1  0
  6  8  2  0
  8  9  1  0
  9 10  1  0
 10 11  2  0
  4 12  1  0
  4 13  1  0
  7 14  1  0
  9 15  1  0
M  END
>  <filename_input>  (25) 
7C3U_AZG_docked.sdf

>  <pdb_id>  (25) 
7C3U_AZG

>  <pose_rank>  (25) 
24

>  <num_atoms_heavy>  (25) 
11

>  <num_torsions>  (25) 
0

>  <pose>  (25) 
[34.831616280332625, 29.518924576764178, 31.745472347148183, -3.245928926925733, -1.723371449205659, 1.5483520939422355]

>  <energy>  (25) 
112.11802395259512

>  <inter_energy>  (25) 
135.27427086235593

>  <intra_energy>  (25) 
0.0

>  <rmsd>  (25) 
10.8419

>  <sdf_rank>  (25) 
0

$$$$

     RDKit          3D

 15 16  0  0  0  0  0  0  0  0999 V2000
   31.8400   38.0850   26.9290 C   0  0  0  0  0  0  0  0  0  0  0  0
   32.6740   36.9800   27.0330 N   0  0  0  0  0  0  0  0  0  0  0  0
   33.9420   37.1750   27.3040 C   0  0  0  0  0  0  0  0  0  0  0  0
   34.7370   36.0850   27.4450 N   0  0  0  0  0  0  0  0  0  0  0  0
   34.4900   38.4080   27.4970 N   0  0  0  0  0  0  0  0  0  0  0  0
   33.7710   39.5160   27.3770 C   0  0  0  0  0  0  0  0  0  0  0  0
   34.3640   40.6940   27.5410 O   0  0  0  0  0  0  0  0  0  0  0  0
   32.3630   39.4280   27.0690 C   0  0  0  0  0  0  0  0  0  0  0  0
   31.3500   40.2360   26.9230 N   0  0  0  0  0  0  0  0  0  0  0  0
   30.2030   39.5570   26.6200 N   0  0  0  0  0  0  0  0  0  0  0  0
   30.5450   38.1760   26.6280 N   0  0  0  0  0  0  0  0  0  0  0  0
   35.7379   36.2017   27.6580 H   0  0  0  0  0  0  0  0  0  0  0  0
   34.3397   35.1406   27.3390 H   0  0  0  0  0  0  0  0  0  0  0  0
   33.8390   41.5288   27.4542 H   0  0  0  0  0  0  0  0  0  0  0  0
   31.4071   41.2595   27.0236 H   0  0  0  0  0  0  0  0  0  0  0  0
  1  2  2  0
  1  8  1  0
  1 11  1  0
  2  3  1  0
  3  4  1  0
  3  5  2  0
  5  6  1  0
  6  7  1  0
  6  8  2  0
  8  9  1  0
  9 10  1  0
 10 11  2  0
  4 12  1  0
  4 13  1  0
  7 14  1  0
  9 15  1  0
M  END
>  <filename_input>  (26) 
7C3U_AZG_docked.sdf

>  <pdb_id>  (26) 
7C3U_AZG

>  <pose_rank>  (26) 
25

>  <num_atoms_heavy>  (26) 
11

>  <num_torsions>  (26) 
0

>  <pose>  (26) 
[31.84, 38.085, 26.929, 1e-06, 1e-06, 1e-06]

>  <energy>  (26) 
-501.43226190392517

>  <inter_energy>  (26) 
-510.15117703144557

>  <intra_energy>  (26) 
0.0

>  <rmsd>  (26) 
0.0

>  <sdf_rank>  (26) 
0

$$$$
