
     RDKit          3D

 17 16  0  0  0  0  0  0  0  0999 V2000
  -46.0352   29.9531   10.1741 N   0  0  0  0  0  0  0  0  0  0  0  0
  -45.6881   30.4082   11.5254 C   0  0  1  0  0  0  0  0  0  0  0  0
  -44.6973   29.4821   12.2191 C   0  0  0  0  0  0  0  0  0  0  0  0
  -43.9060   29.9033   13.0755 O   0  0  0  0  0  0  0  0  0  0  0  0
  -45.2307   31.8955   11.5539 C   0  0  0  0  0  0  0  0  0  0  0  0
  -46.3792   32.9065   11.4457 C   0  0  0  0  0  0  0  0  0  0  0  0
  -46.5427   33.8068   12.2712 O   0  0  0  0  0  0  0  0  0  0  0  0
  -47.2217   32.7104   10.4320 N   0  0  0  0  0  0  0  0  0  0  0  0
  -44.6729   28.2755   11.9429 O   0  0  0  0  0  0  0  0  0  0  0  0
  -46.6588   29.1357   10.2367 H   0  0  0  0  0  0  0  0  0  0  0  0
  -46.5139   30.7122    9.6686 H   0  0  0  0  0  0  0  0  0  0  0  0
  -45.1766   29.6920    9.6686 H   0  0  0  0  0  0  0  0  0  0  0  0
  -46.6171   30.3588   12.1123 H   0  0  0  0  0  0  0  0  0  0  0  0
  -44.7001   32.0756   12.5005 H   0  0  0  0  0  0  0  0  0  0  0  0
  -44.5906   32.0473   10.6723 H   0  0  0  0  0  0  0  0  0  0  0  0
  -48.0185   33.3484   10.2937 H   0  0  0  0  0  0  0  0  0  0  0  0
  -47.0762   31.9208    9.7867 H   0  0  0  0  0  0  0  0  0  0  0  0
  2  1  1  0
  2  3  1  0
  2  5  1  0
  3  4  2  0
  3  9  1  0
  5  6  1  0
  6  7  2  0
  6  8  1  0
  1 10  1  0
  1 11  1  0
  1 12  1  0
  2 13  1  1
  5 14  1  0
  5 15  1  0
  8 16  1  0
  8 17  1  0
M  CHG  2   1   1   9  -1
M  END
>  <filename_input>  (1) 
7C8Q_DSG_docked.sdf

>  <pdb_id>  (1) 
7C8Q_DSG

>  <pose_rank>  (1) 
0

>  <num_atoms_heavy>  (1) 
9

>  <num_torsions>  (1) 
3

>  <pose>  (1) 
[-46.03523436035768, 29.95310098892396, 10.174082327413965, -1.7018364183452133, 4.487694771227063, 0.038072052709315726, -0.41071233211485575, -16.38193590050949, -9.766096798708617]

>  <energy>  (1) 
-465.3937851928036

>  <inter_energy>  (1) 
-449.7784966152602

>  <intra_energy>  (1) 
10.344259573209108

>  <rmsd>  (1) 
2.02297

>  <sdf_rank>  (1) 
0

$$$$

     RDKit          3D

 17 16  0  0  0  0  0  0  0  0999 V2000
  -45.8020   31.6125   13.7010 N   0  0  0  0  0  0  0  0  0  0  0  0
  -45.3467   31.8066   12.3194 C   0  0  1  0  0  0  0  0  0  0  0  0
  -44.8747   30.5118   11.6706 C   0  0  0  0  0  0  0  0  0  0  0  0
  -44.2527   29.6533   12.3135 O   0  0  0  0  0  0  0  0  0  0  0  0
  -46.3928   32.5604   11.4478 C   0  0  0  0  0  0  0  0  0  0  0  0
  -46.6189   34.0198   11.8624 C   0  0  0  0  0  0  0  0  0  0  0  0
  -46.5155   34.9535   11.0647 O   0  0  0  0  0  0  0  0  0  0  0  0
  -46.8772   34.2150   13.1551 N   0  0  0  0  0  0  0  0  0  0  0  0
  -45.1167   30.2878   10.4773 O   0  0  0  0  0  0  0  0  0  0  0  0
  -45.0676   31.9256   14.3517 H   0  0  0  0  0  0  0  0  0  0  0  0
  -46.6589   32.1614   13.8604 H   0  0  0  0  0  0  0  0  0  0  0  0
  -45.9992   30.6142   13.8604 H   0  0  0  0  0  0  0  0  0  0  0  0
  -44.4640   32.4603   12.3778 H   0  0  0  0  0  0  0  0  0  0  0  0
  -46.0462   32.5476   10.4040 H   0  0  0  0  0  0  0  0  0  0  0  0
  -47.3524   32.0400   11.5835 H   0  0  0  0  0  0  0  0  0  0  0  0
  -47.0403   35.1682   13.5095 H   0  0  0  0  0  0  0  0  0  0  0  0
  -46.9137   33.4126   13.7999 H   0  0  0  0  0  0  0  0  0  0  0  0
  2  1  1  0
  2  3  1  0
  2  5  1  0
  3  4  2  0
  3  9  1  0
  5  6  1  0
  6  7  2  0
  6  8  1  0
  1 10  1  0
  1 11  1  0
  1 12  1  0
  2 13  1  1
  5 14  1  0
  5 15  1  0
  8 16  1  0
  8 17  1  0
M  CHG  2   1   1   9  -1
M  END
>  <filename_input>  (2) 
7C8Q_DSG_docked.sdf

>  <pdb_id>  (2) 
7C8Q_DSG

>  <pose_rank>  (2) 
1

>  <num_atoms_heavy>  (2) 
9

>  <num_torsions>  (2) 
3

>  <pose>  (2) 
[-45.80203922173543, 31.61247771975592, 13.700963229189446, 2.826541371103061, -4.446594985160242, 0.5665936125290381, -3.706278049016113, -16.552651687090897, -9.763516743183718]

>  <energy>  (2) 
-260.7214049039669

>  <inter_energy>  (2) 
-275.2519467526145

>  <intra_energy>  (2) 
16.06359188529676

>  <rmsd>  (2) 
2.62564

>  <sdf_rank>  (2) 
0

$$$$

     RDKit          3D

 17 16  0  0  0  0  0  0  0  0999 V2000
  -46.2095   31.3589   13.7952 N   0  0  0  0  0  0  0  0  0  0  0  0
  -45.2312   30.8167   12.8451 C   0  0  1  0  0  0  0  0  0  0  0  0
  -44.9981   29.3231   13.0325 C   0  0  0  0  0  0  0  0  0  0  0  0
  -45.6039   28.6757   13.8992 O   0  0  0  0  0  0  0  0  0  0  0  0
  -45.5657   31.1849   11.3704 C   0  0  0  0  0  0  0  0  0  0  0  0
  -46.5684   32.3364   11.2240 C   0  0  0  0  0  0  0  0  0  0  0  0
  -46.4846   33.3700   11.8899 O   0  0  0  0  0  0  0  0  0  0  0  0
  -47.5692   32.1200   10.3710 N   0  0  0  0  0  0  0  0  0  0  0  0
  -44.1968   28.7209   12.3058 O   0  0  0  0  0  0  0  0  0  0  0  0
  -45.8885   31.1810   14.7576 H   0  0  0  0  0  0  0  0  0  0  0  0
  -46.3056   32.3737   13.6474 H   0  0  0  0  0  0  0  0  0  0  0  0
  -47.1210   30.9026   13.6474 H   0  0  0  0  0  0  0  0  0  0  0  0
  -44.2750   31.3082   13.0776 H   0  0  0  0  0  0  0  0  0  0  0  0
  -44.6317   31.4741   10.8663 H   0  0  0  0  0  0  0  0  0  0  0  0
  -46.0344   30.2973   10.9205 H   0  0  0  0  0  0  0  0  0  0  0  0
  -48.2827   32.8470   10.2190 H   0  0  0  0  0  0  0  0  0  0  0  0
  -47.6290   31.2256    9.8636 H   0  0  0  0  0  0  0  0  0  0  0  0
  2  1  1  0
  2  3  1  0
  2  5  1  0
  3  4  2  0
  3  9  1  0
  5  6  1  0
  6  7  2  0
  6  8  1  0
  1 10  1  0
  1 11  1  0
  1 12  1  0
  2 13  1  1
  5 14  1  0
  5 15  1  0
  8 16  1  0
  8 17  1  0
M  CHG  2   1   1   9  -1
M  END
>  <filename_input>  (3) 
7C8Q_DSG_docked.sdf

>  <pdb_id>  (3) 
7C8Q_DSG

>  <pose_rank>  (3) 
2

>  <num_atoms_heavy>  (3) 
9

>  <num_torsions>  (3) 
3

>  <pose>  (3) 
[-46.20951372878571, 31.35893211933, 13.795161629977514, 3.7880555635725868, -1.9110343469897286, 3.004762209048558, 3.2408943260870413, 1.4202717729996353, 1.3865181372044937]

>  <energy>  (3) 
-327.2461616260869

>  <inter_energy>  (3) 
-347.97821136946584

>  <intra_energy>  (3) 
15.385148634625402

>  <rmsd>  (3) 
1.71466

>  <sdf_rank>  (3) 
0

$$$$

     RDKit          3D

 17 16  0  0  0  0  0  0  0  0999 V2000
  -46.2285   31.3797   13.5828 N   0  0  0  0  0  0  0  0  0  0  0  0
  -45.1532   30.8754   12.7206 C   0  0  1  0  0  0  0  0  0  0  0  0
  -44.9257   29.3780   12.8828 C   0  0  0  0  0  0  0  0  0  0  0  0
  -45.1905   28.5793   11.9723 O   0  0  0  0  0  0  0  0  0  0  0  0
  -45.3394   31.2899   11.2321 C   0  0  0  0  0  0  0  0  0  0  0  0
  -46.5458   32.2037   10.9822 C   0  0  0  0  0  0  0  0  0  0  0  0
  -47.3222   32.0253   10.0420 O   0  0  0  0  0  0  0  0  0  0  0  0
  -46.6644   33.2370   11.8154 N   0  0  0  0  0  0  0  0  0  0  0  0
  -44.4566   28.9290   13.9369 O   0  0  0  0  0  0  0  0  0  0  0  0
  -45.9635   31.2554   14.5703 H   0  0  0  0  0  0  0  0  0  0  0  0
  -46.3812   32.3802   13.3916 H   0  0  0  0  0  0  0  0  0  0  0  0
  -47.0954   30.8573   13.3916 H   0  0  0  0  0  0  0  0  0  0  0  0
  -44.2305   31.3652   13.0652 H   0  0  0  0  0  0  0  0  0  0  0  0
  -44.4320   31.8186   10.9048 H   0  0  0  0  0  0  0  0  0  0  0  0
  -45.5199   30.3645   10.6656 H   0  0  0  0  0  0  0  0  0  0  0  0
  -47.4495   33.8954   11.7108 H   0  0  0  0  0  0  0  0  0  0  0  0
  -45.9710   33.3772   12.5640 H   0  0  0  0  0  0  0  0  0  0  0  0
  2  1  1  0
  2  3  1  0
  2  5  1  0
  3  4  2  0
  3  9  1  0
  5  6  1  0
  6  7  2  0
  6  8  1  0
  1 10  1  0
  1 11  1  0
  1 12  1  0
  2 13  1  1
  5 14  1  0
  5 15  1  0
  8 16  1  0
  8 17  1  0
M  CHG  2   1   1   9  -1
M  END
>  <filename_input>  (4) 
7C8Q_DSG_docked.sdf

>  <pdb_id>  (4) 
7C8Q_DSG

>  <pose_rank>  (4) 
3

>  <num_atoms_heavy>  (4) 
9

>  <num_torsions>  (4) 
3

>  <pose>  (4) 
[-46.228474898523885, 31.379659177803735, 13.582793508624619, -5.185207003193955, 2.226084058389576, -4.6382397080055755, -1.099142461169324, -5.09162688902111, -1.7595067472052972]

>  <energy>  (4) 
-352.8889234335551

>  <inter_energy>  (4) 
-390.3556278335699

>  <intra_energy>  (4) 
29.96113116987257

>  <rmsd>  (4) 
1.60097

>  <sdf_rank>  (4) 
0

$$$$

     RDKit          3D

 17 16  0  0  0  0  0  0  0  0999 V2000
  -46.2526   34.2485   11.7631 N   0  0  0  0  0  0  0  0  0  0  0  0
  -46.8044   32.8967   11.6154 C   0  0  1  0  0  0  0  0  0  0  0  0
  -47.0251   32.5098   10.1587 C   0  0  0  0  0  0  0  0  0  0  0  0
  -46.4694   31.5205    9.6590 O   0  0  0  0  0  0  0  0  0  0  0  0
  -45.9829   31.8295   12.3953 C   0  0  0  0  0  0  0  0  0  0  0  0
  -45.5768   30.6132   11.5536 C   0  0  0  0  0  0  0  0  0  0  0  0
  -44.7846   29.7636   11.9652 O   0  0  0  0  0  0  0  0  0  0  0  0
  -46.0928   30.5678   10.3257 N   0  0  0  0  0  0  0  0  0  0  0  0
  -47.7812   33.1799    9.4431 O   0  0  0  0  0  0  0  0  0  0  0  0
  -46.1604   34.4743   12.7639 H   0  0  0  0  0  0  0  0  0  0  0  0
  -45.3264   34.2922   11.3146 H   0  0  0  0  0  0  0  0  0  0  0  0
  -46.8837   34.9278   11.3146 H   0  0  0  0  0  0  0  0  0  0  0  0
  -47.8008   32.9211   12.0808 H   0  0  0  0  0  0  0  0  0  0  0  0
  -45.0680   32.3077   12.7752 H   0  0  0  0  0  0  0  0  0  0  0  0
  -46.6326   31.4553   13.2003 H   0  0  0  0  0  0  0  0  0  0  0  0
  -45.8660   29.7813    9.7006 H   0  0  0  0  0  0  0  0  0  0  0  0
  -46.7184   31.3193   10.0019 H   0  0  0  0  0  0  0  0  0  0  0  0
  2  1  1  0
  2  3  1  0
  2  5  1  0
  3  4  2  0
  3  9  1  0
  5  6  1  0
  6  7  2  0
  6  8  1  0
  1 10  1  0
  1 11  1  0
  1 12  1  0
  2 13  1  1
  5 14  1  0
  5 15  1  0
  8 16  1  0
  8 17  1  0
M  CHG  2   1   1   9  -1
M  END
>  <filename_input>  (5) 
7C8Q_DSG_docked.sdf

>  <pdb_id>  (5) 
7C8Q_DSG

>  <pose_rank>  (5) 
4

>  <num_atoms_heavy>  (5) 
9

>  <num_torsions>  (5) 
3

>  <pose>  (5) 
[-46.25261013846103, 34.24850120100947, 11.763145712377934, 1.1589041824588675, -1.176160972436987, -2.3296628164390856, -0.9416629277050037, -1.1209535160260529, -2.7051684359151174]

>  <energy>  (5) 
-26.1182045337423

>  <inter_energy>  (5) 
-329.2236627930905

>  <intra_energy>  (5) 
281.0116228432447

>  <rmsd>  (5) 
3.56567

>  <sdf_rank>  (5) 
0

$$$$

     RDKit          3D

 17 16  0  0  0  0  0  0  0  0999 V2000
  -46.2861   33.2219   12.2223 N   0  0  0  0  0  0  0  0  0  0  0  0
  -46.2121   31.8611   11.6778 C   0  0  1  0  0  0  0  0  0  0  0  0
  -46.8583   31.7440   10.3033 C   0  0  0  0  0  0  0  0  0  0  0  0
  -47.6980   32.5666    9.9092 O   0  0  0  0  0  0  0  0  0  0  0  0
  -44.7659   31.2866   11.7048 C   0  0  0  0  0  0  0  0  0  0  0  0
  -44.6432   29.9311   12.4121 C   0  0  0  0  0  0  0  0  0  0  0  0
  -45.0422   28.8836   11.8999 O   0  0  0  0  0  0  0  0  0  0  0  0
  -44.1296   29.9704   13.6412 N   0  0  0  0  0  0  0  0  0  0  0  0
  -46.5437   30.8190    9.5431 O   0  0  0  0  0  0  0  0  0  0  0  0
  -46.2839   33.1805   13.2514 H   0  0  0  0  0  0  0  0  0  0  0  0
  -45.4735   33.7659   11.8988 H   0  0  0  0  0  0  0  0  0  0  0  0
  -47.1530   33.6745   11.8988 H   0  0  0  0  0  0  0  0  0  0  0  0
  -46.8087   31.2295   12.3523 H   0  0  0  0  0  0  0  0  0  0  0  0
  -44.4224   31.1669   10.6667 H   0  0  0  0  0  0  0  0  0  0  0  0
  -44.1524   31.9990   12.2760 H   0  0  0  0  0  0  0  0  0  0  0  0
  -44.0159   29.0999   14.1799 H   0  0  0  0  0  0  0  0  0  0  0  0
  -43.8465   30.8713   14.0525 H   0  0  0  0  0  0  0  0  0  0  0  0
  2  1  1  0
  2  3  1  0
  2  5  1  0
  3  4  2  0
  3  9  1  0
  5  6  1  0
  6  7  2  0
  6  8  1  0
  1 10  1  0
  1 11  1  0
  1 12  1  0
  2 13  1  1
  5 14  1  0
  5 15  1  0
  8 16  1  0
  8 17  1  0
M  CHG  2   1   1   9  -1
M  END
>  <filename_input>  (6) 
7C8Q_DSG_docked.sdf

>  <pdb_id>  (6) 
7C8Q_DSG

>  <pose_rank>  (6) 
5

>  <num_atoms_heavy>  (6) 
9

>  <num_torsions>  (6) 
3

>  <pose>  (6) 
[-46.28611178419364, 33.22193431334066, 12.222285524465741, 0.9169076543156967, -0.28717317395936803, -2.2210623446010267, -3.4270367583948556, -2.954512535847952, 1.89393574764618]

>  <energy>  (6) 
-320.9409738129097

>  <inter_energy>  (6) 
-326.8979304672098

>  <intra_energy>  (6) 
0.0633096924341783

>  <rmsd>  (6) 
3.67101

>  <sdf_rank>  (6) 
0

$$$$

     RDKit          3D

 17 16  0  0  0  0  0  0  0  0999 V2000
  -39.7762   37.5894   19.9059 N   0  0  0  0  0  0  0  0  0  0  0  0
  -39.1039   38.6146   20.7127 C   0  0  1  0  0  0  0  0  0  0  0  0
  -37.6764   38.2290   21.0788 C   0  0  0  0  0  0  0  0  0  0  0  0
  -36.8218   39.0860   21.3479 O   0  0  0  0  0  0  0  0  0  0  0  0
  -39.1906   40.0296   20.0705 C   0  0  0  0  0  0  0  0  0  0  0  0
  -40.6100   40.4489   19.6675 C   0  0  0  0  0  0  0  0  0  0  0  0
  -41.5369   40.4956   20.4782 O   0  0  0  0  0  0  0  0  0  0  0  0
  -40.7863   40.7030   18.3712 N   0  0  0  0  0  0  0  0  0  0  0  0
  -37.3445   37.0372   21.1244 O   0  0  0  0  0  0  0  0  0  0  0  0
  -40.2263   36.9033   20.5284 H   0  0  0  0  0  0  0  0  0  0  0  0
  -40.4904   38.0340   19.3116 H   0  0  0  0  0  0  0  0  0  0  0  0
  -39.0839   37.1116   19.3116 H   0  0  0  0  0  0  0  0  0  0  0  0
  -39.6595   38.6703   21.6604 H   0  0  0  0  0  0  0  0  0  0  0  0
  -38.8068   40.7621   20.7958 H   0  0  0  0  0  0  0  0  0  0  0  0
  -38.5957   39.9951   19.1459 H   0  0  0  0  0  0  0  0  0  0  0  0
  -41.7124   40.9903   18.0241 H   0  0  0  0  0  0  0  0  0  0  0  0
  -39.9963   40.6121   17.7165 H   0  0  0  0  0  0  0  0  0  0  0  0
  2  1  1  0
  2  3  1  0
  2  5  1  0
  3  4  2  0
  3  9  1  0
  5  6  1  0
  6  7  2  0
  6  8  1  0
  1 10  1  0
  1 11  1  0
  1 12  1  0
  2 13  1  1
  5 14  1  0
  5 15  1  0
  8 16  1  0
  8 17  1  0
M  CHG  2   1   1   9  -1
M  END
>  <filename_input>  (7) 
7C8Q_DSG_docked.sdf

>  <pdb_id>  (7) 
7C8Q_DSG

>  <pose_rank>  (7) 
6

>  <num_atoms_heavy>  (7) 
9

>  <num_torsions>  (7) 
3

>  <pose>  (7) 
[-39.77623681316014, 37.58944978888036, 19.905943440269716, -1.945725051535615, 4.62956923690655, -1.7919740248415037, -6.620984735258563, -10.551868412846556, 7.890965792475021]

>  <energy>  (7) 
-35.254496908996316

>  <inter_energy>  (7) 
-34.70786313589578

>  <intra_energy>  (7) 
0.08820949886256133

>  <rmsd>  (7) 
14.0272

>  <sdf_rank>  (7) 
0

$$$$

     RDKit          3D

 17 16  0  0  0  0  0  0  0  0999 V2000
  -46.2028   31.6190   13.3438 N   0  0  0  0  0  0  0  0  0  0  0  0
  -45.0704   31.2102   12.5047 C   0  0  1  0  0  0  0  0  0  0  0  0
  -44.8437   29.7039   12.5198 C   0  0  0  0  0  0  0  0  0  0  0  0
  -44.3449   29.1328   13.5007 O   0  0  0  0  0  0  0  0  0  0  0  0
  -45.1622   31.7823   11.0602 C   0  0  0  0  0  0  0  0  0  0  0  0
  -46.4745   31.4525   10.3378 C   0  0  0  0  0  0  0  0  0  0  0  0
  -46.6215   30.4211    9.6796 O   0  0  0  0  0  0  0  0  0  0  0  0
  -47.4245   32.3833   10.4216 N   0  0  0  0  0  0  0  0  0  0  0  0
  -45.1679   29.0146   11.5438 O   0  0  0  0  0  0  0  0  0  0  0  0
  -45.9455   31.5261   14.3368 H   0  0  0  0  0  0  0  0  0  0  0  0
  -46.4433   32.6000   13.1417 H   0  0  0  0  0  0  0  0  0  0  0  0
  -47.0145   31.0180   13.1417 H   0  0  0  0  0  0  0  0  0  0  0  0
  -44.1754   31.6598   12.9594 H   0  0  0  0  0  0  0  0  0  0  0  0
  -45.0638   32.8765   11.1153 H   0  0  0  0  0  0  0  0  0  0  0  0
  -44.3543   31.3115   10.4808 H   0  0  0  0  0  0  0  0  0  0  0  0
  -48.3340   32.2338    9.9620 H   0  0  0  0  0  0  0  0  0  0  0  0
  -47.2492   33.2523   10.9461 H   0  0  0  0  0  0  0  0  0  0  0  0
  2  1  1  0
  2  3  1  0
  2  5  1  0
  3  4  2  0
  3  9  1  0
  5  6  1  0
  6  7  2  0
  6  8  1  0
  1 10  1  0
  1 11  1  0
  1 12  1  0
  2 13  1  1
  5 14  1  0
  5 15  1  0
  8 16  1  0
  8 17  1  0
M  CHG  2   1   1   9  -1
M  END
>  <filename_input>  (8) 
7C8Q_DSG_docked.sdf

>  <pdb_id>  (8) 
7C8Q_DSG

>  <pose_rank>  (8) 
7

>  <num_atoms_heavy>  (8) 
9

>  <num_torsions>  (8) 
3

>  <pose>  (8) 
[-46.20282461248572, 31.619037324979857, 13.343778043095071, -0.6000485348894241, 0.28254371290534347, -0.6460279117750654, 1.9345399634778222, 6.457598020548131, -7.222629972423765]

>  <energy>  (8) 
-389.29498748943905

>  <inter_energy>  (8) 
-407.4503788280266

>  <intra_energy>  (8) 
27.239077514019538

>  <rmsd>  (8) 
1.20392

>  <sdf_rank>  (8) 
0

$$$$

     RDKit          3D

 17 16  0  0  0  0  0  0  0  0999 V2000
  -45.8829   31.8208   13.2412 N   0  0  0  0  0  0  0  0  0  0  0  0
  -45.2056   31.1498   12.1254 C   0  0  1  0  0  0  0  0  0  0  0  0
  -44.7771   29.7290   12.4692 C   0  0  0  0  0  0  0  0  0  0  0  0
  -44.1357   29.4764   13.4997 O   0  0  0  0  0  0  0  0  0  0  0  0
  -46.0237   31.2197   10.8033 C   0  0  0  0  0  0  0  0  0  0  0  0
  -46.9644   32.4278   10.7116 C   0  0  0  0  0  0  0  0  0  0  0  0
  -47.8113   32.5358    9.8229 O   0  0  0  0  0  0  0  0  0  0  0  0
  -46.7652   33.3798   11.6228 N   0  0  0  0  0  0  0  0  0  0  0  0
  -45.0755   28.7892   11.7205 O   0  0  0  0  0  0  0  0  0  0  0  0
  -45.5168   31.4581   14.1330 H   0  0  0  0  0  0  0  0  0  0  0  0
  -45.7116   32.8350   13.1868 H   0  0  0  0  0  0  0  0  0  0  0  0
  -46.8954   31.6402   13.1868 H   0  0  0  0  0  0  0  0  0  0  0  0
  -44.2791   31.7150   11.9463 H   0  0  0  0  0  0  0  0  0  0  0  0
  -45.3168   31.2678    9.9619 H   0  0  0  0  0  0  0  0  0  0  0  0
  -46.6578   30.3213   10.7750 H   0  0  0  0  0  0  0  0  0  0  0  0
  -47.3577   34.2223   11.6253 H   0  0  0  0  0  0  0  0  0  0  0  0
  -46.0188   33.2730   12.3244 H   0  0  0  0  0  0  0  0  0  0  0  0
  2  1  1  0
  2  3  1  0
  2  5  1  0
  3  4  2  0
  3  9  1  0
  5  6  1  0
  6  7  2  0
  6  8  1  0
  1 10  1  0
  1 11  1  0
  1 12  1  0
  2 13  1  6
  5 14  1  0
  5 15  1  0
  8 16  1  0
  8 17  1  0
M  CHG  2   1   1   9  -1
M  END
>  <filename_input>  (9) 
7C8Q_DSG_docked.sdf

>  <pdb_id>  (9) 
7C8Q_DSG

>  <pose_rank>  (9) 
8

>  <num_atoms_heavy>  (9) 
9

>  <num_torsions>  (9) 
3

>  <pose>  (9) 
[-45.882864196133255, 31.82078653181813, 13.241175265162562, -1.0816295060813184, 0.6174912540965208, -0.4684650786209003, 2.3486862006121445, 7.876406549701786, -8.64554309785436]

>  <energy>  (9) 
-398.3694734406587

>  <inter_energy>  (9) 
-444.8762604634933

>  <intra_energy>  (9) 
42.185328318236685

>  <rmsd>  (9) 
1.6938

>  <sdf_rank>  (9) 
0

$$$$

     RDKit          3D

 17 16  0  0  0  0  0  0  0  0999 V2000
  -46.8234   29.4449   12.8122 N   0  0  0  0  0  0  0  0  0  0  0  0
  -45.4744   29.9953   12.6364 C   0  0  1  0  0  0  0  0  0  0  0  0
  -44.4646   28.9426   12.1977 C   0  0  0  0  0  0  0  0  0  0  0  0
  -44.4925   28.4514   11.0597 O   0  0  0  0  0  0  0  0  0  0  0  0
  -45.4588   31.2519   11.7183 C   0  0  0  0  0  0  0  0  0  0  0  0
  -46.4963   31.2160   10.5892 C   0  0  0  0  0  0  0  0  0  0  0  0
  -46.6788   30.2139    9.8955 O   0  0  0  0  0  0  0  0  0  0  0  0
  -47.1457   32.3591   10.3710 N   0  0  0  0  0  0  0  0  0  0  0  0
  -43.5811   28.5627   12.9775 O   0  0  0  0  0  0  0  0  0  0  0  0
  -47.0312   29.3601   13.8175 H   0  0  0  0  0  0  0  0  0  0  0  0
  -47.5106   30.0728   12.3713 H   0  0  0  0  0  0  0  0  0  0  0  0
  -46.8751   28.5155   12.3713 H   0  0  0  0  0  0  0  0  0  0  0  0
  -45.1511   30.3350   13.6314 H   0  0  0  0  0  0  0  0  0  0  0  0
  -45.6564   32.1370   12.3409 H   0  0  0  0  0  0  0  0  0  0  0  0
  -44.4692   31.2819   11.2388 H   0  0  0  0  0  0  0  0  0  0  0  0
  -47.8580   32.4132    9.6289 H   0  0  0  0  0  0  0  0  0  0  0  0
  -46.9354   33.1885   10.9444 H   0  0  0  0  0  0  0  0  0  0  0  0
  2  1  1  0
  2  3  1  0
  2  5  1  0
  3  4  2  0
  3  9  1  0
  5  6  1  0
  6  7  2  0
  6  8  1  0
  1 10  1  0
  1 11  1  0
  1 12  1  0
  2 13  1  1
  5 14  1  0
  5 15  1  0
  8 16  1  0
  8 17  1  0
M  CHG  2   1   1   9  -1
M  END
>  <filename_input>  (10) 
7C8Q_DSG_docked.sdf

>  <pdb_id>  (10) 
7C8Q_DSG

>  <pose_rank>  (10) 
9

>  <num_atoms_heavy>  (10) 
9

>  <num_torsions>  (10) 
3

>  <pose>  (10) 
[-46.823380910197464, 29.44488378277256, 12.812220994078796, 0.035134769060716116, -0.12932974018955, -0.19342015324021714, -1.8213103023252655, -5.748291804628589, -0.1871879732862977]

>  <energy>  (10) 
-334.0295241077931

>  <inter_energy>  (10) 
-332.0620210153269

>  <intra_energy>  (10) 
12.294607852201997

>  <rmsd>  (10) 
0.964383

>  <sdf_rank>  (10) 
0

$$$$

     RDKit          3D

 17 16  0  0  0  0  0  0  0  0999 V2000
  -45.9108   31.6172   13.0969 N   0  0  0  0  0  0  0  0  0  0  0  0
  -45.8105   32.0515   11.6987 C   0  0  1  0  0  0  0  0  0  0  0  0
  -46.0568   30.9161   10.7134 C   0  0  0  0  0  0  0  0  0  0  0  0
  -45.6480   29.7665   10.9331 O   0  0  0  0  0  0  0  0  0  0  0  0
  -46.6899   33.2998   11.3981 C   0  0  0  0  0  0  0  0  0  0  0  0
  -46.7005   34.3441   12.5215 C   0  0  0  0  0  0  0  0  0  0  0  0
  -46.7846   34.0302   13.7103 O   0  0  0  0  0  0  0  0  0  0  0  0
  -46.6715   35.6153   12.1226 N   0  0  0  0  0  0  0  0  0  0  0  0
  -46.6868   31.1234    9.6680 O   0  0  0  0  0  0  0  0  0  0  0  0
  -45.7260   32.4170   13.7190 H   0  0  0  0  0  0  0  0  0  0  0  0
  -46.8578   31.2542   13.2766 H   0  0  0  0  0  0  0  0  0  0  0  0
  -45.2190   30.8755   13.2766 H   0  0  0  0  0  0  0  0  0  0  0  0
  -44.7666   32.3653   11.5506 H   0  0  0  0  0  0  0  0  0  0  0  0
  -46.3084   33.7791   10.4845 H   0  0  0  0  0  0  0  0  0  0  0  0
  -47.7239   32.9404   11.2896 H   0  0  0  0  0  0  0  0  0  0  0  0
  -46.6764   36.3740   12.8193 H   0  0  0  0  0  0  0  0  0  0  0  0
  -46.6443   35.8392   11.1176 H   0  0  0  0  0  0  0  0  0  0  0  0
  2  1  1  0
  2  3  1  0
  2  5  1  0
  3  4  2  0
  3  9  1  0
  5  6  1  0
  6  7  2  0
  6  8  1  0
  1 10  1  0
  1 11  1  0
  1 12  1  0
  2 13  1  1
  5 14  1  0
  5 15  1  0
  8 16  1  0
  8 17  1  0
M  CHG  2   1   1   9  -1
M  END
>  <filename_input>  (11) 
7C8Q_DSG_docked.sdf

>  <pdb_id>  (11) 
7C8Q_DSG

>  <pose_rank>  (11) 
10

>  <num_atoms_heavy>  (11) 
9

>  <num_torsions>  (11) 
3

>  <pose>  (11) 
[-45.91080894170696, 31.61717672668953, 13.096946531518022, 0.6537921731700527, -4.876032443737699, 0.9779464677321966, 2.5697366126374512, 1.8137553851741348, 6.144771539031038]

>  <energy>  (11) 
-246.64843904105106

>  <inter_energy>  (11) 
-269.35793042776555

>  <intra_energy>  (11) 
22.256291535279686

>  <rmsd>  (11) 
3.24937

>  <sdf_rank>  (11) 
0

$$$$

     RDKit          3D

 17 16  0  0  0  0  0  0  0  0999 V2000
  -45.9481   31.3899   13.5711 N   0  0  0  0  0  0  0  0  0  0  0  0
  -45.0541   30.9838   12.4804 C   0  0  1  0  0  0  0  0  0  0  0  0
  -45.0514   29.4772   12.2552 C   0  0  0  0  0  0  0  0  0  0  0  0
  -44.7244   28.6877   13.1534 O   0  0  0  0  0  0  0  0  0  0  0  0
  -45.3150   31.7797   11.1687 C   0  0  0  0  0  0  0  0  0  0  0  0
  -46.5734   32.6559   11.2072 C   0  0  0  0  0  0  0  0  0  0  0  0
  -47.4480   32.5889   10.3415 O   0  0  0  0  0  0  0  0  0  0  0  0
  -46.6295   33.5349   12.2073 N   0  0  0  0  0  0  0  0  0  0  0  0
  -45.3903   29.0098   11.1600 O   0  0  0  0  0  0  0  0  0  0  0  0
  -45.5002   31.1864   14.4760 H   0  0  0  0  0  0  0  0  0  0  0  0
  -46.1380   32.3998   13.5014 H   0  0  0  0  0  0  0  0  0  0  0  0
  -46.8337   30.8684   13.5014 H   0  0  0  0  0  0  0  0  0  0  0  0
  -44.0368   31.2474   12.8053 H   0  0  0  0  0  0  0  0  0  0  0  0
  -44.4475   32.4293   10.9806 H   0  0  0  0  0  0  0  0  0  0  0  0
  -45.4702   31.0367   10.3726 H   0  0  0  0  0  0  0  0  0  0  0  0
  -47.4439   34.1586   12.2997 H   0  0  0  0  0  0  0  0  0  0  0  0
  -45.8584   33.5904   12.8879 H   0  0  0  0  0  0  0  0  0  0  0  0
  2  1  1  0
  2  3  1  0
  2  5  1  0
  3  4  2  0
  3  9  1  0
  5  6  1  0
  6  7  2  0
  6  8  1  0
  1 10  1  0
  1 11  1  0
  1 12  1  0
  2 13  1  1
  5 14  1  0
  5 15  1  0
  8 16  1  0
  8 17  1  0
M  CHG  2   1   1   9  -1
M  END
>  <filename_input>  (12) 
7C8Q_DSG_docked.sdf

>  <pdb_id>  (12) 
7C8Q_DSG

>  <pose_rank>  (12) 
11

>  <num_atoms_heavy>  (12) 
9

>  <num_torsions>  (12) 
3

>  <pose>  (12) 
[-45.94813168092731, 31.38986987368663, 13.571089651527307, 12.017660422553352, -12.928762540253768, 16.431566617728674, 2.195494973302851, 7.25490288635214, -7.899169790723213]

>  <energy>  (12) 
-374.6474273842236

>  <inter_energy>  (12) 
-397.398145592722

>  <intra_energy>  (12) 
28.136020661982197

>  <rmsd>  (12) 
1.78747

>  <sdf_rank>  (12) 
0

$$$$

     RDKit          3D

 17 16  0  0  0  0  0  0  0  0999 V2000
  -55.8604   36.0824   11.6592 N   0  0  0  0  0  0  0  0  0  0  0  0
  -54.4095   36.2021   11.8436 C   0  0  1  0  0  0  0  0  0  0  0  0
  -53.6572   34.9553   11.3966 C   0  0  0  0  0  0  0  0  0  0  0  0
  -53.9495   34.3624   10.3477 O   0  0  0  0  0  0  0  0  0  0  0  0
  -53.8337   37.5019   11.2103 C   0  0  0  0  0  0  0  0  0  0  0  0
  -54.4386   37.8554    9.8458 C   0  0  0  0  0  0  0  0  0  0  0  0
  -55.4746   38.5138    9.7365 O   0  0  0  0  0  0  0  0  0  0  0  0
  -53.8009   37.3533    8.7888 N   0  0  0  0  0  0  0  0  0  0  0  0
  -52.7220   34.5136   12.0772 O   0  0  0  0  0  0  0  0  0  0  0  0
  -56.3216   36.0444   12.5794 H   0  0  0  0  0  0  0  0  0  0  0  0
  -56.2082   36.8976   11.1343 H   0  0  0  0  0  0  0  0  0  0  0  0
  -56.0699   35.2213   11.1343 H   0  0  0  0  0  0  0  0  0  0  0  0
  -54.2455   36.2873   12.9280 H   0  0  0  0  0  0  0  0  0  0  0  0
  -54.0262   38.3368   11.9002 H   0  0  0  0  0  0  0  0  0  0  0  0
  -52.7605   37.3257   11.0453 H   0  0  0  0  0  0  0  0  0  0  0  0
  -54.1474   37.5471    7.8384 H   0  0  0  0  0  0  0  0  0  0  0  0
  -52.9614   36.7716    8.9222 H   0  0  0  0  0  0  0  0  0  0  0  0
  2  1  1  0
  2  3  1  0
  2  5  1  0
  3  4  2  0
  3  9  1  0
  5  6  1  0
  6  7  2  0
  6  8  1  0
  1 10  1  0
  1 11  1  0
  1 12  1  0
  2 13  1  1
  5 14  1  0
  5 15  1  0
  8 16  1  0
  8 17  1  0
M  CHG  2   1   1   9  -1
M  END
>  <filename_input>  (13) 
7C8Q_DSG_docked.sdf

>  <pdb_id>  (13) 
7C8Q_DSG

>  <pose_rank>  (13) 
12

>  <num_atoms_heavy>  (13) 
9

>  <num_torsions>  (13) 
3

>  <pose>  (13) 
[-55.860440140815854, 36.082444517997054, 11.65915145988281, -1.8337791548354077, 2.933734081122247, 4.462107503592838, -2.3122702528282226, 6.701935638937052, 2.1120088335857794]

>  <energy>  (13) 
-145.51991508970352

>  <inter_energy>  (13) 
-149.5836723250925

>  <intra_energy>  (13) 
5.465249857230123

>  <rmsd>  (13) 
10.3862

>  <sdf_rank>  (13) 
0

$$$$

     RDKit          3D

 17 16  0  0  0  0  0  0  0  0999 V2000
  -53.9035   36.3251   13.8438 N   0  0  0  0  0  0  0  0  0  0  0  0
  -53.6502   35.4197   12.7169 C   0  0  1  0  0  0  0  0  0  0  0  0
  -54.8381   34.5158   12.4130 C   0  0  0  0  0  0  0  0  0  0  0  0
  -54.9846   33.9894   11.3001 O   0  0  0  0  0  0  0  0  0  0  0  0
  -53.1366   36.1700   11.4539 C   0  0  0  0  0  0  0  0  0  0  0  0
  -53.7534   37.5606   11.2570 C   0  0  0  0  0  0  0  0  0  0  0  0
  -54.8687   37.7206   10.7578 O   0  0  0  0  0  0  0  0  0  0  0  0
  -52.9783   38.5863   11.6081 N   0  0  0  0  0  0  0  0  0  0  0  0
  -55.6825   34.2805   13.2873 O   0  0  0  0  0  0  0  0  0  0  0  0
  -53.7619   35.8187   14.7295 H   0  0  0  0  0  0  0  0  0  0  0  0
  -53.2533   37.1225   13.7964 H   0  0  0  0  0  0  0  0  0  0  0  0
  -54.8731   36.6693   13.7964 H   0  0  0  0  0  0  0  0  0  0  0  0
  -52.8332   34.7560   13.0362 H   0  0  0  0  0  0  0  0  0  0  0  0
  -52.0460   36.2850   11.5400 H   0  0  0  0  0  0  0  0  0  0  0  0
  -53.4329   35.5657   10.5838 H   0  0  0  0  0  0  0  0  0  0  0  0
  -53.3232   39.5513   11.5051 H   0  0  0  0  0  0  0  0  0  0  0  0
  -52.0344   38.4140   11.9826 H   0  0  0  0  0  0  0  0  0  0  0  0
  2  1  1  0
  2  3  1  0
  2  5  1  0
  3  4  2  0
  3  9  1  0
  5  6  1  0
  6  7  2  0
  6  8  1  0
  1 10  1  0
  1 11  1  0
  1 12  1  0
  2 13  1  1
  5 14  1  0
  5 15  1  0
  8 16  1  0
  8 17  1  0
M  CHG  2   1   1   9  -1
M  END
>  <filename_input>  (14) 
7C8Q_DSG_docked.sdf

>  <pdb_id>  (14) 
7C8Q_DSG

>  <pose_rank>  (14) 
13

>  <num_atoms_heavy>  (14) 
9

>  <num_torsions>  (14) 
3

>  <pose>  (14) 
[-53.90351424780571, 36.325053450846944, 13.843827323964245, -0.1741316608261646, 0.7920012986621136, -1.544456310267888, -0.2961637411974689, 0.5093716070801235, -0.8060461410564932]

>  <energy>  (14) 
-144.06841058664173

>  <inter_energy>  (14) 
-127.77353472279387

>  <intra_energy>  (14) 
2.4934720898406986

>  <rmsd>  (14) 
10.3032

>  <sdf_rank>  (14) 
0

$$$$

     RDKit          3D

 17 16  0  0  0  0  0  0  0  0999 V2000
  -36.7750   36.4471   12.2909 N   0  0  0  0  0  0  0  0  0  0  0  0
  -37.1294   37.0644   11.0075 C   0  0  1  0  0  0  0  0  0  0  0  0
  -38.5729   37.5495   10.9695 C   0  0  0  0  0  0  0  0  0  0  0  0
  -39.3467   37.2126   10.0613 O   0  0  0  0  0  0  0  0  0  0  0  0
  -36.1203   38.1690   10.5790 C   0  0  0  0  0  0  0  0  0  0  0  0
  -36.3019   38.6582    9.1366 C   0  0  0  0  0  0  0  0  0  0  0  0
  -36.1557   37.9129    8.1661 O   0  0  0  0  0  0  0  0  0  0  0  0
  -36.5709   39.9565    9.0014 N   0  0  0  0  0  0  0  0  0  0  0  0
  -39.0058   38.2897   11.8625 O   0  0  0  0  0  0  0  0  0  0  0  0
  -37.1149   37.0391   13.0621 H   0  0  0  0  0  0  0  0  0  0  0  0
  -37.2100   35.5157   12.3556 H   0  0  0  0  0  0  0  0  0  0  0  0
  -35.7513   36.3532   12.3556 H   0  0  0  0  0  0  0  0  0  0  0  0
  -37.0537   36.2668   10.2538 H   0  0  0  0  0  0  0  0  0  0  0  0
  -36.2429   39.0292   11.2535 H   0  0  0  0  0  0  0  0  0  0  0  0
  -35.1170   37.7220   10.6382 H   0  0  0  0  0  0  0  0  0  0  0  0
  -36.7061   40.3594    8.0631 H   0  0  0  0  0  0  0  0  0  0  0  0
  -36.6437   40.5569    9.8350 H   0  0  0  0  0  0  0  0  0  0  0  0
  2  1  1  0
  2  3  1  0
  2  5  1  0
  3  4  2  0
  3  9  1  0
  5  6  1  0
  6  7  2  0
  6  8  1  0
  1 10  1  0
  1 11  1  0
  1 12  1  0
  2 13  1  6
  5 14  1  0
  5 15  1  0
  8 16  1  0
  8 17  1  0
M  CHG  2   1   1   9  -1
M  END
>  <filename_input>  (15) 
7C8Q_DSG_docked.sdf

>  <pdb_id>  (15) 
7C8Q_DSG

>  <pose_rank>  (15) 
14

>  <num_atoms_heavy>  (15) 
9

>  <num_torsions>  (15) 
3

>  <pose>  (15) 
[-36.77501250185662, 36.44707797308565, 12.29089414090771, 0.7261889450763344, 1.9821385754231937, -1.5810408471936688, 1.0083820728924415, -2.198419070337415, -0.4934131400230559]

>  <energy>  (15) 
-122.47835502304575

>  <inter_energy>  (15) 
-98.3158522378612

>  <intra_energy>  (15) 
0.33020033412036853

>  <rmsd>  (15) 
11.6957

>  <sdf_rank>  (15) 
0

$$$$

     RDKit          3D

 17 16  0  0  0  0  0  0  0  0999 V2000
  -50.1920   21.3328   19.9077 N   0  0  0  0  0  0  0  0  0  0  0  0
  -49.3332   22.5113   19.7421 C   0  0  1  0  0  0  0  0  0  0  0  0
  -48.0544   22.2013   18.9747 C   0  0  0  0  0  0  0  0  0  0  0  0
  -47.1513   21.5118   19.4706 O   0  0  0  0  0  0  0  0  0  0  0  0
  -50.1006   23.7290   19.1501 C   0  0  0  0  0  0  0  0  0  0  0  0
  -50.7330   24.6447   20.2058 C   0  0  0  0  0  0  0  0  0  0  0  0
  -50.1188   25.0147   21.2082 O   0  0  0  0  0  0  0  0  0  0  0  0
  -52.0093   24.9655   19.9958 N   0  0  0  0  0  0  0  0  0  0  0  0
  -47.8985   22.6299   17.8237 O   0  0  0  0  0  0  0  0  0  0  0  0
  -50.3283   21.1456   20.9113 H   0  0  0  0  0  0  0  0  0  0  0  0
  -51.1048   21.5081   19.4640 H   0  0  0  0  0  0  0  0  0  0  0  0
  -49.7454   20.5175   19.4640 H   0  0  0  0  0  0  0  0  0  0  0  0
  -49.0199   22.8055   20.7547 H   0  0  0  0  0  0  0  0  0  0  0  0
  -49.3945   24.3255   18.5539 H   0  0  0  0  0  0  0  0  0  0  0  0
  -50.9263   23.3213   18.5485 H   0  0  0  0  0  0  0  0  0  0  0  0
  -52.5029   25.5770   20.6616 H   0  0  0  0  0  0  0  0  0  0  0  0
  -52.5021   24.6020   19.1676 H   0  0  0  0  0  0  0  0  0  0  0  0
  2  1  1  0
  2  3  1  0
  2  5  1  0
  3  4  2  0
  3  9  1  0
  5  6  1  0
  6  7  2  0
  6  8  1  0
  1 10  1  0
  1 11  1  0
  1 12  1  0
  2 13  1  1
  5 14  1  0
  5 15  1  0
  8 16  1  0
  8 17  1  0
M  CHG  2   1   1   9  -1
M  END
>  <filename_input>  (16) 
7C8Q_DSG_docked.sdf

>  <pdb_id>  (16) 
7C8Q_DSG

>  <pose_rank>  (16) 
15

>  <num_atoms_heavy>  (16) 
9

>  <num_torsions>  (16) 
3

>  <pose>  (16) 
[-50.19196375859305, 21.332786345889176, 19.907702483711265, -3.7182708959770348, -0.8219686084606864, -4.473481707154954, 8.287028956038817, -9.861634299272424, 7.684248993149587]

>  <energy>  (16) 
-120.4195643761588

>  <inter_energy>  (16) 
-107.24855454937703

>  <intra_energy>  (16) 
0.0

>  <rmsd>  (16) 
11.5606

>  <sdf_rank>  (16) 
0

$$$$

     RDKit          3D

 17 16  0  0  0  0  0  0  0  0999 V2000
  -43.9455   22.5894    5.9297 N   0  0  0  0  0  0  0  0  0  0  0  0
  -43.4549   22.2130    4.5989 C   0  0  1  0  0  0  0  0  0  0  0  0
  -44.3803   21.2334    3.8886 C   0  0  0  0  0  0  0  0  0  0  0  0
  -45.5939   21.1903    4.1382 O   0  0  0  0  0  0  0  0  0  0  0  0
  -43.1113   23.4497    3.7188 C   0  0  0  0  0  0  0  0  0  0  0  0
  -41.7299   23.3826    3.0555 C   0  0  0  0  0  0  0  0  0  0  0  0
  -41.4664   23.9990    2.0214 O   0  0  0  0  0  0  0  0  0  0  0  0
  -40.8525   22.5674    3.6399 N   0  0  0  0  0  0  0  0  0  0  0  0
  -43.9314   20.4610    3.0315 O   0  0  0  0  0  0  0  0  0  0  0  0
  -43.3616   22.1414    6.6503 H   0  0  0  0  0  0  0  0  0  0  0  0
  -43.8978   23.6128    6.0365 H   0  0  0  0  0  0  0  0  0  0  0  0
  -44.9216   22.2783    6.0365 H   0  0  0  0  0  0  0  0  0  0  0  0
  -42.5082   21.6772    4.7627 H   0  0  0  0  0  0  0  0  0  0  0  0
  -43.8709   23.5322    2.9274 H   0  0  0  0  0  0  0  0  0  0  0  0
  -43.0992   24.3221    4.3889 H   0  0  0  0  0  0  0  0  0  0  0  0
  -39.9034   22.4691    3.2521 H   0  0  0  0  0  0  0  0  0  0  0  0
  -41.1234   22.0358    4.4795 H   0  0  0  0  0  0  0  0  0  0  0  0
  2  1  1  0
  2  3  1  0
  2  5  1  0
  3  4  2  0
  3  9  1  0
  5  6  1  0
  6  7  2  0
  6  8  1  0
  1 10  1  0
  1 11  1  0
  1 12  1  0
  2 13  1  1
  5 14  1  0
  5 15  1  0
  8 16  1  0
  8 17  1  0
M  CHG  2   1   1   9  -1
M  END
>  <filename_input>  (17) 
7C8Q_DSG_docked.sdf

>  <pdb_id>  (17) 
7C8Q_DSG

>  <pose_rank>  (17) 
16

>  <num_atoms_heavy>  (17) 
9

>  <num_torsions>  (17) 
3

>  <pose>  (17) 
[-43.945549413358115, 22.5894211614834, 5.9297215141907165, -0.12821061033330264, -3.0137924070076476, 3.718529778814351, 16.262745216919384, 3.4075259067696204, 15.878106344603403]

>  <energy>  (17) 
-120.35321096219081

>  <inter_energy>  (17) 
-102.6417667131816

>  <intra_energy>  (17) 
0.0

>  <rmsd>  (17) 
11.9494

>  <sdf_rank>  (17) 
0

$$$$

     RDKit          3D

 17 16  0  0  0  0  0  0  0  0999 V2000
  -49.2310   39.2689   21.0583 N   0  0  0  0  0  0  0  0  0  0  0  0
  -49.1151   38.4566   19.8415 C   0  0  1  0  0  0  0  0  0  0  0  0
  -48.7392   39.2834   18.6187 C   0  0  0  0  0  0  0  0  0  0  0  0
  -49.3849   39.2104   17.5628 O   0  0  0  0  0  0  0  0  0  0  0  0
  -48.1841   37.2245   20.0343 C   0  0  0  0  0  0  0  0  0  0  0  0
  -48.8860   35.9949   20.6247 C   0  0  0  0  0  0  0  0  0  0  0  0
  -50.0257   35.6652   20.2915 O   0  0  0  0  0  0  0  0  0  0  0  0
  -48.2033   35.3414   21.5642 N   0  0  0  0  0  0  0  0  0  0  0  0
  -47.7760   40.0600   18.6630 O   0  0  0  0  0  0  0  0  0  0  0  0
  -49.1444   38.6618   21.8859 H   0  0  0  0  0  0  0  0  0  0  0  0
  -48.4824   39.9762   21.0715 H   0  0  0  0  0  0  0  0  0  0  0  0
  -50.1475   39.7387   21.0715 H   0  0  0  0  0  0  0  0  0  0  0  0
  -50.1208   38.0568   19.6444 H   0  0  0  0  0  0  0  0  0  0  0  0
  -47.7697   36.9479   19.0536 H   0  0  0  0  0  0  0  0  0  0  0  0
  -47.4083   37.5230   20.7547 H   0  0  0  0  0  0  0  0  0  0  0  0
  -48.6092   34.5052   22.0080 H   0  0  0  0  0  0  0  0  0  0  0  0
  -47.2697   35.6724   21.8467 H   0  0  0  0  0  0  0  0  0  0  0  0
  2  1  1  0
  2  3  1  0
  2  5  1  0
  3  4  2  0
  3  9  1  0
  5  6  1  0
  6  7  2  0
  6  8  1  0
  1 10  1  0
  1 11  1  0
  1 12  1  0
  2 13  1  6
  5 14  1  0
  5 15  1  0
  8 16  1  0
  8 17  1  0
M  CHG  2   1   1   9  -1
M  END
>  <filename_input>  (18) 
7C8Q_DSG_docked.sdf

>  <pdb_id>  (18) 
7C8Q_DSG

>  <pose_rank>  (18) 
17

>  <num_atoms_heavy>  (18) 
9

>  <num_torsions>  (18) 
3

>  <pose>  (18) 
[-49.231021015266805, 39.26887484903881, 21.058283074555895, -2.002296924737537, 0.06376215450483176, 2.3884107594767285, 0.9752430397639521, 2.6192029324488053, 1.2965946312482282]

>  <energy>  (18) 
-117.42528946310674

>  <inter_energy>  (18) 
-104.46913529748426

>  <intra_energy>  (18) 
0.0

>  <rmsd>  (18) 
11.9006

>  <sdf_rank>  (18) 
0

$$$$

     RDKit          3D

 17 16  0  0  0  0  0  0  0  0999 V2000
  -41.4954   36.2636    3.9225 N   0  0  0  0  0  0  0  0  0  0  0  0
  -40.4400   37.2821    3.8721 C   0  0  1  0  0  0  0  0  0  0  0  0
  -39.2671   36.9564    4.7879 C   0  0  0  0  0  0  0  0  0  0  0  0
  -38.8478   35.7969    4.9175 O   0  0  0  0  0  0  0  0  0  0  0  0
  -39.9870   37.5990    2.4173 C   0  0  0  0  0  0  0  0  0  0  0  0
  -39.5347   39.0490    2.2035 C   0  0  0  0  0  0  0  0  0  0  0  0
  -40.3196   39.9414    1.8776 O   0  0  0  0  0  0  0  0  0  0  0  0
  -38.2268   39.2670    2.3371 N   0  0  0  0  0  0  0  0  0  0  0  0
  -38.6991   37.8579    5.4183 O   0  0  0  0  0  0  0  0  0  0  0  0
  -41.7183   36.0485    4.9049 H   0  0  0  0  0  0  0  0  0  0  0  0
  -42.3383   36.6189    3.4491 H   0  0  0  0  0  0  0  0  0  0  0  0
  -41.1703   35.4086    3.4491 H   0  0  0  0  0  0  0  0  0  0  0  0
  -40.8886   38.2065    4.2648 H   0  0  0  0  0  0  0  0  0  0  0  0
  -39.1477   36.9345    2.1644 H   0  0  0  0  0  0  0  0  0  0  0  0
  -40.8632   37.4417    1.7711 H   0  0  0  0  0  0  0  0  0  0  0  0
  -37.8470   40.2157    2.2085 H   0  0  0  0  0  0  0  0  0  0  0  0
  -37.5957   38.4867    2.5690 H   0  0  0  0  0  0  0  0  0  0  0  0
  2  1  1  0
  2  3  1  0
  2  5  1  0
  3  4  2  0
  3  9  1  0
  5  6  1  0
  6  7  2  0
  6  8  1  0
  1 10  1  0
  1 11  1  0
  1 12  1  0
  2 13  1  1
  5 14  1  0
  5 15  1  0
  8 16  1  0
  8 17  1  0
M  CHG  2   1   1   9  -1
M  END
>  <filename_input>  (19) 
7C8Q_DSG_docked.sdf

>  <pdb_id>  (19) 
7C8Q_DSG

>  <pose_rank>  (19) 
18

>  <num_atoms_heavy>  (19) 
9

>  <num_torsions>  (19) 
3

>  <pose>  (19) 
[-41.49536196071605, 36.2636188728545, 3.9225314972755645, 10.998277297571025, 12.992128610434747, -5.080666372193378, 16.47706245414796, -8.851021706555105, -0.9579623663258853]

>  <energy>  (19) 
-10.454625903040293

>  <inter_energy>  (19) 
-11.41503756861449

>  <intra_energy>  (19) 
1.256541997746011

>  <rmsd>  (19) 
12.7303

>  <sdf_rank>  (19) 
0

$$$$

     RDKit          3D

 17 16  0  0  0  0  0  0  0  0999 V2000
  -46.6917   20.7991    6.6593 N   0  0  0  0  0  0  0  0  0  0  0  0
  -46.3873   21.4411    5.3752 C   0  0  1  0  0  0  0  0  0  0  0  0
  -45.0568   20.9829    4.7918 C   0  0  0  0  0  0  0  0  0  0  0  0
  -44.0491   20.8489    5.5016 O   0  0  0  0  0  0  0  0  0  0  0  0
  -47.5566   21.3178    4.3555 C   0  0  0  0  0  0  0  0  0  0  0  0
  -48.0521   22.6609    3.8048 C   0  0  0  0  0  0  0  0  0  0  0  0
  -47.5084   23.2216    2.8516 O   0  0  0  0  0  0  0  0  0  0  0  0
  -49.0734   23.2085    4.4630 N   0  0  0  0  0  0  0  0  0  0  0  0
  -44.9613   20.7233    3.5851 O   0  0  0  0  0  0  0  0  0  0  0  0
  -46.3988   21.4167    7.4298 H   0  0  0  0  0  0  0  0  0  0  0  0
  -47.7048   20.6254    6.7246 H   0  0  0  0  0  0  0  0  0  0  0  0
  -46.1851   19.9047    6.7246 H   0  0  0  0  0  0  0  0  0  0  0  0
  -46.2753   22.5143    5.5893 H   0  0  0  0  0  0  0  0  0  0  0  0
  -47.2141   20.7030    3.5100 H   0  0  0  0  0  0  0  0  0  0  0  0
  -48.4015   20.8653    4.8953 H   0  0  0  0  0  0  0  0  0  0  0  0
  -49.4616   24.1106    4.1528 H   0  0  0  0  0  0  0  0  0  0  0  0
  -49.4745   22.7295    5.2819 H   0  0  0  0  0  0  0  0  0  0  0  0
  2  1  1  0
  2  3  1  0
  2  5  1  0
  3  4  2  0
  3  9  1  0
  5  6  1  0
  6  7  2  0
  6  8  1  0
  1 10  1  0
  1 11  1  0
  1 12  1  0
  2 13  1  1
  5 14  1  0
  5 15  1  0
  8 16  1  0
  8 17  1  0
M  CHG  2   1   1   9  -1
M  END
>  <filename_input>  (20) 
7C8Q_DSG_docked.sdf

>  <pdb_id>  (20) 
7C8Q_DSG

>  <pose_rank>  (20) 
19

>  <num_atoms_heavy>  (20) 
9

>  <num_torsions>  (20) 
3

>  <pose>  (20) 
[-46.69169398022008, 20.799136514929916, 6.65926042686009, 3.627131746909906, -2.088483695830335, -3.1382162321878972, 2.488594469736168, -2.986703052971241, -4.21300142386676]

>  <energy>  (20) 
-112.87942018318175

>  <inter_energy>  (20) 
-98.50789101165023

>  <intra_energy>  (20) 
0.0

>  <rmsd>  (20) 
11.3626

>  <sdf_rank>  (20) 
0

$$$$

     RDKit          3D

 17 16  0  0  0  0  0  0  0  0999 V2000
  -53.1448   27.6613    4.5185 N   0  0  0  0  0  0  0  0  0  0  0  0
  -52.2486   28.0845    3.4362 C   0  0  1  0  0  0  0  0  0  0  0  0
  -51.8995   26.9464    2.4857 C   0  0  0  0  0  0  0  0  0  0  0  0
  -50.8967   26.9934    1.7581 O   0  0  0  0  0  0  0  0  0  0  0  0
  -52.7727   29.3440    2.6871 C   0  0  0  0  0  0  0  0  0  0  0  0
  -54.2939   29.5273    2.7575 C   0  0  0  0  0  0  0  0  0  0  0  0
  -54.8329   30.2259    3.6178 O   0  0  0  0  0  0  0  0  0  0  0  0
  -54.9968   28.8340    1.8623 N   0  0  0  0  0  0  0  0  0  0  0  0
  -52.6153   25.9377    2.4311 O   0  0  0  0  0  0  0  0  0  0  0  0
  -52.7069   27.8681    5.4275 H   0  0  0  0  0  0  0  0  0  0  0  0
  -54.0374   28.1698    4.4438 H   0  0  0  0  0  0  0  0  0  0  0  0
  -53.3192   26.6489    4.4438 H   0  0  0  0  0  0  0  0  0  0  0  0
  -51.3059   28.3814    3.9189 H   0  0  0  0  0  0  0  0  0  0  0  0
  -52.2970   30.2317    3.1294 H   0  0  0  0  0  0  0  0  0  0  0  0
  -52.5183   29.2101    1.6253 H   0  0  0  0  0  0  0  0  0  0  0  0
  -56.0242   28.9052    1.8472 H   0  0  0  0  0  0  0  0  0  0  0  0
  -54.5126   28.2270    1.1856 H   0  0  0  0  0  0  0  0  0  0  0  0
  2  1  1  0
  2  3  1  0
  2  5  1  0
  3  4  2  0
  3  9  1  0
  5  6  1  0
  6  7  2  0
  6  8  1  0
  1 10  1  0
  1 11  1  0
  1 12  1  0
  2 13  1  1
  5 14  1  0
  5 15  1  0
  8 16  1  0
  8 17  1  0
M  CHG  2   1   1   9  -1
M  END
>  <filename_input>  (21) 
7C8Q_DSG_docked.sdf

>  <pdb_id>  (21) 
7C8Q_DSG

>  <pose_rank>  (21) 
20

>  <num_atoms_heavy>  (21) 
9

>  <num_torsions>  (21) 
3

>  <pose>  (21) 
[-53.14481556409171, 27.661253926864834, 4.518487233526453, 0.5725059624915684, -5.053880814970661, 2.3300412097611614, 0.44644370902682, -5.598308049349829, -4.04318149204029]

>  <energy>  (21) 
-110.76921170850551

>  <inter_energy>  (21) 
-100.72365821400466

>  <intra_energy>  (21) 
3.4467924887960164

>  <rmsd>  (21) 
11.7213

>  <sdf_rank>  (21) 
0

$$$$

     RDKit          3D

 17 16  0  0  0  0  0  0  0  0999 V2000
  -49.3398   23.8744   18.5659 N   0  0  0  0  0  0  0  0  0  0  0  0
  -49.3073   22.4073   18.5437 C   0  0  1  0  0  0  0  0  0  0  0  0
  -48.1050   21.8366   19.2847 C   0  0  0  0  0  0  0  0  0  0  0  0
  -47.4581   20.8806   18.8323 O   0  0  0  0  0  0  0  0  0  0  0  0
  -50.6494   21.7747   19.0135 C   0  0  0  0  0  0  0  0  0  0  0  0
  -51.5065   21.2063   17.8755 C   0  0  0  0  0  0  0  0  0  0  0  0
  -51.2657   21.4420   16.6901 O   0  0  0  0  0  0  0  0  0  0  0  0
  -52.5627   20.4887   18.2569 N   0  0  0  0  0  0  0  0  0  0  0  0
  -47.7429   22.3314   20.3603 O   0  0  0  0  0  0  0  0  0  0  0  0
  -49.3470   24.2029   19.5420 H   0  0  0  0  0  0  0  0  0  0  0  0
  -48.5067   24.2435   18.0856 H   0  0  0  0  0  0  0  0  0  0  0  0
  -50.1883   24.2063   18.0856 H   0  0  0  0  0  0  0  0  0  0  0  0
  -49.1824   22.1206   17.4891 H   0  0  0  0  0  0  0  0  0  0  0  0
  -50.4198   20.9582   19.7139 H   0  0  0  0  0  0  0  0  0  0  0  0
  -51.2347   22.5817   19.4785 H   0  0  0  0  0  0  0  0  0  0  0  0
  -53.1862   20.0740   17.5496 H   0  0  0  0  0  0  0  0  0  0  0  0
  -52.7556   20.3487   19.2589 H   0  0  0  0  0  0  0  0  0  0  0  0
  2  1  1  0
  2  3  1  0
  2  5  1  0
  3  4  2  0
  3  9  1  0
  5  6  1  0
  6  7  2  0
  6  8  1  0
  1 10  1  0
  1 11  1  0
  1 12  1  0
  2 13  1  6
  5 14  1  0
  5 15  1  0
  8 16  1  0
  8 17  1  0
M  CHG  2   1   1   9  -1
M  END
>  <filename_input>  (22) 
7C8Q_DSG_docked.sdf

>  <pdb_id>  (22) 
7C8Q_DSG

>  <pose_rank>  (22) 
21

>  <num_atoms_heavy>  (22) 
9

>  <num_torsions>  (22) 
3

>  <pose>  (22) 
[-49.339750805205156, 23.874367449001628, 18.565869202791543, 3.1240524780004373, -1.5680612579974773, 0.18447069217122494, 0.8163482531434328, 9.238266646095996, 0.38923762946895923]

>  <energy>  (22) 
-110.48494690328309

>  <inter_energy>  (22) 
-96.9315864769839

>  <intra_energy>  (22) 
0.0

>  <rmsd>  (22) 
11.9433

>  <sdf_rank>  (22) 
0

$$$$

     RDKit          3D

 17 16  0  0  0  0  0  0  0  0999 V2000
  -38.7007   37.5159   10.7182 N   0  0  0  0  0  0  0  0  0  0  0  0
  -38.7471   38.9826   10.7400 C   0  0  1  0  0  0  0  0  0  0  0  0
  -38.2351   39.5656   12.0509 C   0  0  0  0  0  0  0  0  0  0  0  0
  -39.0005   39.8088   12.9954 O   0  0  0  0  0  0  0  0  0  0  0  0
  -38.0582   39.6189    9.4980 C   0  0  0  0  0  0  0  0  0  0  0  0
  -37.9058   38.6634    8.3078 C   0  0  0  0  0  0  0  0  0  0  0  0
  -36.8502   38.0743    8.0684 O   0  0  0  0  0  0  0  0  0  0  0  0
  -38.9733   38.5583    7.5168 N   0  0  0  0  0  0  0  0  0  0  0  0
  -37.0286   39.7994   12.2003 O   0  0  0  0  0  0  0  0  0  0  0  0
  -38.6894   37.1583   11.6841 H   0  0  0  0  0  0  0  0  0  0  0  0
  -39.5306   37.1534   10.2276 H   0  0  0  0  0  0  0  0  0  0  0  0
  -37.8495   37.2066   10.2276 H   0  0  0  0  0  0  0  0  0  0  0  0
  -39.8109   39.2553   10.6775 H   0  0  0  0  0  0  0  0  0  0  0  0
  -38.6591   40.4813    9.1738 H   0  0  0  0  0  0  0  0  0  0  0  0
  -37.0419   39.9019    9.8094 H   0  0  0  0  0  0  0  0  0  0  0  0
  -38.9473   37.9357    6.6967 H   0  0  0  0  0  0  0  0  0  0  0  0
  -39.8243   39.0996    7.7257 H   0  0  0  0  0  0  0  0  0  0  0  0
  2  1  1  0
  2  3  1  0
  2  5  1  0
  3  4  2  0
  3  9  1  0
  5  6  1  0
  6  7  2  0
  6  8  1  0
  1 10  1  0
  1 11  1  0
  1 12  1  0
  2 13  1  6
  5 14  1  0
  5 15  1  0
  8 16  1  0
  8 17  1  0
M  CHG  2   1   1   9  -1
M  END
>  <filename_input>  (23) 
7C8Q_DSG_docked.sdf

>  <pdb_id>  (23) 
7C8Q_DSG

>  <pose_rank>  (23) 
22

>  <num_atoms_heavy>  (23) 
9

>  <num_torsions>  (23) 
3

>  <pose>  (23) 
[-38.70068982798231, 37.51590705550561, 10.718171930353542, 1.2209842774928832, 3.547724234540893, -2.3557035560080926, 1.6252449005584972, -11.09246699520843, 11.440212317484406]

>  <energy>  (23) 
-107.19448975278816

>  <inter_energy>  (23) 
-93.04704038280333

>  <intra_energy>  (23) 
2.935928686439995

>  <rmsd>  (23) 
11.7775

>  <sdf_rank>  (23) 
0

$$$$

     RDKit          3D

 17 16  0  0  0  0  0  0  0  0999 V2000
  -43.3583   36.4655   21.3126 N   0  0  0  0  0  0  0  0  0  0  0  0
  -42.3980   37.4926   21.7329 C   0  0  1  0  0  0  0  0  0  0  0  0
  -41.0519   37.3578   21.0327 C   0  0  0  0  0  0  0  0  0  0  0  0
  -40.6725   36.2766   20.5591 O   0  0  0  0  0  0  0  0  0  0  0  0
  -42.9807   38.9318   21.6272 C   0  0  0  0  0  0  0  0  0  0  0  0
  -44.1589   39.0609   20.6535 C   0  0  0  0  0  0  0  0  0  0  0  0
  -43.9976   39.1615   19.4358 O   0  0  0  0  0  0  0  0  0  0  0  0
  -45.3651   39.1155   21.2174 N   0  0  0  0  0  0  0  0  0  0  0  0
  -40.3093   38.3413   20.9142 O   0  0  0  0  0  0  0  0  0  0  0  0
  -43.7729   36.0221   22.1448 H   0  0  0  0  0  0  0  0  0  0  0  0
  -44.1023   36.9011   20.7491 H   0  0  0  0  0  0  0  0  0  0  0  0
  -42.8737   35.7524   20.7491 H   0  0  0  0  0  0  0  0  0  0  0  0
  -42.2075   37.3136   22.8014 H   0  0  0  0  0  0  0  0  0  0  0  0
  -43.3229   39.2401   22.6261 H   0  0  0  0  0  0  0  0  0  0  0  0
  -42.1756   39.5720   21.2373 H   0  0  0  0  0  0  0  0  0  0  0  0
  -46.2056   39.2023   20.6283 H   0  0  0  0  0  0  0  0  0  0  0  0
  -45.4570   39.0709   22.2423 H   0  0  0  0  0  0  0  0  0  0  0  0
  2  1  1  0
  2  3  1  0
  2  5  1  0
  3  4  2  0
  3  9  1  0
  5  6  1  0
  6  7  2  0
  6  8  1  0
  1 10  1  0
  1 11  1  0
  1 12  1  0
  2 13  1  1
  5 14  1  0
  5 15  1  0
  8 16  1  0
  8 17  1  0
M  CHG  2   1   1   9  -1
M  END
>  <filename_input>  (24) 
7C8Q_DSG_docked.sdf

>  <pdb_id>  (24) 
7C8Q_DSG

>  <pose_rank>  (24) 
23

>  <num_atoms_heavy>  (24) 
9

>  <num_torsions>  (24) 
3

>  <pose>  (24) 
[-43.3583036601674, 36.46550327155485, 21.312646475264497, -5.146408869497169, 1.125728456795558, -1.8124922851865144, 2.8162837681695105, 0.7450989536185922, -0.8073420356407877]

>  <energy>  (24) 
-103.13650089307629

>  <inter_energy>  (24) 
-81.57371991936944

>  <intra_energy>  (24) 
2.9664805918338546

>  <rmsd>  (24) 
12.4603

>  <sdf_rank>  (24) 
0

$$$$

     RDKit          3D

 17 16  0  0  0  0  0  0  0  0999 V2000
  -40.3492   35.6741    2.1909 N   0  0  0  0  0  0  0  0  0  0  0  0
  -39.8608   34.6256    3.0942 C   0  0  1  0  0  0  0  0  0  0  0  0
  -40.4622   33.2603    2.7866 C   0  0  0  0  0  0  0  0  0  0  0  0
  -39.8831   32.4471    2.0515 O   0  0  0  0  0  0  0  0  0  0  0  0
  -38.3071   34.5854    3.1752 C   0  0  0  0  0  0  0  0  0  0  0  0
  -37.7622   33.7881    4.3669 C   0  0  0  0  0  0  0  0  0  0  0  0
  -37.2002   32.7001    4.2284 O   0  0  0  0  0  0  0  0  0  0  0  0
  -37.9891   34.3230    5.5663 N   0  0  0  0  0  0  0  0  0  0  0  0
  -41.5488   32.9319    3.2808 O   0  0  0  0  0  0  0  0  0  0  0  0
  -40.7158   36.4612    2.7449 H   0  0  0  0  0  0  0  0  0  0  0  0
  -39.5749   36.0035    1.5969 H   0  0  0  0  0  0  0  0  0  0  0  0
  -41.0996   35.2933    1.5969 H   0  0  0  0  0  0  0  0  0  0  0  0
  -40.2162   34.8983    4.0989 H   0  0  0  0  0  0  0  0  0  0  0  0
  -37.9248   34.1288    2.2504 H   0  0  0  0  0  0  0  0  0  0  0  0
  -37.9696   35.6239    3.3077 H   0  0  0  0  0  0  0  0  0  0  0  0
  -37.6534   33.8455    6.4150 H   0  0  0  0  0  0  0  0  0  0  0  0
  -38.5001   35.2138    5.6445 H   0  0  0  0  0  0  0  0  0  0  0  0
  2  1  1  0
  2  3  1  0
  2  5  1  0
  3  4  2  0
  3  9  1  0
  5  6  1  0
  6  7  2  0
  6  8  1  0
  1 10  1  0
  1 11  1  0
  1 12  1  0
  2 13  1  1
  5 14  1  0
  5 15  1  0
  8 16  1  0
  8 17  1  0
M  CHG  2   1   1   9  -1
M  END
>  <filename_input>  (25) 
7C8Q_DSG_docked.sdf

>  <pdb_id>  (25) 
7C8Q_DSG

>  <pose_rank>  (25) 
24

>  <num_atoms_heavy>  (25) 
9

>  <num_torsions>  (25) 
3

>  <pose>  (25) 
[-40.34918109194592, 35.67406988256756, 2.1909118899222104, -0.259090902263199, 2.5824565823166856, 3.5979758998109355, -1.4101275186635565, -2.288144202713409, 2.5081167098683923]

>  <energy>  (25) 
-102.28567994960191

>  <inter_energy>  (25) 
-95.89636923547175

>  <intra_energy>  (25) 
1.0340190257816562

>  <rmsd>  (25) 
11.5864

>  <sdf_rank>  (25) 
0

$$$$

     RDKit          3D

 17 16  0  0  0  0  0  0  0  0999 V2000
  -47.0350   29.7560   13.2140 N   0  0  0  0  0  0  0  0  0  0  0  0
  -45.8510   30.5430   12.8500 C   0  0  1  0  0  0  0  0  0  0  0  0
  -44.7190   29.6810   12.3060 C   0  0  0  0  0  0  0  0  0  0  0  0
  -43.6760   30.1840   11.8630 O   0  0  0  0  0  0  0  0  0  0  0  0
  -46.1940   31.7350   11.9100 C   0  0  0  0  0  0  0  0  0  0  0  0
  -46.7260   31.3150   10.5340 C   0  0  0  0  0  0  0  0  0  0  0  0
  -46.3290   30.3010    9.9570 O   0  0  0  0  0  0  0  0  0  0  0  0
  -47.6030   32.1510    9.9790 N   0  0  0  0  0  0  0  0  0  0  0  0
  -44.8190   28.4470   12.3070 O   0  0  0  0  0  0  0  0  0  0  0  0
  -47.1114   29.7052   14.2399 H   0  0  0  0  0  0  0  0  0  0  0  0
  -47.8778   30.2056   12.8288 H   0  0  0  0  0  0  0  0  0  0  0  0
  -46.9468   28.8048   12.8288 H   0  0  0  0  0  0  0  0  0  0  0  0
  -45.4781   30.9844   13.7860 H   0  0  0  0  0  0  0  0  0  0  0  0
  -46.9590   32.3537   12.4019 H   0  0  0  0  0  0  0  0  0  0  0  0
  -45.2550   32.2803   11.7339 H   0  0  0  0  0  0  0  0  0  0  0  0
  -48.0050   31.9370    9.0551 H   0  0  0  0  0  0  0  0  0  0  0  0
  -47.8789   33.0112   10.4739 H   0  0  0  0  0  0  0  0  0  0  0  0
  2  1  1  0
  2  3  1  0
  2  5  1  0
  3  4  2  0
  3  9  1  0
  5  6  1  0
  6  7  2  0
  6  8  1  0
  1 10  1  0
  1 11  1  0
  1 12  1  0
  2 13  1  1
  5 14  1  0
  5 15  1  0
  8 16  1  0
  8 17  1  0
M  CHG  2   1   1   9  -1
M  END
>  <filename_input>  (26) 
7C8Q_DSG_docked.sdf

>  <pdb_id>  (26) 
7C8Q_DSG

>  <pose_rank>  (26) 
25

>  <num_atoms_heavy>  (26) 
9

>  <num_torsions>  (26) 
3

>  <pose>  (26) 
[-47.035, 29.756, 13.214, 1e-06, 1e-06, 1e-06, 0.0, 0.0, 0.0]

>  <energy>  (26) 
-404.8951788224078

>  <inter_energy>  (26) 
-424.73173103577915

>  <intra_energy>  (26) 
15.357970367268074

>  <rmsd>  (26) 
0.0

>  <sdf_rank>  (26) 
0

$$$$
