
     RDKit          3D

 63 67  0  0  0  0  0  0  0  0999 V2000
   17.5007    5.8153   10.6333 C   0  0  0  0  0  0  0  0  0  0  0  0
   18.3227    6.1107   11.9224 C   0  0  1  0  0  0  0  0  0  0  0  0
   17.6006    7.0327   12.7914 C   0  0  0  0  0  0  0  0  0  0  0  0
   19.7935    4.0522   12.2546 C   0  0  0  0  0  0  0  0  0  0  0  0
   21.1628    2.1839   12.6051 C   0  0  0  0  0  0  0  0  0  0  0  0
   22.0942    2.8080   11.7753 C   0  0  0  0  0  0  0  0  0  0  0  0
   21.8140    4.0211   11.2107 C   0  0  0  0  0  0  0  0  0  0  0  0
   22.8935    4.3962   10.3912 C   0  0  0  0  0  0  0  0  0  0  0  0
   15.4510   11.4819   14.2919 C   0  0  0  0  0  0  0  0  0  0  0  0
   14.7127   10.3537   13.9572 C   0  0  0  0  0  0  0  0  0  0  0  0
   15.2818    9.3281   13.2094 C   0  0  0  0  0  0  0  0  0  0  0  0
   16.6248    9.3818   12.8973 C   0  0  0  0  0  0  0  0  0  0  0  0
   17.3668   10.5009   13.2197 C   0  0  0  0  0  0  0  0  0  0  0  0
   16.7796   11.5281   13.9626 C   0  0  0  0  0  0  0  0  0  0  0  0
   17.3659    8.2857   12.0509 C   0  0  2  0  0  0  0  0  0  0  0  0
   16.5059    7.9673   10.8001 C   0  0  0  0  0  0  0  0  0  0  0  0
   23.8020    3.3621   10.5240 C   0  0  0  0  0  0  0  0  0  0  0  0
   19.0120    2.2295   13.6678 C   0  0  0  0  0  0  0  0  0  0  0  0
   16.4022    6.7616    8.9322 C   0  0  0  0  0  0  0  0  0  0  0  0
   13.8371   12.3070   15.9227 C   0  0  0  0  0  0  0  0  0  0  0  0
   13.1494   13.6402   16.2627 C   0  0  0  0  0  0  0  0  0  0  0  0
   12.4900   14.3521   15.2796 C   0  0  0  0  0  0  0  0  0  0  0  0
   11.8550   15.5501   15.5697 C   0  0  0  0  0  0  0  0  0  0  0  0
   11.9011   16.0503   16.8585 C   0  0  0  0  0  0  0  0  0  0  0  0
   12.5639   15.3514   17.8367 C   0  0  0  0  0  0  0  0  0  0  0  0
   13.1716   14.1453   17.5374 C   0  0  0  0  0  0  0  0  0  0  0  0
   17.1709    7.0197    9.9253 N   0  0  2  0  0  0  0  0  0  0  0  0
   18.5769    4.7489   12.5416 N   0  0  0  0  0  0  0  0  0  0  0  0
   20.0325    2.8601   12.8333 N   0  0  0  0  0  0  0  0  0  0  0  0
   20.6441    4.6533   11.4415 N   0  0  0  0  0  0  0  0  0  0  0  0
   23.3429    2.4289   11.3466 N   0  0  0  0  0  0  0  0  0  0  0  0
   21.3550    1.1297   13.1742 O   0  0  0  0  0  0  0  0  0  0  0  0
   14.9270   12.5631   15.0528 O   0  0  0  0  0  0  0  0  0  0  0  0
   18.0940    5.1652    9.9735 H   0  0  0  0  0  0  0  0  0  0  0  0
   16.5620    5.3247   10.9304 H   0  0  0  0  0  0  0  0  0  0  0  0
   19.2783    6.6188   11.7258 H   0  0  0  0  0  0  0  0  0  0  0  0
   16.6378    6.5891   13.0849 H   0  0  0  0  0  0  0  0  0  0  0  0
   18.1891    7.2352   13.6984 H   0  0  0  0  0  0  0  0  0  0  0  0
   22.9928    5.3067    9.7820 H   0  0  0  0  0  0  0  0  0  0  0  0
   13.6666   10.2706   14.2871 H   0  0  0  0  0  0  0  0  0  0  0  0
   14.6666    8.4817   12.8699 H   0  0  0  0  0  0  0  0  0  0  0  0
   18.4141   10.5832   12.8933 H   0  0  0  0  0  0  0  0  0  0  0  0
   17.3911   12.3831   14.2867 H   0  0  0  0  0  0  0  0  0  0  0  0
   18.3525    8.6923   11.7839 H   0  0  0  0  0  0  0  0  0  0  0  0
   15.5457    7.5406   11.1255 H   0  0  0  0  0  0  0  0  0  0  0  0
   16.3495    8.9019   10.2415 H   0  0  0  0  0  0  0  0  0  0  0  0
   24.7761    3.3194   10.0149 H   0  0  0  0  0  0  0  0  0  0  0  0
   19.2598    2.3826   14.7285 H   0  0  0  0  0  0  0  0  0  0  0  0
   18.0320    2.6797   13.4515 H   0  0  0  0  0  0  0  0  0  0  0  0
   18.9762    1.1516   13.4515 H   0  0  0  0  0  0  0  0  0  0  0  0
   15.4209    6.4320    9.3041 H   0  0  0  0  0  0  0  0  0  0  0  0
   16.2773    7.6670    8.3202 H   0  0  0  0  0  0  0  0  0  0  0  0
   16.8491    5.9642    8.3202 H   0  0  0  0  0  0  0  0  0  0  0  0
   14.2041   11.8345   16.8458 H   0  0  0  0  0  0  0  0  0  0  0  0
   13.1201   11.6308   15.4341 H   0  0  0  0  0  0  0  0  0  0  0  0
   12.4683   13.9627   14.2511 H   0  0  0  0  0  0  0  0  0  0  0  0
   11.3187   16.0983   14.7811 H   0  0  0  0  0  0  0  0  0  0  0  0
   11.4087   17.0042   17.0986 H   0  0  0  0  0  0  0  0  0  0  0  0
   12.6118   15.7512   18.8603 H   0  0  0  0  0  0  0  0  0  0  0  0
   13.6805   13.5828   18.3341 H   0  0  0  0  0  0  0  0  0  0  0  0
   18.0511    7.4313    9.5837 H   0  0  0  0  0  0  0  0  0  0  0  0
   17.8755    4.3270   13.1668 H   0  0  0  0  0  0  0  0  0  0  0  0
   23.8378    1.5672   11.6177 H   0  0  0  0  0  0  0  0  0  0  0  0
  1  2  1  0
  1 27  1  0
  2  3  1  0
  2 28  1  0
  3 15  1  0
  4 28  1  0
  4 29  1  0
  4 30  2  0
  5  6  1  0
  5 29  1  0
  5 32  2  0
  6  7  2  0
  6 31  1  0
  7  8  1  0
  7 30  1  0
  8 17  2  0
  9 10  2  0
  9 14  1  0
  9 33  1  0
 10 11  1  0
 11 12  2  0
 12 13  1  0
 15 12  1  0
 13 14  2  0
 15 16  1  0
 16 27  1  0
 17 31  1  0
 18 29  1  0
 27 19  1  0
 20 21  1  0
 20 33  1  0
 21 22  2  0
 21 26  1  0
 22 23  1  0
 23 24  2  0
 24 25  1  0
 25 26  2  0
  1 34  1  0
  1 35  1  0
  2 36  1  6
  3 37  1  0
  3 38  1  0
  8 39  1  0
 10 40  1  0
 11 41  1  0
 13 42  1  0
 14 43  1  0
 15 44  1  6
 16 45  1  0
 16 46  1  0
 17 47  1  0
 18 48  1  0
 18 49  1  0
 18 50  1  0
 19 51  1  0
 19 52  1  0
 19 53  1  0
 20 54  1  0
 20 55  1  0
 22 56  1  0
 23 57  1  0
 24 58  1  0
 25 59  1  0
 26 60  1  0
 27 61  1  6
 28 62  1  0
 31 63  1  0
M  CHG  1  27   1
M  END
>  <filename_input>  (1) 
7CD9_FVR_docked.sdf

>  <pdb_id>  (1) 
7CD9_FVR

>  <pose_rank>  (1) 
0

>  <num_atoms_heavy>  (1) 
33

>  <num_torsions>  (1) 
5

>  <pose>  (1) 
[17.500658142996837, 5.815275279845392, 10.633263955081667, 2.7013033378221714, -4.764826379669322, 2.9569277662061046, 0.19183744599035327, -0.5659176129893378, 0.6137710103511779, 0.12882100403542918, -0.21082597656450303]

>  <energy>  (1) 
-999.1680527716159

>  <inter_energy>  (1) 
-992.2099667618348

>  <intra_energy>  (1) 
1.9140121140681843

>  <rmsd>  (1) 
0.483846

>  <sdf_rank>  (1) 
0

$$$$

     RDKit          3D

 63 67  0  0  0  0  0  0  0  0999 V2000
   17.5756    5.5469   10.5351 C   0  0  0  0  0  0  0  0  0  0  0  0
   18.3693    5.8659   11.8363 C   0  0  1  0  0  0  0  0  0  0  0  0
   17.5924    6.7367   12.7108 C   0  0  0  0  0  0  0  0  0  0  0  0
   19.9660    3.9100   12.2054 C   0  0  0  0  0  0  0  0  0  0  0  0
   21.4468    2.1361   12.5912 C   0  0  0  0  0  0  0  0  0  0  0  0
   22.3738    2.8464   11.8285 C   0  0  0  0  0  0  0  0  0  0  0  0
   22.0369    4.0504   11.2756 C   0  0  0  0  0  0  0  0  0  0  0  0
   23.1290    4.5226   10.5260 C   0  0  0  0  0  0  0  0  0  0  0  0
   14.8839   10.8311   14.2162 C   0  0  0  0  0  0  0  0  0  0  0  0
   15.9089   10.1565   14.8676 C   0  0  0  0  0  0  0  0  0  0  0  0
   16.6782    9.2126   14.1951 C   0  0  0  0  0  0  0  0  0  0  0  0
   16.4950    9.0304   12.8397 C   0  0  0  0  0  0  0  0  0  0  0  0
   15.4753    9.6909   12.1833 C   0  0  0  0  0  0  0  0  0  0  0  0
   14.7040   10.6291   12.8735 C   0  0  0  0  0  0  0  0  0  0  0  0
   17.2998    7.9864   11.9855 C   0  0  2  0  0  0  0  0  0  0  0  0
   16.4690    7.6419   10.7219 C   0  0  0  0  0  0  0  0  0  0  0  0
   24.1019    3.5531   10.6868 C   0  0  0  0  0  0  0  0  0  0  0  0
   19.2440    2.0004   13.5328 C   0  0  0  0  0  0  0  0  0  0  0  0
   16.4452    6.4594    8.8365 C   0  0  0  0  0  0  0  0  0  0  0  0
   14.2067   13.1610   14.4569 C   0  0  0  0  0  0  0  0  0  0  0  0
   15.6539   13.6052   14.7294 C   0  0  0  0  0  0  0  0  0  0  0  0
   16.0626   13.8886   16.0180 C   0  0  0  0  0  0  0  0  0  0  0  0
   17.3660   14.2796   16.2842 C   0  0  0  0  0  0  0  0  0  0  0  0
   18.2645   14.4085   15.2405 C   0  0  0  0  0  0  0  0  0  0  0  0
   17.8603   14.1378   13.9568 C   0  0  0  0  0  0  0  0  0  0  0  0
   16.5633   13.7248   13.7099 C   0  0  0  0  0  0  0  0  0  0  0  0
   17.1903    6.7426    9.8407 N   0  0  2  0  0  0  0  0  0  0  0  0
   18.6881    4.5103   12.4390 N   0  0  0  0  0  0  0  0  0  0  0  0
   20.2596    2.7236   12.7705 N   0  0  0  0  0  0  0  0  0  0  0  0
   20.8133    4.5911   11.4543 N   0  0  0  0  0  0  0  0  0  0  0  0
   23.6681    2.5686   11.4620 N   0  0  0  0  0  0  0  0  0  0  0  0
   21.6842    1.0840   13.1471 O   0  0  0  0  0  0  0  0  0  0  0  0
   14.0629   11.8056   14.8476 O   0  0  0  0  0  0  0  0  0  0  0  0
   18.2079    4.9379    9.8723 H   0  0  0  0  0  0  0  0  0  0  0  0
   16.6610    5.0041   10.8161 H   0  0  0  0  0  0  0  0  0  0  0  0
   19.2990    6.4255   11.6563 H   0  0  0  0  0  0  0  0  0  0  0  0
   16.6512    6.2397   12.9885 H   0  0  0  0  0  0  0  0  0  0  0  0
   18.1612    6.9564   13.6263 H   0  0  0  0  0  0  0  0  0  0  0  0
   23.1945    5.4532    9.9432 H   0  0  0  0  0  0  0  0  0  0  0  0
   16.1144   10.3711   15.9267 H   0  0  0  0  0  0  0  0  0  0  0  0
   17.4259    8.6167   14.7391 H   0  0  0  0  0  0  0  0  0  0  0  0
   15.2715    9.4795   11.1232 H   0  0  0  0  0  0  0  0  0  0  0  0
   13.9438   11.2121   12.3328 H   0  0  0  0  0  0  0  0  0  0  0  0
   18.2664    8.4473   11.7339 H   0  0  0  0  0  0  0  0  0  0  0  0
   15.5293    7.1614   11.0318 H   0  0  0  0  0  0  0  0  0  0  0  0
   16.2694    8.5751   10.1748 H   0  0  0  0  0  0  0  0  0  0  0  0
   25.1027    3.5933   10.2321 H   0  0  0  0  0  0  0  0  0  0  0  0
   19.4299    2.1328   14.6089 H   0  0  0  0  0  0  0  0  0  0  0  0
   18.2479    2.3937   13.2817 H   0  0  0  0  0  0  0  0  0  0  0  0
   19.2899    0.9305   13.2817 H   0  0  0  0  0  0  0  0  0  0  0  0
   15.4729    6.0897    9.1941 H   0  0  0  0  0  0  0  0  0  0  0  0
   16.2926    7.3622    8.2270 H   0  0  0  0  0  0  0  0  0  0  0  0
   16.9309    5.6832    8.2270 H   0  0  0  0  0  0  0  0  0  0  0  0
   13.5125   13.7881   15.0355 H   0  0  0  0  0  0  0  0  0  0  0  0
   13.9788   13.2671   13.3860 H   0  0  0  0  0  0  0  0  0  0  0  0
   15.3431   13.8028   16.8457 H   0  0  0  0  0  0  0  0  0  0  0  0
   17.6829   14.4856   17.3172 H   0  0  0  0  0  0  0  0  0  0  0  0
   19.2988   14.7267   15.4383 H   0  0  0  0  0  0  0  0  0  0  0  0
   18.5690   14.2494   13.1229 H   0  0  0  0  0  0  0  0  0  0  0  0
   16.2568   13.4887   12.6802 H   0  0  0  0  0  0  0  0  0  0  0  0
   18.0511    7.2041    9.5136 H   0  0  0  0  0  0  0  0  0  0  0  0
   17.9865    4.0234   13.0148 H   0  0  0  0  0  0  0  0  0  0  0  0
   24.2091    1.7379   11.7416 H   0  0  0  0  0  0  0  0  0  0  0  0
  1  2  1  0
  1 27  1  0
  2  3  1  0
  2 28  1  0
  3 15  1  0
  4 28  1  0
  4 29  1  0
  4 30  2  0
  5  6  1  0
  5 29  1  0
  5 32  2  0
  6  7  2  0
  6 31  1  0
  7  8  1  0
  7 30  1  0
  8 17  2  0
  9 10  2  0
  9 14  1  0
  9 33  1  0
 10 11  1  0
 11 12  2  0
 12 13  1  0
 15 12  1  0
 13 14  2  0
 15 16  1  0
 16 27  1  0
 17 31  1  0
 18 29  1  0
 27 19  1  0
 20 21  1  0
 20 33  1  0
 21 22  2  0
 21 26  1  0
 22 23  1  0
 23 24  2  0
 24 25  1  0
 25 26  2  0
  1 34  1  0
  1 35  1  0
  2 36  1  6
  3 37  1  0
  3 38  1  0
  8 39  1  0
 10 40  1  0
 11 41  1  0
 13 42  1  0
 14 43  1  0
 15 44  1  6
 16 45  1  0
 16 46  1  0
 17 47  1  0
 18 48  1  0
 18 49  1  0
 18 50  1  0
 19 51  1  0
 19 52  1  0
 19 53  1  0
 20 54  1  0
 20 55  1  0
 22 56  1  0
 23 57  1  0
 24 58  1  0
 25 59  1  0
 26 60  1  0
 27 61  1  6
 28 62  1  0
 31 63  1  0
M  CHG  1  27   1
M  END
>  <filename_input>  (2) 
7CD9_FVR_docked.sdf

>  <pdb_id>  (2) 
7CD9_FVR

>  <pose_rank>  (2) 
1

>  <num_atoms_heavy>  (2) 
33

>  <num_torsions>  (2) 
5

>  <pose>  (2) 
[17.575592591950517, 5.546858412190775, 10.535105332984797, 1.746282384649169, -4.925012631169535, -3.4087489461624236, 0.24263509559835372, 1.3523497808795988, 2.1135646109365998, 1.8992688298048201, 3.5777642180863087]

>  <energy>  (2) 
-850.1934463219608

>  <inter_energy>  (2) 
-867.5807606138272

>  <intra_energy>  (2) 
11.061214634901487

>  <rmsd>  (2) 
2.44331

>  <sdf_rank>  (2) 
0

$$$$

     RDKit          3D

 63 67  0  0  0  0  0  0  0  0999 V2000
   18.7111    6.1935   10.6924 C   0  0  0  0  0  0  0  0  0  0  0  0
   19.9129    6.7816   11.4890 C   0  0  1  0  0  0  0  0  0  0  0  0
   19.5069    7.1341   12.8446 C   0  0  0  0  0  0  0  0  0  0  0  0
   20.7569    4.4374   12.0400 C   0  0  0  0  0  0  0  0  0  0  0  0
   21.5154    2.2686   12.4975 C   0  0  0  0  0  0  0  0  0  0  0  0
   20.2858    2.0534   13.1198 C   0  0  0  0  0  0  0  0  0  0  0  0
   19.3591    3.0563   13.1854 C   0  0  0  0  0  0  0  0  0  0  0  0
   18.2411    2.5899   13.8997 C   0  0  0  0  0  0  0  0  0  0  0  0
   16.8269    9.4020   16.6026 C   0  0  0  0  0  0  0  0  0  0  0  0
   18.1775    9.0931   16.5007 C   0  0  0  0  0  0  0  0  0  0  0  0
   18.7159    8.6484   15.2977 C   0  0  0  0  0  0  0  0  0  0  0  0
   17.9237    8.6251   14.1682 C   0  0  0  0  0  0  0  0  0  0  0  0
   16.5786    8.9242   14.2590 C   0  0  0  0  0  0  0  0  0  0  0  0
   16.0490    9.3602   15.4761 C   0  0  0  0  0  0  0  0  0  0  0  0
   18.4252    8.1325   12.7635 C   0  0  2  0  0  0  0  0  0  0  0  0
   17.2262    7.5024   12.0079 C   0  0  0  0  0  0  0  0  0  0  0  0
   18.5592    1.2833   14.2220 C   0  0  0  0  0  0  0  0  0  0  0  0
   22.9814    3.7583   11.3189 C   0  0  0  0  0  0  0  0  0  0  0  0
   16.5852    6.5497   10.1013 C   0  0  0  0  0  0  0  0  0  0  0  0
   16.3043   11.2405   18.1165 C   0  0  0  0  0  0  0  0  0  0  0  0
   15.6165   12.0473   17.0020 C   0  0  0  0  0  0  0  0  0  0  0  0
   14.2528   12.2633   17.0412 C   0  0  0  0  0  0  0  0  0  0  0  0
   13.6172   12.9974   16.0514 C   0  0  0  0  0  0  0  0  0  0  0  0
   14.3572   13.5027   14.9975 C   0  0  0  0  0  0  0  0  0  0  0  0
   15.7113   13.2821   14.9489 C   0  0  0  0  0  0  0  0  0  0  0  0
   16.3350   12.5687   15.9567 C   0  0  0  0  0  0  0  0  0  0  0  0
   17.5976    7.0990   10.6645 N   0  0  2  0  0  0  0  0  0  0  0  0
   20.9842    5.7089   11.4240 N   0  0  0  0  0  0  0  0  0  0  0  0
   21.6944    3.4751   11.9504 N   0  0  0  0  0  0  0  0  0  0  0  0
   19.5957    4.2718   12.6486 N   0  0  0  0  0  0  0  0  0  0  0  0
   19.7569    0.9569   13.7559 N   0  0  0  0  0  0  0  0  0  0  0  0
   22.3700    1.4177   12.3634 O   0  0  0  0  0  0  0  0  0  0  0  0
   16.2170    9.8606   17.8027 O   0  0  0  0  0  0  0  0  0  0  0  0
   19.0324    5.9919    9.6599 H   0  0  0  0  0  0  0  0  0  0  0  0
   18.3881    5.2687   11.1929 H   0  0  0  0  0  0  0  0  0  0  0  0
   20.2975    7.7231   11.0699 H   0  0  0  0  0  0  0  0  0  0  0  0
   19.1456    6.2371   13.3688 H   0  0  0  0  0  0  0  0  0  0  0  0
   20.3620    7.5486   13.3986 H   0  0  0  0  0  0  0  0  0  0  0  0
   17.3213    3.1403   14.1465 H   0  0  0  0  0  0  0  0  0  0  0  0
   18.8282    9.2013   17.3809 H   0  0  0  0  0  0  0  0  0  0  0  0
   19.7640    8.3182   15.2472 H   0  0  0  0  0  0  0  0  0  0  0  0
   15.9279    8.8198   13.3782 H   0  0  0  0  0  0  0  0  0  0  0  0
   14.9959    9.6733   15.5301 H   0  0  0  0  0  0  0  0  0  0  0  0
   18.8333    9.0083   12.2379 H   0  0  0  0  0  0  0  0  0  0  0  0
   16.8780    6.6190   12.5631 H   0  0  0  0  0  0  0  0  0  0  0  0
   16.4294    8.2572   11.9340 H   0  0  0  0  0  0  0  0  0  0  0  0
   17.9054    0.6048   14.7896 H   0  0  0  0  0  0  0  0  0  0  0  0
   23.7420    3.9256   12.0957 H   0  0  0  0  0  0  0  0  0  0  0  0
   23.2785    2.9040   10.6928 H   0  0  0  0  0  0  0  0  0  0  0  0
   22.8924    4.6583   10.6928 H   0  0  0  0  0  0  0  0  0  0  0  0
   15.8953    6.1754   10.8719 H   0  0  0  0  0  0  0  0  0  0  0  0
   16.0677    7.2908    9.4744 H   0  0  0  0  0  0  0  0  0  0  0  0
   16.9242    5.7118    9.4744 H   0  0  0  0  0  0  0  0  0  0  0  0
   17.3611   11.5370   18.1890 H   0  0  0  0  0  0  0  0  0  0  0  0
   15.8096   11.4367   19.0792 H   0  0  0  0  0  0  0  0  0  0  0  0
   13.6620   11.8465   17.8702 H   0  0  0  0  0  0  0  0  0  0  0  0
   12.5332   13.1766   16.1038 H   0  0  0  0  0  0  0  0  0  0  0  0
   13.8626   14.0790   14.2017 H   0  0  0  0  0  0  0  0  0  0  0  0
   16.3014   13.6733   14.1071 H   0  0  0  0  0  0  0  0  0  0  0  0
   17.4239   12.4175   15.9192 H   0  0  0  0  0  0  0  0  0  0  0  0
   17.8845    7.9292   10.1267 H   0  0  0  0  0  0  0  0  0  0  0  0
   21.8728    5.8955   10.9378 H   0  0  0  0  0  0  0  0  0  0  0  0
   20.2127    0.0385   13.8541 H   0  0  0  0  0  0  0  0  0  0  0  0
  1  2  1  0
  1 27  1  0
  2  3  1  0
  2 28  1  0
  3 15  1  0
  4 28  1  0
  4 29  1  0
  4 30  2  0
  5  6  1  0
  5 29  1  0
  5 32  2  0
  6  7  2  0
  6 31  1  0
  7  8  1  0
  7 30  1  0
  8 17  2  0
  9 10  2  0
  9 14  1  0
  9 33  1  0
 10 11  1  0
 11 12  2  0
 12 13  1  0
 15 12  1  0
 13 14  2  0
 15 16  1  0
 16 27  1  0
 17 31  1  0
 18 29  1  0
 27 19  1  0
 20 21  1  0
 20 33  1  0
 21 22  2  0
 21 26  1  0
 22 23  1  0
 23 24  2  0
 24 25  1  0
 25 26  2  0
  1 34  1  0
  1 35  1  0
  2 36  1  6
  3 37  1  0
  3 38  1  0
  8 39  1  0
 10 40  1  0
 11 41  1  0
 13 42  1  0
 14 43  1  0
 15 44  1  6
 16 45  1  0
 16 46  1  0
 17 47  1  0
 18 48  1  0
 18 49  1  0
 18 50  1  0
 19 51  1  0
 19 52  1  0
 19 53  1  0
 20 54  1  0
 20 55  1  0
 22 56  1  0
 23 57  1  0
 24 58  1  0
 25 59  1  0
 26 60  1  0
 27 61  1  6
 28 62  1  0
 31 63  1  0
M  CHG  1  27   1
M  END
>  <filename_input>  (3) 
7CD9_FVR_docked.sdf

>  <pdb_id>  (3) 
7CD9_FVR

>  <pose_rank>  (3) 
2

>  <num_atoms_heavy>  (3) 
33

>  <num_torsions>  (3) 
5

>  <pose>  (3) 
[18.71107737065978, 6.193466386177665, 10.692441530076621, -1.2634058613160994, -4.118798151077055, -3.393944265571974, 16.275335626693185, 1.2109428123151365, 1.6354124540414898, -21.125091070014175, 0.11877352977071719]

>  <energy>  (3) 
-648.7249334681819

>  <inter_energy>  (3) 
-721.0665080161549

>  <intra_energy>  (3) 
71.97744784025787

>  <rmsd>  (3) 
3.28196

>  <sdf_rank>  (3) 
0

$$$$

     RDKit          3D

 63 67  0  0  0  0  0  0  0  0999 V2000
   15.9353   10.3751   12.5289 C   0  0  0  0  0  0  0  0  0  0  0  0
   16.7558   10.1281   13.8292 C   0  0  1  0  0  0  0  0  0  0  0  0
   17.7896    9.1252   13.6010 C   0  0  0  0  0  0  0  0  0  0  0  0
   16.4539   12.4193   14.9110 C   0  0  0  0  0  0  0  0  0  0  0  0
   16.1991   14.5040   15.9493 C   0  0  0  0  0  0  0  0  0  0  0  0
   14.9060   14.0959   16.2764 C   0  0  0  0  0  0  0  0  0  0  0  0
   14.4475   12.8696   15.8831 C   0  0  0  0  0  0  0  0  0  0  0  0
   13.1112   12.7340   16.2996 C   0  0  0  0  0  0  0  0  0  0  0  0
   19.9789    4.7006   12.2914 C   0  0  0  0  0  0  0  0  0  0  0  0
   19.8348    5.1335   13.6036 C   0  0  0  0  0  0  0  0  0  0  0  0
   18.9631    6.1709   13.9180 C   0  0  0  0  0  0  0  0  0  0  0  0
   18.1504    6.6950   12.9336 C   0  0  0  0  0  0  0  0  0  0  0  0
   18.2893    6.2766   11.6250 C   0  0  0  0  0  0  0  0  0  0  0  0
   19.1759    5.2404   11.3219 C   0  0  0  0  0  0  0  0  0  0  0  0
   17.1393    7.8724   13.1755 C   0  0  2  0  0  0  0  0  0  0  0  0
   16.3707    8.1380   11.8548 C   0  0  0  0  0  0  0  0  0  0  0  0
   12.8337   13.9186   16.9570 C   0  0  0  0  0  0  0  0  0  0  0  0
   18.2941   14.0139   14.8873 C   0  0  0  0  0  0  0  0  0  0  0  0
   14.7816    9.3695   10.9000 C   0  0  0  0  0  0  0  0  0  0  0  0
   21.5686    2.9623   12.9206 C   0  0  0  0  0  0  0  0  0  0  0  0
   20.7557    1.7319   13.3580 C   0  0  0  0  0  0  0  0  0  0  0  0
   19.4289    1.8678   13.7170 C   0  0  0  0  0  0  0  0  0  0  0  0
   18.6773    0.7684   14.1032 C   0  0  0  0  0  0  0  0  0  0  0  0
   19.2716   -0.4798   14.1502 C   0  0  0  0  0  0  0  0  0  0  0  0
   20.5929   -0.6182   13.8040 C   0  0  0  0  0  0  0  0  0  0  0  0
   21.3230    0.4840   13.3971 C   0  0  0  0  0  0  0  0  0  0  0  0
   15.3564    9.1613   12.0270 N   0  0  2  0  0  0  0  0  0  0  0  0
   17.2938   11.4937   14.2142 N   0  0  0  0  0  0  0  0  0  0  0  0
   16.9447   13.6168   15.2830 N   0  0  0  0  0  0  0  0  0  0  0  0
   15.2242   12.0179   15.1810 N   0  0  0  0  0  0  0  0  0  0  0  0
   13.8896   14.7206   16.9572 N   0  0  0  0  0  0  0  0  0  0  0  0
   16.6903   15.5574   16.2972 O   0  0  0  0  0  0  0  0  0  0  0  0
   20.8525    3.6467   11.9061 O   0  0  0  0  0  0  0  0  0  0  0  0
   15.1290   11.0909   12.7469 H   0  0  0  0  0  0  0  0  0  0  0  0
   16.6183   10.7712   11.7630 H   0  0  0  0  0  0  0  0  0  0  0  0
   16.1564    9.7140   14.6533 H   0  0  0  0  0  0  0  0  0  0  0  0
   18.4764    9.4724   12.8150 H   0  0  0  0  0  0  0  0  0  0  0  0
   18.3630    8.9577   14.5246 H   0  0  0  0  0  0  0  0  0  0  0  0
   12.4385   11.8787   16.1388 H   0  0  0  0  0  0  0  0  0  0  0  0
   20.4164    4.6507   14.4026 H   0  0  0  0  0  0  0  0  0  0  0  0
   18.9219    6.5699   14.9423 H   0  0  0  0  0  0  0  0  0  0  0  0
   17.7052    6.7565   10.8258 H   0  0  0  0  0  0  0  0  0  0  0  0
   19.2298    4.8538   10.2935 H   0  0  0  0  0  0  0  0  0  0  0  0
   16.4690    7.5637   13.9912 H   0  0  0  0  0  0  0  0  0  0  0  0
   17.0846    8.4679   11.0858 H   0  0  0  0  0  0  0  0  0  0  0  0
   15.8723    7.2053   11.5518 H   0  0  0  0  0  0  0  0  0  0  0  0
   11.8655   14.1630   17.4184 H   0  0  0  0  0  0  0  0  0  0  0  0
   18.9022   14.1928   15.7863 H   0  0  0  0  0  0  0  0  0  0  0  0
   18.7516   13.2122   14.2888 H   0  0  0  0  0  0  0  0  0  0  0  0
   18.2445   14.9355   14.2888 H   0  0  0  0  0  0  0  0  0  0  0  0
   13.7601    9.7395   11.0723 H   0  0  0  0  0  0  0  0  0  0  0  0
   15.3516   10.1183   10.3305 H   0  0  0  0  0  0  0  0  0  0  0  0
   14.7398    8.4294   10.3305 H   0  0  0  0  0  0  0  0  0  0  0  0
   21.7197    3.6305   13.7813 H   0  0  0  0  0  0  0  0  0  0  0  0
   22.5492    2.6448   12.5363 H   0  0  0  0  0  0  0  0  0  0  0  0
   18.9613    2.8632   13.6962 H   0  0  0  0  0  0  0  0  0  0  0  0
   17.6169    0.8879   14.3700 H   0  0  0  0  0  0  0  0  0  0  0  0
   18.6879   -1.3579   14.4637 H   0  0  0  0  0  0  0  0  0  0  0  0
   21.0718   -1.6074   13.8503 H   0  0  0  0  0  0  0  0  0  0  0  0
   22.3746    0.3575   13.1003 H   0  0  0  0  0  0  0  0  0  0  0  0
   14.6614    8.8394   12.7156 H   0  0  0  0  0  0  0  0  0  0  0  0
   18.2612   11.7537   13.9747 H   0  0  0  0  0  0  0  0  0  0  0  0
   13.9392   15.6525   17.3932 H   0  0  0  0  0  0  0  0  0  0  0  0
  1  2  1  0
  1 27  1  0
  2  3  1  0
  2 28  1  0
  3 15  1  0
  4 28  1  0
  4 29  1  0
  4 30  2  0
  5  6  1  0
  5 29  1  0
  5 32  2  0
  6  7  2  0
  6 31  1  0
  7  8  1  0
  7 30  1  0
  8 17  2  0
  9 10  2  0
  9 14  1  0
  9 33  1  0
 10 11  1  0
 11 12  2  0
 12 13  1  0
 15 12  1  0
 13 14  2  0
 15 16  1  0
 16 27  1  0
 17 31  1  0
 18 29  1  0
 27 19  1  0
 20 21  1  0
 20 33  1  0
 21 22  2  0
 21 26  1  0
 22 23  1  0
 23 24  2  0
 24 25  1  0
 25 26  2  0
  1 34  1  0
  1 35  1  0
  2 36  1  1
  3 37  1  0
  3 38  1  0
  8 39  1  0
 10 40  1  0
 11 41  1  0
 13 42  1  0
 14 43  1  0
 15 44  1  1
 16 45  1  0
 16 46  1  0
 17 47  1  0
 18 48  1  0
 18 49  1  0
 18 50  1  0
 19 51  1  0
 19 52  1  0
 19 53  1  0
 20 54  1  0
 20 55  1  0
 22 56  1  0
 23 57  1  0
 24 58  1  0
 25 59  1  0
 26 60  1  0
 27 61  1  1
 28 62  1  0
 31 63  1  0
M  CHG  1  27   1
M  END
>  <filename_input>  (4) 
7CD9_FVR_docked.sdf

>  <pdb_id>  (4) 
7CD9_FVR

>  <pose_rank>  (4) 
3

>  <num_atoms_heavy>  (4) 
33

>  <num_torsions>  (4) 
5

>  <pose>  (4) 
[15.935336367670839, 10.375077442630728, 12.528915773015397, -1.7078985883067948, -0.04429896788631631, -2.78452816550705, 18.807290487529084, -17.050313944024484, -6.0471346210328, -1.724159318422801, -2.2725239854580277]

>  <energy>  (4) 
-668.4634092238281

>  <inter_energy>  (4) 
-692.6003900671587

>  <intra_energy>  (4) 
27.506317205400148

>  <rmsd>  (4) 
11.3966

>  <sdf_rank>  (4) 
0

$$$$

     RDKit          3D

 63 67  0  0  0  0  0  0  0  0999 V2000
   17.8893   10.1320   13.6941 C   0  0  0  0  0  0  0  0  0  0  0  0
   16.4036    9.6764   13.5952 C   0  0  1  0  0  0  0  0  0  0  0  0
   15.5053   10.7943   13.8597 C   0  0  0  0  0  0  0  0  0  0  0  0
   16.8810    7.8353   11.8941 C   0  0  0  0  0  0  0  0  0  0  0  0
   17.2717    6.1230   10.3437 C   0  0  0  0  0  0  0  0  0  0  0  0
   17.9567    5.4621   11.3633 C   0  0  0  0  0  0  0  0  0  0  0  0
   18.0837    6.0373   12.5969 C   0  0  0  0  0  0  0  0  0  0  0  0
   18.8517    5.1875   13.4128 C   0  0  0  0  0  0  0  0  0  0  0  0
   13.3812   14.7387   16.3782 C   0  0  0  0  0  0  0  0  0  0  0  0
   12.7969   13.7288   15.6241 C   0  0  0  0  0  0  0  0  0  0  0  0
   13.5439   12.6336   15.2028 C   0  0  0  0  0  0  0  0  0  0  0  0
   14.8465   12.4946   15.6364 C   0  0  0  0  0  0  0  0  0  0  0  0
   15.4393   13.4950   16.3812 C   0  0  0  0  0  0  0  0  0  0  0  0
   14.6798   14.5943   16.7891 C   0  0  0  0  0  0  0  0  0  0  0  0
   15.7817   11.3051   15.2148 C   0  0  2  0  0  0  0  0  0  0  0  0
   17.2523   11.7948   15.2683 C   0  0  0  0  0  0  0  0  0  0  0  0
   19.1411    4.1035   12.6044 C   0  0  0  0  0  0  0  0  0  0  0  0
   16.0334    8.0470    9.6212 C   0  0  0  0  0  0  0  0  0  0  0  0
   19.3751   11.1873   14.9881 C   0  0  0  0  0  0  0  0  0  0  0  0
   11.3584   15.7020   17.3402 C   0  0  0  0  0  0  0  0  0  0  0  0
   10.9152   16.9945   18.0465 C   0  0  0  0  0  0  0  0  0  0  0  0
   10.5230   16.9631   19.3706 C   0  0  0  0  0  0  0  0  0  0  0  0
   10.1309   18.1199   20.0269 C   0  0  0  0  0  0  0  0  0  0  0  0
   10.1117   19.3197   19.3388 C   0  0  0  0  0  0  0  0  0  0  0  0
   10.4909   19.3541   18.0198 C   0  0  0  0  0  0  0  0  0  0  0  0
   10.9032   18.1960   17.3855 C   0  0  0  0  0  0  0  0  0  0  0  0
   18.1811   10.7205   14.9704 N   0  0  2  0  0  0  0  0  0  0  0  0
   16.2686    9.0916   12.2016 N   0  0  0  0  0  0  0  0  0  0  0  0
   16.7299    7.3014   10.6672 N   0  0  0  0  0  0  0  0  0  0  0  0
   17.5492    7.2461   12.8701 N   0  0  0  0  0  0  0  0  0  0  0  0
   18.6075    4.2530   11.3998 N   0  0  0  0  0  0  0  0  0  0  0  0
   17.0819    5.6602    9.2383 O   0  0  0  0  0  0  0  0  0  0  0  0
   12.6722   15.8824   16.8382 O   0  0  0  0  0  0  0  0  0  0  0  0
   18.5407    9.2578   13.5476 H   0  0  0  0  0  0  0  0  0  0  0  0
   18.0672   10.8911   12.9182 H   0  0  0  0  0  0  0  0  0  0  0  0
   16.1252    8.9237   14.3475 H   0  0  0  0  0  0  0  0  0  0  0  0
   15.6765   11.5909   13.1207 H   0  0  0  0  0  0  0  0  0  0  0  0
   14.4590   10.4626   13.7879 H   0  0  0  0  0  0  0  0  0  0  0  0
   19.1539    5.3487   14.4581 H   0  0  0  0  0  0  0  0  0  0  0  0
   11.7319   13.7960   15.3571 H   0  0  0  0  0  0  0  0  0  0  0  0
   13.1002   11.8850   14.5300 H   0  0  0  0  0  0  0  0  0  0  0  0
   16.5033   13.4267   16.6517 H   0  0  0  0  0  0  0  0  0  0  0  0
   15.1295   15.3521   17.4474 H   0  0  0  0  0  0  0  0  0  0  0  0
   15.5935   10.4786   15.9158 H   0  0  0  0  0  0  0  0  0  0  0  0
   17.3883   12.5997   14.5310 H   0  0  0  0  0  0  0  0  0  0  0  0
   17.4587   12.1575   16.2861 H   0  0  0  0  0  0  0  0  0  0  0  0
   19.7351    3.2327   12.9190 H   0  0  0  0  0  0  0  0  0  0  0  0
   15.3519    8.7766   10.0828 H   0  0  0  0  0  0  0  0  0  0  0  0
   16.7684    8.5760    8.9966 H   0  0  0  0  0  0  0  0  0  0  0  0
   15.4558    7.3497    8.9966 H   0  0  0  0  0  0  0  0  0  0  0  0
   19.7032   11.3156   16.0302 H   0  0  0  0  0  0  0  0  0  0  0  0
   20.0502   10.4869   14.4747 H   0  0  0  0  0  0  0  0  0  0  0  0
   19.3961   12.1599   14.4747 H   0  0  0  0  0  0  0  0  0  0  0  0
   11.3479   14.8672   18.0564 H   0  0  0  0  0  0  0  0  0  0  0  0
   10.6705   15.4737   16.5128 H   0  0  0  0  0  0  0  0  0  0  0  0
   10.5218   16.0059   19.9126 H   0  0  0  0  0  0  0  0  0  0  0  0
    9.8375   18.0837   21.0864 H   0  0  0  0  0  0  0  0  0  0  0  0
    9.7939   20.2424   19.8463 H   0  0  0  0  0  0  0  0  0  0  0  0
   10.4668   20.3044   17.4663 H   0  0  0  0  0  0  0  0  0  0  0  0
   11.2264   18.2395   16.3350 H   0  0  0  0  0  0  0  0  0  0  0  0
   18.0877    9.9823   15.6827 H   0  0  0  0  0  0  0  0  0  0  0  0
   15.7374    9.5977   11.4786 H   0  0  0  0  0  0  0  0  0  0  0  0
   18.6703    3.5782   10.6242 H   0  0  0  0  0  0  0  0  0  0  0  0
  1  2  1  0
  1 27  1  0
  2  3  1  0
  2 28  1  0
  3 15  1  0
  4 28  1  0
  4 29  1  0
  4 30  2  0
  5  6  1  0
  5 29  1  0
  5 32  2  0
  6  7  2  0
  6 31  1  0
  7  8  1  0
  7 30  1  0
  8 17  2  0
  9 10  2  0
  9 14  1  0
  9 33  1  0
 10 11  1  0
 11 12  2  0
 12 13  1  0
 15 12  1  0
 13 14  2  0
 15 16  1  0
 16 27  1  0
 17 31  1  0
 18 29  1  0
 27 19  1  0
 20 21  1  0
 20 33  1  0
 21 22  2  0
 21 26  1  0
 22 23  1  0
 23 24  2  0
 24 25  1  0
 25 26  2  0
  1 34  1  0
  1 35  1  0
  2 36  1  1
  3 37  1  0
  3 38  1  0
  8 39  1  0
 10 40  1  0
 11 41  1  0
 13 42  1  0
 14 43  1  0
 15 44  1  1
 16 45  1  0
 16 46  1  0
 17 47  1  0
 18 48  1  0
 18 49  1  0
 18 50  1  0
 19 51  1  0
 19 52  1  0
 19 53  1  0
 20 54  1  0
 20 55  1  0
 22 56  1  0
 23 57  1  0
 24 58  1  0
 25 59  1  0
 26 60  1  0
 27 61  1  1
 28 62  1  0
 31 63  1  0
M  CHG  1  27   1
M  END
>  <filename_input>  (5) 
7CD9_FVR_docked.sdf

>  <pdb_id>  (5) 
7CD9_FVR

>  <pose_rank>  (5) 
4

>  <num_atoms_heavy>  (5) 
33

>  <num_torsions>  (5) 
5

>  <pose>  (5) 
[17.889327980873823, 10.132018709782805, 13.694115545841612, -2.0268134837758325, 3.034837998248335, 1.6052246568913608, -0.2052439475721601, 1.2741859161313172, 0.9080454698321124, -0.40927762247317656, 2.767056761887612]

>  <energy>  (5) 
-659.9836290353278

>  <inter_energy>  (5) 
-654.4694858230952

>  <intra_energy>  (5) 
13.854502850788203

>  <rmsd>  (5) 
4.93108

>  <sdf_rank>  (5) 
0

$$$$

     RDKit          3D

 63 67  0  0  0  0  0  0  0  0999 V2000
   22.1158    3.9724   11.4036 C   0  0  0  0  0  0  0  0  0  0  0  0
   21.2207    3.5667   12.6115 C   0  0  1  0  0  0  0  0  0  0  0  0
   19.9379    4.2580   12.5546 C   0  0  0  0  0  0  0  0  0  0  0  0
   20.0266    1.3813   13.1677 C   0  0  0  0  0  0  0  0  0  0  0  0
   18.9053   -0.6229   13.6308 C   0  0  0  0  0  0  0  0  0  0  0  0
   17.9581    0.1521   14.2998 C   0  0  0  0  0  0  0  0  0  0  0  0
   18.1083    1.5083   14.3832 C   0  0  0  0  0  0  0  0  0  0  0  0
   17.0482    2.0326   15.1440 C   0  0  0  0  0  0  0  0  0  0  0  0
   16.6451    8.2278   12.7042 C   0  0  0  0  0  0  0  0  0  0  0  0
   17.0042    7.6212   11.5070 C   0  0  0  0  0  0  0  0  0  0  0  0
   18.1514    6.8392   11.4227 C   0  0  0  0  0  0  0  0  0  0  0  0
   18.8744    6.5711   12.5670 C   0  0  0  0  0  0  0  0  0  0  0  0
   18.5303    7.1734   13.7610 C   0  0  0  0  0  0  0  0  0  0  0  0
   17.3808    7.9645   13.8290 C   0  0  0  0  0  0  0  0  0  0  0  0
   20.1883    5.7105   12.5845 C   0  0  2  0  0  0  0  0  0  0  0  0
   21.0404    6.0911   11.3457 C   0  0  0  0  0  0  0  0  0  0  0  0
   16.2832    0.9291   15.4746 C   0  0  0  0  0  0  0  0  0  0  0  0
   20.9490   -0.7294   12.3781 C   0  0  0  0  0  0  0  0  0  0  0  0
   22.9567    5.7115   10.2794 C   0  0  0  0  0  0  0  0  0  0  0  0
   15.6087   10.4338   12.6361 C   0  0  0  0  0  0  0  0  0  0  0  0
   15.5195   11.1578   13.9902 C   0  0  0  0  0  0  0  0  0  0  0  0
   16.0374   12.4303   14.1330 C   0  0  0  0  0  0  0  0  0  0  0  0
   15.9563   13.1028   15.3429 C   0  0  0  0  0  0  0  0  0  0  0  0
   15.3669   12.4812   16.4290 C   0  0  0  0  0  0  0  0  0  0  0  0
   14.8598   11.2125   16.2947 C   0  0  0  0  0  0  0  0  0  0  0  0
   14.9261   10.5640   15.0746 C   0  0  0  0  0  0  0  0  0  0  0  0
   22.3124    5.3929   11.3410 N   0  0  2  0  0  0  0  0  0  0  0  0
   21.1127    2.0557   12.5247 N   0  0  0  0  0  0  0  0  0  0  0  0
   19.9132    0.0440   13.0594 N   0  0  0  0  0  0  0  0  0  0  0  0
   19.1611    2.1375   13.8198 N   0  0  0  0  0  0  0  0  0  0  0  0
   16.8067   -0.1803   14.9710 N   0  0  0  0  0  0  0  0  0  0  0  0
   18.8200   -1.8237   13.4793 O   0  0  0  0  0  0  0  0  0  0  0  0
   15.4862    9.0382   12.8545 O   0  0  0  0  0  0  0  0  0  0  0  0
   23.0949    3.4813   11.5048 H   0  0  0  0  0  0  0  0  0  0  0  0
   21.6091    3.6557   10.4801 H   0  0  0  0  0  0  0  0  0  0  0  0
   21.6406    3.8584   13.5854 H   0  0  0  0  0  0  0  0  0  0  0  0
   19.4132    3.9908   11.6255 H   0  0  0  0  0  0  0  0  0  0  0  0
   19.3134    3.9652   13.4115 H   0  0  0  0  0  0  0  0  0  0  0  0
   16.8681    3.0834   15.4150 H   0  0  0  0  0  0  0  0  0  0  0  0
   16.3743    7.7609   10.6161 H   0  0  0  0  0  0  0  0  0  0  0  0
   18.4794    6.4381   10.4523 H   0  0  0  0  0  0  0  0  0  0  0  0
   19.1576    7.0313   14.6533 H   0  0  0  0  0  0  0  0  0  0  0  0
   17.0630    8.3803   14.7966 H   0  0  0  0  0  0  0  0  0  0  0  0
   20.7081    5.9290   13.5290 H   0  0  0  0  0  0  0  0  0  0  0  0
   20.4841    5.8268   10.4342 H   0  0  0  0  0  0  0  0  0  0  0  0
   21.2399    7.1722   11.3827 H   0  0  0  0  0  0  0  0  0  0  0  0
   15.3625    0.9666   16.0754 H   0  0  0  0  0  0  0  0  0  0  0  0
   21.5964   -1.2128   13.1246 H   0  0  0  0  0  0  0  0  0  0  0  0
   20.4779   -1.4985   11.7484 H   0  0  0  0  0  0  0  0  0  0  0  0
   21.5525   -0.0592   11.7484 H   0  0  0  0  0  0  0  0  0  0  0  0
   23.9108    6.1833   10.5572 H   0  0  0  0  0  0  0  0  0  0  0  0
   23.1542    4.8072    9.6850 H   0  0  0  0  0  0  0  0  0  0  0  0
   22.3580    6.4174    9.6850 H   0  0  0  0  0  0  0  0  0  0  0  0
   14.7965   10.7777   11.9788 H   0  0  0  0  0  0  0  0  0  0  0  0
   16.5747   10.6536   12.1579 H   0  0  0  0  0  0  0  0  0  0  0  0
   16.5215   12.9176   13.2738 H   0  0  0  0  0  0  0  0  0  0  0  0
   16.3574   14.1226   15.4382 H   0  0  0  0  0  0  0  0  0  0  0  0
   15.3048   13.0012   17.3963 H   0  0  0  0  0  0  0  0  0  0  0  0
   14.3999   10.7108   17.1588 H   0  0  0  0  0  0  0  0  0  0  0  0
   14.4962    9.5566   14.9727 H   0  0  0  0  0  0  0  0  0  0  0  0
   22.8555    5.6693   12.1714 H   0  0  0  0  0  0  0  0  0  0  0  0
   21.8194    1.5166   12.0042 H   0  0  0  0  0  0  0  0  0  0  0  0
   16.4169   -1.1288   15.0669 H   0  0  0  0  0  0  0  0  0  0  0  0
  1  2  1  0
  1 27  1  0
  2  3  1  0
  2 28  1  0
  3 15  1  0
  4 28  1  0
  4 29  1  0
  4 30  2  0
  5  6  1  0
  5 29  1  0
  5 32  2  0
  6  7  2  0
  6 31  1  0
  7  8  1  0
  7 30  1  0
  8 17  2  0
  9 10  2  0
  9 14  1  0
  9 33  1  0
 10 11  1  0
 11 12  2  0
 12 13  1  0
 15 12  1  0
 13 14  2  0
 15 16  1  0
 16 27  1  0
 17 31  1  0
 18 29  1  0
 27 19  1  0
 20 21  1  0
 20 33  1  0
 21 22  2  0
 21 26  1  0
 22 23  1  0
 23 24  2  0
 24 25  1  0
 25 26  2  0
  1 34  1  0
  1 35  1  0
  2 36  1  1
  3 37  1  0
  3 38  1  0
  8 39  1  0
 10 40  1  0
 11 41  1  0
 13 42  1  0
 14 43  1  0
 15 44  1  1
 16 45  1  0
 16 46  1  0
 17 47  1  0
 18 48  1  0
 18 49  1  0
 18 50  1  0
 19 51  1  0
 19 52  1  0
 19 53  1  0
 20 54  1  0
 20 55  1  0
 22 56  1  0
 23 57  1  0
 24 58  1  0
 25 59  1  0
 26 60  1  0
 27 61  1  1
 28 62  1  0
 31 63  1  0
M  CHG  1  27   1
M  END
>  <filename_input>  (6) 
7CD9_FVR_docked.sdf

>  <pdb_id>  (6) 
7CD9_FVR

>  <pose_rank>  (6) 
5

>  <num_atoms_heavy>  (6) 
33

>  <num_torsions>  (6) 
5

>  <pose>  (6) 
[22.115810242153938, 3.972417621611126, 11.403600479623986, -1.9563883184227846, 4.661389653722108, 0.10600376928506058, -16.787137944238303, 5.613164489926105, -1.4045870231926891, 1.0599677933203056, 1.3926428919369243]

>  <energy>  (6) 
-583.5841073123047

>  <inter_energy>  (6) 
-613.0830845441835

>  <intra_energy>  (6) 
37.47213633938818

>  <rmsd>  (6) 
5.05452

>  <sdf_rank>  (6) 
0

$$$$

     RDKit          3D

 63 67  0  0  0  0  0  0  0  0999 V2000
   20.2136    9.6757   12.7503 C   0  0  0  0  0  0  0  0  0  0  0  0
   19.6770    9.0252   14.0594 C   0  0  1  0  0  0  0  0  0  0  0  0
   18.3291    9.4985   14.3525 C   0  0  0  0  0  0  0  0  0  0  0  0
   18.9920    6.9304   12.7735 C   0  0  0  0  0  0  0  0  0  0  0  0
   18.4069    5.0124   11.5621 C   0  0  0  0  0  0  0  0  0  0  0  0
   17.6058    5.8450   10.7806 C   0  0  0  0  0  0  0  0  0  0  0  0
   17.5263    7.1823   11.0527 C   0  0  0  0  0  0  0  0  0  0  0  0
   16.6222    7.7719   10.1512 C   0  0  0  0  0  0  0  0  0  0  0  0
   14.4224   12.5938   15.3139 C   0  0  0  0  0  0  0  0  0  0  0  0
   15.3004   12.3906   16.3712 C   0  0  0  0  0  0  0  0  0  0  0  0
   16.5579   11.8369   16.1543 C   0  0  0  0  0  0  0  0  0  0  0  0
   16.9782   11.5954   14.8624 C   0  0  0  0  0  0  0  0  0  0  0  0
   16.1119   11.7879   13.8044 C   0  0  0  0  0  0  0  0  0  0  0  0
   14.8481   12.3356   14.0380 C   0  0  0  0  0  0  0  0  0  0  0  0
   18.3714   10.9643   14.5043 C   0  0  2  0  0  0  0  0  0  0  0  0
   18.8631   11.5857   13.1710 C   0  0  0  0  0  0  0  0  0  0  0  0
   16.2051    6.7259    9.3485 C   0  0  0  0  0  0  0  0  0  0  0  0
   19.9263    4.7717   13.4035 C   0  0  0  0  0  0  0  0  0  0  0  0
   20.5275   11.6202   11.6939 C   0  0  0  0  0  0  0  0  0  0  0  0
   12.7498   13.6341   16.7510 C   0  0  0  0  0  0  0  0  0  0  0  0
   12.1242   15.0306   16.5944 C   0  0  0  0  0  0  0  0  0  0  0  0
   12.5983   16.0918   17.3407 C   0  0  0  0  0  0  0  0  0  0  0  0
   12.0543   17.3599   17.2049 C   0  0  0  0  0  0  0  0  0  0  0  0
   11.0065   17.5604   16.3243 C   0  0  0  0  0  0  0  0  0  0  0  0
   10.5252   16.5066   15.5878 C   0  0  0  0  0  0  0  0  0  0  0  0
   11.0946   15.2525   15.7161 C   0  0  0  0  0  0  0  0  0  0  0  0
   20.1879   11.1092   12.8196 N   0  0  2  0  0  0  0  0  0  0  0  0
   19.7676    7.5303   13.8158 N   0  0  0  0  0  0  0  0  0  0  0  0
   19.1010    5.6095   12.5361 N   0  0  0  0  0  0  0  0  0  0  0  0
   18.2190    7.7380   12.0690 N   0  0  0  0  0  0  0  0  0  0  0  0
   16.7890    5.5904    9.7061 N   0  0  0  0  0  0  0  0  0  0  0  0
   18.5608    3.8263   11.3579 O   0  0  0  0  0  0  0  0  0  0  0  0
   13.1249   13.1547   15.4704 O   0  0  0  0  0  0  0  0  0  0  0  0
   21.2500    9.3454   12.5871 H   0  0  0  0  0  0  0  0  0  0  0  0
   19.5639    9.3612   11.9202 H   0  0  0  0  0  0  0  0  0  0  0  0
   20.2577    9.2966   14.9533 H   0  0  0  0  0  0  0  0  0  0  0  0
   17.6538    9.2302   13.5267 H   0  0  0  0  0  0  0  0  0  0  0  0
   17.9593    9.0340   15.2784 H   0  0  0  0  0  0  0  0  0  0  0  0
   16.3158    8.8270   10.0969 H   0  0  0  0  0  0  0  0  0  0  0  0
   14.9979   12.6707   17.3910 H   0  0  0  0  0  0  0  0  0  0  0  0
   17.2114   11.5938   17.0050 H   0  0  0  0  0  0  0  0  0  0  0  0
   16.4151   11.5116   12.7837 H   0  0  0  0  0  0  0  0  0  0  0  0
   14.1877   12.5619   13.1879 H   0  0  0  0  0  0  0  0  0  0  0  0
   19.0523   11.1826   15.3401 H   0  0  0  0  0  0  0  0  0  0  0  0
   18.1609   11.3135   12.3692 H   0  0  0  0  0  0  0  0  0  0  0  0
   18.9106   12.6776   13.2956 H   0  0  0  0  0  0  0  0  0  0  0  0
   15.4845    6.8230    8.5230 H   0  0  0  0  0  0  0  0  0  0  0  0
   19.7013    5.0001   14.4557 H   0  0  0  0  0  0  0  0  0  0  0  0
   19.7095    3.7119   13.2039 H   0  0  0  0  0  0  0  0  0  0  0  0
   20.9892    4.9725   13.2039 H   0  0  0  0  0  0  0  0  0  0  0  0
   21.1288   12.5247   11.8682 H   0  0  0  0  0  0  0  0  0  0  0  0
   21.1206   10.8899   11.1237 H   0  0  0  0  0  0  0  0  0  0  0  0
   19.6246   11.8844   11.1237 H   0  0  0  0  0  0  0  0  0  0  0  0
   13.6380   13.6973   17.3967 H   0  0  0  0  0  0  0  0  0  0  0  0
   12.0218   12.9479   17.2082 H   0  0  0  0  0  0  0  0  0  0  0  0
   13.4200   15.9283   18.0536 H   0  0  0  0  0  0  0  0  0  0  0  0
   12.4528   18.1999   17.7928 H   0  0  0  0  0  0  0  0  0  0  0  0
   10.5609   18.5601   16.2147 H   0  0  0  0  0  0  0  0  0  0  0  0
    9.6852   16.6598   14.8943 H   0  0  0  0  0  0  0  0  0  0  0  0
   10.7158   14.4205   15.1043 H   0  0  0  0  0  0  0  0  0  0  0  0
   20.8576   11.3981   13.5468 H   0  0  0  0  0  0  0  0  0  0  0  0
   20.3860    6.9488   14.3992 H   0  0  0  0  0  0  0  0  0  0  0  0
   16.6534    4.6743    9.2552 H   0  0  0  0  0  0  0  0  0  0  0  0
  1  2  1  0
  1 27  1  0
  2  3  1  0
  2 28  1  0
  3 15  1  0
  4 28  1  0
  4 29  1  0
  4 30  2  0
  5  6  1  0
  5 29  1  0
  5 32  2  0
  6  7  2  0
  6 31  1  0
  7  8  1  0
  7 30  1  0
  8 17  2  0
  9 10  2  0
  9 14  1  0
  9 33  1  0
 10 11  1  0
 11 12  2  0
 12 13  1  0
 15 12  1  0
 13 14  2  0
 15 16  1  0
 16 27  1  0
 17 31  1  0
 18 29  1  0
 27 19  1  0
 20 21  1  0
 20 33  1  0
 21 22  2  0
 21 26  1  0
 22 23  1  0
 23 24  2  0
 24 25  1  0
 25 26  2  0
  1 34  1  0
  1 35  1  0
  2 36  1  1
  3 37  1  0
  3 38  1  0
  8 39  1  0
 10 40  1  0
 11 41  1  0
 13 42  1  0
 14 43  1  0
 15 44  1  1
 16 45  1  0
 16 46  1  0
 17 47  1  0
 18 48  1  0
 18 49  1  0
 18 50  1  0
 19 51  1  0
 19 52  1  0
 19 53  1  0
 20 54  1  0
 20 55  1  0
 22 56  1  0
 23 57  1  0
 24 58  1  0
 25 59  1  0
 26 60  1  0
 27 61  1  1
 28 62  1  0
 31 63  1  0
M  CHG  1  27   1
M  END
>  <filename_input>  (7) 
7CD9_FVR_docked.sdf

>  <pdb_id>  (7) 
7CD9_FVR

>  <pose_rank>  (7) 
6

>  <num_atoms_heavy>  (7) 
33

>  <num_torsions>  (7) 
5

>  <pose>  (7) 
[20.21355956944816, 9.675723466741601, 12.750253764024341, 0.6365851361178615, -0.8798196211004216, -0.0012674392032441342, -2.557644936980146, 2.3489150965495496, 6.563434084361627, -7.308250716725192, 2.689995812064878]

>  <energy>  (7) 
-612.0459437616287

>  <inter_energy>  (7) 
-645.5639930873518

>  <intra_energy>  (7) 
40.91566104527752

>  <rmsd>  (7) 
3.84774

>  <sdf_rank>  (7) 
0

$$$$

     RDKit          3D

 63 67  0  0  0  0  0  0  0  0999 V2000
   18.0260   10.5786   12.5515 C   0  0  0  0  0  0  0  0  0  0  0  0
   16.7540    9.6876   12.4366 C   0  0  1  0  0  0  0  0  0  0  0  0
   17.0036    8.3628   12.9928 C   0  0  0  0  0  0  0  0  0  0  0  0
   15.6875   10.5594   14.5845 C   0  0  0  0  0  0  0  0  0  0  0  0
   14.7339   11.4065   16.5496 C   0  0  0  0  0  0  0  0  0  0  0  0
   15.7835   10.7913   17.2318 C   0  0  0  0  0  0  0  0  0  0  0  0
   16.7245   10.0719   16.5493 C   0  0  0  0  0  0  0  0  0  0  0  0
   17.6318    9.5257   17.4745 C   0  0  0  0  0  0  0  0  0  0  0  0
   19.2227    3.7040   13.4089 C   0  0  0  0  0  0  0  0  0  0  0  0
   18.7796    4.5906   14.3824 C   0  0  0  0  0  0  0  0  0  0  0  0
   18.4519    5.9018   14.0533 C   0  0  0  0  0  0  0  0  0  0  0  0
   18.4574    6.2896   12.7290 C   0  0  0  0  0  0  0  0  0  0  0  0
   18.9017    5.4187   11.7538 C   0  0  0  0  0  0  0  0  0  0  0  0
   19.2371    4.1074   12.1002 C   0  0  0  0  0  0  0  0  0  0  0  0
   18.1151    7.7448   12.2471 C   0  0  2  0  0  0  0  0  0  0  0  0
   19.3780    8.6284   12.4195 C   0  0  0  0  0  0  0  0  0  0  0  0
   17.1824    9.9741   18.7030 C   0  0  0  0  0  0  0  0  0  0  0  0
   13.6435   11.8776   14.4648 C   0  0  0  0  0  0  0  0  0  0  0  0
   20.2168   10.6678   12.1181 C   0  0  0  0  0  0  0  0  0  0  0  0
   19.0312    1.3376   12.8532 C   0  0  0  0  0  0  0  0  0  0  0  0
   17.8519    0.6758   13.5862 C   0  0  0  0  0  0  0  0  0  0  0  0
   16.5548    0.9254   13.1823 C   0  0  0  0  0  0  0  0  0  0  0  0
   15.4798    0.3291   13.8238 C   0  0  0  0  0  0  0  0  0  0  0  0
   15.7092   -0.5115   14.8981 C   0  0  0  0  0  0  0  0  0  0  0  0
   16.9962   -0.7547   15.3096 C   0  0  0  0  0  0  0  0  0  0  0  0
   18.0596   -0.1719   14.6440 C   0  0  0  0  0  0  0  0  0  0  0  0
   19.1599    9.9712   11.9146 N   0  0  2  0  0  0  0  0  0  0  0  0
   15.6684   10.4656   13.1567 N   0  0  0  0  0  0  0  0  0  0  0  0
   14.7433   11.2800   15.2189 N   0  0  0  0  0  0  0  0  0  0  0  0
   16.6760    9.9415   15.2068 N   0  0  0  0  0  0  0  0  0  0  0  0
   16.1010   10.7294   18.5667 N   0  0  0  0  0  0  0  0  0  0  0  0
   13.8862   12.0941   17.0796 O   0  0  0  0  0  0  0  0  0  0  0  0
   19.5729    2.3529   13.6816 O   0  0  0  0  0  0  0  0  0  0  0  0
   17.8259   11.5487   12.0731 H   0  0  0  0  0  0  0  0  0  0  0  0
   18.2599   10.7058   13.6188 H   0  0  0  0  0  0  0  0  0  0  0  0
   16.4497    9.4904   11.3981 H   0  0  0  0  0  0  0  0  0  0  0  0
   17.2735    8.4513   14.0555 H   0  0  0  0  0  0  0  0  0  0  0  0
   16.1001    7.7414   12.9068 H   0  0  0  0  0  0  0  0  0  0  0  0
   18.5025    8.8862   17.2676 H   0  0  0  0  0  0  0  0  0  0  0  0
   18.6870    4.2520   15.4249 H   0  0  0  0  0  0  0  0  0  0  0  0
   18.1906    6.6230   14.8416 H   0  0  0  0  0  0  0  0  0  0  0  0
   18.9911    5.7554   10.7104 H   0  0  0  0  0  0  0  0  0  0  0  0
   19.5158    3.3912   11.3131 H   0  0  0  0  0  0  0  0  0  0  0  0
   17.7983    7.6738   11.1961 H   0  0  0  0  0  0  0  0  0  0  0  0
   19.6315    8.6852   13.4884 H   0  0  0  0  0  0  0  0  0  0  0  0
   20.1990    8.1730   11.8462 H   0  0  0  0  0  0  0  0  0  0  0  0
   17.6587    9.7359   19.6655 H   0  0  0  0  0  0  0  0  0  0  0  0
   12.8973   12.2830   15.1639 H   0  0  0  0  0  0  0  0  0  0  0  0
   14.0315   12.6889   13.8314 H   0  0  0  0  0  0  0  0  0  0  0  0
   13.1739   11.1106   13.8314 H   0  0  0  0  0  0  0  0  0  0  0  0
   20.3816   10.7764   13.2002 H   0  0  0  0  0  0  0  0  0  0  0  0
   21.0821   10.1625   11.6643 H   0  0  0  0  0  0  0  0  0  0  0  0
   20.0935   11.6622   11.6643 H   0  0  0  0  0  0  0  0  0  0  0  0
   19.8033    0.5840   12.6394 H   0  0  0  0  0  0  0  0  0  0  0  0
   18.6839    1.7747   11.9054 H   0  0  0  0  0  0  0  0  0  0  0  0
   16.3718    1.6075   12.3390 H   0  0  0  0  0  0  0  0  0  0  0  0
   14.4527    0.5230   13.4811 H   0  0  0  0  0  0  0  0  0  0  0  0
   14.8639   -0.9832   15.4206 H   0  0  0  0  0  0  0  0  0  0  0  0
   17.1820   -1.4142   16.1701 H   0  0  0  0  0  0  0  0  0  0  0  0
   19.0875   -0.3918   14.9681 H   0  0  0  0  0  0  0  0  0  0  0  0
   18.9636    9.9274   10.9044 H   0  0  0  0  0  0  0  0  0  0  0  0
   14.9197   10.9252   12.6191 H   0  0  0  0  0  0  0  0  0  0  0  0
   15.5872   11.1907   19.3310 H   0  0  0  0  0  0  0  0  0  0  0  0
  1  2  1  0
  1 27  1  0
  2  3  1  0
  2 28  1  0
  3 15  1  0
  4 28  1  0
  4 29  1  0
  4 30  2  0
  5  6  1  0
  5 29  1  0
  5 32  2  0
  6  7  2  0
  6 31  1  0
  7  8  1  0
  7 30  1  0
  8 17  2  0
  9 10  2  0
  9 14  1  0
  9 33  1  0
 10 11  1  0
 11 12  2  0
 12 13  1  0
 15 12  1  0
 13 14  2  0
 15 16  1  0
 16 27  1  0
 17 31  1  0
 18 29  1  0
 27 19  1  0
 20 21  1  0
 20 33  1  0
 21 22  2  0
 21 26  1  0
 22 23  1  0
 23 24  2  0
 24 25  1  0
 25 26  2  0
  1 34  1  0
  1 35  1  0
  2 36  1  6
  3 37  1  0
  3 38  1  0
  8 39  1  0
 10 40  1  0
 11 41  1  0
 13 42  1  0
 14 43  1  0
 15 44  1  6
 16 45  1  0
 16 46  1  0
 17 47  1  0
 18 48  1  0
 18 49  1  0
 18 50  1  0
 19 51  1  0
 19 52  1  0
 19 53  1  0
 20 54  1  0
 20 55  1  0
 22 56  1  0
 23 57  1  0
 24 58  1  0
 25 59  1  0
 26 60  1  0
 27 61  1  6
 28 62  1  0
 31 63  1  0
M  CHG  1  27   1
M  END
>  <filename_input>  (8) 
7CD9_FVR_docked.sdf

>  <pdb_id>  (8) 
7CD9_FVR

>  <pose_rank>  (8) 
7

>  <num_atoms_heavy>  (8) 
33

>  <num_torsions>  (8) 
5

>  <pose>  (8) 
[18.025977846084448, 10.578603092350319, 12.551489731386647, 1.2753347643578152, 0.9495818475507783, -2.557834519697899, -9.006338513670297, 0.03722416634185003, 2.4734823375360038, 1.1804649681112191, 0.4928421077012364]

>  <energy>  (8) 
-591.7834672959871

>  <inter_energy>  (8) 
-624.9045698319842

>  <intra_energy>  (8) 
40.53900643164673

>  <rmsd>  (8) 
10.3623

>  <sdf_rank>  (8) 
0

$$$$

     RDKit          3D

 63 67  0  0  0  0  0  0  0  0999 V2000
   22.9539    8.1920   11.0003 C   0  0  0  0  0  0  0  0  0  0  0  0
   22.3392    6.9805   11.7613 C   0  0  1  0  0  0  0  0  0  0  0  0
   20.9035    7.1623   11.9410 C   0  0  0  0  0  0  0  0  0  0  0  0
   22.2981    4.4635   11.3442 C   0  0  0  0  0  0  0  0  0  0  0  0
   22.2181    2.1592   10.9287 C   0  0  0  0  0  0  0  0  0  0  0  0
   21.4575    2.0544   12.0932 C   0  0  0  0  0  0  0  0  0  0  0  0
   21.1728    3.1663   12.8357 C   0  0  0  0  0  0  0  0  0  0  0  0
   20.4399    2.7745   13.9700 C   0  0  0  0  0  0  0  0  0  0  0  0
   16.5009    9.3857   13.3834 C   0  0  0  0  0  0  0  0  0  0  0  0
   16.9009    8.0566   13.4428 C   0  0  0  0  0  0  0  0  0  0  0  0
   18.2228    7.7006   13.1967 C   0  0  0  0  0  0  0  0  0  0  0  0
   19.1665    8.6890   13.0058 C   0  0  0  0  0  0  0  0  0  0  0  0
   18.7794   10.0129   12.9387 C   0  0  0  0  0  0  0  0  0  0  0  0
   17.4464   10.3553   13.1783 C   0  0  0  0  0  0  0  0  0  0  0  0
   20.6820    8.3999   12.7109 C   0  0  2  0  0  0  0  0  0  0  0  0
   21.2614    9.5929   11.9068 C   0  0  0  0  0  0  0  0  0  0  0  0
   20.3046    1.4047   13.8361 C   0  0  0  0  0  0  0  0  0  0  0  0
   23.4258    3.5485    9.3895 C   0  0  0  0  0  0  0  0  0  0  0  0
   23.1018   10.4220   10.9692 C   0  0  0  0  0  0  0  0  0  0  0  0
   14.7738   11.0911   13.1515 C   0  0  0  0  0  0  0  0  0  0  0  0
   14.5620   12.0226   14.3570 C   0  0  0  0  0  0  0  0  0  0  0  0
   13.3367   12.6268   14.5612 C   0  0  0  0  0  0  0  0  0  0  0  0
   13.1239   13.4607   15.6483 C   0  0  0  0  0  0  0  0  0  0  0  0
   14.1610   13.7081   16.5296 C   0  0  0  0  0  0  0  0  0  0  0  0
   15.3835   13.1179   16.3253 C   0  0  0  0  0  0  0  0  0  0  0  0
   15.5734   12.2688   15.2499 C   0  0  0  0  0  0  0  0  0  0  0  0
   22.6839    9.4328   11.6697 N   0  0  2  0  0  0  0  0  0  0  0  0
   22.7089    5.7689   10.9260 N   0  0  0  0  0  0  0  0  0  0  0  0
   22.5967    3.3938   10.5829 N   0  0  0  0  0  0  0  0  0  0  0  0
   21.6050    4.3906   12.4669 N   0  0  0  0  0  0  0  0  0  0  0  0
   20.8915    0.9754   12.7273 N   0  0  0  0  0  0  0  0  0  0  0  0
   22.4766    1.2268   10.1967 O   0  0  0  0  0  0  0  0  0  0  0  0
   15.1661    9.8132   13.6242 O   0  0  0  0  0  0  0  0  0  0  0  0
   24.0430    8.0540   10.9313 H   0  0  0  0  0  0  0  0  0  0  0  0
   22.4975    8.2359   10.0004 H   0  0  0  0  0  0  0  0  0  0  0  0
   22.7258    6.8641   12.7846 H   0  0  0  0  0  0  0  0  0  0  0  0
   20.4138    7.2432   10.9593 H   0  0  0  0  0  0  0  0  0  0  0  0
   20.4788    6.3022   12.4794 H   0  0  0  0  0  0  0  0  0  0  0  0
   20.0599    3.4133   14.7809 H   0  0  0  0  0  0  0  0  0  0  0  0
   16.1641    7.2773   13.6872 H   0  0  0  0  0  0  0  0  0  0  0  0
   18.5134    6.6405   13.1547 H   0  0  0  0  0  0  0  0  0  0  0  0
   19.5164   10.7932   12.6981 H   0  0  0  0  0  0  0  0  0  0  0  0
   17.1528   11.4151   13.2024 H   0  0  0  0  0  0  0  0  0  0  0  0
   21.1837    8.2704   13.6812 H   0  0  0  0  0  0  0  0  0  0  0  0
   20.7427    9.6574   10.9390 H   0  0  0  0  0  0  0  0  0  0  0  0
   21.1103   10.5109   12.4937 H   0  0  0  0  0  0  0  0  0  0  0  0
   19.7799    0.7573   14.5541 H   0  0  0  0  0  0  0  0  0  0  0  0
   24.4663    3.7427    9.6887 H   0  0  0  0  0  0  0  0  0  0  0  0
   23.3823    2.6267    8.7908 H   0  0  0  0  0  0  0  0  0  0  0  0
   23.0527    4.3925    8.7908 H   0  0  0  0  0  0  0  0  0  0  0  0
   23.4418   11.2269   11.6375 H   0  0  0  0  0  0  0  0  0  0  0  0
   23.9384   10.0944   10.3346 H   0  0  0  0  0  0  0  0  0  0  0  0
   22.2837   10.7934   10.3346 H   0  0  0  0  0  0  0  0  0  0  0  0
   13.8361   11.0031   12.5832 H   0  0  0  0  0  0  0  0  0  0  0  0
   15.5544   11.5021   12.4945 H   0  0  0  0  0  0  0  0  0  0  0  0
   12.5174   12.4436   13.8505 H   0  0  0  0  0  0  0  0  0  0  0  0
   12.1382   13.9218   15.8087 H   0  0  0  0  0  0  0  0  0  0  0  0
   14.0067   14.3750   17.3907 H   0  0  0  0  0  0  0  0  0  0  0  0
   16.2137   13.3206   17.0180 H   0  0  0  0  0  0  0  0  0  0  0  0
   16.5505   11.7837   15.1087 H   0  0  0  0  0  0  0  0  0  0  0  0
   23.1797    9.4143   12.5724 H   0  0  0  0  0  0  0  0  0  0  0  0
   23.2542    5.8858   10.0600 H   0  0  0  0  0  0  0  0  0  0  0  0
   20.9184   -0.0001   12.3979 H   0  0  0  0  0  0  0  0  0  0  0  0
  1  2  1  0
  1 27  1  0
  2  3  1  0
  2 28  1  0
  3 15  1  0
  4 28  1  0
  4 29  1  0
  4 30  2  0
  5  6  1  0
  5 29  1  0
  5 32  2  0
  6  7  2  0
  6 31  1  0
  7  8  1  0
  7 30  1  0
  8 17  2  0
  9 10  2  0
  9 14  1  0
  9 33  1  0
 10 11  1  0
 11 12  2  0
 12 13  1  0
 15 12  1  0
 13 14  2  0
 15 16  1  0
 16 27  1  0
 17 31  1  0
 18 29  1  0
 27 19  1  0
 20 21  1  0
 20 33  1  0
 21 22  2  0
 21 26  1  0
 22 23  1  0
 23 24  2  0
 24 25  1  0
 25 26  2  0
  1 34  1  0
  1 35  1  0
  2 36  1  1
  3 37  1  0
  3 38  1  0
  8 39  1  0
 10 40  1  0
 11 41  1  0
 13 42  1  0
 14 43  1  0
 15 44  1  1
 16 45  1  0
 16 46  1  0
 17 47  1  0
 18 48  1  0
 18 49  1  0
 18 50  1  0
 19 51  1  0
 19 52  1  0
 19 53  1  0
 20 54  1  0
 20 55  1  0
 22 56  1  0
 23 57  1  0
 24 58  1  0
 25 59  1  0
 26 60  1  0
 27 61  1  1
 28 62  1  0
 31 63  1  0
M  CHG  1  27   1
M  END
>  <filename_input>  (9) 
7CD9_FVR_docked.sdf

>  <pdb_id>  (9) 
7CD9_FVR

>  <pose_rank>  (9) 
8

>  <num_atoms_heavy>  (9) 
33

>  <num_torsions>  (9) 
5

>  <pose>  (9) 
[22.953908094314112, 8.192041420536762, 11.000329774581672, 1.135733167264673, -1.02844952478636, -0.030771652435691514, -4.598449021095669, 1.2853741155317395, -2.625925538687043, 1.014923423873583, -3.4945887766770474]

>  <energy>  (9) 
-582.1884321567885

>  <inter_energy>  (9) 
-618.331312196327

>  <intra_energy>  (9) 
27.902350913373187

>  <rmsd>  (9) 
3.78264

>  <sdf_rank>  (9) 
0

$$$$

     RDKit          3D

 63 67  0  0  0  0  0  0  0  0999 V2000
   16.8143    8.8245   15.2974 C   0  0  0  0  0  0  0  0  0  0  0  0
   17.7375    9.8759   14.6138 C   0  0  1  0  0  0  0  0  0  0  0  0
   18.4828    9.2686   13.5174 C   0  0  0  0  0  0  0  0  0  0  0  0
   15.8794   11.5492   15.1226 C   0  0  0  0  0  0  0  0  0  0  0  0
   14.2108   13.1233   15.5985 C   0  0  0  0  0  0  0  0  0  0  0  0
   14.2258   12.6294   16.9029 C   0  0  0  0  0  0  0  0  0  0  0  0
   15.0599   11.6014   17.2436 C   0  0  0  0  0  0  0  0  0  0  0  0
   14.8406   11.2723   18.5931 C   0  0  0  0  0  0  0  0  0  0  0  0
   21.9271    6.1954   11.2133 C   0  0  0  0  0  0  0  0  0  0  0  0
   20.5686    5.9050   11.1933 C   0  0  0  0  0  0  0  0  0  0  0  0
   19.7036    6.4887   12.1130 C   0  0  0  0  0  0  0  0  0  0  0  0
   20.1827    7.4519   12.9772 C   0  0  0  0  0  0  0  0  0  0  0  0
   21.5319    7.7440   13.0099 C   0  0  0  0  0  0  0  0  0  0  0  0
   22.3910    7.1429   12.0867 C   0  0  0  0  0  0  0  0  0  0  0  0
   19.2978    8.1666   14.0604 C   0  0  2  0  0  0  0  0  0  0  0  0
   18.3492    7.1142   14.6911 C   0  0  0  0  0  0  0  0  0  0  0  0
   13.8658   12.1602   19.0099 C   0  0  0  0  0  0  0  0  0  0  0  0
   15.0713   13.0234   13.3609 C   0  0  0  0  0  0  0  0  0  0  0  0
   16.7645    6.7893   16.2198 C   0  0  0  0  0  0  0  0  0  0  0  0
   23.7635    6.5026    9.6390 C   0  0  0  0  0  0  0  0  0  0  0  0
   25.1828    5.9185    9.7413 C   0  0  0  0  0  0  0  0  0  0  0  0
   25.3845    4.5578    9.6167 C   0  0  0  0  0  0  0  0  0  0  0  0
   26.6578    4.0145    9.6950 C   0  0  0  0  0  0  0  0  0  0  0  0
   27.7397    4.8457    9.9228 C   0  0  0  0  0  0  0  0  0  0  0  0
   27.5430    6.1977   10.0575 C   0  0  0  0  0  0  0  0  0  0  0  0
   26.2696    6.7278    9.9523 C   0  0  0  0  0  0  0  0  0  0  0  0
   17.5569    7.6877   15.7629 N   0  0  2  0  0  0  0  0  0  0  0  0
   16.8033   10.9913   14.1829 N   0  0  0  0  0  0  0  0  0  0  0  0
   15.0763   12.5629   14.7477 N   0  0  0  0  0  0  0  0  0  0  0  0
   15.8943   11.0416   16.3425 N   0  0  0  0  0  0  0  0  0  0  0  0
   13.5073   12.9699   18.0230 N   0  0  0  0  0  0  0  0  0  0  0  0
   13.5303   14.0582   15.2311 O   0  0  0  0  0  0  0  0  0  0  0  0
   22.8616    5.6318   10.3014 O   0  0  0  0  0  0  0  0  0  0  0  0
   16.3104    9.2961   16.1539 H   0  0  0  0  0  0  0  0  0  0  0  0
   16.0835    8.4750   14.5532 H   0  0  0  0  0  0  0  0  0  0  0  0
   18.5164   10.2742   15.2806 H   0  0  0  0  0  0  0  0  0  0  0  0
   17.7827    8.8766   12.7649 H   0  0  0  0  0  0  0  0  0  0  0  0
   19.1317   10.0186   13.0415 H   0  0  0  0  0  0  0  0  0  0  0  0
   15.3333   10.4860   19.1839 H   0  0  0  0  0  0  0  0  0  0  0  0
   20.1728    5.2059   10.4419 H   0  0  0  0  0  0  0  0  0  0  0  0
   18.6470    6.1852   12.1510 H   0  0  0  0  0  0  0  0  0  0  0  0
   21.9280    8.4459   13.7586 H   0  0  0  0  0  0  0  0  0  0  0  0
   23.4515    7.4337   12.0610 H   0  0  0  0  0  0  0  0  0  0  0  0
   19.9818    8.6060   14.8014 H   0  0  0  0  0  0  0  0  0  0  0  0
   17.6732    6.7302   13.9129 H   0  0  0  0  0  0  0  0  0  0  0  0
   18.9629    6.3036   15.1110 H   0  0  0  0  0  0  0  0  0  0  0  0
   13.4438   12.1906   20.0253 H   0  0  0  0  0  0  0  0  0  0  0  0
   15.0593   14.1231   13.3397 H   0  0  0  0  0  0  0  0  0  0  0  0
   15.9735   12.6566   12.8495 H   0  0  0  0  0  0  0  0  0  0  0  0
   14.1773   12.6370   12.8495 H   0  0  0  0  0  0  0  0  0  0  0  0
   16.7824    6.8095   17.3195 H   0  0  0  0  0  0  0  0  0  0  0  0
   15.7421    6.9878   15.8660 H   0  0  0  0  0  0  0  0  0  0  0  0
   17.0893    5.7997   15.8660 H   0  0  0  0  0  0  0  0  0  0  0  0
   23.7367    7.4941   10.1148 H   0  0  0  0  0  0  0  0  0  0  0  0
   23.4766    6.6039    8.5820 H   0  0  0  0  0  0  0  0  0  0  0  0
   24.5220    3.8951    9.4528 H   0  0  0  0  0  0  0  0  0  0  0  0
   26.8064    2.9310    9.5768 H   0  0  0  0  0  0  0  0  0  0  0  0
   28.7535    4.4252    9.9959 H   0  0  0  0  0  0  0  0  0  0  0  0
   28.3995    6.8607   10.2493 H   0  0  0  0  0  0  0  0  0  0  0  0
   26.1266    7.8150   10.0393 H   0  0  0  0  0  0  0  0  0  0  0  0
   18.1832    8.0109   16.5140 H   0  0  0  0  0  0  0  0  0  0  0  0
   16.8341   11.3459   13.2164 H   0  0  0  0  0  0  0  0  0  0  0  0
   12.8094   13.7250   18.0855 H   0  0  0  0  0  0  0  0  0  0  0  0
  1  2  1  0
  1 27  1  0
  2  3  1  0
  2 28  1  0
  3 15  1  0
  4 28  1  0
  4 29  1  0
  4 30  2  0
  5  6  1  0
  5 29  1  0
  5 32  2  0
  6  7  2  0
  6 31  1  0
  7  8  1  0
  7 30  1  0
  8 17  2  0
  9 10  2  0
  9 14  1  0
  9 33  1  0
 10 11  1  0
 11 12  2  0
 12 13  1  0
 15 12  1  0
 13 14  2  0
 15 16  1  0
 16 27  1  0
 17 31  1  0
 18 29  1  0
 27 19  1  0
 20 21  1  0
 20 33  1  0
 21 22  2  0
 21 26  1  0
 22 23  1  0
 23 24  2  0
 24 25  1  0
 25 26  2  0
  1 34  1  0
  1 35  1  0
  2 36  1  1
  3 37  1  0
  3 38  1  0
  8 39  1  0
 10 40  1  0
 11 41  1  0
 13 42  1  0
 14 43  1  0
 15 44  1  1
 16 45  1  0
 16 46  1  0
 17 47  1  0
 18 48  1  0
 18 49  1  0
 18 50  1  0
 19 51  1  0
 19 52  1  0
 19 53  1  0
 20 54  1  0
 20 55  1  0
 22 56  1  0
 23 57  1  0
 24 58  1  0
 25 59  1  0
 26 60  1  0
 27 61  1  1
 28 62  1  0
 31 63  1  0
M  CHG  1  27   1
M  END
>  <filename_input>  (10) 
7CD9_FVR_docked.sdf

>  <pdb_id>  (10) 
7CD9_FVR

>  <pose_rank>  (10) 
9

>  <num_atoms_heavy>  (10) 
33

>  <num_torsions>  (10) 
5

>  <pose>  (10) 
[16.81429267007144, 8.824513545257664, 15.29737230538558, 2.789597499952389, 1.7113380525224102, 0.8843182599990802, -0.5755200237107719, -0.6878946660862832, 2.4718714431819584, -1.031130841259652, -6.968650541962561]

>  <energy>  (10) 
-496.6538929719939

>  <inter_energy>  (10) 
-527.9835195746742

>  <intra_energy>  (10) 
35.11939156881116

>  <rmsd>  (10) 
11.9213

>  <sdf_rank>  (10) 
0

$$$$

     RDKit          3D

 63 67  0  0  0  0  0  0  0  0999 V2000
   20.1654   13.3532   11.5501 C   0  0  0  0  0  0  0  0  0  0  0  0
   18.8224   12.9864   12.2479 C   0  0  1  0  0  0  0  0  0  0  0  0
   18.8786   11.6340   12.7903 C   0  0  0  0  0  0  0  0  0  0  0  0
   17.5469   13.9553   14.2342 C   0  0  0  0  0  0  0  0  0  0  0  0
   16.4118   14.8225   16.0911 C   0  0  0  0  0  0  0  0  0  0  0  0
   15.5936   13.6950   16.0197 C   0  0  0  0  0  0  0  0  0  0  0  0
   15.7865   12.7615   15.0399 C   0  0  0  0  0  0  0  0  0  0  0  0
   14.8044   11.7635   15.1696 C   0  0  0  0  0  0  0  0  0  0  0  0
   19.4485    6.5872   13.0686 C   0  0  0  0  0  0  0  0  0  0  0  0
   18.2000    7.0955   12.7327 C   0  0  0  0  0  0  0  0  0  0  0  0
   18.0579    8.4165   12.3207 C   0  0  0  0  0  0  0  0  0  0  0  0
   19.1832    9.1930   12.1343 C   0  0  0  0  0  0  0  0  0  0  0  0
   20.4286    8.7002   12.4707 C   0  0  0  0  0  0  0  0  0  0  0  0
   20.5554    7.3744   12.8926 C   0  0  0  0  0  0  0  0  0  0  0  0
   19.1378   10.6966   11.6824 C   0  0  2  0  0  0  0  0  0  0  0  0
   20.5022   11.0567   11.0388 C   0  0  0  0  0  0  0  0  0  0  0  0
   14.0589   12.1547   16.2666 C   0  0  0  0  0  0  0  0  0  0  0  0
   18.2528   16.0766   15.1994 C   0  0  0  0  0  0  0  0  0  0  0  0
   21.6635   12.6705   10.0385 C   0  0  0  0  0  0  0  0  0  0  0  0
   18.7519    4.2507   13.0563 C   0  0  0  0  0  0  0  0  0  0  0  0
   19.4017    2.8695   13.2463 C   0  0  0  0  0  0  0  0  0  0  0  0
   20.7059    2.6543   12.8454 C   0  0  0  0  0  0  0  0  0  0  0  0
   21.3118    1.4193   13.0188 C   0  0  0  0  0  0  0  0  0  0  0  0
   20.5920    0.3811   13.5822 C   0  0  0  0  0  0  0  0  0  0  0  0
   19.2922    0.5872   13.9730 C   0  0  0  0  0  0  0  0  0  0  0  0
   18.7093    1.8319   13.8161 C   0  0  0  0  0  0  0  0  0  0  0  0
   20.5040   12.4120   10.5205 N   0  0  2  0  0  0  0  0  0  0  0  0
   18.6222   14.0649   13.2963 N   0  0  0  0  0  0  0  0  0  0  0  0
   17.3928   14.8953   15.1859 N   0  0  0  0  0  0  0  0  0  0  0  0
   16.7693   12.8926   14.1242 N   0  0  0  0  0  0  0  0  0  0  0  0
   14.5251   13.2852   16.7793 N   0  0  0  0  0  0  0  0  0  0  0  0
   16.3292   15.6715   16.9540 O   0  0  0  0  0  0  0  0  0  0  0  0
   19.6591    5.2475   13.4966 O   0  0  0  0  0  0  0  0  0  0  0  0
   20.0725   14.3535   11.1020 H   0  0  0  0  0  0  0  0  0  0  0  0
   20.9621   13.3329   12.3083 H   0  0  0  0  0  0  0  0  0  0  0  0
   17.9634   12.9654   11.5611 H   0  0  0  0  0  0  0  0  0  0  0  0
   19.6880   11.5649   13.5320 H   0  0  0  0  0  0  0  0  0  0  0  0
   17.9260   11.3843   13.2805 H   0  0  0  0  0  0  0  0  0  0  0  0
   14.6614   10.8726   14.5403 H   0  0  0  0  0  0  0  0  0  0  0  0
   17.3141    6.4463   12.7931 H   0  0  0  0  0  0  0  0  0  0  0  0
   17.0573    8.8384   12.1450 H   0  0  0  0  0  0  0  0  0  0  0  0
   21.3155    9.3477   12.4070 H   0  0  0  0  0  0  0  0  0  0  0  0
   21.5552    6.9582   13.0855 H   0  0  0  0  0  0  0  0  0  0  0  0
   18.3041   10.7982   10.9721 H   0  0  0  0  0  0  0  0  0  0  0  0
   21.2918   10.9637   11.7990 H   0  0  0  0  0  0  0  0  0  0  0  0
   20.6820   10.3665   10.2014 H   0  0  0  0  0  0  0  0  0  0  0  0
   13.1940   11.6015   16.6615 H   0  0  0  0  0  0  0  0  0  0  0  0
   18.4630   16.3652   16.2398 H   0  0  0  0  0  0  0  0  0  0  0  0
   19.1975   15.8482   14.6843 H   0  0  0  0  0  0  0  0  0  0  0  0
   17.7454   16.9055   14.6843 H   0  0  0  0  0  0  0  0  0  0  0  0
   22.3757   12.8293   10.8616 H   0  0  0  0  0  0  0  0  0  0  0  0
   22.0002   11.8254    9.4201 H   0  0  0  0  0  0  0  0  0  0  0  0
   21.6094   13.5787    9.4201 H   0  0  0  0  0  0  0  0  0  0  0  0
   18.5193    4.4065   11.9926 H   0  0  0  0  0  0  0  0  0  0  0  0
   17.8211    4.3089   13.6396 H   0  0  0  0  0  0  0  0  0  0  0  0
   21.2724    3.4752   12.3815 H   0  0  0  0  0  0  0  0  0  0  0  0
   22.3567    1.2663   12.7107 H   0  0  0  0  0  0  0  0  0  0  0  0
   21.0592   -0.6057   13.7165 H   0  0  0  0  0  0  0  0  0  0  0  0
   18.7132   -0.2388   14.4116 H   0  0  0  0  0  0  0  0  0  0  0  0
   17.6747    1.9918   14.1536 H   0  0  0  0  0  0  0  0  0  0  0  0
   19.7946   12.4936    9.7782 H   0  0  0  0  0  0  0  0  0  0  0  0
   19.2587   14.8739   13.3328 H   0  0  0  0  0  0  0  0  0  0  0  0
   14.1502   13.7726   17.6056 H   0  0  0  0  0  0  0  0  0  0  0  0
  1  2  1  0
  1 27  1  0
  2  3  1  0
  2 28  1  0
  3 15  1  0
  4 28  1  0
  4 29  1  0
  4 30  2  0
  5  6  1  0
  5 29  1  0
  5 32  2  0
  6  7  2  0
  6 31  1  0
  7  8  1  0
  7 30  1  0
  8 17  2  0
  9 10  2  0
  9 14  1  0
  9 33  1  0
 10 11  1  0
 11 12  2  0
 12 13  1  0
 15 12  1  0
 13 14  2  0
 15 16  1  0
 16 27  1  0
 17 31  1  0
 18 29  1  0
 27 19  1  0
 20 21  1  0
 20 33  1  0
 21 22  2  0
 21 26  1  0
 22 23  1  0
 23 24  2  0
 24 25  1  0
 25 26  2  0
  1 34  1  0
  1 35  1  0
  2 36  1  6
  3 37  1  0
  3 38  1  0
  8 39  1  0
 10 40  1  0
 11 41  1  0
 13 42  1  0
 14 43  1  0
 15 44  1  6
 16 45  1  0
 16 46  1  0
 17 47  1  0
 18 48  1  0
 18 49  1  0
 18 50  1  0
 19 51  1  0
 19 52  1  0
 19 53  1  0
 20 54  1  0
 20 55  1  0
 22 56  1  0
 23 57  1  0
 24 58  1  0
 25 59  1  0
 26 60  1  0
 27 61  1  6
 28 62  1  0
 31 63  1  0
M  CHG  1  27   1
M  END
>  <filename_input>  (11) 
7CD9_FVR_docked.sdf

>  <pdb_id>  (11) 
7CD9_FVR

>  <pose_rank>  (11) 
10

>  <num_atoms_heavy>  (11) 
33

>  <num_torsions>  (11) 
5

>  <pose>  (11) 
[20.16536797187183, 13.353202289490712, 11.550130534124328, -0.6158418502946424, -0.6088433484369731, 2.661798328066691, 1.8088466227375761, 2.1535373689091135, 0.6591360113051803, -0.5129365056254204, 4.104502797065346]

>  <energy>  (11) 
-493.9879440975089

>  <inter_energy>  (11) 
-522.0594946904405

>  <intra_energy>  (11) 
24.56666295199359

>  <rmsd>  (11) 
11.0233

>  <sdf_rank>  (11) 
0

$$$$

     RDKit          3D

 63 67  0  0  0  0  0  0  0  0999 V2000
   16.8834   12.0477   13.2972 C   0  0  0  0  0  0  0  0  0  0  0  0
   18.3959   11.8099   13.5812 C   0  0  1  0  0  0  0  0  0  0  0  0
   18.7295   10.3978   13.4358 C   0  0  0  0  0  0  0  0  0  0  0  0
   19.2475   14.1158   12.8963 C   0  0  0  0  0  0  0  0  0  0  0  0
   20.0774   16.2205   12.2883 C   0  0  0  0  0  0  0  0  0  0  0  0
   19.5425   16.6916   13.4873 C   0  0  0  0  0  0  0  0  0  0  0  0
   18.8673   15.8460   14.3228 C   0  0  0  0  0  0  0  0  0  0  0  0
   18.3980   16.5824   15.4250 C   0  0  0  0  0  0  0  0  0  0  0  0
   18.9555    5.4057   14.2365 C   0  0  0  0  0  0  0  0  0  0  0  0
   17.9956    5.8332   15.1453 C   0  0  0  0  0  0  0  0  0  0  0  0
   17.6642    7.1802   15.2480 C   0  0  0  0  0  0  0  0  0  0  0  0
   18.2111    8.0823   14.3585 C   0  0  0  0  0  0  0  0  0  0  0  0
   19.1706    7.6697   13.4551 C   0  0  0  0  0  0  0  0  0  0  0  0
   19.5010    6.3150   13.3696 C   0  0  0  0  0  0  0  0  0  0  0  0
   17.9148    9.6245   14.3905 C   0  0  2  0  0  0  0  0  0  0  0  0
   16.4168    9.8432   14.0530 C   0  0  0  0  0  0  0  0  0  0  0  0
   18.8448   17.8706   15.1938 C   0  0  0  0  0  0  0  0  0  0  0  0
   20.4352   14.3830   10.7874 C   0  0  0  0  0  0  0  0  0  0  0  0
   14.8174   11.3730   13.8189 C   0  0  0  0  0  0  0  0  0  0  0  0
   19.1891    3.4430   12.8089 C   0  0  0  0  0  0  0  0  0  0  0  0
   20.5386    3.4993   12.0729 C   0  0  0  0  0  0  0  0  0  0  0  0
   21.4259    2.4448   12.1674 C   0  0  0  0  0  0  0  0  0  0  0  0
   22.6420    2.4730   11.5020 C   0  0  0  0  0  0  0  0  0  0  0  0
   22.9808    3.5833   10.7498 C   0  0  0  0  0  0  0  0  0  0  0  0
   22.1066    4.6381   10.6611 C   0  0  0  0  0  0  0  0  0  0  0  0
   20.8864    4.5849   11.3105 C   0  0  0  0  0  0  0  0  0  0  0  0
   16.0503   11.2440   14.1461 N   0  0  2  0  0  0  0  0  0  0  0  0
   19.1216   12.7198   12.6076 N   0  0  0  0  0  0  0  0  0  0  0  0
   19.9227   14.9146   12.0483 N   0  0  0  0  0  0  0  0  0  0  0  0
   18.7049   14.5399   14.0241 N   0  0  0  0  0  0  0  0  0  0  0  0
   19.5293   17.9398   14.0603 N   0  0  0  0  0  0  0  0  0  0  0  0
   20.7232   16.8985   11.5167 O   0  0  0  0  0  0  0  0  0  0  0  0
   19.3381    4.0445   14.0841 O   0  0  0  0  0  0  0  0  0  0  0  0
   16.6507   13.1087   13.4707 H   0  0  0  0  0  0  0  0  0  0  0  0
   16.6823   11.7652   12.2533 H   0  0  0  0  0  0  0  0  0  0  0  0
   18.6911   12.0513   14.6130 H   0  0  0  0  0  0  0  0  0  0  0  0
   18.5107   10.0685   12.4093 H   0  0  0  0  0  0  0  0  0  0  0  0
   19.7991   10.2402   13.6385 H   0  0  0  0  0  0  0  0  0  0  0  0
   17.8085   16.2164   16.2786 H   0  0  0  0  0  0  0  0  0  0  0  0
   17.4923    5.0984   15.7909 H   0  0  0  0  0  0  0  0  0  0  0  0
   16.9722    7.5233   16.0312 H   0  0  0  0  0  0  0  0  0  0  0  0
   19.6717    8.4034   12.8066 H   0  0  0  0  0  0  0  0  0  0  0  0
   20.2069    5.9749   12.5976 H   0  0  0  0  0  0  0  0  0  0  0  0
   18.1701    9.9844   15.3981 H   0  0  0  0  0  0  0  0  0  0  0  0
   16.2261    9.4910   13.0285 H   0  0  0  0  0  0  0  0  0  0  0  0
   15.8132    9.2793   14.7794 H   0  0  0  0  0  0  0  0  0  0  0  0
   18.6572   18.7243   15.8615 H   0  0  0  0  0  0  0  0  0  0  0  0
   21.1850   13.6054   10.9951 H   0  0  0  0  0  0  0  0  0  0  0  0
   19.6067   13.9483   10.2089 H   0  0  0  0  0  0  0  0  0  0  0  0
   20.8998   15.1951   10.2089 H   0  0  0  0  0  0  0  0  0  0  0  0
   14.2015   11.4375   14.7281 H   0  0  0  0  0  0  0  0  0  0  0  0
   14.6899   12.2894   13.2239 H   0  0  0  0  0  0  0  0  0  0  0  0
   14.5030   10.5029   13.2239 H   0  0  0  0  0  0  0  0  0  0  0  0
   18.4292    3.9880   12.2296 H   0  0  0  0  0  0  0  0  0  0  0  0
   18.8701    2.3966   12.9245 H   0  0  0  0  0  0  0  0  0  0  0  0
   21.1636    1.5695   12.7797 H   0  0  0  0  0  0  0  0  0  0  0  0
   23.3320    1.6192   11.5718 H   0  0  0  0  0  0  0  0  0  0  0  0
   23.9467    3.6210   10.2248 H   0  0  0  0  0  0  0  0  0  0  0  0
   22.3769    5.5272   10.0725 H   0  0  0  0  0  0  0  0  0  0  0  0
   20.1843    5.4261   11.2140 H   0  0  0  0  0  0  0  0  0  0  0  0
   16.1870   11.5682   15.1141 H   0  0  0  0  0  0  0  0  0  0  0  0
   19.5226   12.3336   11.7410 H   0  0  0  0  0  0  0  0  0  0  0  0
   19.9749   18.7850   13.6754 H   0  0  0  0  0  0  0  0  0  0  0  0
  1  2  1  0
  1 27  1  0
  2  3  1  0
  2 28  1  0
  3 15  1  0
  4 28  1  0
  4 29  1  0
  4 30  2  0
  5  6  1  0
  5 29  1  0
  5 32  2  0
  6  7  2  0
  6 31  1  0
  7  8  1  0
  7 30  1  0
  8 17  2  0
  9 10  2  0
  9 14  1  0
  9 33  1  0
 10 11  1  0
 11 12  2  0
 12 13  1  0
 15 12  1  0
 13 14  2  0
 15 16  1  0
 16 27  1  0
 17 31  1  0
 18 29  1  0
 27 19  1  0
 20 21  1  0
 20 33  1  0
 21 22  2  0
 21 26  1  0
 22 23  1  0
 23 24  2  0
 24 25  1  0
 25 26  2  0
  1 34  1  0
  1 35  1  0
  2 36  1  1
  3 37  1  0
  3 38  1  0
  8 39  1  0
 10 40  1  0
 11 41  1  0
 13 42  1  0
 14 43  1  0
 15 44  1  1
 16 45  1  0
 16 46  1  0
 17 47  1  0
 18 48  1  0
 18 49  1  0
 18 50  1  0
 19 51  1  0
 19 52  1  0
 19 53  1  0
 20 54  1  0
 20 55  1  0
 22 56  1  0
 23 57  1  0
 24 58  1  0
 25 59  1  0
 26 60  1  0
 27 61  1  1
 28 62  1  0
 31 63  1  0
M  CHG  1  27   1
M  END
>  <filename_input>  (12) 
7CD9_FVR_docked.sdf

>  <pdb_id>  (12) 
7CD9_FVR

>  <pose_rank>  (12) 
11

>  <num_atoms_heavy>  (12) 
33

>  <num_torsions>  (12) 
5

>  <pose>  (12) 
[16.883362562997043, 12.04766972117944, 13.297185687294537, -3.214245608690926, -0.7074977040385287, -1.9711162713588344, -0.06822027574859738, -2.529021978144491, 2.307454232109233, -1.6504759497982702, 0.23760446905599683]

>  <energy>  (12) 
-452.9046844823649

>  <inter_energy>  (12) 
-486.00586541510006

>  <intra_energy>  (12) 
36.03856509020217

>  <rmsd>  (12) 
11.1629

>  <sdf_rank>  (12) 
0

$$$$

     RDKit          3D

 63 67  0  0  0  0  0  0  0  0999 V2000
   20.8829    8.3502   14.3743 C   0  0  0  0  0  0  0  0  0  0  0  0
   19.6342    7.4616   14.6497 C   0  0  1  0  0  0  0  0  0  0  0  0
   18.5336    8.2683   15.1642 C   0  0  0  0  0  0  0  0  0  0  0  0
   18.2745    7.2724   12.4988 C   0  0  0  0  0  0  0  0  0  0  0  0
   17.0638    7.1272   10.4983 C   0  0  0  0  0  0  0  0  0  0  0  0
   16.3478    8.2391   10.9417 C   0  0  0  0  0  0  0  0  0  0  0  0
   16.6238    8.7995   12.1577 C   0  0  0  0  0  0  0  0  0  0  0  0
   15.7327    9.8655   12.3747 C   0  0  0  0  0  0  0  0  0  0  0  0
   15.8819   11.4665   18.0993 C   0  0  0  0  0  0  0  0  0  0  0  0
   15.9040   10.1187   18.4355 C   0  0  0  0  0  0  0  0  0  0  0  0
   16.8555    9.2651   17.8871 C   0  0  0  0  0  0  0  0  0  0  0  0
   17.8558    9.7864   17.0922 C   0  0  0  0  0  0  0  0  0  0  0  0
   17.8401   11.1233   16.7466 C   0  0  0  0  0  0  0  0  0  0  0  0
   16.8726   11.9674   17.2972 C   0  0  0  0  0  0  0  0  0  0  0  0
   18.9725    8.9140   16.4147 C   0  0  2  0  0  0  0  0  0  0  0  0
   20.1855    9.8279   16.1002 C   0  0  0  0  0  0  0  0  0  0  0  0
   14.9534    9.9005   11.2328 C   0  0  0  0  0  0  0  0  0  0  0  0
   18.7897    5.5095   10.8999 C   0  0  0  0  0  0  0  0  0  0  0  0
   22.2492    9.8765   15.2683 C   0  0  0  0  0  0  0  0  0  0  0  0
   13.5829   12.2700   18.2180 C   0  0  0  0  0  0  0  0  0  0  0  0
   13.2127   13.4930   17.3618 C   0  0  0  0  0  0  0  0  0  0  0  0
   13.3558   13.4487   15.9886 C   0  0  0  0  0  0  0  0  0  0  0  0
   13.0167   14.5374   15.1997 C   0  0  0  0  0  0  0  0  0  0  0  0
   12.5484   15.6927   15.7991 C   0  0  0  0  0  0  0  0  0  0  0  0
   12.4140   15.7451   17.1643 C   0  0  0  0  0  0  0  0  0  0  0  0
   12.7330   14.6423   17.9361 C   0  0  0  0  0  0  0  0  0  0  0  0
   21.2922    9.0701   15.5468 N   0  0  2  0  0  0  0  0  0  0  0  0
   19.3380    6.7861   13.3237 N   0  0  0  0  0  0  0  0  0  0  0  0
   18.0366    6.6939   11.3064 N   0  0  0  0  0  0  0  0  0  0  0  0
   17.5933    8.3075   12.9575 N   0  0  0  0  0  0  0  0  0  0  0  0
   15.3177    8.9530   10.3796 N   0  0  0  0  0  0  0  0  0  0  0  0
   16.9054    6.6011    9.4166 O   0  0  0  0  0  0  0  0  0  0  0  0
   14.9358   12.3891   18.6250 O   0  0  0  0  0  0  0  0  0  0  0  0
   21.7118    7.7073   14.0434 H   0  0  0  0  0  0  0  0  0  0  0  0
   20.6175    9.0828   13.5978 H   0  0  0  0  0  0  0  0  0  0  0  0
   19.7994    6.7034   15.4294 H   0  0  0  0  0  0  0  0  0  0  0  0
   18.2599    9.0365   14.4260 H   0  0  0  0  0  0  0  0  0  0  0  0
   17.6570    7.6320   15.3557 H   0  0  0  0  0  0  0  0  0  0  0  0
   15.6696   10.5231   13.2542 H   0  0  0  0  0  0  0  0  0  0  0  0
   15.1611    9.7223   19.1432 H   0  0  0  0  0  0  0  0  0  0  0  0
   16.8110    8.1840   18.0852 H   0  0  0  0  0  0  0  0  0  0  0  0
   18.5851   11.5212   16.0418 H   0  0  0  0  0  0  0  0  0  0  0  0
   16.9070   13.0460   17.0843 H   0  0  0  0  0  0  0  0  0  0  0  0
   19.2302    8.1100   17.1198 H   0  0  0  0  0  0  0  0  0  0  0  0
   19.8773   10.5935   15.3730 H   0  0  0  0  0  0  0  0  0  0  0  0
   20.5205   10.2926   17.0393 H   0  0  0  0  0  0  0  0  0  0  0  0
   14.1396   10.6190   11.0557 H   0  0  0  0  0  0  0  0  0  0  0  0
   19.1335    4.9689   11.7941 H   0  0  0  0  0  0  0  0  0  0  0  0
   18.1435    4.8520   10.2998 H   0  0  0  0  0  0  0  0  0  0  0  0
   19.6592    5.8159   10.2998 H   0  0  0  0  0  0  0  0  0  0  0  0
   22.6952   10.2523   16.2010 H   0  0  0  0  0  0  0  0  0  0  0  0
   23.0155    9.3477   14.6825 H   0  0  0  0  0  0  0  0  0  0  0  0
   21.8580   10.7213   14.6825 H   0  0  0  0  0  0  0  0  0  0  0  0
   12.9326   12.2287   19.1042 H   0  0  0  0  0  0  0  0  0  0  0  0
   13.4490   11.3491   17.6314 H   0  0  0  0  0  0  0  0  0  0  0  0
   13.7446   12.5358   15.5138 H   0  0  0  0  0  0  0  0  0  0  0  0
   13.1193   14.4827   14.1059 H   0  0  0  0  0  0  0  0  0  0  0  0
   12.2848   16.5660   15.1843 H   0  0  0  0  0  0  0  0  0  0  0  0
   12.0521   16.6657   17.6455 H   0  0  0  0  0  0  0  0  0  0  0  0
   12.6000   14.6878   19.0270 H   0  0  0  0  0  0  0  0  0  0  0  0
   21.6126    8.3794   16.2405 H   0  0  0  0  0  0  0  0  0  0  0  0
   19.9010    5.9796   13.0180 H   0  0  0  0  0  0  0  0  0  0  0  0
   14.8997    8.7816    9.4540 H   0  0  0  0  0  0  0  0  0  0  0  0
  1  2  1  0
  1 27  1  0
  2  3  1  0
  2 28  1  0
  3 15  1  0
  4 28  1  0
  4 29  1  0
  4 30  2  0
  5  6  1  0
  5 29  1  0
  5 32  2  0
  6  7  2  0
  6 31  1  0
  7  8  1  0
  7 30  1  0
  8 17  2  0
  9 10  2  0
  9 14  1  0
  9 33  1  0
 10 11  1  0
 11 12  2  0
 12 13  1  0
 15 12  1  0
 13 14  2  0
 15 16  1  0
 16 27  1  0
 17 31  1  0
 18 29  1  0
 27 19  1  0
 20 21  1  0
 20 33  1  0
 21 22  2  0
 21 26  1  0
 22 23  1  0
 23 24  2  0
 24 25  1  0
 25 26  2  0
  1 34  1  0
  1 35  1  0
  2 36  1  1
  3 37  1  0
  3 38  1  0
  8 39  1  0
 10 40  1  0
 11 41  1  0
 13 42  1  0
 14 43  1  0
 15 44  1  1
 16 45  1  0
 16 46  1  0
 17 47  1  0
 18 48  1  0
 18 49  1  0
 18 50  1  0
 19 51  1  0
 19 52  1  0
 19 53  1  0
 20 54  1  0
 20 55  1  0
 22 56  1  0
 23 57  1  0
 24 58  1  0
 25 59  1  0
 26 60  1  0
 27 61  1  1
 28 62  1  0
 31 63  1  0
M  CHG  1  27   1
M  END
>  <filename_input>  (13) 
7CD9_FVR_docked.sdf

>  <pdb_id>  (13) 
7CD9_FVR

>  <pose_rank>  (13) 
12

>  <num_atoms_heavy>  (13) 
33

>  <num_torsions>  (13) 
5

>  <pose>  (13) 
[20.882907553736075, 8.350222952445591, 14.374320556402708, -2.6444521042164437, 2.8839583283662487, 1.8142432300370703, -3.2325269977304827, -4.136919025897416, -1.0275969673971477, 0.9811972047732171, 0.2306862945648848]

>  <energy>  (13) 
-488.76538860125044

>  <inter_energy>  (13) 
-549.0749705372195

>  <intra_energy>  (13) 
52.381515507679374

>  <rmsd>  (13) 
5.31915

>  <sdf_rank>  (13) 
0

$$$$

     RDKit          3D

 63 67  0  0  0  0  0  0  0  0999 V2000
   17.9331    7.3411   14.7331 C   0  0  0  0  0  0  0  0  0  0  0  0
   18.1486    6.9293   13.2469 C   0  0  1  0  0  0  0  0  0  0  0  0
   18.0640    5.4810   13.0983 C   0  0  0  0  0  0  0  0  0  0  0  0
   16.6954    8.9989   12.9070 C   0  0  0  0  0  0  0  0  0  0  0  0
   15.3970   10.9178   12.5595 C   0  0  0  0  0  0  0  0  0  0  0  0
   16.0345   11.4569   13.6769 C   0  0  0  0  0  0  0  0  0  0  0  0
   16.9611   10.7243   14.3650 C   0  0  0  0  0  0  0  0  0  0  0  0
   17.4078   11.4808   15.4630 C   0  0  0  0  0  0  0  0  0  0  0  0
   19.3599    0.5241   13.8374 C   0  0  0  0  0  0  0  0  0  0  0  0
   18.1708    1.1406   13.4685 C   0  0  0  0  0  0  0  0  0  0  0  0
   18.0403    2.5243   13.5253 C   0  0  0  0  0  0  0  0  0  0  0  0
   19.1397    3.2962   13.8407 C   0  0  0  0  0  0  0  0  0  0  0  0
   20.3247    2.6942   14.2149 C   0  0  0  0  0  0  0  0  0  0  0  0
   20.4387    1.3028   14.1626 C   0  0  0  0  0  0  0  0  0  0  0  0
   19.1021    4.8632   13.9432 C   0  0  2  0  0  0  0  0  0  0  0  0
   18.8334    5.2517   15.4205 C   0  0  0  0  0  0  0  0  0  0  0  0
   16.7151   12.6736   15.3638 C   0  0  0  0  0  0  0  0  0  0  0  0
   15.1144    9.0691   11.0562 C   0  0  0  0  0  0  0  0  0  0  0  0
   18.6008    6.9573   16.8313 C   0  0  0  0  0  0  0  0  0  0  0  0
   18.6547   -1.6689   13.0384 C   0  0  0  0  0  0  0  0  0  0  0  0
   17.4344   -2.0120   13.9095 C   0  0  0  0  0  0  0  0  0  0  0  0
   17.5963   -2.7219   15.0833 C   0  0  0  0  0  0  0  0  0  0  0  0
   16.5094   -3.0307   15.8869 C   0  0  0  0  0  0  0  0  0  0  0  0
   15.2412   -2.6404   15.4961 C   0  0  0  0  0  0  0  0  0  0  0  0
   15.0740   -1.9435   14.3252 C   0  0  0  0  0  0  0  0  0  0  0  0
   16.1710   -1.6213   13.5464 C   0  0  0  0  0  0  0  0  0  0  0  0
   18.8683    6.6904   15.6062 N   0  0  2  0  0  0  0  0  0  0  0  0
   17.0889    7.6927   12.4746 N   0  0  0  0  0  0  0  0  0  0  0  0
   15.7806    9.6889   12.1996 N   0  0  0  0  0  0  0  0  0  0  0  0
   17.2936    9.4724   13.9859 N   0  0  0  0  0  0  0  0  0  0  0  0
   15.9131   12.6709   14.3078 N   0  0  0  0  0  0  0  0  0  0  0  0
   14.5964   11.5196   11.8747 O   0  0  0  0  0  0  0  0  0  0  0  0
   19.5556   -0.8840   13.8018 O   0  0  0  0  0  0  0  0  0  0  0  0
   18.0598    8.4301   14.8231 H   0  0  0  0  0  0  0  0  0  0  0  0
   16.9186    7.0361   15.0294 H   0  0  0  0  0  0  0  0  0  0  0  0
   19.1483    7.1811   12.8632 H   0  0  0  0  0  0  0  0  0  0  0  0
   17.0704    5.1327   13.4168 H   0  0  0  0  0  0  0  0  0  0  0  0
   18.2178    5.2003   12.0459 H   0  0  0  0  0  0  0  0  0  0  0  0
   18.1425   11.1896   16.2281 H   0  0  0  0  0  0  0  0  0  0  0  0
   17.3233    0.5278   13.1277 H   0  0  0  0  0  0  0  0  0  0  0  0
   17.0693    2.9989   13.3205 H   0  0  0  0  0  0  0  0  0  0  0  0
   21.1740    3.3065   14.5522 H   0  0  0  0  0  0  0  0  0  0  0  0
   21.4055    0.8274   14.3850 H   0  0  0  0  0  0  0  0  0  0  0  0
   20.0732    5.2363   13.5858 H   0  0  0  0  0  0  0  0  0  0  0  0
   17.8416    4.8773   15.7139 H   0  0  0  0  0  0  0  0  0  0  0  0
   19.6211    4.8038   16.0441 H   0  0  0  0  0  0  0  0  0  0  0  0
   16.8159   13.5130   16.0675 H   0  0  0  0  0  0  0  0  0  0  0  0
   14.3531    8.3609   11.4151 H   0  0  0  0  0  0  0  0  0  0  0  0
   14.6326    9.8476   10.4464 H   0  0  0  0  0  0  0  0  0  0  0  0
   15.8560    8.5323   10.4464 H   0  0  0  0  0  0  0  0  0  0  0  0
   19.2259    6.3338   17.4874 H   0  0  0  0  0  0  0  0  0  0  0  0
   18.8076    8.0194   17.0288 H   0  0  0  0  0  0  0  0  0  0  0  0
   17.5391    6.7476   17.0288 H   0  0  0  0  0  0  0  0  0  0  0  0
   19.1524   -2.5960   12.7178 H   0  0  0  0  0  0  0  0  0  0  0  0
   18.3326   -1.1083   12.1484 H   0  0  0  0  0  0  0  0  0  0  0  0
   18.6029   -3.0472   15.3851 H   0  0  0  0  0  0  0  0  0  0  0  0
   16.6545   -3.5816   16.8279 H   0  0  0  0  0  0  0  0  0  0  0  0
   14.3703   -2.8875   16.1209 H   0  0  0  0  0  0  0  0  0  0  0  0
   14.0659   -1.6407   14.0057 H   0  0  0  0  0  0  0  0  0  0  0  0
   16.0277   -1.0430   12.6217 H   0  0  0  0  0  0  0  0  0  0  0  0
   19.8083    7.0411   15.3731 H   0  0  0  0  0  0  0  0  0  0  0  0
   16.6539    7.2719   11.6413 H   0  0  0  0  0  0  0  0  0  0  0  0
   15.3035   13.4464   14.0114 H   0  0  0  0  0  0  0  0  0  0  0  0
  1  2  1  0
  1 27  1  0
  2  3  1  0
  2 28  1  0
  3 15  1  0
  4 28  1  0
  4 29  1  0
  4 30  2  0
  5  6  1  0
  5 29  1  0
  5 32  2  0
  6  7  2  0
  6 31  1  0
  7  8  1  0
  7 30  1  0
  8 17  2  0
  9 10  2  0
  9 14  1  0
  9 33  1  0
 10 11  1  0
 11 12  2  0
 12 13  1  0
 15 12  1  0
 13 14  2  0
 15 16  1  0
 16 27  1  0
 17 31  1  0
 18 29  1  0
 27 19  1  0
 20 21  1  0
 20 33  1  0
 21 22  2  0
 21 26  1  0
 22 23  1  0
 23 24  2  0
 24 25  1  0
 25 26  2  0
  1 34  1  0
  1 35  1  0
  2 36  1  6
  3 37  1  0
  3 38  1  0
  8 39  1  0
 10 40  1  0
 11 41  1  0
 13 42  1  0
 14 43  1  0
 15 44  1  6
 16 45  1  0
 16 46  1  0
 17 47  1  0
 18 48  1  0
 18 49  1  0
 18 50  1  0
 19 51  1  0
 19 52  1  0
 19 53  1  0
 20 54  1  0
 20 55  1  0
 22 56  1  0
 23 57  1  0
 24 58  1  0
 25 59  1  0
 26 60  1  0
 27 61  1  6
 28 62  1  0
 31 63  1  0
M  CHG  1  27   1
M  END
>  <filename_input>  (14) 
7CD9_FVR_docked.sdf

>  <pdb_id>  (14) 
7CD9_FVR

>  <pose_rank>  (14) 
13

>  <num_atoms_heavy>  (14) 
33

>  <num_torsions>  (14) 
5

>  <pose>  (14) 
[17.93305860959835, 7.341115712157978, 14.733133133479505, 2.4829304439254587, 1.0678313864376918, -0.7388996674600073, -0.8608677200296753, 0.2443123733592169, 0.48478116275188093, 1.4382890063933984, -2.4191966786234786]

>  <energy>  (14) 
-460.1816813621629

>  <inter_energy>  (14) 
-536.5627430438105

>  <intra_energy>  (14) 
70.00225334281147

>  <rmsd>  (14) 
11.294

>  <sdf_rank>  (14) 
0

$$$$

     RDKit          3D

 63 67  0  0  0  0  0  0  0  0999 V2000
   20.1983    9.0988   15.0625 C   0  0  0  0  0  0  0  0  0  0  0  0
   18.7854    8.4761   14.8605 C   0  0  1  0  0  0  0  0  0  0  0  0
   17.7628    9.5157   14.8532 C   0  0  0  0  0  0  0  0  0  0  0  0
   17.8491    7.8132   12.5813 C   0  0  0  0  0  0  0  0  0  0  0  0
   17.0201    7.2422   10.4658 C   0  0  0  0  0  0  0  0  0  0  0  0
   15.9544    8.1001   10.7377 C   0  0  0  0  0  0  0  0  0  0  0  0
   15.8841    8.7580   11.9339 C   0  0  0  0  0  0  0  0  0  0  0  0
   14.6972    9.5116   11.9639 C   0  0  0  0  0  0  0  0  0  0  0  0
   14.8491   13.4076   16.2837 C   0  0  0  0  0  0  0  0  0  0  0  0
   14.6703   12.2794   17.0743 C   0  0  0  0  0  0  0  0  0  0  0  0
   15.5789   11.2273   17.0272 C   0  0  0  0  0  0  0  0  0  0  0  0
   16.7278   11.3574   16.2740 C   0  0  0  0  0  0  0  0  0  0  0  0
   16.9130   12.4716   15.4796 C   0  0  0  0  0  0  0  0  0  0  0  0
   15.9872   13.5166   15.5295 C   0  0  0  0  0  0  0  0  0  0  0  0
   17.8138   10.2303   16.1417 C   0  0  2  0  0  0  0  0  0  0  0  0
   19.2146   10.8788   16.2924 C   0  0  0  0  0  0  0  0  0  0  0  0
   14.1059    9.2714   10.7371 C   0  0  0  0  0  0  0  0  0  0  0  0
   19.0748    6.2358   11.1887 C   0  0  0  0  0  0  0  0  0  0  0  0
   21.4020   10.4724   16.3509 C   0  0  0  0  0  0  0  0  0  0  0  0
   12.5786   14.2672   16.5098 C   0  0  0  0  0  0  0  0  0  0  0  0
   11.8157   15.6005   16.4314 C   0  0  0  0  0  0  0  0  0  0  0  0
   11.1561   15.9562   15.2710 C   0  0  0  0  0  0  0  0  0  0  0  0
   10.4540   17.1488   15.1855 C   0  0  0  0  0  0  0  0  0  0  0  0
   10.4318   18.0050   16.2717 C   0  0  0  0  0  0  0  0  0  0  0  0
   11.0943   17.6605   17.4237 C   0  0  0  0  0  0  0  0  0  0  0  0
   11.7698   16.4559   17.5023 C   0  0  0  0  0  0  0  0  0  0  0  0
   20.2678    9.8811   16.2641 N   0  0  2  0  0  0  0  0  0  0  0  0
   18.8857    7.6988   13.5612 N   0  0  0  0  0  0  0  0  0  0  0  0
   17.9576    7.1502   11.4143 N   0  0  0  0  0  0  0  0  0  0  0  0
   16.8368    8.6089   12.8781 N   0  0  0  0  0  0  0  0  0  0  0  0
   14.8464    8.4502   10.0053 N   0  0  0  0  0  0  0  0  0  0  0  0
   17.1732    6.6569    9.4141 O   0  0  0  0  0  0  0  0  0  0  0  0
   13.9567   14.5149   16.2863 O   0  0  0  0  0  0  0  0  0  0  0  0
   20.9398    8.2884   15.1216 H   0  0  0  0  0  0  0  0  0  0  0  0
   20.4056    9.7619   14.2096 H   0  0  0  0  0  0  0  0  0  0  0  0
   18.4815    7.8054   15.6776 H   0  0  0  0  0  0  0  0  0  0  0  0
   17.9552   10.2199   14.0304 H   0  0  0  0  0  0  0  0  0  0  0  0
   16.7690    9.0661   14.7104 H   0  0  0  0  0  0  0  0  0  0  0  0
   14.3235   10.1485   12.7792 H   0  0  0  0  0  0  0  0  0  0  0  0
   13.8006   12.2174   17.7450 H   0  0  0  0  0  0  0  0  0  0  0  0
   15.3834   10.2997   17.5853 H   0  0  0  0  0  0  0  0  0  0  0  0
   17.7844   12.5360   14.8114 H   0  0  0  0  0  0  0  0  0  0  0  0
   16.1743   14.4370   14.9570 H   0  0  0  0  0  0  0  0  0  0  0  0
   17.6122    9.4897   16.9296 H   0  0  0  0  0  0  0  0  0  0  0  0
   19.3712   11.5876   15.4659 H   0  0  0  0  0  0  0  0  0  0  0  0
   19.2537   11.3948   17.2631 H   0  0  0  0  0  0  0  0  0  0  0  0
   13.1484    9.7041   10.4116 H   0  0  0  0  0  0  0  0  0  0  0  0
   19.4790    5.9049   12.1568 H   0  0  0  0  0  0  0  0  0  0  0  0
   18.7243    5.3620   10.6198 H   0  0  0  0  0  0  0  0  0  0  0  0
   19.8621    6.7520   10.6198 H   0  0  0  0  0  0  0  0  0  0  0  0
   21.6641   10.6090   17.4105 H   0  0  0  0  0  0  0  0  0  0  0  0
   22.1728    9.8613   15.8584 H   0  0  0  0  0  0  0  0  0  0  0  0
   21.3424   11.4541   15.8584 H   0  0  0  0  0  0  0  0  0  0  0  0
   12.4401   13.8201   17.5052 H   0  0  0  0  0  0  0  0  0  0  0  0
   12.1957   13.5724   15.7478 H   0  0  0  0  0  0  0  0  0  0  0  0
   11.1885   15.2832   14.4015 H   0  0  0  0  0  0  0  0  0  0  0  0
    9.9188   17.4120   14.2612 H   0  0  0  0  0  0  0  0  0  0  0  0
    9.8857   18.9580   16.2126 H   0  0  0  0  0  0  0  0  0  0  0  0
   11.0878   18.3435   18.2859 H   0  0  0  0  0  0  0  0  0  0  0  0
   12.2781   16.1800   18.4380 H   0  0  0  0  0  0  0  0  0  0  0  0
   20.1503    9.2392   17.0610 H   0  0  0  0  0  0  0  0  0  0  0  0
   19.6978    7.0903   13.3851 H   0  0  0  0  0  0  0  0  0  0  0  0
   14.6281    8.1297    9.0511 H   0  0  0  0  0  0  0  0  0  0  0  0
  1  2  1  0
  1 27  1  0
  2  3  1  0
  2 28  1  0
  3 15  1  0
  4 28  1  0
  4 29  1  0
  4 30  2  0
  5  6  1  0
  5 29  1  0
  5 32  2  0
  6  7  2  0
  6 31  1  0
  7  8  1  0
  7 30  1  0
  8 17  2  0
  9 10  2  0
  9 14  1  0
  9 33  1  0
 10 11  1  0
 11 12  2  0
 12 13  1  0
 15 12  1  0
 13 14  2  0
 15 16  1  0
 16 27  1  0
 17 31  1  0
 18 29  1  0
 27 19  1  0
 20 21  1  0
 20 33  1  0
 21 22  2  0
 21 26  1  0
 22 23  1  0
 23 24  2  0
 24 25  1  0
 25 26  2  0
  1 34  1  0
  1 35  1  0
  2 36  1  1
  3 37  1  0
  3 38  1  0
  8 39  1  0
 10 40  1  0
 11 41  1  0
 13 42  1  0
 14 43  1  0
 15 44  1  1
 16 45  1  0
 16 46  1  0
 17 47  1  0
 18 48  1  0
 18 49  1  0
 18 50  1  0
 19 51  1  0
 19 52  1  0
 19 53  1  0
 20 54  1  0
 20 55  1  0
 22 56  1  0
 23 57  1  0
 24 58  1  0
 25 59  1  0
 26 60  1  0
 27 61  1  1
 28 62  1  0
 31 63  1  0
M  CHG  1  27   1
M  END
>  <filename_input>  (15) 
7CD9_FVR_docked.sdf

>  <pdb_id>  (15) 
7CD9_FVR

>  <pose_rank>  (15) 
14

>  <num_atoms_heavy>  (15) 
33

>  <num_torsions>  (15) 
5

>  <pose>  (15) 
[20.198335033225575, 9.098841001826292, 15.062497576773639, -2.153046139071259, 3.1595816287718854, 1.1752005687565459, -3.800028724863151, -3.7477356697910484, -0.3880659510671427, -0.17385782764705626, 0.35042828272251586]

>  <energy>  (15) 
-518.7079531812492

>  <inter_energy>  (15) 
-565.9820918052418

>  <intra_energy>  (15) 
55.50856509388549

>  <rmsd>  (15) 
5.4565

>  <sdf_rank>  (15) 
0

$$$$

     RDKit          3D

 63 67  0  0  0  0  0  0  0  0999 V2000
   18.8096    9.9595   15.4267 C   0  0  0  0  0  0  0  0  0  0  0  0
   18.6636   10.1553   13.8887 C   0  0  1  0  0  0  0  0  0  0  0  0
   19.1258    8.9708   13.1745 C   0  0  0  0  0  0  0  0  0  0  0  0
   16.4690    9.8131   12.6327 C   0  0  0  0  0  0  0  0  0  0  0  0
   14.4386    9.4639   11.5173 C   0  0  0  0  0  0  0  0  0  0  0  0
   15.1150    8.5204   10.7442 C   0  0  0  0  0  0  0  0  0  0  0  0
   16.4467    8.2869   10.9465 C   0  0  0  0  0  0  0  0  0  0  0  0
   16.8837    7.3332   10.0101 C   0  0  0  0  0  0  0  0  0  0  0  0
   22.4962    5.4226   11.4997 C   0  0  0  0  0  0  0  0  0  0  0  0
   21.3137    5.1923   12.1915 C   0  0  0  0  0  0  0  0  0  0  0  0
   20.6803    6.2225   12.8790 C   0  0  0  0  0  0  0  0  0  0  0  0
   21.1710    7.5080   12.7757 C   0  0  0  0  0  0  0  0  0  0  0  0
   22.3488    7.7476   12.0958 C   0  0  0  0  0  0  0  0  0  0  0  0
   22.9796    6.7015   11.4180 C   0  0  0  0  0  0  0  0  0  0  0  0
   20.5414    8.7418   13.5165 C   0  0  2  0  0  0  0  0  0  0  0  0
   20.6485    8.5029   15.0452 C   0  0  0  0  0  0  0  0  0  0  0  0
   15.7504    7.0219    9.2813 C   0  0  0  0  0  0  0  0  0  0  0  0
   14.4999   11.0916   13.2792 C   0  0  0  0  0  0  0  0  0  0  0  0
   20.2332    9.3785   17.0488 C   0  0  0  0  0  0  0  0  0  0  0  0
   23.5130    4.6575    9.4199 C   0  0  0  0  0  0  0  0  0  0  0  0
   24.8521    5.4116    9.3553 C   0  0  0  0  0  0  0  0  0  0  0  0
   25.3111    6.1076   10.4565 C   0  0  0  0  0  0  0  0  0  0  0  0
   26.5210    6.7840   10.4205 C   0  0  0  0  0  0  0  0  0  0  0  0
   27.2691    6.7792    9.2570 C   0  0  0  0  0  0  0  0  0  0  0  0
   26.8121    6.0972    8.1566 C   0  0  0  0  0  0  0  0  0  0  0  0
   25.6150    5.4066    8.2157 C   0  0  0  0  0  0  0  0  0  0  0  0
   20.1602    9.6441   15.7967 N   0  0  2  0  0  0  0  0  0  0  0  0
   17.1952   10.4720   13.6751 N   0  0  0  0  0  0  0  0  0  0  0  0
   15.1574   10.0694   12.4680 N   0  0  0  0  0  0  0  0  0  0  0  0
   17.1423    8.9469   11.8963 N   0  0  0  0  0  0  0  0  0  0  0  0
   14.7026    7.7088    9.7156 N   0  0  0  0  0  0  0  0  0  0  0  0
   13.2513    9.6964   11.4252 O   0  0  0  0  0  0  0  0  0  0  0  0
   23.1909    4.4127   10.7788 O   0  0  0  0  0  0  0  0  0  0  0  0
   18.5086   10.8878   15.9342 H   0  0  0  0  0  0  0  0  0  0  0  0
   18.1668    9.1190   15.7275 H   0  0  0  0  0  0  0  0  0  0  0  0
   19.2860   10.9699   13.4899 H   0  0  0  0  0  0  0  0  0  0  0  0
   18.5257    8.0990   13.4743 H   0  0  0  0  0  0  0  0  0  0  0  0
   19.0190    9.1190   12.0898 H   0  0  0  0  0  0  0  0  0  0  0  0
   17.8981    6.9265    9.8854 H   0  0  0  0  0  0  0  0  0  0  0  0
   20.8734    4.1843   12.1957 H   0  0  0  0  0  0  0  0  0  0  0  0
   19.7963    6.0141   13.4995 H   0  0  0  0  0  0  0  0  0  0  0  0
   22.7878    8.7562   12.0881 H   0  0  0  0  0  0  0  0  0  0  0  0
   23.8743    6.9072   10.8120 H   0  0  0  0  0  0  0  0  0  0  0  0
   21.0993    9.6338   13.1955 H   0  0  0  0  0  0  0  0  0  0  0  0
   20.0521    7.6178   15.3115 H   0  0  0  0  0  0  0  0  0  0  0  0
   21.7083    8.3511   15.2976 H   0  0  0  0  0  0  0  0  0  0  0  0
   15.7220    6.3004    8.4515 H   0  0  0  0  0  0  0  0  0  0  0  0
   14.6464   10.8639   14.3453 H   0  0  0  0  0  0  0  0  0  0  0  0
   14.9346   12.0761   13.0514 H   0  0  0  0  0  0  0  0  0  0  0  0
   13.4238   11.1044   13.0514 H   0  0  0  0  0  0  0  0  0  0  0  0
   19.9857   10.2792   17.6298 H   0  0  0  0  0  0  0  0  0  0  0  0
   19.5222    8.5762   17.2955 H   0  0  0  0  0  0  0  0  0  0  0  0
   21.2543    9.0521   17.2955 H   0  0  0  0  0  0  0  0  0  0  0  0
   22.7229    5.2669    8.9568 H   0  0  0  0  0  0  0  0  0  0  0  0
   23.5948    3.7039    8.8778 H   0  0  0  0  0  0  0  0  0  0  0  0
   24.7077    6.1257   11.3761 H   0  0  0  0  0  0  0  0  0  0  0  0
   26.8831    7.3201   11.3102 H   0  0  0  0  0  0  0  0  0  0  0  0
   28.2262    7.3197    9.2136 H   0  0  0  0  0  0  0  0  0  0  0  0
   27.3990    6.0999    7.2263 H   0  0  0  0  0  0  0  0  0  0  0  0
   25.2697    4.8450    7.3352 H   0  0  0  0  0  0  0  0  0  0  0  0
   20.7420   10.4667   15.5831 H   0  0  0  0  0  0  0  0  0  0  0  0
   16.7221   11.1595   14.2789 H   0  0  0  0  0  0  0  0  0  0  0  0
   13.7437    7.6447    9.3452 H   0  0  0  0  0  0  0  0  0  0  0  0
  1  2  1  0
  1 27  1  0
  2  3  1  0
  2 28  1  0
  3 15  1  0
  4 28  1  0
  4 29  1  0
  4 30  2  0
  5  6  1  0
  5 29  1  0
  5 32  2  0
  6  7  2  0
  6 31  1  0
  7  8  1  0
  7 30  1  0
  8 17  2  0
  9 10  2  0
  9 14  1  0
  9 33  1  0
 10 11  1  0
 11 12  2  0
 12 13  1  0
 15 12  1  0
 13 14  2  0
 15 16  1  0
 16 27  1  0
 17 31  1  0
 18 29  1  0
 27 19  1  0
 20 21  1  0
 20 33  1  0
 21 22  2  0
 21 26  1  0
 22 23  1  0
 23 24  2  0
 24 25  1  0
 25 26  2  0
  1 34  1  0
  1 35  1  0
  2 36  1  6
  3 37  1  0
  3 38  1  0
  8 39  1  0
 10 40  1  0
 11 41  1  0
 13 42  1  0
 14 43  1  0
 15 44  1  1
 16 45  1  0
 16 46  1  0
 17 47  1  0
 18 48  1  0
 18 49  1  0
 18 50  1  0
 19 51  1  0
 19 52  1  0
 19 53  1  0
 20 54  1  0
 20 55  1  0
 22 56  1  0
 23 57  1  0
 24 58  1  0
 25 59  1  0
 26 60  1  0
 27 61  1  1
 28 62  1  0
 31 63  1  0
M  CHG  1  27   1
M  END
>  <filename_input>  (16) 
7CD9_FVR_docked.sdf

>  <pdb_id>  (16) 
7CD9_FVR

>  <pose_rank>  (16) 
15

>  <num_atoms_heavy>  (16) 
33

>  <num_torsions>  (16) 
5

>  <pose>  (16) 
[18.80958269197397, 9.95948415177652, 15.42666783954259, 2.284260452013159, 1.9743149367877713, -0.7777549113119956, 2.491580340869084, -0.2967861461647517, 2.394397689334626, -1.8354923709108348, -1.7393239149749158]

>  <energy>  (16) 
-395.83132225232714

>  <inter_energy>  (16) 
-523.9953791649652

>  <intra_energy>  (16) 
131.6556317113591

>  <rmsd>  (16) 
10.6601

>  <sdf_rank>  (16) 
0

$$$$

     RDKit          3D

 63 67  0  0  0  0  0  0  0  0999 V2000
   15.0961   10.9742   13.4244 C   0  0  0  0  0  0  0  0  0  0  0  0
   16.4874   10.7195   12.7729 C   0  0  1  0  0  0  0  0  0  0  0  0
   17.4465   10.2643   13.7727 C   0  0  0  0  0  0  0  0  0  0  0  0
   16.8412    8.4244   11.7155 C   0  0  0  0  0  0  0  0  0  0  0  0
   17.1207    6.3001   10.7679 C   0  0  0  0  0  0  0  0  0  0  0  0
   17.9375    6.0060   11.8597 C   0  0  0  0  0  0  0  0  0  0  0  0
   18.1787    6.9513   12.8173 C   0  0  0  0  0  0  0  0  0  0  0  0
   19.0624    6.4122   13.7692 C   0  0  0  0  0  0  0  0  0  0  0  0
   20.3125   10.4403   18.0708 C   0  0  0  0  0  0  0  0  0  0  0  0
   20.1504    9.5046   17.0568 C   0  0  0  0  0  0  0  0  0  0  0  0
   19.2528    9.7303   16.0183 C   0  0  0  0  0  0  0  0  0  0  0  0
   18.6043   10.9454   15.9354 C   0  0  0  0  0  0  0  0  0  0  0  0
   18.7532   11.8804   16.9406 C   0  0  0  0  0  0  0  0  0  0  0  0
   19.6509   11.6363   17.9829 C   0  0  0  0  0  0  0  0  0  0  0  0
   17.5649   11.3021   14.8130 C   0  0  2  0  0  0  0  0  0  0  0  0
   16.1763   11.4992   15.4753 C   0  0  0  0  0  0  0  0  0  0  0  0
   19.3003    5.1237   13.3271 C   0  0  0  0  0  0  0  0  0  0  0  0
   15.7410    7.8859    9.6109 C   0  0  0  0  0  0  0  0  0  0  0  0
   14.0466   12.0227   15.0962 C   0  0  0  0  0  0  0  0  0  0  0  0
   20.8313   10.7628   20.4312 C   0  0  0  0  0  0  0  0  0  0  0  0
   20.7966    9.5923   21.4285 C   0  0  0  0  0  0  0  0  0  0  0  0
   21.7513    9.4978   22.4223 C   0  0  0  0  0  0  0  0  0  0  0  0
   21.7295    8.4560   23.3369 C   0  0  0  0  0  0  0  0  0  0  0  0
   20.7493    7.4849   23.2392 C   0  0  0  0  0  0  0  0  0  0  0  0
   19.8042    7.5690   22.2471 C   0  0  0  0  0  0  0  0  0  0  0  0
   19.8243    8.6277   21.3571 C   0  0  0  0  0  0  0  0  0  0  0  0
   15.1796   11.9143   14.5059 N   0  0  2  0  0  0  0  0  0  0  0  0
   16.2209    9.7132   11.6690 N   0  0  0  0  0  0  0  0  0  0  0  0
   16.5753    7.5204   10.7535 N   0  0  0  0  0  0  0  0  0  0  0  0
   17.6339    8.1839   12.7450 N   0  0  0  0  0  0  0  0  0  0  0  0
   18.6320    4.8738   12.2094 N   0  0  0  0  0  0  0  0  0  0  0  0
   16.8272    5.5030    9.9015 O   0  0  0  0  0  0  0  0  0  0  0  0
   21.2125   10.2681   19.1583 O   0  0  0  0  0  0  0  0  0  0  0  0
   14.4118   11.3706   12.6598 H   0  0  0  0  0  0  0  0  0  0  0  0
   14.7268   10.0198   13.8278 H   0  0  0  0  0  0  0  0  0  0  0  0
   16.9468   11.6262   12.3525 H   0  0  0  0  0  0  0  0  0  0  0  0
   17.0947    9.3249   14.2239 H   0  0  0  0  0  0  0  0  0  0  0  0
   18.4254   10.0876   13.3031 H   0  0  0  0  0  0  0  0  0  0  0  0
   19.4720    6.9044   14.6636 H   0  0  0  0  0  0  0  0  0  0  0  0
   20.7382    8.5750   17.0753 H   0  0  0  0  0  0  0  0  0  0  0  0
   19.0618    8.9471   15.2699 H   0  0  0  0  0  0  0  0  0  0  0  0
   18.1685   12.8119   16.9209 H   0  0  0  0  0  0  0  0  0  0  0  0
   19.8282   12.4131   18.7413 H   0  0  0  0  0  0  0  0  0  0  0  0
   17.9220   12.2168   14.3172 H   0  0  0  0  0  0  0  0  0  0  0  0
   15.8590   10.5492   15.9300 H   0  0  0  0  0  0  0  0  0  0  0  0
   16.2659   12.2872   16.2375 H   0  0  0  0  0  0  0  0  0  0  0  0
   19.9567    4.4019   13.8352 H   0  0  0  0  0  0  0  0  0  0  0  0
   14.7889    8.3031    9.9706 H   0  0  0  0  0  0  0  0  0  0  0  0
   16.2635    8.6376    9.0009 H   0  0  0  0  0  0  0  0  0  0  0  0
   15.5427    6.9923    9.0009 H   0  0  0  0  0  0  0  0  0  0  0  0
   14.1978   12.0082   16.1856 H   0  0  0  0  0  0  0  0  0  0  0  0
   13.5704   12.9705   14.8046 H   0  0  0  0  0  0  0  0  0  0  0  0
   13.3994   11.1823   14.8046 H   0  0  0  0  0  0  0  0  0  0  0  0
   19.8339   11.2222   20.3657 H   0  0  0  0  0  0  0  0  0  0  0  0
   21.5538   11.5202   20.7693 H   0  0  0  0  0  0  0  0  0  0  0  0
   22.5410   10.2607   22.4890 H   0  0  0  0  0  0  0  0  0  0  0  0
   22.4857    8.4021   24.1339 H   0  0  0  0  0  0  0  0  0  0  0  0
   20.7271    6.6487   23.9536 H   0  0  0  0  0  0  0  0  0  0  0  0
   19.0294    6.7930   22.1597 H   0  0  0  0  0  0  0  0  0  0  0  0
   19.0487    8.6971   20.5801 H   0  0  0  0  0  0  0  0  0  0  0  0
   15.4505   12.8246   14.1074 H   0  0  0  0  0  0  0  0  0  0  0  0
   15.5952    9.9571   10.8880 H   0  0  0  0  0  0  0  0  0  0  0  0
   18.6335    3.9831   11.6920 H   0  0  0  0  0  0  0  0  0  0  0  0
  1  2  1  0
  1 27  1  0
  2  3  1  0
  2 28  1  0
  3 15  1  0
  4 28  1  0
  4 29  1  0
  4 30  2  0
  5  6  1  0
  5 29  1  0
  5 32  2  0
  6  7  2  0
  6 31  1  0
  7  8  1  0
  7 30  1  0
  8 17  2  0
  9 10  2  0
  9 14  1  0
  9 33  1  0
 10 11  1  0
 11 12  2  0
 12 13  1  0
 15 12  1  0
 13 14  2  0
 15 16  1  0
 16 27  1  0
 17 31  1  0
 18 29  1  0
 27 19  1  0
 20 21  1  0
 20 33  1  0
 21 22  2  0
 21 26  1  0
 22 23  1  0
 23 24  2  0
 24 25  1  0
 25 26  2  0
  1 34  1  0
  1 35  1  0
  2 36  1  6
  3 37  1  0
  3 38  1  0
  8 39  1  0
 10 40  1  0
 11 41  1  0
 13 42  1  0
 14 43  1  0
 15 44  1  6
 16 45  1  0
 16 46  1  0
 17 47  1  0
 18 48  1  0
 18 49  1  0
 18 50  1  0
 19 51  1  0
 19 52  1  0
 19 53  1  0
 20 54  1  0
 20 55  1  0
 22 56  1  0
 23 57  1  0
 24 58  1  0
 25 59  1  0
 26 60  1  0
 27 61  1  6
 28 62  1  0
 31 63  1  0
M  CHG  1  27   1
M  END
>  <filename_input>  (17) 
7CD9_FVR_docked.sdf

>  <pdb_id>  (17) 
7CD9_FVR

>  <pose_rank>  (17) 
16

>  <num_atoms_heavy>  (17) 
33

>  <num_torsions>  (17) 
5

>  <pose>  (17) 
[15.096090494722084, 10.974223497281821, 13.42437968757051, -2.7676901463335604, -3.6104126313217924, 0.09277986350429522, -3.5135922673622995, 6.904508537753848, 3.9473202489801147, -1.240780740533196, 0.5391123878081047]

>  <energy>  (17) 
-500.239270797458

>  <inter_energy>  (17) 
-526.9888005634144

>  <intra_energy>  (17) 
58.751715697771104

>  <rmsd>  (17) 
7.40869

>  <sdf_rank>  (17) 
0

$$$$

     RDKit          3D

 63 67  0  0  0  0  0  0  0  0999 V2000
   23.2561    1.8881    9.6963 C   0  0  0  0  0  0  0  0  0  0  0  0
   23.7827    2.3023   11.1020 C   0  0  1  0  0  0  0  0  0  0  0  0
   24.0436    3.7362   11.1502 C   0  0  0  0  0  0  0  0  0  0  0  0
   21.6224    2.7037   12.3993 C   0  0  0  0  0  0  0  0  0  0  0  0
   19.6117    3.0470   13.5517 C   0  0  0  0  0  0  0  0  0  0  0  0
   19.5626    4.2976   12.9360 C   0  0  0  0  0  0  0  0  0  0  0  0
   20.5639    4.6936   12.0938 C   0  0  0  0  0  0  0  0  0  0  0  0
   20.2908    6.0008   11.6531 C   0  0  0  0  0  0  0  0  0  0  0  0
   26.2745    8.2266    9.8629 C   0  0  0  0  0  0  0  0  0  0  0  0
   25.0441    7.9172   10.4288 C   0  0  0  0  0  0  0  0  0  0  0  0
   24.6037    6.5994   10.4955 C   0  0  0  0  0  0  0  0  0  0  0  0
   25.4480    5.5820   10.1004 C   0  0  0  0  0  0  0  0  0  0  0  0
   26.6707    5.8781    9.5309 C   0  0  0  0  0  0  0  0  0  0  0  0
   27.0962    7.2070    9.4614 C   0  0  0  0  0  0  0  0  0  0  0  0
   25.0503    4.0627   10.1239 C   0  0  2  0  0  0  0  0  0  0  0  0
   24.4790    3.6837    8.7326 C   0  0  0  0  0  0  0  0  0  0  0  0
   19.0920    6.3255   12.2612 C   0  0  0  0  0  0  0  0  0  0  0  0
   20.7672    0.9698   13.8798 C   0  0  0  0  0  0  0  0  0  0  0  0
   23.6620    2.0187    7.5023 C   0  0  0  0  0  0  0  0  0  0  0  0
   27.7547    9.8285    8.7729 C   0  0  0  0  0  0  0  0  0  0  0  0
   27.0496    9.9862    7.4150 C   0  0  0  0  0  0  0  0  0  0  0  0
   26.0600   10.9361    7.2523 C   0  0  0  0  0  0  0  0  0  0  0  0
   25.4212   11.1002    6.0327 C   0  0  0  0  0  0  0  0  0  0  0  0
   25.7654   10.2857    4.9689 C   0  0  0  0  0  0  0  0  0  0  0  0
   26.7413    9.3334    5.1286 C   0  0  0  0  0  0  0  0  0  0  0  0
   27.3869    9.1982    6.3445 C   0  0  0  0  0  0  0  0  0  0  0  0
   24.1666    2.2689    8.6540 N   0  0  2  0  0  0  0  0  0  0  0  0
   22.7119    1.8361   12.0708 N   0  0  0  0  0  0  0  0  0  0  0  0
   20.6547    2.2746   13.2315 N   0  0  0  0  0  0  0  0  0  0  0  0
   21.6174    3.8938   11.8251 N   0  0  0  0  0  0  0  0  0  0  0  0
   18.6515    5.3229   13.0090 N   0  0  0  0  0  0  0  0  0  0  0  0
   18.7431    2.6094   14.2770 O   0  0  0  0  0  0  0  0  0  0  0  0
   26.7801    9.5522    9.7650 O   0  0  0  0  0  0  0  0  0  0  0  0
   23.1240    0.7963    9.6727 H   0  0  0  0  0  0  0  0  0  0  0  0
   22.3008    2.4049    9.5224 H   0  0  0  0  0  0  0  0  0  0  0  0
   24.7489    1.8442   11.3603 H   0  0  0  0  0  0  0  0  0  0  0  0
   23.1146    4.2895   10.9481 H   0  0  0  0  0  0  0  0  0  0  0  0
   24.4152    4.0187   12.1463 H   0  0  0  0  0  0  0  0  0  0  0  0
   20.8944    6.6243   10.9773 H   0  0  0  0  0  0  0  0  0  0  0  0
   24.4111    8.7231   10.8285 H   0  0  0  0  0  0  0  0  0  0  0  0
   23.5914    6.3704   10.8600 H   0  0  0  0  0  0  0  0  0  0  0  0
   27.3060    5.0724    9.1343 H   0  0  0  0  0  0  0  0  0  0  0  0
   28.1020    7.4369    9.0800 H   0  0  0  0  0  0  0  0  0  0  0  0
   25.9581    3.4921   10.3694 H   0  0  0  0  0  0  0  0  0  0  0  0
   23.5613    4.2630    8.5530 H   0  0  0  0  0  0  0  0  0  0  0  0
   25.2409    3.9119    7.9726 H   0  0  0  0  0  0  0  0  0  0  0  0
   18.5727    7.2877   12.1406 H   0  0  0  0  0  0  0  0  0  0  0  0
   20.7559    1.1009   14.9720 H   0  0  0  0  0  0  0  0  0  0  0  0
   19.9204    0.3361   13.5778 H   0  0  0  0  0  0  0  0  0  0  0  0
   21.7100    0.4904   13.5778 H   0  0  0  0  0  0  0  0  0  0  0  0
   22.6830    1.5333    7.6285 H   0  0  0  0  0  0  0  0  0  0  0  0
   23.5360    2.9588    6.9451 H   0  0  0  0  0  0  0  0  0  0  0  0
   24.3340    1.3494    6.9451 H   0  0  0  0  0  0  0  0  0  0  0  0
   28.4750    8.9987    8.7212 H   0  0  0  0  0  0  0  0  0  0  0  0
   28.2918   10.7548    9.0247 H   0  0  0  0  0  0  0  0  0  0  0  0
   25.7744   11.5719    8.1033 H   0  0  0  0  0  0  0  0  0  0  0  0
   24.6468   11.8721    5.9120 H   0  0  0  0  0  0  0  0  0  0  0  0
   25.2592   10.4005    3.9991 H   0  0  0  0  0  0  0  0  0  0  0  0
   27.0103    8.6768    4.2881 H   0  0  0  0  0  0  0  0  0  0  0  0
   28.1830    8.4471    6.4544 H   0  0  0  0  0  0  0  0  0  0  0  0
   25.0303    1.7220    8.7795 H   0  0  0  0  0  0  0  0  0  0  0  0
   22.7692    0.8974   12.4909 H   0  0  0  0  0  0  0  0  0  0  0  0
   17.7761    5.3144   13.5517 H   0  0  0  0  0  0  0  0  0  0  0  0
  1  2  1  0
  1 27  1  0
  2  3  1  0
  2 28  1  0
  3 15  1  0
  4 28  1  0
  4 29  1  0
  4 30  2  0
  5  6  1  0
  5 29  1  0
  5 32  2  0
  6  7  2  0
  6 31  1  0
  7  8  1  0
  7 30  1  0
  8 17  2  0
  9 10  2  0
  9 14  1  0
  9 33  1  0
 10 11  1  0
 11 12  2  0
 12 13  1  0
 15 12  1  0
 13 14  2  0
 15 16  1  0
 16 27  1  0
 17 31  1  0
 18 29  1  0
 27 19  1  0
 20 21  1  0
 20 33  1  0
 21 22  2  0
 21 26  1  0
 22 23  1  0
 23 24  2  0
 24 25  1  0
 25 26  2  0
  1 34  1  0
  1 35  1  0
  2 36  1  1
  3 37  1  0
  3 38  1  0
  8 39  1  0
 10 40  1  0
 11 41  1  0
 13 42  1  0
 14 43  1  0
 15 44  1  1
 16 45  1  0
 16 46  1  0
 17 47  1  0
 18 48  1  0
 18 49  1  0
 18 50  1  0
 19 51  1  0
 19 52  1  0
 19 53  1  0
 20 54  1  0
 20 55  1  0
 22 56  1  0
 23 57  1  0
 24 58  1  0
 25 59  1  0
 26 60  1  0
 27 61  1  1
 28 62  1  0
 31 63  1  0
M  CHG  1  27   1
M  END
>  <filename_input>  (18) 
7CD9_FVR_docked.sdf

>  <pdb_id>  (18) 
7CD9_FVR

>  <pose_rank>  (18) 
17

>  <num_atoms_heavy>  (18) 
33

>  <num_torsions>  (18) 
5

>  <pose>  (18) 
[23.256087454056175, 1.8880576773995248, 9.696295793041504, 2.344769315857852, 1.727004168175648, 4.214705574096819, -3.005573976519053, 0.23388583895140197, -2.5538703288634914, -1.9626152412246725, -0.36763299226110413]

>  <energy>  (18) 
-426.1325051581013

>  <inter_energy>  (18) 
-474.48745427710867

>  <intra_energy>  (18) 
49.22218449893084

>  <rmsd>  (18) 
10.8007

>  <sdf_rank>  (18) 
0

$$$$

     RDKit          3D

 63 67  0  0  0  0  0  0  0  0999 V2000
   16.6885   13.4573   15.3364 C   0  0  0  0  0  0  0  0  0  0  0  0
   16.9517   11.9426   15.0887 C   0  0  1  0  0  0  0  0  0  0  0  0
   17.2149   11.2550   16.3475 C   0  0  0  0  0  0  0  0  0  0  0  0
   15.8352   10.4175   13.3745 C   0  0  0  0  0  0  0  0  0  0  0  0
   14.7978    8.9830   11.8401 C   0  0  0  0  0  0  0  0  0  0  0  0
   16.0637    8.4471   11.6035 C   0  0  0  0  0  0  0  0  0  0  0  0
   17.1576    8.9428   12.2566 C   0  0  0  0  0  0  0  0  0  0  0  0
   18.3004    8.2614   11.8015 C   0  0  0  0  0  0  0  0  0  0  0  0
   19.7439    9.9289   20.6277 C   0  0  0  0  0  0  0  0  0  0  0  0
   18.8604   10.9974   20.7160 C   0  0  0  0  0  0  0  0  0  0  0  0
   18.4371   11.6659   19.5719 C   0  0  0  0  0  0  0  0  0  0  0  0
   18.8087   11.1887   18.3317 C   0  0  0  0  0  0  0  0  0  0  0  0
   19.6912   10.1313   18.2321 C   0  0  0  0  0  0  0  0  0  0  0  0
   20.1160    9.4753   19.3901 C   0  0  0  0  0  0  0  0  0  0  0  0
   18.3969   11.8705   16.9779 C   0  0  2  0  0  0  0  0  0  0  0  0
   18.0875   13.3648   17.2555 C   0  0  0  0  0  0  0  0  0  0  0  0
   17.8145    7.3512   10.8807 C   0  0  0  0  0  0  0  0  0  0  0  0
   13.4324   10.5714   13.0105 C   0  0  0  0  0  0  0  0  0  0  0  0
   17.4930   15.2953   16.3213 C   0  0  0  0  0  0  0  0  0  0  0  0
   20.3337    7.7971   21.6534 C   0  0  0  0  0  0  0  0  0  0  0  0
   21.6825    7.3677   22.2554 C   0  0  0  0  0  0  0  0  0  0  0  0
   22.7577    8.2347   22.2396 C   0  0  0  0  0  0  0  0  0  0  0  0
   23.9779    7.8693   22.7874 C   0  0  0  0  0  0  0  0  0  0  0  0
   24.1266    6.6094   23.3387 C   0  0  0  0  0  0  0  0  0  0  0  0
   23.0637    5.7405   23.3477 C   0  0  0  0  0  0  0  0  0  0  0  0
   21.8455    6.1284   22.8195 C   0  0  0  0  0  0  0  0  0  0  0  0
   17.7795   14.0799   16.0311 N   0  0  2  0  0  0  0  0  0  0  0  0
   15.7159   11.4475   14.3608 N   0  0  0  0  0  0  0  0  0  0  0  0
   14.7325    9.9550   12.7555 N   0  0  0  0  0  0  0  0  0  0  0  0
   17.0503    9.9497   13.1489 N   0  0  0  0  0  0  0  0  0  0  0  0
   16.4969    7.4471   10.7675 N   0  0  0  0  0  0  0  0  0  0  0  0
   13.7765    8.5700   11.3316 O   0  0  0  0  0  0  0  0  0  0  0  0
   20.2135    9.2059   21.7587 O   0  0  0  0  0  0  0  0  0  0  0  0
   16.5512   13.9583   14.3668 H   0  0  0  0  0  0  0  0  0  0  0  0
   15.7873   13.5509   15.9601 H   0  0  0  0  0  0  0  0  0  0  0  0
   17.8488   11.7472   14.4828 H   0  0  0  0  0  0  0  0  0  0  0  0
   16.3451   11.3542   17.0135 H   0  0  0  0  0  0  0  0  0  0  0  0
   17.3998   10.1866   16.1622 H   0  0  0  0  0  0  0  0  0  0  0  0
   19.3451    8.4172   12.1086 H   0  0  0  0  0  0  0  0  0  0  0  0
   18.4916   11.3184   21.7014 H   0  0  0  0  0  0  0  0  0  0  0  0
   17.8116   12.5670   19.6552 H   0  0  0  0  0  0  0  0  0  0  0  0
   20.0576    9.8074   17.2468 H   0  0  0  0  0  0  0  0  0  0  0  0
   20.7563    8.5847   19.3071 H   0  0  0  0  0  0  0  0  0  0  0  0
   19.2377   11.7433   16.2802 H   0  0  0  0  0  0  0  0  0  0  0  0
   17.2250   13.4311   17.9349 H   0  0  0  0  0  0  0  0  0  0  0  0
   18.9787   13.8236   17.7085 H   0  0  0  0  0  0  0  0  0  0  0  0
   18.4383    6.6419   10.3170 H   0  0  0  0  0  0  0  0  0  0  0  0
   13.2698   10.6486   14.0957 H   0  0  0  0  0  0  0  0  0  0  0  0
   13.4092   11.5764   12.5639 H   0  0  0  0  0  0  0  0  0  0  0  0
   12.6396    9.9534   12.5639 H   0  0  0  0  0  0  0  0  0  0  0  0
   17.4649   15.4145   17.4144 H   0  0  0  0  0  0  0  0  0  0  0  0
   18.2582   15.9633   15.8992 H   0  0  0  0  0  0  0  0  0  0  0  0
   16.5099   15.5511   15.8992 H   0  0  0  0  0  0  0  0  0  0  0  0
   20.2902    7.5004   20.5951 H   0  0  0  0  0  0  0  0  0  0  0  0
   19.5104    7.3103   22.1968 H   0  0  0  0  0  0  0  0  0  0  0  0
   22.6442    9.2302   21.7855 H   0  0  0  0  0  0  0  0  0  0  0  0
   24.8211    8.5757   22.7836 H   0  0  0  0  0  0  0  0  0  0  0  0
   25.0924    6.3049   23.7682 H   0  0  0  0  0  0  0  0  0  0  0  0
   23.1811    4.7339   23.7756 H   0  0  0  0  0  0  0  0  0  0  0  0
   20.9945    5.4322   22.8525 H   0  0  0  0  0  0  0  0  0  0  0  0
   18.5994   14.0570   15.4080 H   0  0  0  0  0  0  0  0  0  0  0  0
   14.7933   11.8518   14.5760 H   0  0  0  0  0  0  0  0  0  0  0  0
   15.9003    6.8704   10.1572 H   0  0  0  0  0  0  0  0  0  0  0  0
  1  2  1  0
  1 27  1  0
  2  3  1  0
  2 28  1  0
  3 15  1  0
  4 28  1  0
  4 29  1  0
  4 30  2  0
  5  6  1  0
  5 29  1  0
  5 32  2  0
  6  7  2  0
  6 31  1  0
  7  8  1  0
  7 30  1  0
  8 17  2  0
  9 10  2  0
  9 14  1  0
  9 33  1  0
 10 11  1  0
 11 12  2  0
 12 13  1  0
 15 12  1  0
 13 14  2  0
 15 16  1  0
 16 27  1  0
 17 31  1  0
 18 29  1  0
 27 19  1  0
 20 21  1  0
 20 33  1  0
 21 22  2  0
 21 26  1  0
 22 23  1  0
 23 24  2  0
 24 25  1  0
 25 26  2  0
  1 34  1  0
  1 35  1  0
  2 36  1  6
  3 37  1  0
  3 38  1  0
  8 39  1  0
 10 40  1  0
 11 41  1  0
 13 42  1  0
 14 43  1  0
 15 44  1  6
 16 45  1  0
 16 46  1  0
 17 47  1  0
 18 48  1  0
 18 49  1  0
 18 50  1  0
 19 51  1  0
 19 52  1  0
 19 53  1  0
 20 54  1  0
 20 55  1  0
 22 56  1  0
 23 57  1  0
 24 58  1  0
 25 59  1  0
 26 60  1  0
 27 61  1  6
 28 62  1  0
 31 63  1  0
M  CHG  1  27   1
M  END
>  <filename_input>  (19) 
7CD9_FVR_docked.sdf

>  <pdb_id>  (19) 
7CD9_FVR

>  <pose_rank>  (19) 
18

>  <num_atoms_heavy>  (19) 
33

>  <num_torsions>  (19) 
5

>  <pose>  (19) 
[16.688547900130043, 13.45727329919489, 15.336392394601031, -3.2388531622387977, -1.4799794869267142, 2.693569740934577, 1.0966497762358804, -0.9685453042439395, -3.6575011682013674, -0.9837357465231182, -1.8702294295655812]

>  <energy>  (19) 
-436.618708475888

>  <inter_energy>  (19) 
-453.4407650111373

>  <intra_energy>  (19) 
1.7477641724147697

>  <rmsd>  (19) 
9.54633

>  <sdf_rank>  (19) 
0

$$$$

     RDKit          3D

 63 67  0  0  0  0  0  0  0  0999 V2000
   17.3096   10.3557   13.5689 C   0  0  0  0  0  0  0  0  0  0  0  0
   17.9042    9.9450   14.9483 C   0  0  1  0  0  0  0  0  0  0  0  0
   16.9004   10.0731   15.9984 C   0  0  0  0  0  0  0  0  0  0  0  0
   18.1324    7.8405   13.5235 C   0  0  0  0  0  0  0  0  0  0  0  0
   18.3902    5.9254   12.1988 C   0  0  0  0  0  0  0  0  0  0  0  0
   17.6761    6.6061   11.2128 C   0  0  0  0  0  0  0  0  0  0  0  0
   17.2090    7.8697   11.4451 C   0  0  0  0  0  0  0  0  0  0  0  0
   16.4910    8.2989   10.3147 C   0  0  0  0  0  0  0  0  0  0  0  0
   13.6762   12.1857   19.3178 C   0  0  0  0  0  0  0  0  0  0  0  0
   13.5544   12.9331   18.1530 C   0  0  0  0  0  0  0  0  0  0  0  0
   14.4469   12.7590   17.1004 C   0  0  0  0  0  0  0  0  0  0  0  0
   15.3898   11.7539   17.1706 C   0  0  0  0  0  0  0  0  0  0  0  0
   15.5238   11.0091   18.3257 C   0  0  0  0  0  0  0  0  0  0  0  0
   14.6265   11.2013   19.3790 C   0  0  0  0  0  0  0  0  0  0  0  0
   16.4510   11.4763   16.0464 C   0  0  2  0  0  0  0  0  0  0  0  0
   15.8213   11.8410   14.6767 C   0  0  0  0  0  0  0  0  0  0  0  0
   16.5816    7.2420    9.4276 C   0  0  0  0  0  0  0  0  0  0  0  0
   19.3261    5.9112   14.4082 C   0  0  0  0  0  0  0  0  0  0  0  0
   16.1949   11.9620   12.4860 C   0  0  0  0  0  0  0  0  0  0  0  0
   11.8561   11.2835   20.6663 C   0  0  0  0  0  0  0  0  0  0  0  0
   10.7616   11.8159   21.6068 C   0  0  0  0  0  0  0  0  0  0  0  0
   10.6889   13.1649   21.8946 C   0  0  0  0  0  0  0  0  0  0  0  0
    9.7026   13.6645   22.7312 C   0  0  0  0  0  0  0  0  0  0  0  0
    8.7908   12.7957   23.3032 C   0  0  0  0  0  0  0  0  0  0  0  0
    8.8652   11.4527   23.0282 C   0  0  0  0  0  0  0  0  0  0  0  0
    9.8398   10.9724   22.1720 C   0  0  0  0  0  0  0  0  0  0  0  0
   16.7765   11.6882   13.5952 N   0  0  2  0  0  0  0  0  0  0  0  0
   18.4105    8.5288   14.7469 N   0  0  0  0  0  0  0  0  0  0  0  0
   18.6131    6.5972   13.3328 N   0  0  0  0  0  0  0  0  0  0  0  0
   17.4280    8.4980   12.6193 N   0  0  0  0  0  0  0  0  0  0  0  0
   17.2878    6.2462    9.9453 N   0  0  0  0  0  0  0  0  0  0  0  0
   18.8712    4.8211   12.0528 O   0  0  0  0  0  0  0  0  0  0  0  0
   12.7969   12.3171   20.4278 O   0  0  0  0  0  0  0  0  0  0  0  0
   18.1035   10.3044   12.8092 H   0  0  0  0  0  0  0  0  0  0  0  0
   16.4891    9.6632   13.3296 H   0  0  0  0  0  0  0  0  0  0  0  0
   18.7268   10.5947   15.2816 H   0  0  0  0  0  0  0  0  0  0  0  0
   16.0458    9.4169   15.7769 H   0  0  0  0  0  0  0  0  0  0  0  0
   17.3298    9.7812   16.9681 H   0  0  0  0  0  0  0  0  0  0  0  0
   15.9740    9.2589   10.1690 H   0  0  0  0  0  0  0  0  0  0  0  0
   12.7433   13.6706   18.0622 H   0  0  0  0  0  0  0  0  0  0  0  0
   14.4015   13.4167   16.2199 H   0  0  0  0  0  0  0  0  0  0  0  0
   16.3324   10.2688   18.4159 H   0  0  0  0  0  0  0  0  0  0  0  0
   14.6838   10.5550   20.2673 H   0  0  0  0  0  0  0  0  0  0  0  0
   17.3347   12.0906   16.2738 H   0  0  0  0  0  0  0  0  0  0  0  0
   14.9620   11.1799   14.4908 H   0  0  0  0  0  0  0  0  0  0  0  0
   15.5046   12.8939   14.7116 H   0  0  0  0  0  0  0  0  0  0  0  0
   16.1281    7.2290    8.4255 H   0  0  0  0  0  0  0  0  0  0  0  0
   18.9550    6.2682   15.3802 H   0  0  0  0  0  0  0  0  0  0  0  0
   19.1573    4.8273   14.3269 H   0  0  0  0  0  0  0  0  0  0  0  0
   20.4027    6.1217   14.3269 H   0  0  0  0  0  0  0  0  0  0  0  0
   15.2166   12.4224   12.6888 H   0  0  0  0  0  0  0  0  0  0  0  0
   16.8169   12.6618   11.9087 H   0  0  0  0  0  0  0  0  0  0  0  0
   16.0519   11.0366   11.9087 H   0  0  0  0  0  0  0  0  0  0  0  0
   12.3606   10.4254   21.1346 H   0  0  0  0  0  0  0  0  0  0  0  0
   11.4070   10.9606   19.7155 H   0  0  0  0  0  0  0  0  0  0  0  0
   11.4248   13.8533   21.4533 H   0  0  0  0  0  0  0  0  0  0  0  0
    9.6455   14.7433   22.9384 H   0  0  0  0  0  0  0  0  0  0  0  0
    8.0093   13.1792   23.9757 H   0  0  0  0  0  0  0  0  0  0  0  0
    8.1486   10.7573   23.4895 H   0  0  0  0  0  0  0  0  0  0  0  0
    9.8759    9.8976   21.9410 H   0  0  0  0  0  0  0  0  0  0  0  0
   17.5637   12.3359   13.7422 H   0  0  0  0  0  0  0  0  0  0  0  0
   18.9531    8.0641   15.4889 H   0  0  0  0  0  0  0  0  0  0  0  0
   17.5076    5.3554    9.4773 H   0  0  0  0  0  0  0  0  0  0  0  0
  1  2  1  0
  1 27  1  0
  2  3  1  0
  2 28  1  0
  3 15  1  0
  4 28  1  0
  4 29  1  0
  4 30  2  0
  5  6  1  0
  5 29  1  0
  5 32  2  0
  6  7  2  0
  6 31  1  0
  7  8  1  0
  7 30  1  0
  8 17  2  0
  9 10  2  0
  9 14  1  0
  9 33  1  0
 10 11  1  0
 11 12  2  0
 12 13  1  0
 15 12  1  0
 13 14  2  0
 15 16  1  0
 16 27  1  0
 17 31  1  0
 18 29  1  0
 27 19  1  0
 20 21  1  0
 20 33  1  0
 21 22  2  0
 21 26  1  0
 22 23  1  0
 23 24  2  0
 24 25  1  0
 25 26  2  0
  1 34  1  0
  1 35  1  0
  2 36  1  1
  3 37  1  0
  3 38  1  0
  8 39  1  0
 10 40  1  0
 11 41  1  0
 13 42  1  0
 14 43  1  0
 15 44  1  1
 16 45  1  0
 16 46  1  0
 17 47  1  0
 18 48  1  0
 18 49  1  0
 18 50  1  0
 19 51  1  0
 19 52  1  0
 19 53  1  0
 20 54  1  0
 20 55  1  0
 22 56  1  0
 23 57  1  0
 24 58  1  0
 25 59  1  0
 26 60  1  0
 27 61  1  1
 28 62  1  0
 31 63  1  0
M  CHG  1  27   1
M  END
>  <filename_input>  (20) 
7CD9_FVR_docked.sdf

>  <pdb_id>  (20) 
7CD9_FVR

>  <pose_rank>  (20) 
19

>  <num_atoms_heavy>  (20) 
33

>  <num_torsions>  (20) 
5

>  <pose>  (20) 
[17.30959973648491, 10.35567839726396, 13.568890032112359, -5.289607117801541, 1.1078789261451598, -1.665022169592728, -1.579318316355583, -1.9439549469239357, 2.0510724962790277, 0.10070744617510151, -1.1888032478705721]

>  <energy>  (20) 
-455.2893015752837

>  <inter_energy>  (20) 
-539.2635277333427

>  <intra_energy>  (20) 
87.41020666277046

>  <rmsd>  (20) 
5.60892

>  <sdf_rank>  (20) 
0

$$$$

     RDKit          3D

 63 67  0  0  0  0  0  0  0  0999 V2000
   14.6206   -1.6380   14.1102 C   0  0  0  0  0  0  0  0  0  0  0  0
   14.4064   -0.2798   13.3792 C   0  0  1  0  0  0  0  0  0  0  0  0
   15.6856    0.2961   12.9812 C   0  0  0  0  0  0  0  0  0  0  0  0
   12.0745   -0.4176   12.3524 C   0  0  0  0  0  0  0  0  0  0  0  0
    9.9413   -0.4959   11.3870 C   0  0  0  0  0  0  0  0  0  0  0  0
    9.4616    0.0133   12.5937 C   0  0  0  0  0  0  0  0  0  0  0  0
   10.3191    0.2631   13.6286 C   0  0  0  0  0  0  0  0  0  0  0  0
    9.5742    0.7217   14.7296 C   0  0  0  0  0  0  0  0  0  0  0  0
   20.2552    2.5167   13.3192 C   0  0  0  0  0  0  0  0  0  0  0  0
   20.2252    1.5380   14.3047 C   0  0  0  0  0  0  0  0  0  0  0  0
   19.0348    0.8993   14.6359 C   0  0  0  0  0  0  0  0  0  0  0  0
   17.8981    1.1596   13.8983 C   0  0  0  0  0  0  0  0  0  0  0  0
   17.9148    2.1347   12.9205 C   0  0  0  0  0  0  0  0  0  0  0  0
   19.1155    2.7752   12.6049 C   0  0  0  0  0  0  0  0  0  0  0  0
   16.5013    0.5038   14.1916 C   0  0  2  0  0  0  0  0  0  0  0  0
   16.7376   -0.8705   14.8705 C   0  0  0  0  0  0  0  0  0  0  0  0
    8.2673    0.7391   14.2777 C   0  0  0  0  0  0  0  0  0  0  0  0
   11.8083   -1.2384   10.0753 C   0  0  0  0  0  0  0  0  0  0  0  0
   15.7355   -2.6451   15.7649 C   0  0  0  0  0  0  0  0  0  0  0  0
   21.4090    3.9856   11.7520 C   0  0  0  0  0  0  0  0  0  0  0  0
   22.7232    3.7700   10.9823 C   0  0  0  0  0  0  0  0  0  0  0  0
   22.7152    3.6883    9.6034 C   0  0  0  0  0  0  0  0  0  0  0  0
   23.8912    3.5053    8.8920 C   0  0  0  0  0  0  0  0  0  0  0  0
   25.0876    3.3812    9.5750 C   0  0  0  0  0  0  0  0  0  0  0  0
   25.0993    3.4516   10.9460 C   0  0  0  0  0  0  0  0  0  0  0  0
   23.9211    3.6592   11.6405 C   0  0  0  0  0  0  0  0  0  0  0  0
   15.4853   -1.4991   15.2475 N   0  0  2  0  0  0  0  0  0  0  0  0
   13.4867   -0.6050   12.2170 N   0  0  0  0  0  0  0  0  0  0  0  0
   11.2639   -0.6730   11.3079 N   0  0  0  0  0  0  0  0  0  0  0  0
   11.6450    0.0370   13.5164 N   0  0  0  0  0  0  0  0  0  0  0  0
    8.1949    0.3342   13.0171 N   0  0  0  0  0  0  0  0  0  0  0  0
    9.2502   -0.7037   10.4116 O   0  0  0  0  0  0  0  0  0  0  0  0
   21.4388    3.2055   12.9356 O   0  0  0  0  0  0  0  0  0  0  0  0
   13.6455   -2.0185   14.4483 H   0  0  0  0  0  0  0  0  0  0  0  0
   15.0933   -2.3363   13.4038 H   0  0  0  0  0  0  0  0  0  0  0  0
   13.9498    0.4927   14.0154 H   0  0  0  0  0  0  0  0  0  0  0  0
   16.2051   -0.3908   12.2969 H   0  0  0  0  0  0  0  0  0  0  0  0
   15.5238    1.2547   12.4664 H   0  0  0  0  0  0  0  0  0  0  0  0
    9.9469    1.0030   15.7256 H   0  0  0  0  0  0  0  0  0  0  0  0
   21.1530    1.2652   14.8289 H   0  0  0  0  0  0  0  0  0  0  0  0
   18.9998    0.1929   15.4785 H   0  0  0  0  0  0  0  0  0  0  0  0
   16.9881    2.4054   12.3933 H   0  0  0  0  0  0  0  0  0  0  0  0
   19.1460    3.4951   11.7737 H   0  0  0  0  0  0  0  0  0  0  0  0
   15.9457    1.1972   14.8400 H   0  0  0  0  0  0  0  0  0  0  0  0
   17.2712   -1.5288   14.1691 H   0  0  0  0  0  0  0  0  0  0  0  0
   17.3306   -0.7077   15.7826 H   0  0  0  0  0  0  0  0  0  0  0  0
    7.4027    1.0479   14.8836 H   0  0  0  0  0  0  0  0  0  0  0  0
   12.5516   -2.0105   10.3231 H   0  0  0  0  0  0  0  0  0  0  0  0
   10.9945   -1.6881    9.4875 H   0  0  0  0  0  0  0  0  0  0  0  0
   12.2885   -0.4423    9.4875 H   0  0  0  0  0  0  0  0  0  0  0  0
   15.7178   -2.5640   16.8618 H   0  0  0  0  0  0  0  0  0  0  0  0
   14.9742   -3.3690   15.4385 H   0  0  0  0  0  0  0  0  0  0  0  0
   16.7292   -2.9858   15.4385 H   0  0  0  0  0  0  0  0  0  0  0  0
   21.3037    5.0490   12.0128 H   0  0  0  0  0  0  0  0  0  0  0  0
   20.5560    3.6833   11.1267 H   0  0  0  0  0  0  0  0  0  0  0  0
   21.7614    3.7696    9.0615 H   0  0  0  0  0  0  0  0  0  0  0  0
   23.8728    3.4592    7.7931 H   0  0  0  0  0  0  0  0  0  0  0  0
   26.0258    3.2267    9.0220 H   0  0  0  0  0  0  0  0  0  0  0  0
   26.0473    3.3428   11.4933 H   0  0  0  0  0  0  0  0  0  0  0  0
   23.9455    3.7367   12.7375 H   0  0  0  0  0  0  0  0  0  0  0  0
   15.0008   -0.9066   15.9368 H   0  0  0  0  0  0  0  0  0  0  0  0
   13.8780   -0.9599   11.3327 H   0  0  0  0  0  0  0  0  0  0  0  0
    7.3360    0.2711   12.4522 H   0  0  0  0  0  0  0  0  0  0  0  0
  1  2  1  0
  1 27  1  0
  2  3  1  0
  2 28  1  0
  3 15  1  0
  4 28  1  0
  4 29  1  0
  4 30  2  0
  5  6  1  0
  5 29  1  0
  5 32  2  0
  6  7  2  0
  6 31  1  0
  7  8  1  0
  7 30  1  0
  8 17  2  0
  9 10  2  0
  9 14  1  0
  9 33  1  0
 10 11  1  0
 11 12  2  0
 12 13  1  0
 15 12  1  0
 13 14  2  0
 15 16  1  0
 16 27  1  0
 17 31  1  0
 18 29  1  0
 27 19  1  0
 20 21  1  0
 20 33  1  0
 21 22  2  0
 21 26  1  0
 22 23  1  0
 23 24  2  0
 24 25  1  0
 25 26  2  0
  1 34  1  0
  1 35  1  0
  2 36  1  1
  3 37  1  0
  3 38  1  0
  8 39  1  0
 10 40  1  0
 11 41  1  0
 13 42  1  0
 14 43  1  0
 15 44  1  1
 16 45  1  0
 16 46  1  0
 17 47  1  0
 18 48  1  0
 18 49  1  0
 18 50  1  0
 19 51  1  0
 19 52  1  0
 19 53  1  0
 20 54  1  0
 20 55  1  0
 22 56  1  0
 23 57  1  0
 24 58  1  0
 25 59  1  0
 26 60  1  0
 27 61  1  1
 28 62  1  0
 31 63  1  0
M  CHG  1  27   1
M  END
>  <filename_input>  (21) 
7CD9_FVR_docked.sdf

>  <pdb_id>  (21) 
7CD9_FVR

>  <pose_rank>  (21) 
20

>  <num_atoms_heavy>  (21) 
33

>  <num_torsions>  (21) 
5

>  <pose>  (21) 
[14.620637004258104, -1.6380291437446393, 14.110166098677311, 1.025687692110704, 2.845731047388232, 0.9999033287046263, 0.2100498523520363, -1.8594699077930201, 3.1128330184260062, 0.5233538203522152, 1.0932623035357631]

>  <energy>  (21) 
-470.9207405970793

>  <inter_energy>  (21) 
-462.7038724235411

>  <intra_energy>  (21) 
1.6435722334074274

>  <rmsd>  (21) 
12.4606

>  <sdf_rank>  (21) 
0

$$$$

     RDKit          3D

 63 67  0  0  0  0  0  0  0  0999 V2000
   16.7857    0.4545   15.6166 C   0  0  0  0  0  0  0  0  0  0  0  0
   17.2121   -0.7285   14.6982 C   0  0  1  0  0  0  0  0  0  0  0  0
   16.4562   -0.7084   13.4512 C   0  0  0  0  0  0  0  0  0  0  0  0
   19.2237    0.6416   13.9317 C   0  0  0  0  0  0  0  0  0  0  0  0
   21.0770    1.9171   13.2783 C   0  0  0  0  0  0  0  0  0  0  0  0
   20.1677    2.9117   12.9186 C   0  0  0  0  0  0  0  0  0  0  0  0
   18.8244    2.7077   13.0686 C   0  0  0  0  0  0  0  0  0  0  0  0
   18.1411    3.8398   12.5901 C   0  0  0  0  0  0  0  0  0  0  0  0
   12.3556   -1.0849   10.3484 C   0  0  0  0  0  0  0  0  0  0  0  0
   12.8263    0.1608   10.7440 C   0  0  0  0  0  0  0  0  0  0  0  0
   13.6512    0.2882   11.8569 C   0  0  0  0  0  0  0  0  0  0  0  0
   14.0975   -0.8464   12.5029 C   0  0  0  0  0  0  0  0  0  0  0  0
   13.6313   -2.0892   12.1222 C   0  0  0  0  0  0  0  0  0  0  0  0
   12.7955   -2.2015   11.0085 C   0  0  0  0  0  0  0  0  0  0  0  0
   15.0216   -0.8180   13.7728 C   0  0  2  0  0  0  0  0  0  0  0  0
   14.6165    0.3973   14.6471 C   0  0  0  0  0  0  0  0  0  0  0  0
   19.1438    4.6990   12.1795 C   0  0  0  0  0  0  0  0  0  0  0  0
   21.4660   -0.2794   14.1623 C   0  0  0  0  0  0  0  0  0  0  0  0
   15.0314    1.4810   16.5463 C   0  0  0  0  0  0  0  0  0  0  0  0
   11.1407   -0.1477    8.4535 C   0  0  0  0  0  0  0  0  0  0  0  0
   11.9127   -0.1765    7.1235 C   0  0  0  0  0  0  0  0  0  0  0  0
   12.7945   -1.2051    6.8543 C   0  0  0  0  0  0  0  0  0  0  0  0
   13.4908   -1.2537    5.6562 C   0  0  0  0  0  0  0  0  0  0  0  0
   13.3158   -0.2451    4.7258 C   0  0  0  0  0  0  0  0  0  0  0  0
   12.4481    0.7846    4.9932 C   0  0  0  0  0  0  0  0  0  0  0  0
   11.7419    0.8063    6.1824 C   0  0  0  0  0  0  0  0  0  0  0  0
   15.3753    0.4390   15.8832 N   0  0  2  0  0  0  0  0  0  0  0  0
   18.7089   -0.5590   14.5162 N   0  0  0  0  0  0  0  0  0  0  0  0
   20.5542    0.8047   13.8039 N   0  0  0  0  0  0  0  0  0  0  0  0
   18.3379    1.5539   13.5723 N   0  0  0  0  0  0  0  0  0  0  0  0
   20.3402    4.1638   12.3807 N   0  0  0  0  0  0  0  0  0  0  0  0
   22.2824    2.0393   13.2138 O   0  0  0  0  0  0  0  0  0  0  0  0
   11.5103   -1.2807    9.2217 O   0  0  0  0  0  0  0  0  0  0  0  0
   17.3293    0.3794   16.5699 H   0  0  0  0  0  0  0  0  0  0  0  0
   17.0260    1.3945   15.0982 H   0  0  0  0  0  0  0  0  0  0  0  0
   16.9951   -1.7173   15.1284 H   0  0  0  0  0  0  0  0  0  0  0  0
   16.6459    0.2345   12.9174 H   0  0  0  0  0  0  0  0  0  0  0  0
   16.7641   -1.5474   12.8100 H   0  0  0  0  0  0  0  0  0  0  0  0
   17.0542    4.0047   12.5511 H   0  0  0  0  0  0  0  0  0  0  0  0
   12.5438    1.0562   10.1710 H   0  0  0  0  0  0  0  0  0  0  0  0
   13.9450    1.2846   12.2186 H   0  0  0  0  0  0  0  0  0  0  0  0
   13.9165   -2.9856   12.6925 H   0  0  0  0  0  0  0  0  0  0  0  0
   12.4872   -3.1975   10.6578 H   0  0  0  0  0  0  0  0  0  0  0  0
   14.8810   -1.7735   14.2993 H   0  0  0  0  0  0  0  0  0  0  0  0
   14.8028    1.3224   14.0818 H   0  0  0  0  0  0  0  0  0  0  0  0
   13.5502    0.3010   14.8995 H   0  0  0  0  0  0  0  0  0  0  0  0
   18.9718    5.6943   11.7439 H   0  0  0  0  0  0  0  0  0  0  0  0
   21.5311   -0.3568   15.2577 H   0  0  0  0  0  0  0  0  0  0  0  0
   21.0894   -1.2269   13.7496 H   0  0  0  0  0  0  0  0  0  0  0  0
   22.4641   -0.0707   13.7496 H   0  0  0  0  0  0  0  0  0  0  0  0
   15.1011    1.2696   17.6235 H   0  0  0  0  0  0  0  0  0  0  0  0
   15.7018    2.3152   16.2921 H   0  0  0  0  0  0  0  0  0  0  0  0
   13.9961    1.7522   16.2921 H   0  0  0  0  0  0  0  0  0  0  0  0
   11.3898    0.7704    9.0057 H   0  0  0  0  0  0  0  0  0  0  0  0
   10.0584   -0.1662    8.2576 H   0  0  0  0  0  0  0  0  0  0  0  0
   12.9465   -1.9978    7.6017 H   0  0  0  0  0  0  0  0  0  0  0  0
   14.1770   -2.0876    5.4473 H   0  0  0  0  0  0  0  0  0  0  0  0
   13.8695   -0.2681    3.7756 H   0  0  0  0  0  0  0  0  0  0  0  0
   12.3142    1.5940    4.2603 H   0  0  0  0  0  0  0  0  0  0  0  0
   11.0325    1.6243    6.3763 H   0  0  0  0  0  0  0  0  0  0  0  0
   15.1719   -0.4058   16.4362 H   0  0  0  0  0  0  0  0  0  0  0  0
   19.3529   -1.3061   14.8126 H   0  0  0  0  0  0  0  0  0  0  0  0
   21.2440    4.6104   12.1697 H   0  0  0  0  0  0  0  0  0  0  0  0
  1  2  1  0
  1 27  1  0
  2  3  1  0
  2 28  1  0
  3 15  1  0
  4 28  1  0
  4 29  1  0
  4 30  2  0
  5  6  1  0
  5 29  1  0
  5 32  2  0
  6  7  2  0
  6 31  1  0
  7  8  1  0
  7 30  1  0
  8 17  2  0
  9 10  2  0
  9 14  1  0
  9 33  1  0
 10 11  1  0
 11 12  2  0
 12 13  1  0
 15 12  1  0
 13 14  2  0
 15 16  1  0
 16 27  1  0
 17 31  1  0
 18 29  1  0
 27 19  1  0
 20 21  1  0
 20 33  1  0
 21 22  2  0
 21 26  1  0
 22 23  1  0
 23 24  2  0
 24 25  1  0
 25 26  2  0
  1 34  1  0
  1 35  1  0
  2 36  1  1
  3 37  1  0
  3 38  1  0
  8 39  1  0
 10 40  1  0
 11 41  1  0
 13 42  1  0
 14 43  1  0
 15 44  1  1
 16 45  1  0
 16 46  1  0
 17 47  1  0
 18 48  1  0
 18 49  1  0
 18 50  1  0
 19 51  1  0
 19 52  1  0
 19 53  1  0
 20 54  1  0
 20 55  1  0
 22 56  1  0
 23 57  1  0
 24 58  1  0
 25 59  1  0
 26 60  1  0
 27 61  1  1
 28 62  1  0
 31 63  1  0
M  CHG  1  27   1
M  END
>  <filename_input>  (22) 
7CD9_FVR_docked.sdf

>  <pdb_id>  (22) 
7CD9_FVR

>  <pose_rank>  (22) 
21

>  <num_atoms_heavy>  (22) 
33

>  <num_torsions>  (22) 
5

>  <pose>  (22) 
[16.785658893050215, 0.45451893863334614, 15.616597300288264, -2.626849040149647, 1.7267813488215296, -0.7421282450039138, -2.4930915458711516, -0.757026182920071, 0.19729045696228062, -1.4823699926634777, -1.3730154422000422]

>  <energy>  (22) 
-405.1958183894943

>  <inter_energy>  (22) 
-443.30700719612844

>  <intra_energy>  (22) 
44.17859105706406

>  <rmsd>  (22) 
11.3273

>  <sdf_rank>  (22) 
0

$$$$

     RDKit          3D

 63 67  0  0  0  0  0  0  0  0999 V2000
   26.6354    9.2780   11.3043 C   0  0  0  0  0  0  0  0  0  0  0  0
   26.3563    8.8080    9.8462 C   0  0  1  0  0  0  0  0  0  0  0  0
   25.3701    7.7338    9.8332 C   0  0  0  0  0  0  0  0  0  0  0  0
   26.0356   10.1306    7.6877 C   0  0  0  0  0  0  0  0  0  0  0  0
   25.6900   11.3287    5.7044 C   0  0  0  0  0  0  0  0  0  0  0  0
   26.1906   10.2124    5.0343 C   0  0  0  0  0  0  0  0  0  0  0  0
   26.6076    9.1149    5.7346 C   0  0  0  0  0  0  0  0  0  0  0  0
   27.1048    8.1636    4.8262 C   0  0  0  0  0  0  0  0  0  0  0  0
   23.2788    3.1500   10.9474 C   0  0  0  0  0  0  0  0  0  0  0  0
   23.0035    4.1208    9.9926 C   0  0  0  0  0  0  0  0  0  0  0  0
   23.7970    5.2584    9.8866 C   0  0  0  0  0  0  0  0  0  0  0  0
   24.9343    5.3658   10.6604 C   0  0  0  0  0  0  0  0  0  0  0  0
   25.2144    4.4100   11.6169 C   0  0  0  0  0  0  0  0  0  0  0  0
   24.4032    3.2771   11.7189 C   0  0  0  0  0  0  0  0  0  0  0  0
   25.8942    6.6087   10.6287 C   0  0  2  0  0  0  0  0  0  0  0  0
   26.1167    7.0939   12.0849 C   0  0  0  0  0  0  0  0  0  0  0  0
   26.9397    8.7529    3.5860 C   0  0  0  0  0  0  0  0  0  0  0  0
   25.1260   12.3874    7.7825 C   0  0  0  0  0  0  0  0  0  0  0  0
   27.1787    8.5798   13.3569 C   0  0  0  0  0  0  0  0  0  0  0  0
   22.4336    1.3786   12.3941 C   0  0  0  0  0  0  0  0  0  0  0  0
   21.0101    1.5659   12.9457 C   0  0  0  0  0  0  0  0  0  0  0  0
   20.4053    2.8070   12.9004 C   0  0  0  0  0  0  0  0  0  0  0  0
   19.1186    2.9925   13.3827 C   0  0  0  0  0  0  0  0  0  0  0  0
   18.4388    1.9230   13.9371 C   0  0  0  0  0  0  0  0  0  0  0  0
   19.0395    0.6898   13.9935 C   0  0  0  0  0  0  0  0  0  0  0  0
   20.3143    0.5148   13.4858 C   0  0  0  0  0  0  0  0  0  0  0  0
   27.0632    8.1923   12.1402 N   0  0  2  0  0  0  0  0  0  0  0  0
   25.9154   10.0606    9.1120 N   0  0  0  0  0  0  0  0  0  0  0  0
   25.6108   11.2291    7.0351 N   0  0  0  0  0  0  0  0  0  0  0  0
   26.5414    9.0707    7.0819 N   0  0  0  0  0  0  0  0  0  0  0  0
   26.3913    9.9548    3.7002 N   0  0  0  0  0  0  0  0  0  0  0  0
   25.2632   12.3210    5.1519 O   0  0  0  0  0  0  0  0  0  0  0  0
   22.5062    1.9666   11.1059 O   0  0  0  0  0  0  0  0  0  0  0  0
   27.4229   10.0458   11.2866 H   0  0  0  0  0  0  0  0  0  0  0  0
   25.6999    9.6816   11.7191 H   0  0  0  0  0  0  0  0  0  0  0  0
   27.2361    8.3715    9.3507 H   0  0  0  0  0  0  0  0  0  0  0  0
   24.4266    8.0908   10.2719 H   0  0  0  0  0  0  0  0  0  0  0  0
   25.1801    7.4087    8.7997 H   0  0  0  0  0  0  0  0  0  0  0  0
   27.5292    7.1741    5.0512 H   0  0  0  0  0  0  0  0  0  0  0  0
   22.1488    3.9885    9.3129 H   0  0  0  0  0  0  0  0  0  0  0  0
   23.5202    6.0653    9.1920 H   0  0  0  0  0  0  0  0  0  0  0  0
   26.0712    4.5397   12.2945 H   0  0  0  0  0  0  0  0  0  0  0  0
   24.6705    2.4786   12.4267 H   0  0  0  0  0  0  0  0  0  0  0  0
   26.8308    6.2848   10.1514 H   0  0  0  0  0  0  0  0  0  0  0  0
   25.1551    7.4293   12.5009 H   0  0  0  0  0  0  0  0  0  0  0  0
   26.5251    6.2564   12.6695 H   0  0  0  0  0  0  0  0  0  0  0  0
   27.2254    8.2865    2.6316 H   0  0  0  0  0  0  0  0  0  0  0  0
   25.2091   12.1888    8.8612 H   0  0  0  0  0  0  0  0  0  0  0  0
   25.7305   13.2695    7.5244 H   0  0  0  0  0  0  0  0  0  0  0  0
   24.0734   12.5759    7.5244 H   0  0  0  0  0  0  0  0  0  0  0  0
   26.9307    7.7475   14.0319 H   0  0  0  0  0  0  0  0  0  0  0  0
   28.2129    8.9058   13.5413 H   0  0  0  0  0  0  0  0  0  0  0  0
   26.4914    9.4187   13.5413 H   0  0  0  0  0  0  0  0  0  0  0  0
   23.1569    1.8663   13.0642 H   0  0  0  0  0  0  0  0  0  0  0  0
   22.6709    0.3064   12.3292 H   0  0  0  0  0  0  0  0  0  0  0  0
   20.9528    3.6611   12.4754 H   0  0  0  0  0  0  0  0  0  0  0  0
   18.6423    3.9823   13.3249 H   0  0  0  0  0  0  0  0  0  0  0  0
   17.4209    2.0600   14.3311 H   0  0  0  0  0  0  0  0  0  0  0  0
   18.5061   -0.1606   14.4432 H   0  0  0  0  0  0  0  0  0  0  0  0
   20.7770   -0.4827   13.5158 H   0  0  0  0  0  0  0  0  0  0  0  0
   27.9776    7.8717   11.7910 H   0  0  0  0  0  0  0  0  0  0  0  0
   25.5306   10.8585    9.6374 H   0  0  0  0  0  0  0  0  0  0  0  0
   26.1561   10.5869    2.9217 H   0  0  0  0  0  0  0  0  0  0  0  0
  1  2  1  0
  1 27  1  0
  2  3  1  0
  2 28  1  0
  3 15  1  0
  4 28  1  0
  4 29  1  0
  4 30  2  0
  5  6  1  0
  5 29  1  0
  5 32  2  0
  6  7  2  0
  6 31  1  0
  7  8  1  0
  7 30  1  0
  8 17  2  0
  9 10  2  0
  9 14  1  0
  9 33  1  0
 10 11  1  0
 11 12  2  0
 12 13  1  0
 15 12  1  0
 13 14  2  0
 15 16  1  0
 16 27  1  0
 17 31  1  0
 18 29  1  0
 27 19  1  0
 20 21  1  0
 20 33  1  0
 21 22  2  0
 21 26  1  0
 22 23  1  0
 23 24  2  0
 24 25  1  0
 25 26  2  0
  1 34  1  0
  1 35  1  0
  2 36  1  6
  3 37  1  0
  3 38  1  0
  8 39  1  0
 10 40  1  0
 11 41  1  0
 13 42  1  0
 14 43  1  0
 15 44  1  6
 16 45  1  0
 16 46  1  0
 17 47  1  0
 18 48  1  0
 18 49  1  0
 18 50  1  0
 19 51  1  0
 19 52  1  0
 19 53  1  0
 20 54  1  0
 20 55  1  0
 22 56  1  0
 23 57  1  0
 24 58  1  0
 25 59  1  0
 26 60  1  0
 27 61  1  6
 28 62  1  0
 31 63  1  0
M  CHG  1  27   1
M  END
>  <filename_input>  (23) 
7CD9_FVR_docked.sdf

>  <pdb_id>  (23) 
7CD9_FVR

>  <pose_rank>  (23) 
22

>  <num_atoms_heavy>  (23) 
33

>  <num_torsions>  (23) 
5

>  <pose>  (23) 
[26.635369453023994, 9.278019645849607, 11.304319607369914, 2.784475444645191, 0.1987554245684622, -1.0857111181855497, -4.9883978096086015, 0.8633871111915707, 3.8319735575093263, -1.4165399414879947, -2.219340046140914]

>  <energy>  (23) 
-456.31544650809207

>  <inter_energy>  (23) 
-448.45433753146375

>  <intra_energy>  (23) 
8.26706675260576

>  <rmsd>  (23) 
11.737

>  <sdf_rank>  (23) 
0

$$$$

     RDKit          3D

 63 67  0  0  0  0  0  0  0  0999 V2000
   18.3629   11.8111   11.4764 C   0  0  0  0  0  0  0  0  0  0  0  0
   18.4539   10.4218   12.1738 C   0  0  1  0  0  0  0  0  0  0  0  0
   18.0580   10.5234   13.5736 C   0  0  0  0  0  0  0  0  0  0  0  0
   17.8728    8.1183   11.2425 C   0  0  0  0  0  0  0  0  0  0  0  0
   17.3048    5.9964   10.4280 C   0  0  0  0  0  0  0  0  0  0  0  0
   18.4112    5.5166   11.1288 C   0  0  0  0  0  0  0  0  0  0  0  0
   19.2053    6.3739   11.8382 C   0  0  0  0  0  0  0  0  0  0  0  0
   20.2648    5.6422   12.4036 C   0  0  0  0  0  0  0  0  0  0  0  0
   17.8994   11.8970   18.4418 C   0  0  0  0  0  0  0  0  0  0  0  0
   19.1742   11.4589   18.1058 C   0  0  0  0  0  0  0  0  0  0  0  0
   19.5357   11.2783   16.7747 C   0  0  0  0  0  0  0  0  0  0  0  0
   18.6566   11.6484   15.7776 C   0  0  0  0  0  0  0  0  0  0  0  0
   17.3848   12.0793   16.0999 C   0  0  0  0  0  0  0  0  0  0  0  0
   17.0320   12.2468   17.4413 C   0  0  0  0  0  0  0  0  0  0  0  0
   18.9575   11.4790   14.2453 C   0  0  2  0  0  0  0  0  0  0  0  0
   18.8095   12.8626   13.5605 C   0  0  0  0  0  0  0  0  0  0  0  0
   20.0345    4.3385   12.0041 C   0  0  0  0  0  0  0  0  0  0  0  0
   15.9358    7.8606    9.7895 C   0  0  0  0  0  0  0  0  0  0  0  0
   18.9772   13.9547   11.6284 C   0  0  0  0  0  0  0  0  0  0  0  0
   18.1323   11.3916   20.8157 C   0  0  0  0  0  0  0  0  0  0  0  0
   18.9448   12.3886   21.6593 C   0  0  0  0  0  0  0  0  0  0  0  0
   18.3392   13.0830   22.6884 C   0  0  0  0  0  0  0  0  0  0  0  0
   19.0582   13.9774   23.4666 C   0  0  0  0  0  0  0  0  0  0  0  0
   20.3971   14.1934   23.1941 C   0  0  0  0  0  0  0  0  0  0  0  0
   21.0009   13.5132   22.1658 C   0  0  0  0  0  0  0  0  0  0  0  0
   20.2765   12.6056   21.4140 C   0  0  0  0  0  0  0  0  0  0  0  0
   19.1555   12.7984   12.1528 N   0  0  2  0  0  0  0  0  0  0  0  0
   17.5660    9.5123   11.3450 N   0  0  0  0  0  0  0  0  0  0  0  0
   17.0635    7.3068   10.5357 N   0  0  0  0  0  0  0  0  0  0  0  0
   18.9439    7.6969   11.8917 N   0  0  0  0  0  0  0  0  0  0  0  0
   18.9382    4.2553   11.2628 N   0  0  0  0  0  0  0  0  0  0  0  0
   16.5311    5.2939    9.8113 O   0  0  0  0  0  0  0  0  0  0  0  0
   17.4695   12.1005   19.7820 O   0  0  0  0  0  0  0  0  0  0  0  0
   18.7217   11.7143   10.4411 H   0  0  0  0  0  0  0  0  0  0  0  0
   17.3132   12.1388   11.5012 H   0  0  0  0  0  0  0  0  0  0  0  0
   19.4759   10.0168   12.2119 H   0  0  0  0  0  0  0  0  0  0  0  0
   17.0199   10.8808   13.6408 H   0  0  0  0  0  0  0  0  0  0  0  0
   18.1258    9.5377   14.0573 H   0  0  0  0  0  0  0  0  0  0  0  0
   21.0906    6.0214   13.0236 H   0  0  0  0  0  0  0  0  0  0  0  0
   19.9057   11.2526   18.9009 H   0  0  0  0  0  0  0  0  0  0  0  0
   20.5137   10.8444   16.5193 H   0  0  0  0  0  0  0  0  0  0  0  0
   16.6539   12.2894   15.3052 H   0  0  0  0  0  0  0  0  0  0  0  0
   16.0468   12.6641   17.6966 H   0  0  0  0  0  0  0  0  0  0  0  0
   19.9782   11.0786   14.1562 H   0  0  0  0  0  0  0  0  0  0  0  0
   17.7670   13.1999   13.6574 H   0  0  0  0  0  0  0  0  0  0  0  0
   19.4960   13.5670   14.0530 H   0  0  0  0  0  0  0  0  0  0  0  0
   20.6755    3.4840   12.2665 H   0  0  0  0  0  0  0  0  0  0  0  0
   15.1775    8.2331   10.4940 H   0  0  0  0  0  0  0  0  0  0  0  0
   16.2864    8.6891    9.1564 H   0  0  0  0  0  0  0  0  0  0  0  0
   15.4945    7.0767    9.1564 H   0  0  0  0  0  0  0  0  0  0  0  0
   18.8616   14.7046   12.4249 H   0  0  0  0  0  0  0  0  0  0  0  0
   19.8462   14.2126   11.0053 H   0  0  0  0  0  0  0  0  0  0  0  0
   18.0709   13.9389   11.0053 H   0  0  0  0  0  0  0  0  0  0  0  0
   18.8077   10.6429   20.3761 H   0  0  0  0  0  0  0  0  0  0  0  0
   17.3939   10.8799   21.4506 H   0  0  0  0  0  0  0  0  0  0  0  0
   17.2703   12.9239   22.8938 H   0  0  0  0  0  0  0  0  0  0  0  0
   18.5678   14.5110   24.2941 H   0  0  0  0  0  0  0  0  0  0  0  0
   20.9756   14.9073   23.7988 H   0  0  0  0  0  0  0  0  0  0  0  0
   22.0627   13.6901   21.9393 H   0  0  0  0  0  0  0  0  0  0  0  0
   20.7762   12.0496   20.6072 H   0  0  0  0  0  0  0  0  0  0  0  0
   20.1436   12.5238   12.0572 H   0  0  0  0  0  0  0  0  0  0  0  0
   16.7445    9.8973   10.8574 H   0  0  0  0  0  0  0  0  0  0  0  0
   18.5486    3.3925   10.8568 H   0  0  0  0  0  0  0  0  0  0  0  0
  1  2  1  0
  1 27  1  0
  2  3  1  0
  2 28  1  0
  3 15  1  0
  4 28  1  0
  4 29  1  0
  4 30  2  0
  5  6  1  0
  5 29  1  0
  5 32  2  0
  6  7  2  0
  6 31  1  0
  7  8  1  0
  7 30  1  0
  8 17  2  0
  9 10  2  0
  9 14  1  0
  9 33  1  0
 10 11  1  0
 11 12  2  0
 12 13  1  0
 15 12  1  0
 13 14  2  0
 15 16  1  0
 16 27  1  0
 17 31  1  0
 18 29  1  0
 27 19  1  0
 20 21  1  0
 20 33  1  0
 21 22  2  0
 21 26  1  0
 22 23  1  0
 23 24  2  0
 24 25  1  0
 25 26  2  0
  1 34  1  0
  1 35  1  0
  2 36  1  1
  3 37  1  0
  3 38  1  0
  8 39  1  0
 10 40  1  0
 11 41  1  0
 13 42  1  0
 14 43  1  0
 15 44  1  1
 16 45  1  0
 16 46  1  0
 17 47  1  0
 18 48  1  0
 18 49  1  0
 18 50  1  0
 19 51  1  0
 19 52  1  0
 19 53  1  0
 20 54  1  0
 20 55  1  0
 22 56  1  0
 23 57  1  0
 24 58  1  0
 25 59  1  0
 26 60  1  0
 27 61  1  1
 28 62  1  0
 31 63  1  0
M  CHG  1  27   1
M  END
>  <filename_input>  (24) 
7CD9_FVR_docked.sdf

>  <pdb_id>  (24) 
7CD9_FVR

>  <pose_rank>  (24) 
23

>  <num_atoms_heavy>  (24) 
33

>  <num_torsions>  (24) 
5

>  <pose>  (24) 
[18.3629341446644, 11.811091074736437, 11.47637628880859, -3.7813696055420625, 0.3031580999073873, 3.1576052164048507, 1.1542637044502053, -9.833998431682854, -12.80096317793087, -1.4056091353349407, -6.177745523211999]

>  <energy>  (24) 
-453.6595241537435

>  <inter_energy>  (24) 
-440.3431583422072

>  <intra_energy>  (24) 
3.5193587769076973

>  <rmsd>  (24) 
6.15823

>  <sdf_rank>  (24) 
0

$$$$

     RDKit          3D

 63 67  0  0  0  0  0  0  0  0999 V2000
   22.2043   10.4468   17.0378 C   0  0  0  0  0  0  0  0  0  0  0  0
   21.9609    9.3545   15.9550 C   0  0  1  0  0  0  0  0  0  0  0  0
   20.6646    9.5460   15.3151 C   0  0  0  0  0  0  0  0  0  0  0  0
   23.1394    8.7550   13.7726 C   0  0  0  0  0  0  0  0  0  0  0  0
   24.2019    8.2495   11.7468 C   0  0  0  0  0  0  0  0  0  0  0  0
   23.0836    7.4730   11.4435 C   0  0  0  0  0  0  0  0  0  0  0  0
   22.0547    7.3638   12.3369 C   0  0  0  0  0  0  0  0  0  0  0  0
   21.0873    6.4929   11.8048 C   0  0  0  0  0  0  0  0  0  0  0  0
   15.6786   10.0237   14.5926 C   0  0  0  0  0  0  0  0  0  0  0  0
   15.9552    8.8448   15.2736 C   0  0  0  0  0  0  0  0  0  0  0  0
   17.2154    8.6166   15.8165 C   0  0  0  0  0  0  0  0  0  0  0  0
   18.1621    9.6197   15.7770 C   0  0  0  0  0  0  0  0  0  0  0  0
   17.9003   10.7930   15.0975 C   0  0  0  0  0  0  0  0  0  0  0  0
   16.6332   11.0049   14.5486 C   0  0  0  0  0  0  0  0  0  0  0  0
   19.6168    9.4662   16.3491 C   0  0  2  0  0  0  0  0  0  0  0  0
   19.8578   10.5946   17.3855 C   0  0  0  0  0  0  0  0  0  0  0  0
   21.5955    6.1257   10.5722 C   0  0  0  0  0  0  0  0  0  0  0  0
   25.3370    9.6888   13.2951 C   0  0  0  0  0  0  0  0  0  0  0  0
   21.3204   11.4422   18.8332 C   0  0  0  0  0  0  0  0  0  0  0  0
   14.3715   10.7433   12.6643 C   0  0  0  0  0  0  0  0  0  0  0  0
   15.2046    9.7717   11.8111 C   0  0  0  0  0  0  0  0  0  0  0  0
   14.5819    8.7724   11.0888 C   0  0  0  0  0  0  0  0  0  0  0  0
   15.3153    7.8943   10.3055 C   0  0  0  0  0  0  0  0  0  0  0  0
   16.6933    8.0075   10.2641 C   0  0  0  0  0  0  0  0  0  0  0  0
   17.3176    8.9927   10.9883 C   0  0  0  0  0  0  0  0  0  0  0  0
   16.5703    9.8768   11.7456 C   0  0  0  0  0  0  0  0  0  0  0  0
   21.1568   10.4654   18.0191 N   0  0  2  0  0  0  0  0  0  0  0  0
   23.1410    9.4756   15.0090 N   0  0  0  0  0  0  0  0  0  0  0  0
   24.1715    8.8919   12.9187 N   0  0  0  0  0  0  0  0  0  0  0  0
   22.0811    8.0034   13.5251 N   0  0  0  0  0  0  0  0  0  0  0  0
   22.7654    6.7081   10.3479 N   0  0  0  0  0  0  0  0  0  0  0  0
   25.1337    8.4280   10.9904 O   0  0  0  0  0  0  0  0  0  0  0  0
   14.4121   10.3159   14.0156 O   0  0  0  0  0  0  0  0  0  0  0  0
   23.1607   10.2426   17.5414 H   0  0  0  0  0  0  0  0  0  0  0  0
   22.2228   11.4265   16.5379 H   0  0  0  0  0  0  0  0  0  0  0  0
   21.9106    8.3349   16.3650 H   0  0  0  0  0  0  0  0  0  0  0  0
   20.6326   10.5326   14.8296 H   0  0  0  0  0  0  0  0  0  0  0  0
   20.5020    8.7699   14.5527 H   0  0  0  0  0  0  0  0  0  0  0  0
   20.1400    6.1753   12.2651 H   0  0  0  0  0  0  0  0  0  0  0  0
   15.1689    8.0836   15.3848 H   0  0  0  0  0  0  0  0  0  0  0  0
   17.4551    7.6450   16.2732 H   0  0  0  0  0  0  0  0  0  0  0  0
   18.6849   11.5564   14.9892 H   0  0  0  0  0  0  0  0  0  0  0  0
   16.3996   11.9703   14.0759 H   0  0  0  0  0  0  0  0  0  0  0  0
   19.6851    8.4657   16.8011 H   0  0  0  0  0  0  0  0  0  0  0  0
   19.8045   11.5670   16.8743 H   0  0  0  0  0  0  0  0  0  0  0  0
   19.0847   10.5190   18.1644 H   0  0  0  0  0  0  0  0  0  0  0  0
   21.0956    5.4413    9.8710 H   0  0  0  0  0  0  0  0  0  0  0  0
   25.4089    9.7380   14.3917 H   0  0  0  0  0  0  0  0  0  0  0  0
   26.2467    9.2228   12.8885 H   0  0  0  0  0  0  0  0  0  0  0  0
   25.2328   10.7056   12.8885 H   0  0  0  0  0  0  0  0  0  0  0  0
   21.2584   11.0721   19.8672 H   0  0  0  0  0  0  0  0  0  0  0  0
   22.3074   11.8980   18.6655 H   0  0  0  0  0  0  0  0  0  0  0  0
   20.5358   12.1947   18.6655 H   0  0  0  0  0  0  0  0  0  0  0  0
   14.7903   11.7574   12.5846 H   0  0  0  0  0  0  0  0  0  0  0  0
   13.3310   10.7557   12.3076 H   0  0  0  0  0  0  0  0  0  0  0  0
   13.4875    8.6718   11.1357 H   0  0  0  0  0  0  0  0  0  0  0  0
   14.8054    7.1138    9.7217 H   0  0  0  0  0  0  0  0  0  0  0  0
   17.2866    7.3110    9.6534 H   0  0  0  0  0  0  0  0  0  0  0  0
   18.4139    9.0793   10.9662 H   0  0  0  0  0  0  0  0  0  0  0  0
   17.0794   10.6763   12.3038 H   0  0  0  0  0  0  0  0  0  0  0  0
   21.1971    9.5748   18.5348 H   0  0  0  0  0  0  0  0  0  0  0  0
   23.9414   10.0750   15.2561 H   0  0  0  0  0  0  0  0  0  0  0  0
   23.3376    6.6047    9.4977 H   0  0  0  0  0  0  0  0  0  0  0  0
  1  2  1  0
  1 27  1  0
  2  3  1  0
  2 28  1  0
  3 15  1  0
  4 28  1  0
  4 29  1  0
  4 30  2  0
  5  6  1  0
  5 29  1  0
  5 32  2  0
  6  7  2  0
  6 31  1  0
  7  8  1  0
  7 30  1  0
  8 17  2  0
  9 10  2  0
  9 14  1  0
  9 33  1  0
 10 11  1  0
 11 12  2  0
 12 13  1  0
 15 12  1  0
 13 14  2  0
 15 16  1  0
 16 27  1  0
 17 31  1  0
 18 29  1  0
 27 19  1  0
 20 21  1  0
 20 33  1  0
 21 22  2  0
 21 26  1  0
 22 23  1  0
 23 24  2  0
 24 25  1  0
 25 26  2  0
  1 34  1  0
  1 35  1  0
  2 36  1  1
  3 37  1  0
  3 38  1  0
  8 39  1  0
 10 40  1  0
 11 41  1  0
 13 42  1  0
 14 43  1  0
 15 44  1  1
 16 45  1  0
 16 46  1  0
 17 47  1  0
 18 48  1  0
 18 49  1  0
 18 50  1  0
 19 51  1  0
 19 52  1  0
 19 53  1  0
 20 54  1  0
 20 55  1  0
 22 56  1  0
 23 57  1  0
 24 58  1  0
 25 59  1  0
 26 60  1  0
 27 61  1  1
 28 62  1  0
 31 63  1  0
M  CHG  1  27   1
M  END
>  <filename_input>  (25) 
7CD9_FVR_docked.sdf

>  <pdb_id>  (25) 
7CD9_FVR

>  <pose_rank>  (25) 
24

>  <num_atoms_heavy>  (25) 
33

>  <num_torsions>  (25) 
5

>  <pose>  (25) 
[22.204259789422956, 10.446834321104076, 17.037806296700403, 2.3549307311890177, -1.542705609403529, -0.09427297312608895, 1.8548281501743946, -9.829699788481344, -2.075628507824096, -2.474940579473577, -5.9247028290138966]

>  <energy>  (25) 
-398.45785294820706

>  <inter_energy>  (25) 
-457.9969289468851

>  <intra_energy>  (25) 
72.45471352739104

>  <rmsd>  (25) 
6.51122

>  <sdf_rank>  (25) 
0

$$$$

     RDKit          3D

 63 67  0  0  0  0  0  0  0  0999 V2000
   17.8340    6.2450   10.8800 C   0  0  0  0  0  0  0  0  0  0  0  0
   18.5890    6.5290   12.2120 C   0  0  1  0  0  0  0  0  0  0  0  0
   17.8030    7.4080   13.0700 C   0  0  0  0  0  0  0  0  0  0  0  0
   19.9890    4.4020   12.3760 C   0  0  0  0  0  0  0  0  0  0  0  0
   21.3000    2.4700   12.5690 C   0  0  0  0  0  0  0  0  0  0  0  0
   22.1470    3.0440   11.6210 C   0  0  0  0  0  0  0  0  0  0  0  0
   21.8560    4.2670   11.0840 C   0  0  0  0  0  0  0  0  0  0  0  0
   22.8390    4.5850   10.1300 C   0  0  0  0  0  0  0  0  0  0  0  0
   15.3610   11.7430   14.5000 C   0  0  0  0  0  0  0  0  0  0  0  0
   15.0120   10.4100   14.6770 C   0  0  0  0  0  0  0  0  0  0  0  0
   15.6710    9.4040   13.9780 C   0  0  0  0  0  0  0  0  0  0  0  0
   16.7570    9.7260   13.1900 C   0  0  0  0  0  0  0  0  0  0  0  0
   17.1090   11.0480   13.0020 C   0  0  0  0  0  0  0  0  0  0  0  0
   16.4320   12.0490   13.7030 C   0  0  0  0  0  0  0  0  0  0  0  0
   17.5660    8.6730   12.3510 C   0  0  2  0  0  0  0  0  0  0  0  0
   16.7720    8.3640   11.0550 C   0  0  0  0  0  0  0  0  0  0  0  0
   23.7060    3.5080   10.1570 C   0  0  0  0  0  0  0  0  0  0  0  0
   19.3070    2.6260   13.8960 C   0  0  0  0  0  0  0  0  0  0  0  0
   16.7860    7.2050    9.1550 C   0  0  0  0  0  0  0  0  0  0  0  0
   13.5420   12.5410   15.9140 C   0  0  0  0  0  0  0  0  0  0  0  0
   12.8880   13.8730   16.3190 C   0  0  0  0  0  0  0  0  0  0  0  0
   12.1510   14.5930   15.3990 C   0  0  0  0  0  0  0  0  0  0  0  0
   11.5450   15.7900   15.7490 C   0  0  0  0  0  0  0  0  0  0  0  0
   11.6990   16.2810   17.0330 C   0  0  0  0  0  0  0  0  0  0  0  0
   12.4390   15.5740   17.9480 C   0  0  0  0  0  0  0  0  0  0  0  0
   13.0170   14.3690   17.5910 C   0  0  0  0  0  0  0  0  0  0  0  0
   17.5020    7.4580   10.1880 N   0  0  2  0  0  0  0  0  0  0  0  0
   18.8540    5.1590   12.8080 N   0  0  0  0  0  0  0  0  0  0  0  0
   20.2420    3.2020   12.9320 N   0  0  0  0  0  0  0  0  0  0  0  0
   20.7570    4.9570   11.4550 N   0  0  0  0  0  0  0  0  0  0  0  0
   23.3110    2.6020   11.0410 N   0  0  0  0  0  0  0  0  0  0  0  0
   21.5120    1.4100   13.1200 O   0  0  0  0  0  0  0  0  0  0  0  0
   14.7260   12.8160   15.1840 O   0  0  0  0  0  0  0  0  0  0  0  0
   18.4744    5.6288   10.2318 H   0  0  0  0  0  0  0  0  0  0  0  0
   16.8974    5.7214   11.1221 H   0  0  0  0  0  0  0  0  0  0  0  0
   19.5376    7.0680   12.0715 H   0  0  0  0  0  0  0  0  0  0  0  0
   16.8410    6.9308   13.3085 H   0  0  0  0  0  0  0  0  0  0  0  0
   18.3445    7.6028   14.0075 H   0  0  0  0  0  0  0  0  0  0  0  0
   22.9037    5.4869    9.5036 H   0  0  0  0  0  0  0  0  0  0  0  0
   14.2057   10.1472   15.3776 H   0  0  0  0  0  0  0  0  0  0  0  0
   15.3294    8.3610   14.0528 H   0  0  0  0  0  0  0  0  0  0  0  0
   17.9177   11.3114   12.3044 H   0  0  0  0  0  0  0  0  0  0  0  0
   16.7627   13.0943   13.6139 H   0  0  0  0  0  0  0  0  0  0  0  0
   18.5515    9.1132   12.1391 H   0  0  0  0  0  0  0  0  0  0  0  0
   15.8108    7.9028   11.3260 H   0  0  0  0  0  0  0  0  0  0  0  0
   16.6141    9.3083   10.5133 H   0  0  0  0  0  0  0  0  0  0  0  0
   24.6041    3.4152    9.5286 H   0  0  0  0  0  0  0  0  0  0  0  0
   19.6549    2.8403   14.9173 H   0  0  0  0  0  0  0  0  0  0  0  0
   18.3101    3.0667   13.7482 H   0  0  0  0  0  0  0  0  0  0  0  0
   19.2522    1.5374   13.7482 H   0  0  0  0  0  0  0  0  0  0  0  0
   15.7934    6.8543    9.4738 H   0  0  0  0  0  0  0  0  0  0  0  0
   16.6759    8.1187    8.5524 H   0  0  0  0  0  0  0  0  0  0  0  0
   17.2744    6.4250    8.5524 H   0  0  0  0  0  0  0  0  0  0  0  0
   13.7899   11.9617   16.8157 H   0  0  0  0  0  0  0  0  0  0  0  0
   12.8470   11.9575   15.2924 H   0  0  0  0  0  0  0  0  0  0  0  0
   12.0432   14.2110   14.3731 H   0  0  0  0  0  0  0  0  0  0  0  0
   10.9465   16.3448   15.0114 H   0  0  0  0  0  0  0  0  0  0  0  0
   11.2305   17.2340   17.3197 H   0  0  0  0  0  0  0  0  0  0  0  0
   12.5726   15.9664   18.9669 H   0  0  0  0  0  0  0  0  0  0  0  0
   13.5888   13.8000   18.3388 H   0  0  0  0  0  0  0  0  0  0  0  0
   18.3845    7.9023    9.8969 H   0  0  0  0  0  0  0  0  0  0  0  0
   18.2185    4.7748   13.5218 H   0  0  0  0  0  0  0  0  0  0  0  0
   23.7943    1.7182   11.2559 H   0  0  0  0  0  0  0  0  0  0  0  0
  1  2  1  0
  1 27  1  0
  2  3  1  0
  2 28  1  0
  3 15  1  0
  4 28  1  0
  4 29  1  0
  4 30  2  0
  5  6  1  0
  5 29  1  0
  5 32  2  0
  6  7  2  0
  6 31  1  0
  7  8  1  0
  7 30  1  0
  8 17  2  0
  9 10  2  0
  9 14  1  0
  9 33  1  0
 10 11  1  0
 11 12  2  0
 12 13  1  0
 15 12  1  0
 13 14  2  0
 15 16  1  0
 16 27  1  0
 17 31  1  0
 18 29  1  0
 27 19  1  0
 20 21  1  0
 20 33  1  0
 21 22  2  0
 21 26  1  0
 22 23  1  0
 23 24  2  0
 24 25  1  0
 25 26  2  0
  1 34  1  0
  1 35  1  0
  2 36  1  6
  3 37  1  0
  3 38  1  0
  8 39  1  0
 10 40  1  0
 11 41  1  0
 13 42  1  0
 14 43  1  0
 15 44  1  6
 16 45  1  0
 16 46  1  0
 17 47  1  0
 18 48  1  0
 18 49  1  0
 18 50  1  0
 19 51  1  0
 19 52  1  0
 19 53  1  0
 20 54  1  0
 20 55  1  0
 22 56  1  0
 23 57  1  0
 24 58  1  0
 25 59  1  0
 26 60  1  0
 27 61  1  6
 28 62  1  0
 31 63  1  0
M  CHG  1  27   1
M  END
>  <filename_input>  (26) 
7CD9_FVR_docked.sdf

>  <pdb_id>  (26) 
7CD9_FVR

>  <pose_rank>  (26) 
25

>  <num_atoms_heavy>  (26) 
33

>  <num_torsions>  (26) 
5

>  <pose>  (26) 
[17.834, 6.245, 10.88, 1e-06, 1e-06, 1e-06, 0.0, 0.0, 0.0, 0.0, 0.0]

>  <energy>  (26) 
-908.818078460534

>  <inter_energy>  (26) 
-916.0307609322836

>  <intra_energy>  (26) 
6.196150881587867

>  <rmsd>  (26) 
0.0

>  <sdf_rank>  (26) 
0

$$$$
