
     RDKit          3D

 38 38  0  0  0  0  0  0  0  0999 V2000
   25.5619  -12.2300   57.5865 C   0  0  0  0  0  0  0  0  0  0  0  0
   24.8276  -11.3181   56.7919 C   0  0  0  0  0  0  0  0  0  0  0  0
   23.8787  -11.7862   55.8792 C   0  0  0  0  0  0  0  0  0  0  0  0
   23.6355  -13.1012   55.7469 N   0  0  0  0  0  0  0  0  0  0  0  0
   25.2787  -13.6131   57.3888 C   0  0  0  0  0  0  0  0  0  0  0  0
   28.4606   -8.4957   56.6223 O   0  0  0  0  0  0  0  0  0  0  0  0
   27.1256   -8.2801   57.1289 P   0  0  2  0  0  0  0  0  0  0  0  0
   26.3899   -7.0720   56.6452 O   0  0  0  0  0  0  0  0  0  0  0  0
   26.9389   -8.4749   58.5739 O   0  0  0  0  0  0  0  0  0  0  0  0
   26.3692   -9.5595   56.4592 O   0  0  0  0  0  0  0  0  0  0  0  0
   25.0276   -9.7993   56.8274 C   0  0  0  0  0  0  0  0  0  0  0  0
   24.3053  -14.0280   56.4910 C   0  0  0  0  0  0  0  0  0  0  0  0
   23.9600  -15.4720   56.2252 C   0  0  0  0  0  0  0  0  0  0  0  0
   25.9159  -14.5778   58.1004 O   0  0  0  0  0  0  0  0  0  0  0  0
   26.5544  -11.8022   58.4881 C   0  0  0  0  0  0  0  0  0  0  0  0
   26.2040  -11.2905   59.6465 N   0  0  0  0  0  0  0  0  0  0  0  0
   27.1511  -10.8915   60.6937 C   0  0  0  0  0  0  0  0  0  0  0  0
   28.6530  -10.8519   60.4555 C   0  0  0  0  0  0  0  0  0  0  0  0
   29.4978  -11.7439   61.3225 C   0  0  0  0  0  0  0  0  0  0  0  0
   31.1902  -11.0310   61.1432 S   0  0  0  0  0  0  0  0  0  0  0  0
   32.0217  -12.1893   60.0693 C   0  0  0  0  0  0  0  0  0  0  0  0
   23.3223  -11.0675   55.2597 H   0  0  0  0  0  0  0  0  0  0  0  0
   24.3457   -9.3102   56.1162 H   0  0  0  0  0  0  0  0  0  0  0  0
   24.8127   -9.3946   57.8274 H   0  0  0  0  0  0  0  0  0  0  0  0
   23.8336  -16.0007   57.1815 H   0  0  0  0  0  0  0  0  0  0  0  0
   23.0238  -15.5253   55.6502 H   0  0  0  0  0  0  0  0  0  0  0  0
   24.7709  -15.9430   55.6502 H   0  0  0  0  0  0  0  0  0  0  0  0
   25.7011  -15.5315   57.9443 H   0  0  0  0  0  0  0  0  0  0  0  0
   27.6182  -11.8959   58.2243 H   0  0  0  0  0  0  0  0  0  0  0  0
   26.8616   -9.8750   60.9984 H   0  0  0  0  0  0  0  0  0  0  0  0
   27.0554  -11.7163   61.4152 H   0  0  0  0  0  0  0  0  0  0  0  0
   28.8321  -11.1379   59.4085 H   0  0  0  0  0  0  0  0  0  0  0  0
   28.9592   -9.8266   60.7104 H   0  0  0  0  0  0  0  0  0  0  0  0
   29.1635  -11.7067   62.3698 H   0  0  0  0  0  0  0  0  0  0  0  0
   29.4440  -12.8033   61.0315 H   0  0  0  0  0  0  0  0  0  0  0  0
   32.5564  -12.9340   60.6772 H   0  0  0  0  0  0  0  0  0  0  0  0
   31.2810  -12.6976   59.4345 H   0  0  0  0  0  0  0  0  0  0  0  0
   32.7402  -11.6500   59.4345 H   0  0  0  0  0  0  0  0  0  0  0  0
  1  2  2  0
  1  5  1  0
  1 15  1  0
  2  3  1  0
  2 11  1  0
  3  4  2  0
  4 12  1  0
  5 12  2  0
  5 14  1  0
  7  6  1  1
  7  8  1  0
  7  9  2  0
  7 10  1  0
 10 11  1  0
 12 13  1  0
 15 16  2  3
 16 17  1  0
 17 18  1  0
 18 19  1  0
 19 20  1  0
 20 21  1  0
  3 22  1  0
 11 23  1  0
 11 24  1  0
 13 25  1  0
 13 26  1  0
 13 27  1  0
 14 28  1  0
 15 29  1  0
 17 30  1  0
 17 31  1  0
 18 32  1  0
 18 33  1  0
 19 34  1  0
 19 35  1  0
 21 36  1  0
 21 37  1  0
 21 38  1  0
M  CHG  2   6  -1   8  -1
M  END
>  <filename_input>  (1) 
7CIJ_G0C_docked.sdf

>  <pdb_id>  (1) 
7CIJ_G0C

>  <pose_rank>  (1) 
0

>  <num_atoms_heavy>  (1) 
21

>  <num_torsions>  (1) 
8

>  <pose>  (1) 
[25.56191220610447, -12.23000434183709, 57.586455028652985, 2.9515411645984058, -3.982364023544047, 3.8405992405092495, -1.5543866217495557, 0.2800537479837, 0.8863754858740964, 2.1657719871205328, -9.393591258279038, -0.17339040583892312, 0.09910594643279261, 6.218505293092935]

>  <energy>  (1) 
-900.2296259772008

>  <inter_energy>  (1) 
-923.7988680498697

>  <intra_energy>  (1) 
24.803110302232486

>  <rmsd>  (1) 
0.726447

>  <sdf_rank>  (1) 
0

$$$$

     RDKit          3D

 38 38  0  0  0  0  0  0  0  0999 V2000
   25.5700  -11.8488   57.8863 C   0  0  0  0  0  0  0  0  0  0  0  0
   24.8915  -10.9463   57.0335 C   0  0  0  0  0  0  0  0  0  0  0  0
   24.0647  -11.4278   56.0150 C   0  0  0  0  0  0  0  0  0  0  0  0
   23.8870  -12.7474   55.8334 N   0  0  0  0  0  0  0  0  0  0  0  0
   25.3622  -13.2364   57.6343 C   0  0  0  0  0  0  0  0  0  0  0  0
   26.7478   -7.7314   58.3033 O   0  0  0  0  0  0  0  0  0  0  0  0
   26.9722   -7.7002   56.8771 P   0  0  2  0  0  0  0  0  0  0  0  0
   28.3818   -7.8296   56.3966 O   0  0  0  0  0  0  0  0  0  0  0  0
   26.2461   -6.6654   56.1269 O   0  0  0  0  0  0  0  0  0  0  0  0
   26.2284   -9.0874   56.4530 O   0  0  0  0  0  0  0  0  0  0  0  0
   25.0290   -9.4226   57.1178 C   0  0  0  0  0  0  0  0  0  0  0  0
   24.5074  -13.6659   56.6289 C   0  0  0  0  0  0  0  0  0  0  0  0
   24.2476  -15.1150   56.3013 C   0  0  0  0  0  0  0  0  0  0  0  0
   25.9551  -14.1932   58.3932 O   0  0  0  0  0  0  0  0  0  0  0  0
   26.4428  -11.4059   58.8978 C   0  0  0  0  0  0  0  0  0  0  0  0
   27.6704  -11.0531   58.5892 N   0  0  0  0  0  0  0  0  0  0  0  0
   28.6355  -10.4984   59.5450 C   0  0  0  0  0  0  0  0  0  0  0  0
   28.4081  -10.5500   61.0482 C   0  0  0  0  0  0  0  0  0  0  0  0
   29.1702  -11.5984   61.8106 C   0  0  0  0  0  0  0  0  0  0  0  0
   27.8376  -12.6260   62.5671 S   0  0  0  0  0  0  0  0  0  0  0  0
   26.3883  -11.5914   62.4429 C   0  0  0  0  0  0  0  0  0  0  0  0
   23.5515  -10.7159   55.3519 H   0  0  0  0  0  0  0  0  0  0  0  0
   24.1737   -8.9367   56.6254 H   0  0  0  0  0  0  0  0  0  0  0  0
   25.0479   -9.0837   58.1642 H   0  0  0  0  0  0  0  0  0  0  0  0
   24.1447  -15.6891   57.2340 H   0  0  0  0  0  0  0  0  0  0  0  0
   23.3203  -15.1980   55.7155 H   0  0  0  0  0  0  0  0  0  0  0  0
   25.0884  -15.5150   55.7155 H   0  0  0  0  0  0  0  0  0  0  0  0
   25.7946  -15.1503   58.1975 H   0  0  0  0  0  0  0  0  0  0  0  0
   26.0991  -11.3554   59.9414 H   0  0  0  0  0  0  0  0  0  0  0  0
   29.5856  -11.0208   59.3600 H   0  0  0  0  0  0  0  0  0  0  0  0
   28.5667   -9.4198   59.3399 H   0  0  0  0  0  0  0  0  0  0  0  0
   28.6862   -9.5692   61.4613 H   0  0  0  0  0  0  0  0  0  0  0  0
   27.3480  -10.8164   61.1713 H   0  0  0  0  0  0  0  0  0  0  0  0
   29.7961  -12.1999   61.1350 H   0  0  0  0  0  0  0  0  0  0  0  0
   29.8604  -11.1732   62.5542 H   0  0  0  0  0  0  0  0  0  0  0  0
   26.0319  -11.3370   63.4520 H   0  0  0  0  0  0  0  0  0  0  0  0
   26.6418  -10.6689   61.9001 H   0  0  0  0  0  0  0  0  0  0  0  0
   25.5981  -12.1309   61.9001 H   0  0  0  0  0  0  0  0  0  0  0  0
  1  2  2  0
  1  5  1  0
  1 15  1  0
  2  3  1  0
  2 11  1  0
  3  4  2  0
  4 12  1  0
  5 12  2  0
  5 14  1  0
  7  6  1  1
  7  8  1  0
  7  9  2  0
  7 10  1  0
 10 11  1  0
 12 13  1  0
 15 16  2  3
 16 17  1  0
 17 18  1  0
 18 19  1  0
 19 20  1  0
 20 21  1  0
  3 22  1  0
 11 23  1  0
 11 24  1  0
 13 25  1  0
 13 26  1  0
 13 27  1  0
 14 28  1  0
 15 29  1  0
 17 30  1  0
 17 31  1  0
 18 32  1  0
 18 33  1  0
 19 34  1  0
 19 35  1  0
 21 36  1  0
 21 37  1  0
 21 38  1  0
M  CHG  2   6  -1   8  -1
M  END
>  <filename_input>  (2) 
7CIJ_G0C_docked.sdf

>  <pdb_id>  (2) 
7CIJ_G0C

>  <pose_rank>  (2) 
1

>  <num_atoms_heavy>  (2) 
21

>  <num_torsions>  (2) 
8

>  <pose>  (2) 
[25.570009394703487, -11.84882348472699, 57.88634552026516, -0.8469611225826059, 5.880540094108073, -1.69332987163973, 1.9748517798206284, 0.3567768755383061, -1.5237359553285563, -3.3742606017497616, -1.5721377744997214, -6.100378290546357, -0.032234466543074894, 3.862233302034255]

>  <energy>  (2) 
-878.0705204403115

>  <inter_energy>  (2) 
-873.0119291210118

>  <intra_energy>  (2) 
7.708357386153801

>  <rmsd>  (2) 
1.84701

>  <sdf_rank>  (2) 
0

$$$$

     RDKit          3D

 38 38  0  0  0  0  0  0  0  0999 V2000
   25.9109  -12.5837   57.8540 C   0  0  0  0  0  0  0  0  0  0  0  0
   25.1871  -11.5308   57.2460 C   0  0  0  0  0  0  0  0  0  0  0  0
   24.1830  -11.8131   56.3160 C   0  0  0  0  0  0  0  0  0  0  0  0
   23.8765  -13.0806   55.9915 N   0  0  0  0  0  0  0  0  0  0  0  0
   25.5588  -13.9066   57.4563 C   0  0  0  0  0  0  0  0  0  0  0  0
   28.6171   -8.7694   56.3709 O   0  0  0  0  0  0  0  0  0  0  0  0
   27.3689   -8.3575   56.9690 P   0  0  2  0  0  0  0  0  0  0  0  0
   26.6800   -7.1686   56.3805 O   0  0  0  0  0  0  0  0  0  0  0  0
   27.3321   -8.3220   58.4382 O   0  0  0  0  0  0  0  0  0  0  0  0
   26.4439   -9.6435   56.5841 O   0  0  0  0  0  0  0  0  0  0  0  0
   25.4556  -10.0453   57.5087 C   0  0  0  0  0  0  0  0  0  0  0  0
   24.5333  -14.1377   56.5504 C   0  0  0  0  0  0  0  0  0  0  0  0
   24.1140  -15.5077   56.0788 C   0  0  0  0  0  0  0  0  0  0  0  0
   26.1802  -14.9948   57.9787 O   0  0  0  0  0  0  0  0  0  0  0  0
   26.9562  -12.3413   58.7648 C   0  0  0  0  0  0  0  0  0  0  0  0
   26.6779  -12.1102   60.0280 N   0  0  0  0  0  0  0  0  0  0  0  0
   27.6880  -11.9295   61.0767 C   0  0  0  0  0  0  0  0  0  0  0  0
   27.5253  -12.5208   62.4688 C   0  0  0  0  0  0  0  0  0  0  0  0
   27.4685  -14.0205   62.5628 C   0  0  0  0  0  0  0  0  0  0  0  0
   28.2205  -14.3714   64.2108 S   0  0  0  0  0  0  0  0  0  0  0  0
   27.7830  -16.0746   64.5175 C   0  0  0  0  0  0  0  0  0  0  0  0
   23.6352  -10.9851   55.8424 H   0  0  0  0  0  0  0  0  0  0  0  0
   24.5357   -9.4612   57.3586 H   0  0  0  0  0  0  0  0  0  0  0  0
   25.7904   -9.8801   58.5434 H   0  0  0  0  0  0  0  0  0  0  0  0
   23.9171  -16.1507   56.9493 H   0  0  0  0  0  0  0  0  0  0  0  0
   23.2007  -15.4228   55.4717 H   0  0  0  0  0  0  0  0  0  0  0  0
   24.9183  -15.9485   55.4717 H   0  0  0  0  0  0  0  0  0  0  0  0
   25.9171  -15.9032   57.6858 H   0  0  0  0  0  0  0  0  0  0  0  0
   28.0010  -12.3452   58.4207 H   0  0  0  0  0  0  0  0  0  0  0  0
   28.6249  -12.3430   60.6751 H   0  0  0  0  0  0  0  0  0  0  0  0
   27.6195  -10.8501   61.2770 H   0  0  0  0  0  0  0  0  0  0  0  0
   28.3764  -12.1807   63.0770 H   0  0  0  0  0  0  0  0  0  0  0  0
   26.5424  -12.1717   62.8182 H   0  0  0  0  0  0  0  0  0  0  0  0
   26.4295  -14.3790   62.5195 H   0  0  0  0  0  0  0  0  0  0  0  0
   27.9905  -14.5237   61.7356 H   0  0  0  0  0  0  0  0  0  0  0  0
   27.7375  -16.2518   65.6022 H   0  0  0  0  0  0  0  0  0  0  0  0
   26.8011  -16.2873   64.0697 H   0  0  0  0  0  0  0  0  0  0  0  0
   28.5409  -16.7342   64.0697 H   0  0  0  0  0  0  0  0  0  0  0  0
  1  2  2  0
  1  5  1  0
  1 15  1  0
  2  3  1  0
  2 11  1  0
  3  4  2  0
  4 12  1  0
  5 12  2  0
  5 14  1  0
  7  6  1  1
  7  8  1  0
  7  9  2  0
  7 10  1  0
 10 11  1  0
 12 13  1  0
 15 16  2  3
 16 17  1  0
 17 18  1  0
 18 19  1  0
 19 20  1  0
 20 21  1  0
  3 22  1  0
 11 23  1  0
 11 24  1  0
 13 25  1  0
 13 26  1  0
 13 27  1  0
 14 28  1  0
 15 29  1  0
 17 30  1  0
 17 31  1  0
 18 32  1  0
 18 33  1  0
 19 34  1  0
 19 35  1  0
 21 36  1  0
 21 37  1  0
 21 38  1  0
M  CHG  2   6  -1   8  -1
M  END
>  <filename_input>  (3) 
7CIJ_G0C_docked.sdf

>  <pdb_id>  (3) 
7CIJ_G0C

>  <pose_rank>  (3) 
2

>  <num_atoms_heavy>  (3) 
21

>  <num_torsions>  (3) 
8

>  <pose>  (3) 
[25.910874330875377, -12.58373489154224, 57.85402005614063, 0.15169713043813957, 0.0515605307738274, -0.04819156147125837, 4.822790233951473, 3.9678944453459026, -2.2093081098741045, 1.3103963157365548, 1.619131832142345, -12.247901833198338, 6.241883367948837, 5.723764158824315]

>  <energy>  (3) 
-772.7637211829688

>  <inter_energy>  (3) 
-779.5461800588272

>  <intra_energy>  (3) 
1.7255349913935603

>  <rmsd>  (3) 
2.50949

>  <sdf_rank>  (3) 
0

$$$$

     RDKit          3D

 38 38  0  0  0  0  0  0  0  0999 V2000
   27.8315  -11.3204   60.4136 C   0  0  0  0  0  0  0  0  0  0  0  0
   27.6756   -9.9141   60.4216 C   0  0  0  0  0  0  0  0  0  0  0  0
   28.7201   -9.0932   60.8549 C   0  0  0  0  0  0  0  0  0  0  0  0
   29.8905   -9.6167   61.2576 N   0  0  0  0  0  0  0  0  0  0  0  0
   29.0851  -11.8213   60.8716 C   0  0  0  0  0  0  0  0  0  0  0  0
   25.5677   -9.6308   56.4609 O   0  0  0  0  0  0  0  0  0  0  0  0
   26.3621   -8.9023   57.4220 P   0  0  2  0  0  0  0  0  0  0  0  0
   25.9777   -7.4854   57.7038 O   0  0  0  0  0  0  0  0  0  0  0  0
   27.8202   -9.0456   57.3026 O   0  0  0  0  0  0  0  0  0  0  0  0
   25.9944   -9.7398   58.7714 O   0  0  0  0  0  0  0  0  0  0  0  0
   26.3860   -9.1944   60.0133 C   0  0  0  0  0  0  0  0  0  0  0  0
   30.1034  -10.9642   61.2642 C   0  0  0  0  0  0  0  0  0  0  0  0
   31.4491  -11.4238   61.7670 C   0  0  0  0  0  0  0  0  0  0  0  0
   29.3507  -13.1524   60.9010 O   0  0  0  0  0  0  0  0  0  0  0  0
   26.7908  -12.1838   60.0232 C   0  0  0  0  0  0  0  0  0  0  0  0
   26.6917  -12.5568   58.7671 N   0  0  0  0  0  0  0  0  0  0  0  0
   25.7017  -13.5167   58.2661 C   0  0  0  0  0  0  0  0  0  0  0  0
   24.9569  -13.3036   56.9569 C   0  0  0  0  0  0  0  0  0  0  0  0
   23.9043  -14.3185   56.6061 C   0  0  0  0  0  0  0  0  0  0  0  0
   24.8893  -15.7959   56.1047 S   0  0  0  0  0  0  0  0  0  0  0  0
   26.4756  -15.5244   56.8770 C   0  0  0  0  0  0  0  0  0  0  0  0
   28.5823   -8.0019   60.8666 H   0  0  0  0  0  0  0  0  0  0  0  0
   25.6022   -9.3641   60.7662 H   0  0  0  0  0  0  0  0  0  0  0  0
   26.5453   -8.1087   59.9367 H   0  0  0  0  0  0  0  0  0  0  0  0
   31.4492  -11.4238   62.8670 H   0  0  0  0  0  0  0  0  0  0  0  0
   31.6496  -12.4413   61.4003 H   0  0  0  0  0  0  0  0  0  0  0  0
   32.2301  -10.7415   61.4003 H   0  0  0  0  0  0  0  0  0  0  0  0
   30.2294  -13.4749   61.2235 H   0  0  0  0  0  0  0  0  0  0  0  0
   26.0640  -12.5446   60.7658 H   0  0  0  0  0  0  0  0  0  0  0  0
   26.2283  -14.4773   58.1669 H   0  0  0  0  0  0  0  0  0  0  0  0
   24.8943  -13.4206   59.0070 H   0  0  0  0  0  0  0  0  0  0  0  0
   24.4676  -12.3198   57.0081 H   0  0  0  0  0  0  0  0  0  0  0  0
   25.7211  -13.3961   56.1711 H   0  0  0  0  0  0  0  0  0  0  0  0
   23.2697  -14.5446   57.4756 H   0  0  0  0  0  0  0  0  0  0  0  0
   23.2175  -13.9720   55.8198 H   0  0  0  0  0  0  0  0  0  0  0  0
   26.3591  -15.5443   57.9706 H   0  0  0  0  0  0  0  0  0  0  0  0
   27.1740  -16.3161   56.5681 H   0  0  0  0  0  0  0  0  0  0  0  0
   26.8710  -14.5455   56.5681 H   0  0  0  0  0  0  0  0  0  0  0  0
  1  2  2  0
  1  5  1  0
  1 15  1  0
  2  3  1  0
  2 11  1  0
  3  4  2  0
  4 12  1  0
  5 12  2  0
  5 14  1  0
  7  6  1  6
  7  8  1  0
  7  9  2  0
  7 10  1  0
 10 11  1  0
 12 13  1  0
 15 16  2  3
 16 17  1  0
 17 18  1  0
 18 19  1  0
 19 20  1  0
 20 21  1  0
  3 22  1  0
 11 23  1  0
 11 24  1  0
 13 25  1  0
 13 26  1  0
 13 27  1  0
 14 28  1  0
 15 29  1  0
 17 30  1  0
 17 31  1  0
 18 32  1  0
 18 33  1  0
 19 34  1  0
 19 35  1  0
 21 36  1  0
 21 37  1  0
 21 38  1  0
M  CHG  2   6  -1   8  -1
M  END
>  <filename_input>  (4) 
7CIJ_G0C_docked.sdf

>  <pdb_id>  (4) 
7CIJ_G0C

>  <pose_rank>  (4) 
3

>  <num_atoms_heavy>  (4) 
21

>  <num_torsions>  (4) 
8

>  <pose>  (4) 
[27.8315322247409, -11.320426327474939, 60.41364152238387, 1.1154250289976977, -2.4666211626836856, 0.7172153077580968, -1.3172496391668425, -3.749709182311823, -0.09898344786303823, -2.5755201386396123, -0.9006980948675596, 4.201052935803033, 0.9380650238398295, 0.24421742085665363]

>  <energy>  (4) 
-632.5541557768819

>  <inter_energy>  (4) 
-699.364731744469

>  <intra_energy>  (4) 
78.37905425435136

>  <rmsd>  (4) 
5.60281

>  <sdf_rank>  (4) 
0

$$$$

     RDKit          3D

 38 38  0  0  0  0  0  0  0  0999 V2000
   27.5452  -12.0738   60.0357 C   0  0  0  0  0  0  0  0  0  0  0  0
   27.9933  -10.7337   59.9619 C   0  0  0  0  0  0  0  0  0  0  0  0
   28.3115  -10.0334   61.1286 C   0  0  0  0  0  0  0  0  0  0  0  0
   28.2124  -10.6170   62.3350 N   0  0  0  0  0  0  0  0  0  0  0  0
   27.4381  -12.6349   61.3418 C   0  0  0  0  0  0  0  0  0  0  0  0
   27.7769   -8.9064   56.3650 O   0  0  0  0  0  0  0  0  0  0  0  0
   26.6918   -8.3682   57.1515 P   0  0  2  0  0  0  0  0  0  0  0  0
   25.3014   -8.7673   56.7747 O   0  0  0  0  0  0  0  0  0  0  0  0
   26.7675   -6.9350   57.4696 O   0  0  0  0  0  0  0  0  0  0  0  0
   26.9953   -9.1028   58.5748 O   0  0  0  0  0  0  0  0  0  0  0  0
   28.1244   -9.9466   58.6538 C   0  0  0  0  0  0  0  0  0  0  0  0
   27.7945  -11.9087   62.4693 C   0  0  0  0  0  0  0  0  0  0  0  0
   27.6985  -12.4349   63.8796 C   0  0  0  0  0  0  0  0  0  0  0  0
   27.0264  -13.9142   61.5341 O   0  0  0  0  0  0  0  0  0  0  0  0
   27.1763  -12.8009   58.8884 C   0  0  0  0  0  0  0  0  0  0  0  0
   26.1036  -13.5592   58.9159 N   0  0  0  0  0  0  0  0  0  0  0  0
   25.5800  -14.2918   57.7575 C   0  0  0  0  0  0  0  0  0  0  0  0
   25.0353  -13.5808   56.5279 C   0  0  0  0  0  0  0  0  0  0  0  0
   25.3403  -12.1134   56.4061 C   0  0  0  0  0  0  0  0  0  0  0  0
   23.6939  -11.3668   56.0371 S   0  0  0  0  0  0  0  0  0  0  0  0
   22.6234  -12.7829   55.8498 C   0  0  0  0  0  0  0  0  0  0  0  0
   28.6483   -8.9885   61.0583 H   0  0  0  0  0  0  0  0  0  0  0  0
   29.0464   -9.3467   58.6628 H   0  0  0  0  0  0  0  0  0  0  0  0
   28.1751  -10.6229   57.7878 H   0  0  0  0  0  0  0  0  0  0  0  0
   27.8492  -11.6088   64.5902 H   0  0  0  0  0  0  0  0  0  0  0  0
   26.7046  -12.8786   64.0385 H   0  0  0  0  0  0  0  0  0  0  0  0
   28.4718  -13.2009   64.0385 H   0  0  0  0  0  0  0  0  0  0  0  0
   26.9604  -14.2804   62.4515 H   0  0  0  0  0  0  0  0  0  0  0  0
   27.7831  -12.7346   57.9733 H   0  0  0  0  0  0  0  0  0  0  0  0
   26.4006  -14.9328   57.4031 H   0  0  0  0  0  0  0  0  0  0  0  0
   24.6743  -14.7585   58.1720 H   0  0  0  0  0  0  0  0  0  0  0  0
   25.4508  -14.0824   55.6414 H   0  0  0  0  0  0  0  0  0  0  0  0
   23.9408  -13.6421   56.6196 H   0  0  0  0  0  0  0  0  0  0  0  0
   25.7509  -11.7169   57.3464 H   0  0  0  0  0  0  0  0  0  0  0  0
   26.0950  -11.8931   55.6367 H   0  0  0  0  0  0  0  0  0  0  0  0
   22.3379  -13.1606   56.8426 H   0  0  0  0  0  0  0  0  0  0  0  0
   21.7199  -12.4888   55.2956 H   0  0  0  0  0  0  0  0  0  0  0  0
   23.1528  -13.5719   55.2956 H   0  0  0  0  0  0  0  0  0  0  0  0
  1  2  2  0
  1  5  1  0
  1 15  1  0
  2  3  1  0
  2 11  1  0
  3  4  2  0
  4 12  1  0
  5 12  2  0
  5 14  1  0
  7  6  1  6
  7  8  1  0
  7  9  2  0
  7 10  1  0
 10 11  1  0
 12 13  1  0
 15 16  2  3
 16 17  1  0
 17 18  1  0
 18 19  1  0
 19 20  1  0
 20 21  1  0
  3 22  1  0
 11 23  1  0
 11 24  1  0
 13 25  1  0
 13 26  1  0
 13 27  1  0
 14 28  1  0
 15 29  1  0
 17 30  1  0
 17 31  1  0
 18 32  1  0
 18 33  1  0
 19 34  1  0
 19 35  1  0
 21 36  1  0
 21 37  1  0
 21 38  1  0
M  CHG  2   6  -1   8  -1
M  END
>  <filename_input>  (5) 
7CIJ_G0C_docked.sdf

>  <pdb_id>  (5) 
7CIJ_G0C

>  <pose_rank>  (5) 
4

>  <num_atoms_heavy>  (5) 
21

>  <num_torsions>  (5) 
8

>  <pose>  (5) 
[27.545196311861176, -12.073786390774696, 60.03568940909456, -0.07793664959645782, 2.3197150668154825, -1.252300394354751, -5.312088370897488, 5.27099222026816, 3.2132033908707625, 2.7142003749778727, -1.3744443137461355, -12.019487101644629, 6.032273723439462, -3.0741074521445695]

>  <energy>  (5) 
-629.4855668021484

>  <inter_energy>  (5) 
-657.035356057538

>  <intra_energy>  (5) 
37.82602504207421

>  <rmsd>  (5) 
5.40535

>  <sdf_rank>  (5) 
0

$$$$

     RDKit          3D

 38 38  0  0  0  0  0  0  0  0999 V2000
   25.5931  -12.4404   57.6718 C   0  0  0  0  0  0  0  0  0  0  0  0
   26.4147  -13.0681   58.6377 C   0  0  0  0  0  0  0  0  0  0  0  0
   26.5047  -14.4618   58.6856 C   0  0  0  0  0  0  0  0  0  0  0  0
   25.8289  -15.2294   57.8139 N   0  0  0  0  0  0  0  0  0  0  0  0
   24.8825  -13.3036   56.7873 C   0  0  0  0  0  0  0  0  0  0  0  0
   28.9179  -10.6696   61.0443 O   0  0  0  0  0  0  0  0  0  0  0  0
   29.6275  -11.3671   59.9977 P   0  0  2  0  0  0  0  0  0  0  0  0
   30.3285  -12.6353   60.3650 O   0  0  0  0  0  0  0  0  0  0  0  0
   30.4550  -10.5386   59.1091 O   0  0  0  0  0  0  0  0  0  0  0  0
   28.3683  -11.8098   59.0619 O   0  0  0  0  0  0  0  0  0  0  0  0
   27.2142  -12.3103   59.7028 C   0  0  0  0  0  0  0  0  0  0  0  0
   25.0277  -14.6820   56.8549 C   0  0  0  0  0  0  0  0  0  0  0  0
   24.3016  -15.6540   55.9587 C   0  0  0  0  0  0  0  0  0  0  0  0
   24.0706  -12.8136   55.8158 O   0  0  0  0  0  0  0  0  0  0  0  0
   25.4433  -11.0421   57.6156 C   0  0  0  0  0  0  0  0  0  0  0  0
   26.0993  -10.3535   56.7088 N   0  0  0  0  0  0  0  0  0  0  0  0
   25.9545   -8.9078   56.5049 C   0  0  0  0  0  0  0  0  0  0  0  0
   26.1563   -7.9063   57.6320 C   0  0  0  0  0  0  0  0  0  0  0  0
   26.8936   -8.3971   58.8472 C   0  0  0  0  0  0  0  0  0  0  0  0
   25.5552   -8.6081   60.0995 S   0  0  0  0  0  0  0  0  0  0  0  0
   26.3063   -9.6411   61.3464 C   0  0  0  0  0  0  0  0  0  0  0  0
   27.1384  -14.9377   59.4484 H   0  0  0  0  0  0  0  0  0  0  0  0
   26.6156  -11.4812   60.1080 H   0  0  0  0  0  0  0  0  0  0  0  0
   27.4813  -12.9698   60.5416 H   0  0  0  0  0  0  0  0  0  0  0  0
   23.7563  -16.3839   56.5750 H   0  0  0  0  0  0  0  0  0  0  0  0
   23.5900  -15.1059   55.3237 H   0  0  0  0  0  0  0  0  0  0  0  0
   25.0291  -16.1809   55.3237 H   0  0  0  0  0  0  0  0  0  0  0  0
   23.5881  -13.4343   55.2143 H   0  0  0  0  0  0  0  0  0  0  0  0
   24.7804  -10.5282   58.3272 H   0  0  0  0  0  0  0  0  0  0  0  0
   26.6743   -8.6349   55.7192 H   0  0  0  0  0  0  0  0  0  0  0  0
   24.8773   -8.8117   56.3035 H   0  0  0  0  0  0  0  0  0  0  0  0
   26.7178   -7.0532   57.2234 H   0  0  0  0  0  0  0  0  0  0  0  0
   25.1441   -7.6624   57.9868 H   0  0  0  0  0  0  0  0  0  0  0  0
   27.3967   -9.3538   58.6431 H   0  0  0  0  0  0  0  0  0  0  0  0
   27.6866   -7.7095   59.1764 H   0  0  0  0  0  0  0  0  0  0  0  0
   26.0345   -9.2674   62.3447 H   0  0  0  0  0  0  0  0  0  0  0  0
   25.9472  -10.6745   61.2315 H   0  0  0  0  0  0  0  0  0  0  0  0
   27.4000   -9.6181   61.2315 H   0  0  0  0  0  0  0  0  0  0  0  0
  1  2  2  0
  1  5  1  0
  1 15  1  0
  2  3  1  0
  2 11  1  0
  3  4  2  0
  4 12  1  0
  5 12  2  0
  5 14  1  0
  7  6  1  1
  7  8  1  0
  7  9  2  0
  7 10  1  0
 10 11  1  0
 12 13  1  0
 15 16  2  3
 16 17  1  0
 17 18  1  0
 18 19  1  0
 19 20  1  0
 20 21  1  0
  3 22  1  0
 11 23  1  0
 11 24  1  0
 13 25  1  0
 13 26  1  0
 13 27  1  0
 14 28  1  0
 15 29  1  0
 17 30  1  0
 17 31  1  0
 18 32  1  0
 18 33  1  0
 19 34  1  0
 19 35  1  0
 21 36  1  0
 21 37  1  0
 21 38  1  0
M  CHG  2   6  -1   8  -1
M  END
>  <filename_input>  (6) 
7CIJ_G0C_docked.sdf

>  <pdb_id>  (6) 
7CIJ_G0C

>  <pose_rank>  (6) 
5

>  <num_atoms_heavy>  (6) 
21

>  <num_torsions>  (6) 
8

>  <pose>  (6) 
[25.59307569678009, -12.44042339683025, 57.67176221123264, 1.1517606958848905, 2.597232778289401, 1.2513378992378363, -7.416363242034296, -5.19648305075626, 9.561945202304841, 9.44229089498472, 1.5719705870172072, 9.967162171171571, -12.709403962205162, -3.845906004168215]

>  <energy>  (6) 
-631.2660741469025

>  <inter_energy>  (6) 
-681.2638809895495

>  <intra_energy>  (6) 
43.78089085243992

>  <rmsd>  (6) 
4.31337

>  <sdf_rank>  (6) 
0

$$$$

     RDKit          3D

 38 38  0  0  0  0  0  0  0  0999 V2000
   25.6426  -12.4471   57.8282 C   0  0  0  0  0  0  0  0  0  0  0  0
   26.4711  -12.9985   58.8340 C   0  0  0  0  0  0  0  0  0  0  0  0
   26.6662  -14.3804   58.9049 C   0  0  0  0  0  0  0  0  0  0  0  0
   26.0866  -15.2077   58.0186 N   0  0  0  0  0  0  0  0  0  0  0  0
   25.0363  -13.3724   56.9292 C   0  0  0  0  0  0  0  0  0  0  0  0
   29.6359  -12.3444   60.8459 O   0  0  0  0  0  0  0  0  0  0  0  0
   29.5524  -11.1269   60.0737 P   0  0  2  0  0  0  0  0  0  0  0  0
   30.5933  -10.9015   59.0248 O   0  0  0  0  0  0  0  0  0  0  0  0
   29.2807   -9.8952   60.8287 O   0  0  0  0  0  0  0  0  0  0  0  0
   28.1631  -11.4085   59.2687 O   0  0  0  0  0  0  0  0  0  0  0  0
   27.1670  -12.1693   59.9184 C   0  0  0  0  0  0  0  0  0  0  0  0
   25.2844  -14.7346   57.0216 C   0  0  0  0  0  0  0  0  0  0  0  0
   24.6714  -15.7697   56.1118 C   0  0  0  0  0  0  0  0  0  0  0  0
   24.2283  -12.9575   55.9202 O   0  0  0  0  0  0  0  0  0  0  0  0
   25.3880  -11.0652   57.7467 C   0  0  0  0  0  0  0  0  0  0  0  0
   25.9981  -10.3441   56.8332 N   0  0  0  0  0  0  0  0  0  0  0  0
   25.7461   -8.9172   56.6031 C   0  0  0  0  0  0  0  0  0  0  0  0
   26.8471   -7.8728   56.7081 C   0  0  0  0  0  0  0  0  0  0  0  0
   26.4893   -6.5807   57.3888 C   0  0  0  0  0  0  0  0  0  0  0  0
   27.2780   -5.3031   56.3164 S   0  0  0  0  0  0  0  0  0  0  0  0
   26.0393   -4.0224   56.2092 C   0  0  0  0  0  0  0  0  0  0  0  0
   27.3039  -14.7974   59.6983 H   0  0  0  0  0  0  0  0  0  0  0  0
   26.4424  -11.5041   60.4108 H   0  0  0  0  0  0  0  0  0  0  0  0
   27.6048  -12.8168   60.6925 H   0  0  0  0  0  0  0  0  0  0  0  0
   24.2037  -16.5596   56.7177 H   0  0  0  0  0  0  0  0  0  0  0  0
   23.9090  -15.2945   55.4770 H   0  0  0  0  0  0  0  0  0  0  0  0
   25.4546  -16.2098   55.4770 H   0  0  0  0  0  0  0  0  0  0  0  0
   23.8192  -13.6204   55.3092 H   0  0  0  0  0  0  0  0  0  0  0  0
   24.6817  -10.5912   58.4442 H   0  0  0  0  0  0  0  0  0  0  0  0
   25.3433   -8.8372   55.5826 H   0  0  0  0  0  0  0  0  0  0  0  0
   25.1024   -8.6578   57.4566 H   0  0  0  0  0  0  0  0  0  0  0  0
   27.6818   -8.3232   57.2653 H   0  0  0  0  0  0  0  0  0  0  0  0
   27.0839   -7.5968   55.6699 H   0  0  0  0  0  0  0  0  0  0  0  0
   25.3984   -6.4443   57.4269 H   0  0  0  0  0  0  0  0  0  0  0  0
   26.8304   -6.5358   58.4336 H   0  0  0  0  0  0  0  0  0  0  0  0
   25.7415   -3.7145   57.2223 H   0  0  0  0  0  0  0  0  0  0  0  0
   26.4521   -3.1573   55.6695 H   0  0  0  0  0  0  0  0  0  0  0  0
   25.1609   -4.4061   55.6695 H   0  0  0  0  0  0  0  0  0  0  0  0
  1  2  2  0
  1  5  1  0
  1 15  1  0
  2  3  1  0
  2 11  1  0
  3  4  2  0
  4 12  1  0
  5 12  2  0
  5 14  1  0
  7  6  1  1
  7  8  1  0
  7  9  2  0
  7 10  1  0
 10 11  1  0
 12 13  1  0
 15 16  2  3
 16 17  1  0
 17 18  1  0
 18 19  1  0
 19 20  1  0
 20 21  1  0
  3 22  1  0
 11 23  1  0
 11 24  1  0
 13 25  1  0
 13 26  1  0
 13 27  1  0
 14 28  1  0
 15 29  1  0
 17 30  1  0
 17 31  1  0
 18 32  1  0
 18 33  1  0
 19 34  1  0
 19 35  1  0
 21 36  1  0
 21 37  1  0
 21 38  1  0
M  CHG  2   6  -1   8  -1
M  END
>  <filename_input>  (7) 
7CIJ_G0C_docked.sdf

>  <pdb_id>  (7) 
7CIJ_G0C

>  <pose_rank>  (7) 
6

>  <num_atoms_heavy>  (7) 
21

>  <num_torsions>  (7) 
8

>  <pose>  (7) 
[25.642607289352448, -12.447062619771831, 57.8282471816804, -1.051968174294865, -2.7147098996002725, -1.29135521802959, -1.1019312229737421, 2.2443005517428287, 0.5566705900055002, 2.5950227288808447, 1.1277250928129143, 10.13940450124592, 6.420491082968213, 3.7486944306109864]

>  <energy>  (7) 
-609.1342478298086

>  <inter_energy>  (7) 
-622.5414533311458

>  <intra_energy>  (7) 
6.732622605469996

>  <rmsd>  (7) 
4.86773

>  <sdf_rank>  (7) 
0

$$$$

     RDKit          3D

 38 38  0  0  0  0  0  0  0  0999 V2000
   26.4413  -11.4124   58.5000 C   0  0  0  0  0  0  0  0  0  0  0  0
   26.4770  -12.7672   58.9068 C   0  0  0  0  0  0  0  0  0  0  0  0
   25.6434  -13.7073   58.2953 C   0  0  0  0  0  0  0  0  0  0  0  0
   24.8061  -13.3505   57.3066 N   0  0  0  0  0  0  0  0  0  0  0  0
   25.5192  -11.0866   57.4628 C   0  0  0  0  0  0  0  0  0  0  0  0
   27.0102  -13.5182   63.4585 O   0  0  0  0  0  0  0  0  0  0  0  0
   27.8306  -12.7573   62.5455 P   0  0  2  0  0  0  0  0  0  0  0  0
   29.1169  -13.3724   62.0961 O   0  0  0  0  0  0  0  0  0  0  0  0
   28.0023  -11.3315   62.8593 O   0  0  0  0  0  0  0  0  0  0  0  0
   26.8568  -12.7572   61.2382 O   0  0  0  0  0  0  0  0  0  0  0  0
   27.3653  -13.2975   60.0371 C   0  0  0  0  0  0  0  0  0  0  0  0
   24.7329  -12.0616   56.8654 C   0  0  0  0  0  0  0  0  0  0  0  0
   23.7317  -11.7876   55.7711 C   0  0  0  0  0  0  0  0  0  0  0  0
   25.4035   -9.8206   56.9865 O   0  0  0  0  0  0  0  0  0  0  0  0
   27.2349  -10.4274   59.1171 C   0  0  0  0  0  0  0  0  0  0  0  0
   28.4132  -10.7502   59.6007 N   0  0  0  0  0  0  0  0  0  0  0  0
   29.3566   -9.7914   60.1866 C   0  0  0  0  0  0  0  0  0  0  0  0
   30.7588  -10.1943   60.6172 C   0  0  0  0  0  0  0  0  0  0  0  0
   31.1553  -11.6241   60.3730 C   0  0  0  0  0  0  0  0  0  0  0  0
   30.9121  -11.8277   58.5554 S   0  0  0  0  0  0  0  0  0  0  0  0
   32.3198  -10.9893   57.8471 C   0  0  0  0  0  0  0  0  0  0  0  0
   25.6730  -14.7553   58.6282 H   0  0  0  0  0  0  0  0  0  0  0  0
   27.3242  -14.3963   60.0681 H   0  0  0  0  0  0  0  0  0  0  0  0
   28.4154  -13.0072   59.8853 H   0  0  0  0  0  0  0  0  0  0  0  0
   22.7626  -11.5224   56.2188 H   0  0  0  0  0  0  0  0  0  0  0  0
   24.0883  -10.9540   55.1482 H   0  0  0  0  0  0  0  0  0  0  0  0
   23.6141  -12.6866   55.1482 H   0  0  0  0  0  0  0  0  0  0  0  0
   24.7553   -9.6202   56.2655 H   0  0  0  0  0  0  0  0  0  0  0  0
   26.8704   -9.3924   59.1942 H   0  0  0  0  0  0  0  0  0  0  0  0
   29.4820   -8.9906   59.4430 H   0  0  0  0  0  0  0  0  0  0  0  0
   28.8790   -9.5598   61.1501 H   0  0  0  0  0  0  0  0  0  0  0  0
   31.4707   -9.5539   60.0758 H   0  0  0  0  0  0  0  0  0  0  0  0
   30.7717  -10.0733   61.7104 H   0  0  0  0  0  0  0  0  0  0  0  0
   32.2057  -11.7948   60.6515 H   0  0  0  0  0  0  0  0  0  0  0  0
   30.5704  -12.3406   60.9684 H   0  0  0  0  0  0  0  0  0  0  0  0
   32.9625  -10.6065   58.6536 H   0  0  0  0  0  0  0  0  0  0  0  0
   32.8918  -11.6940   57.2257 H   0  0  0  0  0  0  0  0  0  0  0  0
   31.9727  -10.1507   57.2257 H   0  0  0  0  0  0  0  0  0  0  0  0
  1  2  2  0
  1  5  1  0
  1 15  1  0
  2  3  1  0
  2 11  1  0
  3  4  2  0
  4 12  1  0
  5 12  2  0
  5 14  1  0
  7  6  1  1
  7  8  1  0
  7  9  2  0
  7 10  1  0
 10 11  1  0
 12 13  1  0
 15 16  2  3
 16 17  1  0
 17 18  1  0
 18 19  1  0
 19 20  1  0
 20 21  1  0
  3 22  1  0
 11 23  1  0
 11 24  1  0
 13 25  1  0
 13 26  1  0
 13 27  1  0
 14 28  1  0
 15 29  1  0
 17 30  1  0
 17 31  1  0
 18 32  1  0
 18 33  1  0
 19 34  1  0
 19 35  1  0
 21 36  1  0
 21 37  1  0
 21 38  1  0
M  CHG  2   6  -1   8  -1
M  END
>  <filename_input>  (8) 
7CIJ_G0C_docked.sdf

>  <pdb_id>  (8) 
7CIJ_G0C

>  <pose_rank>  (8) 
7

>  <num_atoms_heavy>  (8) 
21

>  <num_torsions>  (8) 
8

>  <pose>  (8) 
[26.441266750917055, -11.412439547454754, 58.49997976717768, -2.086938983092279, -1.6993723562705665, -1.8654613169080905, -2.355134188143702, -2.9176508591626655, 3.007427144631921, 5.988990750548632, 0.050095224208280734, 6.258304564728401, 12.417601843389901, 1.0573520681425082]

>  <energy>  (8) 
-514.1352006322535

>  <inter_energy>  (8) 
-570.849029180326

>  <intra_energy>  (8) 
70.66772792871271

>  <rmsd>  (8) 
4.33133

>  <sdf_rank>  (8) 
0

$$$$

     RDKit          3D

 38 38  0  0  0  0  0  0  0  0999 V2000
   25.5358  -12.7744   57.9258 C   0  0  0  0  0  0  0  0  0  0  0  0
   26.3268  -13.5074   58.8420 C   0  0  0  0  0  0  0  0  0  0  0  0
   26.2946  -14.9044   58.8382 C   0  0  0  0  0  0  0  0  0  0  0  0
   25.5281  -15.5767   57.9627 N   0  0  0  0  0  0  0  0  0  0  0  0
   24.7260  -13.5383   57.0355 C   0  0  0  0  0  0  0  0  0  0  0  0
   30.7915  -12.7194   59.6709 O   0  0  0  0  0  0  0  0  0  0  0  0
   29.6629  -12.0003   60.2138 P   0  0  2  0  0  0  0  0  0  0  0  0
   29.6144  -10.5226   59.9931 O   0  0  0  0  0  0  0  0  0  0  0  0
   29.2702  -12.3474   61.5872 O   0  0  0  0  0  0  0  0  0  0  0  0
   28.4716  -12.6269   59.2944 O   0  0  0  0  0  0  0  0  0  0  0  0
   27.2213  -12.8629   59.9061 C   0  0  0  0  0  0  0  0  0  0  0  0
   24.7506  -14.9257   57.0500 C   0  0  0  0  0  0  0  0  0  0  0  0
   23.9153  -15.7960   56.1446 C   0  0  0  0  0  0  0  0  0  0  0  0
   23.9323  -12.9430   56.1087 O   0  0  0  0  0  0  0  0  0  0  0  0
   25.5088  -11.3672   57.9235 C   0  0  0  0  0  0  0  0  0  0  0  0
   25.1073  -10.7260   56.8490 N   0  0  0  0  0  0  0  0  0  0  0  0
   24.9589   -9.2689   56.7638 C   0  0  0  0  0  0  0  0  0  0  0  0
   25.1849   -8.3599   57.9624 C   0  0  0  0  0  0  0  0  0  0  0  0
   26.6070   -7.9674   58.2533 C   0  0  0  0  0  0  0  0  0  0  0  0
   27.2257   -7.3721   56.6201 S   0  0  0  0  0  0  0  0  0  0  0  0
   28.1234   -8.7737   55.9752 C   0  0  0  0  0  0  0  0  0  0  0  0
   26.9059  -15.4622   59.5628 H   0  0  0  0  0  0  0  0  0  0  0  0
   26.7811  -11.9145   60.2479 H   0  0  0  0  0  0  0  0  0  0  0  0
   27.3269  -13.5170   60.7841 H   0  0  0  0  0  0  0  0  0  0  0  0
   23.2812  -16.4568   56.7540 H   0  0  0  0  0  0  0  0  0  0  0  0
   23.2798  -15.1611   55.5098 H   0  0  0  0  0  0  0  0  0  0  0  0
   24.5758  -16.4049   55.5098 H   0  0  0  0  0  0  0  0  0  0  0  0
   23.3792  -13.4961   55.5019 H   0  0  0  0  0  0  0  0  0  0  0  0
   25.8221  -10.8068   58.8167 H   0  0  0  0  0  0  0  0  0  0  0  0
   25.6621   -8.9336   55.9872 H   0  0  0  0  0  0  0  0  0  0  0  0
   23.8778   -9.1585   56.5934 H   0  0  0  0  0  0  0  0  0  0  0  0
   24.6121   -7.4362   57.7930 H   0  0  0  0  0  0  0  0  0  0  0  0
   24.8626   -8.9467   58.8352 H   0  0  0  0  0  0  0  0  0  0  0  0
   26.6486   -7.1665   59.0061 H   0  0  0  0  0  0  0  0  0  0  0  0
   27.2057   -8.7931   58.6654 H   0  0  0  0  0  0  0  0  0  0  0  0
   28.5098   -9.3772   56.8098 H   0  0  0  0  0  0  0  0  0  0  0  0
   27.4504   -9.3883   55.3592 H   0  0  0  0  0  0  0  0  0  0  0  0
   28.9631   -8.4195   55.3592 H   0  0  0  0  0  0  0  0  0  0  0  0
  1  2  2  0
  1  5  1  0
  1 15  1  0
  2  3  1  0
  2 11  1  0
  3  4  2  0
  4 12  1  0
  5 12  2  0
  5 14  1  0
  7  6  1  6
  7  8  1  0
  7  9  2  0
  7 10  1  0
 10 11  1  0
 12 13  1  0
 15 16  2  3
 16 17  1  0
 17 18  1  0
 18 19  1  0
 19 20  1  0
 20 21  1  0
  3 22  1  0
 11 23  1  0
 11 24  1  0
 13 25  1  0
 13 26  1  0
 13 27  1  0
 14 28  1  0
 15 29  1  0
 17 30  1  0
 17 31  1  0
 18 32  1  0
 18 33  1  0
 19 34  1  0
 19 35  1  0
 21 36  1  0
 21 37  1  0
 21 38  1  0
M  CHG  2   6  -1   8  -1
M  END
>  <filename_input>  (9) 
7CIJ_G0C_docked.sdf

>  <pdb_id>  (9) 
7CIJ_G0C

>  <pose_rank>  (9) 
8

>  <num_atoms_heavy>  (9) 
21

>  <num_torsions>  (9) 
8

>  <pose>  (9) 
[25.535832985679807, -12.774360620457916, 57.925848381036964, -1.3140415151191447, -2.5782689807230645, -1.3052895089117431, -0.12554187849662876, 0.06031213581867275, -1.8532633355719217, -0.41403123786350665, 3.279847732151817, -2.7519406256267924, -0.4221822723908187, -0.6051721182092233]

>  <energy>  (9) 
-616.7220662439585

>  <inter_energy>  (9) 
-651.5269744972271

>  <intra_energy>  (9) 
32.638963725165404

>  <rmsd>  (9) 
4.54168

>  <sdf_rank>  (9) 
0

$$$$

     RDKit          3D

 38 38  0  0  0  0  0  0  0  0999 V2000
   26.0992  -11.3364   57.7913 C   0  0  0  0  0  0  0  0  0  0  0  0
   26.7660  -10.2276   58.3642 C   0  0  0  0  0  0  0  0  0  0  0  0
   26.3778   -8.9263   58.0344 C   0  0  0  0  0  0  0  0  0  0  0  0
   25.3624   -8.7016   57.1833 N   0  0  0  0  0  0  0  0  0  0  0  0
   25.0449  -11.0393   56.8790 C   0  0  0  0  0  0  0  0  0  0  0  0
   26.9367   -9.9867   62.3278 O   0  0  0  0  0  0  0  0  0  0  0  0
   28.0425  -10.8064   61.8909 P   0  0  2  0  0  0  0  0  0  0  0  0
   28.2491  -12.1143   62.5847 O   0  0  0  0  0  0  0  0  0  0  0  0
   29.3194  -10.1123   61.6704 O   0  0  0  0  0  0  0  0  0  0  0  0
   27.5316  -11.1759   60.3876 O   0  0  0  0  0  0  0  0  0  0  0  0
   27.9532  -10.3469   59.3255 C   0  0  0  0  0  0  0  0  0  0  0  0
   24.6761   -9.7297   56.6059 C   0  0  0  0  0  0  0  0  0  0  0  0
   23.5784   -9.3425   55.6467 C   0  0  0  0  0  0  0  0  0  0  0  0
   24.3299  -12.0225   56.2746 O   0  0  0  0  0  0  0  0  0  0  0  0
   26.4852  -12.6618   58.0657 C   0  0  0  0  0  0  0  0  0  0  0  0
   25.5892  -13.6221   58.0242 N   0  0  0  0  0  0  0  0  0  0  0  0
   25.8945  -15.0452   58.2089 C   0  0  0  0  0  0  0  0  0  0  0  0
   26.2803  -15.9485   57.0473 C   0  0  0  0  0  0  0  0  0  0  0  0
   25.3506  -15.9627   55.8656 C   0  0  0  0  0  0  0  0  0  0  0  0
   23.8534  -15.0854   56.4925 S   0  0  0  0  0  0  0  0  0  0  0  0
   22.7106  -16.4091   56.8504 C   0  0  0  0  0  0  0  0  0  0  0  0
   26.9115   -8.0730   58.4782 H   0  0  0  0  0  0  0  0  0  0  0  0
   28.8143  -10.7983   58.8108 H   0  0  0  0  0  0  0  0  0  0  0  0
   28.2656   -9.3587   59.6940 H   0  0  0  0  0  0  0  0  0  0  0  0
   22.6896   -9.0290   56.2139 H   0  0  0  0  0  0  0  0  0  0  0  0
   23.9212   -8.5111   55.0134 H   0  0  0  0  0  0  0  0  0  0  0  0
   23.3238  -10.2051   55.0134 H   0  0  0  0  0  0  0  0  0  0  0  0
   23.6024  -11.7899   55.6448 H   0  0  0  0  0  0  0  0  0  0  0  0
   27.5317  -12.8926   58.3136 H   0  0  0  0  0  0  0  0  0  0  0  0
   26.7299  -15.0898   58.9231 H   0  0  0  0  0  0  0  0  0  0  0  0
   24.9157  -15.4533   58.5010 H   0  0  0  0  0  0  0  0  0  0  0  0
   27.2696  -15.6271   56.6894 H   0  0  0  0  0  0  0  0  0  0  0  0
   26.2483  -16.9705   57.4528 H   0  0  0  0  0  0  0  0  0  0  0  0
   25.7914  -15.4284   55.0110 H   0  0  0  0  0  0  0  0  0  0  0  0
   25.1337  -16.9775   55.5008 H   0  0  0  0  0  0  0  0  0  0  0  0
   22.6117  -16.5237   57.9399 H   0  0  0  0  0  0  0  0  0  0  0  0
   21.7281  -16.1728   56.4158 H   0  0  0  0  0  0  0  0  0  0  0  0
   23.0877  -17.3467   56.4158 H   0  0  0  0  0  0  0  0  0  0  0  0
  1  2  2  0
  1  5  1  0
  1 15  1  0
  2  3  1  0
  2 11  1  0
  3  4  2  0
  4 12  1  0
  5 12  2  0
  5 14  1  0
  7  6  1  1
  7  8  1  0
  7  9  2  0
  7 10  1  0
 10 11  1  0
 12 13  1  0
 15 16  2  3
 16 17  1  0
 17 18  1  0
 18 19  1  0
 19 20  1  0
 20 21  1  0
  3 22  1  0
 11 23  1  0
 11 24  1  0
 13 25  1  0
 13 26  1  0
 13 27  1  0
 14 28  1  0
 15 29  1  0
 17 30  1  0
 17 31  1  0
 18 32  1  0
 18 33  1  0
 19 34  1  0
 19 35  1  0
 21 36  1  0
 21 37  1  0
 21 38  1  0
M  CHG  2   6  -1   8  -1
M  END
>  <filename_input>  (10) 
7CIJ_G0C_docked.sdf

>  <pdb_id>  (10) 
7CIJ_G0C

>  <pose_rank>  (10) 
9

>  <num_atoms_heavy>  (10) 
21

>  <num_torsions>  (10) 
8

>  <pose>  (10) 
[26.09922663156157, -11.33636214791302, 57.791314783628934, 1.0736672715698508, 0.0370555177754891, -1.105685147392988, -0.2755887243963314, -1.425146821364362, 2.0530613851231796, -1.4954264493211438, 3.231957799979016, -2.181069260110185, 0.18990934270744805, -1.4737980053919624]

>  <energy>  (10) 
-573.6427383228901

>  <inter_energy>  (10) 
-647.1077777699426

>  <intra_energy>  (10) 
77.2050647233583

>  <rmsd>  (10) 
5.54744

>  <sdf_rank>  (10) 
0

$$$$

     RDKit          3D

 38 38  0  0  0  0  0  0  0  0999 V2000
   26.8265  -11.3071   59.0987 C   0  0  0  0  0  0  0  0  0  0  0  0
   27.4612  -10.8883   60.2920 C   0  0  0  0  0  0  0  0  0  0  0  0
   27.4649   -9.5375   60.6498 C   0  0  0  0  0  0  0  0  0  0  0  0
   26.8592   -8.6163   59.8814 N   0  0  0  0  0  0  0  0  0  0  0  0
   26.2196  -10.2851   58.3117 C   0  0  0  0  0  0  0  0  0  0  0  0
   31.5341  -12.7628   60.7732 O   0  0  0  0  0  0  0  0  0  0  0  0
   30.6583  -11.6921   60.3581 P   0  0  2  0  0  0  0  0  0  0  0  0
   30.7581  -11.2283   58.9405 O   0  0  0  0  0  0  0  0  0  0  0  0
   30.5357  -10.5564   61.2833 O   0  0  0  0  0  0  0  0  0  0  0  0
   29.2214  -12.4526   60.4773 O   0  0  0  0  0  0  0  0  0  0  0  0
   28.2082  -11.8323   61.2400 C   0  0  0  0  0  0  0  0  0  0  0  0
   26.2237   -8.9602   58.7242 C   0  0  0  0  0  0  0  0  0  0  0  0
   25.6099   -7.8279   57.9391 C   0  0  0  0  0  0  0  0  0  0  0  0
   25.5754  -10.5701   57.1511 O   0  0  0  0  0  0  0  0  0  0  0  0
   26.8348  -12.6514   58.6820 C   0  0  0  0  0  0  0  0  0  0  0  0
   25.7652  -13.1637   58.1161 N   0  0  0  0  0  0  0  0  0  0  0  0
   25.6910  -14.5229   57.5688 C   0  0  0  0  0  0  0  0  0  0  0  0
   24.3835  -15.1308   57.0839 C   0  0  0  0  0  0  0  0  0  0  0  0
   24.4857  -16.3918   56.2712 C   0  0  0  0  0  0  0  0  0  0  0  0
   22.7236  -16.8304   55.9444 S   0  0  0  0  0  0  0  0  0  0  0  0
   22.7016  -17.2076   54.1999 C   0  0  0  0  0  0  0  0  0  0  0  0
   27.9712   -9.2235   61.5745 H   0  0  0  0  0  0  0  0  0  0  0  0
   28.6527  -11.2631   62.0697 H   0  0  0  0  0  0  0  0  0  0  0  0
   27.5266  -12.5782   61.6748 H   0  0  0  0  0  0  0  0  0  0  0  0
   25.2034   -7.0782   58.6338 H   0  0  0  0  0  0  0  0  0  0  0  0
   26.3789   -7.3619   57.3055 H   0  0  0  0  0  0  0  0  0  0  0  0
   24.7998   -8.2180   57.3055 H   0  0  0  0  0  0  0  0  0  0  0  0
   25.1621   -9.8420   56.6228 H   0  0  0  0  0  0  0  0  0  0  0  0
   27.7322  -13.2702   58.8293 H   0  0  0  0  0  0  0  0  0  0  0  0
   26.3774  -14.5458   56.7096 H   0  0  0  0  0  0  0  0  0  0  0  0
   25.9157  -15.1382   58.4525 H   0  0  0  0  0  0  0  0  0  0  0  0
   23.7709  -15.3539   57.9698 H   0  0  0  0  0  0  0  0  0  0  0  0
   23.9515  -14.3823   56.4034 H   0  0  0  0  0  0  0  0  0  0  0  0
   25.0278  -16.2118   55.3311 H   0  0  0  0  0  0  0  0  0  0  0  0
   25.0401  -17.1911   56.7848 H   0  0  0  0  0  0  0  0  0  0  0  0
   22.6382  -18.2969   54.0610 H   0  0  0  0  0  0  0  0  0  0  0  0
   21.8299  -16.7269   53.7317 H   0  0  0  0  0  0  0  0  0  0  0  0
   23.6232  -16.8313   53.7317 H   0  0  0  0  0  0  0  0  0  0  0  0
  1  2  2  0
  1  5  1  0
  1 15  1  0
  2  3  1  0
  2 11  1  0
  3  4  2  0
  4 12  1  0
  5 12  2  0
  5 14  1  0
  7  6  1  1
  7  8  1  0
  7  9  2  0
  7 10  1  0
 10 11  1  0
 12 13  1  0
 15 16  2  3
 16 17  1  0
 17 18  1  0
 18 19  1  0
 19 20  1  0
 20 21  1  0
  3 22  1  0
 11 23  1  0
 11 24  1  0
 13 25  1  0
 13 26  1  0
 13 27  1  0
 14 28  1  0
 15 29  1  0
 17 30  1  0
 17 31  1  0
 18 32  1  0
 18 33  1  0
 19 34  1  0
 19 35  1  0
 21 36  1  0
 21 37  1  0
 21 38  1  0
M  CHG  2   6  -1   8  -1
M  END
>  <filename_input>  (11) 
7CIJ_G0C_docked.sdf

>  <pdb_id>  (11) 
7CIJ_G0C

>  <pose_rank>  (11) 
10

>  <num_atoms_heavy>  (11) 
21

>  <num_torsions>  (11) 
8

>  <pose>  (11) 
[26.826549928438375, -11.307109795724273, 59.09870667029825, 1.7557400218181098, -0.048811169970271816, -1.221489724540587, 5.852094202506993, 3.1277836826887713, 5.8835681285358135, 1.8167268429749128, 1.0522841866557195, -0.21237227135341843, -2.0828870497777165, -0.8751731758463703]

>  <energy>  (11) 
-549.461361582301

>  <inter_energy>  (11) 
-589.9037783846334

>  <intra_energy>  (11) 
33.929381119625106

>  <rmsd>  (11) 
6.47239

>  <sdf_rank>  (11) 
0

$$$$

     RDKit          3D

 38 38  0  0  0  0  0  0  0  0999 V2000
   28.4430  -11.0617   60.7769 C   0  0  0  0  0  0  0  0  0  0  0  0
   27.3243  -10.1961   60.8126 C   0  0  0  0  0  0  0  0  0  0  0  0
   26.4032  -10.2802   61.8601 C   0  0  0  0  0  0  0  0  0  0  0  0
   26.5658  -11.1687   62.8551 N   0  0  0  0  0  0  0  0  0  0  0  0
   28.5535  -11.9984   61.8458 C   0  0  0  0  0  0  0  0  0  0  0  0
   26.9908   -8.6201   56.5017 O   0  0  0  0  0  0  0  0  0  0  0  0
   26.0013   -9.2724   57.3269 P   0  0  2  0  0  0  0  0  0  0  0  0
   25.2953  -10.4580   56.7520 O   0  0  0  0  0  0  0  0  0  0  0  0
   25.0674   -8.3908   58.0422 O   0  0  0  0  0  0  0  0  0  0  0  0
   26.9679   -9.8569   58.5022 O   0  0  0  0  0  0  0  0  0  0  0  0
   27.0103   -9.1593   59.7289 C   0  0  0  0  0  0  0  0  0  0  0  0
   27.6287  -12.0236   62.8801 C   0  0  0  0  0  0  0  0  0  0  0  0
   27.6786  -12.9913   64.0360 C   0  0  0  0  0  0  0  0  0  0  0  0
   29.5892  -12.8731   61.9200 O   0  0  0  0  0  0  0  0  0  0  0  0
   29.3716  -11.0368   59.7195 C   0  0  0  0  0  0  0  0  0  0  0  0
   30.3822  -11.8765   59.7213 N   0  0  0  0  0  0  0  0  0  0  0  0
   31.3590  -11.9959   58.6331 C   0  0  0  0  0  0  0  0  0  0  0  0
   32.6517  -11.1943   58.6131 C   0  0  0  0  0  0  0  0  0  0  0  0
   32.6858   -9.9473   59.4527 C   0  0  0  0  0  0  0  0  0  0  0  0
   34.4375   -9.3861   59.3084 S   0  0  0  0  0  0  0  0  0  0  0  0
   34.2999   -7.7678   58.5678 C   0  0  0  0  0  0  0  0  0  0  0  0
   25.5319   -9.6089   61.8705 H   0  0  0  0  0  0  0  0  0  0  0  0
   26.0386   -8.6840   59.9288 H   0  0  0  0  0  0  0  0  0  0  0  0
   27.7716   -8.3656   59.7073 H   0  0  0  0  0  0  0  0  0  0  0  0
   27.6498  -12.4328   64.9832 H   0  0  0  0  0  0  0  0  0  0  0  0
   26.8143  -13.6696   63.9839 H   0  0  0  0  0  0  0  0  0  0  0  0
   28.6082  -13.5771   63.9839 H   0  0  0  0  0  0  0  0  0  0  0  0
   29.6430  -13.5138   62.6728 H   0  0  0  0  0  0  0  0  0  0  0  0
   29.2519  -10.3178   58.8956 H   0  0  0  0  0  0  0  0  0  0  0  0
   31.6540  -13.0551   58.6002 H   0  0  0  0  0  0  0  0  0  0  0  0
   30.8091  -11.5648   57.7835 H   0  0  0  0  0  0  0  0  0  0  0  0
   33.4588  -11.8544   58.9637 H   0  0  0  0  0  0  0  0  0  0  0  0
   32.7606  -10.8470   57.5750 H   0  0  0  0  0  0  0  0  0  0  0  0
   31.9949   -9.1877   59.0583 H   0  0  0  0  0  0  0  0  0  0  0  0
   32.3737  -10.1204   60.4932 H   0  0  0  0  0  0  0  0  0  0  0  0
   34.2352   -7.0066   59.3593 H   0  0  0  0  0  0  0  0  0  0  0  0
   35.1848   -7.5736   57.9439 H   0  0  0  0  0  0  0  0  0  0  0  0
   33.3950   -7.7258   57.9439 H   0  0  0  0  0  0  0  0  0  0  0  0
  1  2  2  0
  1  5  1  0
  1 15  1  0
  2  3  1  0
  2 11  1  0
  3  4  2  0
  4 12  1  0
  5 12  2  0
  5 14  1  0
  7  6  1  6
  7  8  1  0
  7  9  2  0
  7 10  1  0
 10 11  1  0
 12 13  1  0
 15 16  2  3
 16 17  1  0
 17 18  1  0
 18 19  1  0
 19 20  1  0
 20 21  1  0
  3 22  1  0
 11 23  1  0
 11 24  1  0
 13 25  1  0
 13 26  1  0
 13 27  1  0
 14 28  1  0
 15 29  1  0
 17 30  1  0
 17 31  1  0
 18 32  1  0
 18 33  1  0
 19 34  1  0
 19 35  1  0
 21 36  1  0
 21 37  1  0
 21 38  1  0
M  CHG  2   6  -1   8  -1
M  END
>  <filename_input>  (12) 
7CIJ_G0C_docked.sdf

>  <pdb_id>  (12) 
7CIJ_G0C

>  <pose_rank>  (12) 
11

>  <num_atoms_heavy>  (12) 
21

>  <num_torsions>  (12) 
8

>  <pose>  (12) 
[28.443006086153943, -11.061692145681128, 60.776888535937, 2.1602215109625167, -4.058480874515523, 0.776204658670665, 0.25038476102905044, 1.7195434646554155, -3.676996594856277, 1.7487435281919776, 0.8069933036715289, -0.2679000983230639, -0.9765330022122, -1.323568176983615]

>  <energy>  (12) 
-467.78004207884095

>  <inter_energy>  (12) 
-507.86410889038706

>  <intra_energy>  (12) 
43.329686113066394

>  <rmsd>  (12) 
4.74548

>  <sdf_rank>  (12) 
0

$$$$

     RDKit          3D

 38 38  0  0  0  0  0  0  0  0999 V2000
   27.8463  -11.7729   60.0748 C   0  0  0  0  0  0  0  0  0  0  0  0
   28.9793  -10.9298   60.1621 C   0  0  0  0  0  0  0  0  0  0  0  0
   29.4963  -10.5737   61.4105 C   0  0  0  0  0  0  0  0  0  0  0  0
   28.9414  -11.0313   62.5456 N   0  0  0  0  0  0  0  0  0  0  0  0
   27.2857  -12.2105   61.3102 C   0  0  0  0  0  0  0  0  0  0  0  0
   32.8667  -11.4452   57.7876 O   0  0  0  0  0  0  0  0  0  0  0  0
   32.1791  -11.0889   59.0065 P   0  0  2  0  0  0  0  0  0  0  0  0
   32.2923   -9.6739   59.4751 O   0  0  0  0  0  0  0  0  0  0  0  0
   32.3078  -12.0331   60.1258 O   0  0  0  0  0  0  0  0  0  0  0  0
   30.6361  -11.2723   58.5136 O   0  0  0  0  0  0  0  0  0  0  0  0
   29.6877  -10.3208   58.9475 C   0  0  0  0  0  0  0  0  0  0  0  0
   27.8532  -11.8539   62.5253 C   0  0  0  0  0  0  0  0  0  0  0  0
   27.3090  -12.2724   63.8683 C   0  0  0  0  0  0  0  0  0  0  0  0
   26.2027  -13.0283   61.3492 O   0  0  0  0  0  0  0  0  0  0  0  0
   27.2705  -12.1225   58.8390 C   0  0  0  0  0  0  0  0  0  0  0  0
   26.1724  -11.5214   58.4397 N   0  0  0  0  0  0  0  0  0  0  0  0
   25.5352  -11.7450   57.1372 C   0  0  0  0  0  0  0  0  0  0  0  0
   25.1749  -13.1366   56.6397 C   0  0  0  0  0  0  0  0  0  0  0  0
   26.2199  -14.2049   56.8068 C   0  0  0  0  0  0  0  0  0  0  0  0
   25.5181  -15.6348   55.8757 S   0  0  0  0  0  0  0  0  0  0  0  0
   23.7542  -15.3889   55.9962 C   0  0  0  0  0  0  0  0  0  0  0  0
   30.3709   -9.9088   61.4649 H   0  0  0  0  0  0  0  0  0  0  0  0
   28.9610  -10.1173   58.1472 H   0  0  0  0  0  0  0  0  0  0  0  0
   30.1724   -9.3683   59.2079 H   0  0  0  0  0  0  0  0  0  0  0  0
   27.9087  -11.8112   64.6669 H   0  0  0  0  0  0  0  0  0  0  0  0
   26.2632  -11.9437   63.9588 H   0  0  0  0  0  0  0  0  0  0  0  0
   27.3582  -13.3676   63.9588 H   0  0  0  0  0  0  0  0  0  0  0  0
   25.8322  -13.3180   62.2203 H   0  0  0  0  0  0  0  0  0  0  0  0
   27.7374  -12.8952   58.2106 H   0  0  0  0  0  0  0  0  0  0  0  0
   24.5965  -11.1717   57.1522 H   0  0  0  0  0  0  0  0  0  0  0  0
   26.3327  -11.4516   56.4387 H   0  0  0  0  0  0  0  0  0  0  0  0
   24.2754  -13.4623   57.1829 H   0  0  0  0  0  0  0  0  0  0  0  0
   25.0417  -13.0298   55.5531 H   0  0  0  0  0  0  0  0  0  0  0  0
   27.1806  -13.8871   56.3755 H   0  0  0  0  0  0  0  0  0  0  0  0
   26.4310  -14.4393   57.8606 H   0  0  0  0  0  0  0  0  0  0  0  0
   23.4611  -15.3480   57.0556 H   0  0  0  0  0  0  0  0  0  0  0  0
   23.4812  -14.4440   55.5035 H   0  0  0  0  0  0  0  0  0  0  0  0
   23.2332  -16.2231   55.5035 H   0  0  0  0  0  0  0  0  0  0  0  0
  1  2  2  0
  1  5  1  0
  1 15  1  0
  2  3  1  0
  2 11  1  0
  3  4  2  0
  4 12  1  0
  5 12  2  0
  5 14  1  0
  7  6  1  6
  7  8  1  0
  7  9  2  0
  7 10  1  0
 10 11  1  0
 12 13  1  0
 15 16  2  3
 16 17  1  0
 17 18  1  0
 18 19  1  0
 19 20  1  0
 20 21  1  0
  3 22  1  0
 11 23  1  0
 11 24  1  0
 13 25  1  0
 13 26  1  0
 13 27  1  0
 14 28  1  0
 15 29  1  0
 17 30  1  0
 17 31  1  0
 18 32  1  0
 18 33  1  0
 19 34  1  0
 19 35  1  0
 21 36  1  0
 21 37  1  0
 21 38  1  0
M  CHG  2   6  -1   8  -1
M  END
>  <filename_input>  (13) 
7CIJ_G0C_docked.sdf

>  <pdb_id>  (13) 
7CIJ_G0C

>  <pose_rank>  (13) 
12

>  <num_atoms_heavy>  (13) 
21

>  <num_torsions>  (13) 
8

>  <pose>  (13) 
[27.846302858279728, -11.772929193756509, 60.074786086142744, -0.901123167131804, -2.8510576621414603, 1.6884761010856146, 1.5923174840331809, -5.233897365091814, 2.1823926533764957, 1.9956026004237648, -1.774420305455137, -2.738671944346479, 7.256415101220106, 0.7447582269714372]

>  <energy>  (13) 
-549.406367042033

>  <inter_energy>  (13) 
-565.8308814152962

>  <intra_energy>  (13) 
22.224392024226464

>  <rmsd>  (13) 
6.2525

>  <sdf_rank>  (13) 
0

$$$$

     RDKit          3D

 38 38  0  0  0  0  0  0  0  0999 V2000
   28.9824  -11.3700   61.1469 C   0  0  0  0  0  0  0  0  0  0  0  0
   28.2885  -10.7480   60.0822 C   0  0  0  0  0  0  0  0  0  0  0  0
   28.9896  -10.2563   58.9779 C   0  0  0  0  0  0  0  0  0  0  0  0
   30.3258  -10.3746   58.8977 N   0  0  0  0  0  0  0  0  0  0  0  0
   30.4001  -11.4485   61.0189 C   0  0  0  0  0  0  0  0  0  0  0  0
   27.4003   -9.0076   57.1584 O   0  0  0  0  0  0  0  0  0  0  0  0
   26.1740   -9.4975   57.7429 P   0  0  2  0  0  0  0  0  0  0  0  0
   25.8393  -10.9400   57.5384 O   0  0  0  0  0  0  0  0  0  0  0  0
   24.9876   -8.6459   57.5748 O   0  0  0  0  0  0  0  0  0  0  0  0
   26.5450   -9.3466   59.3231 O   0  0  0  0  0  0  0  0  0  0  0  0
   26.7723  -10.5273   60.0628 C   0  0  0  0  0  0  0  0  0  0  0  0
   31.0488  -10.9721   59.8884 C   0  0  0  0  0  0  0  0  0  0  0  0
   32.5434  -11.0142   59.6901 C   0  0  0  0  0  0  0  0  0  0  0  0
   31.1688  -12.0307   61.9745 O   0  0  0  0  0  0  0  0  0  0  0  0
   28.3186  -11.8422   62.2946 C   0  0  0  0  0  0  0  0  0  0  0  0
   28.3084  -13.1297   62.5568 N   0  0  0  0  0  0  0  0  0  0  0  0
   27.7223  -13.7222   63.7643 C   0  0  0  0  0  0  0  0  0  0  0  0
   27.8028  -15.2129   64.0564 C   0  0  0  0  0  0  0  0  0  0  0  0
   29.1196  -15.7310   64.5650 C   0  0  0  0  0  0  0  0  0  0  0  0
   28.6523  -16.6479   66.0964 S   0  0  0  0  0  0  0  0  0  0  0  0
   27.5060  -17.8849   65.5115 C   0  0  0  0  0  0  0  0  0  0  0  0
   28.4394   -9.7651   58.1618 H   0  0  0  0  0  0  0  0  0  0  0  0
   26.2711  -11.3795   59.5806 H   0  0  0  0  0  0  0  0  0  0  0  0
   26.3717  -10.4388   61.0835 H   0  0  0  0  0  0  0  0  0  0  0  0
   33.0431  -11.0283   60.6699 H   0  0  0  0  0  0  0  0  0  0  0  0
   32.8133  -11.9203   59.1278 H   0  0  0  0  0  0  0  0  0  0  0  0
   32.8639  -10.1247   59.1278 H   0  0  0  0  0  0  0  0  0  0  0  0
   32.1515  -12.0724   61.8619 H   0  0  0  0  0  0  0  0  0  0  0  0
   27.8108  -11.1368   62.9689 H   0  0  0  0  0  0  0  0  0  0  0  0
   28.1987  -13.2161   64.6169 H   0  0  0  0  0  0  0  0  0  0  0  0
   26.6455  -13.5811   63.5891 H   0  0  0  0  0  0  0  0  0  0  0  0
   27.0384  -15.4463   64.8122 H   0  0  0  0  0  0  0  0  0  0  0  0
   27.6537  -15.7064   63.0847 H   0  0  0  0  0  0  0  0  0  0  0  0
   29.5887  -16.4029   63.8311 H   0  0  0  0  0  0  0  0  0  0  0  0
   29.8542  -14.9331   64.7483 H   0  0  0  0  0  0  0  0  0  0  0  0
   27.0396  -18.3883   66.3711 H   0  0  0  0  0  0  0  0  0  0  0  0
   26.7273  -17.4040   64.9014 H   0  0  0  0  0  0  0  0  0  0  0  0
   28.0449  -18.6249   64.9014 H   0  0  0  0  0  0  0  0  0  0  0  0
  1  2  2  0
  1  5  1  0
  1 15  1  0
  2  3  1  0
  2 11  1  0
  3  4  2  0
  4 12  1  0
  5 12  2  0
  5 14  1  0
  7  6  1  6
  7  8  1  0
  7  9  2  0
  7 10  1  0
 10 11  1  0
 12 13  1  0
 15 16  2  3
 16 17  1  0
 17 18  1  0
 18 19  1  0
 19 20  1  0
 20 21  1  0
  3 22  1  0
 11 23  1  0
 11 24  1  0
 13 25  1  0
 13 26  1  0
 13 27  1  0
 14 28  1  0
 15 29  1  0
 17 30  1  0
 17 31  1  0
 18 32  1  0
 18 33  1  0
 19 34  1  0
 19 35  1  0
 21 36  1  0
 21 37  1  0
 21 38  1  0
M  CHG  2   6  -1   8  -1
M  END
>  <filename_input>  (14) 
7CIJ_G0C_docked.sdf

>  <pdb_id>  (14) 
7CIJ_G0C

>  <pose_rank>  (14) 
13

>  <num_atoms_heavy>  (14) 
21

>  <num_torsions>  (14) 
8

>  <pose>  (14) 
[28.982442404879706, -11.370015088601342, 61.146887290079654, 0.7985466179555817, -1.113397446171446, 1.3142297248569736, -0.89875767583928, -2.958166322630762, 4.316247693247856, 0.9377502644548815, -0.2487680671199237, 1.378428836759658, -1.9327451365399437, 1.288673429224216]

>  <energy>  (14) 
-460.5872487869888

>  <inter_energy>  (14) 
-506.03684964736993

>  <intra_energy>  (14) 
48.910216032763444

>  <rmsd>  (14) 
5.84802

>  <sdf_rank>  (14) 
0

$$$$

     RDKit          3D

 38 38  0  0  0  0  0  0  0  0999 V2000
   24.4435  -12.6347   56.7606 C   0  0  0  0  0  0  0  0  0  0  0  0
   25.6423  -12.7664   57.5007 C   0  0  0  0  0  0  0  0  0  0  0  0
   26.2472  -14.0180   57.6428 C   0  0  0  0  0  0  0  0  0  0  0  0
   25.7151  -15.1126   57.0731 N   0  0  0  0  0  0  0  0  0  0  0  0
   23.9123  -13.8316   56.1971 C   0  0  0  0  0  0  0  0  0  0  0  0
   25.4398   -8.2702   58.0062 O   0  0  0  0  0  0  0  0  0  0  0  0
   26.6694   -9.0275   57.9983 P   0  0  2  0  0  0  0  0  0  0  0  0
   27.3028   -9.3301   59.3182 O   0  0  0  0  0  0  0  0  0  0  0  0
   27.6747   -8.6252   57.0042 O   0  0  0  0  0  0  0  0  0  0  0  0
   26.1096  -10.4517   57.4365 O   0  0  0  0  0  0  0  0  0  0  0  0
   26.3350  -11.6043   58.2201 C   0  0  0  0  0  0  0  0  0  0  0  0
   24.5659  -15.0473   56.3408 C   0  0  0  0  0  0  0  0  0  0  0  0
   24.0579  -16.3522   55.7801 C   0  0  0  0  0  0  0  0  0  0  0  0
   22.7716  -13.8253   55.4610 O   0  0  0  0  0  0  0  0  0  0  0  0
   23.7812  -11.4000   56.6273 C   0  0  0  0  0  0  0  0  0  0  0  0
   24.3064  -10.4577   55.8772 N   0  0  0  0  0  0  0  0  0  0  0  0
   23.6637   -9.1683   55.5999 C   0  0  0  0  0  0  0  0  0  0  0  0
   22.3759   -9.0608   54.7975 C   0  0  0  0  0  0  0  0  0  0  0  0
   21.1946   -8.4460   55.4958 C   0  0  0  0  0  0  0  0  0  0  0  0
   20.5788   -7.2056   54.2765 S   0  0  0  0  0  0  0  0  0  0  0  0
   19.4342   -6.2174   55.2249 C   0  0  0  0  0  0  0  0  0  0  0  0
   27.1730  -14.1086   58.2299 H   0  0  0  0  0  0  0  0  0  0  0  0
   25.9064  -11.4701   59.2242 H   0  0  0  0  0  0  0  0  0  0  0  0
   27.4113  -11.7976   58.3401 H   0  0  0  0  0  0  0  0  0  0  0  0
   23.7946  -17.0286   56.6066 H   0  0  0  0  0  0  0  0  0  0  0  0
   23.1674  -16.1639   55.1624 H   0  0  0  0  0  0  0  0  0  0  0  0
   24.8413  -16.8156   55.1624 H   0  0  0  0  0  0  0  0  0  0  0  0
   22.4233  -14.6703   55.0805 H   0  0  0  0  0  0  0  0  0  0  0  0
   22.8286  -11.2247   57.1486 H   0  0  0  0  0  0  0  0  0  0  0  0
   23.4542   -8.7129   56.5791 H   0  0  0  0  0  0  0  0  0  0  0  0
   24.3920   -8.6889   54.9293 H   0  0  0  0  0  0  0  0  0  0  0  0
   22.5887   -8.4537   53.9052 H   0  0  0  0  0  0  0  0  0  0  0  0
   22.0791  -10.0988   54.5866 H   0  0  0  0  0  0  0  0  0  0  0  0
   20.4258   -9.2030   55.7102 H   0  0  0  0  0  0  0  0  0  0  0  0
   21.4528   -8.0019   56.4684 H   0  0  0  0  0  0  0  0  0  0  0  0
   19.6162   -6.3745   56.2983 H   0  0  0  0  0  0  0  0  0  0  0  0
   19.5775   -5.1545   54.9804 H   0  0  0  0  0  0  0  0  0  0  0  0
   18.4036   -6.5142   54.9804 H   0  0  0  0  0  0  0  0  0  0  0  0
  1  2  2  0
  1  5  1  0
  1 15  1  0
  2  3  1  0
  2 11  1  0
  3  4  2  0
  4 12  1  0
  5 12  2  0
  5 14  1  0
  7  6  1  1
  7  8  1  0
  7  9  2  0
  7 10  1  0
 10 11  1  0
 12 13  1  0
 15 16  2  3
 16 17  1  0
 17 18  1  0
 18 19  1  0
 19 20  1  0
 20 21  1  0
  3 22  1  0
 11 23  1  0
 11 24  1  0
 13 25  1  0
 13 26  1  0
 13 27  1  0
 14 28  1  0
 15 29  1  0
 17 30  1  0
 17 31  1  0
 18 32  1  0
 18 33  1  0
 19 34  1  0
 19 35  1  0
 21 36  1  0
 21 37  1  0
 21 38  1  0
M  CHG  2   6  -1   8  -1
M  END
>  <filename_input>  (15) 
7CIJ_G0C_docked.sdf

>  <pdb_id>  (15) 
7CIJ_G0C

>  <pose_rank>  (15) 
14

>  <num_atoms_heavy>  (15) 
21

>  <num_torsions>  (15) 
8

>  <pose>  (15) 
[24.443493402040897, -12.634741277325963, 56.760595473851254, -0.7607150232672918, -2.628152302816249, -0.8266904295825368, -1.6655550978609677, -1.0243327139601826, -1.2169380502935092, 1.0058176298109651, -4.196927369842604, 4.473576991801684, -0.5237445439731752, 1.029694567149035]

>  <energy>  (15) 
-344.16899604822805

>  <inter_energy>  (15) 
-425.44599010758736

>  <intra_energy>  (15) 
86.59796425435924

>  <rmsd>  (15) 
5.88296

>  <sdf_rank>  (15) 
0

$$$$

     RDKit          3D

 38 38  0  0  0  0  0  0  0  0999 V2000
   28.9340  -12.3975   60.7616 C   0  0  0  0  0  0  0  0  0  0  0  0
   28.8562  -12.0912   62.1408 C   0  0  0  0  0  0  0  0  0  0  0  0
   29.8055  -11.2515   62.7293 C   0  0  0  0  0  0  0  0  0  0  0  0
   30.7971  -10.7104   62.0014 N   0  0  0  0  0  0  0  0  0  0  0  0
   30.0183  -11.8139   60.0433 C   0  0  0  0  0  0  0  0  0  0  0  0
   29.3784  -15.4977   63.9027 O   0  0  0  0  0  0  0  0  0  0  0  0
   28.0611  -14.9965   64.2170 P   0  0  2  0  0  0  0  0  0  0  0  0
   27.9311  -14.0877   65.3968 O   0  0  0  0  0  0  0  0  0  0  0  0
   26.9655  -15.9757   64.1750 O   0  0  0  0  0  0  0  0  0  0  0  0
   27.8038  -14.0628   62.9058 O   0  0  0  0  0  0  0  0  0  0  0  0
   27.7932  -12.6625   63.0850 C   0  0  0  0  0  0  0  0  0  0  0  0
   30.9192  -10.9617   60.6660 C   0  0  0  0  0  0  0  0  0  0  0  0
   32.0925  -10.3171   59.9712 C   0  0  0  0  0  0  0  0  0  0  0  0
   30.1889  -12.0310   58.7141 O   0  0  0  0  0  0  0  0  0  0  0  0
   28.0221  -13.2704   60.1391 C   0  0  0  0  0  0  0  0  0  0  0  0
   27.1244  -12.7893   59.3089 N   0  0  0  0  0  0  0  0  0  0  0  0
   26.1830  -13.6130   58.5421 C   0  0  0  0  0  0  0  0  0  0  0  0
   25.1271  -13.0030   57.6327 C   0  0  0  0  0  0  0  0  0  0  0  0
   25.6217  -12.1125   56.5265 C   0  0  0  0  0  0  0  0  0  0  0  0
   24.0992  -11.2213   55.9861 S   0  0  0  0  0  0  0  0  0  0  0  0
   24.4770   -9.5080   56.3146 C   0  0  0  0  0  0  0  0  0  0  0  0
   29.7402  -11.0300   63.8048 H   0  0  0  0  0  0  0  0  0  0  0  0
   28.0378  -12.4117   64.1278 H   0  0  0  0  0  0  0  0  0  0  0  0
   26.8007  -12.2423   62.8650 H   0  0  0  0  0  0  0  0  0  0  0  0
   32.7965   -9.9303   60.7227 H   0  0  0  0  0  0  0  0  0  0  0  0
   32.6009  -11.0625   59.3420 H   0  0  0  0  0  0  0  0  0  0  0  0
   31.7359   -9.4882   59.3420 H   0  0  0  0  0  0  0  0  0  0  0  0
   30.9503  -11.6139   58.2381 H   0  0  0  0  0  0  0  0  0  0  0  0
   28.0609  -14.3500   60.3464 H   0  0  0  0  0  0  0  0  0  0  0  0
   26.7962  -14.2673   57.9048 H   0  0  0  0  0  0  0  0  0  0  0  0
   25.5692  -14.0602   59.3378 H   0  0  0  0  0  0  0  0  0  0  0  0
   24.5675  -13.8295   57.1704 H   0  0  0  0  0  0  0  0  0  0  0  0
   24.5275  -12.3497   58.2836 H   0  0  0  0  0  0  0  0  0  0  0  0
   26.3802  -11.4075   56.8975 H   0  0  0  0  0  0  0  0  0  0  0  0
   26.1073  -12.6685   55.7110 H   0  0  0  0  0  0  0  0  0  0  0  0
   24.5135   -9.3424   57.4015 H   0  0  0  0  0  0  0  0  0  0  0  0
   25.4523   -9.2562   55.8724 H   0  0  0  0  0  0  0  0  0  0  0  0
   23.6981   -8.8694   55.8724 H   0  0  0  0  0  0  0  0  0  0  0  0
  1  2  2  0
  1  5  1  0
  1 15  1  0
  2  3  1  0
  2 11  1  0
  3  4  2  0
  4 12  1  0
  5 12  2  0
  5 14  1  0
  7  6  1  6
  7  8  1  0
  7  9  2  0
  7 10  1  0
 10 11  1  0
 12 13  1  0
 15 16  2  3
 16 17  1  0
 17 18  1  0
 18 19  1  0
 19 20  1  0
 20 21  1  0
  3 22  1  0
 11 23  1  0
 11 24  1  0
 13 25  1  0
 13 26  1  0
 13 27  1  0
 14 28  1  0
 15 29  1  0
 17 30  1  0
 17 31  1  0
 18 32  1  0
 18 33  1  0
 19 34  1  0
 19 35  1  0
 21 36  1  0
 21 37  1  0
 21 38  1  0
M  CHG  2   6  -1   8  -1
M  END
>  <filename_input>  (16) 
7CIJ_G0C_docked.sdf

>  <pdb_id>  (16) 
7CIJ_G0C

>  <pose_rank>  (16) 
15

>  <num_atoms_heavy>  (16) 
21

>  <num_torsions>  (16) 
8

>  <pose>  (16) 
[28.93402280179506, -12.39752416954561, 60.76160931119041, -2.4924713304338884, 2.0607286081712517, 1.3265219736392324, -1.0131278327950253, 3.2251764785286463, -2.2925917439747474, 2.122816145840722, 0.7879672457344153, -0.3285408906503558, -1.4572089615240273, 1.264790979362388]

>  <energy>  (16) 
-452.98214477300803

>  <inter_energy>  (16) 
-479.46885556623124

>  <intra_energy>  (16) 
17.763111774519267

>  <rmsd>  (16) 
7.70265

>  <sdf_rank>  (16) 
0

$$$$

     RDKit          3D

 38 38  0  0  0  0  0  0  0  0999 V2000
   29.6459  -11.7983   61.0633 C   0  0  0  0  0  0  0  0  0  0  0  0
   28.7498  -11.1374   60.1902 C   0  0  0  0  0  0  0  0  0  0  0  0
   29.2329  -10.4610   59.0668 C   0  0  0  0  0  0  0  0  0  0  0  0
   30.5469  -10.4350   58.7865 N   0  0  0  0  0  0  0  0  0  0  0  0
   31.0296  -11.7196   60.7295 C   0  0  0  0  0  0  0  0  0  0  0  0
   26.0106  -11.0682   58.1258 O   0  0  0  0  0  0  0  0  0  0  0  0
   26.3527   -9.6887   58.3818 P   0  0  2  0  0  0  0  0  0  0  0  0
   25.2438   -8.6864   58.3591 O   0  0  0  0  0  0  0  0  0  0  0  0
   27.5480   -9.1769   57.6960 O   0  0  0  0  0  0  0  0  0  0  0  0
   26.8144   -9.8063   59.9407 O   0  0  0  0  0  0  0  0  0  0  0  0
   27.2350  -11.0694   60.4104 C   0  0  0  0  0  0  0  0  0  0  0  0
   31.4584  -11.0607   59.5859 C   0  0  0  0  0  0  0  0  0  0  0  0
   32.9042  -10.9307   59.1765 C   0  0  0  0  0  0  0  0  0  0  0  0
   31.9795  -12.3217   61.4899 O   0  0  0  0  0  0  0  0  0  0  0  0
   29.2045  -12.4564   62.2265 C   0  0  0  0  0  0  0  0  0  0  0  0
   27.9647  -12.8853   62.3005 N   0  0  0  0  0  0  0  0  0  0  0  0
   27.4228  -13.6554   63.4256 C   0  0  0  0  0  0  0  0  0  0  0  0
   28.2389  -14.7153   64.1498 C   0  0  0  0  0  0  0  0  0  0  0  0
   27.9455  -16.1483   63.8012 C   0  0  0  0  0  0  0  0  0  0  0  0
   28.3294  -17.0525   65.3631 S   0  0  0  0  0  0  0  0  0  0  0  0
   29.1917  -15.8396   66.3489 C   0  0  0  0  0  0  0  0  0  0  0  0
   28.5268   -9.9420   58.4019 H   0  0  0  0  0  0  0  0  0  0  0  0
   26.7334  -11.8700   59.8469 H   0  0  0  0  0  0  0  0  0  0  0  0
   26.9828  -11.2012   61.4730 H   0  0  0  0  0  0  0  0  0  0  0  0
   33.5360  -10.8739   60.0752 H   0  0  0  0  0  0  0  0  0  0  0  0
   33.1959  -11.8062   58.5779 H   0  0  0  0  0  0  0  0  0  0  0  0
   33.0351  -10.0171   58.5779 H   0  0  0  0  0  0  0  0  0  0  0  0
   32.9340  -12.2520   61.2364 H   0  0  0  0  0  0  0  0  0  0  0  0
   29.8940  -12.6109   63.0696 H   0  0  0  0  0  0  0  0  0  0  0  0
   27.1296  -12.9193   64.1886 H   0  0  0  0  0  0  0  0  0  0  0  0
   26.6453  -14.2601   62.9358 H   0  0  0  0  0  0  0  0  0  0  0  0
   29.2999  -14.5287   63.9274 H   0  0  0  0  0  0  0  0  0  0  0  0
   27.9674  -14.6144   65.2110 H   0  0  0  0  0  0  0  0  0  0  0  0
   26.8897  -16.2773   63.5206 H   0  0  0  0  0  0  0  0  0  0  0  0
   28.5274  -16.5098   62.9405 H   0  0  0  0  0  0  0  0  0  0  0  0
   29.0369  -16.0573   67.4160 H   0  0  0  0  0  0  0  0  0  0  0  0
   30.2667  -15.8775   66.1191 H   0  0  0  0  0  0  0  0  0  0  0  0
   28.8028  -14.8367   66.1191 H   0  0  0  0  0  0  0  0  0  0  0  0
  1  2  2  0
  1  5  1  0
  1 15  1  0
  2  3  1  0
  2 11  1  0
  3  4  2  0
  4 12  1  0
  5 12  2  0
  5 14  1  0
  7  6  1  6
  7  8  1  0
  7  9  2  0
  7 10  1  0
 10 11  1  0
 12 13  1  0
 15 16  2  3
 16 17  1  0
 17 18  1  0
 18 19  1  0
 19 20  1  0
 20 21  1  0
  3 22  1  0
 11 23  1  0
 11 24  1  0
 13 25  1  0
 13 26  1  0
 13 27  1  0
 14 28  1  0
 15 29  1  0
 17 30  1  0
 17 31  1  0
 18 32  1  0
 18 33  1  0
 19 34  1  0
 19 35  1  0
 21 36  1  0
 21 37  1  0
 21 38  1  0
M  CHG  2   6  -1   8  -1
M  END
>  <filename_input>  (17) 
7CIJ_G0C_docked.sdf

>  <pdb_id>  (17) 
7CIJ_G0C

>  <pose_rank>  (17) 
16

>  <num_atoms_heavy>  (17) 
21

>  <num_torsions>  (17) 
8

>  <pose>  (17) 
[29.645907893388387, -11.798289414393317, 61.063343753007906, 1.0265387137116984, -1.0532829697264137, 1.2545241198067458, -2.490037161264569, -6.820283441504605, -5.0867823767020885, 2.3780424558457667, -1.4929494983622351, 1.3112769470732564, -2.025392832840037, 3.585590264390686]

>  <energy>  (17) 
-360.51396771135694

>  <inter_energy>  (17) 
-446.4724332784938

>  <intra_energy>  (17) 
93.44343047095175

>  <rmsd>  (17) 
5.9089

>  <sdf_rank>  (17) 
0

$$$$

     RDKit          3D

 38 38  0  0  0  0  0  0  0  0999 V2000
   25.2939  -12.3913   57.9901 C   0  0  0  0  0  0  0  0  0  0  0  0
   24.5514  -11.4720   57.2118 C   0  0  0  0  0  0  0  0  0  0  0  0
   23.6318  -11.9331   56.2661 C   0  0  0  0  0  0  0  0  0  0  0  0
   23.4247  -13.2487   56.0861 N   0  0  0  0  0  0  0  0  0  0  0  0
   25.0498  -13.7737   57.7419 C   0  0  0  0  0  0  0  0  0  0  0  0
   26.8213   -7.4802   57.6964 O   0  0  0  0  0  0  0  0  0  0  0  0
   26.6653   -8.3814   56.5788 P   0  0  2  0  0  0  0  0  0  0  0  0
   27.9055   -8.8305   55.8753 O   0  0  0  0  0  0  0  0  0  0  0  0
   25.5989   -8.0525   55.6220 O   0  0  0  0  0  0  0  0  0  0  0  0
   26.0986   -9.6935   57.3628 O   0  0  0  0  0  0  0  0  0  0  0  0
   24.7118   -9.9508   57.3008 C   0  0  0  0  0  0  0  0  0  0  0  0
   24.1041  -14.1826   56.8124 C   0  0  0  0  0  0  0  0  0  0  0  0
   23.8008  -15.6252   56.4929 C   0  0  0  0  0  0  0  0  0  0  0  0
   25.6982  -14.7453   58.4338 O   0  0  0  0  0  0  0  0  0  0  0  0
   26.2583  -11.9691   58.9243 C   0  0  0  0  0  0  0  0  0  0  0  0
   26.3489  -12.5770   60.0857 N   0  0  0  0  0  0  0  0  0  0  0  0
   27.3682  -12.2774   61.0976 C   0  0  0  0  0  0  0  0  0  0  0  0
   28.2451  -11.0367   61.0218 C   0  0  0  0  0  0  0  0  0  0  0  0
   29.0289  -10.8404   59.7536 C   0  0  0  0  0  0  0  0  0  0  0  0
   30.6593  -11.6137   60.1382 S   0  0  0  0  0  0  0  0  0  0  0  0
   31.7404  -10.9634   58.8754 C   0  0  0  0  0  0  0  0  0  0  0  0
   23.0688  -11.2083   55.6598 H   0  0  0  0  0  0  0  0  0  0  0  0
   24.2762   -9.4707   56.4121 H   0  0  0  0  0  0  0  0  0  0  0  0
   24.1944   -9.5488   58.1843 H   0  0  0  0  0  0  0  0  0  0  0  0
   23.6819  -16.1908   57.4287 H   0  0  0  0  0  0  0  0  0  0  0  0
   22.8707  -15.6836   55.9084 H   0  0  0  0  0  0  0  0  0  0  0  0
   24.6286  -16.0532   55.9084 H   0  0  0  0  0  0  0  0  0  0  0  0
   25.5107  -15.6983   58.2424 H   0  0  0  0  0  0  0  0  0  0  0  0
   26.9330  -11.1343   58.6833 H   0  0  0  0  0  0  0  0  0  0  0  0
   26.8382  -12.2204   62.0598 H   0  0  0  0  0  0  0  0  0  0  0  0
   28.0980  -13.0839   60.9332 H   0  0  0  0  0  0  0  0  0  0  0  0
   27.5936  -10.1597   61.1501 H   0  0  0  0  0  0  0  0  0  0  0  0
   29.0000  -11.1675   61.8110 H   0  0  0  0  0  0  0  0  0  0  0  0
   28.5423  -11.3473   58.9072 H   0  0  0  0  0  0  0  0  0  0  0  0
   29.1124   -9.7841   59.4584 H   0  0  0  0  0  0  0  0  0  0  0  0
   32.5912  -10.4516   59.3490 H   0  0  0  0  0  0  0  0  0  0  0  0
   32.1111  -11.7885   58.2495 H   0  0  0  0  0  0  0  0  0  0  0  0
   31.1852  -10.2493   58.2495 H   0  0  0  0  0  0  0  0  0  0  0  0
  1  2  2  0
  1  5  1  0
  1 15  1  0
  2  3  1  0
  2 11  1  0
  3  4  2  0
  4 12  1  0
  5 12  2  0
  5 14  1  0
  7  6  1  1
  7  8  1  0
  7  9  2  0
  7 10  1  0
 10 11  1  0
 12 13  1  0
 15 16  2  3
 16 17  1  0
 17 18  1  0
 18 19  1  0
 19 20  1  0
 20 21  1  0
  3 22  1  0
 11 23  1  0
 11 24  1  0
 13 25  1  0
 13 26  1  0
 13 27  1  0
 14 28  1  0
 15 29  1  0
 17 30  1  0
 17 31  1  0
 18 32  1  0
 18 33  1  0
 19 34  1  0
 19 35  1  0
 21 36  1  0
 21 37  1  0
 21 38  1  0
M  CHG  2   6  -1   8  -1
M  END
>  <filename_input>  (18) 
7CIJ_G0C_docked.sdf

>  <pdb_id>  (18) 
7CIJ_G0C

>  <pose_rank>  (18) 
17

>  <num_atoms_heavy>  (18) 
21

>  <num_torsions>  (18) 
8

>  <pose>  (18) 
[25.293930240582934, -12.391281164009866, 57.99014425050874, 5.013307386773697, -2.023315418512724, 3.268117780323575, -0.47566514401440524, 0.35154260727626685, 2.0113395558825213, -2.9207043374726203, 2.1569720468246394, -0.469922967732071, -1.119965546351129, -1.3222963585951748]

>  <energy>  (18) 
-749.5390435565484

>  <inter_energy>  (18) 
-790.502473950661

>  <intra_energy>  (18) 
50.05600598155997

>  <rmsd>  (18) 
0.797721

>  <sdf_rank>  (18) 
0

$$$$

     RDKit          3D

 38 38  0  0  0  0  0  0  0  0999 V2000
   23.4897  -12.5235   56.4910 C   0  0  0  0  0  0  0  0  0  0  0  0
   24.7022  -11.7941   56.4913 C   0  0  0  0  0  0  0  0  0  0  0  0
   25.9210  -12.4560   56.6620 C   0  0  0  0  0  0  0  0  0  0  0  0
   25.9685  -13.7902   56.8149 N   0  0  0  0  0  0  0  0  0  0  0  0
   23.5980  -13.9324   56.6791 C   0  0  0  0  0  0  0  0  0  0  0  0
   27.3577   -9.9906   58.1957 O   0  0  0  0  0  0  0  0  0  0  0  0
   26.8523   -8.9874   57.2882 P   0  0  2  0  0  0  0  0  0  0  0  0
   27.8524   -8.1669   56.5390 O   0  0  0  0  0  0  0  0  0  0  0  0
   25.7474   -8.1562   57.7874 O   0  0  0  0  0  0  0  0  0  0  0  0
   26.1478   -9.9522   56.1790 O   0  0  0  0  0  0  0  0  0  0  0  0
   24.7834  -10.2702   56.3530 C   0  0  0  0  0  0  0  0  0  0  0  0
   24.8342  -14.5482   56.8147 C   0  0  0  0  0  0  0  0  0  0  0  0
   25.0226  -16.0298   57.0252 C   0  0  0  0  0  0  0  0  0  0  0  0
   22.5026  -14.7344   56.6890 O   0  0  0  0  0  0  0  0  0  0  0  0
   22.2390  -11.8909   56.3625 C   0  0  0  0  0  0  0  0  0  0  0  0
   21.1878  -12.5942   56.0062 N   0  0  0  0  0  0  0  0  0  0  0  0
   19.8245  -12.0581   55.9237 C   0  0  0  0  0  0  0  0  0  0  0  0
   19.5476  -10.5821   55.6815 C   0  0  0  0  0  0  0  0  0  0  0  0
   18.1112  -10.1904   55.4708 C   0  0  0  0  0  0  0  0  0  0  0  0
   18.2228   -8.8019   54.2608 S   0  0  0  0  0  0  0  0  0  0  0  0
   16.7778   -7.8168   54.6182 C   0  0  0  0  0  0  0  0  0  0  0  0
   26.8556  -11.8760   56.6713 H   0  0  0  0  0  0  0  0  0  0  0  0
   24.2020   -9.9369   55.4808 H   0  0  0  0  0  0  0  0  0  0  0  0
   24.3698   -9.7692   57.2407 H   0  0  0  0  0  0  0  0  0  0  0  0
   25.0502  -16.2464   58.1033 H   0  0  0  0  0  0  0  0  0  0  0  0
   24.1866  -16.5751   56.5628 H   0  0  0  0  0  0  0  0  0  0  0  0
   25.9685  -16.3484   56.5628 H   0  0  0  0  0  0  0  0  0  0  0  0
   22.6047  -15.7101   56.8215 H   0  0  0  0  0  0  0  0  0  0  0  0
   22.1420  -10.8130   56.5593 H   0  0  0  0  0  0  0  0  0  0  0  0
   19.3299  -12.6016   55.1052 H   0  0  0  0  0  0  0  0  0  0  0  0
   19.4628  -12.1929   56.9537 H   0  0  0  0  0  0  0  0  0  0  0  0
   19.9204  -10.0254   56.5539 H   0  0  0  0  0  0  0  0  0  0  0  0
   20.0541  -10.3445   54.7344 H   0  0  0  0  0  0  0  0  0  0  0  0
   17.5310  -11.0282   55.0567 H   0  0  0  0  0  0  0  0  0  0  0  0
   17.6007   -9.9085   56.4035 H   0  0  0  0  0  0  0  0  0  0  0  0
   16.6526   -7.7314   55.7077 H   0  0  0  0  0  0  0  0  0  0  0  0
   16.9011   -6.8138   54.1835 H   0  0  0  0  0  0  0  0  0  0  0  0
   15.8893   -8.2980   54.1835 H   0  0  0  0  0  0  0  0  0  0  0  0
  1  2  2  0
  1  5  1  0
  1 15  1  0
  2  3  1  0
  2 11  1  0
  3  4  2  0
  4 12  1  0
  5 12  2  0
  5 14  1  0
  7  6  1  1
  7  8  1  0
  7  9  2  0
  7 10  1  0
 10 11  1  0
 12 13  1  0
 15 16  2  3
 16 17  1  0
 17 18  1  0
 18 19  1  0
 19 20  1  0
 20 21  1  0
  3 22  1  0
 11 23  1  0
 11 24  1  0
 13 25  1  0
 13 26  1  0
 13 27  1  0
 14 28  1  0
 15 29  1  0
 17 30  1  0
 17 31  1  0
 18 32  1  0
 18 33  1  0
 19 34  1  0
 19 35  1  0
 21 36  1  0
 21 37  1  0
 21 38  1  0
M  CHG  2   6  -1   8  -1
M  END
>  <filename_input>  (19) 
7CIJ_G0C_docked.sdf

>  <pdb_id>  (19) 
7CIJ_G0C

>  <pose_rank>  (19) 
18

>  <num_atoms_heavy>  (19) 
21

>  <num_torsions>  (19) 
8

>  <pose>  (19) 
[23.489676719176654, -12.523500434173503, 56.49096236025996, -0.268210458727031, -2.4176016225641, 0.10477008252587565, -0.09058408755118831, 0.572593450934567, -0.27953261821724795, -3.8348224905784787, 2.3539792359839846, 2.0838337318937135, 0.5882445690799532, -1.4951572441845322]

>  <energy>  (19) 
-402.95720227306515

>  <inter_energy>  (19) 
-432.6020973069887

>  <intra_energy>  (19) 
31.805988104620297

>  <rmsd>  (19) 
6.80064

>  <sdf_rank>  (19) 
0

$$$$

     RDKit          3D

 38 38  0  0  0  0  0  0  0  0999 V2000
   33.1434  -17.9046   52.8500 C   0  0  0  0  0  0  0  0  0  0  0  0
   32.8759  -16.9577   51.8331 C   0  0  0  0  0  0  0  0  0  0  0  0
   32.3632  -17.3743   50.6017 C   0  0  0  0  0  0  0  0  0  0  0  0
   32.1029  -18.6709   50.3632 N   0  0  0  0  0  0  0  0  0  0  0  0
   32.8691  -19.2674   52.5347 C   0  0  0  0  0  0  0  0  0  0  0  0
   33.1176  -13.7581   50.0142 O   0  0  0  0  0  0  0  0  0  0  0  0
   34.5121  -13.9340   50.3456 P   0  0  2  0  0  0  0  0  0  0  0  0
   35.1744  -12.8557   51.1415 O   0  0  0  0  0  0  0  0  0  0  0  0
   35.3837  -14.4077   49.2607 O   0  0  0  0  0  0  0  0  0  0  0  0
   34.3960  -15.2169   51.3446 O   0  0  0  0  0  0  0  0  0  0  0  0
   33.1523  -15.4567   51.9682 C   0  0  0  0  0  0  0  0  0  0  0  0
   32.3319  -19.6288   51.3072 C   0  0  0  0  0  0  0  0  0  0  0  0
   32.0254  -21.0493   50.9032 C   0  0  0  0  0  0  0  0  0  0  0  0
   33.0795  -20.2615   53.4350 O   0  0  0  0  0  0  0  0  0  0  0  0
   33.6973  -17.5317   54.0891 C   0  0  0  0  0  0  0  0  0  0  0  0
   34.7058  -18.2142   54.5827 N   0  0  0  0  0  0  0  0  0  0  0  0
   35.4131  -17.8648   55.8197 C   0  0  0  0  0  0  0  0  0  0  0  0
   34.8168  -18.1246   57.1949 C   0  0  0  0  0  0  0  0  0  0  0  0
   35.7721  -18.5501   58.2754 C   0  0  0  0  0  0  0  0  0  0  0  0
   35.5803  -20.3848   58.3133 S   0  0  0  0  0  0  0  0  0  0  0  0
   36.9488  -20.9290   59.3219 C   0  0  0  0  0  0  0  0  0  0  0  0
   32.1699  -16.6295   49.8156 H   0  0  0  0  0  0  0  0  0  0  0  0
   32.3602  -14.8787   51.4696 H   0  0  0  0  0  0  0  0  0  0  0  0
   33.1733  -15.1511   53.0247 H   0  0  0  0  0  0  0  0  0  0  0  0
   31.8923  -21.6661   51.8042 H   0  0  0  0  0  0  0  0  0  0  0  0
   31.1023  -21.0694   50.3054 H   0  0  0  0  0  0  0  0  0  0  0  0
   32.8581  -21.4483   50.3054 H   0  0  0  0  0  0  0  0  0  0  0  0
   32.8809  -21.2003   53.1913 H   0  0  0  0  0  0  0  0  0  0  0  0
   33.2878  -16.6731   54.6415 H   0  0  0  0  0  0  0  0  0  0  0  0
   36.3684  -18.4093   55.7914 H   0  0  0  0  0  0  0  0  0  0  0  0
   35.4197  -16.7657   55.7770 H   0  0  0  0  0  0  0  0  0  0  0  0
   34.3292  -17.1964   57.5276 H   0  0  0  0  0  0  0  0  0  0  0  0
   34.1360  -18.9777   57.0584 H   0  0  0  0  0  0  0  0  0  0  0  0
   36.8045  -18.2670   58.0225 H   0  0  0  0  0  0  0  0  0  0  0  0
   35.5636  -18.0755   59.2456 H   0  0  0  0  0  0  0  0  0  0  0  0
   36.6854  -20.8243   60.3848 H   0  0  0  0  0  0  0  0  0  0  0  0
   37.1703  -21.9837   59.1013 H   0  0  0  0  0  0  0  0  0  0  0  0
   37.8341  -20.3145   59.1013 H   0  0  0  0  0  0  0  0  0  0  0  0
  1  2  2  0
  1  5  1  0
  1 15  1  0
  2  3  1  0
  2 11  1  0
  3  4  2  0
  4 12  1  0
  5 12  2  0
  5 14  1  0
  7  6  1  6
  7  8  1  0
  7  9  2  0
  7 10  1  0
 10 11  1  0
 12 13  1  0
 15 16  2  3
 16 17  1  0
 17 18  1  0
 18 19  1  0
 19 20  1  0
 20 21  1  0
  3 22  1  0
 11 23  1  0
 11 24  1  0
 13 25  1  0
 13 26  1  0
 13 27  1  0
 14 28  1  0
 15 29  1  0
 17 30  1  0
 17 31  1  0
 18 32  1  0
 18 33  1  0
 19 34  1  0
 19 35  1  0
 21 36  1  0
 21 37  1  0
 21 38  1  0
M  CHG  2   6  -1   8  -1
M  END
>  <filename_input>  (20) 
7CIJ_G0C_docked.sdf

>  <pdb_id>  (20) 
7CIJ_G0C

>  <pose_rank>  (20) 
19

>  <num_atoms_heavy>  (20) 
21

>  <num_torsions>  (20) 
8

>  <pose>  (20) 
[33.14341522331336, -17.904569190765912, 52.85004976515799, 0.0947944040390447, 5.741926599984388, 1.1266269071805601, 1.0550006198893316, 1.4463097649542562, -0.8096622126764408, -3.003890799071886, 1.655413875365691, 0.4816151424803349, -1.2591425960831668, -3.4834760841351264]

>  <energy>  (20) 
-201.6420788939181

>  <inter_energy>  (20) 
-199.72272078036687

>  <intra_energy>  (20) 
12.464295680865401

>  <rmsd>  (20) 
10.9366

>  <sdf_rank>  (20) 
0

$$$$

     RDKit          3D

 38 38  0  0  0  0  0  0  0  0999 V2000
   19.5363  -18.7157   63.3055 C   0  0  0  0  0  0  0  0  0  0  0  0
   18.7647  -17.5461   63.5023 C   0  0  0  0  0  0  0  0  0  0  0  0
   17.4252  -17.5123   63.1057 C   0  0  0  0  0  0  0  0  0  0  0  0
   16.8419  -18.5856   62.5455 N   0  0  0  0  0  0  0  0  0  0  0  0
   18.8729  -19.8157   62.6873 C   0  0  0  0  0  0  0  0  0  0  0  0
   16.7473  -14.6329   66.1228 O   0  0  0  0  0  0  0  0  0  0  0  0
   17.8977  -14.4037   65.2803 P   0  0  2  0  0  0  0  0  0  0  0  0
   19.0071  -13.5710   65.8376 O   0  0  0  0  0  0  0  0  0  0  0  0
   17.6190  -14.0526   63.8803 O   0  0  0  0  0  0  0  0  0  0  0  0
   18.4814  -15.9233   65.1953 O   0  0  0  0  0  0  0  0  0  0  0  0
   19.3158  -16.2492   64.1042 C   0  0  0  0  0  0  0  0  0  0  0  0
   17.5318  -19.7441   62.3379 C   0  0  0  0  0  0  0  0  0  0  0  0
   16.7698  -20.8637   61.6740 C   0  0  0  0  0  0  0  0  0  0  0  0
   19.5111  -20.9913   62.4555 O   0  0  0  0  0  0  0  0  0  0  0  0
   20.8986  -18.7776   63.6537 C   0  0  0  0  0  0  0  0  0  0  0  0
   21.3417  -19.7856   64.3707 N   0  0  0  0  0  0  0  0  0  0  0  0
   22.7515  -19.9953   64.7186 C   0  0  0  0  0  0  0  0  0  0  0  0
   23.2346  -20.0238   66.1608 C   0  0  0  0  0  0  0  0  0  0  0  0
   24.5299  -19.3183   66.4529 C   0  0  0  0  0  0  0  0  0  0  0  0
   25.8066  -20.5160   65.8700 S   0  0  0  0  0  0  0  0  0  0  0  0
   26.8154  -20.7912   67.3167 C   0  0  0  0  0  0  0  0  0  0  0  0
   16.8393  -16.5933   63.2542 H   0  0  0  0  0  0  0  0  0  0  0  0
   20.3494  -16.4002   64.4488 H   0  0  0  0  0  0  0  0  0  0  0  0
   19.3277  -15.4402   63.3589 H   0  0  0  0  0  0  0  0  0  0  0  0
   16.3277  -21.5133   62.4439 H   0  0  0  0  0  0  0  0  0  0  0  0
   15.9705  -20.4419   61.0470 H   0  0  0  0  0  0  0  0  0  0  0  0
   17.4555  -21.4526   61.0470 H   0  0  0  0  0  0  0  0  0  0  0  0
   19.0279  -21.7402   62.0246 H   0  0  0  0  0  0  0  0  0  0  0  0
   21.5891  -17.9859   63.3272 H   0  0  0  0  0  0  0  0  0  0  0  0
   23.0351  -20.9637   64.2807 H   0  0  0  0  0  0  0  0  0  0  0  0
   23.2204  -19.0758   64.3382 H   0  0  0  0  0  0  0  0  0  0  0  0
   22.4548  -19.5600   66.7828 H   0  0  0  0  0  0  0  0  0  0  0  0
   23.4269  -21.0843   66.3804 H   0  0  0  0  0  0  0  0  0  0  0  0
   24.5963  -18.3706   65.8983 H   0  0  0  0  0  0  0  0  0  0  0  0
   24.6441  -19.0497   67.5135 H   0  0  0  0  0  0  0  0  0  0  0  0
   26.2117  -20.6265   68.2214 H   0  0  0  0  0  0  0  0  0  0  0  0
   27.1917  -21.8248   67.3102 H   0  0  0  0  0  0  0  0  0  0  0  0
   27.6644  -20.0918   67.3102 H   0  0  0  0  0  0  0  0  0  0  0  0
  1  2  2  0
  1  5  1  0
  1 15  1  0
  2  3  1  0
  2 11  1  0
  3  4  2  0
  4 12  1  0
  5 12  2  0
  5 14  1  0
  7  6  1  1
  7  8  1  0
  7  9  2  0
  7 10  1  0
 10 11  1  0
 12 13  1  0
 15 16  2  3
 16 17  1  0
 17 18  1  0
 18 19  1  0
 19 20  1  0
 20 21  1  0
  3 22  1  0
 11 23  1  0
 11 24  1  0
 13 25  1  0
 13 26  1  0
 13 27  1  0
 14 28  1  0
 15 29  1  0
 17 30  1  0
 17 31  1  0
 18 32  1  0
 18 33  1  0
 19 34  1  0
 19 35  1  0
 21 36  1  0
 21 37  1  0
 21 38  1  0
M  CHG  2   6  -1   8  -1
M  END
>  <filename_input>  (21) 
7CIJ_G0C_docked.sdf

>  <pdb_id>  (21) 
7CIJ_G0C

>  <pose_rank>  (21) 
20

>  <num_atoms_heavy>  (21) 
21

>  <num_torsions>  (21) 
8

>  <pose>  (21) 
[19.536320098421243, -18.71569052397627, 63.305491900952575, -3.7762578889316876, -3.9363404256170975, 0.88683691942348, -0.6310393235187949, -4.082046003263177, 0.5542697441456066, -2.66083338881559, -3.4270723856024694, 2.8729170056982896, 0.4002511016331172, -0.34271881751534533]

>  <energy>  (21) 
-140.61707347958134

>  <inter_energy>  (21) 
-143.30158211235698

>  <intra_energy>  (21) 
11.426542220138497

>  <rmsd>  (21) 
11.7646

>  <sdf_rank>  (21) 
0

$$$$

     RDKit          3D

 38 38  0  0  0  0  0  0  0  0999 V2000
   33.5642  -17.3036   52.0596 C   0  0  0  0  0  0  0  0  0  0  0  0
   32.5974  -18.2754   51.7088 C   0  0  0  0  0  0  0  0  0  0  0  0
   32.3873  -19.3866   52.5296 C   0  0  0  0  0  0  0  0  0  0  0  0
   33.0839  -19.5483   53.6673 N   0  0  0  0  0  0  0  0  0  0  0  0
   34.2886  -17.5371   53.2649 C   0  0  0  0  0  0  0  0  0  0  0  0
   30.2383  -19.2012   48.3047 O   0  0  0  0  0  0  0  0  0  0  0  0
   31.0463  -20.2277   48.9204 P   0  0  2  0  0  0  0  0  0  0  0  0
   31.7812  -21.1637   48.0157 O   0  0  0  0  0  0  0  0  0  0  0  0
   30.4367  -20.9456   50.0490 O   0  0  0  0  0  0  0  0  0  0  0  0
   32.1872  -19.2956   49.6181 O   0  0  0  0  0  0  0  0  0  0  0  0
   31.7573  -18.2225   50.4285 C   0  0  0  0  0  0  0  0  0  0  0  0
   34.0231  -18.6412   54.0626 C   0  0  0  0  0  0  0  0  0  0  0  0
   34.7551  -18.9549   55.3435 C   0  0  0  0  0  0  0  0  0  0  0  0
   35.2350  -16.6688   53.7049 O   0  0  0  0  0  0  0  0  0  0  0  0
   33.8347  -16.1914   51.2406 C   0  0  0  0  0  0  0  0  0  0  0  0
   33.5416  -14.9833   51.6664 N   0  0  0  0  0  0  0  0  0  0  0  0
   33.8560  -13.7508   50.9352 C   0  0  0  0  0  0  0  0  0  0  0  0
   35.2798  -13.3771   50.5516 C   0  0  0  0  0  0  0  0  0  0  0  0
   35.5377  -13.1071   49.0950 C   0  0  0  0  0  0  0  0  0  0  0  0
   36.9285  -11.8952   49.1276 S   0  0  0  0  0  0  0  0  0  0  0  0
   36.4269  -10.7140   50.3683 C   0  0  0  0  0  0  0  0  0  0  0  0
   31.6405  -20.1405   52.2400 H   0  0  0  0  0  0  0  0  0  0  0  0
   30.6899  -18.3336   50.6702 H   0  0  0  0  0  0  0  0  0  0  0  0
   31.8835  -17.2599   49.9112 H   0  0  0  0  0  0  0  0  0  0  0  0
   34.1235  -18.6842   56.2025 H   0  0  0  0  0  0  0  0  0  0  0  0
   34.9840  -20.0302   55.3811 H   0  0  0  0  0  0  0  0  0  0  0  0
   35.6916  -18.3791   55.3811 H   0  0  0  0  0  0  0  0  0  0  0  0
   35.7242  -16.8539   54.5455 H   0  0  0  0  0  0  0  0  0  0  0  0
   34.2892  -16.3327   50.2489 H   0  0  0  0  0  0  0  0  0  0  0  0
   33.2870  -13.7980   49.9950 H   0  0  0  0  0  0  0  0  0  0  0  0
   33.6073  -12.9758   51.6752 H   0  0  0  0  0  0  0  0  0  0  0  0
   35.5485  -12.4692   51.1116 H   0  0  0  0  0  0  0  0  0  0  0  0
   35.8863  -14.2623   50.7934 H   0  0  0  0  0  0  0  0  0  0  0  0
   35.8298  -14.0281   48.5692 H   0  0  0  0  0  0  0  0  0  0  0  0
   34.6512  -12.7307   48.5635 H   0  0  0  0  0  0  0  0  0  0  0  0
   36.6056  -11.1348   51.3688 H   0  0  0  0  0  0  0  0  0  0  0  0
   37.0096   -9.7885   50.2504 H   0  0  0  0  0  0  0  0  0  0  0  0
   35.3562  -10.4907   50.2504 H   0  0  0  0  0  0  0  0  0  0  0  0
  1  2  2  0
  1  5  1  0
  1 15  1  0
  2  3  1  0
  2 11  1  0
  3  4  2  0
  4 12  1  0
  5 12  2  0
  5 14  1  0
  7  6  1  6
  7  8  1  0
  7  9  2  0
  7 10  1  0
 10 11  1  0
 12 13  1  0
 15 16  2  3
 16 17  1  0
 17 18  1  0
 18 19  1  0
 19 20  1  0
 20 21  1  0
  3 22  1  0
 11 23  1  0
 11 24  1  0
 13 25  1  0
 13 26  1  0
 13 27  1  0
 14 28  1  0
 15 29  1  0
 17 30  1  0
 17 31  1  0
 18 32  1  0
 18 33  1  0
 19 34  1  0
 19 35  1  0
 21 36  1  0
 21 37  1  0
 21 38  1  0
M  CHG  2   6  -1   8  -1
M  END
>  <filename_input>  (22) 
7CIJ_G0C_docked.sdf

>  <pdb_id>  (22) 
7CIJ_G0C

>  <pose_rank>  (22) 
21

>  <num_atoms_heavy>  (22) 
21

>  <num_torsions>  (22) 
8

>  <pose>  (22) 
[33.56422733618922, -17.303612233752435, 52.05956649826317, 4.045037364977345, -0.981705764847161, -2.049662636951151, -0.9252658090734514, -0.8980762408731282, -1.1314812099986233, 1.3442397372649355, -2.080137449049898, 0.7315640310996641, -1.2726161060867827, -2.1993681572682617]

>  <energy>  (22) 
-156.28826546382413

>  <inter_energy>  (22) 
-162.59338429372303

>  <intra_energy>  (22) 
4.171529412994401

>  <rmsd>  (22) 
12.4442

>  <sdf_rank>  (22) 
0

$$$$

     RDKit          3D

 38 38  0  0  0  0  0  0  0  0999 V2000
   20.0881   -4.3743   61.9395 C   0  0  0  0  0  0  0  0  0  0  0  0
   20.8432   -3.9584   63.0615 C   0  0  0  0  0  0  0  0  0  0  0  0
   20.3895   -4.2312   64.3548 C   0  0  0  0  0  0  0  0  0  0  0  0
   19.2423   -4.9006   64.5590 N   0  0  0  0  0  0  0  0  0  0  0  0
   18.8694   -5.0606   62.2152 C   0  0  0  0  0  0  0  0  0  0  0  0
   24.3450   -3.5428   64.1873 O   0  0  0  0  0  0  0  0  0  0  0  0
   23.6598   -2.5725   65.0087 P   0  0  2  0  0  0  0  0  0  0  0  0
   24.2347   -1.1942   65.0747 O   0  0  0  0  0  0  0  0  0  0  0  0
   23.2265   -3.0336   66.3355 O   0  0  0  0  0  0  0  0  0  0  0  0
   22.2701   -2.4351   64.1676 O   0  0  0  0  0  0  0  0  0  0  0  0
   22.1515   -3.1665   62.9659 C   0  0  0  0  0  0  0  0  0  0  0  0
   18.4756   -5.3344   63.5174 C   0  0  0  0  0  0  0  0  0  0  0  0
   17.1973   -6.0470   63.8823 C   0  0  0  0  0  0  0  0  0  0  0  0
   18.0671   -5.5129   61.2178 O   0  0  0  0  0  0  0  0  0  0  0  0
   20.4891   -4.0844   60.6219 C   0  0  0  0  0  0  0  0  0  0  0  0
   19.7175   -3.3485   59.8540 N   0  0  0  0  0  0  0  0  0  0  0  0
   20.0733   -2.9152   58.4982 C   0  0  0  0  0  0  0  0  0  0  0  0
   19.0208   -2.5940   57.4478 C   0  0  0  0  0  0  0  0  0  0  0  0
   19.2791   -3.1015   56.0561 C   0  0  0  0  0  0  0  0  0  0  0  0
   18.3305   -1.9287   54.9937 S   0  0  0  0  0  0  0  0  0  0  0  0
   16.7315   -2.7060   54.8346 C   0  0  0  0  0  0  0  0  0  0  0  0
   20.9804   -3.8928   65.2187 H   0  0  0  0  0  0  0  0  0  0  0  0
   23.0034   -3.8533   62.8542 H   0  0  0  0  0  0  0  0  0  0  0  0
   22.1464   -2.4968   62.0933 H   0  0  0  0  0  0  0  0  0  0  0  0
   17.1057   -6.0980   64.9773 H   0  0  0  0  0  0  0  0  0  0  0  0
   16.3396   -5.4968   63.4678 H   0  0  0  0  0  0  0  0  0  0  0  0
   17.2142   -7.0658   63.4678 H   0  0  0  0  0  0  0  0  0  0  0  0
   17.2257   -5.9867   61.4357 H   0  0  0  0  0  0  0  0  0  0  0  0
   21.4438   -4.4721   60.2368 H   0  0  0  0  0  0  0  0  0  0  0  0
   20.6777   -2.0037   58.6159 H   0  0  0  0  0  0  0  0  0  0  0  0
   20.5413   -3.8204   58.0839 H   0  0  0  0  0  0  0  0  0  0  0  0
   18.0677   -3.0250   57.7883 H   0  0  0  0  0  0  0  0  0  0  0  0
   19.0241   -1.4975   57.3610 H   0  0  0  0  0  0  0  0  0  0  0  0
   20.3525   -3.0692   55.8178 H   0  0  0  0  0  0  0  0  0  0  0  0
   18.9760   -4.1498   55.9171 H   0  0  0  0  0  0  0  0  0  0  0  0
   16.3199   -2.9060   55.8349 H   0  0  0  0  0  0  0  0  0  0  0  0
   16.0519   -2.0377   54.2854 H   0  0  0  0  0  0  0  0  0  0  0  0
   16.8372   -3.6532   54.2854 H   0  0  0  0  0  0  0  0  0  0  0  0
  1  2  2  0
  1  5  1  0
  1 15  1  0
  2  3  1  0
  2 11  1  0
  3  4  2  0
  4 12  1  0
  5 12  2  0
  5 14  1  0
  7  6  1  6
  7  8  1  0
  7  9  2  0
  7 10  1  0
 10 11  1  0
 12 13  1  0
 15 16  2  3
 16 17  1  0
 17 18  1  0
 18 19  1  0
 19 20  1  0
 20 21  1  0
  3 22  1  0
 11 23  1  0
 11 24  1  0
 13 25  1  0
 13 26  1  0
 13 27  1  0
 14 28  1  0
 15 29  1  0
 17 30  1  0
 17 31  1  0
 18 32  1  0
 18 33  1  0
 19 34  1  0
 19 35  1  0
 21 36  1  0
 21 37  1  0
 21 38  1  0
M  CHG  2   6  -1   8  -1
M  END
>  <filename_input>  (23) 
7CIJ_G0C_docked.sdf

>  <pdb_id>  (23) 
7CIJ_G0C

>  <pose_rank>  (23) 
22

>  <num_atoms_heavy>  (23) 
21

>  <num_torsions>  (23) 
8

>  <pose>  (23) 
[20.088077890346806, -4.374259970346189, 61.93948121857446, 1.2796599235899344, 2.059014354079154, -0.46287882493848564, 1.306634123809918, 2.8106908651146467, 0.5732444179192188, 2.3004797559661565, -2.8704037123694888, 1.4599951688529023, -7.664358927810804, -3.1443832287322486]

>  <energy>  (23) 
-178.88817634598036

>  <inter_energy>  (23) 
-180.19319671482276

>  <intra_energy>  (23) 
8.503467964560352

>  <rmsd>  (23) 
12.2989

>  <sdf_rank>  (23) 
0

$$$$

     RDKit          3D

 38 38  0  0  0  0  0  0  0  0999 V2000
   18.8465  -15.0542   65.2030 C   0  0  0  0  0  0  0  0  0  0  0  0
   18.8372  -15.7209   63.9550 C   0  0  0  0  0  0  0  0  0  0  0  0
   18.1746  -15.1571   62.8614 C   0  0  0  0  0  0  0  0  0  0  0  0
   17.5484  -13.9728   62.9670 N   0  0  0  0  0  0  0  0  0  0  0  0
   18.1481  -13.8129   65.2633 C   0  0  0  0  0  0  0  0  0  0  0  0
   19.0507  -20.2482   64.8103 O   0  0  0  0  0  0  0  0  0  0  0  0
   18.7538  -19.5832   63.5632 P   0  0  2  0  0  0  0  0  0  0  0  0
   17.4777  -19.9455   62.8740 O   0  0  0  0  0  0  0  0  0  0  0  0
   19.8635  -19.4706   62.6058 O   0  0  0  0  0  0  0  0  0  0  0  0
   18.5487  -18.0604   64.1076 O   0  0  0  0  0  0  0  0  0  0  0  0
   19.4892  -17.0856   63.7097 C   0  0  0  0  0  0  0  0  0  0  0  0
   17.5300  -13.2789   64.1414 C   0  0  0  0  0  0  0  0  0  0  0  0
   16.7676  -11.9775   64.1347 C   0  0  0  0  0  0  0  0  0  0  0  0
   18.0961  -13.0814   66.4058 O   0  0  0  0  0  0  0  0  0  0  0  0
   19.4674  -15.6066   66.3389 C   0  0  0  0  0  0  0  0  0  0  0  0
   20.7490  -15.4017   66.5441 N   0  0  0  0  0  0  0  0  0  0  0  0
   21.4783  -15.8566   67.7331 C   0  0  0  0  0  0  0  0  0  0  0  0
   22.1891  -17.2006   67.7827 C   0  0  0  0  0  0  0  0  0  0  0  0
   21.3986  -18.3992   67.3359 C   0  0  0  0  0  0  0  0  0  0  0  0
   22.5579  -19.2714   66.1959 S   0  0  0  0  0  0  0  0  0  0  0  0
   23.7325  -18.0059   65.7430 C   0  0  0  0  0  0  0  0  0  0  0  0
   18.1656  -15.6908   61.8996 H   0  0  0  0  0  0  0  0  0  0  0  0
   19.7307  -17.2045   62.6431 H   0  0  0  0  0  0  0  0  0  0  0  0
   20.4266  -17.1846   64.2767 H   0  0  0  0  0  0  0  0  0  0  0  0
   16.5799  -11.6571   65.1702 H   0  0  0  0  0  0  0  0  0  0  0  0
   17.3583  -11.2091   63.6145 H   0  0  0  0  0  0  0  0  0  0  0  0
   15.8084  -12.1171   63.6145 H   0  0  0  0  0  0  0  0  0  0  0  0
   17.6044  -12.2223   66.4216 H   0  0  0  0  0  0  0  0  0  0  0  0
   18.8826  -16.2070   67.0514 H   0  0  0  0  0  0  0  0  0  0  0  0
   22.2470  -15.0952   67.9317 H   0  0  0  0  0  0  0  0  0  0  0  0
   20.6648  -16.0008   68.4594 H   0  0  0  0  0  0  0  0  0  0  0  0
   23.0798  -17.1306   67.1410 H   0  0  0  0  0  0  0  0  0  0  0  0
   22.4027  -17.3756   68.8475 H   0  0  0  0  0  0  0  0  0  0  0  0
   21.1329  -19.0373   68.1916 H   0  0  0  0  0  0  0  0  0  0  0  0
   20.4447  -18.1318   66.8579 H   0  0  0  0  0  0  0  0  0  0  0  0
   24.1527  -17.5531   66.6531 H   0  0  0  0  0  0  0  0  0  0  0  0
   24.5425  -18.4533   65.1484 H   0  0  0  0  0  0  0  0  0  0  0  0
   23.2260  -17.2313   65.1484 H   0  0  0  0  0  0  0  0  0  0  0  0
  1  2  2  0
  1  5  1  0
  1 15  1  0
  2  3  1  0
  2 11  1  0
  3  4  2  0
  4 12  1  0
  5 12  2  0
  5 14  1  0
  7  6  1  1
  7  8  1  0
  7  9  2  0
  7 10  1  0
 10 11  1  0
 12 13  1  0
 15 16  2  3
 16 17  1  0
 17 18  1  0
 18 19  1  0
 19 20  1  0
 20 21  1  0
  3 22  1  0
 11 23  1  0
 11 24  1  0
 13 25  1  0
 13 26  1  0
 13 27  1  0
 14 28  1  0
 15 29  1  0
 17 30  1  0
 17 31  1  0
 18 32  1  0
 18 33  1  0
 19 34  1  0
 19 35  1  0
 21 36  1  0
 21 37  1  0
 21 38  1  0
M  CHG  2   6  -1   8  -1
M  END
>  <filename_input>  (24) 
7CIJ_G0C_docked.sdf

>  <pdb_id>  (24) 
7CIJ_G0C

>  <pose_rank>  (24) 
23

>  <num_atoms_heavy>  (24) 
21

>  <num_torsions>  (24) 
8

>  <pose>  (24) 
[18.846477147359785, -15.054166704156332, 65.20301173374197, -1.367846138176222, 0.0018985786834134792, -2.1977552546131407, -1.400844794929264, 1.7284914165876144, 2.1153511218051677, 1.0250747604185073, -1.6232182879676074, 0.25038417658891815, -0.7846671107060096, -1.11678854449822]

>  <energy>  (24) 
-172.7281694976927

>  <inter_energy>  (24) 
-164.98508918627297

>  <intra_energy>  (24) 
4.000019242658782

>  <rmsd>  (24) 
12.2478

>  <sdf_rank>  (24) 
0

$$$$

     RDKit          3D

 38 38  0  0  0  0  0  0  0  0999 V2000
   19.7906  -18.2670   63.9523 C   0  0  0  0  0  0  0  0  0  0  0  0
   20.4385  -18.3001   65.2098 C   0  0  0  0  0  0  0  0  0  0  0  0
   20.0408  -19.2218   66.1819 C   0  0  0  0  0  0  0  0  0  0  0  0
   19.0513  -20.0984   65.9407 N   0  0  0  0  0  0  0  0  0  0  0  0
   18.7340  -19.2044   63.7594 C   0  0  0  0  0  0  0  0  0  0  0  0
   23.4157  -18.0483   67.2533 O   0  0  0  0  0  0  0  0  0  0  0  0
   23.8529  -18.5334   65.9653 P   0  0  2  0  0  0  0  0  0  0  0  0
   23.7313  -19.9999   65.7018 O   0  0  0  0  0  0  0  0  0  0  0  0
   25.1345  -18.0078   65.4731 O   0  0  0  0  0  0  0  0  0  0  0  0
   22.7422  -17.8164   65.0116 O   0  0  0  0  0  0  0  0  0  0  0  0
   21.5603  -17.3399   65.6192 C   0  0  0  0  0  0  0  0  0  0  0  0
   18.3950  -20.1207   64.7449 C   0  0  0  0  0  0  0  0  0  0  0  0
   17.2848  -21.1331   64.6127 C   0  0  0  0  0  0  0  0  0  0  0  0
   18.0464  -19.2696   62.5906 O   0  0  0  0  0  0  0  0  0  0  0  0
   20.1335  -17.3284   62.9612 C   0  0  0  0  0  0  0  0  0  0  0  0
   21.0511  -17.6291   62.0701 N   0  0  0  0  0  0  0  0  0  0  0  0
   21.4258  -16.7639   60.9460 C   0  0  0  0  0  0  0  0  0  0  0  0
   21.4832  -17.2749   59.5143 C   0  0  0  0  0  0  0  0  0  0  0  0
   21.5884  -16.2375   58.4309 C   0  0  0  0  0  0  0  0  0  0  0  0
   22.2245  -17.1942   56.9872 S   0  0  0  0  0  0  0  0  0  0  0  0
   23.4124  -16.0894   56.2424 C   0  0  0  0  0  0  0  0  0  0  0  0
   20.5453  -19.2298   67.1593 H   0  0  0  0  0  0  0  0  0  0  0  0
   21.3362  -16.3223   65.2666 H   0  0  0  0  0  0  0  0  0  0  0  0
   21.6663  -17.2979   66.7133 H   0  0  0  0  0  0  0  0  0  0  0  0
   16.9477  -21.4404   65.6137 H   0  0  0  0  0  0  0  0  0  0  0  0
   16.4433  -20.6849   64.0641 H   0  0  0  0  0  0  0  0  0  0  0  0
   17.6536  -22.0122   64.0641 H   0  0  0  0  0  0  0  0  0  0  0  0
   17.3167  -19.9297   62.4818 H   0  0  0  0  0  0  0  0  0  0  0  0
   19.6357  -16.3478   62.9328 H   0  0  0  0  0  0  0  0  0  0  0  0
   20.7067  -15.9315   60.9462 H   0  0  0  0  0  0  0  0  0  0  0  0
   22.4854  -16.5586   61.1584 H   0  0  0  0  0  0  0  0  0  0  0  0
   22.3596  -17.9343   59.4306 H   0  0  0  0  0  0  0  0  0  0  0  0
   20.5165  -17.7721   59.3458 H   0  0  0  0  0  0  0  0  0  0  0  0
   20.6047  -15.7977   58.2096 H   0  0  0  0  0  0  0  0  0  0  0  0
   22.2360  -15.3919   58.7061 H   0  0  0  0  0  0  0  0  0  0  0  0
   23.9733  -15.5678   57.0318 H   0  0  0  0  0  0  0  0  0  0  0  0
   24.1096  -16.6675   55.6181 H   0  0  0  0  0  0  0  0  0  0  0  0
   22.8863  -15.3522   55.6181 H   0  0  0  0  0  0  0  0  0  0  0  0
  1  2  2  0
  1  5  1  0
  1 15  1  0
  2  3  1  0
  2 11  1  0
  3  4  2  0
  4 12  1  0
  5 12  2  0
  5 14  1  0
  7  6  1  1
  7  8  1  0
  7  9  2  0
  7 10  1  0
 10 11  1  0
 12 13  1  0
 15 16  2  3
 16 17  1  0
 17 18  1  0
 18 19  1  0
 19 20  1  0
 20 21  1  0
  3 22  1  0
 11 23  1  0
 11 24  1  0
 13 25  1  0
 13 26  1  0
 13 27  1  0
 14 28  1  0
 15 29  1  0
 17 30  1  0
 17 31  1  0
 18 32  1  0
 18 33  1  0
 19 34  1  0
 19 35  1  0
 21 36  1  0
 21 37  1  0
 21 38  1  0
M  CHG  2   6  -1   8  -1
M  END
>  <filename_input>  (25) 
7CIJ_G0C_docked.sdf

>  <pdb_id>  (25) 
7CIJ_G0C

>  <pose_rank>  (25) 
24

>  <num_atoms_heavy>  (25) 
21

>  <num_torsions>  (25) 
8

>  <pose>  (25) 
[19.79055683177904, -18.26703047082223, 63.952347097012826, -1.7927897414302596, -3.145090405200878, -0.2385604854683259, -1.319414865123266, 4.153595100631387, -0.39000798097001804, 1.5153274306560158, 2.5702120592724285, -2.6009357450673605, 0.8077246572448928, 2.873413506247059]

>  <energy>  (25) 
-124.9441498495887

>  <inter_energy>  (25) 
-116.5064769279063

>  <intra_energy>  (25) 
2.922642874284417

>  <rmsd>  (25) 
11.7101

>  <sdf_rank>  (25) 
0

$$$$

     RDKit          3D

 38 38  0  0  0  0  0  0  0  0999 V2000
   25.5590  -12.1840   57.7660 C   0  0  0  0  0  0  0  0  0  0  0  0
   24.8240  -11.2730   56.9710 C   0  0  0  0  0  0  0  0  0  0  0  0
   23.8860  -11.7430   56.0480 C   0  0  0  0  0  0  0  0  0  0  0  0
   23.6540  -13.0590   55.9060 N   0  0  0  0  0  0  0  0  0  0  0  0
   25.2880  -13.5680   57.5580 C   0  0  0  0  0  0  0  0  0  0  0  0
   28.2750   -8.2820   56.1600 O   0  0  0  0  0  0  0  0  0  0  0  0
   27.0530   -8.1330   56.9150 P   0  0  2  0  0  0  0  0  0  0  0  0
   26.1530   -6.9950   56.5550 O   0  0  0  0  0  0  0  0  0  0  0  0
   27.1670   -8.2820   58.3730 O   0  0  0  0  0  0  0  0  0  0  0  0
   26.2730   -9.4840   56.4420 O   0  0  0  0  0  0  0  0  0  0  0  0
   25.0120   -9.7530   57.0170 C   0  0  0  0  0  0  0  0  0  0  0  0
   24.3250  -13.9850   56.6500 C   0  0  0  0  0  0  0  0  0  0  0  0
   23.9930  -15.4300   56.3730 C   0  0  0  0  0  0  0  0  0  0  0  0
   25.9270  -14.5320   58.2690 O   0  0  0  0  0  0  0  0  0  0  0  0
   26.5410  -11.7540   58.6780 C   0  0  0  0  0  0  0  0  0  0  0  0
   27.0100  -12.5940   59.5730 N   0  0  0  0  0  0  0  0  0  0  0  0
   28.0910  -12.2800   60.5140 C   0  0  0  0  0  0  0  0  0  0  0  0
   28.8850  -10.9850   60.4330 C   0  0  0  0  0  0  0  0  0  0  0  0
   30.1030  -10.8840   61.3090 C   0  0  0  0  0  0  0  0  0  0  0  0
   31.3220  -11.9860   60.4700 S   0  0  0  0  0  0  0  0  0  0  0  0
   31.8010  -11.0570   59.0230 C   0  0  0  0  0  0  0  0  0  0  0  0
   23.3291  -11.0248   55.4283 H   0  0  0  0  0  0  0  0  0  0  0  0
   24.2183   -9.2550   56.4408 H   0  0  0  0  0  0  0  0  0  0  0  0
   24.9594   -9.3783   58.0499 H   0  0  0  0  0  0  0  0  0  0  0  0
   23.8696  -15.9669   57.3251 H   0  0  0  0  0  0  0  0  0  0  0  0
   23.0583  -15.4874   55.7959 H   0  0  0  0  0  0  0  0  0  0  0  0
   24.8090  -15.8896   55.7959 H   0  0  0  0  0  0  0  0  0  0  0  0
   25.7208  -15.4864   58.1055 H   0  0  0  0  0  0  0  0  0  0  0  0
   26.9140  -10.7198   58.6417 H   0  0  0  0  0  0  0  0  0  0  0  0
   27.6406  -12.3017   61.5173 H   0  0  0  0  0  0  0  0  0  0  0  0
   28.8501  -13.0309   60.2495 H   0  0  0  0  0  0  0  0  0  0  0  0
   29.2128  -10.8596   59.3905 H   0  0  0  0  0  0  0  0  0  0  0  0
   28.2016  -10.2035   60.7967 H   0  0  0  0  0  0  0  0  0  0  0  0
   30.4724   -9.8488   61.3524 H   0  0  0  0  0  0  0  0  0  0  0  0
   29.9081  -11.1733   62.3522 H   0  0  0  0  0  0  0  0  0  0  0  0
   32.2847  -10.1189   59.3330 H   0  0  0  0  0  0  0  0  0  0  0  0
   32.5050  -11.6514   58.4221 H   0  0  0  0  0  0  0  0  0  0  0  0
   30.9085  -10.8282   58.4221 H   0  0  0  0  0  0  0  0  0  0  0  0
  1  2  2  0
  1  5  1  0
  1 15  1  0
  2  3  1  0
  2 11  1  0
  3  4  2  0
  4 12  1  0
  5 12  2  0
  5 14  1  0
  7  6  1  6
  7  8  1  0
  7  9  2  0
  7 10  1  0
 10 11  1  0
 12 13  1  0
 15 16  2  3
 16 17  1  0
 17 18  1  0
 18 19  1  0
 19 20  1  0
 20 21  1  0
  3 22  1  0
 11 23  1  0
 11 24  1  0
 13 25  1  0
 13 26  1  0
 13 27  1  0
 14 28  1  0
 15 29  1  0
 17 30  1  0
 17 31  1  0
 18 32  1  0
 18 33  1  0
 19 34  1  0
 19 35  1  0
 21 36  1  0
 21 37  1  0
 21 38  1  0
M  CHG  2   6  -1   8  -1
M  END
>  <filename_input>  (26) 
7CIJ_G0C_docked.sdf

>  <pdb_id>  (26) 
7CIJ_G0C

>  <pose_rank>  (26) 
25

>  <num_atoms_heavy>  (26) 
21

>  <num_torsions>  (26) 
8

>  <pose>  (26) 
[25.559, -12.184, 57.766, 1e-06, 1e-06, 1e-06, 0.0, 0.0, 0.0, 0.0, 0.0, 0.0, 0.0, 0.0]

>  <energy>  (26) 
-907.2292184538385

>  <inter_energy>  (26) 
-934.2000928992571

>  <intra_energy>  (26) 
30.64721420431223

>  <rmsd>  (26) 
0.0

>  <sdf_rank>  (26) 
0

$$$$
