
     RDKit          3D

 49 52  0  0  0  0  0  0  0  0999 V2000
   14.9939   -4.8870  -24.2512 C   0  0  0  0  0  0  0  0  0  0  0  0
   13.7123   -4.5792  -23.4704 C   0  0  0  0  0  0  0  0  0  0  0  0
   13.3530   -5.6338  -22.5034 C   0  0  0  0  0  0  0  0  0  0  0  0
   12.1953   -5.7433  -22.1277 O   0  0  0  0  0  0  0  0  0  0  0  0
   14.4126   -6.5260  -22.1022 C   0  0  0  0  0  0  0  0  0  0  0  0
   15.7076   -6.3769  -22.3913 C   0  0  0  0  0  0  0  0  0  0  0  0
   16.7451   -7.2161  -21.6904 C   0  0  0  0  0  0  0  0  0  0  0  0
   17.7530   -7.8126  -22.6675 C   0  0  0  0  0  0  0  0  0  0  0  0
   18.3804   -6.6963  -23.4886 C   0  0  2  0  0  0  0  0  0  0  0  0
   17.3201   -5.9242  -24.2926 C   0  0  1  0  0  0  0  0  0  0  0  0
   16.1902   -5.3270  -23.3894 C   0  0  1  0  0  0  0  0  0  0  0  0
   17.9716   -4.8870  -25.2178 C   0  0  0  0  0  0  0  0  0  0  0  0
   19.0783   -5.4755  -26.0886 C   0  0  0  0  0  0  0  0  0  0  0  0
   20.1386   -6.1867  -25.2898 C   0  0  1  0  0  0  0  0  0  0  0  0
   19.4003   -7.2599  -24.4676 C   0  0  1  0  0  0  0  0  0  0  0  0
   20.5354   -8.1582  -23.9682 C   0  0  0  0  0  0  0  0  0  0  0  0
   21.5687   -8.1560  -25.1159 C   0  0  0  0  0  0  0  0  0  0  0  0
   21.0765   -7.1046  -26.1335 C   0  0  2  0  0  0  0  0  0  0  0  0
   22.2011   -6.4633  -26.7721 O   0  0  0  0  0  0  0  0  0  0  0  0
   20.9985   -5.1910  -24.5177 C   0  0  0  0  0  0  0  0  0  0  0  0
   16.6889   -4.1447  -22.5565 C   0  0  0  0  0  0  0  0  0  0  0  0
   14.7728   -5.6937  -24.9656 H   0  0  0  0  0  0  0  0  0  0  0  0
   15.2930   -3.9454  -24.7349 H   0  0  0  0  0  0  0  0  0  0  0  0
   13.8550   -3.6363  -22.9222 H   0  0  0  0  0  0  0  0  0  0  0  0
   12.8926   -4.5127  -24.2009 H   0  0  0  0  0  0  0  0  0  0  0  0
   14.1292   -7.4060  -21.5061 H   0  0  0  0  0  0  0  0  0  0  0  0
   17.2824   -6.5853  -20.9669 H   0  0  0  0  0  0  0  0  0  0  0  0
   16.2275   -8.0461  -21.1874 H   0  0  0  0  0  0  0  0  0  0  0  0
   18.5379   -8.3423  -22.1077 H   0  0  0  0  0  0  0  0  0  0  0  0
   17.2419   -8.5196  -23.3375 H   0  0  0  0  0  0  0  0  0  0  0  0
   18.8697   -6.0133  -22.7786 H   0  0  0  0  0  0  0  0  0  0  0  0
   16.8084   -6.6498  -24.9419 H   0  0  0  0  0  0  0  0  0  0  0  0
   17.1955   -4.4665  -25.8742 H   0  0  0  0  0  0  0  0  0  0  0  0
   18.4300   -4.1182  -24.5785 H   0  0  0  0  0  0  0  0  0  0  0  0
   18.6282   -6.1926  -26.7908 H   0  0  0  0  0  0  0  0  0  0  0  0
   19.5654   -4.6396  -26.6121 H   0  0  0  0  0  0  0  0  0  0  0  0
   18.6884   -7.8811  -25.0310 H   0  0  0  0  0  0  0  0  0  0  0  0
   20.9772   -7.7497  -23.0474 H   0  0  0  0  0  0  0  0  0  0  0  0
   20.1872   -9.1723  -23.7228 H   0  0  0  0  0  0  0  0  0  0  0  0
   22.5630   -7.8812  -24.7339 H   0  0  0  0  0  0  0  0  0  0  0  0
   21.6587   -9.1504  -25.5774 H   0  0  0  0  0  0  0  0  0  0  0  0
   20.5141   -7.5026  -26.9911 H   0  0  0  0  0  0  0  0  0  0  0  0
   22.8168   -6.1121  -26.0810 H   0  0  0  0  0  0  0  0  0  0  0  0
   20.8622   -5.3489  -23.4377 H   0  0  0  0  0  0  0  0  0  0  0  0
   22.0565   -5.3400  -24.7794 H   0  0  0  0  0  0  0  0  0  0  0  0
   20.6970   -4.1660  -24.7794 H   0  0  0  0  0  0  0  0  0  0  0  0
   16.5890   -4.3815  -21.4870 H   0  0  0  0  0  0  0  0  0  0  0  0
   17.7457   -3.9502  -22.7919 H   0  0  0  0  0  0  0  0  0  0  0  0
   16.0906   -3.2521  -22.7919 H   0  0  0  0  0  0  0  0  0  0  0  0
  1  2  1  0
  1 11  1  0
  2  3  1  0
  3  4  2  0
  3  5  1  0
  5  6  2  0
  6  7  1  0
  6 11  1  0
  7  8  1  0
  9  8  1  0
  9 10  1  0
  9 15  1  0
 10 11  1  0
 10 12  1  0
 11 21  1  1
 12 13  1  0
 13 14  1  0
 14 15  1  0
 14 18  1  0
 14 20  1  1
 15 16  1  0
 16 17  1  0
 17 18  1  0
 18 19  1  0
  1 22  1  0
  1 23  1  0
  2 24  1  0
  2 25  1  0
  5 26  1  0
  7 27  1  0
  7 28  1  0
  8 29  1  0
  8 30  1  0
  9 31  1  1
 10 32  1  6
 12 33  1  0
 12 34  1  0
 13 35  1  0
 13 36  1  0
 15 37  1  6
 16 38  1  0
 16 39  1  0
 17 40  1  0
 17 41  1  0
 18 42  1  6
 19 43  1  0
 20 44  1  0
 20 45  1  0
 20 46  1  0
 21 47  1  0
 21 48  1  0
 21 49  1  0
M  END
>  <filename_input>  (1) 
7CL8_TES_docked.sdf

>  <pdb_id>  (1) 
7CL8_TES

>  <pose_rank>  (1) 
0

>  <num_atoms_heavy>  (1) 
21

>  <num_torsions>  (1) 
0

>  <pose>  (1) 
[14.993867359299655, -4.887007843563947, -24.2512466291234, 3.7807962208532597, -4.971951507796689, 0.22567848344780758]

>  <energy>  (1) 
-872.8212750509442

>  <inter_energy>  (1) 
-847.3597056477972

>  <intra_energy>  (1) 
0.0

>  <rmsd>  (1) 
0.258763

>  <sdf_rank>  (1) 
0

$$$$

     RDKit          3D

 49 52  0  0  0  0  0  0  0  0999 V2000
   16.1610   -6.3467  -21.9618 C   0  0  0  0  0  0  0  0  0  0  0  0
   14.6702   -6.3174  -21.6107 C   0  0  0  0  0  0  0  0  0  0  0  0
   13.9251   -5.2630  -22.3246 C   0  0  0  0  0  0  0  0  0  0  0  0
   12.8724   -4.8467  -21.8643 O   0  0  0  0  0  0  0  0  0  0  0  0
   14.5387   -4.7398  -23.5201 C   0  0  0  0  0  0  0  0  0  0  0  0
   15.6208   -5.2387  -24.1227 C   0  0  0  0  0  0  0  0  0  0  0  0
   16.0020   -4.7774  -25.5061 C   0  0  0  0  0  0  0  0  0  0  0  0
   17.4861   -4.4403  -25.6074 C   0  0  0  0  0  0  0  0  0  0  0  0
   18.3071   -5.6395  -25.1584 C   0  0  2  0  0  0  0  0  0  0  0  0
   17.9928   -6.0240  -23.7023 C   0  0  1  0  0  0  0  0  0  0  0  0
   16.4745   -6.3222  -23.4681 C   0  0  1  0  0  0  0  0  0  0  0  0
   18.9164   -7.1484  -23.2134 C   0  0  0  0  0  0  0  0  0  0  0  0
   20.3945   -6.8537  -23.4537 C   0  0  0  0  0  0  0  0  0  0  0  0
   20.7021   -6.5271  -24.8913 C   0  0  1  0  0  0  0  0  0  0  0  0
   19.7954   -5.3372  -25.2582 C   0  0  1  0  0  0  0  0  0  0  0  0
   20.3948   -4.8357  -26.5751 C   0  0  0  0  0  0  0  0  0  0  0  0
   21.9143   -5.0679  -26.4260 C   0  0  0  0  0  0  0  0  0  0  0  0
   22.0988   -5.8705  -25.1202 C   0  0  2  0  0  0  0  0  0  0  0  0
   23.2212   -6.7700  -25.2417 O   0  0  0  0  0  0  0  0  0  0  0  0
   20.6007   -7.7724  -25.7665 C   0  0  0  0  0  0  0  0  0  0  0  0
   16.0466   -7.6452  -24.1059 C   0  0  0  0  0  0  0  0  0  0  0  0
   16.6378   -5.4697  -21.4997 H   0  0  0  0  0  0  0  0  0  0  0  0
   16.5476   -7.3042  -21.5827 H   0  0  0  0  0  0  0  0  0  0  0  0
   14.2309   -7.2921  -21.8695 H   0  0  0  0  0  0  0  0  0  0  0  0
   14.5921   -6.1012  -20.5349 H   0  0  0  0  0  0  0  0  0  0  0  0
   14.0748   -3.8523  -23.9754 H   0  0  0  0  0  0  0  0  0  0  0  0
   15.7699   -5.5780  -26.2239 H   0  0  0  0  0  0  0  0  0  0  0  0
   15.4303   -3.8646  -25.7294 H   0  0  0  0  0  0  0  0  0  0  0  0
   17.7362   -4.1936  -26.6498 H   0  0  0  0  0  0  0  0  0  0  0  0
   17.7122   -3.5776  -24.9636 H   0  0  0  0  0  0  0  0  0  0  0  0
   18.0420   -6.4753  -25.8225 H   0  0  0  0  0  0  0  0  0  0  0  0
   18.2074   -5.1445  -23.0774 H   0  0  0  0  0  0  0  0  0  0  0  0
   18.7578   -7.2876  -22.1338 H   0  0  0  0  0  0  0  0  0  0  0  0
   18.6642   -8.0532  -23.7859 H   0  0  0  0  0  0  0  0  0  0  0  0
   20.6874   -5.9970  -22.8289 H   0  0  0  0  0  0  0  0  0  0  0  0
   20.9580   -7.7621  -23.1943 H   0  0  0  0  0  0  0  0  0  0  0  0
   19.7926   -4.5049  -24.5390 H   0  0  0  0  0  0  0  0  0  0  0  0
   19.9962   -5.4080  -27.4258 H   0  0  0  0  0  0  0  0  0  0  0  0
   20.1514   -3.7806  -26.7687 H   0  0  0  0  0  0  0  0  0  0  0  0
   22.2989   -5.6399  -27.2832 H   0  0  0  0  0  0  0  0  0  0  0  0
   22.4649   -4.1162  -26.3938 H   0  0  0  0  0  0  0  0  0  0  0  0
   22.3672   -5.2773  -24.2336 H   0  0  0  0  0  0  0  0  0  0  0  0
   23.5391   -7.0248  -24.3394 H   0  0  0  0  0  0  0  0  0  0  0  0
   20.5281   -8.6648  -25.1274 H   0  0  0  0  0  0  0  0  0  0  0  0
   19.7053   -7.7023  -26.4016 H   0  0  0  0  0  0  0  0  0  0  0  0
   21.4957   -7.8481  -26.4016 H   0  0  0  0  0  0  0  0  0  0  0  0
   15.8110   -8.3737  -23.3161 H   0  0  0  0  0  0  0  0  0  0  0  0
   15.1560   -7.4803  -24.7301 H   0  0  0  0  0  0  0  0  0  0  0  0
   16.8652   -8.0330  -24.7301 H   0  0  0  0  0  0  0  0  0  0  0  0
  1  2  1  0
  1 11  1  0
  2  3  1  0
  3  4  2  0
  3  5  1  0
  5  6  2  0
  6  7  1  0
  6 11  1  0
  7  8  1  0
  9  8  1  0
  9 10  1  0
  9 15  1  0
 10 11  1  0
 10 12  1  0
 11 21  1  6
 12 13  1  0
 13 14  1  0
 14 15  1  0
 14 18  1  0
 14 20  1  6
 15 16  1  0
 16 17  1  0
 17 18  1  0
 18 19  1  0
  1 22  1  0
  1 23  1  0
  2 24  1  0
  2 25  1  0
  5 26  1  0
  7 27  1  0
  7 28  1  0
  8 29  1  0
  8 30  1  0
  9 31  1  6
 10 32  1  1
 12 33  1  0
 12 34  1  0
 13 35  1  0
 13 36  1  0
 15 37  1  1
 16 38  1  0
 16 39  1  0
 17 40  1  0
 17 41  1  0
 18 42  1  1
 19 43  1  0
 20 44  1  0
 20 45  1  0
 20 46  1  0
 21 47  1  0
 21 48  1  0
 21 49  1  0
M  END
>  <filename_input>  (2) 
7CL8_TES_docked.sdf

>  <pdb_id>  (2) 
7CL8_TES

>  <pose_rank>  (2) 
1

>  <num_atoms_heavy>  (2) 
21

>  <num_torsions>  (2) 
0

>  <pose>  (2) 
[16.161037028564262, -6.346654640039159, -21.961841330832982, 2.738410658732031, -0.3535316728703487, -1.0569183847606956]

>  <energy>  (2) 
-750.9199099665053

>  <inter_energy>  (2) 
-748.3821243010328

>  <intra_energy>  (2) 
0.0

>  <rmsd>  (2) 
2.72901

>  <sdf_rank>  (2) 
0

$$$$

     RDKit          3D

 49 52  0  0  0  0  0  0  0  0999 V2000
   20.0843   -8.4164  -23.8804 C   0  0  0  0  0  0  0  0  0  0  0  0
   21.4727   -8.9150  -24.2936 C   0  0  0  0  0  0  0  0  0  0  0  0
   21.8409   -8.5354  -25.6708 C   0  0  0  0  0  0  0  0  0  0  0  0
   22.6852   -9.1819  -26.2730 O   0  0  0  0  0  0  0  0  0  0  0  0
   21.1150   -7.4316  -26.2490 C   0  0  0  0  0  0  0  0  0  0  0  0
   20.2736   -6.6256  -25.5967 C   0  0  0  0  0  0  0  0  0  0  0  0
   19.7916   -5.3495  -26.2378 C   0  0  0  0  0  0  0  0  0  0  0  0
   18.2824   -5.1759  -26.1013 C   0  0  0  0  0  0  0  0  0  0  0  0
   17.8965   -5.2586  -24.6322 C   0  0  2  0  0  0  0  0  0  0  0  0
   18.2884   -6.6156  -24.0224 C   0  0  1  0  0  0  0  0  0  0  0  0
   19.8139   -6.9301  -24.1729 C   0  0  1  0  0  0  0  0  0  0  0  0
   17.7801   -6.7432  -22.5796 C   0  0  0  0  0  0  0  0  0  0  0  0
   16.2937   -6.4261  -22.4401 C   0  0  0  0  0  0  0  0  0  0  0  0
   15.9270   -5.0747  -22.9945 C   0  0  1  0  0  0  0  0  0  0  0  0
   16.3949   -5.0782  -24.4620 C   0  0  1  0  0  0  0  0  0  0  0  0
   15.6923   -3.8534  -25.0545 C   0  0  0  0  0  0  0  0  0  0  0  0
   14.3333   -3.7913  -24.3236 C   0  0  0  0  0  0  0  0  0  0  0  0
   14.3970   -4.8580  -23.2095 C   0  0  2  0  0  0  0  0  0  0  0  0
   13.6400   -4.4243  -22.0594 O   0  0  0  0  0  0  0  0  0  0  0  0
   16.4556   -3.9574  -22.1003 C   0  0  0  0  0  0  0  0  0  0  0  0
   20.6710   -6.0588  -23.2528 C   0  0  0  0  0  0  0  0  0  0  0  0
   19.3332   -9.0125  -24.4194 H   0  0  0  0  0  0  0  0  0  0  0  0
   20.0295   -8.5298  -22.7876 H   0  0  0  0  0  0  0  0  0  0  0  0
   22.2164   -8.4902  -23.6033 H   0  0  0  0  0  0  0  0  0  0  0  0
   21.4507  -10.0140  -24.2525 H   0  0  0  0  0  0  0  0  0  0  0  0
   21.2677   -7.2366  -27.3208 H   0  0  0  0  0  0  0  0  0  0  0  0
   20.2922   -4.4979  -25.7540 H   0  0  0  0  0  0  0  0  0  0  0  0
   20.0325   -5.3960  -27.3101 H   0  0  0  0  0  0  0  0  0  0  0  0
   17.9876   -4.1955  -26.5037 H   0  0  0  0  0  0  0  0  0  0  0  0
   17.7684   -5.9704  -26.6620 H   0  0  0  0  0  0  0  0  0  0  0  0
   18.4388   -4.4544  -24.1134 H   0  0  0  0  0  0  0  0  0  0  0  0
   17.7801   -7.3967  -24.6068 H   0  0  0  0  0  0  0  0  0  0  0  0
   17.9520   -7.7745  -22.2375 H   0  0  0  0  0  0  0  0  0  0  0  0
   18.3310   -6.0111  -21.9710 H   0  0  0  0  0  0  0  0  0  0  0  0
   15.7191   -7.1939  -22.9789 H   0  0  0  0  0  0  0  0  0  0  0  0
   16.0583   -6.4164  -21.3656 H   0  0  0  0  0  0  0  0  0  0  0  0
   16.1052   -5.9622  -25.0490 H   0  0  0  0  0  0  0  0  0  0  0  0
   16.2770   -2.9411  -24.8652 H   0  0  0  0  0  0  0  0  0  0  0  0
   15.5757   -3.9271  -26.1458 H   0  0  0  0  0  0  0  0  0  0  0  0
   14.1795   -2.7930  -23.8879 H   0  0  0  0  0  0  0  0  0  0  0  0
   13.4972   -3.9798  -25.0131 H   0  0  0  0  0  0  0  0  0  0  0  0
   13.9272   -5.8230  -23.4504 H   0  0  0  0  0  0  0  0  0  0  0  0
   14.1122   -4.6948  -21.2324 H   0  0  0  0  0  0  0  0  0  0  0  0
   16.3226   -4.2384  -21.0451 H   0  0  0  0  0  0  0  0  0  0  0  0
   17.5245   -3.7983  -22.3055 H   0  0  0  0  0  0  0  0  0  0  0  0
   15.9007   -3.0301  -22.3055 H   0  0  0  0  0  0  0  0  0  0  0  0
   20.4390   -6.2946  -22.2038 H   0  0  0  0  0  0  0  0  0  0  0  0
   21.7354   -6.2574  -23.4466 H   0  0  0  0  0  0  0  0  0  0  0  0
   20.4548   -4.9978  -23.4466 H   0  0  0  0  0  0  0  0  0  0  0  0
  1  2  1  0
  1 11  1  0
  2  3  1  0
  3  4  2  0
  3  5  1  0
  5  6  2  0
  6  7  1  0
  6 11  1  0
  7  8  1  0
  9  8  1  0
  9 10  1  0
  9 15  1  0
 10 11  1  0
 10 12  1  0
 11 21  1  1
 12 13  1  0
 13 14  1  0
 14 15  1  0
 14 18  1  0
 14 20  1  1
 15 16  1  0
 16 17  1  0
 17 18  1  0
 18 19  1  0
  1 22  1  0
  1 23  1  0
  2 24  1  0
  2 25  1  0
  5 26  1  0
  7 27  1  0
  7 28  1  0
  8 29  1  0
  8 30  1  0
  9 31  1  1
 10 32  1  6
 12 33  1  0
 12 34  1  0
 13 35  1  0
 13 36  1  0
 15 37  1  6
 16 38  1  0
 16 39  1  0
 17 40  1  0
 17 41  1  0
 18 42  1  6
 19 43  1  0
 20 44  1  0
 20 45  1  0
 20 46  1  0
 21 47  1  0
 21 48  1  0
 21 49  1  0
M  END
>  <filename_input>  (3) 
7CL8_TES_docked.sdf

>  <pdb_id>  (3) 
7CL8_TES

>  <pose_rank>  (3) 
2

>  <num_atoms_heavy>  (3) 
21

>  <num_torsions>  (3) 
0

>  <pose>  (3) 
[20.084345631203984, -8.416404469457168, -23.880403235266666, -1.530235814459218, -2.323450257654458, -1.9570010709593715]

>  <energy>  (3) 
-621.2283943146226

>  <inter_energy>  (3) 
-614.8706333074725

>  <intra_energy>  (3) 
0.0

>  <rmsd>  (3) 
6.55035

>  <sdf_rank>  (3) 
0

$$$$

     RDKit          3D

 49 52  0  0  0  0  0  0  0  0999 V2000
   15.0592   -6.4493  -24.0446 C   0  0  0  0  0  0  0  0  0  0  0  0
   13.6127   -6.0675  -23.7150 C   0  0  0  0  0  0  0  0  0  0  0  0
   13.5076   -5.0489  -22.6531 C   0  0  0  0  0  0  0  0  0  0  0  0
   12.4755   -4.9517  -22.0059 O   0  0  0  0  0  0  0  0  0  0  0  0
   14.6856   -4.2548  -22.4053 C   0  0  0  0  0  0  0  0  0  0  0  0
   15.7892   -4.2429  -23.1570 C   0  0  0  0  0  0  0  0  0  0  0  0
   16.8358   -3.1773  -22.9551 C   0  0  0  0  0  0  0  0  0  0  0  0
   18.2429   -3.7627  -22.8926 C   0  0  0  0  0  0  0  0  0  0  0  0
   18.5014   -4.5878  -24.1440 C   0  0  2  0  0  0  0  0  0  0  0  0
   17.4968   -5.7458  -24.2728 C   0  0  1  0  0  0  0  0  0  0  0  0
   16.0090   -5.2606  -24.2738 C   0  0  1  0  0  0  0  0  0  0  0  0
   17.8426   -6.6508  -25.4635 C   0  0  0  0  0  0  0  0  0  0  0  0
   19.2974   -7.1122  -25.4598 C   0  0  0  0  0  0  0  0  0  0  0  0
   20.2757   -5.9697  -25.3840 C   0  0  1  0  0  0  0  0  0  0  0  0
   19.9040   -5.1779  -24.1161 C   0  0  1  0  0  0  0  0  0  0  0  0
   21.1192   -4.2708  -23.9032 C   0  0  0  0  0  0  0  0  0  0  0  0
   22.3243   -5.1166  -24.3695 C   0  0  0  0  0  0  0  0  0  0  0  0
   21.7315   -6.3892  -25.0116 C   0  0  2  0  0  0  0  0  0  0  0  0
   22.5704   -6.8375  -26.0975 O   0  0  0  0  0  0  0  0  0  0  0  0
   20.3134   -5.1967  -26.6986 C   0  0  0  0  0  0  0  0  0  0  0  0
   15.6404   -4.5493  -25.5771 C   0  0  0  0  0  0  0  0  0  0  0  0
   15.4539   -7.0452  -23.2085 H   0  0  0  0  0  0  0  0  0  0  0  0
   15.0226   -7.0015  -24.9952 H   0  0  0  0  0  0  0  0  0  0  0  0
   13.1391   -5.6727  -24.6260 H   0  0  0  0  0  0  0  0  0  0  0  0
   13.1108   -6.9749  -23.3481 H   0  0  0  0  0  0  0  0  0  0  0  0
   14.6740   -3.6021  -21.5200 H   0  0  0  0  0  0  0  0  0  0  0  0
   16.7842   -2.4656  -23.7922 H   0  0  0  0  0  0  0  0  0  0  0  0
   16.6324   -2.6788  -21.9958 H   0  0  0  0  0  0  0  0  0  0  0  0
   18.9778   -2.9465  -22.8325 H   0  0  0  0  0  0  0  0  0  0  0  0
   18.3355   -4.4038  -22.0035 H   0  0  0  0  0  0  0  0  0  0  0  0
   18.3896   -3.9097  -25.0029 H   0  0  0  0  0  0  0  0  0  0  0  0
   17.5914   -6.3641  -23.3679 H   0  0  0  0  0  0  0  0  0  0  0  0
   17.1935   -7.5382  -25.4293 H   0  0  0  0  0  0  0  0  0  0  0  0
   17.6865   -6.0626  -26.3797 H   0  0  0  0  0  0  0  0  0  0  0  0
   19.4554   -7.7675  -24.5906 H   0  0  0  0  0  0  0  0  0  0  0  0
   19.4785   -7.6387  -26.4085 H   0  0  0  0  0  0  0  0  0  0  0  0
   19.7576   -5.7807  -23.2076 H   0  0  0  0  0  0  0  0  0  0  0  0
   21.0307   -3.3554  -24.5067 H   0  0  0  0  0  0  0  0  0  0  0  0
   21.2183   -3.9453  -22.8572 H   0  0  0  0  0  0  0  0  0  0  0  0
   22.9196   -4.5586  -25.1073 H   0  0  0  0  0  0  0  0  0  0  0  0
   22.9909   -5.3633  -23.5300 H   0  0  0  0  0  0  0  0  0  0  0  0
   21.6954   -7.2753  -24.3607 H   0  0  0  0  0  0  0  0  0  0  0  0
   23.3814   -7.2709  -25.7308 H   0  0  0  0  0  0  0  0  0  0  0  0
   20.3660   -4.1183  -26.4884 H   0  0  0  0  0  0  0  0  0  0  0  0
   21.1978   -5.5010  -27.2776 H   0  0  0  0  0  0  0  0  0  0  0  0
   19.4036   -5.4135  -27.2776 H   0  0  0  0  0  0  0  0  0  0  0  0
   15.1455   -3.5944  -25.3464 H   0  0  0  0  0  0  0  0  0  0  0  0
   16.5527   -4.3578  -26.1610 H   0  0  0  0  0  0  0  0  0  0  0  0
   14.9579   -5.1843  -26.1610 H   0  0  0  0  0  0  0  0  0  0  0  0
  1  2  1  0
  1 11  1  0
  2  3  1  0
  3  4  2  0
  3  5  1  0
  5  6  2  0
  6  7  1  0
  6 11  1  0
  7  8  1  0
  9  8  1  0
  9 10  1  0
  9 15  1  0
 10 11  1  0
 10 12  1  0
 11 21  1  6
 12 13  1  0
 13 14  1  0
 14 15  1  0
 14 18  1  0
 14 20  1  6
 15 16  1  0
 16 17  1  0
 17 18  1  0
 18 19  1  0
  1 22  1  0
  1 23  1  0
  2 24  1  0
  2 25  1  0
  5 26  1  0
  7 27  1  0
  7 28  1  0
  8 29  1  0
  8 30  1  0
  9 31  1  6
 10 32  1  1
 12 33  1  0
 12 34  1  0
 13 35  1  0
 13 36  1  0
 15 37  1  1
 16 38  1  0
 16 39  1  0
 17 40  1  0
 17 41  1  0
 18 42  1  1
 19 43  1  0
 20 44  1  0
 20 45  1  0
 20 46  1  0
 21 47  1  0
 21 48  1  0
 21 49  1  0
M  END
>  <filename_input>  (4) 
7CL8_TES_docked.sdf

>  <pdb_id>  (4) 
7CL8_TES

>  <pose_rank>  (4) 
3

>  <num_atoms_heavy>  (4) 
21

>  <num_torsions>  (4) 
0

>  <pose>  (4) 
[15.05921287470229, -6.44928470746391, -24.044587752427653, 4.210074446995207, -0.46658337903826325, -1.5372712122493226]

>  <energy>  (4) 
-682.6721722649838

>  <inter_energy>  (4) 
-673.3338474592066

>  <intra_energy>  (4) 
0.0

>  <rmsd>  (4) 
2.31811

>  <sdf_rank>  (4) 
0

$$$$

     RDKit          3D

 49 52  0  0  0  0  0  0  0  0999 V2000
   20.8044   -4.9439  -24.9239 C   0  0  0  0  0  0  0  0  0  0  0  0
   22.1600   -5.3550  -25.5072 C   0  0  0  0  0  0  0  0  0  0  0  0
   22.6593   -6.6357  -24.9716 C   0  0  0  0  0  0  0  0  0  0  0  0
   23.8557   -6.8823  -25.0061 O   0  0  0  0  0  0  0  0  0  0  0  0
   21.6791   -7.5078  -24.3731 C   0  0  0  0  0  0  0  0  0  0  0  0
   20.3554   -7.3374  -24.4158 C   0  0  0  0  0  0  0  0  0  0  0  0
   19.4309   -8.4511  -23.9953 C   0  0  0  0  0  0  0  0  0  0  0  0
   18.3318   -7.9588  -23.0593 C   0  0  0  0  0  0  0  0  0  0  0  0
   17.5819   -6.8129  -23.7213 C   0  0  2  0  0  0  0  0  0  0  0  0
   18.5188   -5.6338  -24.0359 C   0  0  1  0  0  0  0  0  0  0  0  0
   19.7302   -6.0455  -24.9369 C   0  0  1  0  0  0  0  0  0  0  0  0
   17.7348   -4.4323  -24.5819 C   0  0  0  0  0  0  0  0  0  0  0  0
   16.5499   -4.0430  -23.7022 C   0  0  0  0  0  0  0  0  0  0  0  0
   15.6108   -5.1908  -23.4402 C   0  0  1  0  0  0  0  0  0  0  0  0
   16.4698   -6.3059  -22.8144 C   0  0  1  0  0  0  0  0  0  0  0  0
   15.4263   -7.2772  -22.2554 C   0  0  0  0  0  0  0  0  0  0  0  0
   14.2655   -6.3742  -21.7839 C   0  0  0  0  0  0  0  0  0  0  0  0
   14.6057   -4.9496  -22.2716 C   0  0  2  0  0  0  0  0  0  0  0  0
   13.3967   -4.2323  -22.5997 O   0  0  0  0  0  0  0  0  0  0  0  0
   14.8207   -5.5457  -24.6959 C   0  0  0  0  0  0  0  0  0  0  0  0
   19.3008   -6.3306  -26.3772 C   0  0  0  0  0  0  0  0  0  0  0  0
   20.9619   -4.6330  -23.8805 H   0  0  0  0  0  0  0  0  0  0  0  0
   20.4248   -4.1365  -25.5673 H   0  0  0  0  0  0  0  0  0  0  0  0
   22.0570   -5.4489  -26.5984 H   0  0  0  0  0  0  0  0  0  0  0  0
   22.8860   -4.5780  -25.2258 H   0  0  0  0  0  0  0  0  0  0  0  0
   22.0546   -8.3904  -23.8346 H   0  0  0  0  0  0  0  0  0  0  0  0
   18.9653   -8.8841  -24.8930 H   0  0  0  0  0  0  0  0  0  0  0  0
   20.0267   -9.2013  -23.4547 H   0  0  0  0  0  0  0  0  0  0  0  0
   17.6330   -8.7818  -22.8487 H   0  0  0  0  0  0  0  0  0  0  0  0
   18.7798   -7.6099  -22.1172 H   0  0  0  0  0  0  0  0  0  0  0  0
   17.1610   -7.2054  -24.6587 H   0  0  0  0  0  0  0  0  0  0  0  0
   18.9702   -5.3113  -23.0860 H   0  0  0  0  0  0  0  0  0  0  0  0
   18.4165   -3.5719  -24.6525 H   0  0  0  0  0  0  0  0  0  0  0  0
   17.3339   -4.7206  -25.5648 H   0  0  0  0  0  0  0  0  0  0  0  0
   16.9338   -3.6769  -22.7386 H   0  0  0  0  0  0  0  0  0  0  0  0
   15.9820   -3.2684  -24.2383 H   0  0  0  0  0  0  0  0  0  0  0  0
   17.1272   -5.9909  -21.9906 H   0  0  0  0  0  0  0  0  0  0  0  0
   15.0848   -7.9720  -23.0368 H   0  0  0  0  0  0  0  0  0  0  0  0
   15.8286   -7.8980  -21.4414 H   0  0  0  0  0  0  0  0  0  0  0  0
   13.3159   -6.7120  -22.2246 H   0  0  0  0  0  0  0  0  0  0  0  0
   14.1491   -6.4076  -20.6906 H   0  0  0  0  0  0  0  0  0  0  0  0
   15.0740   -4.2924  -21.5241 H   0  0  0  0  0  0  0  0  0  0  0  0
   12.9379   -3.9601  -21.7657 H   0  0  0  0  0  0  0  0  0  0  0  0
   13.8520   -5.9808  -24.4089 H   0  0  0  0  0  0  0  0  0  0  0  0
   14.6522   -4.6369  -25.2922 H   0  0  0  0  0  0  0  0  0  0  0  0
   15.3882   -6.2755  -25.2922 H   0  0  0  0  0  0  0  0  0  0  0  0
   18.3843   -6.9390  -26.3730 H   0  0  0  0  0  0  0  0  0  0  0  0
   19.1079   -5.3807  -26.8972 H   0  0  0  0  0  0  0  0  0  0  0  0
   20.1013   -6.8772  -26.8972 H   0  0  0  0  0  0  0  0  0  0  0  0
  1  2  1  0
  1 11  1  0
  2  3  1  0
  3  4  2  0
  3  5  1  0
  5  6  2  0
  6  7  1  0
  6 11  1  0
  7  8  1  0
  9  8  1  0
  9 10  1  0
  9 15  1  0
 10 11  1  0
 10 12  1  0
 11 21  1  6
 12 13  1  0
 13 14  1  0
 14 15  1  0
 14 18  1  0
 14 20  1  6
 15 16  1  0
 16 17  1  0
 17 18  1  0
 18 19  1  0
  1 22  1  0
  1 23  1  0
  2 24  1  0
  2 25  1  0
  5 26  1  0
  7 27  1  0
  7 28  1  0
  8 29  1  0
  8 30  1  0
  9 31  1  6
 10 32  1  1
 12 33  1  0
 12 34  1  0
 13 35  1  0
 13 36  1  0
 15 37  1  1
 16 38  1  0
 16 39  1  0
 17 40  1  0
 17 41  1  0
 18 42  1  1
 19 43  1  0
 20 44  1  0
 20 45  1  0
 20 46  1  0
 21 47  1  0
 21 48  1  0
 21 49  1  0
M  END
>  <filename_input>  (5) 
7CL8_TES_docked.sdf

>  <pdb_id>  (5) 
7CL8_TES

>  <pose_rank>  (5) 
4

>  <num_atoms_heavy>  (5) 
21

>  <num_torsions>  (5) 
0

>  <pose>  (5) 
[20.80442428272031, -4.943865414322877, -24.92389712798049, 0.1180833054809185, -2.7310809383664716, 1.6698515666038956]

>  <energy>  (5) 
-673.1071019712883

>  <inter_energy>  (5) 
-668.1417036045705

>  <intra_energy>  (5) 
0.0

>  <rmsd>  (5) 
6.31807

>  <sdf_rank>  (5) 
0

$$$$

     RDKit          3D

 49 52  0  0  0  0  0  0  0  0999 V2000
   21.0758   -5.2452  -23.4827 C   0  0  0  0  0  0  0  0  0  0  0  0
   22.4175   -5.4352  -24.1972 C   0  0  0  0  0  0  0  0  0  0  0  0
   22.4967   -6.6952  -24.9604 C   0  0  0  0  0  0  0  0  0  0  0  0
   23.5883   -7.1783  -25.2220 O   0  0  0  0  0  0  0  0  0  0  0  0
   21.2424   -7.3186  -25.3035 C   0  0  0  0  0  0  0  0  0  0  0  0
   20.0331   -6.7751  -25.1442 C   0  0  0  0  0  0  0  0  0  0  0  0
   18.8250   -7.4049  -25.7889 C   0  0  0  0  0  0  0  0  0  0  0  0
   17.6576   -7.5300  -24.8153 C   0  0  0  0  0  0  0  0  0  0  0  0
   17.3438   -6.1630  -24.2265 C   0  0  2  0  0  0  0  0  0  0  0  0
   18.5514   -5.5855  -23.4682 C   0  0  1  0  0  0  0  0  0  0  0  0
   19.8335   -5.4807  -24.3594 C   0  0  1  0  0  0  0  0  0  0  0  0
   18.1886   -4.2693  -22.7666 C   0  0  0  0  0  0  0  0  0  0  0  0
   16.9323   -4.3777  -21.9068 C   0  0  0  0  0  0  0  0  0  0  0  0
   15.7417   -4.8966  -22.6693 C   0  0  1  0  0  0  0  0  0  0  0  0
   16.1741   -6.2532  -23.2570 C   0  0  1  0  0  0  0  0  0  0  0  0
   14.8489   -6.8783  -23.7019 C   0  0  0  0  0  0  0  0  0  0  0  0
   13.8204   -6.4006  -22.6535 C   0  0  0  0  0  0  0  0  0  0  0  0
   14.5552   -5.3676  -21.7725 C   0  0  2  0  0  0  0  0  0  0  0  0
   13.6367   -4.3455  -21.3304 O   0  0  0  0  0  0  0  0  0  0  0  0
   15.2242   -3.8489  -23.6500 C   0  0  0  0  0  0  0  0  0  0  0  0
   19.7170   -4.3652  -25.3998 C   0  0  0  0  0  0  0  0  0  0  0  0
   21.0361   -5.9491  -22.6383 H   0  0  0  0  0  0  0  0  0  0  0  0
   21.0386   -4.1902  -23.1736 H   0  0  0  0  0  0  0  0  0  0  0  0
   22.5652   -4.5957  -24.8925 H   0  0  0  0  0  0  0  0  0  0  0  0
   23.1977   -5.4728  -23.4227 H   0  0  0  0  0  0  0  0  0  0  0  0
   21.2856   -8.3300  -25.7340 H   0  0  0  0  0  0  0  0  0  0  0  0
   18.5122   -6.7829  -26.6405 H   0  0  0  0  0  0  0  0  0  0  0  0
   19.1039   -8.4172  -26.1168 H   0  0  0  0  0  0  0  0  0  0  0  0
   16.7743   -7.9118  -25.3482 H   0  0  0  0  0  0  0  0  0  0  0  0
   17.9256   -8.2261  -24.0069 H   0  0  0  0  0  0  0  0  0  0  0  0
   17.0912   -5.5023  -25.0689 H   0  0  0  0  0  0  0  0  0  0  0  0
   18.8154   -6.3030  -22.6772 H   0  0  0  0  0  0  0  0  0  0  0  0
   19.0294   -3.9722  -22.1226 H   0  0  0  0  0  0  0  0  0  0  0  0
   17.9875   -3.5238  -23.5501 H   0  0  0  0  0  0  0  0  0  0  0  0
   17.1379   -5.0613  -21.0699 H   0  0  0  0  0  0  0  0  0  0  0  0
   16.6838   -3.3648  -21.5573 H   0  0  0  0  0  0  0  0  0  0  0  0
   16.6624   -6.9409  -22.5507 H   0  0  0  0  0  0  0  0  0  0  0  0
   14.5715   -6.5261  -24.7064 H   0  0  0  0  0  0  0  0  0  0  0  0
   14.9047   -7.9753  -23.7613 H   0  0  0  0  0  0  0  0  0  0  0  0
   12.9576   -5.9334  -23.1506 H   0  0  0  0  0  0  0  0  0  0  0  0
   13.4380   -7.2401  -22.0543 H   0  0  0  0  0  0  0  0  0  0  0  0
   14.9533   -5.7534  -20.8224 H   0  0  0  0  0  0  0  0  0  0  0  0
   13.6177   -4.3244  -20.3408 H   0  0  0  0  0  0  0  0  0  0  0  0
   14.8045   -2.9994  -23.0913 H   0  0  0  0  0  0  0  0  0  0  0  0
   16.0527   -3.4982  -24.2829 H   0  0  0  0  0  0  0  0  0  0  0  0
   14.4422   -4.2938  -24.2829 H   0  0  0  0  0  0  0  0  0  0  0  0
   19.6158   -3.3964  -24.8888 H   0  0  0  0  0  0  0  0  0  0  0  0
   20.6190   -4.3553  -26.0294 H   0  0  0  0  0  0  0  0  0  0  0  0
   18.8324   -4.5419  -26.0294 H   0  0  0  0  0  0  0  0  0  0  0  0
  1  2  1  0
  1 11  1  0
  2  3  1  0
  3  4  2  0
  3  5  1  0
  5  6  2  0
  6  7  1  0
  6 11  1  0
  7  8  1  0
  9  8  1  0
  9 10  1  0
  9 15  1  0
 10 11  1  0
 10 12  1  0
 11 21  1  6
 12 13  1  0
 13 14  1  0
 14 15  1  0
 14 18  1  0
 14 20  1  6
 15 16  1  0
 16 17  1  0
 17 18  1  0
 18 19  1  0
  1 22  1  0
  1 23  1  0
  2 24  1  0
  2 25  1  0
  5 26  1  0
  7 27  1  0
  7 28  1  0
  8 29  1  0
  8 30  1  0
  9 31  1  6
 10 32  1  1
 12 33  1  0
 12 34  1  0
 13 35  1  0
 13 36  1  0
 15 37  1  1
 16 38  1  0
 16 39  1  0
 17 40  1  0
 17 41  1  0
 18 42  1  1
 19 43  1  0
 20 44  1  0
 20 45  1  0
 20 46  1  0
 21 47  1  0
 21 48  1  0
 21 49  1  0
M  END
>  <filename_input>  (6) 
7CL8_TES_docked.sdf

>  <pdb_id>  (6) 
7CL8_TES

>  <pose_rank>  (6) 
5

>  <num_atoms_heavy>  (6) 
21

>  <num_torsions>  (6) 
0

>  <pose>  (6) 
[21.075827271767196, -5.24519825739909, -23.48266065643742, -0.44759965758308473, -3.1361054099046335, 0.22157463886540868]

>  <energy>  (6) 
-604.191701594271

>  <inter_energy>  (6) 
-598.2495328454535

>  <intra_energy>  (6) 
0.0

>  <rmsd>  (6) 
6.43647

>  <sdf_rank>  (6) 
0

$$$$

     RDKit          3D

 49 52  0  0  0  0  0  0  0  0999 V2000
   12.0561  -12.8921  -28.7029 C   0  0  0  0  0  0  0  0  0  0  0  0
   11.8211  -14.1937  -27.9298 C   0  0  0  0  0  0  0  0  0  0  0  0
   10.3926  -14.5270  -27.7728 C   0  0  0  0  0  0  0  0  0  0  0  0
   10.0378  -15.2623  -26.8634 O   0  0  0  0  0  0  0  0  0  0  0  0
    9.4804  -13.8963  -28.6946 C   0  0  0  0  0  0  0  0  0  0  0  0
    9.8276  -13.1840  -29.7694 C   0  0  0  0  0  0  0  0  0  0  0  0
    8.7941  -12.8107  -30.8011 C   0  0  0  0  0  0  0  0  0  0  0  0
    8.8822  -11.3390  -31.1919 C   0  0  0  0  0  0  0  0  0  0  0  0
   10.2954  -11.0254  -31.6591 C   0  0  2  0  0  0  0  0  0  0  0  0
   11.3284  -11.2987  -30.5523 C   0  0  1  0  0  0  0  0  0  0  0  0
   11.2753  -12.7705  -30.0232 C   0  0  1  0  0  0  0  0  0  0  0  0
   12.7338  -10.8573  -30.9835 C   0  0  0  0  0  0  0  0  0  0  0  0
   12.7752   -9.4240  -31.5064 C   0  0  0  0  0  0  0  0  0  0  0  0
   11.7959   -9.1780  -32.6238 C   0  0  1  0  0  0  0  0  0  0  0  0
   10.4127   -9.5637  -32.0667 C   0  0  1  0  0  0  0  0  0  0  0  0
    9.4452   -8.9686  -33.0937 C   0  0  0  0  0  0  0  0  0  0  0  0
   10.1279   -7.6655  -33.5637 C   0  0  0  0  0  0  0  0  0  0  0  0
   11.5393   -7.6716  -32.9382 C   0  0  2  0  0  0  0  0  0  0  0  0
   12.4806   -7.0290  -33.8241 O   0  0  0  0  0  0  0  0  0  0  0  0
   12.2461   -9.8725  -33.9053 C   0  0  0  0  0  0  0  0  0  0  0  0
   11.8299  -13.7655  -31.0444 C   0  0  0  0  0  0  0  0  0  0  0  0
   11.7637  -12.0527  -28.0549 H   0  0  0  0  0  0  0  0  0  0  0  0
   13.1221  -12.8836  -28.9741 H   0  0  0  0  0  0  0  0  0  0  0  0
   12.3144  -15.0151  -28.4701 H   0  0  0  0  0  0  0  0  0  0  0  0
   12.2367  -14.0540  -26.9210 H   0  0  0  0  0  0  0  0  0  0  0  0
    8.4049  -14.0119  -28.4949 H   0  0  0  0  0  0  0  0  0  0  0  0
    8.9502  -13.4266  -31.6991 H   0  0  0  0  0  0  0  0  0  0  0  0
    7.7997  -12.9875  -30.3652 H   0  0  0  0  0  0  0  0  0  0  0  0
    8.1719  -11.1321  -32.0059 H   0  0  0  0  0  0  0  0  0  0  0  0
    8.6344  -10.7121  -30.3227 H   0  0  0  0  0  0  0  0  0  0  0  0
   10.5001  -11.6793  -32.5197 H   0  0  0  0  0  0  0  0  0  0  0  0
   11.0536  -10.6776  -29.6869 H   0  0  0  0  0  0  0  0  0  0  0  0
   13.4065  -10.9335  -30.1164 H   0  0  0  0  0  0  0  0  0  0  0  0
   13.0476  -11.5166  -31.8062 H   0  0  0  0  0  0  0  0  0  0  0  0
   12.5397   -8.7410  -30.6769 H   0  0  0  0  0  0  0  0  0  0  0  0
   13.7842   -9.2487  -31.9080 H   0  0  0  0  0  0  0  0  0  0  0  0
   10.1680   -9.1483  -31.0780 H   0  0  0  0  0  0  0  0  0  0  0  0
    9.3029   -9.6587  -33.9383 H   0  0  0  0  0  0  0  0  0  0  0  0
    8.4469   -8.7865  -32.6692 H   0  0  0  0  0  0  0  0  0  0  0  0
   10.1969   -7.6451  -34.6613 H   0  0  0  0  0  0  0  0  0  0  0  0
    9.5556   -6.7782  -33.2552 H   0  0  0  0  0  0  0  0  0  0  0  0
   11.6497   -7.0870  -32.0130 H   0  0  0  0  0  0  0  0  0  0  0  0
   13.1689   -6.5591  -33.2896 H   0  0  0  0  0  0  0  0  0  0  0  0
   12.8281  -10.7705  -33.6507 H   0  0  0  0  0  0  0  0  0  0  0  0
   11.3637  -10.1624  -34.4947 H   0  0  0  0  0  0  0  0  0  0  0  0
   12.8710   -9.1854  -34.4947 H   0  0  0  0  0  0  0  0  0  0  0  0
   12.2998  -14.6087  -30.5169 H   0  0  0  0  0  0  0  0  0  0  0  0
   11.0098  -14.1390  -31.6752 H   0  0  0  0  0  0  0  0  0  0  0  0
   12.5788  -13.2644  -31.6752 H   0  0  0  0  0  0  0  0  0  0  0  0
  1  2  1  0
  1 11  1  0
  2  3  1  0
  3  4  2  0
  3  5  1  0
  5  6  2  0
  6  7  1  0
  6 11  1  0
  7  8  1  0
  9  8  1  0
  9 10  1  0
  9 15  1  0
 10 11  1  0
 10 12  1  0
 11 21  1  6
 12 13  1  0
 13 14  1  0
 14 15  1  0
 14 18  1  0
 14 20  1  6
 15 16  1  0
 16 17  1  0
 17 18  1  0
 18 19  1  0
  1 22  1  0
  1 23  1  0
  2 24  1  0
  2 25  1  0
  5 26  1  0
  7 27  1  0
  7 28  1  0
  8 29  1  0
  8 30  1  0
  9 31  1  6
 10 32  1  1
 12 33  1  0
 12 34  1  0
 13 35  1  0
 13 36  1  0
 15 37  1  1
 16 38  1  0
 16 39  1  0
 17 40  1  0
 17 41  1  0
 18 42  1  1
 19 43  1  0
 20 44  1  0
 20 45  1  0
 20 46  1  0
 21 47  1  0
 21 48  1  0
 21 49  1  0
M  END
>  <filename_input>  (7) 
7CL8_TES_docked.sdf

>  <pdb_id>  (7) 
7CL8_TES

>  <pose_rank>  (7) 
6

>  <num_atoms_heavy>  (7) 
21

>  <num_torsions>  (7) 
0

>  <pose>  (7) 
[12.056058231645588, -12.892138896399201, -28.70292580439398, -2.5256646678451906, -1.6694452029476414, 1.8023043107228147]

>  <energy>  (7) 
-220.74582606834517

>  <inter_energy>  (7) 
-198.57249435002842

>  <intra_energy>  (7) 
0.0

>  <rmsd>  (7) 
11.9416

>  <sdf_rank>  (7) 
0

$$$$

     RDKit          3D

 49 52  0  0  0  0  0  0  0  0999 V2000
   10.9270   -9.6491  -31.5339 C   0  0  0  0  0  0  0  0  0  0  0  0
   11.1031   -8.7376  -32.7526 C   0  0  0  0  0  0  0  0  0  0  0  0
   12.4780   -8.7407  -33.2873 C   0  0  0  0  0  0  0  0  0  0  0  0
   12.8718   -7.7950  -33.9536 O   0  0  0  0  0  0  0  0  0  0  0  0
   13.3055   -9.8652  -32.9262 C   0  0  0  0  0  0  0  0  0  0  0  0
   12.8890  -10.9707  -32.3037 C   0  0  0  0  0  0  0  0  0  0  0  0
   13.7813  -12.1831  -32.2276 C   0  0  0  0  0  0  0  0  0  0  0  0
   13.8348  -12.7659  -30.8191 C   0  0  0  0  0  0  0  0  0  0  0  0
   12.4213  -13.0659  -30.3439 C   0  0  2  0  0  0  0  0  0  0  0  0
   11.5556  -11.7945  -30.3129 C   0  0  1  0  0  0  0  0  0  0  0  0
   11.4905  -11.0713  -31.6992 C   0  0  1  0  0  0  0  0  0  0  0  0
   10.1732  -12.0788  -29.7093 C   0  0  0  0  0  0  0  0  0  0  0  0
   10.2454  -12.7922  -28.3620 C   0  0  0  0  0  0  0  0  0  0  0  0
   11.0531  -14.0622  -28.4124 C   0  0  1  0  0  0  0  0  0  0  0  0
   12.4421  -13.6595  -28.9426 C   0  0  1  0  0  0  0  0  0  0  0  0
   13.3014  -14.8899  -28.6380 C   0  0  0  0  0  0  0  0  0  0  0  0
   12.7378  -15.4405  -27.3098 C   0  0  0  0  0  0  0  0  0  0  0  0
   11.4607  -14.6247  -27.0154 C   0  0  2  0  0  0  0  0  0  0  0  0
   10.4851  -15.4499  -26.3437 O   0  0  0  0  0  0  0  0  0  0  0  0
   10.3078  -15.1518  -29.1769 C   0  0  0  0  0  0  0  0  0  0  0  0
   10.6442  -11.8475  -32.7099 C   0  0  0  0  0  0  0  0  0  0  0  0
   11.4347   -9.1780  -30.6792 H   0  0  0  0  0  0  0  0  0  0  0  0
    9.8426   -9.7628  -31.3890 H   0  0  0  0  0  0  0  0  0  0  0  0
   10.4194   -9.0770  -33.5446 H   0  0  0  0  0  0  0  0  0  0  0  0
   10.8815   -7.7105  -32.4271 H   0  0  0  0  0  0  0  0  0  0  0  0
   14.3727   -9.8073  -33.1863 H   0  0  0  0  0  0  0  0  0  0  0  0
   13.3968  -12.9507  -32.9152 H   0  0  0  0  0  0  0  0  0  0  0  0
   14.7995  -11.8735  -32.5060 H   0  0  0  0  0  0  0  0  0  0  0  0
   14.4241  -13.6947  -30.8281 H   0  0  0  0  0  0  0  0  0  0  0  0
   14.3057  -12.0412  -30.1387 H   0  0  0  0  0  0  0  0  0  0  0  0
   11.9901  -13.7844  -31.0565 H   0  0  0  0  0  0  0  0  0  0  0  0
   12.0514  -11.0765  -29.6431 H   0  0  0  0  0  0  0  0  0  0  0  0
    9.6475  -11.1225  -29.5718 H   0  0  0  0  0  0  0  0  0  0  0  0
    9.6410  -12.7439  -30.4054 H   0  0  0  0  0  0  0  0  0  0  0  0
   10.7056  -12.1127  -27.6296 H   0  0  0  0  0  0  0  0  0  0  0  0
    9.2184  -13.0659  -28.0786 H   0  0  0  0  0  0  0  0  0  0  0  0
   12.9003  -12.7867  -28.4544 H   0  0  0  0  0  0  0  0  0  0  0  0
   13.2069  -15.6374  -29.4394 H   0  0  0  0  0  0  0  0  0  0  0  0
   14.3712  -14.6439  -28.5668 H   0  0  0  0  0  0  0  0  0  0  0  0
   12.4936  -16.5082  -27.4122 H   0  0  0  0  0  0  0  0  0  0  0  0
   13.4700  -15.3490  -26.4940 H   0  0  0  0  0  0  0  0  0  0  0  0
   11.5850  -13.7876  -26.3127 H   0  0  0  0  0  0  0  0  0  0  0  0
   10.5937  -15.3581  -25.3640 H   0  0  0  0  0  0  0  0  0  0  0  0
    9.8352  -15.8427  -28.4632 H   0  0  0  0  0  0  0  0  0  0  0  0
    9.5341  -14.6921  -29.8094 H   0  0  0  0  0  0  0  0  0  0  0  0
   11.0167  -15.7063  -29.8094 H   0  0  0  0  0  0  0  0  0  0  0  0
    9.9364  -12.4967  -32.1737 H   0  0  0  0  0  0  0  0  0  0  0  0
   10.0868  -11.1401  -33.3414 H   0  0  0  0  0  0  0  0  0  0  0  0
   11.3009  -12.4639  -33.3414 H   0  0  0  0  0  0  0  0  0  0  0  0
  1  2  1  0
  1 11  1  0
  2  3  1  0
  3  4  2  0
  3  5  1  0
  5  6  2  0
  6  7  1  0
  6 11  1  0
  7  8  1  0
  9  8  1  0
  9 10  1  0
  9 15  1  0
 10 11  1  0
 10 12  1  0
 11 21  1  6
 12 13  1  0
 13 14  1  0
 14 15  1  0
 14 18  1  0
 14 20  1  6
 15 16  1  0
 16 17  1  0
 17 18  1  0
 18 19  1  0
  1 22  1  0
  1 23  1  0
  2 24  1  0
  2 25  1  0
  5 26  1  0
  7 27  1  0
  7 28  1  0
  8 29  1  0
  8 30  1  0
  9 31  1  6
 10 32  1  1
 12 33  1  0
 12 34  1  0
 13 35  1  0
 13 36  1  0
 15 37  1  1
 16 38  1  0
 16 39  1  0
 17 40  1  0
 17 41  1  0
 18 42  1  1
 19 43  1  0
 20 44  1  0
 20 45  1  0
 20 46  1  0
 21 47  1  0
 21 48  1  0
 21 49  1  0
M  END
>  <filename_input>  (8) 
7CL8_TES_docked.sdf

>  <pdb_id>  (8) 
7CL8_TES

>  <pose_rank>  (8) 
7

>  <num_atoms_heavy>  (8) 
21

>  <num_torsions>  (8) 
0

>  <pose>  (8) 
[10.927046942802331, -9.649068911305058, -31.533901782785303, -2.0629126561322884, 2.2231332550037286, -0.84692649972605]

>  <energy>  (8) 
-216.69341935984616

>  <inter_energy>  (8) 
-196.71230903015683

>  <intra_energy>  (8) 
0.0

>  <rmsd>  (8) 
11.8769

>  <sdf_rank>  (8) 
0

$$$$

     RDKit          3D

 49 52  0  0  0  0  0  0  0  0999 V2000
   11.9371  -14.8396  -27.5874 C   0  0  0  0  0  0  0  0  0  0  0  0
   11.5208  -15.8330  -26.4980 C   0  0  0  0  0  0  0  0  0  0  0  0
   10.5026  -15.2932  -25.5770 C   0  0  0  0  0  0  0  0  0  0  0  0
   10.3818  -15.7713  -24.4589 O   0  0  0  0  0  0  0  0  0  0  0  0
    9.7382  -14.1668  -26.0529 C   0  0  0  0  0  0  0  0  0  0  0  0
    9.7514  -13.6871  -27.2990 C   0  0  0  0  0  0  0  0  0  0  0  0
    8.7121  -12.6889  -27.7410 C   0  0  0  0  0  0  0  0  0  0  0  0
    9.3319  -11.5092  -28.4831 C   0  0  0  0  0  0  0  0  0  0  0  0
   10.1600  -12.0265  -29.6495 C   0  0  2  0  0  0  0  0  0  0  0  0
   11.2928  -12.9505  -29.1701 C   0  0  1  0  0  0  0  0  0  0  0  0
   10.7714  -14.1637  -28.3303 C   0  0  1  0  0  0  0  0  0  0  0  0
   12.2030  -13.3632  -30.3352 C   0  0  0  0  0  0  0  0  0  0  0  0
   12.6998  -12.1751  -31.1544 C   0  0  0  0  0  0  0  0  0  0  0  0
   11.5818  -11.3032  -31.6621 C   0  0  1  0  0  0  0  0  0  0  0  0
   10.7843  -10.8702  -30.4175 C   0  0  1  0  0  0  0  0  0  0  0  0
    9.9076   -9.7307  -30.9445 C   0  0  0  0  0  0  0  0  0  0  0  0
   10.7815   -9.0236  -32.0035 C   0  0  0  0  0  0  0  0  0  0  0  0
   12.0377   -9.9035  -32.1791 C   0  0  2  0  0  0  0  0  0  0  0  0
   12.5036   -9.8415  -33.5440 O   0  0  0  0  0  0  0  0  0  0  0  0
   10.8067  -12.0036  -32.7738 C   0  0  0  0  0  0  0  0  0  0  0  0
   10.0481  -15.1930  -29.2008 C   0  0  0  0  0  0  0  0  0  0  0  0
   12.5445  -14.0522  -27.1173 H   0  0  0  0  0  0  0  0  0  0  0  0
   12.4859  -15.4224  -28.3417 H   0  0  0  0  0  0  0  0  0  0  0  0
   11.1124  -16.7321  -26.9824 H   0  0  0  0  0  0  0  0  0  0  0  0
   12.4167  -16.0563  -25.8999 H   0  0  0  0  0  0  0  0  0  0  0  0
    9.0875  -13.6585  -25.3261 H   0  0  0  0  0  0  0  0  0  0  0  0
    7.9974  -13.1924  -28.4085 H   0  0  0  0  0  0  0  0  0  0  0  0
    8.2112  -12.2996  -26.8424 H   0  0  0  0  0  0  0  0  0  0  0  0
    8.5341  -10.8533  -28.8615 H   0  0  0  0  0  0  0  0  0  0  0  0
    9.9772  -10.9409  -27.7971 H   0  0  0  0  0  0  0  0  0  0  0  0
    9.4773  -12.5925  -30.3002 H   0  0  0  0  0  0  0  0  0  0  0  0
   11.9154  -12.3711  -28.4725 H   0  0  0  0  0  0  0  0  0  0  0  0
   13.0744  -13.8964  -29.9273 H   0  0  0  0  0  0  0  0  0  0  0  0
   11.6089  -14.0002  -31.0069 H   0  0  0  0  0  0  0  0  0  0  0  0
   13.3610  -11.5647  -30.5217 H   0  0  0  0  0  0  0  0  0  0  0  0
   13.2282  -12.5773  -32.0313 H   0  0  0  0  0  0  0  0  0  0  0  0
   11.3855  -10.4867  -29.5799 H   0  0  0  0  0  0  0  0  0  0  0  0
    8.9888  -10.1272  -31.4013 H   0  0  0  0  0  0  0  0  0  0  0  0
    9.5872   -9.0471  -30.1445 H   0  0  0  0  0  0  0  0  0  0  0  0
   10.2364   -8.9420  -32.9555 H   0  0  0  0  0  0  0  0  0  0  0  0
   11.0464   -8.0032  -31.6894 H   0  0  0  0  0  0  0  0  0  0  0  0
   12.9241   -9.5819  -31.6128 H   0  0  0  0  0  0  0  0  0  0  0  0
   13.4849   -9.7109  -33.5521 H   0  0  0  0  0  0  0  0  0  0  0  0
   10.0597  -12.6787  -32.3308 H   0  0  0  0  0  0  0  0  0  0  0  0
   10.2986  -11.2523  -33.3961 H   0  0  0  0  0  0  0  0  0  0  0  0
   11.5030  -12.5850  -33.3961 H   0  0  0  0  0  0  0  0  0  0  0  0
    9.5355  -15.9226  -28.5567 H   0  0  0  0  0  0  0  0  0  0  0  0
    9.3095  -14.6820  -29.8359 H   0  0  0  0  0  0  0  0  0  0  0  0
   10.7793  -15.7147  -29.8359 H   0  0  0  0  0  0  0  0  0  0  0  0
  1  2  1  0
  1 11  1  0
  2  3  1  0
  3  4  2  0
  3  5  1  0
  5  6  2  0
  6  7  1  0
  6 11  1  0
  7  8  1  0
  9  8  1  0
  9 10  1  0
  9 15  1  0
 10 11  1  0
 10 12  1  0
 11 21  1  6
 12 13  1  0
 13 14  1  0
 14 15  1  0
 14 18  1  0
 14 20  1  6
 15 16  1  0
 16 17  1  0
 17 18  1  0
 18 19  1  0
  1 22  1  0
  1 23  1  0
  2 24  1  0
  2 25  1  0
  5 26  1  0
  7 27  1  0
  7 28  1  0
  8 29  1  0
  8 30  1  0
  9 31  1  6
 10 32  1  1
 12 33  1  0
 12 34  1  0
 13 35  1  0
 13 36  1  0
 15 37  1  1
 16 38  1  0
 16 39  1  0
 17 40  1  0
 17 41  1  0
 18 42  1  1
 19 43  1  0
 20 44  1  0
 20 45  1  0
 20 46  1  0
 21 47  1  0
 21 48  1  0
 21 49  1  0
M  END
>  <filename_input>  (9) 
7CL8_TES_docked.sdf

>  <pdb_id>  (9) 
7CL8_TES

>  <pose_rank>  (9) 
8

>  <num_atoms_heavy>  (9) 
21

>  <num_torsions>  (9) 
0

>  <pose>  (9) 
[11.937074822549844, -14.839568468665947, -27.587382576895784, 2.0846188032328907, 0.7978084428506722, -2.4428341797152835]

>  <energy>  (9) 
-208.7355729455586

>  <inter_energy>  (9) 
-193.06741394096287

>  <intra_energy>  (9) 
0.0

>  <rmsd>  (9) 
11.7753

>  <sdf_rank>  (9) 
0

$$$$

     RDKit          3D

 49 52  0  0  0  0  0  0  0  0999 V2000
   11.8473  -11.2933  -31.4933 C   0  0  0  0  0  0  0  0  0  0  0  0
   12.4441  -10.8644  -32.8375 C   0  0  0  0  0  0  0  0  0  0  0  0
   13.7591  -11.4744  -33.1111 C   0  0  0  0  0  0  0  0  0  0  0  0
   14.5258  -10.9362  -33.8960 O   0  0  0  0  0  0  0  0  0  0  0  0
   14.0819  -12.6666  -32.3669 C   0  0  0  0  0  0  0  0  0  0  0  0
   13.2387  -13.3532  -31.5917 C   0  0  0  0  0  0  0  0  0  0  0  0
   13.6121  -14.7243  -31.0894 C   0  0  0  0  0  0  0  0  0  0  0  0
   13.3339  -14.8820  -29.5981 C   0  0  0  0  0  0  0  0  0  0  0  0
   11.8761  -14.5486  -29.3193 C   0  0  2  0  0  0  0  0  0  0  0  0
   11.5407  -13.1038  -29.7278 C   0  0  1  0  0  0  0  0  0  0  0  0
   11.8581  -12.8096  -31.2317 C   0  0  1  0  0  0  0  0  0  0  0  0
   10.1072  -12.7315  -29.3242 C   0  0  0  0  0  0  0  0  0  0  0  0
    9.8031  -13.0299  -27.8587 C   0  0  0  0  0  0  0  0  0  0  0  0
   10.0870  -14.4593  -27.4792 C   0  0  1  0  0  0  0  0  0  0  0  0
   11.5643  -14.7070  -27.8381 C   0  0  1  0  0  0  0  0  0  0  0  0
   11.8821  -16.0208  -27.1184 C   0  0  0  0  0  0  0  0  0  0  0  0
   11.0507  -15.9646  -25.8181 C   0  0  0  0  0  0  0  0  0  0  0  0
   10.1451  -14.7205  -25.9421 C   0  0  2  0  0  0  0  0  0  0  0  0
    8.8836  -14.9535  -25.2802 O   0  0  0  0  0  0  0  0  0  0  0  0
    9.0563  -15.4011  -28.0940 C   0  0  0  0  0  0  0  0  0  0  0  0
   10.8691  -13.5024  -32.1710 C   0  0  0  0  0  0  0  0  0  0  0  0
   12.4226  -10.8048  -30.6930 H   0  0  0  0  0  0  0  0  0  0  0  0
   10.7895  -10.9927  -31.5164 H   0  0  0  0  0  0  0  0  0  0  0  0
   11.7492  -11.1579  -33.6380 H   0  0  0  0  0  0  0  0  0  0  0  0
   12.5914   -9.7750  -32.7968 H   0  0  0  0  0  0  0  0  0  0  0  0
   15.1124  -13.0434  -32.4445 H   0  0  0  0  0  0  0  0  0  0  0  0
   13.0280  -15.4758  -31.6410 H   0  0  0  0  0  0  0  0  0  0  0  0
   14.6914  -14.8628  -31.2501 H   0  0  0  0  0  0  0  0  0  0  0  0
   13.5379  -15.9193  -29.2941 H   0  0  0  0  0  0  0  0  0  0  0  0
   13.9827  -14.2002  -29.0286 H   0  0  0  0  0  0  0  0  0  0  0  0
   11.2690  -15.2469  -29.9141 H   0  0  0  0  0  0  0  0  0  0  0  0
   12.2108  -12.4393  -29.1627 H   0  0  0  0  0  0  0  0  0  0  0  0
    9.9619  -11.6554  -29.5003 H   0  0  0  0  0  0  0  0  0  0  0  0
    9.4250  -13.3432  -29.9327 H   0  0  0  0  0  0  0  0  0  0  0  0
   10.4211  -12.3710  -27.2310 H   0  0  0  0  0  0  0  0  0  0  0  0
    8.7284  -12.8548  -27.7029 H   0  0  0  0  0  0  0  0  0  0  0  0
   12.2712  -13.9401  -27.4887 H   0  0  0  0  0  0  0  0  0  0  0  0
   11.5831  -16.8824  -27.7334 H   0  0  0  0  0  0  0  0  0  0  0  0
   12.9578  -16.1381  -26.9207 H   0  0  0  0  0  0  0  0  0  0  0  0
   10.4392  -16.8733  -25.7165 H   0  0  0  0  0  0  0  0  0  0  0  0
   11.6972  -15.9041  -24.9302 H   0  0  0  0  0  0  0  0  0  0  0  0
   10.5125  -13.8151  -25.4369 H   0  0  0  0  0  0  0  0  0  0  0  0
    9.0161  -14.9290  -24.2994 H   0  0  0  0  0  0  0  0  0  0  0  0
    8.5000  -15.9093  -27.2926 H   0  0  0  0  0  0  0  0  0  0  0  0
    8.3570  -14.8234  -28.7163 H   0  0  0  0  0  0  0  0  0  0  0  0
    9.5686  -16.1495  -28.7163 H   0  0  0  0  0  0  0  0  0  0  0  0
   10.1105  -14.0338  -31.5776 H   0  0  0  0  0  0  0  0  0  0  0  0
   10.3775  -12.7502  -32.8054 H   0  0  0  0  0  0  0  0  0  0  0  0
   11.4081  -14.2214  -32.8054 H   0  0  0  0  0  0  0  0  0  0  0  0
  1  2  1  0
  1 11  1  0
  2  3  1  0
  3  4  2  0
  3  5  1  0
  5  6  2  0
  6  7  1  0
  6 11  1  0
  7  8  1  0
  9  8  1  0
  9 10  1  0
  9 15  1  0
 10 11  1  0
 10 12  1  0
 11 21  1  6
 12 13  1  0
 13 14  1  0
 14 15  1  0
 14 18  1  0
 14 20  1  6
 15 16  1  0
 16 17  1  0
 17 18  1  0
 18 19  1  0
  1 22  1  0
  1 23  1  0
  2 24  1  0
  2 25  1  0
  5 26  1  0
  7 27  1  0
  7 28  1  0
  8 29  1  0
  8 30  1  0
  9 31  1  6
 10 32  1  1
 12 33  1  0
 12 34  1  0
 13 35  1  0
 13 36  1  0
 15 37  1  1
 16 38  1  0
 16 39  1  0
 17 40  1  0
 17 41  1  0
 18 42  1  1
 19 43  1  0
 20 44  1  0
 20 45  1  0
 20 46  1  0
 21 47  1  0
 21 48  1  0
 21 49  1  0
M  END
>  <filename_input>  (10) 
7CL8_TES_docked.sdf

>  <pdb_id>  (10) 
7CL8_TES

>  <pose_rank>  (10) 
9

>  <num_atoms_heavy>  (10) 
21

>  <num_torsions>  (10) 
0

>  <pose>  (10) 
[11.847330594338015, -11.293314286396857, -31.493289775140326, -1.6405452962997582, 2.572445512198775, -1.316107047620011]

>  <energy>  (10) 
-195.88573591478263

>  <inter_energy>  (10) 
-183.31957961648405

>  <intra_energy>  (10) 
0.0

>  <rmsd>  (10) 
12.6192

>  <sdf_rank>  (10) 
0

$$$$

     RDKit          3D

 49 52  0  0  0  0  0  0  0  0999 V2000
   12.0495  -11.2171  -32.4178 C   0  0  0  0  0  0  0  0  0  0  0  0
   11.3082  -10.0833  -33.1331 C   0  0  0  0  0  0  0  0  0  0  0  0
    9.8976   -9.9589  -32.7196 C   0  0  0  0  0  0  0  0  0  0  0  0
    9.0934   -9.4157  -33.4625 O   0  0  0  0  0  0  0  0  0  0  0  0
    9.5431  -10.5572  -31.4563 C   0  0  0  0  0  0  0  0  0  0  0  0
   10.4009  -11.0545  -30.5619 C   0  0  0  0  0  0  0  0  0  0  0  0
    9.9348  -11.3992  -29.1706 C   0  0  0  0  0  0  0  0  0  0  0  0
   10.4237  -12.7746  -28.7285 C   0  0  0  0  0  0  0  0  0  0  0  0
   11.9383  -12.8359  -28.8554 C   0  0  2  0  0  0  0  0  0  0  0  0
   12.3920  -12.6005  -30.3065 C   0  0  1  0  0  0  0  0  0  0  0  0
   11.8807  -11.2408  -30.8886 C   0  0  1  0  0  0  0  0  0  0  0  0
   13.9078  -12.7934  -30.4523 C   0  0  0  0  0  0  0  0  0  0  0  0
   14.3993  -14.1176  -29.8741 C   0  0  0  0  0  0  0  0  0  0  0  0
   13.9935  -14.3180  -28.4378 C   0  0  1  0  0  0  0  0  0  0  0  0
   12.4583  -14.1954  -28.4108 C   0  0  1  0  0  0  0  0  0  0  0  0
   12.0888  -14.7502  -27.0322 C   0  0  0  0  0  0  0  0  0  0  0  0
   13.1167  -15.8739  -26.7752 C   0  0  0  0  0  0  0  0  0  0  0  0
   14.1470  -15.7822  -27.9212 C   0  0  2  0  0  0  0  0  0  0  0  0
   15.4559  -16.1641  -27.4473 O   0  0  0  0  0  0  0  0  0  0  0  0
   14.7799  -13.3918  -27.5153 C   0  0  0  0  0  0  0  0  0  0  0  0
   12.6074  -10.0448  -30.2705 C   0  0  0  0  0  0  0  0  0  0  0  0
   11.6785  -12.1727  -32.8170 H   0  0  0  0  0  0  0  0  0  0  0  0
   13.1205  -11.0516  -32.6065 H   0  0  0  0  0  0  0  0  0  0  0  0
   11.8219   -9.1360  -32.9125 H   0  0  0  0  0  0  0  0  0  0  0  0
   11.3142  -10.3162  -34.2082 H   0  0  0  0  0  0  0  0  0  0  0  0
    8.4727  -10.6083  -31.2077 H   0  0  0  0  0  0  0  0  0  0  0  0
   10.3194  -10.6434  -28.4699 H   0  0  0  0  0  0  0  0  0  0  0  0
    8.8349  -11.4148  -29.1749 H   0  0  0  0  0  0  0  0  0  0  0  0
   10.1357  -12.9475  -27.6810 H   0  0  0  0  0  0  0  0  0  0  0  0
    9.9695  -13.5486  -29.3646 H   0  0  0  0  0  0  0  0  0  0  0  0
   12.3455  -12.0423  -28.2118 H   0  0  0  0  0  0  0  0  0  0  0  0
   11.9139  -13.3714  -30.9286 H   0  0  0  0  0  0  0  0  0  0  0  0
   14.1638  -12.7614  -31.5216 H   0  0  0  0  0  0  0  0  0  0  0  0
   14.3977  -11.9862  -29.8880 H   0  0  0  0  0  0  0  0  0  0  0  0
   13.9815  -14.9391  -30.4746 H   0  0  0  0  0  0  0  0  0  0  0  0
   15.4988  -14.1037  -29.9071 H   0  0  0  0  0  0  0  0  0  0  0  0
   11.9234  -14.7790  -29.1745 H   0  0  0  0  0  0  0  0  0  0  0  0
   12.1697  -13.9670  -26.2641 H   0  0  0  0  0  0  0  0  0  0  0  0
   11.0524  -15.1168  -26.9945 H   0  0  0  0  0  0  0  0  0  0  0  0
   13.6113  -15.7239  -25.8042 H   0  0  0  0  0  0  0  0  0  0  0  0
   12.6335  -16.8617  -26.7474 H   0  0  0  0  0  0  0  0  0  0  0  0
   13.9873  -16.4777  -28.7583 H   0  0  0  0  0  0  0  0  0  0  0  0
   15.4610  -16.1656  -26.4573 H   0  0  0  0  0  0  0  0  0  0  0  0
   14.5630  -13.6473  -26.4676 H   0  0  0  0  0  0  0  0  0  0  0  0
   15.8565  -13.5115  -27.7066 H   0  0  0  0  0  0  0  0  0  0  0  0
   14.4872  -12.3489  -27.7066 H   0  0  0  0  0  0  0  0  0  0  0  0
   12.5640  -10.1162  -29.1737 H   0  0  0  0  0  0  0  0  0  0  0  0
   13.6579  -10.0455  -30.5968 H   0  0  0  0  0  0  0  0  0  0  0  0
   12.1228   -9.1128  -30.5968 H   0  0  0  0  0  0  0  0  0  0  0  0
  1  2  1  0
  1 11  1  0
  2  3  1  0
  3  4  2  0
  3  5  1  0
  5  6  2  0
  6  7  1  0
  6 11  1  0
  7  8  1  0
  9  8  1  0
  9 10  1  0
  9 15  1  0
 10 11  1  0
 10 12  1  0
 11 21  1  1
 12 13  1  0
 13 14  1  0
 14 15  1  0
 14 18  1  0
 14 20  1  1
 15 16  1  0
 16 17  1  0
 17 18  1  0
 18 19  1  0
  1 22  1  0
  1 23  1  0
  2 24  1  0
  2 25  1  0
  5 26  1  0
  7 27  1  0
  7 28  1  0
  8 29  1  0
  8 30  1  0
  9 31  1  1
 10 32  1  6
 12 33  1  0
 12 34  1  0
 13 35  1  0
 13 36  1  0
 15 37  1  6
 16 38  1  0
 16 39  1  0
 17 40  1  0
 17 41  1  0
 18 42  1  6
 19 43  1  0
 20 44  1  0
 20 45  1  0
 20 46  1  0
 21 47  1  0
 21 48  1  0
 21 49  1  0
M  END
>  <filename_input>  (11) 
7CL8_TES_docked.sdf

>  <pdb_id>  (11) 
7CL8_TES

>  <pose_rank>  (11) 
10

>  <num_atoms_heavy>  (11) 
21

>  <num_torsions>  (11) 
0

>  <pose>  (11) 
[12.049518444009193, -11.217120533831466, -32.41780503165124, -0.6045625539724557, -0.8257464199099479, -0.7048412993099578]

>  <energy>  (11) 
-193.03305266161442

>  <inter_energy>  (11) 
-180.97684471939803

>  <intra_energy>  (11) 
0.0

>  <rmsd>  (11) 
11.044

>  <sdf_rank>  (11) 
0

$$$$

     RDKit          3D

 49 52  0  0  0  0  0  0  0  0999 V2000
   18.5523  -11.6850  -16.3126 C   0  0  0  0  0  0  0  0  0  0  0  0
   17.6147  -12.8725  -16.0721 C   0  0  0  0  0  0  0  0  0  0  0  0
   18.3081  -14.0637  -15.5463 C   0  0  0  0  0  0  0  0  0  0  0  0
   17.8115  -15.1702  -15.6964 O   0  0  0  0  0  0  0  0  0  0  0  0
   19.5902  -13.8392  -14.9254 C   0  0  0  0  0  0  0  0  0  0  0  0
   20.1169  -12.6471  -14.6349 C   0  0  0  0  0  0  0  0  0  0  0  0
   21.3290  -12.5474  -13.7445 C   0  0  0  0  0  0  0  0  0  0  0  0
   22.3895  -11.6172  -14.3247 C   0  0  0  0  0  0  0  0  0  0  0  0
   21.7694  -10.2559  -14.6004 C   0  0  2  0  0  0  0  0  0  0  0  0
   20.6086  -10.3586  -15.6049 C   0  0  1  0  0  0  0  0  0  0  0  0
   19.4902  -11.3496  -15.1398 C   0  0  1  0  0  0  0  0  0  0  0  0
   20.0736   -8.9693  -15.9788 C   0  0  0  0  0  0  0  0  0  0  0  0
   21.1715   -8.0064  -16.4225 C   0  0  0  0  0  0  0  0  0  0  0  0
   22.2797   -7.8732  -15.4114 C   0  0  1  0  0  0  0  0  0  0  0  0
   22.8073   -9.3004  -15.1715 C   0  0  1  0  0  0  0  0  0  0  0  0
   24.1279   -9.0640  -14.4333 C   0  0  0  0  0  0  0  0  0  0  0  0
   24.6895   -7.7619  -15.0450 C   0  0  0  0  0  0  0  0  0  0  0  0
   23.5781   -7.2044  -15.9601 C   0  0  2  0  0  0  0  0  0  0  0  0
   23.6087   -5.7612  -15.9600 O   0  0  0  0  0  0  0  0  0  0  0  0
   21.8099   -7.0923  -14.1880 C   0  0  0  0  0  0  0  0  0  0  0  0
   18.6766  -10.7869  -13.9729 C   0  0  0  0  0  0  0  0  0  0  0  0
   19.1730  -11.9128  -17.1917 H   0  0  0  0  0  0  0  0  0  0  0  0
   17.9058  -10.8057  -16.4507 H   0  0  0  0  0  0  0  0  0  0  0  0
   16.8443  -12.5685  -15.3482 H   0  0  0  0  0  0  0  0  0  0  0  0
   17.1819  -13.1492  -17.0448 H   0  0  0  0  0  0  0  0  0  0  0  0
   20.1862  -14.7274  -14.6688 H   0  0  0  0  0  0  0  0  0  0  0  0
   21.0175  -12.1619  -12.7625 H   0  0  0  0  0  0  0  0  0  0  0  0
   21.7694  -13.5515  -13.6565 H   0  0  0  0  0  0  0  0  0  0  0  0
   23.2140  -11.5062  -13.6051 H   0  0  0  0  0  0  0  0  0  0  0  0
   22.7777  -12.0414  -15.2624 H   0  0  0  0  0  0  0  0  0  0  0  0
   21.3893   -9.8772  -13.6401 H   0  0  0  0  0  0  0  0  0  0  0  0
   21.0118  -10.8009  -16.5277 H   0  0  0  0  0  0  0  0  0  0  0  0
   19.3523   -9.0814  -16.8017 H   0  0  0  0  0  0  0  0  0  0  0  0
   19.6069   -8.5434  -15.0784 H   0  0  0  0  0  0  0  0  0  0  0  0
   21.6002   -8.3741  -17.3664 H   0  0  0  0  0  0  0  0  0  0  0  0
   20.7118   -7.0140  -16.5401 H   0  0  0  0  0  0  0  0  0  0  0  0
   23.0168   -9.8862  -16.0786 H   0  0  0  0  0  0  0  0  0  0  0  0
   23.9530   -8.9419  -13.3542 H   0  0  0  0  0  0  0  0  0  0  0  0
   24.8233   -9.9093  -14.5420 H   0  0  0  0  0  0  0  0  0  0  0  0
   24.9285   -7.0391  -14.2510 H   0  0  0  0  0  0  0  0  0  0  0  0
   25.6164   -7.9491  -15.6070 H   0  0  0  0  0  0  0  0  0  0  0  0
   23.6812   -7.4421  -17.0291 H   0  0  0  0  0  0  0  0  0  0  0  0
   23.6157   -5.4313  -15.0266 H   0  0  0  0  0  0  0  0  0  0  0  0
   22.1258   -7.6173  -13.2744 H   0  0  0  0  0  0  0  0  0  0  0  0
   22.2523   -6.0853  -14.2037 H   0  0  0  0  0  0  0  0  0  0  0  0
   20.7130   -7.0112  -14.2037 H   0  0  0  0  0  0  0  0  0  0  0  0
   19.1322  -11.1020  -13.0226 H   0  0  0  0  0  0  0  0  0  0  0  0
   18.6672   -9.6883  -14.0285 H   0  0  0  0  0  0  0  0  0  0  0  0
   17.6454  -11.1657  -14.0285 H   0  0  0  0  0  0  0  0  0  0  0  0
  1  2  1  0
  1 11  1  0
  2  3  1  0
  3  4  2  0
  3  5  1  0
  5  6  2  0
  6  7  1  0
  6 11  1  0
  7  8  1  0
  9  8  1  0
  9 10  1  0
  9 15  1  0
 10 11  1  0
 10 12  1  0
 11 21  1  1
 12 13  1  0
 13 14  1  0
 14 15  1  0
 14 18  1  0
 14 20  1  1
 15 16  1  0
 16 17  1  0
 17 18  1  0
 18 19  1  0
  1 22  1  0
  1 23  1  0
  2 24  1  0
  2 25  1  0
  5 26  1  0
  7 27  1  0
  7 28  1  0
  8 29  1  0
  8 30  1  0
  9 31  1  1
 10 32  1  6
 12 33  1  0
 12 34  1  0
 13 35  1  0
 13 36  1  0
 15 37  1  6
 16 38  1  0
 16 39  1  0
 17 40  1  0
 17 41  1  0
 18 42  1  6
 19 43  1  0
 20 44  1  0
 20 45  1  0
 20 46  1  0
 21 47  1  0
 21 48  1  0
 21 49  1  0
M  END
>  <filename_input>  (12) 
7CL8_TES_docked.sdf

>  <pdb_id>  (12) 
7CL8_TES

>  <pose_rank>  (12) 
11

>  <num_atoms_heavy>  (12) 
21

>  <num_torsions>  (12) 
0

>  <pose>  (12) 
[18.552264943858436, -11.684987108438749, -16.31261908512015, 0.360167305477208, -0.2651092118848372, 1.020962705724842]

>  <energy>  (12) 
-173.10096117372112

>  <inter_energy>  (12) 
-176.83567247731224

>  <intra_energy>  (12) 
0.0

>  <rmsd>  (12) 
10.7632

>  <sdf_rank>  (12) 
0

$$$$

     RDKit          3D

 49 52  0  0  0  0  0  0  0  0999 V2000
   11.3457  -13.3057  -15.6452 C   0  0  0  0  0  0  0  0  0  0  0  0
    9.8613  -13.5491  -15.9357 C   0  0  0  0  0  0  0  0  0  0  0  0
    9.6250  -14.2354  -17.2200 C   0  0  0  0  0  0  0  0  0  0  0  0
    8.5413  -14.1279  -17.7746 O   0  0  0  0  0  0  0  0  0  0  0  0
   10.7414  -14.9583  -17.7774 C   0  0  0  0  0  0  0  0  0  0  0  0
   11.8994  -15.2010  -17.1584 C   0  0  0  0  0  0  0  0  0  0  0  0
   12.8760  -16.1945  -17.7337 C   0  0  0  0  0  0  0  0  0  0  0  0
   14.2993  -15.6470  -17.7605 C   0  0  0  0  0  0  0  0  0  0  0  0
   14.6946  -15.2022  -16.3606 C   0  0  2  0  0  0  0  0  0  0  0  0
   13.7583  -14.1008  -15.8341 C   0  0  1  0  0  0  0  0  0  0  0  0
   12.2543  -14.5333  -15.8320 C   0  0  1  0  0  0  0  0  0  0  0  0
   14.2393  -13.5646  -14.4786 C   0  0  0  0  0  0  0  0  0  0  0  0
   15.7091  -13.1536  -14.4868 C   0  0  0  0  0  0  0  0  0  0  0  0
   16.6241  -14.2539  -14.9560 C   0  0  1  0  0  0  0  0  0  0  0  0
   16.1165  -14.6596  -16.3525 C   0  0  1  0  0  0  0  0  0  0  0  0
   17.2674  -15.5016  -16.9104 C   0  0  0  0  0  0  0  0  0  0  0  0
   18.5437  -14.8438  -16.3418 C   0  0  0  0  0  0  0  0  0  0  0  0
   18.0637  -13.7822  -15.3290 C   0  0  2  0  0  0  0  0  0  0  0  0
   19.0060  -13.6679  -14.2414 O   0  0  0  0  0  0  0  0  0  0  0  0
   16.7300  -15.3579  -13.9085 C   0  0  0  0  0  0  0  0  0  0  0  0
   11.9577  -15.5655  -14.7424 C   0  0  0  0  0  0  0  0  0  0  0  0
   11.7000  -12.5129  -16.3205 H   0  0  0  0  0  0  0  0  0  0  0  0
   11.4104  -13.0340  -14.5813 H   0  0  0  0  0  0  0  0  0  0  0  0
    9.4438  -14.1671  -15.1271 H   0  0  0  0  0  0  0  0  0  0  0  0
    9.3746  -12.5646  -15.9969 H   0  0  0  0  0  0  0  0  0  0  0  0
   10.6292  -15.3433  -18.8017 H   0  0  0  0  0  0  0  0  0  0  0  0
   12.8579  -17.1068  -17.1194 H   0  0  0  0  0  0  0  0  0  0  0  0
   12.5741  -16.4065  -18.7700 H   0  0  0  0  0  0  0  0  0  0  0  0
   14.9885  -16.4323  -18.1045 H   0  0  0  0  0  0  0  0  0  0  0  0
   14.3508  -14.7894  -18.4473 H   0  0  0  0  0  0  0  0  0  0  0  0
   14.6199  -16.0868  -15.7110 H   0  0  0  0  0  0  0  0  0  0  0  0
   13.8094  -13.2608  -16.5425 H   0  0  0  0  0  0  0  0  0  0  0  0
   13.6315  -12.6870  -14.2133 H   0  0  0  0  0  0  0  0  0  0  0  0
   14.1293  -14.3774  -13.7457 H   0  0  0  0  0  0  0  0  0  0  0  0
   15.8279  -12.2891  -15.1566 H   0  0  0  0  0  0  0  0  0  0  0  0
   15.9893  -12.9112  -13.4510 H   0  0  0  0  0  0  0  0  0  0  0  0
   15.9265  -13.8279  -17.0470 H   0  0  0  0  0  0  0  0  0  0  0  0
   17.1846  -16.5450  -16.5719 H   0  0  0  0  0  0  0  0  0  0  0  0
   17.2678  -15.5305  -18.0100 H   0  0  0  0  0  0  0  0  0  0  0  0
   19.1691  -15.5960  -15.8388 H   0  0  0  0  0  0  0  0  0  0  0  0
   19.1523  -14.3922  -17.1391 H   0  0  0  0  0  0  0  0  0  0  0  0
   18.0172  -12.7513  -15.7098 H   0  0  0  0  0  0  0  0  0  0  0  0
   18.5234  -13.7264  -13.3790 H   0  0  0  0  0  0  0  0  0  0  0  0
   16.6874  -14.9144  -12.9028 H   0  0  0  0  0  0  0  0  0  0  0  0
   15.8955  -16.0635  -14.0338 H   0  0  0  0  0  0  0  0  0  0  0  0
   17.6835  -15.8919  -14.0338 H   0  0  0  0  0  0  0  0  0  0  0  0
   12.0906  -15.1030  -13.7533 H   0  0  0  0  0  0  0  0  0  0  0  0
   10.9214  -15.9197  -14.8453 H   0  0  0  0  0  0  0  0  0  0  0  0
   12.6478  -16.4159  -14.8453 H   0  0  0  0  0  0  0  0  0  0  0  0
  1  2  1  0
  1 11  1  0
  2  3  1  0
  3  4  2  0
  3  5  1  0
  5  6  2  0
  6  7  1  0
  6 11  1  0
  7  8  1  0
  9  8  1  0
  9 10  1  0
  9 15  1  0
 10 11  1  0
 10 12  1  0
 11 21  1  1
 12 13  1  0
 13 14  1  0
 14 15  1  0
 14 18  1  0
 14 20  1  1
 15 16  1  0
 16 17  1  0
 17 18  1  0
 18 19  1  0
  1 22  1  0
  1 23  1  0
  2 24  1  0
  2 25  1  0
  5 26  1  0
  7 27  1  0
  7 28  1  0
  8 29  1  0
  8 30  1  0
  9 31  1  1
 10 32  1  6
 12 33  1  0
 12 34  1  0
 13 35  1  0
 13 36  1  0
 15 37  1  6
 16 38  1  0
 16 39  1  0
 17 40  1  0
 17 41  1  0
 18 42  1  6
 19 43  1  0
 20 44  1  0
 20 45  1  0
 20 46  1  0
 21 47  1  0
 21 48  1  0
 21 49  1  0
M  END
>  <filename_input>  (13) 
7CL8_TES_docked.sdf

>  <pdb_id>  (13) 
7CL8_TES

>  <pose_rank>  (13) 
12

>  <num_atoms_heavy>  (13) 
21

>  <num_torsions>  (13) 
0

>  <pose>  (13) 
[11.345657411017232, -13.305652304760535, -15.645228391411436, -4.283783181294217, 1.5017098012777976, -0.020654994237820176]

>  <energy>  (13) 
-179.9797428702801

>  <inter_energy>  (13) 
-163.13386510306432

>  <intra_energy>  (13) 
0.0

>  <rmsd>  (13) 
12.4482

>  <sdf_rank>  (13) 
0

$$$$

     RDKit          3D

 49 52  0  0  0  0  0  0  0  0999 V2000
   23.7096   -6.6264  -15.1007 C   0  0  0  0  0  0  0  0  0  0  0  0
   23.1090   -5.3107  -15.6058 C   0  0  0  0  0  0  0  0  0  0  0  0
   23.9806   -4.6030  -16.5627 C   0  0  0  0  0  0  0  0  0  0  0  0
   23.8522   -3.3984  -16.7239 O   0  0  0  0  0  0  0  0  0  0  0  0
   24.9930   -5.3947  -17.2169 C   0  0  0  0  0  0  0  0  0  0  0  0
   25.0969   -6.7249  -17.1634 C   0  0  0  0  0  0  0  0  0  0  0  0
   26.0223   -7.4542  -18.1034 C   0  0  0  0  0  0  0  0  0  0  0  0
   26.8799   -8.4847  -17.3760 C   0  0  0  0  0  0  0  0  0  0  0  0
   25.9781   -9.4385  -16.6074 C   0  0  2  0  0  0  0  0  0  0  0  0
   25.1253   -8.6922  -15.5669 C   0  0  1  0  0  0  0  0  0  0  0  0
   24.2541   -7.5563  -16.1992 C   0  0  1  0  0  0  0  0  0  0  0  0
   24.3160   -9.6724  -14.7064 C   0  0  0  0  0  0  0  0  0  0  0  0
   25.1714  -10.7820  -14.1010 C   0  0  0  0  0  0  0  0  0  0  0  0
   25.9650  -11.5405  -15.1319 C   0  0  1  0  0  0  0  0  0  0  0  0
   26.8056  -10.4871  -15.8779 C   0  0  1  0  0  0  0  0  0  0  0  0
   27.8265  -11.3342  -16.6429 C   0  0  0  0  0  0  0  0  0  0  0  0
   28.1195  -12.5294  -15.7098 C   0  0  0  0  0  0  0  0  0  0  0  0
   27.1117  -12.4209  -14.5454 C   0  0  2  0  0  0  0  0  0  0  0  0
   26.7407  -13.7368  -14.0822 O   0  0  0  0  0  0  0  0  0  0  0  0
   25.0547  -12.4267  -15.9764 C   0  0  0  0  0  0  0  0  0  0  0  0
   23.0932   -8.1172  -17.0227 C   0  0  0  0  0  0  0  0  0  0  0  0
   24.5372   -6.3839  -14.4178 H   0  0  0  0  0  0  0  0  0  0  0  0
   22.8882   -7.1729  -14.6144 H   0  0  0  0  0  0  0  0  0  0  0  0
   22.1521   -5.5309  -16.1016 H   0  0  0  0  0  0  0  0  0  0  0  0
   22.9809   -4.6537  -14.7330 H   0  0  0  0  0  0  0  0  0  0  0  0
   25.7451   -4.8559  -17.8119 H   0  0  0  0  0  0  0  0  0  0  0  0
   25.4200   -7.9686  -18.8666 H   0  0  0  0  0  0  0  0  0  0  0  0
   26.6954   -6.7136  -18.5600 H   0  0  0  0  0  0  0  0  0  0  0  0
   27.4738   -9.0509  -18.1085 H   0  0  0  0  0  0  0  0  0  0  0  0
   27.5558   -7.9724  -16.6755 H   0  0  0  0  0  0  0  0  0  0  0  0
   25.3178   -9.9185  -17.3447 H   0  0  0  0  0  0  0  0  0  0  0  0
   25.8172   -8.1724  -14.8879 H   0  0  0  0  0  0  0  0  0  0  0  0
   23.8406   -9.1108  -13.8887 H   0  0  0  0  0  0  0  0  0  0  0  0
   23.5737  -10.1504  -15.3625 H   0  0  0  0  0  0  0  0  0  0  0  0
   25.8709  -10.3323  -13.3810 H   0  0  0  0  0  0  0  0  0  0  0  0
   24.4895  -11.4975  -13.6182 H   0  0  0  0  0  0  0  0  0  0  0  0
   27.3522   -9.7784  -15.2385 H   0  0  0  0  0  0  0  0  0  0  0  0
   27.4052  -11.6814  -17.5978 H   0  0  0  0  0  0  0  0  0  0  0  0
   28.7356  -10.7671  -16.8919 H   0  0  0  0  0  0  0  0  0  0  0  0
   27.9792  -13.4779  -16.2490 H   0  0  0  0  0  0  0  0  0  0  0  0
   29.1574  -12.5101  -15.3460 H   0  0  0  0  0  0  0  0  0  0  0  0
   27.4956  -11.9483  -13.6293 H   0  0  0  0  0  0  0  0  0  0  0  0
   26.7372  -13.7494  -13.0923 H   0  0  0  0  0  0  0  0  0  0  0  0
   24.4245  -13.0402  -15.3157 H   0  0  0  0  0  0  0  0  0  0  0  0
   24.4151  -11.7959  -16.6112 H   0  0  0  0  0  0  0  0  0  0  0  0
   25.6681  -13.0830  -16.6112 H   0  0  0  0  0  0  0  0  0  0  0  0
   22.3123   -8.4945  -16.3460 H   0  0  0  0  0  0  0  0  0  0  0  0
   22.6756   -7.3215  -17.6571 H   0  0  0  0  0  0  0  0  0  0  0  0
   23.4571   -8.9389  -17.6571 H   0  0  0  0  0  0  0  0  0  0  0  0
  1  2  1  0
  1 11  1  0
  2  3  1  0
  3  4  2  0
  3  5  1  0
  5  6  2  0
  6  7  1  0
  6 11  1  0
  7  8  1  0
  9  8  1  0
  9 10  1  0
  9 15  1  0
 10 11  1  0
 10 12  1  0
 11 21  1  6
 12 13  1  0
 13 14  1  0
 14 15  1  0
 14 18  1  0
 14 20  1  6
 15 16  1  0
 16 17  1  0
 17 18  1  0
 18 19  1  0
  1 22  1  0
  1 23  1  0
  2 24  1  0
  2 25  1  0
  5 26  1  0
  7 27  1  0
  7 28  1  0
  8 29  1  0
  8 30  1  0
  9 31  1  6
 10 32  1  1
 12 33  1  0
 12 34  1  0
 13 35  1  0
 13 36  1  0
 15 37  1  1
 16 38  1  0
 16 39  1  0
 17 40  1  0
 17 41  1  0
 18 42  1  1
 19 43  1  0
 20 44  1  0
 20 45  1  0
 20 46  1  0
 21 47  1  0
 21 48  1  0
 21 49  1  0
M  END
>  <filename_input>  (14) 
7CL8_TES_docked.sdf

>  <pdb_id>  (14) 
7CL8_TES

>  <pose_rank>  (14) 
13

>  <num_atoms_heavy>  (14) 
21

>  <num_torsions>  (14) 
0

>  <pose>  (14) 
[23.709649648281392, -6.62641334572221, -15.10073679153261, 2.431156303745858, -2.019347326031859, -0.28937012364456566]

>  <energy>  (14) 
-158.77347721290073

>  <inter_energy>  (14) 
-146.76505626812926

>  <intra_energy>  (14) 
0.0

>  <rmsd>  (14) 
12.0138

>  <sdf_rank>  (14) 
0

$$$$

     RDKit          3D

 49 52  0  0  0  0  0  0  0  0999 V2000
   13.7651  -12.7896  -17.2424 C   0  0  0  0  0  0  0  0  0  0  0  0
   12.2801  -12.4142  -17.2692 C   0  0  0  0  0  0  0  0  0  0  0  0
   11.4330  -13.3360  -16.4889 C   0  0  0  0  0  0  0  0  0  0  0  0
   10.2409  -13.4258  -16.7425 O   0  0  0  0  0  0  0  0  0  0  0  0
   12.1016  -14.1343  -15.4912 C   0  0  0  0  0  0  0  0  0  0  0  0
   13.3699  -13.9896  -15.0994 C   0  0  0  0  0  0  0  0  0  0  0  0
   13.8700  -14.6949  -13.8648 C   0  0  0  0  0  0  0  0  0  0  0  0
   15.2056  -15.3909  -14.1057 C   0  0  0  0  0  0  0  0  0  0  0  0
   16.2124  -14.3804  -14.6339 C   0  0  2  0  0  0  0  0  0  0  0  0
   15.7419  -13.7562  -15.9590 C   0  0  1  0  0  0  0  0  0  0  0  0
   14.3386  -13.0732  -15.8430 C   0  0  1  0  0  0  0  0  0  0  0  0
   16.8186  -12.8376  -16.5531 C   0  0  0  0  0  0  0  0  0  0  0  0
   18.1859  -13.5083  -16.6544 C   0  0  0  0  0  0  0  0  0  0  0  0
   18.6618  -14.0729  -15.3419 C   0  0  1  0  0  0  0  0  0  0  0  0
   17.5609  -15.0437  -14.8748 C   0  0  1  0  0  0  0  0  0  0  0  0
   18.2445  -15.8324  -13.7543 C   0  0  0  0  0  0  0  0  0  0  0  0
   19.7157  -15.9583  -14.2069 C   0  0  0  0  0  0  0  0  0  0  0  0
   19.8550  -15.0707  -15.4623 C   0  0  2  0  0  0  0  0  0  0  0  0
   21.1759  -14.4913  -15.5198 O   0  0  0  0  0  0  0  0  0  0  0  0
   19.0564  -12.9566  -14.3798 C   0  0  0  0  0  0  0  0  0  0  0  0
   14.3999  -11.7741  -15.0373 C   0  0  0  0  0  0  0  0  0  0  0  0
   13.9000  -13.6926  -17.8559 H   0  0  0  0  0  0  0  0  0  0  0  0
   14.3105  -11.9151  -17.6269 H   0  0  0  0  0  0  0  0  0  0  0  0
   12.1682  -11.4013  -16.8549 H   0  0  0  0  0  0  0  0  0  0  0  0
   11.9475  -12.4718  -18.3161 H   0  0  0  0  0  0  0  0  0  0  0  0
   11.5157  -14.9320  -15.0111 H   0  0  0  0  0  0  0  0  0  0  0  0
   13.9948  -13.9560  -13.0596 H   0  0  0  0  0  0  0  0  0  0  0  0
   13.1317  -15.4626  -13.5896 H   0  0  0  0  0  0  0  0  0  0  0  0
   15.5738  -15.8164  -13.1605 H   0  0  0  0  0  0  0  0  0  0  0  0
   15.0728  -16.1973  -14.8420 H   0  0  0  0  0  0  0  0  0  0  0  0
   16.3051  -13.5929  -13.8715 H   0  0  0  0  0  0  0  0  0  0  0  0
   15.5972  -14.5782  -16.6755 H   0  0  0  0  0  0  0  0  0  0  0  0
   16.5020  -12.5332  -17.5616 H   0  0  0  0  0  0  0  0  0  0  0  0
   16.9244  -11.9757  -15.8779 H   0  0  0  0  0  0  0  0  0  0  0  0
   18.1214  -14.3273  -17.3858 H   0  0  0  0  0  0  0  0  0  0  0  0
   18.9084  -12.7385  -16.9634 H   0  0  0  0  0  0  0  0  0  0  0  0
   17.2051  -15.7562  -15.6336 H   0  0  0  0  0  0  0  0  0  0  0  0
   18.1770  -15.2892  -12.8002 H   0  0  0  0  0  0  0  0  0  0  0  0
   17.7742  -16.8128  -13.5879 H   0  0  0  0  0  0  0  0  0  0  0  0
   20.3907  -15.6056  -13.4132 H   0  0  0  0  0  0  0  0  0  0  0  0
   19.9817  -17.0036  -14.4224 H   0  0  0  0  0  0  0  0  0  0  0  0
   19.7872  -15.5983  -16.4252 H   0  0  0  0  0  0  0  0  0  0  0  0
   21.5119  -14.3439  -14.6003 H   0  0  0  0  0  0  0  0  0  0  0  0
   18.9332  -13.3049  -13.3437 H   0  0  0  0  0  0  0  0  0  0  0  0
   20.1070  -12.6793  -14.5510 H   0  0  0  0  0  0  0  0  0  0  0  0
   18.4134  -12.0807  -14.5510 H   0  0  0  0  0  0  0  0  0  0  0  0
   14.3888  -12.0083  -13.9626 H   0  0  0  0  0  0  0  0  0  0  0  0
   15.3245  -11.2323  -15.2851 H   0  0  0  0  0  0  0  0  0  0  0  0
   13.5302  -11.1477  -15.2851 H   0  0  0  0  0  0  0  0  0  0  0  0
  1  2  1  0
  1 11  1  0
  2  3  1  0
  3  4  2  0
  3  5  1  0
  5  6  2  0
  6  7  1  0
  6 11  1  0
  7  8  1  0
  9  8  1  0
  9 10  1  0
  9 15  1  0
 10 11  1  0
 10 12  1  0
 11 21  1  1
 12 13  1  0
 13 14  1  0
 14 15  1  0
 14 18  1  0
 14 20  1  1
 15 16  1  0
 16 17  1  0
 17 18  1  0
 18 19  1  0
  1 22  1  0
  1 23  1  0
  2 24  1  0
  2 25  1  0
  5 26  1  0
  7 27  1  0
  7 28  1  0
  8 29  1  0
  8 30  1  0
  9 31  1  1
 10 32  1  6
 12 33  1  0
 12 34  1  0
 13 35  1  0
 13 36  1  0
 15 37  1  6
 16 38  1  0
 16 39  1  0
 17 40  1  0
 17 41  1  0
 18 42  1  6
 19 43  1  0
 20 44  1  0
 20 45  1  0
 20 46  1  0
 21 47  1  0
 21 48  1  0
 21 49  1  0
M  END
>  <filename_input>  (15) 
7CL8_TES_docked.sdf

>  <pdb_id>  (15) 
7CL8_TES

>  <pose_rank>  (15) 
14

>  <num_atoms_heavy>  (15) 
21

>  <num_torsions>  (15) 
0

>  <pose>  (15) 
[13.76514622474297, -12.789625038280688, -17.242384079714903, 1.733554785137604, 5.479512944304434, 0.1865734382163372]

>  <energy>  (15) 
-123.87811207751466

>  <inter_energy>  (15) 
-110.22470756717303

>  <intra_energy>  (15) 
0.0

>  <rmsd>  (15) 
11.8261

>  <sdf_rank>  (15) 
0

$$$$

     RDKit          3D

 49 52  0  0  0  0  0  0  0  0999 V2000
   20.2025    3.4850  -32.5185 C   0  0  0  0  0  0  0  0  0  0  0  0
   18.7108    3.1768  -32.3552 C   0  0  0  0  0  0  0  0  0  0  0  0
   18.2717    2.0009  -33.1302 C   0  0  0  0  0  0  0  0  0  0  0  0
   17.0944    1.8807  -33.4352 O   0  0  0  0  0  0  0  0  0  0  0  0
   19.3023    1.0777  -33.5367 C   0  0  0  0  0  0  0  0  0  0  0  0
   20.5745    1.1030  -33.1321 C   0  0  0  0  0  0  0  0  0  0  0  0
   21.4838   -0.0672  -33.4070 C   0  0  0  0  0  0  0  0  0  0  0  0
   22.8314    0.3755  -33.9677 C   0  0  0  0  0  0  0  0  0  0  0  0
   23.4658    1.3816  -33.0195 C   0  0  2  0  0  0  0  0  0  0  0  0
   22.5786    2.6261  -32.8429 C   0  0  1  0  0  0  0  0  0  0  0  0
   21.1393    2.2778  -32.3370 C   0  0  1  0  0  0  0  0  0  0  0  0
   23.2815    3.6925  -31.9915 C   0  0  0  0  0  0  0  0  0  0  0  0
   24.6878    4.0197  -32.4861 C   0  0  0  0  0  0  0  0  0  0  0  0
   25.5655    2.8020  -32.6086 C   0  0  1  0  0  0  0  0  0  0  0  0
   24.8192    1.8353  -33.5474 C   0  0  1  0  0  0  0  0  0  0  0  0
   25.8918    0.8042  -33.9096 C   0  0  0  0  0  0  0  0  0  0  0  0
   27.2067    1.6121  -33.9666 C   0  0  0  0  0  0  0  0  0  0  0  0
   26.8653    3.0235  -33.4427 C   0  0  2  0  0  0  0  0  0  0  0  0
   27.9952    3.5814  -32.7385 O   0  0  0  0  0  0  0  0  0  0  0  0
   25.9551    2.2707  -31.2327 C   0  0  0  0  0  0  0  0  0  0  0  0
   21.1387    1.8399  -30.8712 C   0  0  0  0  0  0  0  0  0  0  0  0
   20.3588    3.8893  -33.5295 H   0  0  0  0  0  0  0  0  0  0  0  0
   20.4590    4.1962  -31.7195 H   0  0  0  0  0  0  0  0  0  0  0  0
   18.5071    2.9897  -31.2905 H   0  0  0  0  0  0  0  0  0  0  0  0
   18.1541    4.0457  -32.7362 H   0  0  0  0  0  0  0  0  0  0  0  0
   19.0153    0.2835  -34.2417 H   0  0  0  0  0  0  0  0  0  0  0  0
   21.6524   -0.6143  -32.4677 H   0  0  0  0  0  0  0  0  0  0  0  0
   20.9969   -0.7066  -34.1581 H   0  0  0  0  0  0  0  0  0  0  0  0
   23.4913   -0.4986  -34.0707 H   0  0  0  0  0  0  0  0  0  0  0  0
   22.6848    0.8407  -34.9536 H   0  0  0  0  0  0  0  0  0  0  0  0
   23.5841    0.8764  -32.0496 H   0  0  0  0  0  0  0  0  0  0  0  0
   22.4287    3.0660  -33.8399 H   0  0  0  0  0  0  0  0  0  0  0  0
   22.6790    4.6125  -32.0146 H   0  0  0  0  0  0  0  0  0  0  0  0
   23.3770    3.2893  -30.9725 H   0  0  0  0  0  0  0  0  0  0  0  0
   24.6100    4.4968  -33.4742 H   0  0  0  0  0  0  0  0  0  0  0  0
   25.1513    4.6866  -31.7442 H   0  0  0  0  0  0  0  0  0  0  0  0
   24.4370    2.2800  -34.4780 H   0  0  0  0  0  0  0  0  0  0  0  0
   25.9513    0.0195  -33.1410 H   0  0  0  0  0  0  0  0  0  0  0  0
   25.6750    0.2933  -34.8594 H   0  0  0  0  0  0  0  0  0  0  0  0
   27.9709    1.1429  -33.3295 H   0  0  0  0  0  0  0  0  0  0  0  0
   27.6110    1.6499  -34.9889 H   0  0  0  0  0  0  0  0  0  0  0  0
   26.6719    3.7817  -34.2158 H   0  0  0  0  0  0  0  0  0  0  0  0
   27.8452    3.5073  -31.7627 H   0  0  0  0  0  0  0  0  0  0  0  0
   25.4956    2.8973  -30.4541 H   0  0  0  0  0  0  0  0  0  0  0  0
   25.6009    1.2347  -31.1259 H   0  0  0  0  0  0  0  0  0  0  0  0
   27.0496    2.2969  -31.1259 H   0  0  0  0  0  0  0  0  0  0  0  0
   21.1398    2.7287  -30.2230 H   0  0  0  0  0  0  0  0  0  0  0  0
   20.2398    1.2393  -30.6683 H   0  0  0  0  0  0  0  0  0  0  0  0
   22.0360    1.2370  -30.6683 H   0  0  0  0  0  0  0  0  0  0  0  0
  1  2  1  0
  1 11  1  0
  2  3  1  0
  3  4  2  0
  3  5  1  0
  5  6  2  0
  6  7  1  0
  6 11  1  0
  7  8  1  0
  9  8  1  0
  9 10  1  0
  9 15  1  0
 10 11  1  0
 10 12  1  0
 11 21  1  1
 12 13  1  0
 13 14  1  0
 14 15  1  0
 14 18  1  0
 14 20  1  1
 15 16  1  0
 16 17  1  0
 17 18  1  0
 18 19  1  0
  1 22  1  0
  1 23  1  0
  2 24  1  0
  2 25  1  0
  5 26  1  0
  7 27  1  0
  7 28  1  0
  8 29  1  0
  8 30  1  0
  9 31  1  1
 10 32  1  6
 12 33  1  0
 12 34  1  0
 13 35  1  0
 13 36  1  0
 15 37  1  6
 16 38  1  0
 16 39  1  0
 17 40  1  0
 17 41  1  0
 18 42  1  6
 19 43  1  0
 20 44  1  0
 20 45  1  0
 20 46  1  0
 21 47  1  0
 21 48  1  0
 21 49  1  0
M  END
>  <filename_input>  (16) 
7CL8_TES_docked.sdf

>  <pdb_id>  (16) 
7CL8_TES

>  <pose_rank>  (16) 
15

>  <num_atoms_heavy>  (16) 
21

>  <num_torsions>  (16) 
0

>  <pose>  (16) 
[20.20254956068984, 3.485016394438014, -32.51848816123408, -4.825274258220015, 1.4573663207160492, 0.07155520308409279]

>  <energy>  (16) 
-119.58996265369304

>  <inter_energy>  (16) 
-101.37293102822986

>  <intra_energy>  (16) 
0.0

>  <rmsd>  (16) 
13.3015

>  <sdf_rank>  (16) 
0

$$$$

     RDKit          3D

 49 52  0  0  0  0  0  0  0  0999 V2000
   11.6365    3.0412  -31.7040 C   0  0  0  0  0  0  0  0  0  0  0  0
   10.3115    3.5679  -31.1440 C   0  0  0  0  0  0  0  0  0  0  0  0
    9.1690    2.6755  -31.4169 C   0  0  0  0  0  0  0  0  0  0  0  0
    8.0332    3.1265  -31.4154 O   0  0  0  0  0  0  0  0  0  0  0  0
    9.4856    1.3048  -31.7341 C   0  0  0  0  0  0  0  0  0  0  0  0
   10.6918    0.7409  -31.6344 C   0  0  0  0  0  0  0  0  0  0  0  0
   10.8421   -0.7559  -31.7291 C   0  0  0  0  0  0  0  0  0  0  0  0
   11.9742   -1.1583  -32.6687 C   0  0  0  0  0  0  0  0  0  0  0  0
   13.2621   -0.4816  -32.2248 C   0  0  2  0  0  0  0  0  0  0  0  0
   13.1303    1.0510  -32.2486 C   0  0  1  0  0  0  0  0  0  0  0  0
   11.9452    1.5714  -31.3690 C   0  0  1  0  0  0  0  0  0  0  0  0
   14.4698    1.7283  -31.9273 C   0  0  0  0  0  0  0  0  0  0  0  0
   15.6219    1.2088  -32.7830 C   0  0  0  0  0  0  0  0  0  0  0  0
   15.7756   -0.2878  -32.7150 C   0  0  1  0  0  0  0  0  0  0  0  0
   14.4149   -0.8725  -33.1384 C   0  0  1  0  0  0  0  0  0  0  0  0
   14.7336   -2.3489  -33.3908 C   0  0  0  0  0  0  0  0  0  0  0  0
   16.1671   -2.3462  -33.9654 C   0  0  0  0  0  0  0  0  0  0  0  0
   16.6793   -0.8960  -33.8319 C   0  0  2  0  0  0  0  0  0  0  0  0
   18.1014   -0.8898  -33.5843 O   0  0  0  0  0  0  0  0  0  0  0  0
   16.3236   -0.7179  -31.3579 C   0  0  0  0  0  0  0  0  0  0  0  0
   12.2391    1.4336  -29.8740 C   0  0  0  0  0  0  0  0  0  0  0  0
   11.6089    3.1431  -32.7989 H   0  0  0  0  0  0  0  0  0  0  0  0
   12.4297    3.6379  -31.2299 H   0  0  0  0  0  0  0  0  0  0  0  0
   10.4132    3.6823  -30.0547 H   0  0  0  0  0  0  0  0  0  0  0  0
   10.1039    4.5262  -31.6426 H   0  0  0  0  0  0  0  0  0  0  0  0
    8.6616    0.6685  -32.0892 H   0  0  0  0  0  0  0  0  0  0  0  0
   11.0537   -1.1557  -30.7264 H   0  0  0  0  0  0  0  0  0  0  0  0
    9.9044   -1.1667  -32.1315 H   0  0  0  0  0  0  0  0  0  0  0  0
   12.1044   -2.2502  -32.6402 H   0  0  0  0  0  0  0  0  0  0  0  0
   11.7293   -0.8464  -33.6947 H   0  0  0  0  0  0  0  0  0  0  0  0
   13.4605   -0.8155  -31.1957 H   0  0  0  0  0  0  0  0  0  0  0  0
   12.8678    1.3416  -33.2765 H   0  0  0  0  0  0  0  0  0  0  0  0
   14.3657    2.8098  -32.0991 H   0  0  0  0  0  0  0  0  0  0  0  0
   14.7104    1.5001  -30.8785 H   0  0  0  0  0  0  0  0  0  0  0  0
   15.4387    1.4954  -33.8291 H   0  0  0  0  0  0  0  0  0  0  0  0
   16.5491    1.6534  -32.3924 H   0  0  0  0  0  0  0  0  0  0  0  0
   13.9829   -0.4488  -34.0571 H   0  0  0  0  0  0  0  0  0  0  0  0
   14.6927   -2.9208  -32.4520 H   0  0  0  0  0  0  0  0  0  0  0  0
   14.0116   -2.8203  -34.0738 H   0  0  0  0  0  0  0  0  0  0  0  0
   16.8090   -3.0320  -33.3930 H   0  0  0  0  0  0  0  0  0  0  0  0
   16.1808   -2.6824  -35.0126 H   0  0  0  0  0  0  0  0  0  0  0  0
   16.5954   -0.2788  -34.7386 H   0  0  0  0  0  0  0  0  0  0  0  0
   18.2664   -0.8891  -32.6082 H   0  0  0  0  0  0  0  0  0  0  0  0
   15.7295   -0.2517  -30.5581 H   0  0  0  0  0  0  0  0  0  0  0  0
   16.2636   -1.8127  -31.2685 H   0  0  0  0  0  0  0  0  0  0  0  0
   17.3727   -0.3997  -31.2685 H   0  0  0  0  0  0  0  0  0  0  0  0
   11.3920    1.8309  -29.2956 H   0  0  0  0  0  0  0  0  0  0  0  0
   12.3870    0.3722  -29.6257 H   0  0  0  0  0  0  0  0  0  0  0  0
   13.1497    1.9986  -29.6257 H   0  0  0  0  0  0  0  0  0  0  0  0
  1  2  1  0
  1 11  1  0
  2  3  1  0
  3  4  2  0
  3  5  1  0
  5  6  2  0
  6  7  1  0
  6 11  1  0
  7  8  1  0
  9  8  1  0
  9 10  1  0
  9 15  1  0
 10 11  1  0
 10 12  1  0
 11 21  1  1
 12 13  1  0
 13 14  1  0
 14 15  1  0
 14 18  1  0
 14 20  1  1
 15 16  1  0
 16 17  1  0
 17 18  1  0
 18 19  1  0
  1 22  1  0
  1 23  1  0
  2 24  1  0
  2 25  1  0
  5 26  1  0
  7 27  1  0
  7 28  1  0
  8 29  1  0
  8 30  1  0
  9 31  1  1
 10 32  1  6
 12 33  1  0
 12 34  1  0
 13 35  1  0
 13 36  1  0
 15 37  1  6
 16 38  1  0
 16 39  1  0
 17 40  1  0
 17 41  1  0
 18 42  1  6
 19 43  1  0
 20 44  1  0
 20 45  1  0
 20 46  1  0
 21 47  1  0
 21 48  1  0
 21 49  1  0
M  END
>  <filename_input>  (17) 
7CL8_TES_docked.sdf

>  <pdb_id>  (17) 
7CL8_TES

>  <pose_rank>  (17) 
16

>  <num_atoms_heavy>  (17) 
21

>  <num_torsions>  (17) 
0

>  <pose>  (17) 
[11.636519378808066, 3.041163762803631, -31.704010844882493, 0.8122514137737596, -0.38561272756168996, -0.5682193810293122]

>  <energy>  (17) 
-115.69865897708561

>  <inter_energy>  (17) 
-108.41974924860729

>  <intra_energy>  (17) 
0.0

>  <rmsd>  (17) 
11.7462

>  <sdf_rank>  (17) 
0

$$$$

     RDKit          3D

 49 52  0  0  0  0  0  0  0  0999 V2000
   24.7201    2.1095  -33.9332 C   0  0  0  0  0  0  0  0  0  0  0  0
   26.1981    1.7163  -33.8445 C   0  0  0  0  0  0  0  0  0  0  0  0
   26.8398    2.1462  -32.5876 C   0  0  0  0  0  0  0  0  0  0  0  0
   28.0533    2.2838  -32.5423 O   0  0  0  0  0  0  0  0  0  0  0  0
   25.9591    2.4399  -31.4841 C   0  0  0  0  0  0  0  0  0  0  0  0
   24.6471    2.1945  -31.4480 C   0  0  0  0  0  0  0  0  0  0  0  0
   23.8905    2.2906  -30.1479 C   0  0  0  0  0  0  0  0  0  0  0  0
   22.5959    3.0830  -30.2973 C   0  0  0  0  0  0  0  0  0  0  0  0
   21.7535    2.4681  -31.4046 C   0  0  2  0  0  0  0  0  0  0  0  0
   22.4947    2.4866  -32.7526 C   0  0  1  0  0  0  0  0  0  0  0  0
   23.8788    1.7588  -32.6935 C   0  0  1  0  0  0  0  0  0  0  0  0
   21.5922    1.9866  -33.8891 C   0  0  0  0  0  0  0  0  0  0  0  0
   20.2411    2.6951  -33.9341 C   0  0  0  0  0  0  0  0  0  0  0  0
   19.4996    2.6294  -32.6249 C   0  0  1  0  0  0  0  0  0  0  0  0
   20.4477    3.2320  -31.5710 C   0  0  1  0  0  0  0  0  0  0  0  0
   19.5293    3.4625  -30.3676 C   0  0  0  0  0  0  0  0  0  0  0  0
   18.1671    3.8486  -30.9844 C   0  0  0  0  0  0  0  0  0  0  0  0
   18.3084    3.6299  -32.5060 C   0  0  2  0  0  0  0  0  0  0  0  0
   17.0494    3.2020  -33.0678 O   0  0  0  0  0  0  0  0  0  0  0  0
   18.9786    1.2195  -32.3642 C   0  0  0  0  0  0  0  0  0  0  0  0
   23.7226    0.2406  -32.5885 C   0  0  0  0  0  0  0  0  0  0  0  0
   24.6649    3.1973  -34.0866 H   0  0  0  0  0  0  0  0  0  0  0  0
   24.2970    1.5291  -34.7664 H   0  0  0  0  0  0  0  0  0  0  0  0
   26.2737    0.6214  -33.9188 H   0  0  0  0  0  0  0  0  0  0  0  0
   26.7212    2.2237  -34.6685 H   0  0  0  0  0  0  0  0  0  0  0  0
   26.4073    2.9067  -30.5946 H   0  0  0  0  0  0  0  0  0  0  0  0
   23.6474    1.2749  -29.8027 H   0  0  0  0  0  0  0  0  0  0  0  0
   24.5284    2.8157  -29.4217 H   0  0  0  0  0  0  0  0  0  0  0  0
   22.0362    3.0538  -29.3508 H   0  0  0  0  0  0  0  0  0  0  0  0
   22.8308    4.1274  -30.5505 H   0  0  0  0  0  0  0  0  0  0  0  0
   21.5521    1.4269  -31.1124 H   0  0  0  0  0  0  0  0  0  0  0  0
   22.7368    3.5354  -32.9793 H   0  0  0  0  0  0  0  0  0  0  0  0
   22.1081    2.1548  -34.8460 H   0  0  0  0  0  0  0  0  0  0  0  0
   21.3978    0.9190  -33.7091 H   0  0  0  0  0  0  0  0  0  0  0  0
   20.4075    3.7518  -34.1903 H   0  0  0  0  0  0  0  0  0  0  0  0
   19.6252    2.1825  -34.6877 H   0  0  0  0  0  0  0  0  0  0  0  0
   20.9097    4.1922  -31.8440 H   0  0  0  0  0  0  0  0  0  0  0  0
   19.4377    2.5451  -29.7678 H   0  0  0  0  0  0  0  0  0  0  0  0
   19.9156    4.2391  -29.6911 H   0  0  0  0  0  0  0  0  0  0  0  0
   17.3694    3.2086  -30.5792 H   0  0  0  0  0  0  0  0  0  0  0  0
   17.9012    4.8902  -30.7512 H   0  0  0  0  0  0  0  0  0  0  0  0
   18.5351    4.5309  -33.0949 H   0  0  0  0  0  0  0  0  0  0  0  0
   16.4176    2.9873  -32.3365 H   0  0  0  0  0  0  0  0  0  0  0  0
   18.9148    1.0469  -31.2797 H   0  0  0  0  0  0  0  0  0  0  0  0
   17.9802    1.1088  -32.8124 H   0  0  0  0  0  0  0  0  0  0  0  0
   19.6651    0.4862  -32.8124 H   0  0  0  0  0  0  0  0  0  0  0  0
   23.6924   -0.0525  -31.5286 H   0  0  0  0  0  0  0  0  0  0  0  0
   22.7880   -0.0668  -33.0806 H   0  0  0  0  0  0  0  0  0  0  0  0
   24.5749   -0.2507  -33.0806 H   0  0  0  0  0  0  0  0  0  0  0  0
  1  2  1  0
  1 11  1  0
  2  3  1  0
  3  4  2  0
  3  5  1  0
  5  6  2  0
  6  7  1  0
  6 11  1  0
  7  8  1  0
  9  8  1  0
  9 10  1  0
  9 15  1  0
 10 11  1  0
 10 12  1  0
 11 21  1  1
 12 13  1  0
 13 14  1  0
 14 15  1  0
 14 18  1  0
 14 20  1  1
 15 16  1  0
 16 17  1  0
 17 18  1  0
 18 19  1  0
  1 22  1  0
  1 23  1  0
  2 24  1  0
  2 25  1  0
  5 26  1  0
  7 27  1  0
  7 28  1  0
  8 29  1  0
  8 30  1  0
  9 31  1  1
 10 32  1  6
 12 33  1  0
 12 34  1  0
 13 35  1  0
 13 36  1  0
 15 37  1  6
 16 38  1  0
 16 39  1  0
 17 40  1  0
 17 41  1  0
 18 42  1  6
 19 43  1  0
 20 44  1  0
 20 45  1  0
 20 46  1  0
 21 47  1  0
 21 48  1  0
 21 49  1  0
M  END
>  <filename_input>  (18) 
7CL8_TES_docked.sdf

>  <pdb_id>  (18) 
7CL8_TES

>  <pose_rank>  (18) 
17

>  <num_atoms_heavy>  (18) 
21

>  <num_torsions>  (18) 
0

>  <pose>  (18) 
[24.72014531260982, 2.109465560009893, -33.93321205934832, -0.4548542412056526, 0.9177485929174478, -2.8487350695219895]

>  <energy>  (18) 
-93.55868662347903

>  <inter_energy>  (18) 
-94.83019812429998

>  <intra_energy>  (18) 
0.0

>  <rmsd>  (18) 
14.2344

>  <sdf_rank>  (18) 
0

$$$$

     RDKit          3D

 49 52  0  0  0  0  0  0  0  0999 V2000
   11.3136    0.8325  -31.3221 C   0  0  0  0  0  0  0  0  0  0  0  0
    9.8632    0.9393  -30.8405 C   0  0  0  0  0  0  0  0  0  0  0  0
    9.7218    1.7015  -29.5854 C   0  0  0  0  0  0  0  0  0  0  0  0
    8.7424    1.5255  -28.8760 O   0  0  0  0  0  0  0  0  0  0  0  0
   10.8100    2.5837  -29.2431 C   0  0  0  0  0  0  0  0  0  0  0  0
   11.8382    2.8962  -30.0358 C   0  0  0  0  0  0  0  0  0  0  0  0
   12.7594    4.0331  -29.6743 C   0  0  0  0  0  0  0  0  0  0  0  0
   14.2279    3.6451  -29.8133 C   0  0  0  0  0  0  0  0  0  0  0  0
   14.4818    3.1294  -31.2217 C   0  0  2  0  0  0  0  0  0  0  0  0
   13.6195    1.8940  -31.5333 C   0  0  1  0  0  0  0  0  0  0  0  0
   12.0884    2.1615  -31.3507 C   0  0  1  0  0  0  0  0  0  0  0  0
   13.9744    1.3007  -32.9037 C   0  0  0  0  0  0  0  0  0  0  0  0
   15.4702    1.0513  -33.0770 C   0  0  0  0  0  0  0  0  0  0  0  0
   16.3040    2.2786  -32.8189 C   0  0  1  0  0  0  0  0  0  0  0  0
   15.9437    2.7432  -31.3951 C   0  0  1  0  0  0  0  0  0  0  0  0
   17.0519    3.7472  -31.0655 C   0  0  0  0  0  0  0  0  0  0  0  0
   18.3090    3.1844  -31.7639 C   0  0  0  0  0  0  0  0  0  0  0  0
   17.8259    1.9965  -32.6234 C   0  0  2  0  0  0  0  0  0  0  0  0
   18.6211    1.8929  -33.8237 O   0  0  0  0  0  0  0  0  0  0  0  0
   16.1384    3.2960  -33.9434 C   0  0  0  0  0  0  0  0  0  0  0  0
   11.5295    3.0612  -32.4545 C   0  0  0  0  0  0  0  0  0  0  0  0
   11.8458    0.1415  -30.6517 H   0  0  0  0  0  0  0  0  0  0  0  0
   11.2669    0.4812  -32.3634 H   0  0  0  0  0  0  0  0  0  0  0  0
    9.2715    1.4392  -31.6215 H   0  0  0  0  0  0  0  0  0  0  0  0
    9.5082   -0.0831  -30.6436 H   0  0  0  0  0  0  0  0  0  0  0  0
   10.7914    3.0389  -28.2419 H   0  0  0  0  0  0  0  0  0  0  0  0
   12.5522    4.8835  -30.3406 H   0  0  0  0  0  0  0  0  0  0  0  0
   12.5760    4.2976  -28.6225 H   0  0  0  0  0  0  0  0  0  0  0  0
   14.8598    4.5256  -29.6252 H   0  0  0  0  0  0  0  0  0  0  0  0
   14.4713    2.8584  -29.0840 H   0  0  0  0  0  0  0  0  0  0  0  0
   14.2175    3.9434  -31.9127 H   0  0  0  0  0  0  0  0  0  0  0  0
   13.8633    1.1266  -30.7838 H   0  0  0  0  0  0  0  0  0  0  0  0
   13.4440    0.3440  -33.0194 H   0  0  0  0  0  0  0  0  0  0  0  0
   13.6726    2.0329  -33.6671 H   0  0  0  0  0  0  0  0  0  0  0  0
   15.7782    0.2637  -32.3736 H   0  0  0  0  0  0  0  0  0  0  0  0
   15.6358    0.7545  -34.1231 H   0  0  0  0  0  0  0  0  0  0  0  0
   15.9474    1.9571  -30.6256 H   0  0  0  0  0  0  0  0  0  0  0  0
   16.8025    4.7437  -31.4590 H   0  0  0  0  0  0  0  0  0  0  0  0
   17.1960    3.8680  -29.9817 H   0  0  0  0  0  0  0  0  0  0  0  0
   18.7688    3.9544  -32.4009 H   0  0  0  0  0  0  0  0  0  0  0  0
   19.0677    2.8688  -31.0325 H   0  0  0  0  0  0  0  0  0  0  0  0
   17.9523    1.0020  -32.1706 H   0  0  0  0  0  0  0  0  0  0  0  0
   19.5725    1.7689  -33.5795 H   0  0  0  0  0  0  0  0  0  0  0  0
   15.9757    4.2951  -33.5130 H   0  0  0  0  0  0  0  0  0  0  0  0
   17.0465    3.3075  -34.5641 H   0  0  0  0  0  0  0  0  0  0  0  0
   15.2735    3.0189  -34.5641 H   0  0  0  0  0  0  0  0  0  0  0  0
   11.0006    3.9124  -32.0011 H   0  0  0  0  0  0  0  0  0  0  0  0
   12.3559    3.4330  -33.0781 H   0  0  0  0  0  0  0  0  0  0  0  0
   10.8301    2.4850  -33.0781 H   0  0  0  0  0  0  0  0  0  0  0  0
  1  2  1  0
  1 11  1  0
  2  3  1  0
  3  4  2  0
  3  5  1  0
  5  6  2  0
  6  7  1  0
  6 11  1  0
  7  8  1  0
  9  8  1  0
  9 10  1  0
  9 15  1  0
 10 11  1  0
 10 12  1  0
 11 21  1  6
 12 13  1  0
 13 14  1  0
 14 15  1  0
 14 18  1  0
 14 20  1  6
 15 16  1  0
 16 17  1  0
 17 18  1  0
 18 19  1  0
  1 22  1  0
  1 23  1  0
  2 24  1  0
  2 25  1  0
  5 26  1  0
  7 27  1  0
  7 28  1  0
  8 29  1  0
  8 30  1  0
  9 31  1  6
 10 32  1  1
 12 33  1  0
 12 34  1  0
 13 35  1  0
 13 36  1  0
 15 37  1  1
 16 38  1  0
 16 39  1  0
 17 40  1  0
 17 41  1  0
 18 42  1  1
 19 43  1  0
 20 44  1  0
 20 45  1  0
 20 46  1  0
 21 47  1  0
 21 48  1  0
 21 49  1  0
M  END
>  <filename_input>  (19) 
7CL8_TES_docked.sdf

>  <pdb_id>  (19) 
7CL8_TES

>  <pose_rank>  (19) 
18

>  <num_atoms_heavy>  (19) 
21

>  <num_torsions>  (19) 
0

>  <pose>  (19) 
[11.313588435911004, 0.8324527574941947, -31.32205084092845, 4.11377961961556, -0.17056287191298372, -2.132920657560197]

>  <energy>  (19) 
-111.04396281599475

>  <inter_energy>  (19) 
-97.15075324266803

>  <intra_energy>  (19) 
0.0

>  <rmsd>  (19) 
12.217

>  <sdf_rank>  (19) 
0

$$$$

     RDKit          3D

 49 52  0  0  0  0  0  0  0  0999 V2000
   16.0625    0.6692  -32.9928 C   0  0  0  0  0  0  0  0  0  0  0  0
   14.5311    0.6402  -33.0212 C   0  0  0  0  0  0  0  0  0  0  0  0
   13.9148    1.3356  -31.8754 C   0  0  0  0  0  0  0  0  0  0  0  0
   12.7754    1.0528  -31.5357 O   0  0  0  0  0  0  0  0  0  0  0  0
   14.7453    2.2864  -31.1784 C   0  0  0  0  0  0  0  0  0  0  0  0
   15.9458    2.7125  -31.5785 C   0  0  0  0  0  0  0  0  0  0  0  0
   16.5905    3.9030  -30.9158 C   0  0  0  0  0  0  0  0  0  0  0  0
   18.0505    3.6391  -30.5620 C   0  0  0  0  0  0  0  0  0  0  0  0
   18.8012    3.2046  -31.8116 C   0  0  2  0  0  0  0  0  0  0  0  0
   18.2042    1.9187  -32.4089 C   0  0  1  0  0  0  0  0  0  0  0  0
   16.6817    2.0557  -32.7440 C   0  0  1  0  0  0  0  0  0  0  0  0
   19.0442    1.4132  -33.5901 C   0  0  0  0  0  0  0  0  0  0  0  0
   20.5288    1.2910  -33.2577 C   0  0  0  0  0  0  0  0  0  0  0  0
   21.1175    2.5688  -32.7204 C   0  0  1  0  0  0  0  0  0  0  0  0
   20.2662    2.9433  -31.4925 C   0  0  1  0  0  0  0  0  0  0  0  0
   21.1088    4.0176  -30.7991 C   0  0  0  0  0  0  0  0  0  0  0  0
   22.5711    3.5862  -31.0454 C   0  0  0  0  0  0  0  0  0  0  0  0
   22.5075    2.4006  -32.0321 C   0  0  2  0  0  0  0  0  0  0  0  0
   23.6612    2.4109  -32.8996 O   0  0  0  0  0  0  0  0  0  0  0  0
   21.2439    3.6160  -33.8225 C   0  0  0  0  0  0  0  0  0  0  0  0
   16.4423    2.9534  -33.9594 C   0  0  0  0  0  0  0  0  0  0  0  0
   16.4018   -0.0047  -32.1923 H   0  0  0  0  0  0  0  0  0  0  0  0
   16.3947    0.3592  -33.9945 H   0  0  0  0  0  0  0  0  0  0  0  0
   14.1895    1.1237  -33.9483 H   0  0  0  0  0  0  0  0  0  0  0  0
   14.2232   -0.4145  -32.9673 H   0  0  0  0  0  0  0  0  0  0  0  0
   14.3558    2.6965  -30.2349 H   0  0  0  0  0  0  0  0  0  0  0  0
   16.5409    4.7613  -31.6019 H   0  0  0  0  0  0  0  0  0  0  0  0
   16.0463    4.1079  -29.9821 H   0  0  0  0  0  0  0  0  0  0  0  0
   18.5034    4.5584  -30.1625 H   0  0  0  0  0  0  0  0  0  0  0  0
   18.1074    2.8444  -29.8036 H   0  0  0  0  0  0  0  0  0  0  0  0
   18.7094    4.0231  -32.5406 H   0  0  0  0  0  0  0  0  0  0  0  0
   18.2532    1.1424  -31.6311 H   0  0  0  0  0  0  0  0  0  0  0  0
   18.6693    0.4231  -33.8884 H   0  0  0  0  0  0  0  0  0  0  0  0
   18.9484    2.1504  -34.4009 H   0  0  0  0  0  0  0  0  0  0  0  0
   20.6552    0.5017  -32.5021 H   0  0  0  0  0  0  0  0  0  0  0  0
   21.0572    1.0523  -34.1925 H   0  0  0  0  0  0  0  0  0  0  0  0
   20.0848    2.1286  -30.7761 H   0  0  0  0  0  0  0  0  0  0  0  0
   20.9163    5.0067  -31.2403 H   0  0  0  0  0  0  0  0  0  0  0  0
   20.8746    4.1040  -29.7278 H   0  0  0  0  0  0  0  0  0  0  0  0
   23.1455    4.4163  -31.4825 H   0  0  0  0  0  0  0  0  0  0  0  0
   23.0695    3.3016  -30.1070 H   0  0  0  0  0  0  0  0  0  0  0  0
   22.5646    1.4013  -31.5760 H   0  0  0  0  0  0  0  0  0  0  0  0
   24.4859    2.4182  -32.3519 H   0  0  0  0  0  0  0  0  0  0  0  0
   21.3641    4.6115  -33.3704 H   0  0  0  0  0  0  0  0  0  0  0  0
   22.1211    3.3881  -34.4459 H   0  0  0  0  0  0  0  0  0  0  0  0
   20.3377    3.6034  -34.4459 H   0  0  0  0  0  0  0  0  0  0  0  0
   16.1725    3.9647  -33.6208 H   0  0  0  0  0  0  0  0  0  0  0  0
   17.3588    3.0020  -34.5656 H   0  0  0  0  0  0  0  0  0  0  0  0
   15.6232    2.5391  -34.5656 H   0  0  0  0  0  0  0  0  0  0  0  0
  1  2  1  0
  1 11  1  0
  2  3  1  0
  3  4  2  0
  3  5  1  0
  5  6  2  0
  6  7  1  0
  6 11  1  0
  7  8  1  0
  9  8  1  0
  9 10  1  0
  9 15  1  0
 10 11  1  0
 10 12  1  0
 11 21  1  6
 12 13  1  0
 13 14  1  0
 14 15  1  0
 14 18  1  0
 14 20  1  6
 15 16  1  0
 16 17  1  0
 17 18  1  0
 18 19  1  0
  1 22  1  0
  1 23  1  0
  2 24  1  0
  2 25  1  0
  5 26  1  0
  7 27  1  0
  7 28  1  0
  8 29  1  0
  8 30  1  0
  9 31  1  6
 10 32  1  1
 12 33  1  0
 12 34  1  0
 13 35  1  0
 13 36  1  0
 15 37  1  1
 16 38  1  0
 16 39  1  0
 17 40  1  0
 17 41  1  0
 18 42  1  1
 19 43  1  0
 20 44  1  0
 20 45  1  0
 20 46  1  0
 21 47  1  0
 21 48  1  0
 21 49  1  0
M  END
>  <filename_input>  (20) 
7CL8_TES_docked.sdf

>  <pdb_id>  (20) 
7CL8_TES

>  <pose_rank>  (20) 
19

>  <num_atoms_heavy>  (20) 
21

>  <num_torsions>  (20) 
0

>  <pose>  (20) 
[16.06248061249798, 0.6692281191086058, -32.992751762254635, 4.269399684038013, 0.7477979669800074, -1.5596213296719648]

>  <energy>  (20) 
-110.42447448139208

>  <inter_energy>  (20) 
-106.06339648365838

>  <intra_energy>  (20) 
0.0

>  <rmsd>  (20) 
12.159

>  <sdf_rank>  (20) 
0

$$$$

     RDKit          3D

 49 52  0  0  0  0  0  0  0  0999 V2000
   15.9109  -15.5016  -16.8660 C   0  0  0  0  0  0  0  0  0  0  0  0
   14.4770  -15.1115  -17.2381 C   0  0  0  0  0  0  0  0  0  0  0  0
   13.8900  -14.1135  -16.3239 C   0  0  0  0  0  0  0  0  0  0  0  0
   12.6753  -14.0186  -16.2287 O   0  0  0  0  0  0  0  0  0  0  0  0
   14.8176  -13.3369  -15.5390 C   0  0  0  0  0  0  0  0  0  0  0  0
   16.1441  -13.3213  -15.6910 C   0  0  0  0  0  0  0  0  0  0  0  0
   16.9766  -12.2710  -15.0014 C   0  0  0  0  0  0  0  0  0  0  0  0
   18.1933  -12.8721  -14.3053 C   0  0  0  0  0  0  0  0  0  0  0  0
   19.0043  -13.6745  -15.3115 C   0  0  2  0  0  0  0  0  0  0  0  0
   18.1750  -14.8191  -15.9188 C   0  0  1  0  0  0  0  0  0  0  0  0
   16.8582  -14.3185  -16.6004 C   0  0  1  0  0  0  0  0  0  0  0  0
   19.0349  -15.7034  -16.8324 C   0  0  0  0  0  0  0  0  0  0  0  0
   20.3213  -16.1799  -16.1634 C   0  0  0  0  0  0  0  0  0  0  0  0
   21.1519  -15.0495  -15.6155 C   0  0  1  0  0  0  0  0  0  0  0  0
   20.2332  -14.2796  -14.6481 C   0  0  1  0  0  0  0  0  0  0  0  0
   21.2099  -13.3896  -13.8742 C   0  0  0  0  0  0  0  0  0  0  0  0
   22.4937  -14.2384  -13.7460 C   0  0  0  0  0  0  0  0  0  0  0  0
   22.2677  -15.4916  -14.6187 C   0  0  2  0  0  0  0  0  0  0  0  0
   23.5154  -15.9265  -15.2001 O   0  0  0  0  0  0  0  0  0  0  0  0
   21.7964  -14.2505  -16.7440 C   0  0  0  0  0  0  0  0  0  0  0  0
   17.1378  -13.5773  -17.9091 C   0  0  0  0  0  0  0  0  0  0  0  0
   15.8717  -16.1183  -15.9560 H   0  0  0  0  0  0  0  0  0  0  0  0
   16.3207  -16.0342  -17.7369 H   0  0  0  0  0  0  0  0  0  0  0  0
   14.4813  -14.6935  -18.2556 H   0  0  0  0  0  0  0  0  0  0  0  0
   13.8622  -16.0209  -17.1673 H   0  0  0  0  0  0  0  0  0  0  0  0
   14.3956  -12.7021  -14.7459 H   0  0  0  0  0  0  0  0  0  0  0  0
   17.3201  -11.5420  -15.7503 H   0  0  0  0  0  0  0  0  0  0  0  0
   16.3504  -11.7898  -14.2357 H   0  0  0  0  0  0  0  0  0  0  0  0
   18.8160  -12.0650  -13.8919 H   0  0  0  0  0  0  0  0  0  0  0  0
   17.8621  -13.5319  -13.4899 H   0  0  0  0  0  0  0  0  0  0  0  0
   19.3046  -12.9780  -16.1082 H   0  0  0  0  0  0  0  0  0  0  0  0
   17.8381  -15.4565  -15.0880 H   0  0  0  0  0  0  0  0  0  0  0  0
   18.4445  -16.5845  -17.1241 H   0  0  0  0  0  0  0  0  0  0  0  0
   19.3227  -15.0952  -17.7026 H   0  0  0  0  0  0  0  0  0  0  0  0
   20.0570  -16.8543  -15.3355 H   0  0  0  0  0  0  0  0  0  0  0  0
   20.9228  -16.6890  -16.9308 H   0  0  0  0  0  0  0  0  0  0  0  0
   19.6812  -14.8990  -13.9258 H   0  0  0  0  0  0  0  0  0  0  0  0
   21.4120  -12.4614  -14.4287 H   0  0  0  0  0  0  0  0  0  0  0  0
   20.8111  -13.0864  -12.8950 H   0  0  0  0  0  0  0  0  0  0  0  0
   23.3637  -13.6719  -14.1095 H   0  0  0  0  0  0  0  0  0  0  0  0
   22.6935  -14.5089  -12.6986 H   0  0  0  0  0  0  0  0  0  0  0  0
   21.9332  -16.3901  -14.0795 H   0  0  0  0  0  0  0  0  0  0  0  0
   24.1555  -16.1497  -14.4786 H   0  0  0  0  0  0  0  0  0  0  0  0
   22.4331  -13.4614  -16.3174 H   0  0  0  0  0  0  0  0  0  0  0  0
   22.4095  -14.9210  -17.3642 H   0  0  0  0  0  0  0  0  0  0  0  0
   21.0115  -13.7931  -17.3642 H   0  0  0  0  0  0  0  0  0  0  0  0
   17.5179  -12.5695  -17.6857 H   0  0  0  0  0  0  0  0  0  0  0  0
   17.8886  -14.1317  -18.4913 H   0  0  0  0  0  0  0  0  0  0  0  0
   16.2079  -13.4977  -18.4913 H   0  0  0  0  0  0  0  0  0  0  0  0
  1  2  1  0
  1 11  1  0
  2  3  1  0
  3  4  2  0
  3  5  1  0
  5  6  2  0
  6  7  1  0
  6 11  1  0
  7  8  1  0
  9  8  1  0
  9 10  1  0
  9 15  1  0
 10 11  1  0
 10 12  1  0
 11 21  1  6
 12 13  1  0
 13 14  1  0
 14 15  1  0
 14 18  1  0
 14 20  1  6
 15 16  1  0
 16 17  1  0
 17 18  1  0
 18 19  1  0
  1 22  1  0
  1 23  1  0
  2 24  1  0
  2 25  1  0
  5 26  1  0
  7 27  1  0
  7 28  1  0
  8 29  1  0
  8 30  1  0
  9 31  1  6
 10 32  1  1
 12 33  1  0
 12 34  1  0
 13 35  1  0
 13 36  1  0
 15 37  1  1
 16 38  1  0
 16 39  1  0
 17 40  1  0
 17 41  1  0
 18 42  1  1
 19 43  1  0
 20 44  1  0
 20 45  1  0
 20 46  1  0
 21 47  1  0
 21 48  1  0
 21 49  1  0
M  END
>  <filename_input>  (21) 
7CL8_TES_docked.sdf

>  <pdb_id>  (21) 
7CL8_TES

>  <pose_rank>  (21) 
20

>  <num_atoms_heavy>  (21) 
21

>  <num_torsions>  (21) 
0

>  <pose>  (21) 
[15.910941133857685, -15.50160646044985, -16.865982131498377, 4.483475946548782, 0.43631368742682, -0.4874149275052743]

>  <energy>  (21) 
-105.96476173503136

>  <inter_energy>  (21) 
-100.6180830648127

>  <intra_energy>  (21) 
0.0

>  <rmsd>  (21) 
11.9089

>  <sdf_rank>  (21) 
0

$$$$

     RDKit          3D

 49 52  0  0  0  0  0  0  0  0999 V2000
   13.1092    2.6263  -17.0571 C   0  0  0  0  0  0  0  0  0  0  0  0
   11.5810    2.5771  -16.9612 C   0  0  0  0  0  0  0  0  0  0  0  0
   11.0859    1.4615  -16.1326 C   0  0  0  0  0  0  0  0  0  0  0  0
    9.9484    1.0447  -16.2935 O   0  0  0  0  0  0  0  0  0  0  0  0
   12.0260    0.8842  -15.2039 C   0  0  0  0  0  0  0  0  0  0  0  0
   13.2324    1.3756  -14.9102 C   0  0  0  0  0  0  0  0  0  0  0  0
   14.0045    0.8425  -13.7306 C   0  0  0  0  0  0  0  0  0  0  0  0
   15.4566    0.5409  -14.0870 C   0  0  0  0  0  0  0  0  0  0  0  0
   16.1003    1.7872  -14.6753 C   0  0  2  0  0  0  0  0  0  0  0  0
   15.3717    2.2500  -15.9488 C   0  0  1  0  0  0  0  0  0  0  0  0
   13.8485    2.5197  -15.7118 C   0  0  1  0  0  0  0  0  0  0  0  0
   16.1025    3.4269  -16.6099 C   0  0  0  0  0  0  0  0  0  0  0  0
   17.5890    3.1592  -16.8292 C   0  0  0  0  0  0  0  0  0  0  0  0
   18.3054    2.7551  -15.5676 C   0  0  1  0  0  0  0  0  0  0  0  0
   17.5556    1.5207  -15.0322 C   0  0  1  0  0  0  0  0  0  0  0  0
   18.5174    0.9574  -13.9821 C   0  0  0  0  0  0  0  0  0  0  0  0
   19.9252    1.2401  -14.5505 C   0  0  0  0  0  0  0  0  0  0  0  0
   19.7138    2.1248  -15.7979 C   0  0  2  0  0  0  0  0  0  0  0  0
   20.8149    3.0460  -15.9488 O   0  0  0  0  0  0  0  0  0  0  0  0
   18.4526    3.9422  -14.6208 C   0  0  0  0  0  0  0  0  0  0  0  0
   13.6135    3.7896  -14.8917 C   0  0  0  0  0  0  0  0  0  0  0  0
   13.4382    1.7923  -17.6944 H   0  0  0  0  0  0  0  0  0  0  0  0
   13.3599    3.6152  -17.4683 H   0  0  0  0  0  0  0  0  0  0  0  0
   11.2277    3.5219  -16.5225 H   0  0  0  0  0  0  0  0  0  0  0  0
   11.1945    2.4241  -17.9797 H   0  0  0  0  0  0  0  0  0  0  0  0
   11.7230   -0.0415  -14.6929 H   0  0  0  0  0  0  0  0  0  0  0  0
   13.9848    1.5916  -12.9253 H   0  0  0  0  0  0  0  0  0  0  0  0
   13.5309   -0.0976  -13.4113 H   0  0  0  0  0  0  0  0  0  0  0  0
   16.0020    0.2388  -13.1808 H   0  0  0  0  0  0  0  0  0  0  0  0
   15.4928   -0.2748  -14.8240 H   0  0  0  0  0  0  0  0  0  0  0  0
   16.0330    2.5739  -13.9094 H   0  0  0  0  0  0  0  0  0  0  0  0
   15.4025    1.4161  -16.6655 H   0  0  0  0  0  0  0  0  0  0  0  0
   15.6348    3.6265  -17.5852 H   0  0  0  0  0  0  0  0  0  0  0  0
   16.0203    4.2882  -15.9307 H   0  0  0  0  0  0  0  0  0  0  0  0
   17.6946    2.3502  -17.5670 H   0  0  0  0  0  0  0  0  0  0  0  0
   18.0443    4.0968  -17.1808 H   0  0  0  0  0  0  0  0  0  0  0  0
   17.3506    0.7335  -15.7726 H   0  0  0  0  0  0  0  0  0  0  0  0
   18.3792    1.4662  -13.0166 H   0  0  0  0  0  0  0  0  0  0  0  0
   18.3504   -0.1137  -13.7959 H   0  0  0  0  0  0  0  0  0  0  0  0
   20.5381    1.7698  -13.8063 H   0  0  0  0  0  0  0  0  0  0  0  0
   20.4510    0.3077  -14.8037 H   0  0  0  0  0  0  0  0  0  0  0  0
   19.7173    1.5937  -16.7612 H   0  0  0  0  0  0  0  0  0  0  0  0
   21.1415    3.3192  -15.0551 H   0  0  0  0  0  0  0  0  0  0  0  0
   18.4088    3.5887  -13.5801 H   0  0  0  0  0  0  0  0  0  0  0  0
   19.4189    4.4363  -14.7998 H   0  0  0  0  0  0  0  0  0  0  0  0
   17.6363    4.6574  -14.7998 H   0  0  0  0  0  0  0  0  0  0  0  0
   13.6583    3.5473  -13.8197 H   0  0  0  0  0  0  0  0  0  0  0  0
   14.3897    4.5307  -15.1329 H   0  0  0  0  0  0  0  0  0  0  0  0
   12.6234    4.2039  -15.1329 H   0  0  0  0  0  0  0  0  0  0  0  0
  1  2  1  0
  1 11  1  0
  2  3  1  0
  3  4  2  0
  3  5  1  0
  5  6  2  0
  6  7  1  0
  6 11  1  0
  7  8  1  0
  9  8  1  0
  9 10  1  0
  9 15  1  0
 10 11  1  0
 10 12  1  0
 11 21  1  1
 12 13  1  0
 13 14  1  0
 14 15  1  0
 14 18  1  0
 14 20  1  1
 15 16  1  0
 16 17  1  0
 17 18  1  0
 18 19  1  0
  1 22  1  0
  1 23  1  0
  2 24  1  0
  2 25  1  0
  5 26  1  0
  7 27  1  0
  7 28  1  0
  8 29  1  0
  8 30  1  0
  9 31  1  1
 10 32  1  6
 12 33  1  0
 12 34  1  0
 13 35  1  0
 13 36  1  0
 15 37  1  6
 16 38  1  0
 16 39  1  0
 17 40  1  0
 17 41  1  0
 18 42  1  6
 19 43  1  0
 20 44  1  0
 20 45  1  0
 20 46  1  0
 21 47  1  0
 21 48  1  0
 21 49  1  0
M  END
>  <filename_input>  (22) 
7CL8_TES_docked.sdf

>  <pdb_id>  (22) 
7CL8_TES

>  <pose_rank>  (22) 
21

>  <num_atoms_heavy>  (22) 
21

>  <num_torsions>  (22) 
0

>  <pose>  (22) 
[13.109162688458932, 2.6263041320762532, -17.05705890031574, 0.9161271672400222, 4.914887148140349, -2.8600305064039055]

>  <energy>  (22) 
-96.10651928285405

>  <inter_energy>  (22) 
-92.53677542224227

>  <intra_energy>  (22) 
0.0

>  <rmsd>  (22) 
12.2207

>  <sdf_rank>  (22) 
0

$$$$

     RDKit          3D

 49 52  0  0  0  0  0  0  0  0999 V2000
   14.1901  -15.8569  -16.5699 C   0  0  0  0  0  0  0  0  0  0  0  0
   12.6808  -16.1136  -16.6271 C   0  0  0  0  0  0  0  0  0  0  0  0
   11.9669  -15.6558  -15.4201 C   0  0  0  0  0  0  0  0  0  0  0  0
   10.8840  -16.1447  -15.1339 O   0  0  0  0  0  0  0  0  0  0  0  0
   12.6436  -14.6768  -14.6057 C   0  0  0  0  0  0  0  0  0  0  0  0
   13.7651  -14.0310  -14.9346 C   0  0  0  0  0  0  0  0  0  0  0  0
   14.2217  -12.8410  -14.1301 C   0  0  0  0  0  0  0  0  0  0  0  0
   15.7051  -12.9200  -13.7843 C   0  0  0  0  0  0  0  0  0  0  0  0
   16.5123  -13.0895  -15.0624 C   0  0  2  0  0  0  0  0  0  0  0  0
   16.1173  -14.3736  -15.8120 C   0  0  1  0  0  0  0  0  0  0  0  0
   14.5914  -14.4306  -16.1548 C   0  0  1  0  0  0  0  0  0  0  0  0
   17.0235  -14.6070  -17.0288 C   0  0  0  0  0  0  0  0  0  0  0  0
   18.5096  -14.5408  -16.6877 C   0  0  0  0  0  0  0  0  0  0  0  0
   18.8976  -13.2591  -15.9987 C   0  0  1  0  0  0  0  0  0  0  0  0
   18.0002  -13.1612  -14.7506 C   0  0  1  0  0  0  0  0  0  0  0  0
   18.6702  -12.0588  -13.9255 C   0  0  0  0  0  0  0  0  0  0  0  0
   20.1808  -12.2330  -14.1948 C   0  0  0  0  0  0  0  0  0  0  0  0
   20.2975  -13.2932  -15.3109 C   0  0  2  0  0  0  0  0  0  0  0  0
   21.4356  -13.0090  -16.1522 O   0  0  0  0  0  0  0  0  0  0  0  0
   18.8624  -12.0852  -16.9724 C   0  0  0  0  0  0  0  0  0  0  0  0
   14.2173  -13.4457  -17.2640 C   0  0  0  0  0  0  0  0  0  0  0  0
   14.6285  -16.5593  -15.8457 H   0  0  0  0  0  0  0  0  0  0  0  0
   14.5648  -15.9959  -17.5947 H   0  0  0  0  0  0  0  0  0  0  0  0
   12.2690  -15.5840  -17.4988 H   0  0  0  0  0  0  0  0  0  0  0  0
   12.5370  -17.2018  -16.6986 H   0  0  0  0  0  0  0  0  0  0  0  0
   12.1970  -14.4416  -13.6283 H   0  0  0  0  0  0  0  0  0  0  0  0
   14.0416  -11.9268  -14.7149 H   0  0  0  0  0  0  0  0  0  0  0  0
   13.6535  -12.8294  -13.1884 H   0  0  0  0  0  0  0  0  0  0  0  0
   16.0133  -11.9948  -13.2753 H   0  0  0  0  0  0  0  0  0  0  0  0
   15.8829  -13.7788  -13.1203 H   0  0  0  0  0  0  0  0  0  0  0  0
   16.2965  -12.2159  -15.6951 H   0  0  0  0  0  0  0  0  0  0  0  0
   16.2844  -15.2177  -15.1268 H   0  0  0  0  0  0  0  0  0  0  0  0
   16.8032  -15.6016  -17.4440 H   0  0  0  0  0  0  0  0  0  0  0  0
   16.8161  -13.8046  -17.7520 H   0  0  0  0  0  0  0  0  0  0  0  0
   18.7552  -15.3836  -16.0247 H   0  0  0  0  0  0  0  0  0  0  0  0
   19.0675  -14.5879  -17.6345 H   0  0  0  0  0  0  0  0  0  0  0  0
   17.9453  -14.0709  -14.1347 H   0  0  0  0  0  0  0  0  0  0  0  0
   18.3291  -11.0661  -14.2546 H   0  0  0  0  0  0  0  0  0  0  0  0
   18.4263  -12.1325  -12.8555 H   0  0  0  0  0  0  0  0  0  0  0  0
   20.6220  -11.2810  -14.5251 H   0  0  0  0  0  0  0  0  0  0  0  0
   20.7175  -12.5449  -13.2867 H   0  0  0  0  0  0  0  0  0  0  0  0
   20.5063  -14.3181  -14.9705 H   0  0  0  0  0  0  0  0  0  0  0  0
   22.2236  -12.8123  -15.5861 H   0  0  0  0  0  0  0  0  0  0  0  0
   18.8342  -11.1414  -16.4080 H   0  0  0  0  0  0  0  0  0  0  0  0
   19.7616  -12.1069  -17.6056 H   0  0  0  0  0  0  0  0  0  0  0  0
   17.9662  -12.1607  -17.6056 H   0  0  0  0  0  0  0  0  0  0  0  0
   13.8606  -12.5067  -16.8156 H   0  0  0  0  0  0  0  0  0  0  0  0
   15.1007  -13.2422  -17.8870 H   0  0  0  0  0  0  0  0  0  0  0  0
   13.4215  -13.8801  -17.8870 H   0  0  0  0  0  0  0  0  0  0  0  0
  1  2  1  0
  1 11  1  0
  2  3  1  0
  3  4  2  0
  3  5  1  0
  5  6  2  0
  6  7  1  0
  6 11  1  0
  7  8  1  0
  9  8  1  0
  9 10  1  0
  9 15  1  0
 10 11  1  0
 10 12  1  0
 11 21  1  6
 12 13  1  0
 13 14  1  0
 14 15  1  0
 14 18  1  0
 14 20  1  6
 15 16  1  0
 16 17  1  0
 17 18  1  0
 18 19  1  0
  1 22  1  0
  1 23  1  0
  2 24  1  0
  2 25  1  0
  5 26  1  0
  7 27  1  0
  7 28  1  0
  8 29  1  0
  8 30  1  0
  9 31  1  6
 10 32  1  1
 12 33  1  0
 12 34  1  0
 13 35  1  0
 13 36  1  0
 15 37  1  1
 16 38  1  0
 16 39  1  0
 17 40  1  0
 17 41  1  0
 18 42  1  1
 19 43  1  0
 20 44  1  0
 20 45  1  0
 20 46  1  0
 21 47  1  0
 21 48  1  0
 21 49  1  0
M  END
>  <filename_input>  (23) 
7CL8_TES_docked.sdf

>  <pdb_id>  (23) 
7CL8_TES

>  <pose_rank>  (23) 
22

>  <num_atoms_heavy>  (23) 
21

>  <num_torsions>  (23) 
0

>  <pose>  (23) 
[14.190053681038771, -15.856904006054974, -16.5699016950676, 4.08600864973489, 1.2127327167338735, -1.8648693797886078]

>  <energy>  (23) 
-98.45413105310735

>  <inter_energy>  (23) 
-102.79286278813073

>  <intra_energy>  (23) 
0.0

>  <rmsd>  (23) 
11.8394

>  <sdf_rank>  (23) 
0

$$$$

     RDKit          3D

 49 52  0  0  0  0  0  0  0  0999 V2000
   10.9724    3.7676  -30.2168 C   0  0  0  0  0  0  0  0  0  0  0  0
    9.7219    3.6185  -29.3443 C   0  0  0  0  0  0  0  0  0  0  0  0
    9.0627    2.3070  -29.4921 C   0  0  0  0  0  0  0  0  0  0  0  0
    7.8797    2.1876  -29.2097 O   0  0  0  0  0  0  0  0  0  0  0  0
    9.8687    1.2397  -30.0315 C   0  0  0  0  0  0  0  0  0  0  0  0
   11.1861    1.2892  -30.2433 C   0  0  0  0  0  0  0  0  0  0  0  0
   11.9555    0.0296  -30.5487 C   0  0  0  0  0  0  0  0  0  0  0  0
   12.8955    0.2078  -31.7366 C   0  0  0  0  0  0  0  0  0  0  0  0
   13.8158    1.3910  -31.4780 C   0  0  2  0  0  0  0  0  0  0  0  0
   13.0190    2.6931  -31.2870 C   0  0  1  0  0  0  0  0  0  0  0  0
   11.9670    2.5966  -30.1325 C   0  0  1  0  0  0  0  0  0  0  0  0
   13.9552    3.9027  -31.1578 C   0  0  0  0  0  0  0  0  0  0  0  0
   14.9837    3.9845  -32.2825 C   0  0  0  0  0  0  0  0  0  0  0  0
   15.7938    2.7235  -32.4303 C   0  0  1  0  0  0  0  0  0  0  0  0
   14.7746    1.5884  -32.6433 C   0  0  1  0  0  0  0  0  0  0  0  0
   15.6441    0.4269  -33.1329 C   0  0  0  0  0  0  0  0  0  0  0  0
   16.7512    1.0965  -33.9761 C   0  0  0  0  0  0  0  0  0  0  0  0
   16.5855    2.6175  -33.7704 C   0  0  2  0  0  0  0  0  0  0  0  0
   17.8726    3.2699  -33.8115 O   0  0  0  0  0  0  0  0  0  0  0  0
   16.7745    2.5673  -31.2723 C   0  0  0  0  0  0  0  0  0  0  0  0
   12.6305    2.5812  -28.7541 C   0  0  0  0  0  0  0  0  0  0  0  0
   10.6485    3.8657  -31.2634 H   0  0  0  0  0  0  0  0  0  0  0  0
   11.5064    4.6525  -29.8403 H   0  0  0  0  0  0  0  0  0  0  0  0
   10.0131    3.7466  -28.2913 H   0  0  0  0  0  0  0  0  0  0  0  0
    9.0028    4.3842  -29.6706 H   0  0  0  0  0  0  0  0  0  0  0  0
    9.3532    0.3033  -30.2910 H   0  0  0  0  0  0  0  0  0  0  0  0
   12.5488   -0.2472  -29.6648 H   0  0  0  0  0  0  0  0  0  0  0  0
   11.2308   -0.7576  -30.8040 H   0  0  0  0  0  0  0  0  0  0  0  0
   13.4972   -0.7035  -31.8686 H   0  0  0  0  0  0  0  0  0  0  0  0
   12.3067    0.3917  -32.6473 H   0  0  0  0  0  0  0  0  0  0  0  0
   14.3747    1.1661  -30.5576 H   0  0  0  0  0  0  0  0  0  0  0  0
   12.4239    2.8500  -32.1987 H   0  0  0  0  0  0  0  0  0  0  0  0
   13.3473    4.8194  -31.1715 H   0  0  0  0  0  0  0  0  0  0  0  0
   14.5086    3.7908  -30.2137 H   0  0  0  0  0  0  0  0  0  0  0  0
   14.4549    4.1746  -33.2281 H   0  0  0  0  0  0  0  0  0  0  0  0
   15.6816    4.7971  -32.0324 H   0  0  0  0  0  0  0  0  0  0  0  0
   13.9993    1.7840  -33.3988 H   0  0  0  0  0  0  0  0  0  0  0  0
   16.0799   -0.1173  -32.2821 H   0  0  0  0  0  0  0  0  0  0  0  0
   15.0679   -0.3102  -33.7114 H   0  0  0  0  0  0  0  0  0  0  0  0
   17.7436    0.7706  -33.6312 H   0  0  0  0  0  0  0  0  0  0  0  0
   16.6679    0.8233  -35.0384 H   0  0  0  0  0  0  0  0  0  0  0  0
   16.0292    3.1443  -34.5597 H   0  0  0  0  0  0  0  0  0  0  0  0
   18.1905    3.4310  -32.8879 H   0  0  0  0  0  0  0  0  0  0  0  0
   16.2327    2.6536  -30.3188 H   0  0  0  0  0  0  0  0  0  0  0  0
   17.2576    1.5808  -31.3315 H   0  0  0  0  0  0  0  0  0  0  0  0
   17.5402    3.3547  -31.3315 H   0  0  0  0  0  0  0  0  0  0  0  0
   11.8553    2.5992  -27.9738 H   0  0  0  0  0  0  0  0  0  0  0  0
   13.2358    1.6687  -28.6487 H   0  0  0  0  0  0  0  0  0  0  0  0
   13.2774    3.4645  -28.6487 H   0  0  0  0  0  0  0  0  0  0  0  0
  1  2  1  0
  1 11  1  0
  2  3  1  0
  3  4  2  0
  3  5  1  0
  5  6  2  0
  6  7  1  0
  6 11  1  0
  7  8  1  0
  9  8  1  0
  9 10  1  0
  9 15  1  0
 10 11  1  0
 10 12  1  0
 11 21  1  1
 12 13  1  0
 13 14  1  0
 14 15  1  0
 14 18  1  0
 14 20  1  1
 15 16  1  0
 16 17  1  0
 17 18  1  0
 18 19  1  0
  1 22  1  0
  1 23  1  0
  2 24  1  0
  2 25  1  0
  5 26  1  0
  7 27  1  0
  7 28  1  0
  8 29  1  0
  8 30  1  0
  9 31  1  1
 10 32  1  6
 12 33  1  0
 12 34  1  0
 13 35  1  0
 13 36  1  0
 15 37  1  6
 16 38  1  0
 16 39  1  0
 17 40  1  0
 17 41  1  0
 18 42  1  6
 19 43  1  0
 20 44  1  0
 20 45  1  0
 20 46  1  0
 21 47  1  0
 21 48  1  0
 21 49  1  0
M  END
>  <filename_input>  (24) 
7CL8_TES_docked.sdf

>  <pdb_id>  (24) 
7CL8_TES

>  <pose_rank>  (24) 
23

>  <num_atoms_heavy>  (24) 
21

>  <num_torsions>  (24) 
0

>  <pose>  (24) 
[10.972353751653065, 3.767571024760695, -30.21676104498741, -5.20370045633017, -0.23605019891991272, 1.3780137249531381]

>  <energy>  (24) 
-70.01831492058126

>  <inter_energy>  (24) 
-65.20853910933526

>  <intra_energy>  (24) 
0.0

>  <rmsd>  (24) 
12.1239

>  <sdf_rank>  (24) 
0

$$$$

     RDKit          3D

 49 52  0  0  0  0  0  0  0  0999 V2000
   22.4961    2.2377  -33.4315 C   0  0  0  0  0  0  0  0  0  0  0  0
   23.9975    1.9659  -33.2936 C   0  0  0  0  0  0  0  0  0  0  0  0
   24.5993    2.6124  -32.1120 C   0  0  0  0  0  0  0  0  0  0  0  0
   25.7998    2.8401  -32.0908 O   0  0  0  0  0  0  0  0  0  0  0  0
   23.6931    2.9957  -31.0577 C   0  0  0  0  0  0  0  0  0  0  0  0
   22.4013    2.6661  -30.9829 C   0  0  0  0  0  0  0  0  0  0  0  0
   21.6315    2.8906  -29.7066 C   0  0  0  0  0  0  0  0  0  0  0  0
   20.2854    3.5611  -29.9614 C   0  0  0  0  0  0  0  0  0  0  0  0
   19.4954    2.7388  -30.9682 C   0  0  2  0  0  0  0  0  0  0  0  0
   20.2422    2.6195  -32.3079 C   0  0  1  0  0  0  0  0  0  0  0  0
   21.6736    2.0065  -32.1519 C   0  0  1  0  0  0  0  0  0  0  0  0
   19.3843    1.9024  -33.3596 C   0  0  0  0  0  0  0  0  0  0  0  0
   17.9871    2.5006  -33.4991 C   0  0  0  0  0  0  0  0  0  0  0  0
   17.2437    2.5677  -32.1911 C   0  0  1  0  0  0  0  0  0  0  0  0
   18.1403    3.3778  -31.2359 C   0  0  1  0  0  0  0  0  0  0  0  0
   17.2003    3.7101  -30.0737 C   0  0  0  0  0  0  0  0  0  0  0  0
   15.8183    3.9087  -30.7339 C   0  0  0  0  0  0  0  0  0  0  0  0
   15.9845    3.4886  -32.2101 C   0  0  2  0  0  0  0  0  0  0  0  0
   14.7622    2.8984  -32.7016 O   0  0  0  0  0  0  0  0  0  0  0  0
   16.8212    1.1754  -31.7327 C   0  0  0  0  0  0  0  0  0  0  0  0
   21.6236    0.5110  -31.8336 C   0  0  0  0  0  0  0  0  0  0  0  0
   22.3657    3.2865  -33.7363 H   0  0  0  0  0  0  0  0  0  0  0  0
   22.1201    1.5176  -34.1732 H   0  0  0  0  0  0  0  0  0  0  0  0
   24.1501    0.8795  -33.2133 H   0  0  0  0  0  0  0  0  0  0  0  0
   24.4889    2.3879  -34.1826 H   0  0  0  0  0  0  0  0  0  0  0  0
   24.1016    3.6134  -30.2444 H   0  0  0  0  0  0  0  0  0  0  0  0
   21.4580    1.9190  -29.2209 H   0  0  0  0  0  0  0  0  0  0  0  0
   22.2263    3.5563  -29.0638 H   0  0  0  0  0  0  0  0  0  0  0  0
   19.7231    3.6260  -29.0183 H   0  0  0  0  0  0  0  0  0  0  0  0
   20.4481    4.5733  -30.3600 H   0  0  0  0  0  0  0  0  0  0  0  0
   19.3657    1.7375  -30.5316 H   0  0  0  0  0  0  0  0  0  0  0  0
   20.4115    3.6404  -32.6809 H   0  0  0  0  0  0  0  0  0  0  0  0
   19.8933    1.9702  -34.3324 H   0  0  0  0  0  0  0  0  0  0  0  0
   19.2642    0.8597  -33.0304 H   0  0  0  0  0  0  0  0  0  0  0  0
   18.0806    3.5198  -33.9021 H   0  0  0  0  0  0  0  0  0  0  0  0
   17.4136    1.8450  -34.1709 H   0  0  0  0  0  0  0  0  0  0  0  0
   18.5356    4.3202  -31.6430 H   0  0  0  0  0  0  0  0  0  0  0  0
   17.1695    2.8820  -29.3503 H   0  0  0  0  0  0  0  0  0  0  0  0
   17.5268    4.5994  -29.5147 H   0  0  0  0  0  0  0  0  0  0  0  0
   15.0650    3.2775  -30.2398 H   0  0  0  0  0  0  0  0  0  0  0  0
   15.4785    4.9515  -30.6487 H   0  0  0  0  0  0  0  0  0  0  0  0
   16.1511    4.3115  -32.9208 H   0  0  0  0  0  0  0  0  0  0  0  0
   14.1966    2.6253  -31.9364 H   0  0  0  0  0  0  0  0  0  0  0  0
   16.8102    1.1390  -30.6333 H   0  0  0  0  0  0  0  0  0  0  0  0
   15.8150    0.9524  -32.1170 H   0  0  0  0  0  0  0  0  0  0  0  0
   17.5339    0.4308  -32.1170 H   0  0  0  0  0  0  0  0  0  0  0  0
   21.6188    0.3682  -30.7429 H   0  0  0  0  0  0  0  0  0  0  0  0
   20.7103    0.0747  -32.2645 H   0  0  0  0  0  0  0  0  0  0  0  0
   22.5056    0.0147  -32.2645 H   0  0  0  0  0  0  0  0  0  0  0  0
  1  2  1  0
  1 11  1  0
  2  3  1  0
  3  4  2  0
  3  5  1  0
  5  6  2  0
  6  7  1  0
  6 11  1  0
  7  8  1  0
  9  8  1  0
  9 10  1  0
  9 15  1  0
 10 11  1  0
 10 12  1  0
 11 21  1  1
 12 13  1  0
 13 14  1  0
 14 15  1  0
 14 18  1  0
 14 20  1  1
 15 16  1  0
 16 17  1  0
 17 18  1  0
 18 19  1  0
  1 22  1  0
  1 23  1  0
  2 24  1  0
  2 25  1  0
  5 26  1  0
  7 27  1  0
  7 28  1  0
  8 29  1  0
  8 30  1  0
  9 31  1  1
 10 32  1  6
 12 33  1  0
 12 34  1  0
 13 35  1  0
 13 36  1  0
 15 37  1  6
 16 38  1  0
 16 39  1  0
 17 40  1  0
 17 41  1  0
 18 42  1  6
 19 43  1  0
 20 44  1  0
 20 45  1  0
 20 46  1  0
 21 47  1  0
 21 48  1  0
 21 49  1  0
M  END
>  <filename_input>  (25) 
7CL8_TES_docked.sdf

>  <pdb_id>  (25) 
7CL8_TES

>  <pose_rank>  (25) 
24

>  <num_atoms_heavy>  (25) 
21

>  <num_torsions>  (25) 
0

>  <pose>  (25) 
[22.496148147211454, 2.2376559468963673, -33.431549396288474, -0.4892754376152955, 0.6882831860787031, -2.8599634505454734]

>  <energy>  (25) 
-36.48561689267526

>  <inter_energy>  (25) 
-45.374809576579565

>  <intra_energy>  (25) 
0.0

>  <rmsd>  (25) 
13.565

>  <sdf_rank>  (25) 
0

$$$$

     RDKit          3D

 49 52  0  0  0  0  0  0  0  0999 V2000
   15.2410   -4.9010  -24.3430 C   0  0  0  0  0  0  0  0  0  0  0  0
   13.9390   -4.6100  -23.5900 C   0  0  0  0  0  0  0  0  0  0  0  0
   13.5560   -5.6840  -22.6540 C   0  0  0  0  0  0  0  0  0  0  0  0
   12.3890   -5.8020  -22.3110 O   0  0  0  0  0  0  0  0  0  0  0  0
   14.6060   -6.5830  -22.2430 C   0  0  0  0  0  0  0  0  0  0  0  0
   15.9080   -6.4270  -22.4950 C   0  0  0  0  0  0  0  0  0  0  0  0
   16.9280   -7.2790  -21.7840 C   0  0  0  0  0  0  0  0  0  0  0  0
   17.9620   -7.8550  -22.7460 C   0  0  0  0  0  0  0  0  0  0  0  0
   18.6090   -6.7220  -23.5280 C   0  0  2  0  0  0  0  0  0  0  0  0
   17.5690   -5.9350  -24.3440 C   0  0  1  0  0  0  0  0  0  0  0  0
   16.4150   -5.3570  -23.4590 C   0  0  1  0  0  0  0  0  0  0  0  0
   18.2430   -4.8790  -25.2310 C   0  0  0  0  0  0  0  0  0  0  0  0
   19.3730   -5.4490  -26.0840 C   0  0  0  0  0  0  0  0  0  0  0  0
   20.4130   -6.1750  -25.2720 C   0  0  1  0  0  0  0  0  0  0  0  0
   19.6550   -7.2650  -24.4910 C   0  0  1  0  0  0  0  0  0  0  0  0
   20.7780   -8.1720  -23.9800 C   0  0  0  0  0  0  0  0  0  0  0  0
   21.8410   -8.1460  -25.1000 C   0  0  0  0  0  0  0  0  0  0  0  0
   21.3740   -7.0750  -26.1090 C   0  0  2  0  0  0  0  0  0  0  0  0
   22.5140   -6.4200  -26.7050 O   0  0  0  0  0  0  0  0  0  0  0  0
   21.2510   -5.1940  -24.4580 C   0  0  0  0  0  0  0  0  0  0  0  0
   16.8900   -4.1910  -22.5900 C   0  0  0  0  0  0  0  0  0  0  0  0
   15.0399   -5.6935  -25.0788 H   0  0  0  0  0  0  0  0  0  0  0  0
   15.5513   -3.9497  -24.7998 H   0  0  0  0  0  0  0  0  0  0  0  0
   14.0659   -3.6781  -23.0196 H   0  0  0  0  0  0  0  0  0  0  0  0
   13.1386   -4.5297  -24.3403 H   0  0  0  0  0  0  0  0  0  0  0  0
   14.3084   -7.4750  -21.6722 H   0  0  0  0  0  0  0  0  0  0  0  0
   17.4453   -6.6623  -21.0343 H   0  0  0  0  0  0  0  0  0  0  0  0
   16.3985   -8.1194  -21.3113 H   0  0  0  0  0  0  0  0  0  0  0  0
   18.7327   -8.3950  -22.1765 H   0  0  0  0  0  0  0  0  0  0  0  0
   17.4696   -8.5490  -23.4431 H   0  0  0  0  0  0  0  0  0  0  0  0
   19.0786   -6.0529  -22.7920 H   0  0  0  0  0  0  0  0  0  0  0  0
   17.0756   -6.6480  -25.0209 H   0  0  0  0  0  0  0  0  0  0  0  0
   17.4838   -4.4462  -25.8990 H   0  0  0  0  0  0  0  0  0  0  0  0
   18.6834   -4.1226  -24.5648 H   0  0  0  0  0  0  0  0  0  0  0  0
   18.9424   -6.1524  -26.8119 H   0  0  0  0  0  0  0  0  0  0  0  0
   19.8724   -4.6024  -26.5778 H   0  0  0  0  0  0  0  0  0  0  0  0
   18.9591   -7.8755  -25.0851 H   0  0  0  0  0  0  0  0  0  0  0  0
   21.1949   -7.7815  -23.0400 H   0  0  0  0  0  0  0  0  0  0  0  0
   20.4249   -9.1912  -23.7640 H   0  0  0  0  0  0  0  0  0  0  0  0
   22.8245   -7.8780  -24.6867 H   0  0  0  0  0  0  0  0  0  0  0  0
   21.9445   -9.1310  -25.5787 H   0  0  0  0  0  0  0  0  0  0  0  0
   20.8349   -7.4563  -26.9888 H   0  0  0  0  0  0  0  0  0  0  0  0
   23.1087   -6.0783  -25.9911 H   0  0  0  0  0  0  0  0  0  0  0  0
   21.0930   -5.3790  -23.3852 H   0  0  0  0  0  0  0  0  0  0  0  0
   22.3150   -5.3312  -24.7009 H   0  0  0  0  0  0  0  0  0  0  0  0
   20.9492   -4.1645  -24.7009 H   0  0  0  0  0  0  0  0  0  0  0  0
   16.7816   -4.4571  -21.5282 H   0  0  0  0  0  0  0  0  0  0  0  0
   17.9468   -3.9776  -22.8085 H   0  0  0  0  0  0  0  0  0  0  0  0
   16.2832   -3.2999  -22.8085 H   0  0  0  0  0  0  0  0  0  0  0  0
  1  2  1  0
  1 11  1  0
  2  3  1  0
  3  4  2  0
  3  5  1  0
  5  6  2  0
  6  7  1  0
  6 11  1  0
  7  8  1  0
  9  8  1  0
  9 10  1  0
  9 15  1  0
 10 11  1  0
 10 12  1  0
 11 21  1  1
 12 13  1  0
 13 14  1  0
 14 15  1  0
 14 18  1  0
 14 20  1  1
 15 16  1  0
 16 17  1  0
 17 18  1  0
 18 19  1  0
  1 22  1  0
  1 23  1  0
  2 24  1  0
  2 25  1  0
  5 26  1  0
  7 27  1  0
  7 28  1  0
  8 29  1  0
  8 30  1  0
  9 31  1  1
 10 32  1  6
 12 33  1  0
 12 34  1  0
 13 35  1  0
 13 36  1  0
 15 37  1  6
 16 38  1  0
 16 39  1  0
 17 40  1  0
 17 41  1  0
 18 42  1  6
 19 43  1  0
 20 44  1  0
 20 45  1  0
 20 46  1  0
 21 47  1  0
 21 48  1  0
 21 49  1  0
M  END
>  <filename_input>  (26) 
7CL8_TES_docked.sdf

>  <pdb_id>  (26) 
7CL8_TES

>  <pose_rank>  (26) 
25

>  <num_atoms_heavy>  (26) 
21

>  <num_torsions>  (26) 
0

>  <pose>  (26) 
[15.241, -4.901, -24.343, 1e-06, 1e-06, 1e-06]

>  <energy>  (26) 
-815.0921466800979

>  <inter_energy>  (26) 
-829.83678907769

>  <intra_energy>  (26) 
0.0

>  <rmsd>  (26) 
0.0

>  <sdf_rank>  (26) 
0

$$$$
