
     RDKit          3D

 18 18  0  0  0  0  0  0  0  0999 V2000
    0.6510   13.2346   62.4379 O   0  0  0  0  0  0  0  0  0  0  0  0
   -1.7507   10.9225   63.7997 O   0  0  0  0  0  0  0  0  0  0  0  0
   -0.8651   13.2970   64.9828 N   0  0  0  0  0  0  0  0  0  0  0  0
   -0.4143   14.1048   62.8022 C   0  0  2  0  0  0  0  0  0  0  0  0
    0.0732   15.1614   63.7755 C   0  0  0  0  0  0  0  0  0  0  0  0
   -0.2363   14.6201   65.1659 C   0  0  0  0  0  0  0  0  0  0  0  0
   -1.3685   13.2458   63.5954 C   0  0  1  0  0  0  0  0  0  0  0  0
   -1.3493   11.8460   63.0605 C   0  0  0  0  0  0  0  0  0  0  0  0
   -1.0038   11.6628   61.8693 O   0  0  0  0  0  0  0  0  0  0  0  0
    1.0831   12.8816   63.2556 H   0  0  0  0  0  0  0  0  0  0  0  0
   -0.1708   12.5515   65.1348 H   0  0  0  0  0  0  0  0  0  0  0  0
   -1.6313   13.1579   65.6569 H   0  0  0  0  0  0  0  0  0  0  0  0
   -0.8439   14.5801   61.9080 H   0  0  0  0  0  0  0  0  0  0  0  0
    1.1554   15.3200   63.6583 H   0  0  0  0  0  0  0  0  0  0  0  0
   -0.4172   16.1303   63.6000 H   0  0  0  0  0  0  0  0  0  0  0  0
   -0.9266   15.2973   65.6902 H   0  0  0  0  0  0  0  0  0  0  0  0
    0.6800   14.5396   65.7692 H   0  0  0  0  0  0  0  0  0  0  0  0
   -2.4100   13.5946   63.5353 H   0  0  0  0  0  0  0  0  0  0  0  0
  4  1  1  0
  2  8  1  0
  3  6  1  0
  3  7  1  0
  4  5  1  0
  4  7  1  0
  5  6  1  0
  7  8  1  0
  8  9  2  0
  1 10  1  0
  3 11  1  0
  3 12  1  0
  4 13  1  6
  5 14  1  0
  5 15  1  0
  6 16  1  0
  6 17  1  0
  7 18  1  1
M  CHG  2   2  -1   3   1
M  END
>  <filename_input>  (1) 
7CNQ_G8X_docked.sdf

>  <pdb_id>  (1) 
7CNQ_G8X

>  <pose_rank>  (1) 
0

>  <num_atoms_heavy>  (1) 
9

>  <num_torsions>  (1) 
1

>  <pose>  (1) 
[0.650961666481491, 13.234609689788847, 62.437851009929695, -0.030006597284639135, 0.0495485197523763, 0.20714955992219636, 0.006452794195945938]

>  <energy>  (1) 
-514.1602440863799

>  <inter_energy>  (1) 
-545.3509024687064

>  <intra_energy>  (1) 
32.94436868610887

>  <rmsd>  (1) 
0.362991

>  <sdf_rank>  (1) 
0

$$$$

     RDKit          3D

 18 18  0  0  0  0  0  0  0  0999 V2000
   -2.3044   14.4989   63.1935 O   0  0  0  0  0  0  0  0  0  0  0  0
   -1.1796   11.9991   62.0214 O   0  0  0  0  0  0  0  0  0  0  0  0
    0.5524   13.7285   63.0386 N   0  0  0  0  0  0  0  0  0  0  0  0
   -1.3592   14.4203   64.2543 C   0  0  2  0  0  0  0  0  0  0  0  0
   -0.4111   15.6037   64.2088 C   0  0  0  0  0  0  0  0  0  0  0  0
    0.8096   15.1285   63.4301 C   0  0  0  0  0  0  0  0  0  0  0  0
   -0.5069   13.2174   63.9316 C   0  0  1  0  0  0  0  0  0  0  0  0
   -1.3416   12.1779   63.2470 C   0  0  0  0  0  0  0  0  0  0  0  0
   -2.1150   11.4760   63.9406 O   0  0  0  0  0  0  0  0  0  0  0  0
   -3.2170   14.5748   63.5697 H   0  0  0  0  0  0  0  0  0  0  0  0
    0.2388   13.6873   62.0583 H   0  0  0  0  0  0  0  0  0  0  0  0
    1.4079   13.1609   63.1212 H   0  0  0  0  0  0  0  0  0  0  0  0
   -1.8750   14.3827   65.2252 H   0  0  0  0  0  0  0  0  0  0  0  0
   -0.8847   16.4543   63.6968 H   0  0  0  0  0  0  0  0  0  0  0  0
   -0.1395   15.9437   65.2190 H   0  0  0  0  0  0  0  0  0  0  0  0
    1.7073   15.1851   64.0632 H   0  0  0  0  0  0  0  0  0  0  0  0
    0.9810   15.7589   62.5451 H   0  0  0  0  0  0  0  0  0  0  0  0
   -0.0796   12.7425   64.8271 H   0  0  0  0  0  0  0  0  0  0  0  0
  4  1  1  0
  2  8  1  0
  3  6  1  0
  3  7  1  0
  4  5  1  0
  4  7  1  0
  5  6  1  0
  7  8  1  0
  8  9  2  0
  1 10  1  0
  3 11  1  0
  3 12  1  0
  4 13  1  1
  5 14  1  0
  5 15  1  0
  6 16  1  0
  6 17  1  0
  7 18  1  1
M  CHG  2   2  -1   3   1
M  END
>  <filename_input>  (2) 
7CNQ_G8X_docked.sdf

>  <pdb_id>  (2) 
7CNQ_G8X

>  <pose_rank>  (2) 
1

>  <num_atoms_heavy>  (2) 
9

>  <num_torsions>  (2) 
1

>  <pose>  (2) 
[-2.3044322046534753, 14.498877878458751, 63.19352002926433, -1.6233820784991175, -3.4405474109515364, -1.338561368886973, -19.76245279773944]

>  <energy>  (2) 
-418.1130249486269

>  <inter_energy>  (2) 
-416.73478895427843

>  <intra_energy>  (2) 
7.61955833420374

>  <rmsd>  (2) 
1.82757

>  <sdf_rank>  (2) 
0

$$$$

     RDKit          3D

 18 18  0  0  0  0  0  0  0  0999 V2000
    0.7641   12.9096   62.6201 O   0  0  0  0  0  0  0  0  0  0  0  0
   -1.4004   11.7361   61.9059 O   0  0  0  0  0  0  0  0  0  0  0  0
   -0.9421   13.5325   64.9611 N   0  0  0  0  0  0  0  0  0  0  0  0
   -0.1207   14.0108   62.7914 C   0  0  2  0  0  0  0  0  0  0  0  0
    0.4849   15.0369   63.7304 C   0  0  0  0  0  0  0  0  0  0  0  0
   -0.0658   14.7109   65.1133 C   0  0  0  0  0  0  0  0  0  0  0  0
   -1.3084   13.4477   63.5330 C   0  0  1  0  0  0  0  0  0  0  0  0
   -1.5372   12.0275   63.1129 C   0  0  0  0  0  0  0  0  0  0  0  0
   -1.7823   11.1719   63.9959 O   0  0  0  0  0  0  0  0  0  0  0  0
    1.0397   12.5667   63.5070 H   0  0  0  0  0  0  0  0  0  0  0  0
   -0.4411   12.6798   65.2488 H   0  0  0  0  0  0  0  0  0  0  0  0
   -1.7817   13.6205   65.5511 H   0  0  0  0  0  0  0  0  0  0  0  0
   -0.3505   14.4726   61.8198 H   0  0  0  0  0  0  0  0  0  0  0  0
    1.5821   14.9587   63.7269 H   0  0  0  0  0  0  0  0  0  0  0  0
    0.2321   16.0632   63.4257 H   0  0  0  0  0  0  0  0  0  0  0  0
   -0.6429   15.5634   65.5010 H   0  0  0  0  0  0  0  0  0  0  0  0
    0.7495   14.5054   65.8226 H   0  0  0  0  0  0  0  0  0  0  0  0
   -2.2406   13.9941   63.3267 H   0  0  0  0  0  0  0  0  0  0  0  0
  4  1  1  0
  2  8  1  0
  3  6  1  0
  3  7  1  0
  4  5  1  0
  4  7  1  0
  5  6  1  0
  7  8  1  0
  8  9  2  0
  1 10  1  0
  3 11  1  0
  3 12  1  0
  4 13  1  6
  5 14  1  0
  5 15  1  0
  6 16  1  0
  6 17  1  0
  7 18  1  1
M  CHG  2   2  -1   3   1
M  END
>  <filename_input>  (3) 
7CNQ_G8X_docked.sdf

>  <pdb_id>  (3) 
7CNQ_G8X

>  <pose_rank>  (3) 
2

>  <num_atoms_heavy>  (3) 
9

>  <num_torsions>  (3) 
1

>  <pose>  (3) 
[0.7641096273841704, 12.909645796695784, 62.620143180785476, 5.7739332693996, 2.087704716275467, 0.37549459490482096, 2.8083671895853533]

>  <energy>  (3) 
-525.4492761396928

>  <inter_energy>  (3) 
-546.8526585247329

>  <intra_energy>  (3) 
21.003108686609995

>  <rmsd>  (3) 
0.342974

>  <sdf_rank>  (3) 
0

$$$$

     RDKit          3D

 18 18  0  0  0  0  0  0  0  0999 V2000
    1.0567   12.9742   62.9499 O   0  0  0  0  0  0  0  0  0  0  0  0
   -1.5348   11.1023   64.0209 O   0  0  0  0  0  0  0  0  0  0  0  0
   -0.8398   13.4127   65.1837 N   0  0  0  0  0  0  0  0  0  0  0  0
    0.1301   14.0412   63.1161 C   0  0  2  0  0  0  0  0  0  0  0  0
    0.6328   15.0229   64.1577 C   0  0  0  0  0  0  0  0  0  0  0  0
   -0.0120   14.6005   65.4722 C   0  0  0  0  0  0  0  0  0  0  0  0
   -1.0939   13.4057   63.7289 C   0  0  1  0  0  0  0  0  0  0  0  0
   -1.2491   12.0084   63.2099 C   0  0  0  0  0  0  0  0  0  0  0  0
   -1.1615   11.8132   61.9746 O   0  0  0  0  0  0  0  0  0  0  0  0
    1.3431   12.6444   63.8384 H   0  0  0  0  0  0  0  0  0  0  0  0
   -0.3379   12.5565   65.4591 H   0  0  0  0  0  0  0  0  0  0  0  0
   -1.7242   13.4444   65.7108 H   0  0  0  0  0  0  0  0  0  0  0  0
   -0.0382   14.5553   62.1583 H   0  0  0  0  0  0  0  0  0  0  0  0
    1.7289   14.9716   64.2348 H   0  0  0  0  0  0  0  0  0  0  0  0
    0.3745   16.0594   63.8949 H   0  0  0  0  0  0  0  0  0  0  0  0
   -0.6411   15.4138   65.8631 H   0  0  0  0  0  0  0  0  0  0  0  0
    0.7526   14.3722   66.2294 H   0  0  0  0  0  0  0  0  0  0  0  0
   -2.0230   13.9409   63.4832 H   0  0  0  0  0  0  0  0  0  0  0  0
  4  1  1  0
  2  8  1  0
  3  6  1  0
  3  7  1  0
  4  5  1  0
  4  7  1  0
  5  6  1  0
  7  8  1  0
  8  9  2  0
  1 10  1  0
  3 11  1  0
  3 12  1  0
  4 13  1  6
  5 14  1  0
  5 15  1  0
  6 16  1  0
  6 17  1  0
  7 18  1  1
M  CHG  2   2  -1   3   1
M  END
>  <filename_input>  (4) 
7CNQ_G8X_docked.sdf

>  <pdb_id>  (4) 
7CNQ_G8X

>  <pose_rank>  (4) 
3

>  <num_atoms_heavy>  (4) 
9

>  <num_torsions>  (4) 
1

>  <pose>  (4) 
[1.0567121276400129, 12.97417483170787, 62.949909179947966, -17.23525012356645, -33.51738245365528, 3.3531111070881465, -0.4027368965183785]

>  <energy>  (4) 
-517.6020741003257

>  <inter_energy>  (4) 
-524.8973940114221

>  <intra_energy>  (4) 
15.27883446952766

>  <rmsd>  (4) 
0.472799

>  <sdf_rank>  (4) 
0

$$$$

     RDKit          3D

 18 18  0  0  0  0  0  0  0  0999 V2000
    0.0177    4.4544   70.1439 O   0  0  0  0  0  0  0  0  0  0  0  0
   -1.6253    4.1007   72.4187 O   0  0  0  0  0  0  0  0  0  0  0  0
    0.9343    3.4000   72.7567 N   0  0  0  0  0  0  0  0  0  0  0  0
    1.1110    4.9044   70.9356 C   0  0  2  0  0  0  0  0  0  0  0  0
    2.2767    3.9395   70.8277 C   0  0  0  0  0  0  0  0  0  0  0  0
    2.1425    2.9914   72.0131 C   0  0  0  0  0  0  0  0  0  0  0  0
    0.6342    4.7913   72.3630 C   0  0  1  0  0  0  0  0  0  0  0  0
   -0.8370    5.0697   72.4259 C   0  0  0  0  0  0  0  0  0  0  0  0
   -1.2187    6.2564   72.5593 O   0  0  0  0  0  0  0  0  0  0  0  0
   -0.7161    4.1523   70.7358 H   0  0  0  0  0  0  0  0  0  0  0  0
    0.1445    2.7854   72.5132 H   0  0  0  0  0  0  0  0  0  0  0  0
    1.0875    3.3307   73.7729 H   0  0  0  0  0  0  0  0  0  0  0  0
    1.4211    5.9125   70.6233 H   0  0  0  0  0  0  0  0  0  0  0  0
    2.2245    3.3801   69.8820 H   0  0  0  0  0  0  0  0  0  0  0  0
    3.2416    4.4676   70.8391 H   0  0  0  0  0  0  0  0  0  0  0  0
    3.0286    3.0678   72.6605 H   0  0  0  0  0  0  0  0  0  0  0  0
    2.0614    1.9479   71.6746 H   0  0  0  0  0  0  0  0  0  0  0  0
    1.1228    5.5111   73.0362 H   0  0  0  0  0  0  0  0  0  0  0  0
  4  1  1  0
  2  8  1  0
  3  6  1  0
  3  7  1  0
  4  5  1  0
  4  7  1  0
  5  6  1  0
  7  8  1  0
  8  9  2  0
  1 10  1  0
  3 11  1  0
  3 12  1  0
  4 13  1  6
  5 14  1  0
  5 15  1  0
  6 16  1  0
  6 17  1  0
  7 18  1  1
M  CHG  2   2  -1   3   1
M  END
>  <filename_input>  (5) 
7CNQ_G8X_docked.sdf

>  <pdb_id>  (5) 
7CNQ_G8X

>  <pose_rank>  (5) 
4

>  <num_atoms_heavy>  (5) 
9

>  <num_torsions>  (5) 
1

>  <pose>  (5) 
[0.017720461620162622, 4.4543783748236985, 70.14385480024912, 0.5758501232446095, 0.9322486964474629, -1.2690831312401754, -1.091755833703557]

>  <energy>  (5) 
-83.54719619478348

>  <inter_energy>  (5) 
-73.502516059835

>  <intra_energy>  (5) 
10.41421215439767

>  <rmsd>  (5) 
12.1658

>  <sdf_rank>  (5) 
0

$$$$

     RDKit          3D

 18 18  0  0  0  0  0  0  0  0999 V2000
   -5.0940    6.7462   71.2540 O   0  0  0  0  0  0  0  0  0  0  0  0
   -7.7739    5.3012   71.3790 O   0  0  0  0  0  0  0  0  0  0  0  0
   -5.8405    4.4493   72.9704 N   0  0  0  0  0  0  0  0  0  0  0  0
   -5.0116    6.6480   72.6712 C   0  0  2  0  0  0  0  0  0  0  0  0
   -3.8335    5.7817   73.0752 C   0  0  0  0  0  0  0  0  0  0  0  0
   -4.3962    4.3788   73.2684 C   0  0  0  0  0  0  0  0  0  0  0  0
   -6.2362    5.8676   73.0821 C   0  0  1  0  0  0  0  0  0  0  0  0
   -7.3719    6.1903   72.1590 C   0  0  0  0  0  0  0  0  0  0  0  0
   -7.9247    7.3115   72.2557 O   0  0  0  0  0  0  0  0  0  0  0  0
   -5.7109    7.4809   71.0095 H   0  0  0  0  0  0  0  0  0  0  0  0
   -6.0219    4.1056   72.0166 H   0  0  0  0  0  0  0  0  0  0  0  0
   -6.3796    3.8649   73.6252 H   0  0  0  0  0  0  0  0  0  0  0  0
   -4.9204    7.6481   73.1200 H   0  0  0  0  0  0  0  0  0  0  0  0
   -3.0689    5.7822   72.2845 H   0  0  0  0  0  0  0  0  0  0  0  0
   -3.3525    6.1545   73.9916 H   0  0  0  0  0  0  0  0  0  0  0  0
   -4.2401    4.0485   74.3059 H   0  0  0  0  0  0  0  0  0  0  0  0
   -3.8930    3.6589   72.6061 H   0  0  0  0  0  0  0  0  0  0  0  0
   -6.5761    6.1085   74.1001 H   0  0  0  0  0  0  0  0  0  0  0  0
  4  1  1  0
  2  8  1  0
  3  6  1  0
  3  7  1  0
  4  5  1  0
  4  7  1  0
  5  6  1  0
  7  8  1  0
  8  9  2  0
  1 10  1  0
  3 11  1  0
  3 12  1  0
  4 13  1  1
  5 14  1  0
  5 15  1  0
  6 16  1  0
  6 17  1  0
  7 18  1  1
M  CHG  2   2  -1   3   1
M  END
>  <filename_input>  (6) 
7CNQ_G8X_docked.sdf

>  <pdb_id>  (6) 
7CNQ_G8X

>  <pose_rank>  (6) 
5

>  <num_atoms_heavy>  (6) 
9

>  <num_torsions>  (6) 
1

>  <pose>  (6) 
[-5.094046851500704, 6.7462046853759885, 71.25403987204182, -4.065770707985546, -1.8227371135001098, 1.6849499164456045, -0.8337807987457088]

>  <energy>  (6) 
-100.1372294695781

>  <inter_energy>  (6) 
-97.6470216912709

>  <intra_energy>  (6) 
7.298594550571558

>  <rmsd>  (6) 
12.6941

>  <sdf_rank>  (6) 
0

$$$$

     RDKit          3D

 18 18  0  0  0  0  0  0  0  0999 V2000
    6.4093    4.9680   71.2245 O   0  0  0  0  0  0  0  0  0  0  0  0
    7.0302    6.2048   68.5848 O   0  0  0  0  0  0  0  0  0  0  0  0
    4.5507    3.6831   69.3079 N   0  0  0  0  0  0  0  0  0  0  0  0
    5.1552    5.4542   70.7600 C   0  0  2  0  0  0  0  0  0  0  0  0
    4.0163    4.7049   71.4256 C   0  0  0  0  0  0  0  0  0  0  0  0
    3.6436    3.5795   70.4680 C   0  0  0  0  0  0  0  0  0  0  0  0
    5.0947    5.0560   69.3056 C   0  0  1  0  0  0  0  0  0  0  0  0
    6.4716    5.0952   68.7152 C   0  0  0  0  0  0  0  0  0  0  0  0
    7.0404    4.0111   68.4449 O   0  0  0  0  0  0  0  0  0  0  0  0
    6.4160    4.9654   72.2145 H   0  0  0  0  0  0  0  0  0  0  0  0
    5.3162    2.9996   69.3954 H   0  0  0  0  0  0  0  0  0  0  0  0
    4.0488    3.4854   68.4304 H   0  0  0  0  0  0  0  0  0  0  0  0
    5.0664    6.5331   70.9549 H   0  0  0  0  0  0  0  0  0  0  0  0
    4.3420    4.2931   72.3922 H   0  0  0  0  0  0  0  0  0  0  0  0
    3.1601    5.3655   71.6265 H   0  0  0  0  0  0  0  0  0  0  0  0
    2.5989    3.6910   70.1421 H   0  0  0  0  0  0  0  0  0  0  0  0
    3.7413    2.5990   70.9569 H   0  0  0  0  0  0  0  0  0  0  0  0
    4.4710    5.7318   68.7021 H   0  0  0  0  0  0  0  0  0  0  0  0
  4  1  1  0
  2  8  1  0
  3  6  1  0
  3  7  1  0
  4  5  1  0
  4  7  1  0
  5  6  1  0
  7  8  1  0
  8  9  2  0
  1 10  1  0
  3 11  1  0
  3 12  1  0
  4 13  1  6
  5 14  1  0
  5 15  1  0
  6 16  1  0
  6 17  1  0
  7 18  1  6
M  CHG  2   2  -1   3   1
M  END
>  <filename_input>  (7) 
7CNQ_G8X_docked.sdf

>  <pdb_id>  (7) 
7CNQ_G8X

>  <pose_rank>  (7) 
6

>  <num_atoms_heavy>  (7) 
9

>  <num_torsions>  (7) 
1

>  <pose>  (7) 
[6.409288867458538, 4.96802885049839, 71.2245300665708, -2.7992785672446425, 3.2288200388873842, -1.0102336618796262, 2.3231980101191025]

>  <energy>  (7) 
-98.30618058900139

>  <inter_energy>  (7) 
-99.09074021255488

>  <intra_energy>  (7) 
9.919355535619369

>  <rmsd>  (7) 
12.3775

>  <sdf_rank>  (7) 
0

$$$$

     RDKit          3D

 18 18  0  0  0  0  0  0  0  0999 V2000
   -5.8556    5.4875   54.2896 O   0  0  0  0  0  0  0  0  0  0  0  0
   -8.1910    3.4590   54.7906 O   0  0  0  0  0  0  0  0  0  0  0  0
   -6.1333    3.4789   56.4500 N   0  0  0  0  0  0  0  0  0  0  0  0
   -5.8335    5.7042   55.6958 C   0  0  2  0  0  0  0  0  0  0  0  0
   -4.5088    5.2528   56.2813 C   0  0  0  0  0  0  0  0  0  0  0  0
   -4.7330    3.8250   56.7645 C   0  0  0  0  0  0  0  0  0  0  0  0
   -6.8597    4.7498   56.2558 C   0  0  1  0  0  0  0  0  0  0  0  0
   -7.9848    4.5902   55.2787 C   0  0  0  0  0  0  0  0  0  0  0  0
   -8.7224    5.5767   55.0454 O   0  0  0  0  0  0  0  0  0  0  0  0
   -5.9544    4.5196   54.1064 H   0  0  0  0  0  0  0  0  0  0  0  0
   -6.1732    2.9138   55.5898 H   0  0  0  0  0  0  0  0  0  0  0  0
   -6.5551    2.9273   57.2107 H   0  0  0  0  0  0  0  0  0  0  0  0
   -6.0079    6.7663   55.9227 H   0  0  0  0  0  0  0  0  0  0  0  0
   -3.7220    5.2780   55.5130 H   0  0  0  0  0  0  0  0  0  0  0  0
   -4.1832    5.9108   57.1004 H   0  0  0  0  0  0  0  0  0  0  0  0
   -4.5626    3.7621   57.8494 H   0  0  0  0  0  0  0  0  0  0  0  0
   -4.0364    3.1299   56.2731 H   0  0  0  0  0  0  0  0  0  0  0  0
   -7.3047    5.1035   57.1976 H   0  0  0  0  0  0  0  0  0  0  0  0
  4  1  1  0
  2  8  1  0
  3  6  1  0
  3  7  1  0
  4  5  1  0
  4  7  1  0
  5  6  1  0
  7  8  1  0
  8  9  2  0
  1 10  1  0
  3 11  1  0
  3 12  1  0
  4 13  1  6
  5 14  1  0
  5 15  1  0
  6 16  1  0
  6 17  1  0
  7 18  1  1
M  CHG  2   2  -1   3   1
M  END
>  <filename_input>  (8) 
7CNQ_G8X_docked.sdf

>  <pdb_id>  (8) 
7CNQ_G8X

>  <pose_rank>  (8) 
7

>  <num_atoms_heavy>  (8) 
9

>  <num_torsions>  (8) 
1

>  <pose>  (8) 
[-5.85562722879981, 5.487491735301663, 54.289610464162756, -4.094066465735699, -2.5353839225262016, 1.468613466391404, -0.7267844524873349]

>  <energy>  (8) 
-96.95608921098577

>  <inter_energy>  (8) 
-74.60414453658016

>  <intra_energy>  (8) 
7.775648942122703

>  <rmsd>  (8) 
12.9169

>  <sdf_rank>  (8) 
0

$$$$

     RDKit          3D

 18 18  0  0  0  0  0  0  0  0999 V2000
    8.3950    5.9368   66.0944 O   0  0  0  0  0  0  0  0  0  0  0  0
    7.4050    7.0970   68.6644 O   0  0  0  0  0  0  0  0  0  0  0  0
    6.3797    4.7683   67.9252 N   0  0  0  0  0  0  0  0  0  0  0  0
    8.3960    4.6437   66.6883 C   0  0  2  0  0  0  0  0  0  0  0  0
    7.3941    3.7405   65.9942 C   0  0  0  0  0  0  0  0  0  0  0  0
    6.1129    3.8337   66.8140 C   0  0  0  0  0  0  0  0  0  0  0  0
    7.8462    4.8504   68.0785 C   0  0  1  0  0  0  0  0  0  0  0  0
    8.2657    6.1947   68.5912 C   0  0  0  0  0  0  0  0  0  0  0  0
    9.4425    6.3422   68.9974 O   0  0  0  0  0  0  0  0  0  0  0  0
    8.3945    6.6263   66.8049 H   0  0  0  0  0  0  0  0  0  0  0  0
    5.9945    5.6979   67.7056 H   0  0  0  0  0  0  0  0  0  0  0  0
    5.9372    4.4400   68.7955 H   0  0  0  0  0  0  0  0  0  0  0  0
    9.4023    4.2019   66.6429 H   0  0  0  0  0  0  0  0  0  0  0  0
    7.2162    4.0855   64.9650 H   0  0  0  0  0  0  0  0  0  0  0  0
    7.7593    2.7048   65.9304 H   0  0  0  0  0  0  0  0  0  0  0  0
    5.8444    2.8430   67.2095 H   0  0  0  0  0  0  0  0  0  0  0  0
    5.2752    4.1878   66.1952 H   0  0  0  0  0  0  0  0  0  0  0  0
    8.2146    4.1062   68.7999 H   0  0  0  0  0  0  0  0  0  0  0  0
  4  1  1  0
  2  8  1  0
  3  6  1  0
  3  7  1  0
  4  5  1  0
  4  7  1  0
  5  6  1  0
  7  8  1  0
  8  9  2  0
  1 10  1  0
  3 11  1  0
  3 12  1  0
  4 13  1  1
  5 14  1  0
  5 15  1  0
  6 16  1  0
  6 17  1  0
  7 18  1  1
M  CHG  2   2  -1   3   1
M  END
>  <filename_input>  (9) 
7CNQ_G8X_docked.sdf

>  <pdb_id>  (9) 
7CNQ_G8X

>  <pose_rank>  (9) 
8

>  <num_atoms_heavy>  (9) 
9

>  <num_torsions>  (9) 
1

>  <pose>  (9) 
[8.395021694580395, 5.936833569365764, 66.09444691418683, 2.018281158974292, 0.49812407009777077, -2.446564191480452, 5.378854022514366]

>  <energy>  (9) 
-96.4163704894337

>  <inter_energy>  (9) 
-84.79104454827677

>  <intra_energy>  (9) 
7.557218468934197

>  <rmsd>  (9) 
12.5166

>  <sdf_rank>  (9) 
0

$$$$

     RDKit          3D

 18 18  0  0  0  0  0  0  0  0999 V2000
   -6.0798    3.0822   70.5086 O   0  0  0  0  0  0  0  0  0  0  0  0
   -7.5351    5.4384   70.4481 O   0  0  0  0  0  0  0  0  0  0  0  0
   -5.1645    4.4464   72.9744 N   0  0  0  0  0  0  0  0  0  0  0  0
   -5.0480    4.0529   70.6415 C   0  0  2  0  0  0  0  0  0  0  0  0
   -3.8098    3.4300   71.2581 C   0  0  0  0  0  0  0  0  0  0  0  0
   -3.9071    3.7049   72.7538 C   0  0  0  0  0  0  0  0  0  0  0  0
   -5.5573    5.0277   71.6749 C   0  0  1  0  0  0  0  0  0  0  0  0
   -7.0467    5.1497   71.5610 C   0  0  0  0  0  0  0  0  0  0  0  0
   -7.7497    4.8843   72.5645 O   0  0  0  0  0  0  0  0  0  0  0  0
   -6.3826    2.7973   71.4071 H   0  0  0  0  0  0  0  0  0  0  0  0
   -5.8978    3.8066   73.3118 H   0  0  0  0  0  0  0  0  0  0  0  0
   -5.0370    5.1832   73.6828 H   0  0  0  0  0  0  0  0  0  0  0  0
   -4.8061    4.4916   69.6622 H   0  0  0  0  0  0  0  0  0  0  0  0
   -3.7910    2.3467   71.0682 H   0  0  0  0  0  0  0  0  0  0  0  0
   -2.8885    3.8504   70.8284 H   0  0  0  0  0  0  0  0  0  0  0  0
   -3.0491    4.3091   73.0836 H   0  0  0  0  0  0  0  0  0  0  0  0
   -3.8986    2.7663   73.3272 H   0  0  0  0  0  0  0  0  0  0  0  0
   -5.1452    6.0397   71.5491 H   0  0  0  0  0  0  0  0  0  0  0  0
  4  1  1  0
  2  8  1  0
  3  6  1  0
  3  7  1  0
  4  5  1  0
  4  7  1  0
  5  6  1  0
  7  8  1  0
  8  9  2  0
  1 10  1  0
  3 11  1  0
  3 12  1  0
  4 13  1  6
  5 14  1  0
  5 15  1  0
  6 16  1  0
  6 17  1  0
  7 18  1  6
M  CHG  2   2  -1   3   1
M  END
>  <filename_input>  (10) 
7CNQ_G8X_docked.sdf

>  <pdb_id>  (10) 
7CNQ_G8X

>  <pose_rank>  (10) 
9

>  <num_atoms_heavy>  (10) 
9

>  <num_torsions>  (10) 
1

>  <pose>  (10) 
[-6.079821674944641, 3.0821586981664684, 70.50864364872403, -0.1440629888879259, 0.33434204316457405, -1.4432155735665542, 2.5682639139265184]

>  <energy>  (10) 
-34.67005046421895

>  <inter_energy>  (10) 
-37.53151778754126

>  <intra_energy>  (10) 
13.058800380098853

>  <rmsd>  (10) 
12.9807

>  <sdf_rank>  (10) 
0

$$$$

     RDKit          3D

 18 18  0  0  0  0  0  0  0  0999 V2000
    6.7485    3.9762   63.5488 O   0  0  0  0  0  0  0  0  0  0  0  0
    9.0171    4.0371   61.7929 O   0  0  0  0  0  0  0  0  0  0  0  0
    8.8816    5.1849   65.2124 N   0  0  0  0  0  0  0  0  0  0  0  0
    7.7524    3.3103   64.3062 C   0  0  2  0  0  0  0  0  0  0  0  0
    7.4187    3.3558   65.7853 C   0  0  0  0  0  0  0  0  0  0  0  0
    8.1631    4.5632   66.3423 C   0  0  0  0  0  0  0  0  0  0  0  0
    8.9888    4.1620   64.1528 C   0  0  1  0  0  0  0  0  0  0  0  0
    9.0032    4.7879   62.7911 C   0  0  0  0  0  0  0  0  0  0  0  0
    8.9246    6.0360   62.7028 O   0  0  0  0  0  0  0  0  0  0  0  0
    6.1017    4.4052   64.1634 H   0  0  0  0  0  0  0  0  0  0  0  0
    8.3567    6.0002   64.8651 H   0  0  0  0  0  0  0  0  0  0  0  0
    9.8142    5.5102   65.5045 H   0  0  0  0  0  0  0  0  0  0  0  0
    7.8567    2.2677   63.9713 H   0  0  0  0  0  0  0  0  0  0  0  0
    6.3346    3.4741   65.9299 H   0  0  0  0  0  0  0  0  0  0  0  0
    7.7144    2.4273   66.2957 H   0  0  0  0  0  0  0  0  0  0  0  0
    8.8779    4.2432   67.1147 H   0  0  0  0  0  0  0  0  0  0  0  0
    7.4648    5.2767   66.8043 H   0  0  0  0  0  0  0  0  0  0  0  0
    9.9207    3.5852   64.2472 H   0  0  0  0  0  0  0  0  0  0  0  0
  4  1  1  0
  2  8  1  0
  3  6  1  0
  3  7  1  0
  4  5  1  0
  4  7  1  0
  5  6  1  0
  7  8  1  0
  8  9  2  0
  1 10  1  0
  3 11  1  0
  3 12  1  0
  4 13  1  6
  5 14  1  0
  5 15  1  0
  6 16  1  0
  6 17  1  0
  7 18  1  1
M  CHG  2   2  -1   3   1
M  END
>  <filename_input>  (11) 
7CNQ_G8X_docked.sdf

>  <pdb_id>  (11) 
7CNQ_G8X

>  <pose_rank>  (11) 
10

>  <num_atoms_heavy>  (11) 
9

>  <num_torsions>  (11) 
1

>  <pose>  (11) 
[6.7484904839802375, 3.976162042853241, 63.548838751014884, 0.366423960350485, 1.0925722043600705, 2.902665018053429, 2.4534761801913856]

>  <energy>  (11) 
-95.01787500628485

>  <inter_energy>  (11) 
-85.42970756651738

>  <intra_energy>  (11) 
10.905534241697373

>  <rmsd>  (11) 
12.7475

>  <sdf_rank>  (11) 
0

$$$$

     RDKit          3D

 18 18  0  0  0  0  0  0  0  0999 V2000
   -5.3847    5.4580   70.6334 O   0  0  0  0  0  0  0  0  0  0  0  0
   -4.4544    6.9854   73.0407 O   0  0  0  0  0  0  0  0  0  0  0  0
   -7.8507    6.2256   72.0855 N   0  0  0  0  0  0  0  0  0  0  0  0
   -5.9952    4.7956   71.7349 C   0  0  2  0  0  0  0  0  0  0  0  0
   -7.2294    4.0390   71.2812 C   0  0  0  0  0  0  0  0  0  0  0  0
   -8.4051    4.9772   71.5253 C   0  0  0  0  0  0  0  0  0  0  0  0
   -6.5127    5.9027   72.6204 C   0  0  1  0  0  0  0  0  0  0  0  0
   -5.5939    7.0839   72.5386 C   0  0  0  0  0  0  0  0  0  0  0  0
   -5.9733    8.0973   71.9054 O   0  0  0  0  0  0  0  0  0  0  0  0
   -4.7535    6.1429   70.9688 H   0  0  0  0  0  0  0  0  0  0  0  0
   -7.7736    6.9405   71.3480 H   0  0  0  0  0  0  0  0  0  0  0  0
   -8.4618    6.5992   72.8257 H   0  0  0  0  0  0  0  0  0  0  0  0
   -5.2813    4.1082   72.2123 H   0  0  0  0  0  0  0  0  0  0  0  0
   -7.1541    3.7893   70.2126 H   0  0  0  0  0  0  0  0  0  0  0  0
   -7.3472    3.0918   71.8279 H   0  0  0  0  0  0  0  0  0  0  0  0
   -9.1093    4.5232   72.2380 H   0  0  0  0  0  0  0  0  0  0  0  0
   -8.9512    5.1743   70.5910 H   0  0  0  0  0  0  0  0  0  0  0  0
   -6.5653    5.6141   73.6806 H   0  0  0  0  0  0  0  0  0  0  0  0
  4  1  1  0
  2  8  1  0
  3  6  1  0
  3  7  1  0
  4  5  1  0
  4  7  1  0
  5  6  1  0
  7  8  1  0
  8  9  2  0
  1 10  1  0
  3 11  1  0
  3 12  1  0
  4 13  1  1
  5 14  1  0
  5 15  1  0
  6 16  1  0
  6 17  1  0
  7 18  1  1
M  CHG  2   2  -1   3   1
M  END
>  <filename_input>  (12) 
7CNQ_G8X_docked.sdf

>  <pdb_id>  (12) 
7CNQ_G8X

>  <pose_rank>  (12) 
11

>  <num_atoms_heavy>  (12) 
9

>  <num_torsions>  (12) 
1

>  <pose>  (12) 
[-5.38472269657659, 5.458004947523971, 70.63339356940378, -2.2234746776977694, 0.5914369919918732, 2.1462318907127744, 2.3012203044602986]

>  <energy>  (12) 
-93.51789406573393

>  <inter_energy>  (12) 
-82.38526226303688

>  <intra_energy>  (12) 
9.910093640184105

>  <rmsd>  (12) 
12.701

>  <sdf_rank>  (12) 
0

$$$$

     RDKit          3D

 18 18  0  0  0  0  0  0  0  0999 V2000
    6.2915    4.5845   69.5397 O   0  0  0  0  0  0  0  0  0  0  0  0
    3.2767    4.1506   68.6658 O   0  0  0  0  0  0  0  0  0  0  0  0
    4.5601    5.0462   71.8994 N   0  0  0  0  0  0  0  0  0  0  0  0
    5.5931    5.7722   69.8952 C   0  0  2  0  0  0  0  0  0  0  0  0
    6.2971    6.4796   71.0378 C   0  0  0  0  0  0  0  0  0  0  0  0
    5.6083    6.0012   72.3102 C   0  0  0  0  0  0  0  0  0  0  0  0
    4.2813    5.2981   70.4713 C   0  0  1  0  0  0  0  0  0  0  0  0
    3.8476    4.0456   69.7719 C   0  0  0  0  0  0  0  0  0  0  0  0
    4.1400    2.9394   70.2844 O   0  0  0  0  0  0  0  0  0  0  0  0
    6.5717    4.1080   70.3611 H   0  0  0  0  0  0  0  0  0  0  0  0
    4.8915    4.0797   72.0298 H   0  0  0  0  0  0  0  0  0  0  0  0
    3.7093    5.1682   72.4669 H   0  0  0  0  0  0  0  0  0  0  0  0
    5.5092    6.4420   69.0267 H   0  0  0  0  0  0  0  0  0  0  0  0
    7.3636    6.2111   71.0554 H   0  0  0  0  0  0  0  0  0  0  0  0
    6.2399    7.5732   70.9333 H   0  0  0  0  0  0  0  0  0  0  0  0
    5.1568    6.8536   72.8389 H   0  0  0  0  0  0  0  0  0  0  0  0
    6.3286    5.5251   72.9917 H   0  0  0  0  0  0  0  0  0  0  0  0
    3.4692    6.0294   70.3458 H   0  0  0  0  0  0  0  0  0  0  0  0
  4  1  1  0
  2  8  1  0
  3  6  1  0
  3  7  1  0
  4  5  1  0
  4  7  1  0
  5  6  1  0
  7  8  1  0
  8  9  2  0
  1 10  1  0
  3 11  1  0
  3 12  1  0
  4 13  1  6
  5 14  1  0
  5 15  1  0
  6 16  1  0
  6 17  1  0
  7 18  1  1
M  CHG  2   2  -1   3   1
M  END
>  <filename_input>  (13) 
7CNQ_G8X_docked.sdf

>  <pdb_id>  (13) 
7CNQ_G8X

>  <pose_rank>  (13) 
12

>  <num_atoms_heavy>  (13) 
9

>  <num_torsions>  (13) 
1

>  <pose>  (13) 
[6.291522791397768, 4.584486411804689, 69.53972500434648, -1.8981844259969092, 2.332164176055845, 5.268265562043818, 2.0915765016435675]

>  <energy>  (13) 
-90.47402681781578

>  <inter_energy>  (13) 
-81.34116144489309

>  <intra_energy>  (13) 
12.086899436687375

>  <rmsd>  (13) 
11.9837

>  <sdf_rank>  (13) 
0

$$$$

     RDKit          3D

 18 18  0  0  0  0  0  0  0  0999 V2000
    1.0708    4.9393   70.1037 O   0  0  0  0  0  0  0  0  0  0  0  0
    3.6403    4.3208   71.2926 O   0  0  0  0  0  0  0  0  0  0  0  0
    0.3780    3.4408   72.5641 N   0  0  0  0  0  0  0  0  0  0  0  0
    1.0151    3.5289   70.2843 C   0  0  2  0  0  0  0  0  0  0  0  0
   -0.4257    3.0557   70.3236 C   0  0  0  0  0  0  0  0  0  0  0  0
   -0.8051    3.0007   71.7984 C   0  0  0  0  0  0  0  0  0  0  0  0
    1.5482    3.2906   71.6760 C   0  0  1  0  0  0  0  0  0  0  0  0
    2.6048    4.3056   71.9910 C   0  0  0  0  0  0  0  0  0  0  0  0
    2.3791    5.1480   72.8917 O   0  0  0  0  0  0  0  0  0  0  0  0
    1.0884    5.3848   70.9876 H   0  0  0  0  0  0  0  0  0  0  0  0
    0.2712    4.4261   72.8446 H   0  0  0  0  0  0  0  0  0  0  0  0
    0.4917    2.8789   73.4197 H   0  0  0  0  0  0  0  0  0  0  0  0
    1.5621    3.0174   69.4786 H   0  0  0  0  0  0  0  0  0  0  0  0
   -1.0757    3.7625   69.7870 H   0  0  0  0  0  0  0  0  0  0  0  0
   -0.5430    2.0753   69.8387 H   0  0  0  0  0  0  0  0  0  0  0  0
   -1.0770    1.9729   72.0807 H   0  0  0  0  0  0  0  0  0  0  0  0
   -1.6704    3.6474   72.0060 H   0  0  0  0  0  0  0  0  0  0  0  0
    2.0137    2.3008   71.7927 H   0  0  0  0  0  0  0  0  0  0  0  0
  4  1  1  0
  2  8  1  0
  3  6  1  0
  3  7  1  0
  4  5  1  0
  4  7  1  0
  5  6  1  0
  7  8  1  0
  8  9  2  0
  1 10  1  0
  3 11  1  0
  3 12  1  0
  4 13  1  6
  5 14  1  0
  5 15  1  0
  6 16  1  0
  6 17  1  0
  7 18  1  6
M  CHG  2   2  -1   3   1
M  END
>  <filename_input>  (14) 
7CNQ_G8X_docked.sdf

>  <pdb_id>  (14) 
7CNQ_G8X

>  <pose_rank>  (14) 
13

>  <num_atoms_heavy>  (14) 
9

>  <num_torsions>  (14) 
1

>  <pose>  (14) 
[1.070804830303335, 4.939262033669684, 70.10366156926138, -0.8510530375964677, -0.4443841571830069, 2.406608983767691, 2.420248812158732]

>  <energy>  (14) 
-72.1257511326335

>  <inter_energy>  (14) 
-70.7748069709011

>  <intra_energy>  (14) 
10.503790817900885

>  <rmsd>  (14) 
12.5457

>  <sdf_rank>  (14) 
0

$$$$

     RDKit          3D

 18 18  0  0  0  0  0  0  0  0999 V2000
   -4.3797    5.6515   71.6680 O   0  0  0  0  0  0  0  0  0  0  0  0
   -2.2910    3.4694   71.7411 O   0  0  0  0  0  0  0  0  0  0  0  0
   -5.3173    3.7008   73.6916 N   0  0  0  0  0  0  0  0  0  0  0  0
   -5.1048    4.4461   71.4532 C   0  0  2  0  0  0  0  0  0  0  0  0
   -6.5597    4.6255   71.8435 C   0  0  0  0  0  0  0  0  0  0  0  0
   -6.6683    4.1318   73.2811 C   0  0  0  0  0  0  0  0  0  0  0  0
   -4.5437    3.4672   72.4556 C   0  0  1  0  0  0  0  0  0  0  0  0
   -3.0855    3.7419   72.6656 C   0  0  0  0  0  0  0  0  0  0  0  0
   -2.7268    4.3029   73.7279 O   0  0  0  0  0  0  0  0  0  0  0  0
   -4.2842    5.8103   72.6405 H   0  0  0  0  0  0  0  0  0  0  0  0
   -4.8680    4.4358   74.2563 H   0  0  0  0  0  0  0  0  0  0  0  0
   -5.3625    2.8456   74.2638 H   0  0  0  0  0  0  0  0  0  0  0  0
   -5.0284    4.1352   70.4008 H   0  0  0  0  0  0  0  0  0  0  0  0
   -6.8453    5.6859   71.7802 H   0  0  0  0  0  0  0  0  0  0  0  0
   -7.2303    4.0685   71.1726 H   0  0  0  0  0  0  0  0  0  0  0  0
   -7.3686    3.2854   73.3382 H   0  0  0  0  0  0  0  0  0  0  0  0
   -7.0452    4.9262   73.9420 H   0  0  0  0  0  0  0  0  0  0  0  0
   -4.6255    2.4213   72.1249 H   0  0  0  0  0  0  0  0  0  0  0  0
  4  1  1  0
  2  8  1  0
  3  6  1  0
  3  7  1  0
  4  5  1  0
  4  7  1  0
  5  6  1  0
  7  8  1  0
  8  9  2  0
  1 10  1  0
  3 11  1  0
  3 12  1  0
  4 13  1  6
  5 14  1  0
  5 15  1  0
  6 16  1  0
  6 17  1  0
  7 18  1  6
M  CHG  2   2  -1   3   1
M  END
>  <filename_input>  (15) 
7CNQ_G8X_docked.sdf

>  <pdb_id>  (15) 
7CNQ_G8X

>  <pose_rank>  (15) 
14

>  <num_atoms_heavy>  (15) 
9

>  <num_torsions>  (15) 
1

>  <pose>  (15) 
[-4.379737850417162, 5.651484067220884, 71.66801165118613, 0.875241675251188, 1.0680072177124775, -4.080600368538671, 2.274061245371329]

>  <energy>  (15) 
-88.91787454074633

>  <inter_energy>  (15) 
-96.0896027846126

>  <intra_energy>  (15) 
9.961623314645802

>  <rmsd>  (15) 
13.368

>  <sdf_rank>  (15) 
0

$$$$

     RDKit          3D

 18 18  0  0  0  0  0  0  0  0999 V2000
   -2.3427   22.4759   64.4075 O   0  0  0  0  0  0  0  0  0  0  0  0
   -2.3819   23.0834   61.2002 O   0  0  0  0  0  0  0  0  0  0  0  0
   -0.0916   22.7540   62.5013 N   0  0  0  0  0  0  0  0  0  0  0  0
   -1.3422   21.5162   64.0870 C   0  0  2  0  0  0  0  0  0  0  0  0
   -0.0263   21.8809   64.7479 C   0  0  0  0  0  0  0  0  0  0  0  0
    0.7588   22.6672   63.7050 C   0  0  0  0  0  0  0  0  0  0  0  0
   -1.1007   21.6810   62.6064 C   0  0  1  0  0  0  0  0  0  0  0  0
   -2.3797   22.0680   61.9278 C   0  0  0  0  0  0  0  0  0  0  0  0
   -3.3771   21.3190   62.0538 O   0  0  0  0  0  0  0  0  0  0  0  0
   -2.4230   22.5530   65.3912 H   0  0  0  0  0  0  0  0  0  0  0  0
   -0.5552   23.6729   62.4614 H   0  0  0  0  0  0  0  0  0  0  0  0
    0.4713   22.6462   61.6454 H   0  0  0  0  0  0  0  0  0  0  0  0
   -1.6604   20.5113   64.4013 H   0  0  0  0  0  0  0  0  0  0  0  0
   -0.2042   22.4995   65.6399 H   0  0  0  0  0  0  0  0  0  0  0  0
    0.5224   20.9865   65.0779 H   0  0  0  0  0  0  0  0  0  0  0  0
    1.6982   22.1466   63.4674 H   0  0  0  0  0  0  0  0  0  0  0  0
    1.0142   23.6697   64.0788 H   0  0  0  0  0  0  0  0  0  0  0  0
   -0.7522   20.7561   62.1237 H   0  0  0  0  0  0  0  0  0  0  0  0
  4  1  1  0
  2  8  1  0
  3  6  1  0
  3  7  1  0
  4  5  1  0
  4  7  1  0
  5  6  1  0
  7  8  1  0
  8  9  2  0
  1 10  1  0
  3 11  1  0
  3 12  1  0
  4 13  1  6
  5 14  1  0
  5 15  1  0
  6 16  1  0
  6 17  1  0
  7 18  1  6
M  CHG  2   2  -1   3   1
M  END
>  <filename_input>  (16) 
7CNQ_G8X_docked.sdf

>  <pdb_id>  (16) 
7CNQ_G8X

>  <pose_rank>  (16) 
15

>  <num_atoms_heavy>  (16) 
9

>  <num_torsions>  (16) 
1

>  <pose>  (16) 
[-2.3427223589432877, 22.475938463594222, 64.4075078874203, -2.0921559552700595, -1.3455313242355498, -1.830703521636525, -0.5555005449235806]

>  <energy>  (16) 
-88.84510666616629

>  <inter_energy>  (16) 
-90.00039961887985

>  <intra_energy>  (16) 
10.667908609148013

>  <rmsd>  (16) 
9.52249

>  <sdf_rank>  (16) 
0

$$$$

     RDKit          3D

 18 18  0  0  0  0  0  0  0  0999 V2000
   -6.4592   16.6744   56.2338 O   0  0  0  0  0  0  0  0  0  0  0  0
   -8.6073   15.0676   54.9497 O   0  0  0  0  0  0  0  0  0  0  0  0
   -6.8859   17.9324   53.5854 N   0  0  0  0  0  0  0  0  0  0  0  0
   -5.9060   16.2883   54.9810 C   0  0  2  0  0  0  0  0  0  0  0  0
   -4.7981   17.2415   54.5741 C   0  0  0  0  0  0  0  0  0  0  0  0
   -5.4540   18.2806   53.6729 C   0  0  0  0  0  0  0  0  0  0  0  0
   -7.0109   16.5143   53.9781 C   0  0  1  0  0  0  0  0  0  0  0  0
   -8.3372   16.2419   54.6204 C   0  0  0  0  0  0  0  0  0  0  0  0
   -9.0931   17.2101   54.8718 O   0  0  0  0  0  0  0  0  0  0  0  0
   -5.9136   16.2936   56.9669 H   0  0  0  0  0  0  0  0  0  0  0  0
   -7.4339   18.5259   54.2245 H   0  0  0  0  0  0  0  0  0  0  0  0
   -7.2427   18.0819   52.6308 H   0  0  0  0  0  0  0  0  0  0  0  0
   -5.5226   15.2586   55.0323 H   0  0  0  0  0  0  0  0  0  0  0  0
   -4.3630   17.7242   55.4616 H   0  0  0  0  0  0  0  0  0  0  0  0
   -3.9813   16.7158   54.0579 H   0  0  0  0  0  0  0  0  0  0  0  0
   -4.9971   18.2556   52.6725 H   0  0  0  0  0  0  0  0  0  0  0  0
   -5.3200   19.2940   54.0793 H   0  0  0  0  0  0  0  0  0  0  0  0
   -6.9387   15.8500   53.1043 H   0  0  0  0  0  0  0  0  0  0  0  0
  4  1  1  0
  2  8  1  0
  3  6  1  0
  3  7  1  0
  4  5  1  0
  4  7  1  0
  5  6  1  0
  7  8  1  0
  8  9  2  0
  1 10  1  0
  3 11  1  0
  3 12  1  0
  4 13  1  1
  5 14  1  0
  5 15  1  0
  6 16  1  0
  6 17  1  0
  7 18  1  6
M  CHG  2   2  -1   3   1
M  END
>  <filename_input>  (17) 
7CNQ_G8X_docked.sdf

>  <pdb_id>  (17) 
7CNQ_G8X

>  <pose_rank>  (17) 
16

>  <num_atoms_heavy>  (17) 
9

>  <num_torsions>  (17) 
1

>  <pose>  (17) 
[-6.4592497853782636, 16.67435765282812, 56.233847775608474, 3.2622206469607318, 1.9994465272937434, 1.1183551922726538, 2.3308880311368765]

>  <energy>  (17) 
-86.00603929570003

>  <inter_energy>  (17) 
-81.34372289260038

>  <intra_energy>  (17) 
9.933363682561652

>  <rmsd>  (17) 
11.7447

>  <sdf_rank>  (17) 
0

$$$$

     RDKit          3D

 18 18  0  0  0  0  0  0  0  0999 V2000
   -7.0293    5.5057   70.9929 O   0  0  0  0  0  0  0  0  0  0  0  0
   -4.6564    4.6259   72.0510 O   0  0  0  0  0  0  0  0  0  0  0  0
   -5.1873    7.2204   72.5566 N   0  0  0  0  0  0  0  0  0  0  0  0
   -7.3330    6.3161   72.1224 C   0  0  2  0  0  0  0  0  0  0  0  0
   -7.3811    7.7800   71.7273 C   0  0  0  0  0  0  0  0  0  0  0  0
   -5.9939    8.3364   72.0243 C   0  0  0  0  0  0  0  0  0  0  0  0
   -6.1335    6.1900   73.0294 C   0  0  1  0  0  0  0  0  0  0  0  0
   -5.5494    4.8156   72.9035 C   0  0  0  0  0  0  0  0  0  0  0  0
   -5.9231    3.9282   73.7065 O   0  0  0  0  0  0  0  0  0  0  0  0
   -6.6989    4.6240   71.2987 H   0  0  0  0  0  0  0  0  0  0  0  0
   -4.5852    6.8343   71.8154 H   0  0  0  0  0  0  0  0  0  0  0  0
   -4.5789    7.5402   73.3238 H   0  0  0  0  0  0  0  0  0  0  0  0
   -8.2915    6.0101   72.5671 H   0  0  0  0  0  0  0  0  0  0  0  0
   -7.6128    7.8803   70.6567 H   0  0  0  0  0  0  0  0  0  0  0  0
   -8.1619    8.3229   72.2802 H   0  0  0  0  0  0  0  0  0  0  0  0
   -6.0617    9.1428   72.7695 H   0  0  0  0  0  0  0  0  0  0  0  0
   -5.5354    8.7545   71.1161 H   0  0  0  0  0  0  0  0  0  0  0  0
   -6.3824    6.3333   74.0912 H   0  0  0  0  0  0  0  0  0  0  0  0
  4  1  1  0
  2  8  1  0
  3  6  1  0
  3  7  1  0
  4  5  1  0
  4  7  1  0
  5  6  1  0
  7  8  1  0
  8  9  2  0
  1 10  1  0
  3 11  1  0
  3 12  1  0
  4 13  1  1
  5 14  1  0
  5 15  1  0
  6 16  1  0
  6 17  1  0
  7 18  1  1
M  CHG  2   2  -1   3   1
M  END
>  <filename_input>  (18) 
7CNQ_G8X_docked.sdf

>  <pdb_id>  (18) 
7CNQ_G8X

>  <pose_rank>  (18) 
17

>  <num_atoms_heavy>  (18) 
9

>  <num_torsions>  (18) 
1

>  <pose>  (18) 
[-7.029308621360009, 5.505659085732795, 70.99287435269733, 1.0320928741674762, -3.8179866632830484, -1.9850985252833115, -1.1900914652017587]

>  <energy>  (18) 
-85.26165539020714

>  <inter_energy>  (18) 
-65.61886718022966

>  <intra_energy>  (18) 
13.10176118827205

>  <rmsd>  (18) 
12.5796

>  <sdf_rank>  (18) 
0

$$$$

     RDKit          3D

 18 18  0  0  0  0  0  0  0  0999 V2000
    4.0165    5.1637   55.6309 O   0  0  0  0  0  0  0  0  0  0  0  0
    6.2399    5.8079   53.8410 O   0  0  0  0  0  0  0  0  0  0  0  0
    6.4331    4.8463   57.3157 N   0  0  0  0  0  0  0  0  0  0  0  0
    4.8695    4.0295   55.7349 C   0  0  2  0  0  0  0  0  0  0  0  0
    4.6129    3.2901   57.0344 C   0  0  0  0  0  0  0  0  0  0  0  0
    5.6355    3.8283   58.0278 C   0  0  0  0  0  0  0  0  0  0  0  0
    6.2614    4.5969   55.8704 C   0  0  1  0  0  0  0  0  0  0  0  0
    6.3662    5.8673   55.0823 C   0  0  0  0  0  0  0  0  0  0  0  0
    6.5006    6.9490   55.7016 O   0  0  0  0  0  0  0  0  0  0  0  0
    3.7777    5.4812   56.5377 H   0  0  0  0  0  0  0  0  0  0  0  0
    6.0960    5.7899   57.5542 H   0  0  0  0  0  0  0  0  0  0  0  0
    7.4260    4.7881   57.5831 H   0  0  0  0  0  0  0  0  0  0  0  0
    4.7188    3.3567   54.8778 H   0  0  0  0  0  0  0  0  0  0  0  0
    3.5914    3.4870   57.3918 H   0  0  0  0  0  0  0  0  0  0  0  0
    4.7073    2.2017   56.9061 H   0  0  0  0  0  0  0  0  0  0  0  0
    6.2873    3.0142   58.3776 H   0  0  0  0  0  0  0  0  0  0  0  0
    5.1380    4.2632   58.9072 H   0  0  0  0  0  0  0  0  0  0  0  0
    7.0391    3.9201   55.4867 H   0  0  0  0  0  0  0  0  0  0  0  0
  4  1  1  0
  2  8  1  0
  3  6  1  0
  3  7  1  0
  4  5  1  0
  4  7  1  0
  5  6  1  0
  7  8  1  0
  8  9  2  0
  1 10  1  0
  3 11  1  0
  3 12  1  0
  4 13  1  6
  5 14  1  0
  5 15  1  0
  6 16  1  0
  6 17  1  0
  7 18  1  6
M  CHG  2   2  -1   3   1
M  END
>  <filename_input>  (19) 
7CNQ_G8X_docked.sdf

>  <pdb_id>  (19) 
7CNQ_G8X

>  <pose_rank>  (19) 
18

>  <num_atoms_heavy>  (19) 
9

>  <num_torsions>  (19) 
1

>  <pose>  (19) 
[4.016530516353049, 5.163700899540285, 55.63093772985211, 0.6063033067558156, 0.15309491616673387, 2.969028615423816, 2.3873470362532805]

>  <energy>  (19) 
-84.01852105275343

>  <inter_energy>  (19) 
-73.88979883635307

>  <intra_energy>  (19) 
10.206765757138362

>  <rmsd>  (19) 
13.0308

>  <sdf_rank>  (19) 
0

$$$$

     RDKit          3D

 18 18  0  0  0  0  0  0  0  0999 V2000
   -6.2340   18.2212   55.9472 O   0  0  0  0  0  0  0  0  0  0  0  0
   -8.0513   16.1072   54.6459 O   0  0  0  0  0  0  0  0  0  0  0  0
   -8.3433   18.6287   53.9066 N   0  0  0  0  0  0  0  0  0  0  0  0
   -6.1107   18.8368   54.6702 C   0  0  2  0  0  0  0  0  0  0  0  0
   -6.7172   20.2272   54.6909 C   0  0  0  0  0  0  0  0  0  0  0  0
   -8.1467   20.0645   54.1885 C   0  0  0  0  0  0  0  0  0  0  0  0
   -7.0017   18.0296   53.7581 C   0  0  1  0  0  0  0  0  0  0  0  0
   -6.9956   16.5943   54.1893 C   0  0  0  0  0  0  0  0  0  0  0  0
   -5.9568   15.9165   54.0063 O   0  0  0  0  0  0  0  0  0  0  0  0
   -6.0981   18.8997   56.6552 H   0  0  0  0  0  0  0  0  0  0  0  0
   -8.8462   18.1810   54.6861 H   0  0  0  0  0  0  0  0  0  0  0  0
   -8.9018   18.4953   53.0516 H   0  0  0  0  0  0  0  0  0  0  0  0
   -5.0538   18.8869   54.3694 H   0  0  0  0  0  0  0  0  0  0  0  0
   -6.7145   20.6310   55.7141 H   0  0  0  0  0  0  0  0  0  0  0  0
   -6.1453   20.9275   54.0644 H   0  0  0  0  0  0  0  0  0  0  0  0
   -8.2942   20.6534   53.2712 H   0  0  0  0  0  0  0  0  0  0  0  0
   -8.8694   20.4205   54.9374 H   0  0  0  0  0  0  0  0  0  0  0  0
   -6.6701   18.0477   52.7094 H   0  0  0  0  0  0  0  0  0  0  0  0
  4  1  1  0
  2  8  1  0
  3  6  1  0
  3  7  1  0
  4  5  1  0
  4  7  1  0
  5  6  1  0
  7  8  1  0
  8  9  2  0
  1 10  1  0
  3 11  1  0
  3 12  1  0
  4 13  1  6
  5 14  1  0
  5 15  1  0
  6 16  1  0
  6 17  1  0
  7 18  1  6
M  CHG  2   2  -1   3   1
M  END
>  <filename_input>  (20) 
7CNQ_G8X_docked.sdf

>  <pdb_id>  (20) 
7CNQ_G8X

>  <pose_rank>  (20) 
19

>  <num_atoms_heavy>  (20) 
9

>  <num_torsions>  (20) 
1

>  <pose>  (20) 
[-6.233994948717712, 18.221167088977484, 55.94717258193739, 1.6954667143198126, 4.185747410914834, -0.1010137005352073, -0.7979252041442926]

>  <energy>  (20) 
-83.97636122642065

>  <inter_energy>  (20) 
-78.38931001604138

>  <intra_energy>  (20) 
7.341911753911107

>  <rmsd>  (20) 
12.334

>  <sdf_rank>  (20) 
0

$$$$

     RDKit          3D

 18 18  0  0  0  0  0  0  0  0999 V2000
  -10.5316   17.4604   55.6783 O   0  0  0  0  0  0  0  0  0  0  0  0
   -8.2163   18.7896   54.4791 O   0  0  0  0  0  0  0  0  0  0  0  0
   -8.0115   18.1839   57.0583 N   0  0  0  0  0  0  0  0  0  0  0  0
   -9.6741   16.6153   56.4368 C   0  0  2  0  0  0  0  0  0  0  0  0
   -9.8466   16.8790   57.9207 C   0  0  0  0  0  0  0  0  0  0  0  0
   -8.7618   17.8823   58.2935 C   0  0  0  0  0  0  0  0  0  0  0  0
   -8.2761   17.0818   56.1116 C   0  0  1  0  0  0  0  0  0  0  0  0
   -8.2220   17.5587   54.6919 C   0  0  0  0  0  0  0  0  0  0  0  0
   -8.1083   16.7094   53.7768 O   0  0  0  0  0  0  0  0  0  0  0  0
  -11.0848   18.0056   56.2921 H   0  0  0  0  0  0  0  0  0  0  0  0
   -8.3321   19.0776   56.6592 H   0  0  0  0  0  0  0  0  0  0  0  0
   -7.0034   18.2675   57.2521 H   0  0  0  0  0  0  0  0  0  0  0  0
   -9.8801   15.5585   56.2114 H   0  0  0  0  0  0  0  0  0  0  0  0
  -10.8429   17.2998   58.1216 H   0  0  0  0  0  0  0  0  0  0  0  0
   -9.7611   15.9534   58.5089 H   0  0  0  0  0  0  0  0  0  0  0  0
   -8.0891   17.4486   59.0480 H   0  0  0  0  0  0  0  0  0  0  0  0
   -9.2014   18.7963   58.7194 H   0  0  0  0  0  0  0  0  0  0  0  0
   -7.5251   16.2839   56.2076 H   0  0  0  0  0  0  0  0  0  0  0  0
  4  1  1  0
  2  8  1  0
  3  6  1  0
  3  7  1  0
  4  5  1  0
  4  7  1  0
  5  6  1  0
  7  8  1  0
  8  9  2  0
  1 10  1  0
  3 11  1  0
  3 12  1  0
  4 13  1  1
  5 14  1  0
  5 15  1  0
  6 16  1  0
  6 17  1  0
  7 18  1  6
M  CHG  2   2  -1   3   1
M  END
>  <filename_input>  (21) 
7CNQ_G8X_docked.sdf

>  <pdb_id>  (21) 
7CNQ_G8X

>  <pose_rank>  (21) 
20

>  <num_atoms_heavy>  (21) 
9

>  <num_torsions>  (21) 
1

>  <pose>  (21) 
[-10.53158886087074, 17.460354838927095, 55.67829150237516, -0.684191311760654, -1.2891068238712684, -3.0669719459805873, -0.9773097775036445]

>  <energy>  (21) 
-83.09979530828814

>  <inter_energy>  (21) 
-59.0758247607955

>  <intra_energy>  (21) 
8.30084300945891

>  <rmsd>  (21) 
12.198

>  <sdf_rank>  (21) 
0

$$$$

     RDKit          3D

 18 18  0  0  0  0  0  0  0  0999 V2000
  -10.6999   11.7524   73.5606 O   0  0  0  0  0  0  0  0  0  0  0  0
   -9.3410   10.2034   71.5168 O   0  0  0  0  0  0  0  0  0  0  0  0
   -9.5183   12.8194   71.0618 N   0  0  0  0  0  0  0  0  0  0  0  0
   -9.7613   12.8124   73.4180 C   0  0  2  0  0  0  0  0  0  0  0  0
  -10.4486   14.0640   72.9056 C   0  0  0  0  0  0  0  0  0  0  0  0
  -10.2697   14.0464   71.3923 C   0  0  0  0  0  0  0  0  0  0  0  0
   -8.8457   12.3775   72.3000 C   0  0  1  0  0  0  0  0  0  0  0  0
   -8.6857   10.8877   72.3309 C   0  0  0  0  0  0  0  0  0  0  0  0
   -7.8468   10.3898   73.1183 O   0  0  0  0  0  0  0  0  0  0  0  0
  -10.8555   11.5766   74.5224 H   0  0  0  0  0  0  0  0  0  0  0  0
  -10.1634   12.0884   70.7296 H   0  0  0  0  0  0  0  0  0  0  0  0
   -8.8320   12.9988   70.3150 H   0  0  0  0  0  0  0  0  0  0  0  0
   -9.2649   13.0166   74.3781 H   0  0  0  0  0  0  0  0  0  0  0  0
  -11.5174   14.0476   73.1651 H   0  0  0  0  0  0  0  0  0  0  0  0
  -10.0203   14.9729   73.3532 H   0  0  0  0  0  0  0  0  0  0  0  0
   -9.7061   14.9337   71.0680 H   0  0  0  0  0  0  0  0  0  0  0  0
  -11.2437   14.0605   70.8813 H   0  0  0  0  0  0  0  0  0  0  0  0
   -7.8363   12.8071   72.3813 H   0  0  0  0  0  0  0  0  0  0  0  0
  4  1  1  0
  2  8  1  0
  3  6  1  0
  3  7  1  0
  4  5  1  0
  4  7  1  0
  5  6  1  0
  7  8  1  0
  8  9  2  0
  1 10  1  0
  3 11  1  0
  3 12  1  0
  4 13  1  1
  5 14  1  0
  5 15  1  0
  6 16  1  0
  6 17  1  0
  7 18  1  1
M  CHG  2   2  -1   3   1
M  END
>  <filename_input>  (22) 
7CNQ_G8X_docked.sdf

>  <pdb_id>  (22) 
7CNQ_G8X

>  <pose_rank>  (22) 
21

>  <num_atoms_heavy>  (22) 
9

>  <num_torsions>  (22) 
1

>  <pose>  (22) 
[-10.699883577174754, 11.75238182120651, 73.56063734429085, 0.16129290328634427, 3.2777128535967495, 0.58869194594747, -1.0058717740296739]

>  <energy>  (22) 
-82.31140648130234

>  <inter_energy>  (22) 
-81.54282647955488

>  <intra_energy>  (22) 
8.721645833471092

>  <rmsd>  (22) 
12.725

>  <sdf_rank>  (22) 
0

$$$$

     RDKit          3D

 18 18  0  0  0  0  0  0  0  0999 V2000
   -6.7470   16.7253   55.1707 O   0  0  0  0  0  0  0  0  0  0  0  0
   -9.2487   14.7962   56.0604 O   0  0  0  0  0  0  0  0  0  0  0  0
   -8.7530   17.0822   57.3218 N   0  0  0  0  0  0  0  0  0  0  0  0
   -7.6816   17.7864   55.3301 C   0  0  2  0  0  0  0  0  0  0  0  0
   -7.2324   18.7280   56.4314 C   0  0  0  0  0  0  0  0  0  0  0  0
   -7.9416   18.2576   57.6954 C   0  0  0  0  0  0  0  0  0  0  0  0
   -8.9341   17.1297   55.8570 C   0  0  1  0  0  0  0  0  0  0  0  0
   -9.0620   15.7529   55.2792 C   0  0  0  0  0  0  0  0  0  0  0  0
   -9.0528   15.6214   54.0324 O   0  0  0  0  0  0  0  0  0  0  0  0
   -6.4611   16.4008   56.0612 H   0  0  0  0  0  0  0  0  0  0  0  0
   -8.2648   16.2158   57.5898 H   0  0  0  0  0  0  0  0  0  0  0  0
   -9.6626   17.0951   57.8050 H   0  0  0  0  0  0  0  0  0  0  0  0
   -7.8024   18.3360   54.3849 H   0  0  0  0  0  0  0  0  0  0  0  0
   -6.1415   18.6728   56.5612 H   0  0  0  0  0  0  0  0  0  0  0  0
   -7.4782   19.7738   56.1948 H   0  0  0  0  0  0  0  0  0  0  0  0
   -8.5902   19.0563   58.0845 H   0  0  0  0  0  0  0  0  0  0  0  0
   -7.2156   18.0004   58.4808 H   0  0  0  0  0  0  0  0  0  0  0  0
   -9.8503   17.6746   55.5853 H   0  0  0  0  0  0  0  0  0  0  0  0
  4  1  1  0
  2  8  1  0
  3  6  1  0
  3  7  1  0
  4  5  1  0
  4  7  1  0
  5  6  1  0
  7  8  1  0
  8  9  2  0
  1 10  1  0
  3 11  1  0
  3 12  1  0
  4 13  1  6
  5 14  1  0
  5 15  1  0
  6 16  1  0
  6 17  1  0
  7 18  1  1
M  CHG  2   2  -1   3   1
M  END
>  <filename_input>  (23) 
7CNQ_G8X_docked.sdf

>  <pdb_id>  (23) 
7CNQ_G8X

>  <pose_rank>  (23) 
22

>  <num_atoms_heavy>  (23) 
9

>  <num_torsions>  (23) 
1

>  <pose>  (23) 
[-6.746977729089147, 16.725309325207533, 55.170697192073334, 0.9165101914145837, 6.031718615556973, -0.2911591325460504, -0.5314415550465312]

>  <energy>  (23) 
-80.34332918084321

>  <inter_energy>  (23) 
-69.80610175166316

>  <intra_energy>  (23) 
11.274025860631882

>  <rmsd>  (23) 
11.4391

>  <sdf_rank>  (23) 
0

$$$$

     RDKit          3D

 18 18  0  0  0  0  0  0  0  0999 V2000
   -6.5597    8.2176   71.0688 O   0  0  0  0  0  0  0  0  0  0  0  0
   -8.9667    8.4792   73.0222 O   0  0  0  0  0  0  0  0  0  0  0  0
   -6.9283    6.9480   73.7204 N   0  0  0  0  0  0  0  0  0  0  0  0
   -5.7055    8.2957   72.2041 C   0  0  2  0  0  0  0  0  0  0  0  0
   -4.9290    7.0035   72.3736 C   0  0  0  0  0  0  0  0  0  0  0  0
   -5.7325    6.1619   73.3576 C   0  0  0  0  0  0  0  0  0  0  0  0
   -6.6355    8.3574   73.3910 C   0  0  1  0  0  0  0  0  0  0  0  0
   -7.8824    9.0993   73.0156 C   0  0  0  0  0  0  0  0  0  0  0  0
   -7.8030   10.3287   72.7830 O   0  0  0  0  0  0  0  0  0  0  0  0
   -7.4994    8.1317   71.3681 H   0  0  0  0  0  0  0  0  0  0  0  0
   -7.7432    6.6209   73.1819 H   0  0  0  0  0  0  0  0  0  0  0  0
   -7.1475    6.8425   74.7212 H   0  0  0  0  0  0  0  0  0  0  0  0
   -5.0138    9.1454   72.1056 H   0  0  0  0  0  0  0  0  0  0  0  0
   -4.8377    6.4823   71.4092 H   0  0  0  0  0  0  0  0  0  0  0  0
   -3.9084    7.1896   72.7394 H   0  0  0  0  0  0  0  0  0  0  0  0
   -5.1313    5.9525   74.2547 H   0  0  0  0  0  0  0  0  0  0  0  0
   -6.0166    5.1981   72.9099 H   0  0  0  0  0  0  0  0  0  0  0  0
   -6.1982    8.8860   74.2509 H   0  0  0  0  0  0  0  0  0  0  0  0
  4  1  1  0
  2  8  1  0
  3  6  1  0
  3  7  1  0
  4  5  1  0
  4  7  1  0
  5  6  1  0
  7  8  1  0
  8  9  2  0
  1 10  1  0
  3 11  1  0
  3 12  1  0
  4 13  1  6
  5 14  1  0
  5 15  1  0
  6 16  1  0
  6 17  1  0
  7 18  1  1
M  CHG  2   2  -1   3   1
M  END
>  <filename_input>  (24) 
7CNQ_G8X_docked.sdf

>  <pdb_id>  (24) 
7CNQ_G8X

>  <pose_rank>  (24) 
23

>  <num_atoms_heavy>  (24) 
9

>  <num_torsions>  (24) 
1

>  <pose>  (24) 
[-6.559690756661119, 8.217626407114393, 71.06876174429455, -2.4244309234566708, -1.5011664647694731, 3.4572052107355646, -0.7552739066137858]

>  <energy>  (24) 
-79.19763632863192

>  <inter_energy>  (24) 
-54.64087818012411

>  <intra_energy>  (24) 
7.546640885583191

>  <rmsd>  (24) 
12.3085

>  <sdf_rank>  (24) 
0

$$$$

     RDKit          3D

 18 18  0  0  0  0  0  0  0  0999 V2000
    8.7657    8.2655   70.9610 O   0  0  0  0  0  0  0  0  0  0  0  0
    6.4402    7.0527   70.2101 O   0  0  0  0  0  0  0  0  0  0  0  0
    7.0657    8.7009   73.3483 N   0  0  0  0  0  0  0  0  0  0  0  0
    7.8330    9.3147   71.1930 C   0  0  2  0  0  0  0  0  0  0  0  0
    8.4034   10.3250   72.1705 C   0  0  0  0  0  0  0  0  0  0  0  0
    7.8881    9.9113   73.5437 C   0  0  0  0  0  0  0  0  0  0  0  0
    6.6835    8.6634   71.9223 C   0  0  1  0  0  0  0  0  0  0  0  0
    6.5153    7.2543   71.4406 C   0  0  0  0  0  0  0  0  0  0  0  0
    6.5322    6.3255   72.2825 O   0  0  0  0  0  0  0  0  0  0  0  0
    9.0831    7.9084   71.8281 H   0  0  0  0  0  0  0  0  0  0  0  0
    7.6099    7.8607   73.5907 H   0  0  0  0  0  0  0  0  0  0  0  0
    6.2313    8.7224   73.9518 H   0  0  0  0  0  0  0  0  0  0  0  0
    7.5683    9.8085   70.2463 H   0  0  0  0  0  0  0  0  0  0  0  0
    9.5029   10.2989   72.1502 H   0  0  0  0  0  0  0  0  0  0  0  0
    8.0987   11.3508   71.9161 H   0  0  0  0  0  0  0  0  0  0  0  0
    7.2775   10.7172   73.9768 H   0  0  0  0  0  0  0  0  0  0  0  0
    8.7221    9.7127   74.2329 H   0  0  0  0  0  0  0  0  0  0  0  0
    5.7241    9.1738   71.7524 H   0  0  0  0  0  0  0  0  0  0  0  0
  4  1  1  0
  2  8  1  0
  3  6  1  0
  3  7  1  0
  4  5  1  0
  4  7  1  0
  5  6  1  0
  7  8  1  0
  8  9  2  0
  1 10  1  0
  3 11  1  0
  3 12  1  0
  4 13  1  6
  5 14  1  0
  5 15  1  0
  6 16  1  0
  6 17  1  0
  7 18  1  1
M  CHG  2   2  -1   3   1
M  END
>  <filename_input>  (25) 
7CNQ_G8X_docked.sdf

>  <pdb_id>  (25) 
7CNQ_G8X

>  <pose_rank>  (25) 
24

>  <num_atoms_heavy>  (25) 
9

>  <num_torsions>  (25) 
1

>  <pose>  (25) 
[8.765730220454143, 8.265450379930122, 70.96096871183147, 5.147793264291068, 2.2857330969688956, -2.56769049030806, 2.6166429076362463]

>  <energy>  (25) 
-78.99226521452694

>  <inter_energy>  (25) 
-70.67522708382477

>  <intra_energy>  (25) 
14.306804978072918

>  <rmsd>  (25) 
12.4806

>  <sdf_rank>  (25) 
0

$$$$

     RDKit          3D

 18 18  0  0  0  0  0  0  0  0999 V2000
    0.6600   12.7970   62.5390 O   0  0  0  0  0  0  0  0  0  0  0  0
   -2.2260   10.9950   63.7100 O   0  0  0  0  0  0  0  0  0  0  0  0
   -0.9420   13.1080   65.0120 N   0  0  0  0  0  0  0  0  0  0  0  0
   -0.2220   13.8590   62.8840 C   0  0  2  0  0  0  0  0  0  0  0  0
    0.4200   14.7680   63.9150 C   0  0  0  0  0  0  0  0  0  0  0  0
   -0.0660   14.2680   65.2700 C   0  0  0  0  0  0  0  0  0  0  0  0
   -1.3720   13.1960   63.6020 C   0  0  1  0  0  0  0  0  0  0  0  0
   -1.6120   11.8360   63.0200 C   0  0  0  0  0  0  0  0  0  0  0  0
   -1.2560   11.6170   61.8380 O   0  0  0  0  0  0  0  0  0  0  0  0
    1.0091   12.3766   63.3645 H   0  0  0  0  0  0  0  0  0  0  0  0
   -0.4241   12.2318   65.1697 H   0  0  0  0  0  0  0  0  0  0  0  0
   -1.7546   13.1134   65.6449 H   0  0  0  0  0  0  0  0  0  0  0  0
   -0.4978   14.4345   61.9881 H   0  0  0  0  0  0  0  0  0  0  0  0
    1.5163   14.7027   63.8534 H   0  0  0  0  0  0  0  0  0  0  0  0
    0.1483   15.8212   63.7511 H   0  0  0  0  0  0  0  0  0  0  0  0
   -0.6294   15.0599   65.7852 H   0  0  0  0  0  0  0  0  0  0  0  0
    0.7816   13.9854   65.9117 H   0  0  0  0  0  0  0  0  0  0  0  0
   -2.3154   13.7535   63.5062 H   0  0  0  0  0  0  0  0  0  0  0  0
  4  1  1  0
  2  8  1  0
  3  6  1  0
  3  7  1  0
  4  5  1  0
  4  7  1  0
  5  6  1  0
  7  8  1  0
  8  9  2  0
  1 10  1  0
  3 11  1  0
  3 12  1  0
  4 13  1  6
  5 14  1  0
  5 15  1  0
  6 16  1  0
  6 17  1  0
  7 18  1  1
M  CHG  2   2  -1   3   1
M  END
>  <filename_input>  (26) 
7CNQ_G8X_docked.sdf

>  <pdb_id>  (26) 
7CNQ_G8X

>  <pose_rank>  (26) 
25

>  <num_atoms_heavy>  (26) 
9

>  <num_torsions>  (26) 
1

>  <pose>  (26) 
[0.66, 12.797, 62.539, 1e-06, 1e-06, 1e-06, 0.0]

>  <energy>  (26) 
-522.3884522412422

>  <inter_energy>  (26) 
-558.2988820449496

>  <intra_energy>  (26) 
32.643329956182114

>  <rmsd>  (26) 
0.0

>  <sdf_rank>  (26) 
0

$$$$
