
     RDKit          3D

 24 23  0  0  0  0  0  0  0  0999 V2000
   -0.1300  -20.0452  -22.5999 O   0  0  0  0  0  0  0  0  0  0  0  0
    0.1861  -20.0617  -21.1240 P   0  0  2  0  0  0  0  0  0  0  0  0
   -0.5601  -21.1945  -20.4424 O   0  0  0  0  0  0  0  0  0  0  0  0
   -0.2097  -18.6383  -20.5159 O   0  0  0  0  0  0  0  0  0  0  0  0
    1.7642  -20.3134  -20.9749 O   0  0  0  0  0  0  0  0  0  0  0  0
    2.4917  -19.8077  -19.8533 C   0  0  0  0  0  0  0  0  0  0  0  0
    1.5286  -19.2058  -18.8348 C   0  0  0  0  0  0  0  0  0  0  0  0
    1.2098  -20.1674  -17.6864 C   0  0  2  0  0  0  0  0  0  0  0  0
    1.7950  -21.4545  -17.9541 O   0  0  0  0  0  0  0  0  0  0  0  0
   -0.2975  -20.3397  -17.6854 C   0  0  0  0  0  0  0  0  0  0  0  0
    1.7895  -19.6235  -16.3703 C   0  0  0  0  0  0  0  0  0  0  0  0
    3.2594  -19.9012  -16.0768 C   0  0  0  0  0  0  0  0  0  0  0  0
    3.7297  -21.0618  -16.1341 O   0  0  0  0  0  0  0  0  0  0  0  0
    3.9595  -18.9463  -15.6497 O   0  0  0  0  0  0  0  0  0  0  0  0
    3.0528  -20.6287  -19.3830 H   0  0  0  0  0  0  0  0  0  0  0  0
    3.1879  -19.0283  -20.1963 H   0  0  0  0  0  0  0  0  0  0  0  0
    1.9821  -18.2952  -18.4163 H   0  0  0  0  0  0  0  0  0  0  0  0
    0.5857  -18.9860  -19.3570 H   0  0  0  0  0  0  0  0  0  0  0  0
    2.0010  -21.9078  -17.0984 H   0  0  0  0  0  0  0  0  0  0  0  0
   -0.6611  -20.3812  -16.6481 H   0  0  0  0  0  0  0  0  0  0  0  0
   -0.7641  -19.4890  -18.2037 H   0  0  0  0  0  0  0  0  0  0  0  0
   -0.5601  -21.2737  -18.2037 H   0  0  0  0  0  0  0  0  0  0  0  0
    1.6565  -18.5316  -16.3788 H   0  0  0  0  0  0  0  0  0  0  0  0
    1.2416  -20.1600  -15.5816 H   0  0  0  0  0  0  0  0  0  0  0  0
  2  1  1  6
  2  3  1  0
  2  4  2  0
  2  5  1  0
  5  6  1  0
  6  7  1  0
  7  8  1  0
  8  9  1  6
  8 10  1  0
  8 11  1  0
 11 12  1  0
 12 13  1  0
 12 14  2  0
  6 15  1  0
  6 16  1  0
  7 17  1  0
  7 18  1  0
  9 19  1  0
 10 20  1  0
 10 21  1  0
 10 22  1  0
 11 23  1  0
 11 24  1  0
M  CHG  3   1  -1   3  -1  13  -1
M  END
>  <filename_input>  (1) 
7CNS_PMV_docked.sdf

>  <pdb_id>  (1) 
7CNS_PMV

>  <pose_rank>  (1) 
0

>  <num_atoms_heavy>  (1) 
14

>  <num_torsions>  (1) 
6

>  <pose>  (1) 
[1.5285712345804225, -19.20575667232392, -18.83480839002961, 3.4161851601212234, 0.48417632726203075, -0.14953267652245433, 0.9472170912037471, 1.8174851047046454, -0.9726354220847006, -1.5732750716159043, 3.397765631651632, 1.360936820664884]

>  <energy>  (1) 
-471.3607653973373

>  <inter_energy>  (1) 
-552.0484527438407

>  <intra_energy>  (1) 
87.78762883403677

>  <rmsd>  (1) 
5.48391

>  <sdf_rank>  (1) 
0

$$$$

     RDKit          3D

 24 23  0  0  0  0  0  0  0  0999 V2000
    3.7512  -20.8745  -14.8548 O   0  0  0  0  0  0  0  0  0  0  0  0
    3.1957  -19.9999  -15.9525 P   0  0  2  0  0  0  0  0  0  0  0  0
    4.3234  -19.4712  -16.8205 O   0  0  0  0  0  0  0  0  0  0  0  0
    2.3647  -18.8173  -15.2718 O   0  0  0  0  0  0  0  0  0  0  0  0
    2.2311  -20.9146  -16.8518 O   0  0  0  0  0  0  0  0  0  0  0  0
    1.1267  -20.3502  -17.5622 C   0  0  0  0  0  0  0  0  0  0  0  0
    0.3123  -21.4566  -18.2254 C   0  0  0  0  0  0  0  0  0  0  0  0
   -0.2628  -21.0328  -19.5800 C   0  0  2  0  0  0  0  0  0  0  0  0
   -0.7097  -19.6666  -19.5119 O   0  0  0  0  0  0  0  0  0  0  0  0
   -1.4830  -21.9038  -19.8123 C   0  0  0  0  0  0  0  0  0  0  0  0
    0.8178  -21.1472  -20.6677 C   0  0  0  0  0  0  0  0  0  0  0  0
    0.4120  -20.8333  -22.1033 C   0  0  0  0  0  0  0  0  0  0  0  0
    1.1759  -20.2096  -22.8773 O   0  0  0  0  0  0  0  0  0  0  0  0
   -0.7665  -21.1078  -22.4497 O   0  0  0  0  0  0  0  0  0  0  0  0
    0.4858  -19.7974  -16.8595 H   0  0  0  0  0  0  0  0  0  0  0  0
    1.5065  -19.6677  -18.3368 H   0  0  0  0  0  0  0  0  0  0  0  0
    0.9628  -22.3306  -18.3766 H   0  0  0  0  0  0  0  0  0  0  0  0
   -0.5338  -21.6907  -17.5626 H   0  0  0  0  0  0  0  0  0  0  0  0
   -0.7985  -19.3953  -18.5640 H   0  0  0  0  0  0  0  0  0  0  0  0
   -1.9072  -22.2066  -18.8436 H   0  0  0  0  0  0  0  0  0  0  0  0
   -2.2351  -21.3372  -20.3809 H   0  0  0  0  0  0  0  0  0  0  0  0
   -1.1914  -22.7992  -20.3809 H   0  0  0  0  0  0  0  0  0  0  0  0
    1.6308  -20.4572  -20.3975 H   0  0  0  0  0  0  0  0  0  0  0  0
    1.0878  -22.2134  -20.6813 H   0  0  0  0  0  0  0  0  0  0  0  0
  2  1  1  1
  2  3  1  0
  2  4  2  0
  2  5  1  0
  5  6  1  0
  6  7  1  0
  7  8  1  0
  8  9  1  1
  8 10  1  0
  8 11  1  0
 11 12  1  0
 12 13  1  0
 12 14  2  0
  6 15  1  0
  6 16  1  0
  7 17  1  0
  7 18  1  0
  9 19  1  0
 10 20  1  0
 10 21  1  0
 10 22  1  0
 11 23  1  0
 11 24  1  0
M  CHG  3   1  -1   3  -1  13  -1
M  END
>  <filename_input>  (2) 
7CNS_PMV_docked.sdf

>  <pdb_id>  (2) 
7CNS_PMV

>  <pose_rank>  (2) 
1

>  <num_atoms_heavy>  (2) 
14

>  <num_torsions>  (2) 
6

>  <pose>  (2) 
[0.31227519565130346, -21.4565942347865, -18.225370260416337, -2.9759416333905393, -3.350311740843772, -4.474298598788392, -5.908608739337761, 6.3566419088005235, -3.893226835942191, 0.4653101039057246, 0.2236086900611099, 7.655928984670238]

>  <energy>  (2) 
-464.3958206142279

>  <inter_energy>  (2) 
-475.01324839997557

>  <intra_energy>  (2) 
17.517556980802713

>  <rmsd>  (2) 
0.736228

>  <sdf_rank>  (2) 
0

$$$$

     RDKit          3D

 24 23  0  0  0  0  0  0  0  0999 V2000
    0.3836  -19.0357  -21.6287 O   0  0  0  0  0  0  0  0  0  0  0  0
    0.4831  -20.5411  -21.6816 P   0  0  2  0  0  0  0  0  0  0  0  0
    1.2402  -20.9713  -22.9251 O   0  0  0  0  0  0  0  0  0  0  0  0
   -0.9987  -21.1374  -21.6516 O   0  0  0  0  0  0  0  0  0  0  0  0
    1.3014  -21.0130  -20.3841 O   0  0  0  0  0  0  0  0  0  0  0  0
    2.1800  -20.1188  -19.6974 C   0  0  0  0  0  0  0  0  0  0  0  0
    1.3766  -19.1905  -18.7919 C   0  0  0  0  0  0  0  0  0  0  0  0
    1.1160  -19.7969  -17.4100 C   0  0  2  0  0  0  0  0  0  0  0  0
    0.3352  -20.9979  -17.5459 O   0  0  0  0  0  0  0  0  0  0  0  0
    0.2739  -18.7848  -16.6563 C   0  0  0  0  0  0  0  0  0  0  0  0
    2.4501  -20.1472  -16.7306 C   0  0  0  0  0  0  0  0  0  0  0  0
    2.7036  -19.5834  -15.3372 C   0  0  0  0  0  0  0  0  0  0  0  0
    3.3881  -18.5473  -15.1655 O   0  0  0  0  0  0  0  0  0  0  0  0
    2.3110  -20.2626  -14.3528 O   0  0  0  0  0  0  0  0  0  0  0  0
    2.8873  -20.7000  -19.0876 H   0  0  0  0  0  0  0  0  0  0  0  0
    2.7304  -19.5163  -20.4349 H   0  0  0  0  0  0  0  0  0  0  0  0
    1.9354  -18.2516  -18.6650 H   0  0  0  0  0  0  0  0  0  0  0  0
    0.4009  -19.0202  -19.2705 H   0  0  0  0  0  0  0  0  0  0  0  0
    0.1081  -21.3473  -16.6479 H   0  0  0  0  0  0  0  0  0  0  0  0
    0.3999  -18.9362  -15.5741 H   0  0  0  0  0  0  0  0  0  0  0  0
    0.5959  -17.7677  -16.9242 H   0  0  0  0  0  0  0  0  0  0  0  0
   -0.7848  -18.9166  -16.9242 H   0  0  0  0  0  0  0  0  0  0  0  0
    2.5034  -21.2434  -16.6565 H   0  0  0  0  0  0  0  0  0  0  0  0
    3.2172  -19.6787  -17.3647 H   0  0  0  0  0  0  0  0  0  0  0  0
  2  1  1  1
  2  3  1  0
  2  4  2  0
  2  5  1  0
  5  6  1  0
  6  7  1  0
  7  8  1  0
  8  9  1  6
  8 10  1  0
  8 11  1  0
 11 12  1  0
 12 13  1  0
 12 14  2  0
  6 15  1  0
  6 16  1  0
  7 17  1  0
  7 18  1  0
  9 19  1  0
 10 20  1  0
 10 21  1  0
 10 22  1  0
 11 23  1  0
 11 24  1  0
M  CHG  3   1  -1   3  -1  13  -1
M  END
>  <filename_input>  (3) 
7CNS_PMV_docked.sdf

>  <pdb_id>  (3) 
7CNS_PMV

>  <pose_rank>  (3) 
2

>  <num_atoms_heavy>  (3) 
14

>  <num_torsions>  (3) 
6

>  <pose>  (3) 
[1.3765721545689968, -19.190489471879744, -18.79186183702736, 3.1856951207146933, 0.266668157951712, -0.32594684024160125, -6.305794369071427, -0.8129652349423158, 4.506195562164474, -1.7803314328912987, -1.6180602150386534, -1.6692441619677298]

>  <energy>  (3) 
-537.2372909906076

>  <inter_energy>  (3) 
-553.5639668674336

>  <intra_energy>  (3) 
16.94785966119237

>  <rmsd>  (3) 
5.88693

>  <sdf_rank>  (3) 
0

$$$$

     RDKit          3D

 24 23  0  0  0  0  0  0  0  0999 V2000
    4.6280  -18.6736  -16.6239 O   0  0  0  0  0  0  0  0  0  0  0  0
    3.7264  -19.6355  -15.8887 P   0  0  2  0  0  0  0  0  0  0  0  0
    3.0657  -18.9379  -14.7133 O   0  0  0  0  0  0  0  0  0  0  0  0
    4.6082  -20.8828  -15.4207 O   0  0  0  0  0  0  0  0  0  0  0  0
    2.5905  -20.1096  -16.9186 O   0  0  0  0  0  0  0  0  0  0  0  0
    2.7854  -20.0136  -18.3313 C   0  0  0  0  0  0  0  0  0  0  0  0
    2.0206  -21.1267  -19.0407 C   0  0  0  0  0  0  0  0  0  0  0  0
    1.4314  -20.6749  -20.3800 C   0  0  2  0  0  0  0  0  0  0  0  0
    2.0544  -21.4016  -21.4546 O   0  0  0  0  0  0  0  0  0  0  0  0
    1.8075  -19.2134  -20.5357 C   0  0  0  0  0  0  0  0  0  0  0  0
   -0.0811  -20.9497  -20.4074 C   0  0  0  0  0  0  0  0  0  0  0  0
   -0.5968  -22.1463  -19.6161 C   0  0  0  0  0  0  0  0  0  0  0  0
   -0.6322  -22.1356  -18.3631 O   0  0  0  0  0  0  0  0  0  0  0  0
   -0.8671  -23.1960  -20.2559 O   0  0  0  0  0  0  0  0  0  0  0  0
    2.4193  -19.0381  -18.6840 H   0  0  0  0  0  0  0  0  0  0  0  0
    3.8578  -20.1129  -18.5553 H   0  0  0  0  0  0  0  0  0  0  0  0
    2.7082  -21.9657  -19.2233 H   0  0  0  0  0  0  0  0  0  0  0  0
    1.1836  -21.4224  -18.3911 H   0  0  0  0  0  0  0  0  0  0  0  0
    2.6509  -22.0974  -21.0802 H   0  0  0  0  0  0  0  0  0  0  0  0
    1.9249  -18.7572  -19.5417 H   0  0  0  0  0  0  0  0  0  0  0  0
    2.7549  -19.1356  -21.0891 H   0  0  0  0  0  0  0  0  0  0  0  0
    1.0153  -18.6879  -21.0891 H   0  0  0  0  0  0  0  0  0  0  0  0
   -0.5851  -20.0541  -20.0150 H   0  0  0  0  0  0  0  0  0  0  0  0
   -0.3011  -21.1940  -21.4571 H   0  0  0  0  0  0  0  0  0  0  0  0
  2  1  1  6
  2  3  1  0
  2  4  2  0
  2  5  1  0
  5  6  1  0
  6  7  1  0
  7  8  1  0
  8  9  1  6
  8 10  1  0
  8 11  1  0
 11 12  1  0
 12 13  1  0
 12 14  2  0
  6 15  1  0
  6 16  1  0
  7 17  1  0
  7 18  1  0
  9 19  1  0
 10 20  1  0
 10 21  1  0
 10 22  1  0
 11 23  1  0
 11 24  1  0
M  CHG  3   1  -1   3  -1  13  -1
M  END
>  <filename_input>  (4) 
7CNS_PMV_docked.sdf

>  <pdb_id>  (4) 
7CNS_PMV

>  <pose_rank>  (4) 
3

>  <num_atoms_heavy>  (4) 
14

>  <num_torsions>  (4) 
6

>  <pose>  (4) 
[2.020620870363354, -21.126738933479093, -19.040658705738554, -3.023691519917949, 5.3087540250930045, -1.3121115121941964, 3.068804019311839, 2.7264229137985994, 1.1884989463105216, -0.7829098824086604, -0.40096840212138946, -0.9045481551929789]

>  <energy>  (4) 
-477.18811964785147

>  <inter_energy>  (4) 
-499.72163975102666

>  <intra_energy>  (4) 
13.955262325211436

>  <rmsd>  (4) 
2.63376

>  <sdf_rank>  (4) 
0

$$$$

     RDKit          3D

 24 23  0  0  0  0  0  0  0  0999 V2000
    4.1967  -21.0385  -15.0919 O   0  0  0  0  0  0  0  0  0  0  0  0
    3.7663  -19.9689  -16.0663 P   0  0  2  0  0  0  0  0  0  0  0  0
    4.8552  -18.9205  -16.2060 O   0  0  0  0  0  0  0  0  0  0  0  0
    2.3974  -19.3376  -15.5371 O   0  0  0  0  0  0  0  0  0  0  0  0
    3.5411  -20.6788  -17.4880 O   0  0  0  0  0  0  0  0  0  0  0  0
    2.5638  -20.1933  -18.4112 C   0  0  0  0  0  0  0  0  0  0  0  0
    1.3480  -21.1147  -18.4169 C   0  0  0  0  0  0  0  0  0  0  0  0
    0.3579  -20.7758  -19.5349 C   0  0  2  0  0  0  0  0  0  0  0  0
    1.0724  -20.2898  -20.6856 O   0  0  0  0  0  0  0  0  0  0  0  0
   -0.4974  -19.6374  -19.0113 C   0  0  0  0  0  0  0  0  0  0  0  0
   -0.4312  -22.0329  -19.9360 C   0  0  0  0  0  0  0  0  0  0  0  0
   -1.3135  -22.6822  -18.8759 C   0  0  0  0  0  0  0  0  0  0  0  0
   -0.9147  -23.6626  -18.2041 O   0  0  0  0  0  0  0  0  0  0  0  0
   -2.5041  -22.2841  -18.7841 O   0  0  0  0  0  0  0  0  0  0  0  0
    2.2525  -19.1812  -18.1133 H   0  0  0  0  0  0  0  0  0  0  0  0
    3.0017  -20.1673  -19.4200 H   0  0  0  0  0  0  0  0  0  0  0  0
    1.6917  -22.1508  -18.5527 H   0  0  0  0  0  0  0  0  0  0  0  0
    0.8256  -20.9832  -17.4578 H   0  0  0  0  0  0  0  0  0  0  0  0
    1.8535  -19.7586  -20.3890 H   0  0  0  0  0  0  0  0  0  0  0  0
   -0.4891  -19.6485  -17.9114 H   0  0  0  0  0  0  0  0  0  0  0  0
   -0.0935  -18.6797  -19.3714 H   0  0  0  0  0  0  0  0  0  0  0  0
   -1.5296  -19.7587  -19.3714 H   0  0  0  0  0  0  0  0  0  0  0  0
   -1.0802  -21.7582  -20.7806 H   0  0  0  0  0  0  0  0  0  0  0  0
    0.3389  -22.7865  -20.1574 H   0  0  0  0  0  0  0  0  0  0  0  0
  2  1  1  1
  2  3  1  0
  2  4  2  0
  2  5  1  0
  5  6  1  0
  6  7  1  0
  7  8  1  0
  8  9  1  6
  8 10  1  0
  8 11  1  0
 11 12  1  0
 12 13  1  0
 12 14  2  0
  6 15  1  0
  6 16  1  0
  7 17  1  0
  7 18  1  0
  9 19  1  0
 10 20  1  0
 10 21  1  0
 10 22  1  0
 11 23  1  0
 11 24  1  0
M  CHG  3   1  -1   3  -1  13  -1
M  END
>  <filename_input>  (5) 
7CNS_PMV_docked.sdf

>  <pdb_id>  (5) 
7CNS_PMV

>  <pose_rank>  (5) 
4

>  <num_atoms_heavy>  (5) 
14

>  <num_torsions>  (5) 
6

>  <pose>  (5) 
[1.3480241464560976, -21.114728403792174, -18.416853420227294, 2.7768226976419905, -4.050919757727248, 2.9810212549782835, 1.6405497035249377, 4.356231405944442, -1.7642413156993324, 0.0019574320375129045, 1.4466930558720412, 1.3181456509551006]

>  <energy>  (5) 
-540.0319359821608

>  <inter_energy>  (5) 
-531.3483268397074

>  <intra_energy>  (5) 
3.3337975288617727

>  <rmsd>  (5) 
2.88832

>  <sdf_rank>  (5) 
0

$$$$

     RDKit          3D

 24 23  0  0  0  0  0  0  0  0999 V2000
    1.2513  -20.7376  -21.7119 O   0  0  0  0  0  0  0  0  0  0  0  0
    0.1331  -20.8487  -20.7040 P   0  0  2  0  0  0  0  0  0  0  0  0
   -0.7108  -22.0771  -20.9932 O   0  0  0  0  0  0  0  0  0  0  0  0
   -0.7296  -19.5056  -20.7702 O   0  0  0  0  0  0  0  0  0  0  0  0
    0.8071  -21.0087  -19.2563 O   0  0  0  0  0  0  0  0  0  0  0  0
    0.4385  -20.1562  -18.1699 C   0  0  0  0  0  0  0  0  0  0  0  0
    1.0646  -20.6618  -16.8739 C   0  0  0  0  0  0  0  0  0  0  0  0
    1.5254  -19.5230  -15.9595 C   0  0  2  0  0  0  0  0  0  0  0  0
    0.4331  -19.0985  -15.1244 O   0  0  0  0  0  0  0  0  0  0  0  0
    1.8817  -18.3653  -16.8730 C   0  0  0  0  0  0  0  0  0  0  0  0
    2.6775  -20.0040  -15.0622 C   0  0  0  0  0  0  0  0  0  0  0  0
    4.0549  -20.1521  -15.6983 C   0  0  0  0  0  0  0  0  0  0  0  0
    4.6671  -19.1650  -16.1698 O   0  0  0  0  0  0  0  0  0  0  0  0
    4.5046  -21.3179  -15.8512 O   0  0  0  0  0  0  0  0  0  0  0  0
    0.7935  -19.1348  -18.3717 H   0  0  0  0  0  0  0  0  0  0  0  0
   -0.6566  -20.1569  -18.0660 H   0  0  0  0  0  0  0  0  0  0  0  0
    0.3203  -21.2668  -16.3355 H   0  0  0  0  0  0  0  0  0  0  0  0
    1.9520  -21.2543  -17.1414 H   0  0  0  0  0  0  0  0  0  0  0  0
    0.6875  -19.1973  -14.1728 H   0  0  0  0  0  0  0  0  0  0  0  0
    2.1514  -17.4887  -16.2657 H   0  0  0  0  0  0  0  0  0  0  0  0
    2.7343  -18.6481  -17.5078 H   0  0  0  0  0  0  0  0  0  0  0  0
    1.0175  -18.1198  -17.5078 H   0  0  0  0  0  0  0  0  0  0  0  0
    2.7727  -19.2847  -14.2355 H   0  0  0  0  0  0  0  0  0  0  0  0
    2.3945  -21.0258  -14.7691 H   0  0  0  0  0  0  0  0  0  0  0  0
  2  1  1  6
  2  3  1  0
  2  4  2  0
  2  5  1  0
  5  6  1  0
  6  7  1  0
  7  8  1  0
  8  9  1  1
  8 10  1  0
  8 11  1  0
 11 12  1  0
 12 13  1  0
 12 14  2  0
  6 15  1  0
  6 16  1  0
  7 17  1  0
  7 18  1  0
  9 19  1  0
 10 20  1  0
 10 21  1  0
 10 22  1  0
 11 23  1  0
 11 24  1  0
M  CHG  3   1  -1   3  -1  13  -1
M  END
>  <filename_input>  (6) 
7CNS_PMV_docked.sdf

>  <pdb_id>  (6) 
7CNS_PMV

>  <pose_rank>  (6) 
5

>  <num_atoms_heavy>  (6) 
14

>  <num_torsions>  (6) 
6

>  <pose>  (6) 
[1.0646390479461925, -20.66179872489287, -16.87393932061866, 0.02189822521077167, 2.8513962130309074, -0.9063774149689032, 2.5773283887713703, 4.586090058468362, 7.316325572836925, -0.8059955112088425, -0.018455882722110746, -5.331085245796421]

>  <energy>  (6) 
-424.1723842549984

>  <inter_energy>  (6) 
-441.5694630716808

>  <intra_energy>  (6) 
11.456968196379483

>  <rmsd>  (6) 
5.82766

>  <sdf_rank>  (6) 
0

$$$$

     RDKit          3D

 24 23  0  0  0  0  0  0  0  0999 V2000
    3.9732  -18.7871  -15.9116 O   0  0  0  0  0  0  0  0  0  0  0  0
    3.3118  -20.1351  -15.7563 P   0  0  2  0  0  0  0  0  0  0  0  0
    2.4747  -20.1637  -14.4902 O   0  0  0  0  0  0  0  0  0  0  0  0
    4.4560  -21.2499  -15.7380 O   0  0  0  0  0  0  0  0  0  0  0  0
    2.3483  -20.3446  -17.0227 O   0  0  0  0  0  0  0  0  0  0  0  0
    2.8114  -20.1031  -18.3531 C   0  0  0  0  0  0  0  0  0  0  0  0
    1.6592  -19.6166  -19.2267 C   0  0  0  0  0  0  0  0  0  0  0  0
    0.6807  -20.7378  -19.5881 C   0  0  2  0  0  0  0  0  0  0  0  0
    1.3432  -22.0115  -19.4887 O   0  0  0  0  0  0  0  0  0  0  0  0
    0.3125  -20.5244  -21.0442 C   0  0  0  0  0  0  0  0  0  0  0  0
   -0.5141  -20.7238  -18.6204 C   0  0  0  0  0  0  0  0  0  0  0  0
   -1.3581  -21.9893  -18.5206 C   0  0  0  0  0  0  0  0  0  0  0  0
   -1.3620  -22.6926  -17.4828 O   0  0  0  0  0  0  0  0  0  0  0  0
   -1.9535  -22.3769  -19.5596 O   0  0  0  0  0  0  0  0  0  0  0  0
    3.6002  -19.3367  -18.3307 H   0  0  0  0  0  0  0  0  0  0  0  0
    3.2116  -21.0384  -18.7714 H   0  0  0  0  0  0  0  0  0  0  0  0
    1.1116  -18.8326  -18.6832 H   0  0  0  0  0  0  0  0  0  0  0  0
    2.0898  -19.2349  -20.1642 H   0  0  0  0  0  0  0  0  0  0  0  0
    1.4653  -22.2463  -18.5347 H   0  0  0  0  0  0  0  0  0  0  0  0
   -0.6377  -19.9736  -21.1052 H   0  0  0  0  0  0  0  0  0  0  0  0
    1.1046  -19.9454  -21.5416 H   0  0  0  0  0  0  0  0  0  0  0  0
    0.2037  -21.4994  -21.5416 H   0  0  0  0  0  0  0  0  0  0  0  0
   -0.1208  -20.5107  -17.6155 H   0  0  0  0  0  0  0  0  0  0  0  0
   -1.1966  -19.9653  -19.0313 H   0  0  0  0  0  0  0  0  0  0  0  0
  2  1  1  6
  2  3  1  0
  2  4  2  0
  2  5  1  0
  5  6  1  0
  6  7  1  0
  7  8  1  0
  8  9  1  6
  8 10  1  0
  8 11  1  0
 11 12  1  0
 12 13  1  0
 12 14  2  0
  6 15  1  0
  6 16  1  0
  7 17  1  0
  7 18  1  0
  9 19  1  0
 10 20  1  0
 10 21  1  0
 10 22  1  0
 11 23  1  0
 11 24  1  0
M  CHG  3   1  -1   3  -1  13  -1
M  END
>  <filename_input>  (7) 
7CNS_PMV_docked.sdf

>  <pdb_id>  (7) 
7CNS_PMV

>  <pose_rank>  (7) 
6

>  <num_atoms_heavy>  (7) 
14

>  <num_torsions>  (7) 
6

>  <pose>  (7) 
[1.6592224066512034, -19.61663856441592, -19.226659115931017, -2.101161181813302, -0.7156502335758792, -1.9179467766036171, 0.6557397708830057, 0.4560165422288806, 1.8768000087959151, -4.580601962924293, 0.6811336266632474, -0.43499059181430744]

>  <energy>  (7) 
-490.64208435012034

>  <inter_energy>  (7) 
-506.6637238038892

>  <intra_energy>  (7) 
7.9439015753320845

>  <rmsd>  (7) 
2.94347

>  <sdf_rank>  (7) 
0

$$$$

     RDKit          3D

 24 23  0  0  0  0  0  0  0  0999 V2000
    3.4485  -20.8258  -14.7216 O   0  0  0  0  0  0  0  0  0  0  0  0
    3.1859  -19.7987  -15.7963 P   0  0  2  0  0  0  0  0  0  0  0  0
    4.3908  -18.8891  -15.9555 O   0  0  0  0  0  0  0  0  0  0  0  0
    1.8737  -18.9821  -15.3918 O   0  0  0  0  0  0  0  0  0  0  0  0
    2.9478  -20.5933  -17.1703 O   0  0  0  0  0  0  0  0  0  0  0  0
    1.8718  -20.2507  -18.0466 C   0  0  0  0  0  0  0  0  0  0  0  0
    0.9852  -21.4688  -18.2856 C   0  0  0  0  0  0  0  0  0  0  0  0
   -0.3358  -21.1097  -18.9721 C   0  0  2  0  0  0  0  0  0  0  0  0
   -0.2013  -21.2662  -20.3962 O   0  0  0  0  0  0  0  0  0  0  0  0
   -0.5707  -19.6372  -18.6923 C   0  0  0  0  0  0  0  0  0  0  0  0
   -1.4552  -22.0389  -18.4748 C   0  0  0  0  0  0  0  0  0  0  0  0
   -1.4710  -23.4703  -18.9989 C   0  0  0  0  0  0  0  0  0  0  0  0
   -1.8275  -24.4285  -18.2735 O   0  0  0  0  0  0  0  0  0  0  0  0
   -0.9926  -23.6774  -20.1447 O   0  0  0  0  0  0  0  0  0  0  0  0
    1.2730  -19.4480  -17.5915 H   0  0  0  0  0  0  0  0  0  0  0  0
    2.2838  -19.9098  -19.0079 H   0  0  0  0  0  0  0  0  0  0  0  0
    1.5303  -22.1820  -18.9215 H   0  0  0  0  0  0  0  0  0  0  0  0
    0.7436  -21.9030  -17.3042 H   0  0  0  0  0  0  0  0  0  0  0  0
    0.4313  -22.0029  -20.5890 H   0  0  0  0  0  0  0  0  0  0  0  0
   -0.5974  -19.4702  -17.6054 H   0  0  0  0  0  0  0  0  0  0  0  0
    0.2443  -19.0454  -19.1344 H   0  0  0  0  0  0  0  0  0  0  0  0
   -1.5295  -19.3285  -19.1344 H   0  0  0  0  0  0  0  0  0  0  0  0
   -1.3768  -22.0909  -17.3788 H   0  0  0  0  0  0  0  0  0  0  0  0
   -2.3822  -21.5903  -18.8615 H   0  0  0  0  0  0  0  0  0  0  0  0
  2  1  1  1
  2  3  1  0
  2  4  2  0
  2  5  1  0
  5  6  1  0
  6  7  1  0
  7  8  1  0
  8  9  1  6
  8 10  1  0
  8 11  1  0
 11 12  1  0
 12 13  1  0
 12 14  2  0
  6 15  1  0
  6 16  1  0
  7 17  1  0
  7 18  1  0
  9 19  1  0
 10 20  1  0
 10 21  1  0
 10 22  1  0
 11 23  1  0
 11 24  1  0
M  CHG  3   1  -1   3  -1  13  -1
M  END
>  <filename_input>  (8) 
7CNS_PMV_docked.sdf

>  <pdb_id>  (8) 
7CNS_PMV

>  <pose_rank>  (8) 
7

>  <num_atoms_heavy>  (8) 
14

>  <num_torsions>  (8) 
6

>  <pose>  (8) 
[0.9852221290135332, -21.468847395214162, -18.28562297565798, -0.7202420919782521, -5.425528099949106, -1.4119141793297745, -3.586114561608119, 1.958593808271007, 2.4512577080720486, 5.924089686228053, 7.41079710135118, 1.075908886956229]

>  <energy>  (8) 
-430.35797239889166

>  <inter_energy>  (8) 
-448.7432790822239

>  <intra_energy>  (8) 
21.97271919562954

>  <rmsd>  (8) 
3.06306

>  <sdf_rank>  (8) 
0

$$$$

     RDKit          3D

 24 23  0  0  0  0  0  0  0  0999 V2000
    1.2765  -19.9152  -23.1772 O   0  0  0  0  0  0  0  0  0  0  0  0
    0.8373  -20.6325  -21.9237 P   0  0  2  0  0  0  0  0  0  0  0  0
    0.0046  -21.8500  -22.2828 O   0  0  0  0  0  0  0  0  0  0  0  0
    0.0198  -19.5983  -21.0211 O   0  0  0  0  0  0  0  0  0  0  0  0
    2.1629  -21.1152  -21.1585 O   0  0  0  0  0  0  0  0  0  0  0  0
    2.5015  -20.6013  -19.8685 C   0  0  0  0  0  0  0  0  0  0  0  0
    1.8006  -21.4123  -18.7831 C   0  0  0  0  0  0  0  0  0  0  0  0
    0.9174  -20.5469  -17.8797 C   0  0  2  0  0  0  0  0  0  0  0  0
    0.9575  -19.1796  -18.3269 O   0  0  0  0  0  0  0  0  0  0  0  0
    1.5464  -20.5972  -16.5001 C   0  0  0  0  0  0  0  0  0  0  0  0
   -0.5365  -21.0440  -17.9353 C   0  0  0  0  0  0  0  0  0  0  0  0
   -0.7950  -22.4037  -18.5743 C   0  0  0  0  0  0  0  0  0  0  0  0
   -1.2852  -22.5035  -19.7237 O   0  0  0  0  0  0  0  0  0  0  0  0
   -0.6198  -23.4261  -17.8613 O   0  0  0  0  0  0  0  0  0  0  0  0
    3.5903  -20.6654  -19.7252 H   0  0  0  0  0  0  0  0  0  0  0  0
    2.1774  -19.5523  -19.8013 H   0  0  0  0  0  0  0  0  0  0  0  0
    1.1714  -22.1755  -19.2644 H   0  0  0  0  0  0  0  0  0  0  0  0
    2.5784  -21.8671  -18.1521 H   0  0  0  0  0  0  0  0  0  0  0  0
    0.9752  -18.5762  -17.5422 H   0  0  0  0  0  0  0  0  0  0  0  0
    0.7583  -20.5341  -15.7353 H   0  0  0  0  0  0  0  0  0  0  0  0
    2.0968  -21.5423  -16.3823 H   0  0  0  0  0  0  0  0  0  0  0  0
    2.2401  -19.7517  -16.3823 H   0  0  0  0  0  0  0  0  0  0  0  0
   -0.9077  -21.0909  -16.9009 H   0  0  0  0  0  0  0  0  0  0  0  0
   -1.0518  -20.3259  -18.5901 H   0  0  0  0  0  0  0  0  0  0  0  0
  2  1  1  6
  2  3  1  0
  2  4  2  0
  2  5  1  0
  5  6  1  0
  6  7  1  0
  7  8  1  0
  8  9  1  6
  8 10  1  0
  8 11  1  0
 11 12  1  0
 12 13  1  0
 12 14  2  0
  6 15  1  0
  6 16  1  0
  7 17  1  0
  7 18  1  0
  9 19  1  0
 10 20  1  0
 10 21  1  0
 10 22  1  0
 11 23  1  0
 11 24  1  0
M  CHG  3   1  -1   3  -1  13  -1
M  END
>  <filename_input>  (9) 
7CNS_PMV_docked.sdf

>  <pdb_id>  (9) 
7CNS_PMV

>  <pose_rank>  (9) 
8

>  <num_atoms_heavy>  (9) 
14

>  <num_torsions>  (9) 
6

>  <pose>  (9) 
[1.8005680885826556, -21.41231709562018, -18.783100721313232, -0.45060018434910887, -4.297838583704329, 0.7785249244797757, 32.50269708729951, -9.074616492145742, 4.3945923032233045, 13.416412847147637, 4.774453393599254, 0.7429409710311476]

>  <energy>  (9) 
-451.22863915647537

>  <inter_energy>  (9) 
-460.83401846076055

>  <intra_energy>  (9) 
23.151880917801705

>  <rmsd>  (9) 
5.07692

>  <sdf_rank>  (9) 
0

$$$$

     RDKit          3D

 24 23  0  0  0  0  0  0  0  0999 V2000
   -0.5808  -21.0008  -21.8922 O   0  0  0  0  0  0  0  0  0  0  0  0
    0.1847  -20.0174  -21.0404 P   0  0  2  0  0  0  0  0  0  0  0  0
    0.3787  -18.7138  -21.7937 O   0  0  0  0  0  0  0  0  0  0  0  0
    1.5794  -20.6870  -20.6417 O   0  0  0  0  0  0  0  0  0  0  0  0
   -0.6945  -19.7347  -19.7278 O   0  0  0  0  0  0  0  0  0  0  0  0
   -0.0783  -19.5220  -18.4558 C   0  0  0  0  0  0  0  0  0  0  0  0
    1.4375  -19.4564  -18.6145 C   0  0  0  0  0  0  0  0  0  0  0  0
    2.1806  -20.0974  -17.4389 C   0  0  2  0  0  0  0  0  0  0  0  0
    3.5848  -19.7959  -17.5294 O   0  0  0  0  0  0  0  0  0  0  0  0
    2.0215  -21.5969  -17.6055 C   0  0  0  0  0  0  0  0  0  0  0  0
    1.6393  -19.5432  -16.1109 C   0  0  0  0  0  0  0  0  0  0  0  0
    2.2980  -18.2895  -15.5469 C   0  0  0  0  0  0  0  0  0  0  0  0
    3.4894  -18.0019  -15.8101 O   0  0  0  0  0  0  0  0  0  0  0  0
    1.6477  -17.6175  -14.7043 O   0  0  0  0  0  0  0  0  0  0  0  0
   -0.4412  -18.5754  -18.0290 H   0  0  0  0  0  0  0  0  0  0  0  0
   -0.3354  -20.3560  -17.7862 H   0  0  0  0  0  0  0  0  0  0  0  0
    1.7182  -19.9834  -19.5384 H   0  0  0  0  0  0  0  0  0  0  0  0
    1.7233  -18.3948  -18.6505 H   0  0  0  0  0  0  0  0  0  0  0  0
    3.9642  -19.7144  -16.6186 H   0  0  0  0  0  0  0  0  0  0  0  0
    1.9711  -22.0726  -16.6149 H   0  0  0  0  0  0  0  0  0  0  0  0
    1.0960  -21.8080  -18.1612 H   0  0  0  0  0  0  0  0  0  0  0  0
    2.8822  -21.9975  -18.1612 H   0  0  0  0  0  0  0  0  0  0  0  0
    0.5733  -19.3160  -16.2596 H   0  0  0  0  0  0  0  0  0  0  0  0
    1.8564  -20.3286  -15.3720 H   0  0  0  0  0  0  0  0  0  0  0  0
  2  1  1  6
  2  3  1  0
  2  4  2  0
  2  5  1  0
  5  6  1  0
  6  7  1  0
  7  8  1  0
  8  9  1  6
  8 10  1  0
  8 11  1  0
 11 12  1  0
 12 13  1  0
 12 14  2  0
  6 15  1  0
  6 16  1  0
  7 17  1  0
  7 18  1  0
  9 19  1  0
 10 20  1  0
 10 21  1  0
 10 22  1  0
 11 23  1  0
 11 24  1  0
M  CHG  3   1  -1   3  -1  13  -1
M  END
>  <filename_input>  (10) 
7CNS_PMV_docked.sdf

>  <pdb_id>  (10) 
7CNS_PMV

>  <pose_rank>  (10) 
9

>  <num_atoms_heavy>  (10) 
14

>  <num_torsions>  (10) 
6

>  <pose>  (10) 
[1.4375087716312398, -19.45638789979729, -18.614534487886257, 1.4945510513548266, -2.1628140045947624, -1.7447485672376952, -20.75436722853602, -4.575692931478057, 5.749308429731727, -18.36659045788185, -9.182015038643433, 7.524067502305767]

>  <energy>  (10) 
-340.30780980301085

>  <inter_energy>  (10) 
-399.93902474069745

>  <intra_energy>  (10) 
78.12970152047794

>  <rmsd>  (10) 
5.7016

>  <sdf_rank>  (10) 
0

$$$$

     RDKit          3D

 24 23  0  0  0  0  0  0  0  0999 V2000
    4.5829  -18.6009  -15.9818 O   0  0  0  0  0  0  0  0  0  0  0  0
    3.5400  -19.6817  -16.1329 P   0  0  2  0  0  0  0  0  0  0  0  0
    3.7537  -20.7637  -15.0897 O   0  0  0  0  0  0  0  0  0  0  0  0
    3.6376  -20.2608  -17.6187 O   0  0  0  0  0  0  0  0  0  0  0  0
    2.1065  -19.0014  -15.8917 O   0  0  0  0  0  0  0  0  0  0  0  0
    1.0038  -19.2709  -16.7602 C   0  0  0  0  0  0  0  0  0  0  0  0
    1.1185  -20.6826  -17.3269 C   0  0  0  0  0  0  0  0  0  0  0  0
    0.7982  -20.7438  -18.8232 C   0  0  2  0  0  0  0  0  0  0  0  0
    1.9500  -20.3363  -19.5836 O   0  0  0  0  0  0  0  0  0  0  0  0
   -0.2958  -19.7207  -19.0635 C   0  0  0  0  0  0  0  0  0  0  0  0
    0.4246  -22.1811  -19.2215 C   0  0  0  0  0  0  0  0  0  0  0  0
   -0.9588  -22.4125  -19.8186 C   0  0  0  0  0  0  0  0  0  0  0  0
   -1.8271  -23.0860  -19.2154 O   0  0  0  0  0  0  0  0  0  0  0  0
   -1.1605  -22.0134  -20.9953 O   0  0  0  0  0  0  0  0  0  0  0  0
    0.0645  -19.1806  -16.1949 H   0  0  0  0  0  0  0  0  0  0  0  0
    1.0117  -18.5475  -17.5888 H   0  0  0  0  0  0  0  0  0  0  0  0
    2.1464  -21.0422  -17.1716 H   0  0  0  0  0  0  0  0  0  0  0  0
    0.3849  -21.3128  -16.8029 H   0  0  0  0  0  0  0  0  0  0  0  0
    2.6791  -20.0784  -18.9655 H   0  0  0  0  0  0  0  0  0  0  0  0
   -0.6802  -19.3612  -18.0976 H   0  0  0  0  0  0  0  0  0  0  0  0
    0.1132  -18.8735  -19.6336 H   0  0  0  0  0  0  0  0  0  0  0  0
   -1.1137  -20.1854  -19.6336 H   0  0  0  0  0  0  0  0  0  0  0  0
    1.1635  -22.5195  -19.9628 H   0  0  0  0  0  0  0  0  0  0  0  0
    0.4161  -22.7396  -18.2739 H   0  0  0  0  0  0  0  0  0  0  0  0
  2  1  1  6
  2  3  1  0
  2  4  2  0
  2  5  1  0
  5  6  1  0
  6  7  1  0
  7  8  1  0
  8  9  1  6
  8 10  1  0
  8 11  1  0
 11 12  1  0
 12 13  1  0
 12 14  2  0
  6 15  1  0
  6 16  1  0
  7 17  1  0
  7 18  1  0
  9 19  1  0
 10 20  1  0
 10 21  1  0
 10 22  1  0
 11 23  1  0
 11 24  1  0
M  CHG  3   1  -1   3  -1  13  -1
M  END
>  <filename_input>  (11) 
7CNS_PMV_docked.sdf

>  <pdb_id>  (11) 
7CNS_PMV

>  <pose_rank>  (11) 
10

>  <num_atoms_heavy>  (11) 
14

>  <num_torsions>  (11) 
6

>  <pose>  (11) 
[1.118512983859527, -20.6825596110589, -17.326932160766695, 1.3441239848201638, 2.4779721781465986, -4.887414415333141, 2.4740428066825366, -0.9157539356880684, -2.052883120232316, 0.6045459007626932, 3.808016827514837, 1.0730703209897812]

>  <energy>  (11) 
-438.493226161829

>  <inter_energy>  (11) 
-502.8231579833607

>  <intra_energy>  (11) 
65.78662946837886

>  <rmsd>  (11) 
2.57563

>  <sdf_rank>  (11) 
0

$$$$

     RDKit          3D

 24 23  0  0  0  0  0  0  0  0999 V2000
   -0.9855  -21.1687  -22.5185 O   0  0  0  0  0  0  0  0  0  0  0  0
    0.2836  -20.4412  -22.1458 P   0  0  2  0  0  0  0  0  0  0  0  0
    0.0141  -18.9527  -22.0173 O   0  0  0  0  0  0  0  0  0  0  0  0
    1.3806  -20.7523  -23.2649 O   0  0  0  0  0  0  0  0  0  0  0  0
    0.7609  -21.0090  -20.7227 O   0  0  0  0  0  0  0  0  0  0  0  0
    2.0074  -20.6113  -20.1473 C   0  0  0  0  0  0  0  0  0  0  0  0
    1.7663  -19.6185  -19.0144 C   0  0  0  0  0  0  0  0  0  0  0  0
    1.3975  -20.3070  -17.6972 C   0  0  2  0  0  0  0  0  0  0  0  0
    1.7007  -21.7112  -17.7815 O   0  0  0  0  0  0  0  0  0  0  0  0
   -0.1067  -20.1699  -17.5553 C   0  0  0  0  0  0  0  0  0  0  0  0
    2.2047  -19.6943  -16.5409 C   0  0  0  0  0  0  0  0  0  0  0  0
    3.6489  -20.1503  -16.3670 C   0  0  0  0  0  0  0  0  0  0  0  0
    4.5492  -19.7878  -17.1605 O   0  0  0  0  0  0  0  0  0  0  0  0
    3.8870  -21.0064  -15.4754 O   0  0  0  0  0  0  0  0  0  0  0  0
    2.5249  -21.4974  -19.7511 H   0  0  0  0  0  0  0  0  0  0  0  0
    2.6258  -20.1329  -20.9211 H   0  0  0  0  0  0  0  0  0  0  0  0
    2.6831  -19.0305  -18.8601 H   0  0  0  0  0  0  0  0  0  0  0  0
    0.9192  -18.9800  -19.3054 H   0  0  0  0  0  0  0  0  0  0  0  0
    1.7818  -22.0867  -16.8691 H   0  0  0  0  0  0  0  0  0  0  0  0
   -0.3736  -20.1456  -16.4885 H   0  0  0  0  0  0  0  0  0  0  0  0
   -0.4370  -19.2380  -18.0373 H   0  0  0  0  0  0  0  0  0  0  0  0
   -0.6000  -21.0268  -18.0373 H   0  0  0  0  0  0  0  0  0  0  0  0
    2.2198  -18.6047  -16.6915 H   0  0  0  0  0  0  0  0  0  0  0  0
    1.6923  -20.0383  -15.6303 H   0  0  0  0  0  0  0  0  0  0  0  0
  2  1  1  6
  2  3  1  0
  2  4  2  0
  2  5  1  0
  5  6  1  0
  6  7  1  0
  7  8  1  0
  8  9  1  6
  8 10  1  0
  8 11  1  0
 11 12  1  0
 12 13  1  0
 12 14  2  0
  6 15  1  0
  6 16  1  0
  7 17  1  0
  7 18  1  0
  9 19  1  0
 10 20  1  0
 10 21  1  0
 10 22  1  0
 11 23  1  0
 11 24  1  0
M  CHG  3   1  -1   3  -1  13  -1
M  END
>  <filename_input>  (12) 
7CNS_PMV_docked.sdf

>  <pdb_id>  (12) 
7CNS_PMV

>  <pose_rank>  (12) 
11

>  <num_atoms_heavy>  (12) 
14

>  <num_torsions>  (12) 
6

>  <pose>  (12) 
[1.7663235529174566, -19.618517960507113, -19.014436266512934, 3.3575966788840903, -0.4408132748422329, -0.5120588000785591, 1.31165145718836, -4.400488077411978, 1.199305412204906, 23.271110409678585, -1.1802974085410756, 8.043244711704634]

>  <energy>  (12) 
-581.611929352532

>  <inter_energy>  (12) 
-567.3079394509574

>  <intra_energy>  (12) 
5.6078134713339605

>  <rmsd>  (12) 
5.80111

>  <sdf_rank>  (12) 
0

$$$$

     RDKit          3D

 24 23  0  0  0  0  0  0  0  0999 V2000
   -1.1752  -21.7161  -21.5027 O   0  0  0  0  0  0  0  0  0  0  0  0
    0.0953  -20.9033  -21.4406 P   0  0  2  0  0  0  0  0  0  0  0  0
   -0.2235  -19.4247  -21.5690 O   0  0  0  0  0  0  0  0  0  0  0  0
    1.0634  -21.4064  -22.6077 O   0  0  0  0  0  0  0  0  0  0  0  0
    0.7646  -21.1694  -20.0064 O   0  0  0  0  0  0  0  0  0  0  0  0
    2.0849  -20.7099  -19.7090 C   0  0  0  0  0  0  0  0  0  0  0  0
    2.0214  -19.5218  -18.7542 C   0  0  0  0  0  0  0  0  0  0  0  0
    1.7993  -19.9468  -17.2998 C   0  0  2  0  0  0  0  0  0  0  0  0
    2.0704  -21.3529  -17.1579 O   0  0  0  0  0  0  0  0  0  0  0  0
    0.3241  -19.7330  -17.0176 C   0  0  0  0  0  0  0  0  0  0  0  0
    2.7448  -19.1639  -16.3740 C   0  0  0  0  0  0  0  0  0  0  0  0
    4.1410  -19.7314  -16.1456 C   0  0  0  0  0  0  0  0  0  0  0  0
    5.0037  -19.7316  -17.0552 O   0  0  0  0  0  0  0  0  0  0  0  0
    4.3613  -20.3169  -15.0533 O   0  0  0  0  0  0  0  0  0  0  0  0
    2.6568  -21.5240  -19.2398 H   0  0  0  0  0  0  0  0  0  0  0  0
    2.5770  -20.3974  -20.6418 H   0  0  0  0  0  0  0  0  0  0  0  0
    2.9692  -18.9671  -18.8183 H   0  0  0  0  0  0  0  0  0  0  0  0
    1.1658  -18.8987  -19.0538 H   0  0  0  0  0  0  0  0  0  0  0  0
    2.1151  -21.5850  -16.1965 H   0  0  0  0  0  0  0  0  0  0  0  0
    0.1585  -19.7090  -15.9304 H   0  0  0  0  0  0  0  0  0  0  0  0
    0.0009  -18.7786  -17.4589 H   0  0  0  0  0  0  0  0  0  0  0  0
   -0.2567  -20.5564  -17.4589 H   0  0  0  0  0  0  0  0  0  0  0  0
    2.8647  -18.1575  -16.8015 H   0  0  0  0  0  0  0  0  0  0  0  0
    2.2629  -19.2031  -15.3859 H   0  0  0  0  0  0  0  0  0  0  0  0
  2  1  1  1
  2  3  1  0
  2  4  2  0
  2  5  1  0
  5  6  1  0
  6  7  1  0
  7  8  1  0
  8  9  1  6
  8 10  1  0
  8 11  1  0
 11 12  1  0
 12 13  1  0
 12 14  2  0
  6 15  1  0
  6 16  1  0
  7 17  1  0
  7 18  1  0
  9 19  1  0
 10 20  1  0
 10 21  1  0
 10 22  1  0
 11 23  1  0
 11 24  1  0
M  CHG  3   1  -1   3  -1  13  -1
M  END
>  <filename_input>  (13) 
7CNS_PMV_docked.sdf

>  <pdb_id>  (13) 
7CNS_PMV

>  <pose_rank>  (13) 
12

>  <num_atoms_heavy>  (13) 
14

>  <num_torsions>  (13) 
6

>  <pose>  (13) 
[2.0214305369152834, -19.521767266137893, -18.75415942320803, 3.1301963073585974, -0.5514226468780463, -0.6232323137726477, 1.332688469771862, -4.531575425389525, 1.1573051150772864, 23.22820981669212, -1.139407651646178, 7.97611249349526]

>  <energy>  (13) 
-547.7851988072015

>  <inter_energy>  (13) 
-554.6255166901954

>  <intra_energy>  (13) 
5.280976024893786

>  <rmsd>  (13) 
5.82371

>  <sdf_rank>  (13) 
0

$$$$

     RDKit          3D

 24 23  0  0  0  0  0  0  0  0999 V2000
    0.5279  -20.3287  -23.0382 O   0  0  0  0  0  0  0  0  0  0  0  0
    0.6525  -19.7658  -21.6431 P   0  0  2  0  0  0  0  0  0  0  0  0
   -0.6716  -19.8871  -20.9105 O   0  0  0  0  0  0  0  0  0  0  0  0
    1.1288  -18.2454  -21.7624 O   0  0  0  0  0  0  0  0  0  0  0  0
    1.7567  -20.6380  -20.8714 O   0  0  0  0  0  0  0  0  0  0  0  0
    1.4134  -21.4216  -19.7263 C   0  0  0  0  0  0  0  0  0  0  0  0
   -0.0656  -21.7925  -19.7721 C   0  0  0  0  0  0  0  0  0  0  0  0
   -0.6386  -22.0989  -18.3853 C   0  0  2  0  0  0  0  0  0  0  0  0
   -0.3418  -23.4606  -18.0271 O   0  0  0  0  0  0  0  0  0  0  0  0
   -2.1453  -21.9761  -18.5140 C   0  0  0  0  0  0  0  0  0  0  0  0
   -0.0105  -21.1631  -17.3395 C   0  0  0  0  0  0  0  0  0  0  0  0
    1.1172  -21.7205  -16.4785 C   0  0  0  0  0  0  0  0  0  0  0  0
    2.0719  -20.9994  -16.1041 O   0  0  0  0  0  0  0  0  0  0  0  0
    1.1268  -22.9603  -16.2609 O   0  0  0  0  0  0  0  0  0  0  0  0
    2.0191  -22.3397  -19.7184 H   0  0  0  0  0  0  0  0  0  0  0  0
    1.6108  -20.8364  -18.8161 H   0  0  0  0  0  0  0  0  0  0  0  0
   -0.6264  -20.9521  -20.2073 H   0  0  0  0  0  0  0  0  0  0  0  0
   -0.1622  -22.7032  -20.3813 H   0  0  0  0  0  0  0  0  0  0  0  0
   -0.3232  -23.5459  -17.0410 H   0  0  0  0  0  0  0  0  0  0  0  0
   -2.5971  -21.9393  -17.5118 H   0  0  0  0  0  0  0  0  0  0  0  0
   -2.3926  -21.0548  -19.0618 H   0  0  0  0  0  0  0  0  0  0  0  0
   -2.5385  -22.8452  -19.0618 H   0  0  0  0  0  0  0  0  0  0  0  0
    0.3871  -20.2894  -17.8767 H   0  0  0  0  0  0  0  0  0  0  0  0
   -0.8242  -20.9516  -16.6302 H   0  0  0  0  0  0  0  0  0  0  0  0
  2  1  1  6
  2  3  1  0
  2  4  2  0
  2  5  1  0
  5  6  1  0
  6  7  1  0
  7  8  1  0
  8  9  1  1
  8 10  1  0
  8 11  1  0
 11 12  1  0
 12 13  1  0
 12 14  2  0
  6 15  1  0
  6 16  1  0
  7 17  1  0
  7 18  1  0
  9 19  1  0
 10 20  1  0
 10 21  1  0
 10 22  1  0
 11 23  1  0
 11 24  1  0
M  CHG  3   1  -1   3  -1  13  -1
M  END
>  <filename_input>  (14) 
7CNS_PMV_docked.sdf

>  <pdb_id>  (14) 
7CNS_PMV

>  <pose_rank>  (14) 
13

>  <num_atoms_heavy>  (14) 
14

>  <num_torsions>  (14) 
6

>  <pose>  (14) 
[-0.06562817635544169, -21.792477234067334, -19.77206345748299, 2.0125682753959957, 1.5306041246666102, 0.37875407943183165, -0.3877414906070099, -4.766877532206658, 2.4700586046797506, 25.397170491429865, -2.565709662961851, 9.258958866835878]

>  <energy>  (14) 
-161.64539000035626

>  <inter_energy>  (14) 
-255.22013173708825

>  <intra_energy>  (14) 
93.9746149458053

>  <rmsd>  (14) 
5.37295

>  <sdf_rank>  (14) 
0

$$$$

     RDKit          3D

 24 23  0  0  0  0  0  0  0  0999 V2000
   -2.8098  -29.8080  -14.5487 O   0  0  0  0  0  0  0  0  0  0  0  0
   -1.5517  -28.9792  -14.6438 P   0  0  2  0  0  0  0  0  0  0  0  0
   -1.0652  -28.9309  -16.0811 O   0  0  0  0  0  0  0  0  0  0  0  0
   -0.4608  -29.6198  -13.6681 O   0  0  0  0  0  0  0  0  0  0  0  0
   -1.9211  -27.4914  -14.1686 O   0  0  0  0  0  0  0  0  0  0  0  0
   -2.8564  -27.2626  -13.1124 C   0  0  0  0  0  0  0  0  0  0  0  0
   -2.1188  -27.1116  -11.7855 C   0  0  0  0  0  0  0  0  0  0  0  0
   -3.0314  -26.6222  -10.6573 C   0  0  2  0  0  0  0  0  0  0  0  0
   -3.3816  -25.2441  -10.8791 O   0  0  0  0  0  0  0  0  0  0  0  0
   -2.2047  -26.6868   -9.3869 C   0  0  0  0  0  0  0  0  0  0  0  0
   -4.3192  -27.4614  -10.6225 C   0  0  0  0  0  0  0  0  0  0  0  0
   -4.3157  -28.7270   -9.7727 C   0  0  0  0  0  0  0  0  0  0  0  0
   -3.6683  -29.7439  -10.1166 O   0  0  0  0  0  0  0  0  0  0  0  0
   -5.0865  -28.7640   -8.7783 O   0  0  0  0  0  0  0  0  0  0  0  0
   -3.4232  -26.3432  -13.3206 H   0  0  0  0  0  0  0  0  0  0  0  0
   -3.5443  -28.1185  -13.0476 H   0  0  0  0  0  0  0  0  0  0  0  0
   -1.7006  -28.0887  -11.5017 H   0  0  0  0  0  0  0  0  0  0  0  0
   -1.3298  -26.3583  -11.9266 H   0  0  0  0  0  0  0  0  0  0  0  0
   -3.4974  -24.7887  -10.0078 H   0  0  0  0  0  0  0  0  0  0  0  0
   -2.8707  -26.6347   -8.5130 H   0  0  0  0  0  0  0  0  0  0  0  0
   -1.6420  -27.6318   -9.3633 H   0  0  0  0  0  0  0  0  0  0  0  0
   -1.5019  -25.8409   -9.3633 H   0  0  0  0  0  0  0  0  0  0  0  0
   -5.1237  -26.8136  -10.2443 H   0  0  0  0  0  0  0  0  0  0  0  0
   -4.4466  -27.8193  -11.6548 H   0  0  0  0  0  0  0  0  0  0  0  0
  2  1  1  6
  2  3  1  0
  2  4  2  0
  2  5  1  0
  5  6  1  0
  6  7  1  0
  7  8  1  0
  8  9  1  6
  8 10  1  0
  8 11  1  0
 11 12  1  0
 12 13  1  0
 12 14  2  0
  6 15  1  0
  6 16  1  0
  7 17  1  0
  7 18  1  0
  9 19  1  0
 10 20  1  0
 10 21  1  0
 10 22  1  0
 11 23  1  0
 11 24  1  0
M  CHG  3   1  -1   3  -1  13  -1
M  END
>  <filename_input>  (15) 
7CNS_PMV_docked.sdf

>  <pdb_id>  (15) 
7CNS_PMV

>  <pose_rank>  (15) 
14

>  <num_atoms_heavy>  (15) 
14

>  <num_torsions>  (15) 
6

>  <pose>  (15) 
[-2.118826052045461, -27.111640910338846, -11.785548134499955, -1.4556349755567586, 2.09629549561758, -0.21766583530858977, -0.17506201340582853, -1.4619686886696883, -1.318695123612351, -0.3277170012966593, -1.3612885325209267, -0.645640278162426]

>  <energy>  (15) 
-144.4429406334813

>  <inter_energy>  (15) 
-129.6399062363881

>  <intra_energy>  (15) 
1.0411094137628458

>  <rmsd>  (15) 
12.4409

>  <sdf_rank>  (15) 
0

$$$$

     RDKit          3D

 24 23  0  0  0  0  0  0  0  0999 V2000
    6.2412  -28.9923  -19.0071 O   0  0  0  0  0  0  0  0  0  0  0  0
    7.7506  -28.9739  -19.0123 P   0  0  2  0  0  0  0  0  0  0  0  0
    8.2901  -30.1259  -18.1839 O   0  0  0  0  0  0  0  0  0  0  0  0
    8.2312  -27.5589  -18.4473 O   0  0  0  0  0  0  0  0  0  0  0  0
    8.2266  -29.1586  -20.5339 O   0  0  0  0  0  0  0  0  0  0  0  0
    7.5267  -28.5301  -21.6099 C   0  0  0  0  0  0  0  0  0  0  0  0
    7.5023  -29.4515  -22.8256 C   0  0  0  0  0  0  0  0  0  0  0  0
    7.2219  -28.6984  -24.1292 C   0  0  2  0  0  0  0  0  0  0  0  0
    7.3894  -29.5867  -25.2489 O   0  0  0  0  0  0  0  0  0  0  0  0
    8.2866  -27.6228  -24.2334 C   0  0  0  0  0  0  0  0  0  0  0  0
    5.7787  -28.1681  -24.1289 C   0  0  0  0  0  0  0  0  0  0  0  0
    4.6649  -29.1489  -24.4769 C   0  0  0  0  0  0  0  0  0  0  0  0
    4.1947  -29.9351  -23.6212 O   0  0  0  0  0  0  0  0  0  0  0  0
    4.3189  -29.2342  -25.6842 O   0  0  0  0  0  0  0  0  0  0  0  0
    6.4948  -28.3138  -21.2962 H   0  0  0  0  0  0  0  0  0  0  0  0
    8.0396  -27.5943  -21.8765 H   0  0  0  0  0  0  0  0  0  0  0  0
    8.4794  -29.9498  -22.9096 H   0  0  0  0  0  0  0  0  0  0  0  0
    6.6886  -30.1768  -22.6779 H   0  0  0  0  0  0  0  0  0  0  0  0
    7.5624  -30.5041  -24.9194 H   0  0  0  0  0  0  0  0  0  0  0  0
    8.5941  -27.3122  -23.2239 H   0  0  0  0  0  0  0  0  0  0  0  0
    9.1572  -28.0199  -24.7759 H   0  0  0  0  0  0  0  0  0  0  0  0
    7.8806  -26.7563  -24.7759 H   0  0  0  0  0  0  0  0  0  0  0  0
    5.5715  -27.7794  -23.1209 H   0  0  0  0  0  0  0  0  0  0  0  0
    5.7558  -27.4220  -24.9369 H   0  0  0  0  0  0  0  0  0  0  0  0
  2  1  1  6
  2  3  1  0
  2  4  2  0
  2  5  1  0
  5  6  1  0
  6  7  1  0
  7  8  1  0
  8  9  1  6
  8 10  1  0
  8 11  1  0
 11 12  1  0
 12 13  1  0
 12 14  2  0
  6 15  1  0
  6 16  1  0
  7 17  1  0
  7 18  1  0
  9 19  1  0
 10 20  1  0
 10 21  1  0
 10 22  1  0
 11 23  1  0
 11 24  1  0
M  CHG  3   1  -1   3  -1  13  -1
M  END
>  <filename_input>  (16) 
7CNS_PMV_docked.sdf

>  <pdb_id>  (16) 
7CNS_PMV

>  <pose_rank>  (16) 
15

>  <num_atoms_heavy>  (16) 
14

>  <num_torsions>  (16) 
6

>  <pose>  (16) 
[7.502336930897932, -29.451469347319495, -22.82556348102311, -3.098029130175238, 3.588447007511484, -3.0534882831305423, 4.067351552445142, 14.440061378375797, -4.921531646429937, 44.17927240814687, 25.910107968062228, 5.682520924697262]

>  <energy>  (16) 
-132.37660469285908

>  <inter_energy>  (16) 
-104.96488397718109

>  <intra_energy>  (16) 
3.137136608900853

>  <rmsd>  (16) 
10.904

>  <sdf_rank>  (16) 
0

$$$$

     RDKit          3D

 24 23  0  0  0  0  0  0  0  0999 V2000
   -2.3962  -12.0566  -22.5024 O   0  0  0  0  0  0  0  0  0  0  0  0
   -1.2792  -11.2037  -21.9514 P   0  0  2  0  0  0  0  0  0  0  0  0
   -1.6491  -10.6847  -20.5736 O   0  0  0  0  0  0  0  0  0  0  0  0
   -1.0093  -10.0134  -22.9824 O   0  0  0  0  0  0  0  0  0  0  0  0
    0.0194  -12.1382  -21.8249 O   0  0  0  0  0  0  0  0  0  0  0  0
    0.9588  -11.9601  -20.7625 C   0  0  0  0  0  0  0  0  0  0  0  0
    2.2908  -12.6067  -21.1296 C   0  0  0  0  0  0  0  0  0  0  0  0
    3.2615  -11.6219  -21.7877 C   0  0  2  0  0  0  0  0  0  0  0  0
    4.6017  -12.1412  -21.7184 O   0  0  0  0  0  0  0  0  0  0  0  0
    3.2149  -10.3585  -20.9491 C   0  0  0  0  0  0  0  0  0  0  0  0
    2.8838  -11.4203  -23.2644 C   0  0  0  0  0  0  0  0  0  0  0  0
    4.0138  -11.1620  -24.2545 C   0  0  0  0  0  0  0  0  0  0  0  0
    4.4714  -10.0096  -24.4384 O   0  0  0  0  0  0  0  0  0  0  0  0
    4.3876  -12.1228  -24.9767 O   0  0  0  0  0  0  0  0  0  0  0  0
    1.1117  -10.8849  -20.5879 H   0  0  0  0  0  0  0  0  0  0  0  0
    0.5666  -12.4342  -19.8506 H   0  0  0  0  0  0  0  0  0  0  0  0
    2.7556  -13.0008  -20.2138 H   0  0  0  0  0  0  0  0  0  0  0  0
    2.0841  -13.4066  -21.8559 H   0  0  0  0  0  0  0  0  0  0  0  0
    4.8672  -12.2441  -20.7702 H   0  0  0  0  0  0  0  0  0  0  0  0
    3.2247  -10.6260  -19.8822 H   0  0  0  0  0  0  0  0  0  0  0  0
    4.0906   -9.7336  -21.1786 H   0  0  0  0  0  0  0  0  0  0  0  0
    2.2955   -9.7998  -21.1786 H   0  0  0  0  0  0  0  0  0  0  0  0
    2.3571  -12.3274  -23.5959 H   0  0  0  0  0  0  0  0  0  0  0  0
    2.2867  -10.4966  -23.2758 H   0  0  0  0  0  0  0  0  0  0  0  0
  2  1  1  6
  2  3  1  0
  2  4  2  0
  2  5  1  0
  5  6  1  0
  6  7  1  0
  7  8  1  0
  8  9  1  6
  8 10  1  0
  8 11  1  0
 11 12  1  0
 12 13  1  0
 12 14  2  0
  6 15  1  0
  6 16  1  0
  7 17  1  0
  7 18  1  0
  9 19  1  0
 10 20  1  0
 10 21  1  0
 10 22  1  0
 11 23  1  0
 11 24  1  0
M  CHG  3   1  -1   3  -1  13  -1
M  END
>  <filename_input>  (17) 
7CNS_PMV_docked.sdf

>  <pdb_id>  (17) 
7CNS_PMV

>  <pose_rank>  (17) 
16

>  <num_atoms_heavy>  (17) 
14

>  <num_torsions>  (17) 
6

>  <pose>  (17) 
[2.2908059102434732, -12.606739637199485, -21.12964051028558, 0.26435374806628215, -1.6532193915225957, 0.7287024134540627, -2.4021190289138747, 0.6993222487939269, -1.5459102363182557, 4.613564414354537, 0.476234336498951, 2.4646021170090897]

>  <energy>  (17) 
-132.01540119666643

>  <inter_energy>  (17) 
-112.14323102427615

>  <intra_energy>  (17) 
3.5180495360587476

>  <rmsd>  (17) 
10.5397

>  <sdf_rank>  (17) 
0

$$$$

     RDKit          3D

 24 23  0  0  0  0  0  0  0  0999 V2000
   -6.0938  -11.8876  -21.8154 O   0  0  0  0  0  0  0  0  0  0  0  0
   -5.2084  -11.8785  -20.5928 P   0  0  2  0  0  0  0  0  0  0  0  0
   -4.6861  -10.4764  -20.3363 O   0  0  0  0  0  0  0  0  0  0  0  0
   -4.0214  -12.9207  -20.8322 O   0  0  0  0  0  0  0  0  0  0  0  0
   -6.1094  -12.3351  -19.3456 O   0  0  0  0  0  0  0  0  0  0  0  0
   -5.7622  -13.4781  -18.5607 C   0  0  0  0  0  0  0  0  0  0  0  0
   -5.6255  -13.0821  -17.0938 C   0  0  0  0  0  0  0  0  0  0  0  0
   -6.9317  -13.2555  -16.3133 C   0  0  2  0  0  0  0  0  0  0  0  0
   -7.8331  -14.0965  -17.0556 O   0  0  0  0  0  0  0  0  0  0  0  0
   -7.5578  -11.8764  -16.2256 C   0  0  0  0  0  0  0  0  0  0  0  0
   -6.6468  -13.9133  -14.9531 C   0  0  0  0  0  0  0  0  0  0  0  0
   -5.6236  -13.2425  -14.0437 C   0  0  0  0  0  0  0  0  0  0  0  0
   -4.4317  -13.6288  -14.0036 O   0  0  0  0  0  0  0  0  0  0  0  0
   -6.0421  -12.3703  -13.2383 O   0  0  0  0  0  0  0  0  0  0  0  0
   -6.5485  -14.2408  -18.6603 H   0  0  0  0  0  0  0  0  0  0  0  0
   -4.8030  -13.8823  -18.9164 H   0  0  0  0  0  0  0  0  0  0  0  0
   -4.8515  -13.7110  -16.6297 H   0  0  0  0  0  0  0  0  0  0  0  0
   -5.3560  -12.0161  -17.0600 H   0  0  0  0  0  0  0  0  0  0  0  0
   -8.3918  -14.6177  -16.4262 H   0  0  0  0  0  0  0  0  0  0  0  0
   -7.6844  -11.5977  -15.1690 H   0  0  0  0  0  0  0  0  0  0  0  0
   -6.9038  -11.1445  -16.7220 H   0  0  0  0  0  0  0  0  0  0  0  0
   -8.5394  -11.8871  -16.7220 H   0  0  0  0  0  0  0  0  0  0  0  0
   -7.5982  -13.9556  -14.4027 H   0  0  0  0  0  0  0  0  0  0  0  0
   -6.2015  -14.8877  -15.2026 H   0  0  0  0  0  0  0  0  0  0  0  0
  2  1  1  6
  2  3  1  0
  2  4  2  0
  2  5  1  0
  5  6  1  0
  6  7  1  0
  7  8  1  0
  8  9  1  6
  8 10  1  0
  8 11  1  0
 11 12  1  0
 12 13  1  0
 12 14  2  0
  6 15  1  0
  6 16  1  0
  7 17  1  0
  7 18  1  0
  9 19  1  0
 10 20  1  0
 10 21  1  0
 10 22  1  0
 11 23  1  0
 11 24  1  0
M  CHG  3   1  -1   3  -1  13  -1
M  END
>  <filename_input>  (18) 
7CNS_PMV_docked.sdf

>  <pdb_id>  (18) 
7CNS_PMV

>  <pose_rank>  (18) 
17

>  <num_atoms_heavy>  (18) 
14

>  <num_torsions>  (18) 
6

>  <pose>  (18) 
[-5.625533341304313, -13.082069521401113, -17.093834877912105, 3.1688297695687515, -2.4089108692760526, 0.3295887496732085, 1.3464316092998538, -2.0540545403687864, -1.7640924615218145, 4.597353068525674, -0.848907742090033, 0.844409426013779]

>  <energy>  (18) 
-90.73965305107694

>  <inter_energy>  (18) 
-88.94786228470349

>  <intra_energy>  (18) 
3.679844347026355

>  <rmsd>  (18) 
12.109

>  <sdf_rank>  (18) 
0

$$$$

     RDKit          3D

 24 23  0  0  0  0  0  0  0  0999 V2000
    7.4669  -27.1078  -24.0809 O   0  0  0  0  0  0  0  0  0  0  0  0
    7.1946  -28.5862  -23.9435 P   0  0  2  0  0  0  0  0  0  0  0  0
    7.3394  -29.0117  -22.4935 O   0  0  0  0  0  0  0  0  0  0  0  0
    8.2103  -29.3683  -24.8970 O   0  0  0  0  0  0  0  0  0  0  0  0
    5.6808  -28.8400  -24.4122 O   0  0  0  0  0  0  0  0  0  0  0  0
    4.8807  -27.7785  -24.9377 C   0  0  0  0  0  0  0  0  0  0  0  0
    4.2641  -28.1990  -26.2681 C   0  0  0  0  0  0  0  0  0  0  0  0
    2.8240  -27.7045  -26.4318 C   0  0  2  0  0  0  0  0  0  0  0  0
    2.7336  -26.8440  -27.5817 O   0  0  0  0  0  0  0  0  0  0  0  0
    2.5238  -26.8640  -25.2049 C   0  0  0  0  0  0  0  0  0  0  0  0
    1.8782  -28.9000  -26.6317 C   0  0  0  0  0  0  0  0  0  0  0  0
    0.7453  -28.7446  -27.6398 C   0  0  0  0  0  0  0  0  0  0  0  0
   -0.3285  -28.1744  -27.3342 O   0  0  0  0  0  0  0  0  0  0  0  0
    0.8713  -29.3199  -28.7523 O   0  0  0  0  0  0  0  0  0  0  0  0
    4.0786  -27.5393  -24.2239 H   0  0  0  0  0  0  0  0  0  0  0  0
    5.5145  -26.8937  -25.0971 H   0  0  0  0  0  0  0  0  0  0  0  0
    4.8736  -27.7856  -27.0853 H   0  0  0  0  0  0  0  0  0  0  0  0
    4.2439  -29.2985  -26.2935 H   0  0  0  0  0  0  0  0  0  0  0  0
    2.6349  -25.9050  -27.2842 H   0  0  0  0  0  0  0  0  0  0  0  0
    2.7334  -27.4507  -24.2983 H   0  0  0  0  0  0  0  0  0  0  0  0
    3.1559  -25.9639  -25.2135 H   0  0  0  0  0  0  0  0  0  0  0  0
    1.4643  -26.5682  -25.2135 H   0  0  0  0  0  0  0  0  0  0  0  0
    2.4914  -29.7539  -26.9553 H   0  0  0  0  0  0  0  0  0  0  0  0
    1.3735  -29.0214  -25.6619 H   0  0  0  0  0  0  0  0  0  0  0  0
  2  1  1  1
  2  3  1  0
  2  4  2  0
  2  5  1  0
  5  6  1  0
  6  7  1  0
  7  8  1  0
  8  9  1  6
  8 10  1  0
  8 11  1  0
 11 12  1  0
 12 13  1  0
 12 14  2  0
  6 15  1  0
  6 16  1  0
  7 17  1  0
  7 18  1  0
  9 19  1  0
 10 20  1  0
 10 21  1  0
 10 22  1  0
 11 23  1  0
 11 24  1  0
M  CHG  3   1  -1   3  -1  13  -1
M  END
>  <filename_input>  (19) 
7CNS_PMV_docked.sdf

>  <pdb_id>  (19) 
7CNS_PMV

>  <pose_rank>  (19) 
18

>  <num_atoms_heavy>  (19) 
14

>  <num_torsions>  (19) 
6

>  <pose>  (19) 
[4.264117925821623, -28.198954107286866, -26.26814873622843, -3.8338147604804833, -1.5011921093173213, -2.6035654352641666, 3.1450547694722695, 0.8124891453267171, -1.5057414094501302, -7.115872152687369, -0.7619387430089702, -1.2066767741103388]

>  <energy>  (19) 
-105.51583999769191

>  <inter_energy>  (19) 
-102.47846933805704

>  <intra_energy>  (19) 
0.3150644889905788

>  <rmsd>  (19) 
11.0823

>  <sdf_rank>  (19) 
0

$$$$

     RDKit          3D

 24 23  0  0  0  0  0  0  0  0999 V2000
   -4.5159  -10.6369  -12.1193 O   0  0  0  0  0  0  0  0  0  0  0  0
   -4.4624  -11.6449  -13.2417 P   0  0  2  0  0  0  0  0  0  0  0  0
   -5.4513  -12.7674  -12.9834 O   0  0  0  0  0  0  0  0  0  0  0  0
   -2.9634  -12.1865  -13.3509 O   0  0  0  0  0  0  0  0  0  0  0  0
   -4.8804  -10.8825  -14.5907 O   0  0  0  0  0  0  0  0  0  0  0  0
   -4.1847  -11.1138  -15.8176 C   0  0  0  0  0  0  0  0  0  0  0  0
   -4.6803  -12.4040  -16.4634 C   0  0  0  0  0  0  0  0  0  0  0  0
   -5.3322  -12.1662  -17.8286 C   0  0  2  0  0  0  0  0  0  0  0  0
   -4.6201  -12.8999  -18.8413 O   0  0  0  0  0  0  0  0  0  0  0  0
   -5.1613  -10.6885  -18.1268 C   0  0  0  0  0  0  0  0  0  0  0  0
   -6.7927  -12.6461  -17.8035 C   0  0  0  0  0  0  0  0  0  0  0  0
   -7.1250  -13.8547  -16.9360 C   0  0  0  0  0  0  0  0  0  0  0  0
   -7.6720  -13.7249  -15.8155 O   0  0  0  0  0  0  0  0  0  0  0  0
   -6.7169  -14.9807  -17.3233 O   0  0  0  0  0  0  0  0  0  0  0  0
   -4.3639  -10.2717  -16.5023 H   0  0  0  0  0  0  0  0  0  0  0  0
   -3.1082  -11.2041  -15.6107 H   0  0  0  0  0  0  0  0  0  0  0  0
   -3.8252  -13.0833  -16.5948 H   0  0  0  0  0  0  0  0  0  0  0  0
   -5.4438  -12.8368  -15.8003 H   0  0  0  0  0  0  0  0  0  0  0  0
   -3.9994  -13.5395  -18.4104 H   0  0  0  0  0  0  0  0  0  0  0  0
   -5.0966  -10.1289  -17.1820 H   0  0  0  0  0  0  0  0  0  0  0  0
   -4.2395  -10.5358  -18.7073 H   0  0  0  0  0  0  0  0  0  0  0  0
   -6.0239  -10.3295  -18.7073 H   0  0  0  0  0  0  0  0  0  0  0  0
   -7.4085  -11.8068  -17.4479 H   0  0  0  0  0  0  0  0  0  0  0  0
   -6.9948  -12.9777  -18.8326 H   0  0  0  0  0  0  0  0  0  0  0  0
  2  1  1  1
  2  3  1  0
  2  4  2  0
  2  5  1  0
  5  6  1  0
  6  7  1  0
  7  8  1  0
  8  9  1  6
  8 10  1  0
  8 11  1  0
 11 12  1  0
 12 13  1  0
 12 14  2  0
  6 15  1  0
  6 16  1  0
  7 17  1  0
  7 18  1  0
  9 19  1  0
 10 20  1  0
 10 21  1  0
 10 22  1  0
 11 23  1  0
 11 24  1  0
M  CHG  3   1  -1   3  -1  13  -1
M  END
>  <filename_input>  (20) 
7CNS_PMV_docked.sdf

>  <pdb_id>  (20) 
7CNS_PMV

>  <pose_rank>  (20) 
19

>  <num_atoms_heavy>  (20) 
14

>  <num_torsions>  (20) 
6

>  <pose>  (20) 
[-4.680292659563876, -12.404016334821529, -16.46339760117879, 0.9881362848758528, 0.9517670163998686, -5.8936441737843905, 3.15945168903197, 2.686395868517733, 1.7088356823001596, -1.2413079670284881, -1.610247808810241, 1.1347997391957663]

>  <energy>  (20) 
-126.64440236067787

>  <inter_energy>  (20) 
-115.3834999219036

>  <intra_energy>  (20) 
3.691220671113659

>  <rmsd>  (20) 
11.3626

>  <sdf_rank>  (20) 
0

$$$$

     RDKit          3D

 24 23  0  0  0  0  0  0  0  0999 V2000
   -8.1285  -11.7555  -17.7787 O   0  0  0  0  0  0  0  0  0  0  0  0
   -6.9031  -12.2799  -18.4873 P   0  0  2  0  0  0  0  0  0  0  0  0
   -6.6557  -11.4879  -19.7586 O   0  0  0  0  0  0  0  0  0  0  0  0
   -7.1307  -13.8323  -18.7887 O   0  0  0  0  0  0  0  0  0  0  0  0
   -5.6553  -12.0802  -17.4979 O   0  0  0  0  0  0  0  0  0  0  0  0
   -5.2076  -13.1388  -16.6482 C   0  0  0  0  0  0  0  0  0  0  0  0
   -5.8842  -13.0354  -15.2849 C   0  0  0  0  0  0  0  0  0  0  0  0
   -4.9050  -13.2386  -14.1251 C   0  0  2  0  0  0  0  0  0  0  0  0
   -3.5674  -12.9341  -14.5597 O   0  0  0  0  0  0  0  0  0  0  0  0
   -4.9522  -14.7166  -13.7861 C   0  0  0  0  0  0  0  0  0  0  0  0
   -5.2718  -12.3058  -12.9591 C   0  0  0  0  0  0  0  0  0  0  0  0
   -4.5370  -10.9737  -12.8613 C   0  0  0  0  0  0  0  0  0  0  0  0
   -3.6159  -10.7944  -12.0301 O   0  0  0  0  0  0  0  0  0  0  0  0
   -4.9700  -10.0164  -13.5545 O   0  0  0  0  0  0  0  0  0  0  0  0
   -5.4597  -14.1059  -17.1076 H   0  0  0  0  0  0  0  0  0  0  0  0
   -4.1182  -13.0604  -16.5175 H   0  0  0  0  0  0  0  0  0  0  0  0
   -6.3387  -12.0380  -15.1917 H   0  0  0  0  0  0  0  0  0  0  0  0
   -6.6400  -13.8325  -15.2266 H   0  0  0  0  0  0  0  0  0  0  0  0
   -2.9858  -12.8017  -13.7695 H   0  0  0  0  0  0  0  0  0  0  0  0
   -4.9562  -14.8422  -12.6933 H   0  0  0  0  0  0  0  0  0  0  0  0
   -5.8650  -15.1609  -14.2096 H   0  0  0  0  0  0  0  0  0  0  0  0
   -4.0697  -15.2183  -14.2096 H   0  0  0  0  0  0  0  0  0  0  0  0
   -6.3459  -12.0836  -13.0412 H   0  0  0  0  0  0  0  0  0  0  0  0
   -4.9709  -12.8570  -12.0560 H   0  0  0  0  0  0  0  0  0  0  0  0
  2  1  1  1
  2  3  1  0
  2  4  2  0
  2  5  1  0
  5  6  1  0
  6  7  1  0
  7  8  1  0
  8  9  1  6
  8 10  1  0
  8 11  1  0
 11 12  1  0
 12 13  1  0
 12 14  2  0
  6 15  1  0
  6 16  1  0
  7 17  1  0
  7 18  1  0
  9 19  1  0
 10 20  1  0
 10 21  1  0
 10 22  1  0
 11 23  1  0
 11 24  1  0
M  CHG  3   1  -1   3  -1  13  -1
M  END
>  <filename_input>  (21) 
7CNS_PMV_docked.sdf

>  <pdb_id>  (21) 
7CNS_PMV

>  <pose_rank>  (21) 
20

>  <num_atoms_heavy>  (21) 
14

>  <num_torsions>  (21) 
6

>  <pose>  (21) 
[-5.884200595371047, -13.035425790586356, -15.284873539826576, 2.4229094850804835, 1.658823490927204, -1.1370015270736855, -4.815179254079942, 1.5975643567195614, -1.869038800239289, 0.6274483282921076, 1.6581069182833412, 0.3884806673578377]

>  <energy>  (21) 
-100.06852017804485

>  <inter_energy>  (21) 
-98.59811910926688

>  <intra_energy>  (21) 
0.23011744646153878

>  <rmsd>  (21) 
12.5979

>  <sdf_rank>  (21) 
0

$$$$

     RDKit          3D

 24 23  0  0  0  0  0  0  0  0999 V2000
    8.0627  -29.3550  -17.2205 O   0  0  0  0  0  0  0  0  0  0  0  0
    8.9638  -28.4244  -17.9955 P   0  0  2  0  0  0  0  0  0  0  0  0
   10.3221  -29.0685  -18.2074 O   0  0  0  0  0  0  0  0  0  0  0  0
    9.0763  -27.0529  -17.1839 O   0  0  0  0  0  0  0  0  0  0  0  0
    8.2778  -28.1730  -19.4245 O   0  0  0  0  0  0  0  0  0  0  0  0
    8.8694  -27.2958  -20.3855 C   0  0  0  0  0  0  0  0  0  0  0  0
    8.9369  -27.9818  -21.7464 C   0  0  0  0  0  0  0  0  0  0  0  0
    8.5730  -27.0407  -22.8984 C   0  0  2  0  0  0  0  0  0  0  0  0
    8.0700  -25.7997  -22.3715 O   0  0  0  0  0  0  0  0  0  0  0  0
    7.4400  -27.7125  -23.6511 C   0  0  0  0  0  0  0  0  0  0  0  0
    9.8188  -26.7485  -23.7509 C   0  0  0  0  0  0  0  0  0  0  0  0
   10.1273  -27.6998  -24.9014 C   0  0  0  0  0  0  0  0  0  0  0  0
    9.5605  -27.5862  -26.0138 O   0  0  0  0  0  0  0  0  0  0  0  0
   10.8753  -28.6831  -24.6608 O   0  0  0  0  0  0  0  0  0  0  0  0
    8.2617  -26.3826  -20.4676 H   0  0  0  0  0  0  0  0  0  0  0  0
    9.8881  -27.0382  -20.0601 H   0  0  0  0  0  0  0  0  0  0  0  0
    9.9607  -28.3521  -21.9039 H   0  0  0  0  0  0  0  0  0  0  0  0
    8.2048  -28.8027  -21.7426 H   0  0  0  0  0  0  0  0  0  0  0  0
    8.0831  -25.8318  -21.3821 H   0  0  0  0  0  0  0  0  0  0  0  0
    6.7236  -28.1373  -22.9326 H   0  0  0  0  0  0  0  0  0  0  0  0
    6.9294  -26.9711  -24.2833 H   0  0  0  0  0  0  0  0  0  0  0  0
    7.8455  -28.5162  -24.2833 H   0  0  0  0  0  0  0  0  0  0  0  0
    9.6954  -25.7431  -24.1796 H   0  0  0  0  0  0  0  0  0  0  0  0
   10.6647  -26.8661  -23.0576 H   0  0  0  0  0  0  0  0  0  0  0  0
  2  1  1  1
  2  3  1  0
  2  4  2  0
  2  5  1  0
  5  6  1  0
  6  7  1  0
  7  8  1  0
  8  9  1  1
  8 10  1  0
  8 11  1  0
 11 12  1  0
 12 13  1  0
 12 14  2  0
  6 15  1  0
  6 16  1  0
  7 17  1  0
  7 18  1  0
  9 19  1  0
 10 20  1  0
 10 21  1  0
 10 22  1  0
 11 23  1  0
 11 24  1  0
M  CHG  3   1  -1   3  -1  13  -1
M  END
>  <filename_input>  (22) 
7CNS_PMV_docked.sdf

>  <pdb_id>  (22) 
7CNS_PMV

>  <pose_rank>  (22) 
21

>  <num_atoms_heavy>  (22) 
14

>  <num_torsions>  (22) 
6

>  <pose>  (22) 
[8.936936402239603, -27.981755057148234, -21.746399054232118, 0.5521281208618664, -0.4298383062457283, 0.4170683656714973, 0.9123600037427173, 11.095077983028498, 1.3710362822352762, 5.413155322851272, -7.003915850431752, -4.452550922495367]

>  <energy>  (22) 
-125.09707801953247

>  <inter_energy>  (22) 
-108.1391573143775

>  <intra_energy>  (22) 
5.389178254675537

>  <rmsd>  (22) 
11.0483

>  <sdf_rank>  (22) 
0

$$$$

     RDKit          3D

 24 23  0  0  0  0  0  0  0  0999 V2000
   -1.6219  -10.2118   -9.6266 O   0  0  0  0  0  0  0  0  0  0  0  0
   -1.7964  -11.6175  -10.1483 P   0  0  2  0  0  0  0  0  0  0  0  0
   -2.7620  -12.3867   -9.2648 O   0  0  0  0  0  0  0  0  0  0  0  0
   -0.3574  -12.3096  -10.1997 O   0  0  0  0  0  0  0  0  0  0  0  0
   -2.4161  -11.5071  -11.6246 O   0  0  0  0  0  0  0  0  0  0  0  0
   -3.8162  -11.3019  -11.8262 C   0  0  0  0  0  0  0  0  0  0  0  0
   -4.4412  -12.5451  -12.4515 C   0  0  0  0  0  0  0  0  0  0  0  0
   -4.7410  -12.3666  -13.9426 C   0  0  2  0  0  0  0  0  0  0  0  0
   -3.5077  -12.2899  -14.6802 O   0  0  0  0  0  0  0  0  0  0  0  0
   -5.4395  -11.0265  -14.0758 C   0  0  0  0  0  0  0  0  0  0  0  0
   -5.5550  -13.5634  -14.4612 C   0  0  0  0  0  0  0  0  0  0  0  0
   -5.8016  -14.7206  -13.5000 C   0  0  0  0  0  0  0  0  0  0  0  0
   -6.7783  -14.7213  -12.7142 O   0  0  0  0  0  0  0  0  0  0  0  0
   -4.9216  -15.6179  -13.4295 O   0  0  0  0  0  0  0  0  0  0  0  0
   -4.2978  -11.0996  -10.8582 H   0  0  0  0  0  0  0  0  0  0  0  0
   -3.9620  -10.4459  -12.5016 H   0  0  0  0  0  0  0  0  0  0  0  0
   -3.7453  -13.3883  -12.3304 H   0  0  0  0  0  0  0  0  0  0  0  0
   -5.3968  -12.7313  -11.9394 H   0  0  0  0  0  0  0  0  0  0  0  0
   -2.7474  -12.2427  -14.0479 H   0  0  0  0  0  0  0  0  0  0  0  0
   -5.6504  -10.6218  -13.0750 H   0  0  0  0  0  0  0  0  0  0  0  0
   -4.7908  -10.3278  -14.6246 H   0  0  0  0  0  0  0  0  0  0  0  0
   -6.3837  -11.1581  -14.6246 H   0  0  0  0  0  0  0  0  0  0  0  0
   -6.5378  -13.1814  -14.7749 H   0  0  0  0  0  0  0  0  0  0  0  0
   -4.9375  -13.9939  -15.2632 H   0  0  0  0  0  0  0  0  0  0  0  0
  2  1  1  1
  2  3  1  0
  2  4  2  0
  2  5  1  0
  5  6  1  0
  6  7  1  0
  7  8  1  0
  8  9  1  6
  8 10  1  0
  8 11  1  0
 11 12  1  0
 12 13  1  0
 12 14  2  0
  6 15  1  0
  6 16  1  0
  7 17  1  0
  7 18  1  0
  9 19  1  0
 10 20  1  0
 10 21  1  0
 10 22  1  0
 11 23  1  0
 11 24  1  0
M  CHG  3   1  -1   3  -1  13  -1
M  END
>  <filename_input>  (23) 
7CNS_PMV_docked.sdf

>  <pdb_id>  (23) 
7CNS_PMV

>  <pose_rank>  (23) 
22

>  <num_atoms_heavy>  (23) 
14

>  <num_torsions>  (23) 
6

>  <pose>  (23) 
[-4.441223377947269, -12.545083761468886, -12.451494511104343, 3.6067145868246975, 4.776123897222588, -0.29033272338873173, -4.022779757766609, -3.108580853949682, 1.4490513462016066, 1.1695116412771418, 1.3195086691765137, -2.693390076807615]

>  <energy>  (23) 
-124.97786933704276

>  <inter_energy>  (23) 
-120.2502558537512

>  <intra_energy>  (23) 
8.278508233098302

>  <rmsd>  (23) 
11.8259

>  <sdf_rank>  (23) 
0

$$$$

     RDKit          3D

 24 23  0  0  0  0  0  0  0  0999 V2000
   -0.8790  -10.0481  -11.1749 O   0  0  0  0  0  0  0  0  0  0  0  0
   -1.3910  -11.3574  -10.6252 P   0  0  2  0  0  0  0  0  0  0  0  0
   -0.5907  -11.7581   -9.3990 O   0  0  0  0  0  0  0  0  0  0  0  0
   -1.2933  -12.4537  -11.7833 O   0  0  0  0  0  0  0  0  0  0  0  0
   -2.9214  -11.1317  -10.1976 O   0  0  0  0  0  0  0  0  0  0  0  0
   -3.9438  -10.9425  -11.1784 C   0  0  0  0  0  0  0  0  0  0  0  0
   -4.9834  -12.0536  -11.0696 C   0  0  0  0  0  0  0  0  0  0  0  0
   -5.7111  -12.3102  -12.3924 C   0  0  2  0  0  0  0  0  0  0  0  0
   -6.8826  -11.4782  -12.4717 O   0  0  0  0  0  0  0  0  0  0  0  0
   -6.1756  -13.7537  -12.3463 C   0  0  0  0  0  0  0  0  0  0  0  0
   -4.7854  -11.9766  -13.5739 C   0  0  0  0  0  0  0  0  0  0  0  0
   -4.6775  -12.9999  -14.6986 C   0  0  0  0  0  0  0  0  0  0  0  0
   -5.5514  -13.0828  -15.5935 O   0  0  0  0  0  0  0  0  0  0  0  0
   -3.7481  -13.8462  -14.6300 O   0  0  0  0  0  0  0  0  0  0  0  0
   -4.4312   -9.9703  -11.0135 H   0  0  0  0  0  0  0  0  0  0  0  0
   -3.4916  -10.9681  -12.1808 H   0  0  0  0  0  0  0  0  0  0  0  0
   -4.4778  -12.9802  -10.7601 H   0  0  0  0  0  0  0  0  0  0  0  0
   -5.7350  -11.7359  -10.3319 H   0  0  0  0  0  0  0  0  0  0  0  0
   -7.1931  -11.2577  -11.5579 H   0  0  0  0  0  0  0  0  0  0  0  0
   -6.2782  -14.0725  -11.2985 H   0  0  0  0  0  0  0  0  0  0  0  0
   -7.1476  -13.8425  -12.8534 H   0  0  0  0  0  0  0  0  0  0  0  0
   -5.4377  -14.3927  -12.8534 H   0  0  0  0  0  0  0  0  0  0  0  0
   -5.1449  -11.0366  -14.0180 H   0  0  0  0  0  0  0  0  0  0  0  0
   -3.7773  -11.9369  -13.1355 H   0  0  0  0  0  0  0  0  0  0  0  0
  2  1  1  6
  2  3  1  0
  2  4  2  0
  2  5  1  0
  5  6  1  0
  6  7  1  0
  7  8  1  0
  8  9  1  1
  8 10  1  0
  8 11  1  0
 11 12  1  0
 12 13  1  0
 12 14  2  0
  6 15  1  0
  6 16  1  0
  7 17  1  0
  7 18  1  0
  9 19  1  0
 10 20  1  0
 10 21  1  0
 10 22  1  0
 11 23  1  0
 11 24  1  0
M  CHG  3   1  -1   3  -1  13  -1
M  END
>  <filename_input>  (24) 
7CNS_PMV_docked.sdf

>  <pdb_id>  (24) 
7CNS_PMV

>  <pose_rank>  (24) 
23

>  <num_atoms_heavy>  (24) 
14

>  <num_torsions>  (24) 
6

>  <pose>  (24) 
[-4.9834027247922394, -12.05364332512942, -11.06961744765675, 5.328182023790868, -0.7771315241163578, 1.699615756834539, -0.5113174353859349, -0.7107608312318929, 1.333124372746384, 0.30412977122001184, -0.9316255107762449, -0.052685378259056496]

>  <energy>  (24) 
-121.46469900403955

>  <inter_energy>  (24) 
-107.95866104010726

>  <intra_energy>  (24) 
3.651547295947975

>  <rmsd>  (24) 
12.0165

>  <sdf_rank>  (24) 
0

$$$$

     RDKit          3D

 24 23  0  0  0  0  0  0  0  0999 V2000
   -3.0629  -10.4581  -13.4622 O   0  0  0  0  0  0  0  0  0  0  0  0
   -2.6688  -11.8807  -13.1466 P   0  0  2  0  0  0  0  0  0  0  0  0
   -2.4975  -12.0554  -11.6484 O   0  0  0  0  0  0  0  0  0  0  0  0
   -1.3226  -12.2103  -13.9414 O   0  0  0  0  0  0  0  0  0  0  0  0
   -3.8608  -12.8307  -13.6490 O   0  0  0  0  0  0  0  0  0  0  0  0
   -4.8440  -13.3287  -12.7390 C   0  0  0  0  0  0  0  0  0  0  0  0
   -5.9521  -14.0426  -13.5070 C   0  0  0  0  0  0  0  0  0  0  0  0
   -6.4065  -15.3338  -12.8201 C   0  0  2  0  0  0  0  0  0  0  0  0
   -7.8378  -15.3272  -12.6717 O   0  0  0  0  0  0  0  0  0  0  0  0
   -5.8007  -15.3084  -11.4294 C   0  0  0  0  0  0  0  0  0  0  0  0
   -6.0018  -16.5502  -13.6689 C   0  0  0  0  0  0  0  0  0  0  0  0
   -6.9797  -17.7172  -13.7436 C   0  0  0  0  0  0  0  0  0  0  0  0
   -6.9806  -18.6260  -12.8801 O   0  0  0  0  0  0  0  0  0  0  0  0
   -7.7022  -17.8081  -14.7703 O   0  0  0  0  0  0  0  0  0  0  0  0
   -4.3702  -14.0356  -12.0419 H   0  0  0  0  0  0  0  0  0  0  0  0
   -5.2774  -12.4867  -12.1794 H   0  0  0  0  0  0  0  0  0  0  0  0
   -6.8150  -13.3657  -13.5911 H   0  0  0  0  0  0  0  0  0  0  0  0
   -5.5515  -14.3138  -14.4949 H   0  0  0  0  0  0  0  0  0  0  0  0
   -8.0698  -15.3261  -11.7093 H   0  0  0  0  0  0  0  0  0  0  0  0
   -6.6042  -15.3420  -10.6789 H   0  0  0  0  0  0  0  0  0  0  0  0
   -5.1419  -16.1798  -11.3005 H   0  0  0  0  0  0  0  0  0  0  0  0
   -5.2169  -14.3851  -11.3005 H   0  0  0  0  0  0  0  0  0  0  0  0
   -5.8361  -16.1938  -14.6963 H   0  0  0  0  0  0  0  0  0  0  0  0
   -5.1158  -16.9609  -13.1627 H   0  0  0  0  0  0  0  0  0  0  0  0
  2  1  1  1
  2  3  1  0
  2  4  2  0
  2  5  1  0
  5  6  1  0
  6  7  1  0
  7  8  1  0
  8  9  1  1
  8 10  1  0
  8 11  1  0
 11 12  1  0
 12 13  1  0
 12 14  2  0
  6 15  1  0
  6 16  1  0
  7 17  1  0
  7 18  1  0
  9 19  1  0
 10 20  1  0
 10 21  1  0
 10 22  1  0
 11 23  1  0
 11 24  1  0
M  CHG  3   1  -1   3  -1  13  -1
M  END
>  <filename_input>  (25) 
7CNS_PMV_docked.sdf

>  <pdb_id>  (25) 
7CNS_PMV

>  <pose_rank>  (25) 
24

>  <num_atoms_heavy>  (25) 
14

>  <num_torsions>  (25) 
6

>  <pose>  (25) 
[-5.95205545985637, -14.042642771315334, -13.506954510285379, -2.0736135169039556, -1.9896362456781296, -1.5272081488095897, -2.9842707631658087, 0.7905871831874581, -1.5741485891442513, -0.8719968458863905, 0.002079269376485785, -3.005255529083311]

>  <energy>  (25) 
-121.15140620893895

>  <inter_energy>  (25) 
-103.68917390183323

>  <intra_energy>  (25) 
0.6546884466216116

>  <rmsd>  (25) 
11.1914

>  <sdf_rank>  (25) 
0

$$$$

     RDKit          3D

 24 23  0  0  0  0  0  0  0  0999 V2000
    2.7430  -18.7780  -15.1030 O   0  0  0  0  0  0  0  0  0  0  0  0
    3.5210  -19.7890  -15.9100 P   0  0  2  0  0  0  0  0  0  0  0  0
    4.3360  -20.6780  -14.9880 O   0  0  0  0  0  0  0  0  0  0  0  0
    4.4470  -18.9940  -16.9410 O   0  0  0  0  0  0  0  0  0  0  0  0
    2.4560  -20.6940  -16.6990 O   0  0  0  0  0  0  0  0  0  0  0  0
    1.7350  -20.1800  -17.8210 C   0  0  0  0  0  0  0  0  0  0  0  0
    0.9420  -21.2990  -18.4890 C   0  0  0  0  0  0  0  0  0  0  0  0
    0.3170  -20.8650  -19.8180 C   0  0  2  0  0  0  0  0  0  0  0  0
   -0.5940  -19.7740  -19.5930 O   0  0  0  0  0  0  0  0  0  0  0  0
   -0.4960  -22.0480  -20.3090 C   0  0  0  0  0  0  0  0  0  0  0  0
    1.4160  -20.4010  -20.7880 C   0  0  0  0  0  0  0  0  0  0  0  0
    1.0070  -20.0890  -22.2230 C   0  0  0  0  0  0  0  0  0  0  0  0
   -0.1920  -20.1350  -22.5860 O   0  0  0  0  0  0  0  0  0  0  0  0
    1.9250  -19.9080  -23.0650 O   0  0  0  0  0  0  0  0  0  0  0  0
    1.0426  -19.3958  -17.4808 H   0  0  0  0  0  0  0  0  0  0  0  0
    2.4474  -19.7599  -18.5462 H   0  0  0  0  0  0  0  0  0  0  0  0
    1.6181  -22.1460  -18.6775 H   0  0  0  0  0  0  0  0  0  0  0  0
    0.1223  -21.5777  -17.8104 H   0  0  0  0  0  0  0  0  0  0  0  0
   -0.7094  -19.6358  -18.6195 H   0  0  0  0  0  0  0  0  0  0  0  0
   -0.8826  -22.6105  -19.4464 H   0  0  0  0  0  0  0  0  0  0  0  0
   -1.3376  -21.6869  -20.9183 H   0  0  0  0  0  0  0  0  0  0  0  0
    0.1428  -22.7043  -20.9183 H   0  0  0  0  0  0  0  0  0  0  0  0
    1.8618  -19.4877  -20.3672 H   0  0  0  0  0  0  0  0  0  0  0  0
    2.0948  -21.2624  -20.8727 H   0  0  0  0  0  0  0  0  0  0  0  0
  2  1  1  1
  2  3  1  0
  2  4  2  0
  2  5  1  0
  5  6  1  0
  6  7  1  0
  7  8  1  0
  8  9  1  1
  8 10  1  0
  8 11  1  0
 11 12  1  0
 12 13  1  0
 12 14  2  0
  6 15  1  0
  6 16  1  0
  7 17  1  0
  7 18  1  0
  9 19  1  0
 10 20  1  0
 10 21  1  0
 10 22  1  0
 11 23  1  0
 11 24  1  0
M  CHG  3   1  -1   3  -1  13  -1
M  END
>  <filename_input>  (26) 
7CNS_PMV_docked.sdf

>  <pdb_id>  (26) 
7CNS_PMV

>  <pose_rank>  (26) 
25

>  <num_atoms_heavy>  (26) 
14

>  <num_torsions>  (26) 
6

>  <pose>  (26) 
[0.942, -21.299, -18.489, 1e-06, 1e-06, 1e-06, 0.0, 0.0, 0.0, 0.0, 0.0, 0.0]

>  <energy>  (26) 
-522.9954656034243

>  <inter_energy>  (26) 
-547.3411512935058

>  <intra_energy>  (26) 
15.04204931773499

>  <rmsd>  (26) 
0.0

>  <sdf_rank>  (26) 
0

$$$$
