
     RDKit          3D

 22 22  0  0  0  0  0  0  0  0999 V2000
   -2.8712   -5.2815  107.5128 C   0  0  1  0  0  0  0  0  0  0  0  0
   -1.8429   -4.4896  108.3048 C   0  0  1  0  0  0  0  0  0  0  0  0
   -0.4863   -4.5997  107.7194 C   0  0  2  0  0  0  0  0  0  0  0  0
   -0.0726   -6.0233  107.5043 C   0  0  1  0  0  0  0  0  0  0  0  0
   -1.1363   -6.7957  106.7298 C   0  0  1  0  0  0  0  0  0  0  0  0
   -0.7615   -8.2370  106.7090 C   0  0  0  0  0  0  0  0  0  0  0  0
   -2.2308   -3.1060  108.2972 O   0  0  0  0  0  0  0  0  0  0  0  0
    0.4676   -3.9883  108.6160 O   0  0  0  0  0  0  0  0  0  0  0  0
    1.1617   -6.0454  106.7819 O   0  0  0  0  0  0  0  0  0  0  0  0
   -2.4542   -6.7128  107.3698 O   0  0  0  0  0  0  0  0  0  0  0  0
    0.2759   -8.6117  106.0998 O   0  0  0  0  0  0  0  0  0  0  0  0
   -4.0694   -5.2370  108.1473 O   0  0  0  0  0  0  0  0  0  0  0  0
   -1.4963   -9.0578  107.3167 O   0  0  0  0  0  0  0  0  0  0  0  0
   -2.9513   -4.8311  106.5124 H   0  0  0  0  0  0  0  0  0  0  0  0
   -1.8089   -4.8973  109.3259 H   0  0  0  0  0  0  0  0  0  0  0  0
   -0.5094   -4.0928  106.7434 H   0  0  0  0  0  0  0  0  0  0  0  0
    0.0518   -6.5068  108.4845 H   0  0  0  0  0  0  0  0  0  0  0  0
   -1.1912   -6.3570  105.7225 H   0  0  0  0  0  0  0  0  0  0  0  0
   -2.3212   -2.7835  109.2288 H   0  0  0  0  0  0  0  0  0  0  0  0
    0.1978   -4.1612  109.5527 H   0  0  0  0  0  0  0  0  0  0  0  0
    1.9178   -6.0589  107.4208 H   0  0  0  0  0  0  0  0  0  0  0  0
   -3.9246   -5.2424  109.1266 H   0  0  0  0  0  0  0  0  0  0  0  0
  1  2  1  0
  1 10  1  0
  1 12  1  0
  2  3  1  0
  2  7  1  0
  3  4  1  0
  3  8  1  0
  4  5  1  0
  4  9  1  0
  5  6  1  0
  5 10  1  0
  6 11  2  0
  6 13  1  0
  1 14  1  6
  2 15  1  1
  3 16  1  6
  4 17  1  1
  5 18  1  6
  7 19  1  0
  8 20  1  0
  9 21  1  0
 12 22  1  0
M  CHG  1  13  -1
M  END
>  <filename_input>  (1) 
7CTM_BDP_docked.sdf

>  <pdb_id>  (1) 
7CTM_BDP

>  <pose_rank>  (1) 
0

>  <num_atoms_heavy>  (1) 
13

>  <num_torsions>  (1) 
1

>  <pose>  (1) 
[-2.8712191412966157, -5.2814912564705505, 107.51275394609293, 2.7171918628660037, -4.608819405886008, 3.473450032184222, 0.3025472623373127]

>  <energy>  (1) 
-542.075589025955

>  <inter_energy>  (1) 
-553.0769939898128

>  <intra_energy>  (1) 
10.82540967088066

>  <rmsd>  (1) 
0.337189

>  <sdf_rank>  (1) 
0

$$$$

     RDKit          3D

 22 22  0  0  0  0  0  0  0  0999 V2000
   -2.2944   -4.4103  108.0572 C   0  0  1  0  0  0  0  0  0  0  0  0
   -2.9875   -5.5774  107.3721 C   0  0  1  0  0  0  0  0  0  0  0  0
   -3.4396   -5.2296  106.0047 C   0  0  2  0  0  0  0  0  0  0  0  0
   -4.2624   -3.9780  105.9781 C   0  0  1  0  0  0  0  0  0  0  0  0
   -3.5505   -2.8347  106.6950 C   0  0  1  0  0  0  0  0  0  0  0  0
   -4.4853   -1.6800  106.8011 C   0  0  0  0  0  0  0  0  0  0  0  0
   -2.0563   -6.6679  107.2797 O   0  0  0  0  0  0  0  0  0  0  0  0
   -4.2496   -6.3074  105.4851 O   0  0  0  0  0  0  0  0  0  0  0  0
   -4.5117   -3.6136  104.6176 O   0  0  0  0  0  0  0  0  0  0  0  0
   -3.1694   -3.1949  108.0656 O   0  0  0  0  0  0  0  0  0  0  0  0
   -5.5080   -1.7598  107.5328 O   0  0  0  0  0  0  0  0  0  0  0  0
   -1.9976   -4.7436  109.3382 O   0  0  0  0  0  0  0  0  0  0  0  0
   -4.2230   -0.6332  106.1544 O   0  0  0  0  0  0  0  0  0  0  0  0
   -1.3745   -4.1844  107.4979 H   0  0  0  0  0  0  0  0  0  0  0  0
   -3.8726   -5.8472  107.9668 H   0  0  0  0  0  0  0  0  0  0  0  0
   -2.5392   -5.0671  105.3941 H   0  0  0  0  0  0  0  0  0  0  0  0
   -5.2114   -4.1681  106.5009 H   0  0  0  0  0  0  0  0  0  0  0  0
   -2.6465   -2.5969  106.1151 H   0  0  0  0  0  0  0  0  0  0  0  0
   -1.8035   -6.9640  108.1900 H   0  0  0  0  0  0  0  0  0  0  0  0
   -4.6363   -6.8218  106.2374 H   0  0  0  0  0  0  0  0  0  0  0  0
   -5.0706   -2.7969  104.5918 H   0  0  0  0  0  0  0  0  0  0  0  0
   -2.5116   -4.1664  109.9569 H   0  0  0  0  0  0  0  0  0  0  0  0
  1  2  1  0
  1 10  1  0
  1 12  1  0
  2  3  1  0
  2  7  1  0
  3  4  1  0
  3  8  1  0
  4  5  1  0
  4  9  1  0
  5  6  1  0
  5 10  1  0
  6 11  2  0
  6 13  1  0
  1 14  1  6
  2 15  1  1
  3 16  1  6
  4 17  1  1
  5 18  1  6
  7 19  1  0
  8 20  1  0
  9 21  1  0
 12 22  1  0
M  CHG  1  13  -1
M  END
>  <filename_input>  (2) 
7CTM_BDP_docked.sdf

>  <pdb_id>  (2) 
7CTM_BDP

>  <pose_rank>  (2) 
1

>  <num_atoms_heavy>  (2) 
13

>  <num_torsions>  (2) 
1

>  <pose>  (2) 
[-2.2943892753954147, -4.410317112161292, 108.05717520727487, -1.4807192655058146, -0.8068464849536632, 3.0956306632637416, 2.622757129144525]

>  <energy>  (2) 
-249.9885881938112

>  <inter_energy>  (2) 
-243.19566865566512

>  <intra_energy>  (2) 
0.035217581365984414

>  <rmsd>  (2) 
5.39469

>  <sdf_rank>  (2) 
0

$$$$

     RDKit          3D

 22 22  0  0  0  0  0  0  0  0999 V2000
   -3.2229   -5.4940  107.3510 C   0  0  1  0  0  0  0  0  0  0  0  0
   -2.2471   -4.4996  107.9599 C   0  0  1  0  0  0  0  0  0  0  0  0
   -0.9133   -4.5665  107.3182 C   0  0  2  0  0  0  0  0  0  0  0  0
   -0.3662   -5.9607  107.2859 C   0  0  1  0  0  0  0  0  0  0  0  0
   -1.3783   -6.9368  106.6936 C   0  0  1  0  0  0  0  0  0  0  0  0
   -0.8595   -8.3232  106.8581 C   0  0  0  0  0  0  0  0  0  0  0  0
   -2.7743   -3.1755  107.7764 O   0  0  0  0  0  0  0  0  0  0  0  0
    0.0115   -3.7412  108.0607 O   0  0  0  0  0  0  0  0  0  0  0  0
    0.8311   -5.9730  106.5034 O   0  0  0  0  0  0  0  0  0  0  0  0
   -2.6685   -6.8847  107.3909 O   0  0  0  0  0  0  0  0  0  0  0  0
   -1.2868   -9.0512  107.7935 O   0  0  0  0  0  0  0  0  0  0  0  0
   -4.3904   -5.4694  108.0414 O   0  0  0  0  0  0  0  0  0  0  0  0
   -0.0001   -8.7440  106.0413 O   0  0  0  0  0  0  0  0  0  0  0  0
   -3.3923   -5.2069  106.3027 H   0  0  0  0  0  0  0  0  0  0  0  0
   -2.1270   -4.7459  109.0252 H   0  0  0  0  0  0  0  0  0  0  0  0
   -1.0308   -4.2148  106.2826 H   0  0  0  0  0  0  0  0  0  0  0  0
   -0.1503   -6.2792  108.3164 H   0  0  0  0  0  0  0  0  0  0  0  0
   -1.5218   -6.6598  105.6388 H   0  0  0  0  0  0  0  0  0  0  0  0
   -2.9395   -2.7607  108.6600 H   0  0  0  0  0  0  0  0  0  0  0  0
   -0.1352   -3.8720  109.0309 H   0  0  0  0  0  0  0  0  0  0  0  0
    1.6179   -5.9810  107.1042 H   0  0  0  0  0  0  0  0  0  0  0  0
   -4.1995   -5.4734  109.0128 H   0  0  0  0  0  0  0  0  0  0  0  0
  1  2  1  0
  1 10  1  0
  1 12  1  0
  2  3  1  0
  2  7  1  0
  3  4  1  0
  3  8  1  0
  4  5  1  0
  4  9  1  0
  5  6  1  0
  5 10  1  0
  6 11  2  0
  6 13  1  0
  1 14  1  6
  2 15  1  1
  3 16  1  6
  4 17  1  1
  5 18  1  6
  7 19  1  0
  8 20  1  0
  9 21  1  0
 12 22  1  0
M  CHG  1  13  -1
M  END
>  <filename_input>  (3) 
7CTM_BDP_docked.sdf

>  <pdb_id>  (3) 
7CTM_BDP

>  <pose_rank>  (3) 
2

>  <num_atoms_heavy>  (3) 
13

>  <num_torsions>  (3) 
1

>  <pose>  (3) 
[-3.222875639185515, -5.494049598031176, 107.35099968590899, -0.10135899059525567, -0.011735363306963072, 0.15477374705887975, -9.371428351632032]

>  <energy>  (3) 
-510.939385407001

>  <inter_energy>  (3) 
-522.3344238460928

>  <intra_energy>  (3) 
6.636374263760021

>  <rmsd>  (3) 
0.498263

>  <sdf_rank>  (3) 
0

$$$$

     RDKit          3D

 22 22  0  0  0  0  0  0  0  0999 V2000
   -1.2239   -4.9735  107.8261 C   0  0  1  0  0  0  0  0  0  0  0  0
    0.0256   -5.1119  108.6813 C   0  0  1  0  0  0  0  0  0  0  0  0
    1.0111   -6.0396  108.0784 C   0  0  2  0  0  0  0  0  0  0  0  0
    0.4059   -7.3645  107.7283 C   0  0  1  0  0  0  0  0  0  0  0  0
   -0.8586   -7.1896  106.8926 C   0  0  1  0  0  0  0  0  0  0  0  0
   -1.5156   -8.5169  106.7345 C   0  0  0  0  0  0  0  0  0  0  0  0
    0.6366   -3.8172  108.8057 O   0  0  0  0  0  0  0  0  0  0  0  0
    2.0807   -6.2727  109.0214 O   0  0  0  0  0  0  0  0  0  0  0  0
    1.3641   -8.1356  106.9982 O   0  0  0  0  0  0  0  0  0  0  0  0
   -1.8356   -6.3117  107.5471 O   0  0  0  0  0  0  0  0  0  0  0  0
   -1.3349   -9.1907  105.6852 O   0  0  0  0  0  0  0  0  0  0  0  0
   -2.1353   -4.2026  108.4706 O   0  0  0  0  0  0  0  0  0  0  0  0
   -2.2396   -8.9443  107.6705 O   0  0  0  0  0  0  0  0  0  0  0  0
   -0.9344   -4.5073  106.8728 H   0  0  0  0  0  0  0  0  0  0  0  0
   -0.2719   -5.5173  109.6595 H   0  0  0  0  0  0  0  0  0  0  0  0
    1.3792   -5.5701  107.1543 H   0  0  0  0  0  0  0  0  0  0  0  0
    0.1294   -7.8831  108.6581 H   0  0  0  0  0  0  0  0  0  0  0  0
   -0.5573   -6.7481  105.9312 H   0  0  0  0  0  0  0  0  0  0  0  0
    0.7424   -3.5930  109.7642 H   0  0  0  0  0  0  0  0  0  0  0  0
    1.7298   -6.1962  109.9440 H   0  0  0  0  0  0  0  0  0  0  0  0
    1.9564   -8.6122  107.6324 H   0  0  0  0  0  0  0  0  0  0  0  0
   -2.0184   -4.3015  109.4487 H   0  0  0  0  0  0  0  0  0  0  0  0
  1  2  1  0
  1 10  1  0
  1 12  1  0
  2  3  1  0
  2  7  1  0
  3  4  1  0
  3  8  1  0
  4  5  1  0
  4  9  1  0
  5  6  1  0
  5 10  1  0
  6 11  2  0
  6 13  1  0
  1 14  1  6
  2 15  1  1
  3 16  1  6
  4 17  1  1
  5 18  1  6
  7 19  1  0
  8 20  1  0
  9 21  1  0
 12 22  1  0
M  CHG  1  13  -1
M  END
>  <filename_input>  (4) 
7CTM_BDP_docked.sdf

>  <pdb_id>  (4) 
7CTM_BDP

>  <pose_rank>  (4) 
3

>  <num_atoms_heavy>  (4) 
13

>  <num_torsions>  (4) 
1

>  <pose>  (4) 
[-1.2238729385220248, -4.973500070843957, 107.82608181047249, 0.10534829308592397, -0.10930566453120501, -0.6650024624903156, -0.2650872874317834]

>  <energy>  (4) 
-485.0937065566664

>  <inter_energy>  (4) 
-492.057565404015

>  <intra_energy>  (4) 
1.4326081601647145

>  <rmsd>  (4) 
1.78764

>  <sdf_rank>  (4) 
0

$$$$

     RDKit          3D

 22 22  0  0  0  0  0  0  0  0999 V2000
   -0.5763   -3.9801  108.1912 C   0  0  1  0  0  0  0  0  0  0  0  0
   -1.9471   -3.6410  107.6277 C   0  0  1  0  0  0  0  0  0  0  0  0
   -2.8964   -4.7710  107.7588 C   0  0  2  0  0  0  0  0  0  0  0  0
   -2.3449   -6.0460  107.1980 C   0  0  1  0  0  0  0  0  0  0  0  0
   -0.9596   -6.3437  107.7638 C   0  0  1  0  0  0  0  0  0  0  0  0
   -0.3863   -7.5107  107.0374 C   0  0  0  0  0  0  0  0  0  0  0  0
   -2.4724   -2.5188  108.3553 O   0  0  0  0  0  0  0  0  0  0  0  0
   -4.1101   -4.4558  107.0410 O   0  0  0  0  0  0  0  0  0  0  0  0
   -3.2366   -7.1183  107.5157 O   0  0  0  0  0  0  0  0  0  0  0  0
   -0.0301   -5.2257  107.5643 O   0  0  0  0  0  0  0  0  0  0  0  0
    0.3657   -7.3290  106.0428 O   0  0  0  0  0  0  0  0  0  0  0  0
    0.2821   -2.9576  107.9506 O   0  0  0  0  0  0  0  0  0  0  0  0
   -0.6637   -8.6679  107.4456 O   0  0  0  0  0  0  0  0  0  0  0  0
   -0.6836   -4.1426  109.2739 H   0  0  0  0  0  0  0  0  0  0  0  0
   -1.8310   -3.4141  106.5576 H   0  0  0  0  0  0  0  0  0  0  0  0
   -3.0854   -4.9162  108.8327 H   0  0  0  0  0  0  0  0  0  0  0  0
   -2.2507   -5.9403  106.1072 H   0  0  0  0  0  0  0  0  0  0  0  0
   -1.0792   -6.5314  108.8410 H   0  0  0  0  0  0  0  0  0  0  0  0
   -2.3927   -2.6891  109.3273 H   0  0  0  0  0  0  0  0  0  0  0  0
   -4.8361   -4.2672  107.6872 H   0  0  0  0  0  0  0  0  0  0  0  0
   -3.3098   -7.2063  108.4991 H   0  0  0  0  0  0  0  0  0  0  0  0
    0.5974   -2.5821  108.8106 H   0  0  0  0  0  0  0  0  0  0  0  0
  1  2  1  0
  1 10  1  0
  1 12  1  0
  2  3  1  0
  2  7  1  0
  3  4  1  0
  3  8  1  0
  4  5  1  0
  4  9  1  0
  5  6  1  0
  5 10  1  0
  6 11  2  0
  6 13  1  0
  1 14  1  1
  2 15  1  6
  3 16  1  1
  4 17  1  6
  5 18  1  1
  7 19  1  0
  8 20  1  0
  9 21  1  0
 12 22  1  0
M  CHG  1  13  -1
M  END
>  <filename_input>  (5) 
7CTM_BDP_docked.sdf

>  <pdb_id>  (5) 
7CTM_BDP

>  <pose_rank>  (5) 
4

>  <num_atoms_heavy>  (5) 
13

>  <num_torsions>  (5) 
1

>  <pose>  (5) 
[-0.5762633481767595, -3.980144899239085, 108.191241284574, 0.9414466449035885, -3.0254758582050503, -0.8431096889638181, -3.1932125959425597]

>  <energy>  (5) 
-441.7160779947919

>  <inter_energy>  (5) 
-441.4137049534649

>  <intra_energy>  (5) 
4.6959574293296376

>  <rmsd>  (5) 
2.79685

>  <sdf_rank>  (5) 
0

$$$$

     RDKit          3D

 22 22  0  0  0  0  0  0  0  0999 V2000
   -0.3045   -5.0355  108.6224 C   0  0  1  0  0  0  0  0  0  0  0  0
   -1.4036   -4.2731  107.8996 C   0  0  1  0  0  0  0  0  0  0  0  0
   -2.5665   -5.1370  107.5887 C   0  0  2  0  0  0  0  0  0  0  0  0
   -2.1692   -6.3898  106.8700 C   0  0  1  0  0  0  0  0  0  0  0  0
   -1.0484   -7.1167  107.6070 C   0  0  1  0  0  0  0  0  0  0  0  0
   -0.5690   -8.2431  106.7586 C   0  0  0  0  0  0  0  0  0  0  0  0
   -1.8469   -3.2016  108.7482 O   0  0  0  0  0  0  0  0  0  0  0  0
   -3.4846   -4.4092  106.7431 O   0  0  0  0  0  0  0  0  0  0  0  0
   -3.3100   -7.2459  106.7614 O   0  0  0  0  0  0  0  0  0  0  0  0
    0.1095   -6.2474  107.8460 O   0  0  0  0  0  0  0  0  0  0  0  0
   -1.3426   -9.1974  106.4787 O   0  0  0  0  0  0  0  0  0  0  0  0
    0.7762   -4.2322  108.7870 O   0  0  0  0  0  0  0  0  0  0  0  0
    0.6126   -8.2102  106.3279 O   0  0  0  0  0  0  0  0  0  0  0  0
   -0.6967   -5.3540  109.5995 H   0  0  0  0  0  0  0  0  0  0  0  0
   -0.9931   -3.8976  106.9507 H   0  0  0  0  0  0  0  0  0  0  0  0
   -3.0306   -5.4172  108.5459 H   0  0  0  0  0  0  0  0  0  0  0  0
   -1.7991   -6.1208  105.8696 H   0  0  0  0  0  0  0  0  0  0  0  0
   -1.4561   -7.4553  108.5710 H   0  0  0  0  0  0  0  0  0  0  0  0
   -1.7380   -3.4649  109.6963 H   0  0  0  0  0  0  0  0  0  0  0  0
   -4.1224   -3.9037  107.3068 H   0  0  0  0  0  0  0  0  0  0  0  0
   -3.6298   -7.4859  107.6670 H   0  0  0  0  0  0  0  0  0  0  0  0
    0.9482   -4.1044  109.7535 H   0  0  0  0  0  0  0  0  0  0  0  0
  1  2  1  0
  1 10  1  0
  1 12  1  0
  2  3  1  0
  2  7  1  0
  3  4  1  0
  3  8  1  0
  4  5  1  0
  4  9  1  0
  5  6  1  0
  5 10  1  0
  6 11  2  0
  6 13  1  0
  1 14  1  1
  2 15  1  6
  3 16  1  1
  4 17  1  6
  5 18  1  1
  7 19  1  0
  8 20  1  0
  9 21  1  0
 12 22  1  0
M  CHG  1  13  -1
M  END
>  <filename_input>  (6) 
7CTM_BDP_docked.sdf

>  <pdb_id>  (6) 
7CTM_BDP

>  <pose_rank>  (6) 
5

>  <num_atoms_heavy>  (6) 
13

>  <num_torsions>  (6) 
1

>  <pose>  (6) 
[-0.3045230570864751, -5.035500083584013, 108.62242034815382, 0.7254219040518234, -3.337072033351031, -1.1340937266991071, 0.32890588530985415]

>  <energy>  (6) 
-509.3183718660491

>  <inter_energy>  (6) 
-516.5205000119628

>  <intra_energy>  (6) 
11.329745196038045

>  <rmsd>  (6) 
2.6706

>  <sdf_rank>  (6) 
0

$$$$

     RDKit          3D

 22 22  0  0  0  0  0  0  0  0999 V2000
   -3.0656   -5.5092  107.6119 C   0  0  1  0  0  0  0  0  0  0  0  0
   -1.9306   -4.6184  108.0915 C   0  0  1  0  0  0  0  0  0  0  0  0
   -0.6996   -4.8070  107.2889 C   0  0  2  0  0  0  0  0  0  0  0  0
   -0.2974   -6.2469  107.1929 C   0  0  1  0  0  0  0  0  0  0  0  0
   -1.4645   -7.1160  106.7341 C   0  0  1  0  0  0  0  0  0  0  0  0
   -1.0651   -8.5472  106.8367 C   0  0  0  0  0  0  0  0  0  0  0  0
   -2.3467   -3.2482  107.9712 O   0  0  0  0  0  0  0  0  0  0  0  0
    0.3854   -4.0808  107.9079 O   0  0  0  0  0  0  0  0  0  0  0  0
    0.7866   -6.3667  106.2674 O   0  0  0  0  0  0  0  0  0  0  0  0
   -2.6470   -6.9469  107.5865 O   0  0  0  0  0  0  0  0  0  0  0  0
   -1.0926   -9.1327  107.9521 O   0  0  0  0  0  0  0  0  0  0  0  0
   -4.1304   -5.3790  108.4422 O   0  0  0  0  0  0  0  0  0  0  0  0
   -0.7126   -9.1492  105.7898 O   0  0  0  0  0  0  0  0  0  0  0  0
   -3.3355   -5.1977  106.5920 H   0  0  0  0  0  0  0  0  0  0  0  0
   -1.7033   -4.8847  109.1343 H   0  0  0  0  0  0  0  0  0  0  0  0
   -0.9104   -4.4362  106.2750 H   0  0  0  0  0  0  0  0  0  0  0  0
    0.0133   -6.5939  108.1894 H   0  0  0  0  0  0  0  0  0  0  0  0
   -1.7106   -6.8170  105.7045 H   0  0  0  0  0  0  0  0  0  0  0  0
   -2.4649   -2.8588  108.8737 H   0  0  0  0  0  0  0  0  0  0  0  0
    0.3008   -4.1374  108.8927 H   0  0  0  0  0  0  0  0  0  0  0  0
    1.6369   -6.4607  106.7655 H   0  0  0  0  0  0  0  0  0  0  0  0
   -3.8224   -5.4167  109.3823 H   0  0  0  0  0  0  0  0  0  0  0  0
  1  2  1  0
  1 10  1  0
  1 12  1  0
  2  3  1  0
  2  7  1  0
  3  4  1  0
  3  8  1  0
  4  5  1  0
  4  9  1  0
  5  6  1  0
  5 10  1  0
  6 11  2  0
  6 13  1  0
  1 14  1  6
  2 15  1  1
  3 16  1  6
  4 17  1  1
  5 18  1  6
  7 19  1  0
  8 20  1  0
  9 21  1  0
 12 22  1  0
M  CHG  1  13  -1
M  END
>  <filename_input>  (7) 
7CTM_BDP_docked.sdf

>  <pdb_id>  (7) 
7CTM_BDP

>  <pose_rank>  (7) 
6

>  <num_atoms_heavy>  (7) 
13

>  <num_torsions>  (7) 
1

>  <pose>  (7) 
[-3.065599311112014, -5.509193017580883, 107.61186052386546, -0.08885539366279052, 0.11734691995828636, 0.06452825429025758, 2.837682368711524]

>  <energy>  (7) 
-538.0722910652289

>  <inter_energy>  (7) 
-533.4214331853191

>  <intra_energy>  (7) 
1.2418700870228991

>  <rmsd>  (7) 
0.415843

>  <sdf_rank>  (7) 
0

$$$$

     RDKit          3D

 22 22  0  0  0  0  0  0  0  0999 V2000
   -7.6183   -3.7472  105.3901 C   0  0  1  0  0  0  0  0  0  0  0  0
   -9.0206   -4.3346  105.3931 C   0  0  1  0  0  0  0  0  0  0  0  0
   -9.2084   -5.3291  104.3109 C   0  0  2  0  0  0  0  0  0  0  0  0
   -8.8143   -4.7918  102.9692 C   0  0  1  0  0  0  0  0  0  0  0  0
   -7.4139   -4.1874  103.0067 C   0  0  1  0  0  0  0  0  0  0  0  0
   -7.1509   -3.5070  101.7082 C   0  0  0  0  0  0  0  0  0  0  0  0
   -9.2365   -4.9886  106.6543 O   0  0  0  0  0  0  0  0  0  0  0  0
  -10.6022   -5.7048  104.2495 O   0  0  0  0  0  0  0  0  0  0  0  0
   -8.8561   -5.8538  102.0119 O   0  0  0  0  0  0  0  0  0  0  0  0
   -7.2816   -3.1656  104.0517 O   0  0  0  0  0  0  0  0  0  0  0  0
   -6.7632   -4.1741  100.7121 O   0  0  0  0  0  0  0  0  0  0  0  0
   -7.5310   -2.7688  106.3257 O   0  0  0  0  0  0  0  0  0  0  0  0
   -7.3331   -2.2644  101.6332 O   0  0  0  0  0  0  0  0  0  0  0  0
   -6.9091   -4.5571  105.6163 H   0  0  0  0  0  0  0  0  0  0  0  0
   -9.7359   -3.5146  105.2320 H   0  0  0  0  0  0  0  0  0  0  0  0
   -8.5651   -6.1905  104.5434 H   0  0  0  0  0  0  0  0  0  0  0  0
   -9.5198   -3.9967  102.6861 H   0  0  0  0  0  0  0  0  0  0  0  0
   -6.7085   -5.0075  103.2065 H   0  0  0  0  0  0  0  0  0  0  0  0
   -9.0293   -4.3608  107.3912 H   0  0  0  0  0  0  0  0  0  0  0  0
  -10.9588   -5.8009  105.1680 H   0  0  0  0  0  0  0  0  0  0  0  0
   -8.8903   -6.7230  102.4846 H   0  0  0  0  0  0  0  0  0  0  0  0
   -7.5670   -3.1721  107.2292 H   0  0  0  0  0  0  0  0  0  0  0  0
  1  2  1  0
  1 10  1  0
  1 12  1  0
  2  3  1  0
  2  7  1  0
  3  4  1  0
  3  8  1  0
  4  5  1  0
  4  9  1  0
  5  6  1  0
  5 10  1  0
  6 11  2  0
  6 13  1  0
  1 14  1  1
  2 15  1  6
  3 16  1  1
  4 17  1  6
  5 18  1  1
  7 19  1  0
  8 20  1  0
  9 21  1  0
 12 22  1  0
M  CHG  1  13  -1
M  END
>  <filename_input>  (8) 
7CTM_BDP_docked.sdf

>  <pdb_id>  (8) 
7CTM_BDP

>  <pose_rank>  (8) 
7

>  <num_atoms_heavy>  (8) 
13

>  <num_torsions>  (8) 
1

>  <pose>  (8) 
[-7.618270218866092, -3.7471613178390624, 105.39008141948858, 4.211410812729607, -4.275823025134532, -7.079862407227992, 0.007767815216286727]

>  <energy>  (8) 
-114.450773564417

>  <inter_energy>  (8) 
-121.6899025885623

>  <intra_energy>  (8) 
5.247139372559785

>  <rmsd>  (8) 
8.82926

>  <sdf_rank>  (8) 
0

$$$$

     RDKit          3D

 22 22  0  0  0  0  0  0  0  0999 V2000
   -3.1494   -5.1640  107.3929 C   0  0  1  0  0  0  0  0  0  0  0  0
   -2.0553   -4.4700  108.1886 C   0  0  1  0  0  0  0  0  0  0  0  0
   -0.7073   -4.7523  107.6423 C   0  0  2  0  0  0  0  0  0  0  0  0
   -0.4550   -6.2199  107.4789 C   0  0  1  0  0  0  0  0  0  0  0  0
   -1.5823   -6.8899  106.6992 C   0  0  1  0  0  0  0  0  0  0  0  0
   -1.3750   -8.3645  106.7295 C   0  0  0  0  0  0  0  0  0  0  0  0
   -2.2817   -3.0521  108.1313 O   0  0  0  0  0  0  0  0  0  0  0  0
    0.2897   -4.2257  108.5457 O   0  0  0  0  0  0  0  0  0  0  0  0
    0.7848   -6.4051  106.7900 O   0  0  0  0  0  0  0  0  0  0  0  0
   -2.8963   -6.6373  107.3020 O   0  0  0  0  0  0  0  0  0  0  0  0
   -1.3731   -9.0247  105.6563 O   0  0  0  0  0  0  0  0  0  0  0  0
   -4.3487   -4.9634  107.9944 O   0  0  0  0  0  0  0  0  0  0  0  0
   -1.1953   -8.9233  107.8422 O   0  0  0  0  0  0  0  0  0  0  0  0
   -3.1546   -4.7391  106.3783 H   0  0  0  0  0  0  0  0  0  0  0  0
   -2.0916   -4.8466  109.2215 H   0  0  0  0  0  0  0  0  0  0  0  0
   -0.6500   -4.2770  106.6519 H   0  0  0  0  0  0  0  0  0  0  0  0
   -0.4091   -6.6833  108.4755 H   0  0  0  0  0  0  0  0  0  0  0  0
   -1.5636   -6.4797  105.6788 H   0  0  0  0  0  0  0  0  0  0  0  0
   -2.3396   -2.6897  109.0507 H   0  0  0  0  0  0  0  0  0  0  0  0
    0.0014   -4.3780  109.4805 H   0  0  0  0  0  0  0  0  0  0  0  0
    1.5154   -6.5143  107.4490 H   0  0  0  0  0  0  0  0  0  0  0  0
   -4.2323   -4.9828  108.9773 H   0  0  0  0  0  0  0  0  0  0  0  0
  1  2  1  0
  1 10  1  0
  1 12  1  0
  2  3  1  0
  2  7  1  0
  3  4  1  0
  3  8  1  0
  4  5  1  0
  4  9  1  0
  5  6  1  0
  5 10  1  0
  6 11  2  0
  6 13  1  0
  1 14  1  6
  2 15  1  1
  3 16  1  6
  4 17  1  1
  5 18  1  6
  7 19  1  0
  8 20  1  0
  9 21  1  0
 12 22  1  0
M  CHG  1  13  -1
M  END
>  <filename_input>  (9) 
7CTM_BDP_docked.sdf

>  <pdb_id>  (9) 
7CTM_BDP

>  <pose_rank>  (9) 
8

>  <num_atoms_heavy>  (9) 
13

>  <num_torsions>  (9) 
1

>  <pose>  (9) 
[-3.149431967835041, -5.163980678424927, 107.39292200233899, 0.3409999800427118, -5.375531591827757, -3.4494866504409774, -0.7857562219206266]

>  <energy>  (9) 
-513.3491246598919

>  <inter_energy>  (9) 
-518.3565208389813

>  <intra_energy>  (9) 
0.02377164838217368

>  <rmsd>  (9) 
0.433667

>  <sdf_rank>  (9) 
0

$$$$

     RDKit          3D

 22 22  0  0  0  0  0  0  0  0999 V2000
   -0.1631   -4.3977  108.0282 C   0  0  1  0  0  0  0  0  0  0  0  0
   -1.4659   -3.8269  107.4909 C   0  0  1  0  0  0  0  0  0  0  0  0
   -2.5776   -4.8024  107.5790 C   0  0  2  0  0  0  0  0  0  0  0  0
   -2.2293   -6.1204  106.9578 C   0  0  1  0  0  0  0  0  0  0  0  0
   -0.9058   -6.6526  107.4990 C   0  0  1  0  0  0  0  0  0  0  0  0
   -0.5194   -7.8599  106.7171 C   0  0  0  0  0  0  0  0  0  0  0  0
   -1.8117   -2.6713  108.2717 O   0  0  0  0  0  0  0  0  0  0  0  0
   -3.7289   -4.2724  106.8854 O   0  0  0  0  0  0  0  0  0  0  0  0
   -3.2751   -7.0562  107.2345 O   0  0  0  0  0  0  0  0  0  0  0  0
    0.1845   -5.6829  107.3422 O   0  0  0  0  0  0  0  0  0  0  0  0
   -1.1762   -8.9283  106.8381 O   0  0  0  0  0  0  0  0  0  0  0  0
    0.8422   -3.5095  107.8265 O   0  0  0  0  0  0  0  0  0  0  0  0
    0.4635   -7.7806  105.9358 O   0  0  0  0  0  0  0  0  0  0  0  0
   -0.2932   -4.5905  109.1033 H   0  0  0  0  0  0  0  0  0  0  0  0
   -1.3172   -3.5725  106.4311 H   0  0  0  0  0  0  0  0  0  0  0  0
   -2.7858   -4.9652  108.6468 H   0  0  0  0  0  0  0  0  0  0  0  0
   -2.1209   -5.9813  105.8721 H   0  0  0  0  0  0  0  0  0  0  0  0
   -1.0519   -6.8681  108.5678 H   0  0  0  0  0  0  0  0  0  0  0  0
   -1.7457   -2.8918  109.2346 H   0  0  0  0  0  0  0  0  0  0  0  0
   -4.3989   -3.9639  107.5458 H   0  0  0  0  0  0  0  0  0  0  0  0
   -3.3818   -7.1517  108.2140 H   0  0  0  0  0  0  0  0  0  0  0  0
    1.1907   -3.2015  108.7005 H   0  0  0  0  0  0  0  0  0  0  0  0
  1  2  1  0
  1 10  1  0
  1 12  1  0
  2  3  1  0
  2  7  1  0
  3  4  1  0
  3  8  1  0
  4  5  1  0
  4  9  1  0
  5  6  1  0
  5 10  1  0
  6 11  2  0
  6 13  1  0
  1 14  1  1
  2 15  1  6
  3 16  1  1
  4 17  1  6
  5 18  1  1
  7 19  1  0
  8 20  1  0
  9 21  1  0
 12 22  1  0
M  CHG  1  13  -1
M  END
>  <filename_input>  (10) 
7CTM_BDP_docked.sdf

>  <pdb_id>  (10) 
7CTM_BDP

>  <pose_rank>  (10) 
9

>  <num_atoms_heavy>  (10) 
13

>  <num_torsions>  (10) 
1

>  <pose>  (10) 
[-0.16306549602589365, -4.397728226215664, 108.02815166285401, 0.7098515808865319, -3.121030752497585, -0.9078776736791428, 0.22902200834314618]

>  <energy>  (10) 
-442.9898764011288

>  <inter_energy>  (10) 
-444.9879117140764

>  <intra_energy>  (10) 
9.398098219489025

>  <rmsd>  (10) 
2.76494

>  <sdf_rank>  (10) 
0

$$$$

     RDKit          3D

 22 22  0  0  0  0  0  0  0  0999 V2000
   -3.5683   -5.7580  107.3111 C   0  0  1  0  0  0  0  0  0  0  0  0
   -2.6219   -4.6310  107.6932 C   0  0  1  0  0  0  0  0  0  0  0  0
   -1.3832   -4.6465  106.8804 C   0  0  2  0  0  0  0  0  0  0  0  0
   -0.7131   -5.9863  106.8891 C   0  0  1  0  0  0  0  0  0  0  0  0
   -1.6950   -7.0965  106.5268 C   0  0  1  0  0  0  0  0  0  0  0  0
   -1.0278   -8.4121  106.7330 C   0  0  0  0  0  0  0  0  0  0  0  0
   -3.2938   -3.3798  107.4746 O   0  0  0  0  0  0  0  0  0  0  0  0
   -0.4533   -3.6788  107.4155 O   0  0  0  0  0  0  0  0  0  0  0  0
    0.3672   -5.9726  105.9517 O   0  0  0  0  0  0  0  0  0  0  0  0
   -2.8819   -7.0868  107.3897 O   0  0  0  0  0  0  0  0  0  0  0  0
   -0.7354   -9.1345  105.7429 O   0  0  0  0  0  0  0  0  0  0  0  0
   -4.6324   -5.7657  108.1524 O   0  0  0  0  0  0  0  0  0  0  0  0
   -0.7603   -8.7725  107.9083 O   0  0  0  0  0  0  0  0  0  0  0  0
   -3.9002   -5.5880  106.2762 H   0  0  0  0  0  0  0  0  0  0  0  0
   -2.3403   -4.7630  108.7483 H   0  0  0  0  0  0  0  0  0  0  0  0
   -1.6684   -4.4069  105.8454 H   0  0  0  0  0  0  0  0  0  0  0  0
   -0.3346   -6.1852  107.9026 H   0  0  0  0  0  0  0  0  0  0  0  0
   -2.0012   -6.9350  105.4827 H   0  0  0  0  0  0  0  0  0  0  0  0
   -3.5153   -2.9674  108.3470 H   0  0  0  0  0  0  0  0  0  0  0  0
   -0.4805   -3.7071  108.4048 H   0  0  0  0  0  0  0  0  0  0  0  0
    1.2281   -5.9617  106.4404 H   0  0  0  0  0  0  0  0  0  0  0  0
   -4.3124   -5.7634  109.0892 H   0  0  0  0  0  0  0  0  0  0  0  0
  1  2  1  0
  1 10  1  0
  1 12  1  0
  2  3  1  0
  2  7  1  0
  3  4  1  0
  3  8  1  0
  4  5  1  0
  4  9  1  0
  5  6  1  0
  5 10  1  0
  6 11  2  0
  6 13  1  0
  1 14  1  6
  2 15  1  1
  3 16  1  6
  4 17  1  1
  5 18  1  6
  7 19  1  0
  8 20  1  0
  9 21  1  0
 12 22  1  0
M  CHG  1  13  -1
M  END
>  <filename_input>  (11) 
7CTM_BDP_docked.sdf

>  <pdb_id>  (11) 
7CTM_BDP

>  <pose_rank>  (11) 
10

>  <num_atoms_heavy>  (11) 
13

>  <num_torsions>  (11) 
1

>  <pose>  (11) 
[-3.5683092548515076, -5.757981544276148, 107.31106914918611, 3.2009386721061266, -2.2375722630516797, -4.486167633362604, -0.4904793316212769]

>  <energy>  (11) 
-479.00432798345514

>  <inter_energy>  (11) 
-473.7256477144496

>  <intra_energy>  (11) 
0.060404435612840805

>  <rmsd>  (11) 
0.951352

>  <sdf_rank>  (11) 
0

$$$$

     RDKit          3D

 22 22  0  0  0  0  0  0  0  0999 V2000
   -2.6702   -5.2973  107.6327 C   0  0  1  0  0  0  0  0  0  0  0  0
   -1.5086   -4.5029  108.2083 C   0  0  1  0  0  0  0  0  0  0  0  0
   -0.2403   -4.7763  107.4927 C   0  0  2  0  0  0  0  0  0  0  0  0
    0.0567   -6.2417  107.4000 C   0  0  1  0  0  0  0  0  0  0  0  0
   -1.1367   -7.0122  106.8433 C   0  0  1  0  0  0  0  0  0  0  0  0
   -0.8562   -8.4711  106.9487 C   0  0  0  0  0  0  0  0  0  0  0  0
   -1.8090   -3.1033  108.0831 O   0  0  0  0  0  0  0  0  0  0  0  0
    0.8489   -4.1440  108.2008 O   0  0  0  0  0  0  0  0  0  0  0  0
    1.1929   -6.4336  106.5525 O   0  0  0  0  0  0  0  0  0  0  0  0
   -2.3618   -6.7626  107.6117 O   0  0  0  0  0  0  0  0  0  0  0  0
   -0.0084   -9.0085  106.1870 O   0  0  0  0  0  0  0  0  0  0  0  0
   -3.7797   -5.0953  108.3868 O   0  0  0  0  0  0  0  0  0  0  0  0
   -1.4757   -9.1411  107.8148 O   0  0  0  0  0  0  0  0  0  0  0  0
   -2.8407   -4.9532  106.6019 H   0  0  0  0  0  0  0  0  0  0  0  0
   -1.3788   -4.7989  109.2597 H   0  0  0  0  0  0  0  0  0  0  0  0
   -0.3479   -4.3779  106.4731 H   0  0  0  0  0  0  0  0  0  0  0  0
    0.2667   -6.6240  108.4098 H   0  0  0  0  0  0  0  0  0  0  0  0
   -1.2837   -6.6824  105.8043 H   0  0  0  0  0  0  0  0  0  0  0  0
   -1.8951   -2.7023  108.9841 H   0  0  0  0  0  0  0  0  0  0  0  0
    0.7021   -4.2292  109.1761 H   0  0  0  0  0  0  0  0  0  0  0  0
    2.0003   -6.5700  107.1089 H   0  0  0  0  0  0  0  0  0  0  0  0
   -3.5390   -5.1391  109.3462 H   0  0  0  0  0  0  0  0  0  0  0  0
  1  2  1  0
  1 10  1  0
  1 12  1  0
  2  3  1  0
  2  7  1  0
  3  4  1  0
  3  8  1  0
  4  5  1  0
  4  9  1  0
  5  6  1  0
  5 10  1  0
  6 11  2  0
  6 13  1  0
  1 14  1  6
  2 15  1  1
  3 16  1  6
  4 17  1  1
  5 18  1  6
  7 19  1  0
  8 20  1  0
  9 21  1  0
 12 22  1  0
M  CHG  1  13  -1
M  END
>  <filename_input>  (12) 
7CTM_BDP_docked.sdf

>  <pdb_id>  (12) 
7CTM_BDP

>  <pose_rank>  (12) 
11

>  <num_atoms_heavy>  (12) 
13

>  <num_torsions>  (12) 
1

>  <pose>  (12) 
[-2.6702456165696247, -5.2972545642787185, 107.63272112117191, 5.072241277581561, -3.4028566989339586, 1.0406454701368006, 0.1877587718490587]

>  <energy>  (12) 
-550.2470526702801

>  <inter_energy>  (12) 
-548.9626269821972

>  <intra_energy>  (12) 
8.594580227543963

>  <rmsd>  (12) 
0.371461

>  <sdf_rank>  (12) 
0

$$$$

     RDKit          3D

 22 22  0  0  0  0  0  0  0  0999 V2000
   -0.5319   -4.0128  108.1968 C   0  0  1  0  0  0  0  0  0  0  0  0
   -1.7697   -3.7620  107.3503 C   0  0  1  0  0  0  0  0  0  0  0  0
   -2.5830   -4.9885  107.1786 C   0  0  2  0  0  0  0  0  0  0  0  0
   -1.7715   -6.1447  106.6799 C   0  0  1  0  0  0  0  0  0  0  0  0
   -0.5251   -6.3533  107.5347 C   0  0  1  0  0  0  0  0  0  0  0  0
    0.3323   -7.3850  106.8877 C   0  0  0  0  0  0  0  0  0  0  0  0
   -2.5757   -2.7699  108.0068 O   0  0  0  0  0  0  0  0  0  0  0  0
   -3.6311   -4.7313  106.2180 O   0  0  0  0  0  0  0  0  0  0  0  0
   -2.5782   -7.3256  106.7066 O   0  0  0  0  0  0  0  0  0  0  0  0
    0.2860   -5.1343  107.6346 O   0  0  0  0  0  0  0  0  0  0  0  0
    1.5202   -7.1108  106.5694 O   0  0  0  0  0  0  0  0  0  0  0  0
    0.2311   -2.8918  108.2336 O   0  0  0  0  0  0  0  0  0  0  0  0
   -0.1546   -8.5261  106.6790 O   0  0  0  0  0  0  0  0  0  0  0  0
   -0.8617   -4.2845  109.2105 H   0  0  0  0  0  0  0  0  0  0  0  0
   -1.4420   -3.4268  106.3551 H   0  0  0  0  0  0  0  0  0  0  0  0
   -2.9917   -5.2504  108.1657 H   0  0  0  0  0  0  0  0  0  0  0  0
   -1.4458   -5.9299  105.6514 H   0  0  0  0  0  0  0  0  0  0  0  0
   -0.8625   -6.6507  108.5386 H   0  0  0  0  0  0  0  0  0  0  0  0
   -2.4919   -2.8730  108.9879 H   0  0  0  0  0  0  0  0  0  0  0  0
   -4.4732   -4.5247  106.6957 H   0  0  0  0  0  0  0  0  0  0  0  0
   -2.7544   -7.5836  107.6460 H   0  0  0  0  0  0  0  0  0  0  0  0
    0.4024   -2.6400  109.1756 H   0  0  0  0  0  0  0  0  0  0  0  0
  1  2  1  0
  1 10  1  0
  1 12  1  0
  2  3  1  0
  2  7  1  0
  3  4  1  0
  3  8  1  0
  4  5  1  0
  4  9  1  0
  5  6  1  0
  5 10  1  0
  6 11  2  0
  6 13  1  0
  1 14  1  1
  2 15  1  6
  3 16  1  1
  4 17  1  6
  5 18  1  1
  7 19  1  0
  8 20  1  0
  9 21  1  0
 12 22  1  0
M  CHG  1  13  -1
M  END
>  <filename_input>  (13) 
7CTM_BDP_docked.sdf

>  <pdb_id>  (13) 
7CTM_BDP

>  <pose_rank>  (13) 
12

>  <num_atoms_heavy>  (13) 
13

>  <num_torsions>  (13) 
1

>  <pose>  (13) 
[-0.5319158012621, -4.012838998674155, 108.19681847340642, 1.2813131321897802, -3.109662183117678, -0.9260406909526222, -2.702702705824328]

>  <energy>  (13) 
-420.90061550823816

>  <inter_energy>  (13) 
-437.2717504422772

>  <intra_energy>  (13) 
14.498861619065803

>  <rmsd>  (13) 
2.82724

>  <sdf_rank>  (13) 
0

$$$$

     RDKit          3D

 22 22  0  0  0  0  0  0  0  0999 V2000
   -0.3690   -5.2401  108.6851 C   0  0  1  0  0  0  0  0  0  0  0  0
   -1.1894   -4.3234  107.7915 C   0  0  1  0  0  0  0  0  0  0  0  0
   -2.3520   -5.0229  107.1963 C   0  0  2  0  0  0  0  0  0  0  0  0
   -1.9602   -6.2946  106.5083 C   0  0  1  0  0  0  0  0  0  0  0  0
   -1.1178   -7.1793  107.4223 C   0  0  1  0  0  0  0  0  0  0  0  0
   -0.6036   -8.3323  106.6319 C   0  0  0  0  0  0  0  0  0  0  0  0
   -1.6749   -3.2294  108.5867 O   0  0  0  0  0  0  0  0  0  0  0  0
   -2.9745   -4.1600  106.2189 O   0  0  0  0  0  0  0  0  0  0  0  0
   -3.1439   -6.9951  106.1157 O   0  0  0  0  0  0  0  0  0  0  0  0
    0.0561   -6.4716  107.9466 O   0  0  0  0  0  0  0  0  0  0  0  0
    0.6348   -8.4668  106.4425 O   0  0  0  0  0  0  0  0  0  0  0  0
    0.7381   -4.5859  109.1169 O   0  0  0  0  0  0  0  0  0  0  0  0
   -1.4301   -9.1620  106.1723 O   0  0  0  0  0  0  0  0  0  0  0  0
   -0.9968   -5.5344  109.5391 H   0  0  0  0  0  0  0  0  0  0  0  0
   -0.5431   -3.9756  106.9721 H   0  0  0  0  0  0  0  0  0  0  0  0
   -3.0406   -5.2697  108.0179 H   0  0  0  0  0  0  0  0  0  0  0  0
   -1.3548   -6.0457  105.6243 H   0  0  0  0  0  0  0  0  0  0  0  0
   -1.7600   -7.4913  108.2591 H   0  0  0  0  0  0  0  0  0  0  0  0
   -1.5769   -3.4502  109.5467 H   0  0  0  0  0  0  0  0  0  0  0  0
   -3.4861   -3.4508  106.6830 H   0  0  0  0  0  0  0  0  0  0  0  0
   -3.6375   -7.2872  106.9226 H   0  0  0  0  0  0  0  0  0  0  0  0
    0.7517   -4.5779  110.1068 H   0  0  0  0  0  0  0  0  0  0  0  0
  1  2  1  0
  1 10  1  0
  1 12  1  0
  2  3  1  0
  2  7  1  0
  3  4  1  0
  3  8  1  0
  4  5  1  0
  4  9  1  0
  5  6  1  0
  5 10  1  0
  6 11  2  0
  6 13  1  0
  1 14  1  1
  2 15  1  6
  3 16  1  1
  4 17  1  6
  5 18  1  1
  7 19  1  0
  8 20  1  0
  9 21  1  0
 12 22  1  0
M  CHG  1  13  -1
M  END
>  <filename_input>  (14) 
7CTM_BDP_docked.sdf

>  <pdb_id>  (14) 
7CTM_BDP

>  <pose_rank>  (14) 
13

>  <num_atoms_heavy>  (14) 
13

>  <num_torsions>  (14) 
1

>  <pose>  (14) 
[-0.36904459183184435, -5.240077198675667, 108.68510899835863, 0.6839043615029515, -3.5937606122951298, -1.1829884253150316, -2.8203219139906057]

>  <energy>  (14) 
-492.00205373547584

>  <inter_energy>  (14) 
-508.027588086672

>  <intra_energy>  (14) 
12.164123994991357

>  <rmsd>  (14) 
2.60935

>  <sdf_rank>  (14) 
0

$$$$

     RDKit          3D

 22 22  0  0  0  0  0  0  0  0999 V2000
   -2.8858   -5.2823  107.7592 C   0  0  1  0  0  0  0  0  0  0  0  0
   -1.7689   -4.5265  108.4614 C   0  0  1  0  0  0  0  0  0  0  0  0
   -0.4587   -4.7318  107.8006 C   0  0  2  0  0  0  0  0  0  0  0  0
   -0.1381   -6.1827  107.6101 C   0  0  1  0  0  0  0  0  0  0  0  0
   -1.2881   -6.9165  106.9268 C   0  0  1  0  0  0  0  0  0  0  0  0
   -0.9954   -8.3768  106.9330 C   0  0  0  0  0  0  0  0  0  0  0  0
   -2.0796   -3.1239  108.4296 O   0  0  0  0  0  0  0  0  0  0  0  0
    0.5805   -4.1486  108.6178 O   0  0  0  0  0  0  0  0  0  0  0  0
    1.0467   -6.2974  106.8170 O   0  0  0  0  0  0  0  0  0  0  0  0
   -2.5579   -6.7388  107.6407 O   0  0  0  0  0  0  0  0  0  0  0  0
   -1.0655   -9.0401  105.8640 O   0  0  0  0  0  0  0  0  0  0  0  0
   -4.0386   -5.1500  108.4617 O   0  0  0  0  0  0  0  0  0  0  0  0
   -0.6717   -8.9202  108.0205 O   0  0  0  0  0  0  0  0  0  0  0  0
   -3.0018   -4.8590  106.7505 H   0  0  0  0  0  0  0  0  0  0  0  0
   -1.6951   -4.9038  109.4920 H   0  0  0  0  0  0  0  0  0  0  0  0
   -0.5134   -4.2546  106.8110 H   0  0  0  0  0  0  0  0  0  0  0  0
    0.0191   -6.6421  108.5972 H   0  0  0  0  0  0  0  0  0  0  0  0
   -1.3801   -6.5065  105.9102 H   0  0  0  0  0  0  0  0  0  0  0  0
   -2.1554   -2.7816  109.3554 H   0  0  0  0  0  0  0  0  0  0  0  0
    0.3575   -4.2737  109.5742 H   0  0  0  0  0  0  0  0  0  0  0  0
    1.8352   -6.3737  107.4107 H   0  0  0  0  0  0  0  0  0  0  0  0
   -3.8388   -5.1729  109.4311 H   0  0  0  0  0  0  0  0  0  0  0  0
  1  2  1  0
  1 10  1  0
  1 12  1  0
  2  3  1  0
  2  7  1  0
  3  4  1  0
  3  8  1  0
  4  5  1  0
  4  9  1  0
  5  6  1  0
  5 10  1  0
  6 11  2  0
  6 13  1  0
  1 14  1  6
  2 15  1  1
  3 16  1  6
  4 17  1  1
  5 18  1  6
  7 19  1  0
  8 20  1  0
  9 21  1  0
 12 22  1  0
M  CHG  1  13  -1
M  END
>  <filename_input>  (15) 
7CTM_BDP_docked.sdf

>  <pdb_id>  (15) 
7CTM_BDP

>  <pose_rank>  (15) 
14

>  <num_atoms_heavy>  (15) 
13

>  <num_torsions>  (15) 
1

>  <pose>  (15) 
[-2.8857511867323247, -5.282271794973688, 107.75915315485697, 3.8896961430133117, -4.489660221738677, -2.0862327996614605, -0.8025976016724754]

>  <energy>  (15) 
-529.446452946855

>  <inter_energy>  (15) 
-527.2116077122115

>  <intra_energy>  (15) 
0.05134948393432053

>  <rmsd>  (15) 
0.353028

>  <sdf_rank>  (15) 
0

$$$$

     RDKit          3D

 22 22  0  0  0  0  0  0  0  0999 V2000
   -0.5824   -4.3754  108.1585 C   0  0  1  0  0  0  0  0  0  0  0  0
   -1.8953   -4.0304  107.4738 C   0  0  1  0  0  0  0  0  0  0  0  0
   -2.7431   -5.2271  107.2632 C   0  0  2  0  0  0  0  0  0  0  0  0
   -2.0068   -6.3315  106.5687 C   0  0  1  0  0  0  0  0  0  0  0  0
   -0.6837   -6.6354  107.2650 C   0  0  1  0  0  0  0  0  0  0  0  0
    0.0854   -7.6011  106.4318 C   0  0  0  0  0  0  0  0  0  0  0  0
   -2.6129   -3.1055  108.3072 O   0  0  0  0  0  0  0  0  0  0  0  0
   -3.8789   -4.8654  106.4467 O   0  0  0  0  0  0  0  0  0  0  0  0
   -2.8270   -7.5033  106.5583 O   0  0  0  0  0  0  0  0  0  0  0  0
    0.1545   -5.4388  107.4040 O   0  0  0  0  0  0  0  0  0  0  0  0
    1.0986   -7.2152  105.7897 O   0  0  0  0  0  0  0  0  0  0  0  0
    0.1998   -3.2694  108.2301 O   0  0  0  0  0  0  0  0  0  0  0  0
   -0.2957   -8.7995  106.3949 O   0  0  0  0  0  0  0  0  0  0  0  0
   -0.8120   -4.7475  109.1678 H   0  0  0  0  0  0  0  0  0  0  0  0
   -1.6648   -3.5970  106.4894 H   0  0  0  0  0  0  0  0  0  0  0  0
   -3.0537   -5.5863  108.2554 H   0  0  0  0  0  0  0  0  0  0  0  0
   -1.7837   -6.0144  105.5393 H   0  0  0  0  0  0  0  0  0  0  0  0
   -0.9223   -7.0321  108.2629 H   0  0  0  0  0  0  0  0  0  0  0  0
   -2.4459   -3.3208  109.2589 H   0  0  0  0  0  0  0  0  0  0  0  0
   -4.6409   -4.6227  107.0303 H   0  0  0  0  0  0  0  0  0  0  0  0
   -3.0201   -7.7792  107.4893 H   0  0  0  0  0  0  0  0  0  0  0  0
    0.3616   -3.0406  109.1796 H   0  0  0  0  0  0  0  0  0  0  0  0
  1  2  1  0
  1 10  1  0
  1 12  1  0
  2  3  1  0
  2  7  1  0
  3  4  1  0
  3  8  1  0
  4  5  1  0
  4  9  1  0
  5  6  1  0
  5 10  1  0
  6 11  2  0
  6 13  1  0
  1 14  1  1
  2 15  1  6
  3 16  1  1
  4 17  1  6
  5 18  1  1
  7 19  1  0
  8 20  1  0
  9 21  1  0
 12 22  1  0
M  CHG  1  13  -1
M  END
>  <filename_input>  (16) 
7CTM_BDP_docked.sdf

>  <pdb_id>  (16) 
7CTM_BDP

>  <pose_rank>  (16) 
15

>  <num_atoms_heavy>  (16) 
13

>  <num_torsions>  (16) 
1

>  <pose>  (16) 
[-0.5823740955920348, -4.375437402619889, 108.15846553139205, 1.1579043579695516, -3.034842617501109, -1.1233065565655453, -2.965698969159534]

>  <energy>  (16) 
-448.70745312501174

>  <inter_energy>  (16) 
-450.9588261757453

>  <intra_energy>  (16) 
9.122797599182782

>  <rmsd>  (16) 
2.78142

>  <sdf_rank>  (16) 
0

$$$$

     RDKit          3D

 22 22  0  0  0  0  0  0  0  0999 V2000
   -2.8374   -5.0912  107.7912 C   0  0  1  0  0  0  0  0  0  0  0  0
   -1.7367   -4.2588  108.4295 C   0  0  1  0  0  0  0  0  0  0  0  0
   -0.4394   -4.4263  107.7338 C   0  0  2  0  0  0  0  0  0  0  0  0
   -0.0556   -5.8666  107.5836 C   0  0  1  0  0  0  0  0  0  0  0  0
   -1.1897   -6.6779  106.9644 C   0  0  1  0  0  0  0  0  0  0  0  0
   -0.8271   -8.1217  107.0119 C   0  0  0  0  0  0  0  0  0  0  0  0
   -2.1153   -2.8744  108.3590 O   0  0  0  0  0  0  0  0  0  0  0  0
    0.5954   -3.7657  108.4955 O   0  0  0  0  0  0  0  0  0  0  0  0
    1.1081   -5.9544  106.7565 O   0  0  0  0  0  0  0  0  0  0  0  0
   -2.4437   -6.5340  107.7129 O   0  0  0  0  0  0  0  0  0  0  0  0
   -1.2789   -8.9158  106.1442 O   0  0  0  0  0  0  0  0  0  0  0  0
   -3.9728   -4.9876  108.5262 O   0  0  0  0  0  0  0  0  0  0  0  0
   -0.0597   -8.5187  107.9264 O   0  0  0  0  0  0  0  0  0  0  0  0
   -3.0050   -4.7108  106.7727 H   0  0  0  0  0  0  0  0  0  0  0  0
   -1.6129   -4.5944  109.4697 H   0  0  0  0  0  0  0  0  0  0  0  0
   -0.5477   -3.9887  106.7304 H   0  0  0  0  0  0  0  0  0  0  0  0
    0.1541   -6.2819  108.5803 H   0  0  0  0  0  0  0  0  0  0  0  0
   -1.3329   -6.3100  105.9377 H   0  0  0  0  0  0  0  0  0  0  0  0
   -2.2144   -2.5123  109.2751 H   0  0  0  0  0  0  0  0  0  0  0  0
    0.4170   -3.8796  109.4626 H   0  0  0  0  0  0  0  0  0  0  0  0
    1.9147   -6.0153  107.3272 H   0  0  0  0  0  0  0  0  0  0  0  0
   -3.7454   -5.0083  109.4895 H   0  0  0  0  0  0  0  0  0  0  0  0
  1  2  1  0
  1 10  1  0
  1 12  1  0
  2  3  1  0
  2  7  1  0
  3  4  1  0
  3  8  1  0
  4  5  1  0
  4  9  1  0
  5  6  1  0
  5 10  1  0
  6 11  2  0
  6 13  1  0
  1 14  1  6
  2 15  1  1
  3 16  1  6
  4 17  1  1
  5 18  1  6
  7 19  1  0
  8 20  1  0
  9 21  1  0
 12 22  1  0
M  CHG  1  13  -1
M  END
>  <filename_input>  (17) 
7CTM_BDP_docked.sdf

>  <pdb_id>  (17) 
7CTM_BDP

>  <pose_rank>  (17) 
16

>  <num_atoms_heavy>  (17) 
13

>  <num_torsions>  (17) 
1

>  <pose>  (17) 
[-2.8373502515926856, -5.091174804953227, 107.79117487885364, 3.058969586845468, -2.5438878665800653, -4.790153859459861, -1.1978539559443082]

>  <energy>  (17) 
-511.3490679009409

>  <inter_energy>  (17) 
-516.4289215996727

>  <intra_energy>  (17) 
3.6556950521409304

>  <rmsd>  (17) 
0.591084

>  <sdf_rank>  (17) 
0

$$$$

     RDKit          3D

 22 22  0  0  0  0  0  0  0  0999 V2000
   -0.3308   -4.3537  108.0413 C   0  0  1  0  0  0  0  0  0  0  0  0
   -1.8046   -4.3691  107.6680 C   0  0  1  0  0  0  0  0  0  0  0  0
   -2.4548   -5.6512  108.0264 C   0  0  2  0  0  0  0  0  0  0  0  0
   -1.7139   -6.8360  107.4864 C   0  0  1  0  0  0  0  0  0  0  0  0
   -0.2349   -6.7770  107.8565 C   0  0  1  0  0  0  0  0  0  0  0  0
    0.4816   -7.8699  107.1419 C   0  0  0  0  0  0  0  0  0  0  0  0
   -2.4646   -3.3096  108.3800 O   0  0  0  0  0  0  0  0  0  0  0  0
   -3.7919   -5.6736  107.4792 O   0  0  0  0  0  0  0  0  0  0  0  0
   -2.2966   -8.0302  108.0157 O   0  0  0  0  0  0  0  0  0  0  0  0
    0.3899   -5.5180  107.4346 O   0  0  0  0  0  0  0  0  0  0  0  0
    1.1513   -7.6146  106.1056 O   0  0  0  0  0  0  0  0  0  0  0  0
    0.2409   -3.2066  107.5968 O   0  0  0  0  0  0  0  0  0  0  0  0
    0.4069   -9.0385  107.6018 O   0  0  0  0  0  0  0  0  0  0  0  0
   -0.2560   -4.4187  109.1368 H   0  0  0  0  0  0  0  0  0  0  0  0
   -1.8835   -4.2382  106.5787 H   0  0  0  0  0  0  0  0  0  0  0  0
   -2.4639   -5.7174  109.1244 H   0  0  0  0  0  0  0  0  0  0  0  0
   -1.7898   -6.8298  106.3891 H   0  0  0  0  0  0  0  0  0  0  0  0
   -0.1671   -6.8698  108.9505 H   0  0  0  0  0  0  0  0  0  0  0  0
   -2.3716   -3.4589  109.3543 H   0  0  0  0  0  0  0  0  0  0  0  0
   -4.4507   -5.6846  108.2180 H   0  0  0  0  0  0  0  0  0  0  0  0
   -2.2796   -7.9954  109.0049 H   0  0  0  0  0  0  0  0  0  0  0  0
    0.5164   -2.6538  108.3705 H   0  0  0  0  0  0  0  0  0  0  0  0
  1  2  1  0
  1 10  1  0
  1 12  1  0
  2  3  1  0
  2  7  1  0
  3  4  1  0
  3  8  1  0
  4  5  1  0
  4  9  1  0
  5  6  1  0
  5 10  1  0
  6 11  2  0
  6 13  1  0
  1 14  1  1
  2 15  1  6
  3 16  1  1
  4 17  1  6
  5 18  1  1
  7 19  1  0
  8 20  1  0
  9 21  1  0
 12 22  1  0
M  CHG  1  13  -1
M  END
>  <filename_input>  (18) 
7CTM_BDP_docked.sdf

>  <pdb_id>  (18) 
7CTM_BDP

>  <pose_rank>  (18) 
17

>  <num_atoms_heavy>  (18) 
13

>  <num_torsions>  (18) 
1

>  <pose>  (18) 
[-0.3307676458105392, -4.353687598040651, 108.04125076166991, 1.1290826660953863, -2.7517865782772892, -0.7349809840305475, -3.066759931872667]

>  <energy>  (18) 
-441.1925213166639

>  <inter_energy>  (18) 
-442.44186358038326

>  <intra_energy>  (18) 
7.058832209885353

>  <rmsd>  (18) 
2.77557

>  <sdf_rank>  (18) 
0

$$$$

     RDKit          3D

 22 22  0  0  0  0  0  0  0  0999 V2000
   -0.4644   -4.9317  108.4337 C   0  0  1  0  0  0  0  0  0  0  0  0
   -1.7200   -4.3689  107.7869 C   0  0  1  0  0  0  0  0  0  0  0  0
   -2.7865   -5.3900  107.6634 C   0  0  2  0  0  0  0  0  0  0  0  0
   -2.3044   -6.6383  106.9900 C   0  0  1  0  0  0  0  0  0  0  0  0
   -1.0306   -7.1622  107.6462 C   0  0  1  0  0  0  0  0  0  0  0  0
   -0.4969   -8.2857  106.8269 C   0  0  0  0  0  0  0  0  0  0  0  0
   -2.2108   -3.2952  108.6061 O   0  0  0  0  0  0  0  0  0  0  0  0
   -3.8714   -4.8491  106.8772 O   0  0  0  0  0  0  0  0  0  0  0  0
   -3.3298   -7.6329  107.0642 O   0  0  0  0  0  0  0  0  0  0  0  0
    0.0230   -6.1421  107.6986 O   0  0  0  0  0  0  0  0  0  0  0  0
    0.4399   -8.0824  106.0091 O   0  0  0  0  0  0  0  0  0  0  0  0
    0.5141   -3.9922  108.4251 O   0  0  0  0  0  0  0  0  0  0  0  0
   -0.9961   -9.4305  106.9792 O   0  0  0  0  0  0  0  0  0  0  0  0
   -0.7118   -5.2168  109.4669 H   0  0  0  0  0  0  0  0  0  0  0  0
   -1.4589   -4.0229  106.7758 H   0  0  0  0  0  0  0  0  0  0  0  0
   -3.1118   -5.6476  108.6821 H   0  0  0  0  0  0  0  0  0  0  0  0
   -2.0747   -6.4066  105.9395 H   0  0  0  0  0  0  0  0  0  0  0  0
   -1.2920   -7.4701  108.6694 H   0  0  0  0  0  0  0  0  0  0  0  0
   -2.1023   -3.5326  109.5611 H   0  0  0  0  0  0  0  0  0  0  0  0
   -4.5737   -4.4990  107.4808 H   0  0  0  0  0  0  0  0  0  0  0  0
   -3.5316   -7.8286  108.0134 H   0  0  0  0  0  0  0  0  0  0  0  0
    0.7564   -3.7596  109.3564 H   0  0  0  0  0  0  0  0  0  0  0  0
  1  2  1  0
  1 10  1  0
  1 12  1  0
  2  3  1  0
  2  7  1  0
  3  4  1  0
  3  8  1  0
  4  5  1  0
  4  9  1  0
  5  6  1  0
  5 10  1  0
  6 11  2  0
  6 13  1  0
  1 14  1  1
  2 15  1  6
  3 16  1  1
  4 17  1  6
  5 18  1  1
  7 19  1  0
  8 20  1  0
  9 21  1  0
 12 22  1  0
M  CHG  1  13  -1
M  END
>  <filename_input>  (19) 
7CTM_BDP_docked.sdf

>  <pdb_id>  (19) 
7CTM_BDP

>  <pose_rank>  (19) 
18

>  <num_atoms_heavy>  (19) 
13

>  <num_torsions>  (19) 
1

>  <pose>  (19) 
[-0.46437732863128867, -4.931717404225106, 108.43368013129363, 0.8527498711576565, -3.173220746774961, -1.03625395865224, -3.1131223127607237]

>  <energy>  (19) 
-502.44380222403197

>  <inter_energy>  (19) 
-499.53851022268236

>  <intra_energy>  (19) 
6.156690823513702

>  <rmsd>  (19) 
2.69185

>  <sdf_rank>  (19) 
0

$$$$

     RDKit          3D

 22 22  0  0  0  0  0  0  0  0999 V2000
   -8.2663   -3.9714  106.0406 C   0  0  1  0  0  0  0  0  0  0  0  0
   -7.3861   -2.7826  106.3924 C   0  0  1  0  0  0  0  0  0  0  0  0
   -6.4034   -2.4840  105.3245 C   0  0  2  0  0  0  0  0  0  0  0  0
   -5.6076   -3.6902  104.9295 C   0  0  1  0  0  0  0  0  0  0  0  0
   -6.5186   -4.8710  104.6081 C   0  0  1  0  0  0  0  0  0  0  0  0
   -5.6778   -6.0838  104.4067 C   0  0  0  0  0  0  0  0  0  0  0  0
   -8.2275   -1.6316  106.5712 O   0  0  0  0  0  0  0  0  0  0  0  0
   -5.4820   -1.4763  105.7969 O   0  0  0  0  0  0  0  0  0  0  0  0
   -4.8122   -3.3687  103.7850 O   0  0  0  0  0  0  0  0  0  0  0  0
   -7.4382   -5.1749  105.7106 O   0  0  0  0  0  0  0  0  0  0  0  0
   -5.5972   -6.6150  103.2670 O   0  0  0  0  0  0  0  0  0  0  0  0
   -9.0715   -4.2701  107.0907 O   0  0  0  0  0  0  0  0  0  0  0  0
   -5.0515   -6.5512  105.3926 O   0  0  0  0  0  0  0  0  0  0  0  0
   -8.8692   -3.7006  105.1613 H   0  0  0  0  0  0  0  0  0  0  0  0
   -6.8306   -3.0272  107.3098 H   0  0  0  0  0  0  0  0  0  0  0  0
   -6.9693   -2.1380  104.4470 H   0  0  0  0  0  0  0  0  0  0  0  0
   -4.9621   -3.9788  105.7722 H   0  0  0  0  0  0  0  0  0  0  0  0
   -7.0983   -4.6032  103.7124 H   0  0  0  0  0  0  0  0  0  0  0  0
   -8.3522   -1.4610  107.5384 H   0  0  0  0  0  0  0  0  0  0  0  0
   -5.4775   -1.4714  106.7869 H   0  0  0  0  0  0  0  0  0  0  0  0
   -3.9362   -3.0147  104.0808 H   0  0  0  0  0  0  0  0  0  0  0  0
   -8.5899   -4.0915  107.9371 H   0  0  0  0  0  0  0  0  0  0  0  0
  1  2  1  0
  1 10  1  0
  1 12  1  0
  2  3  1  0
  2  7  1  0
  3  4  1  0
  3  8  1  0
  4  5  1  0
  4  9  1  0
  5  6  1  0
  5 10  1  0
  6 11  2  0
  6 13  1  0
  1 14  1  6
  2 15  1  1
  3 16  1  6
  4 17  1  1
  5 18  1  6
  7 19  1  0
  8 20  1  0
  9 21  1  0
 12 22  1  0
M  CHG  1  13  -1
M  END
>  <filename_input>  (20) 
7CTM_BDP_docked.sdf

>  <pdb_id>  (20) 
7CTM_BDP

>  <pose_rank>  (20) 
19

>  <num_atoms_heavy>  (20) 
13

>  <num_torsions>  (20) 
1

>  <pose>  (20) 
[-8.266288400815828, -3.97142752223734, 106.04062961010874, -0.4534008196445434, -11.508652104279168, -14.23391254002547, -0.5224684346079409]

>  <energy>  (20) 
-161.94784888583527

>  <inter_energy>  (20) 
-163.5665064458558

>  <intra_energy>  (20) 
0.012234280300937386

>  <rmsd>  (20) 
6.11442

>  <sdf_rank>  (20) 
0

$$$$

     RDKit          3D

 22 22  0  0  0  0  0  0  0  0999 V2000
   -3.5401   -5.1659  106.9823 C   0  0  1  0  0  0  0  0  0  0  0  0
   -2.5606   -4.4882  107.9272 C   0  0  1  0  0  0  0  0  0  0  0  0
   -1.1680   -4.9413  107.7020 C   0  0  2  0  0  0  0  0  0  0  0  0
   -1.0447   -6.4341  107.7217 C   0  0  1  0  0  0  0  0  0  0  0  0
   -2.0573   -7.0836  106.7833 C   0  0  1  0  0  0  0  0  0  0  0  0
   -2.0174   -8.5591  106.9827 C   0  0  0  0  0  0  0  0  0  0  0  0
   -2.6196   -3.0702  107.7023 O   0  0  0  0  0  0  0  0  0  0  0  0
   -0.3222   -4.4097  108.7459 O   0  0  0  0  0  0  0  0  0  0  0  0
    0.2813   -6.7969  107.3266 O   0  0  0  0  0  0  0  0  0  0  0  0
   -3.4311   -6.6568  107.0731 O   0  0  0  0  0  0  0  0  0  0  0  0
   -1.5899   -9.3096  106.0653 O   0  0  0  0  0  0  0  0  0  0  0  0
   -4.8075   -4.8006  107.2993 O   0  0  0  0  0  0  0  0  0  0  0  0
   -2.4094   -9.0276  108.0825 O   0  0  0  0  0  0  0  0  0  0  0  0
   -3.2968   -4.8518  105.9565 H   0  0  0  0  0  0  0  0  0  0  0  0
   -2.8427   -4.7489  108.9579 H   0  0  0  0  0  0  0  0  0  0  0  0
   -0.8633   -4.5801  106.7087 H   0  0  0  0  0  0  0  0  0  0  0  0
   -1.2488   -6.7919  108.7417 H   0  0  0  0  0  0  0  0  0  0  0  0
   -1.7912   -6.7867  105.7581 H   0  0  0  0  0  0  0  0  0  0  0  0
   -2.6392   -2.5985  108.5725 H   0  0  0  0  0  0  0  0  0  0  0  0
   -0.7000   -4.6471  109.6296 H   0  0  0  0  0  0  0  0  0  0  0  0
    0.8359   -6.9487  108.1325 H   0  0  0  0  0  0  0  0  0  0  0  0
   -4.9062   -4.7722  108.2840 H   0  0  0  0  0  0  0  0  0  0  0  0
  1  2  1  0
  1 10  1  0
  1 12  1  0
  2  3  1  0
  2  7  1  0
  3  4  1  0
  3  8  1  0
  4  5  1  0
  4  9  1  0
  5  6  1  0
  5 10  1  0
  6 11  2  0
  6 13  1  0
  1 14  1  6
  2 15  1  1
  3 16  1  6
  4 17  1  1
  5 18  1  6
  7 19  1  0
  8 20  1  0
  9 21  1  0
 12 22  1  0
M  CHG  1  13  -1
M  END
>  <filename_input>  (21) 
7CTM_BDP_docked.sdf

>  <pdb_id>  (21) 
7CTM_BDP

>  <pose_rank>  (21) 
20

>  <num_atoms_heavy>  (21) 
13

>  <num_torsions>  (21) 
1

>  <pose>  (21) 
[-3.5401279474471736, -5.165904345543679, 106.98225222904244, -1.6762178795083427, -5.7447441925219405, -2.867694290565333, -0.5192013576494343]

>  <energy>  (21) 
-419.7573939859403

>  <inter_energy>  (21) 
-409.52284825495155

>  <intra_energy>  (21) 
0.015474951457496507

>  <rmsd>  (21) 
0.950517

>  <sdf_rank>  (21) 
0

$$$$

     RDKit          3D

 22 22  0  0  0  0  0  0  0  0999 V2000
   -1.1498   -6.7070  108.3065 C   0  0  1  0  0  0  0  0  0  0  0  0
   -0.3777   -5.4085  108.1352 C   0  0  1  0  0  0  0  0  0  0  0  0
   -1.2754   -4.2306  108.0894 C   0  0  2  0  0  0  0  0  0  0  0  0
   -2.3680   -4.3864  107.0765 C   0  0  1  0  0  0  0  0  0  0  0  0
   -3.1056   -5.7094  107.2598 C   0  0  1  0  0  0  0  0  0  0  0  0
   -4.0472   -5.8946  106.1209 C   0  0  0  0  0  0  0  0  0  0  0  0
    0.5129   -5.2586  109.2529 O   0  0  0  0  0  0  0  0  0  0  0  0
   -0.5041   -3.0606  107.7377 O   0  0  0  0  0  0  0  0  0  0  0  0
   -3.2870   -3.2987  107.2121 O   0  0  0  0  0  0  0  0  0  0  0  0
   -2.1920   -6.8577  107.2416 O   0  0  0  0  0  0  0  0  0  0  0  0
   -3.7308   -6.6373  105.1534 O   0  0  0  0  0  0  0  0  0  0  0  0
   -0.2962   -7.7588  108.2340 O   0  0  0  0  0  0  0  0  0  0  0  0
   -5.1569   -5.3029  106.1563 O   0  0  0  0  0  0  0  0  0  0  0  0
   -1.6439   -6.6825  109.2890 H   0  0  0  0  0  0  0  0  0  0  0  0
    0.1697   -5.4586  107.1824 H   0  0  0  0  0  0  0  0  0  0  0  0
   -1.7346   -4.1308  109.0840 H   0  0  0  0  0  0  0  0  0  0  0  0
   -1.9209   -4.3833  106.0715 H   0  0  0  0  0  0  0  0  0  0  0  0
   -3.6187   -5.6663  108.2319 H   0  0  0  0  0  0  0  0  0  0  0  0
    0.0014   -5.3447  110.0962 H   0  0  0  0  0  0  0  0  0  0  0  0
   -0.2029   -2.6036  108.5627 H   0  0  0  0  0  0  0  0  0  0  0  0
   -3.4419   -3.1154  108.1725 H   0  0  0  0  0  0  0  0  0  0  0  0
   -0.0570   -8.0535  109.1483 H   0  0  0  0  0  0  0  0  0  0  0  0
  1  2  1  0
  1 10  1  0
  1 12  1  0
  2  3  1  0
  2  7  1  0
  3  4  1  0
  3  8  1  0
  4  5  1  0
  4  9  1  0
  5  6  1  0
  5 10  1  0
  6 11  2  0
  6 13  1  0
  1 14  1  1
  2 15  1  6
  3 16  1  1
  4 17  1  6
  5 18  1  1
  7 19  1  0
  8 20  1  0
  9 21  1  0
 12 22  1  0
M  CHG  1  13  -1
M  END
>  <filename_input>  (22) 
7CTM_BDP_docked.sdf

>  <pdb_id>  (22) 
7CTM_BDP

>  <pose_rank>  (22) 
21

>  <num_atoms_heavy>  (22) 
13

>  <num_torsions>  (22) 
1

>  <pose>  (22) 
[-1.1497928548210146, -6.7070310850286825, 108.30652278787086, -2.1747933662597276, -3.0160915568790654, -0.990960020983208, 3.183910654673811]

>  <energy>  (22) 
-418.72896565578355

>  <inter_energy>  (22) 
-410.3877138858692

>  <intra_energy>  (22) 
6.4223469007338565

>  <rmsd>  (22) 
3.38065

>  <sdf_rank>  (22) 
0

$$$$

     RDKit          3D

 22 22  0  0  0  0  0  0  0  0999 V2000
   -2.9433   -5.3536  107.5652 C   0  0  1  0  0  0  0  0  0  0  0  0
   -1.8225   -4.5871  108.2494 C   0  0  1  0  0  0  0  0  0  0  0  0
   -0.5184   -4.7918  107.5765 C   0  0  2  0  0  0  0  0  0  0  0  0
   -0.1932   -6.2427  107.3943 C   0  0  1  0  0  0  0  0  0  0  0  0
   -1.3470   -6.9873  106.7293 C   0  0  1  0  0  0  0  0  0  0  0  0
   -1.0474   -8.4462  106.7442 C   0  0  0  0  0  0  0  0  0  0  0  0
   -2.1400   -3.1862  108.2095 O   0  0  0  0  0  0  0  0  0  0  0  0
    0.5266   -4.1972  108.3777 O   0  0  0  0  0  0  0  0  0  0  0  0
    0.9836   -6.3585  106.5896 O   0  0  0  0  0  0  0  0  0  0  0  0
   -2.6099   -6.8095  107.4551 O   0  0  0  0  0  0  0  0  0  0  0  0
   -0.5023   -8.9898  105.7467 O   0  0  0  0  0  0  0  0  0  0  0  0
   -4.0892   -5.2208  108.2789 O   0  0  0  0  0  0  0  0  0  0  0  0
   -1.3425   -9.1097  107.7716 O   0  0  0  0  0  0  0  0  0  0  0  0
   -3.0720   -4.9391  106.5545 H   0  0  0  0  0  0  0  0  0  0  0  0
   -1.7361   -4.9556  109.2822 H   0  0  0  0  0  0  0  0  0  0  0  0
   -0.5858   -4.3230  106.5836 H   0  0  0  0  0  0  0  0  0  0  0  0
   -0.0234   -6.6933  108.3833 H   0  0  0  0  0  0  0  0  0  0  0  0
   -1.4517   -6.5861  105.7104 H   0  0  0  0  0  0  0  0  0  0  0  0
   -2.2187   -2.8392  109.1333 H   0  0  0  0  0  0  0  0  0  0  0  0
    0.3153   -4.3174  109.3374 H   0  0  0  0  0  0  0  0  0  0  0  0
    1.7777   -6.4367  107.1756 H   0  0  0  0  0  0  0  0  0  0  0  0
   -3.8802   -5.2450  109.2463 H   0  0  0  0  0  0  0  0  0  0  0  0
  1  2  1  0
  1 10  1  0
  1 12  1  0
  2  3  1  0
  2  7  1  0
  3  4  1  0
  3  8  1  0
  4  5  1  0
  4  9  1  0
  5  6  1  0
  5 10  1  0
  6 11  2  0
  6 13  1  0
  1 14  1  6
  2 15  1  1
  3 16  1  6
  4 17  1  1
  5 18  1  6
  7 19  1  0
  8 20  1  0
  9 21  1  0
 12 22  1  0
M  CHG  1  13  -1
M  END
>  <filename_input>  (23) 
7CTM_BDP_docked.sdf

>  <pdb_id>  (23) 
7CTM_BDP

>  <pose_rank>  (23) 
22

>  <num_atoms_heavy>  (23) 
13

>  <num_torsions>  (23) 
1

>  <pose>  (23) 
[-2.9432621499066993, -5.353616031608479, 107.56524071949998, 1.0451493011566508, -6.039110404830491, -1.3768162585338408, -0.20669123478159857]

>  <energy>  (23) 
-557.328322737741

>  <inter_energy>  (23) 
-562.8402733825859

>  <intra_energy>  (23) 
2.071130245119255

>  <rmsd>  (23) 
0.214121

>  <sdf_rank>  (23) 
0

$$$$

     RDKit          3D

 22 22  0  0  0  0  0  0  0  0999 V2000
   -2.9008   -5.1788  107.6484 C   0  0  1  0  0  0  0  0  0  0  0  0
   -1.7763   -4.4251  108.3405 C   0  0  1  0  0  0  0  0  0  0  0  0
   -0.4719   -4.6354  107.6700 C   0  0  2  0  0  0  0  0  0  0  0  0
   -0.1570   -6.0875  107.4797 C   0  0  1  0  0  0  0  0  0  0  0  0
   -1.3144   -6.8192  106.8067 C   0  0  1  0  0  0  0  0  0  0  0  0
   -1.0259   -8.2804  106.8132 C   0  0  0  0  0  0  0  0  0  0  0  0
   -2.0832   -3.0216  108.3086 O   0  0  0  0  0  0  0  0  0  0  0  0
    0.5753   -4.0537  108.4780 O   0  0  0  0  0  0  0  0  0  0  0  0
    1.0212   -6.2071  106.6776 O   0  0  0  0  0  0  0  0  0  0  0  0
   -2.5781   -6.6365  107.5300 O   0  0  0  0  0  0  0  0  0  0  0  0
   -0.8236   -8.8799  107.9029 O   0  0  0  0  0  0  0  0  0  0  0  0
   -4.0478   -5.0419  108.3596 O   0  0  0  0  0  0  0  0  0  0  0  0
   -0.9990   -8.8925  105.7144 O   0  0  0  0  0  0  0  0  0  0  0  0
   -3.0235   -4.7571  106.6399 H   0  0  0  0  0  0  0  0  0  0  0  0
   -1.6956   -4.8008  109.3712 H   0  0  0  0  0  0  0  0  0  0  0  0
   -0.5328   -4.1599  106.6800 H   0  0  0  0  0  0  0  0  0  0  0  0
    0.0065   -6.5456  108.4663 H   0  0  0  0  0  0  0  0  0  0  0  0
   -1.4131   -6.4108  105.7901 H   0  0  0  0  0  0  0  0  0  0  0  0
   -2.1581   -2.6790  109.2344 H   0  0  0  0  0  0  0  0  0  0  0  0
    0.3581   -4.1743  109.4364 H   0  0  0  0  0  0  0  0  0  0  0  0
    1.8138   -6.2876  107.2654 H   0  0  0  0  0  0  0  0  0  0  0  0
   -3.8409   -5.0666  109.3275 H   0  0  0  0  0  0  0  0  0  0  0  0
  1  2  1  0
  1 10  1  0
  1 12  1  0
  2  3  1  0
  2  7  1  0
  3  4  1  0
  3  8  1  0
  4  5  1  0
  4  9  1  0
  5  6  1  0
  5 10  1  0
  6 11  2  0
  6 13  1  0
  1 14  1  6
  2 15  1  1
  3 16  1  6
  4 17  1  1
  5 18  1  6
  7 19  1  0
  8 20  1  0
  9 21  1  0
 12 22  1  0
M  CHG  1  13  -1
M  END
>  <filename_input>  (24) 
7CTM_BDP_docked.sdf

>  <pdb_id>  (24) 
7CTM_BDP

>  <pose_rank>  (24) 
23

>  <num_atoms_heavy>  (24) 
13

>  <num_torsions>  (24) 
1

>  <pose>  (24) 
[-2.900787779786937, -5.178840003624647, 107.64839219734374, 4.0145226814692725, -0.9069676681796563, -4.760113461450825, -3.8280993959997995]

>  <energy>  (24) 
-533.568012389452

>  <inter_energy>  (24) 
-526.0424827894507

>  <intra_energy>  (24) 
0.0

>  <rmsd>  (24) 
0.321537

>  <sdf_rank>  (24) 
0

$$$$

     RDKit          3D

 22 22  0  0  0  0  0  0  0  0999 V2000
   -0.5325   -4.1594  108.0724 C   0  0  1  0  0  0  0  0  0  0  0  0
   -1.8275   -3.9844  107.2952 C   0  0  1  0  0  0  0  0  0  0  0  0
   -2.5301   -5.2725  107.0895 C   0  0  2  0  0  0  0  0  0  0  0  0
   -1.6391   -6.3180  106.4918 C   0  0  1  0  0  0  0  0  0  0  0  0
   -0.3391   -6.4506  107.2793 C   0  0  1  0  0  0  0  0  0  0  0  0
    0.5788   -7.3603  106.5389 C   0  0  0  0  0  0  0  0  0  0  0  0
   -2.6901   -3.1097  108.0407 O   0  0  0  0  0  0  0  0  0  0  0  0
   -3.6425   -5.0671  106.1907 O   0  0  0  0  0  0  0  0  0  0  0  0
   -2.3299   -7.5705  106.4862 O   0  0  0  0  0  0  0  0  0  0  0  0
    0.3586   -5.1665  107.4131 O   0  0  0  0  0  0  0  0  0  0  0  0
    1.5951   -6.8959  105.9566 O   0  0  0  0  0  0  0  0  0  0  0  0
    0.1234   -2.9739  108.1398 O   0  0  0  0  0  0  0  0  0  0  0  0
    0.3182   -8.5910  106.5192 O   0  0  0  0  0  0  0  0  0  0  0  0
   -0.7865   -4.5140  109.0822 H   0  0  0  0  0  0  0  0  0  0  0  0
   -1.5807   -3.5678  106.3075 H   0  0  0  0  0  0  0  0  0  0  0  0
   -2.8648   -5.6236  108.0768 H   0  0  0  0  0  0  0  0  0  0  0  0
   -1.3847   -6.0196  105.4641 H   0  0  0  0  0  0  0  0  0  0  0  0
   -0.5987   -6.8310  108.2783 H   0  0  0  0  0  0  0  0  0  0  0  0
   -2.5481   -3.2536  109.0099 H   0  0  0  0  0  0  0  0  0  0  0  0
   -4.4676   -4.9147  106.7162 H   0  0  0  0  0  0  0  0  0  0  0  0
   -2.4911   -7.8626  107.4183 H   0  0  0  0  0  0  0  0  0  0  0  0
    0.2605   -2.7261  109.0884 H   0  0  0  0  0  0  0  0  0  0  0  0
  1  2  1  0
  1 10  1  0
  1 12  1  0
  2  3  1  0
  2  7  1  0
  3  4  1  0
  3  8  1  0
  4  5  1  0
  4  9  1  0
  5  6  1  0
  5 10  1  0
  6 11  2  0
  6 13  1  0
  1 14  1  1
  2 15  1  6
  3 16  1  1
  4 17  1  6
  5 18  1  1
  7 19  1  0
  8 20  1  0
  9 21  1  0
 12 22  1  0
M  CHG  1  13  -1
M  END
>  <filename_input>  (25) 
7CTM_BDP_docked.sdf

>  <pdb_id>  (25) 
7CTM_BDP

>  <pose_rank>  (25) 
24

>  <num_atoms_heavy>  (25) 
13

>  <num_torsions>  (25) 
1

>  <pose>  (25) 
[-0.532491822576834, -4.159410574652679, 108.07237363883672, 1.3650337145654932, -2.980772258421826, -1.0491330660179836, -2.94906971401481]

>  <energy>  (25) 
-449.02110216279385

>  <inter_energy>  (25) 
-459.2797231516301

>  <intra_energy>  (25) 
9.470428296696012

>  <rmsd>  (25) 
2.85438

>  <sdf_rank>  (25) 
0

$$$$

     RDKit          3D

 22 22  0  0  0  0  0  0  0  0999 V2000
   -2.9940   -5.2600  107.7260 C   0  0  1  0  0  0  0  0  0  0  0  0
   -1.8740   -4.4940  108.4120 C   0  0  1  0  0  0  0  0  0  0  0  0
   -0.5690   -4.6990  107.7410 C   0  0  2  0  0  0  0  0  0  0  0  0
   -0.2440   -6.1500  107.5590 C   0  0  1  0  0  0  0  0  0  0  0  0
   -1.3970   -6.8940  106.8920 C   0  0  1  0  0  0  0  0  0  0  0  0
   -1.0980   -8.3530  106.9070 C   0  0  0  0  0  0  0  0  0  0  0  0
   -2.1910   -3.0930  108.3720 O   0  0  0  0  0  0  0  0  0  0  0  0
    0.4750   -4.1050  108.5440 O   0  0  0  0  0  0  0  0  0  0  0  0
    0.9340   -6.2660  106.7560 O   0  0  0  0  0  0  0  0  0  0  0  0
   -2.6610   -6.7160  107.6160 O   0  0  0  0  0  0  0  0  0  0  0  0
   -0.3590   -8.8560  106.0190 O   0  0  0  0  0  0  0  0  0  0  0  0
   -4.1410   -5.1270  108.4380 O   0  0  0  0  0  0  0  0  0  0  0  0
   -1.5910   -9.0580  107.8250 O   0  0  0  0  0  0  0  0  0  0  0  0
   -3.1211   -4.8452  106.7152 H   0  0  0  0  0  0  0  0  0  0  0  0
   -1.7893   -4.8629  109.4448 H   0  0  0  0  0  0  0  0  0  0  0  0
   -0.6347   -4.2300  106.7482 H   0  0  0  0  0  0  0  0  0  0  0  0
   -0.0759   -6.6009  108.5481 H   0  0  0  0  0  0  0  0  0  0  0  0
   -1.5001   -6.4925  105.8731 H   0  0  0  0  0  0  0  0  0  0  0  0
   -2.2695   -2.7459  109.2958 H   0  0  0  0  0  0  0  0  0  0  0  0
    0.2626   -4.2259  109.5034 H   0  0  0  0  0  0  0  0  0  0  0  0
    1.7272   -6.3441  107.3432 H   0  0  0  0  0  0  0  0  0  0  0  0
   -3.9334   -5.1511  109.4057 H   0  0  0  0  0  0  0  0  0  0  0  0
  1  2  1  0
  1 10  1  0
  1 12  1  0
  2  3  1  0
  2  7  1  0
  3  4  1  0
  3  8  1  0
  4  5  1  0
  4  9  1  0
  5  6  1  0
  5 10  1  0
  6 11  2  0
  6 13  1  0
  1 14  1  6
  2 15  1  1
  3 16  1  6
  4 17  1  1
  5 18  1  6
  7 19  1  0
  8 20  1  0
  9 21  1  0
 12 22  1  0
M  CHG  1  13  -1
M  END
>  <filename_input>  (26) 
7CTM_BDP_docked.sdf

>  <pdb_id>  (26) 
7CTM_BDP

>  <pose_rank>  (26) 
25

>  <num_atoms_heavy>  (26) 
13

>  <num_torsions>  (26) 
1

>  <pose>  (26) 
[-2.994, -5.26, 107.726, 1e-06, 1e-06, 1e-06, 0.0]

>  <energy>  (26) 
-524.3448194507015

>  <inter_energy>  (26) 
-531.1812461225178

>  <intra_energy>  (26) 
5.11313461482428

>  <rmsd>  (26) 
0.0

>  <sdf_rank>  (26) 
0

$$$$
