
     RDKit          3D

 15 15  0  0  0  0  0  0  0  0999 V2000
   21.8198   12.7221   60.7730 C   0  0  0  0  0  0  0  0  0  0  0  0
   22.1350   13.1467   59.6488 O   0  0  0  0  0  0  0  0  0  0  0  0
   21.5032   11.5300   61.0099 O   0  0  0  0  0  0  0  0  0  0  0  0
   21.7778   13.7224   61.8958 C   0  0  0  0  0  0  0  0  0  0  0  0
   22.6170   14.8289   61.8828 C   0  0  0  0  0  0  0  0  0  0  0  0
   22.5708   15.7695   62.8961 C   0  0  0  0  0  0  0  0  0  0  0  0
   21.6726   15.6160   63.9413 C   0  0  0  0  0  0  0  0  0  0  0  0
   20.8393   14.5070   63.9683 C   0  0  0  0  0  0  0  0  0  0  0  0
   20.8893   13.5750   62.9490 C   0  0  0  0  0  0  0  0  0  0  0  0
   21.6167   16.5513   64.9357 O   0  0  0  0  0  0  0  0  0  0  0  0
   23.3290   14.9592   61.0545 H   0  0  0  0  0  0  0  0  0  0  0  0
   23.2455   16.6380   62.8726 H   0  0  0  0  0  0  0  0  0  0  0  0
   20.1368   14.3691   64.8034 H   0  0  0  0  0  0  0  0  0  0  0  0
   20.2156   12.7058   62.9740 H   0  0  0  0  0  0  0  0  0  0  0  0
   20.9757   16.4424   65.6823 H   0  0  0  0  0  0  0  0  0  0  0  0
  1  2  2  0
  1  3  1  0
  1  4  1  0
  4  5  2  0
  4  9  1  0
  5  6  1  0
  6  7  2  0
  7  8  1  0
  7 10  1  0
  8  9  2  0
  5 11  1  0
  6 12  1  0
  8 13  1  0
  9 14  1  0
 10 15  1  0
M  CHG  1   3  -1
M  END
>  <filename_input>  (1) 
7CUO_PHB_docked.sdf

>  <pdb_id>  (1) 
7CUO_PHB

>  <pose_rank>  (1) 
0

>  <num_atoms_heavy>  (1) 
10

>  <num_torsions>  (1) 
1

>  <pose>  (1) 
[21.77784356272521, 13.722360346509017, 61.89581286851474, -0.006930190199686708, 0.007727597759855818, -0.09202855135809208, -0.181721395996995]

>  <energy>  (1) 
-746.5269136197206

>  <inter_energy>  (1) 
-720.3540945899897

>  <intra_energy>  (1) 
0.0

>  <rmsd>  (1) 
0.297566

>  <sdf_rank>  (1) 
0

$$$$

     RDKit          3D

 15 15  0  0  0  0  0  0  0  0999 V2000
   20.9603   13.4822   61.7141 C   0  0  0  0  0  0  0  0  0  0  0  0
   20.2281   12.5927   62.1790 O   0  0  0  0  0  0  0  0  0  0  0  0
   21.4653   13.4464   60.5647 O   0  0  0  0  0  0  0  0  0  0  0  0
   21.2853   14.6421   62.6152 C   0  0  0  0  0  0  0  0  0  0  0  0
   22.2268   15.5880   62.2312 C   0  0  0  0  0  0  0  0  0  0  0  0
   22.5165   16.6730   63.0389 C   0  0  0  0  0  0  0  0  0  0  0  0
   21.8578   16.8292   64.2492 C   0  0  0  0  0  0  0  0  0  0  0  0
   20.9248   15.8822   64.6460 C   0  0  0  0  0  0  0  0  0  0  0  0
   20.6385   14.8040   63.8301 C   0  0  0  0  0  0  0  0  0  0  0  0
   22.1334   17.9076   65.0416 O   0  0  0  0  0  0  0  0  0  0  0  0
   22.7500   15.4727   61.2705 H   0  0  0  0  0  0  0  0  0  0  0  0
   23.2682   17.4108   62.7216 H   0  0  0  0  0  0  0  0  0  0  0  0
   20.4114   15.9898   65.6129 H   0  0  0  0  0  0  0  0  0  0  0  0
   19.8881   14.0656   64.1488 H   0  0  0  0  0  0  0  0  0  0  0  0
   21.6636   18.0197   65.9058 H   0  0  0  0  0  0  0  0  0  0  0  0
  1  2  2  0
  1  3  1  0
  1  4  1  0
  4  5  2  0
  4  9  1  0
  5  6  1  0
  6  7  2  0
  7  8  1  0
  7 10  1  0
  8  9  2  0
  5 11  1  0
  6 12  1  0
  8 13  1  0
  9 14  1  0
 10 15  1  0
M  CHG  1   3  -1
M  END
>  <filename_input>  (2) 
7CUO_PHB_docked.sdf

>  <pdb_id>  (2) 
7CUO_PHB

>  <pose_rank>  (2) 
1

>  <num_atoms_heavy>  (2) 
10

>  <num_torsions>  (2) 
1

>  <pose>  (2) 
[21.285261025903925, 14.642067992373166, 62.61524694917056, -0.192160743124106, 0.2107558190284854, -0.23116523661973173, -9.222142919053386]

>  <energy>  (2) 
-437.29903762441756

>  <inter_energy>  (2) 
-423.85567626685446

>  <intra_energy>  (2) 
0.0

>  <rmsd>  (2) 
1.28865

>  <sdf_rank>  (2) 
0

$$$$

     RDKit          3D

 15 15  0  0  0  0  0  0  0  0999 V2000
   21.2688   12.2388   61.2955 C   0  0  0  0  0  0  0  0  0  0  0  0
   20.3054   12.1494   60.5163 O   0  0  0  0  0  0  0  0  0  0  0  0
   22.1975   11.3961   61.3635 O   0  0  0  0  0  0  0  0  0  0  0  0
   21.2814   13.4120   62.2371 C   0  0  0  0  0  0  0  0  0  0  0  0
   22.1448   14.4779   62.0201 C   0  0  0  0  0  0  0  0  0  0  0  0
   22.1486   15.5743   62.8637 C   0  0  0  0  0  0  0  0  0  0  0  0
   21.2770   15.6204   63.9412 C   0  0  0  0  0  0  0  0  0  0  0  0
   20.4198   14.5542   64.1722 C   0  0  0  0  0  0  0  0  0  0  0  0
   20.4198   13.4653   63.3211 C   0  0  0  0  0  0  0  0  0  0  0  0
   21.2705   16.7087   64.7673 O   0  0  0  0  0  0  0  0  0  0  0  0
   22.8359   14.4500   61.1647 H   0  0  0  0  0  0  0  0  0  0  0  0
   22.8420   16.4082   62.6799 H   0  0  0  0  0  0  0  0  0  0  0  0
   19.7382   14.5756   65.0353 H   0  0  0  0  0  0  0  0  0  0  0  0
   19.7275   12.6308   63.5065 H   0  0  0  0  0  0  0  0  0  0  0  0
   20.6485   16.7423   65.5368 H   0  0  0  0  0  0  0  0  0  0  0  0
  1  2  2  0
  1  3  1  0
  1  4  1  0
  4  5  2  0
  4  9  1  0
  5  6  1  0
  6  7  2  0
  7  8  1  0
  7 10  1  0
  8  9  2  0
  5 11  1  0
  6 12  1  0
  8 13  1  0
  9 14  1  0
 10 15  1  0
M  CHG  1   3  -1
M  END
>  <filename_input>  (3) 
7CUO_PHB_docked.sdf

>  <pdb_id>  (3) 
7CUO_PHB

>  <pose_rank>  (3) 
2

>  <num_atoms_heavy>  (3) 
10

>  <num_torsions>  (3) 
1

>  <pose>  (3) 
[21.281360018151908, 13.41202029735021, 62.23707262614733, 4.999545275476595, -0.7551406392970629, 3.36033177033202, -1.502798760599756]

>  <energy>  (3) 
-548.9902401429572

>  <inter_energy>  (3) 
-552.2277662210854

>  <intra_energy>  (3) 
0.0

>  <rmsd>  (3) 
0.933973

>  <sdf_rank>  (3) 
0

$$$$

     RDKit          3D

 15 15  0  0  0  0  0  0  0  0999 V2000
   22.2325   17.3348   64.0123 C   0  0  0  0  0  0  0  0  0  0  0  0
   23.0798   18.0748   63.4851 O   0  0  0  0  0  0  0  0  0  0  0  0
   21.6063   17.6213   65.0626 O   0  0  0  0  0  0  0  0  0  0  0  0
   21.9894   16.0003   63.3619 C   0  0  0  0  0  0  0  0  0  0  0  0
   22.5856   15.6921   62.1461 C   0  0  0  0  0  0  0  0  0  0  0  0
   22.3908   14.4593   61.5497 C   0  0  0  0  0  0  0  0  0  0  0  0
   21.5942   13.5091   62.1708 C   0  0  0  0  0  0  0  0  0  0  0  0
   20.9849   13.8134   63.3795 C   0  0  0  0  0  0  0  0  0  0  0  0
   21.1894   15.0461   63.9701 C   0  0  0  0  0  0  0  0  0  0  0  0
   21.4119   12.2862   61.5893 O   0  0  0  0  0  0  0  0  0  0  0  0
   23.2222   16.4395   61.6499 H   0  0  0  0  0  0  0  0  0  0  0  0
   22.8670   14.2329   60.5844 H   0  0  0  0  0  0  0  0  0  0  0  0
   20.3372   13.0714   63.8693 H   0  0  0  0  0  0  0  0  0  0  0  0
   20.7113   15.2725   64.9346 H   0  0  0  0  0  0  0  0  0  0  0  0
   20.8434   11.6074   62.0321 H   0  0  0  0  0  0  0  0  0  0  0  0
  1  2  2  0
  1  3  1  0
  1  4  1  0
  4  5  2  0
  4  9  1  0
  5  6  1  0
  6  7  2  0
  7  8  1  0
  7 10  1  0
  8  9  2  0
  5 11  1  0
  6 12  1  0
  8 13  1  0
  9 14  1  0
 10 15  1  0
M  CHG  1   3  -1
M  END
>  <filename_input>  (4) 
7CUO_PHB_docked.sdf

>  <pdb_id>  (4) 
7CUO_PHB

>  <pose_rank>  (4) 
3

>  <num_atoms_heavy>  (4) 
10

>  <num_torsions>  (4) 
1

>  <pose>  (4) 
[21.98935236236151, 16.00031405335358, 63.361932907249866, 1.9827108567826845, 1.381699607900377, -1.9130727358792214, 6.506039109241484]

>  <energy>  (4) 
-376.71591051997314

>  <inter_energy>  (4) 
-368.61242736264455

>  <intra_energy>  (4) 
0.0

>  <rmsd>  (4) 
4.16198

>  <sdf_rank>  (4) 
0

$$$$

     RDKit          3D

 15 15  0  0  0  0  0  0  0  0999 V2000
   22.5880   14.6570   59.6306 C   0  0  0  0  0  0  0  0  0  0  0  0
   22.8222   15.8765   59.6683 O   0  0  0  0  0  0  0  0  0  0  0  0
   22.8168   13.9286   58.6335 O   0  0  0  0  0  0  0  0  0  0  0  0
   21.9503   14.0443   60.8475 C   0  0  0  0  0  0  0  0  0  0  0  0
   20.6185   14.3002   61.1471 C   0  0  0  0  0  0  0  0  0  0  0  0
   20.0129   13.7230   62.2488 C   0  0  0  0  0  0  0  0  0  0  0  0
   20.7373   12.8707   63.0685 C   0  0  0  0  0  0  0  0  0  0  0  0
   22.0716   12.6195   62.7833 C   0  0  0  0  0  0  0  0  0  0  0  0
   22.6668   13.1969   61.6776 C   0  0  0  0  0  0  0  0  0  0  0  0
   20.1364   12.2895   64.1491 O   0  0  0  0  0  0  0  0  0  0  0  0
   20.0367   14.9719   60.4988 H   0  0  0  0  0  0  0  0  0  0  0  0
   18.9583   13.9397   62.4742 H   0  0  0  0  0  0  0  0  0  0  0  0
   22.6575   11.9587   63.4391 H   0  0  0  0  0  0  0  0  0  0  0  0
   23.7219   12.9813   61.4538 H   0  0  0  0  0  0  0  0  0  0  0  0
   20.6529   11.6809   64.7348 H   0  0  0  0  0  0  0  0  0  0  0  0
  1  2  2  0
  1  3  1  0
  1  4  1  0
  4  5  2  0
  4  9  1  0
  5  6  1  0
  6  7  2  0
  7  8  1  0
  7 10  1  0
  8  9  2  0
  5 11  1  0
  6 12  1  0
  8 13  1  0
  9 14  1  0
 10 15  1  0
M  CHG  1   3  -1
M  END
>  <filename_input>  (5) 
7CUO_PHB_docked.sdf

>  <pdb_id>  (5) 
7CUO_PHB

>  <pose_rank>  (5) 
4

>  <num_atoms_heavy>  (5) 
10

>  <num_torsions>  (5) 
1

>  <pose>  (5) 
[21.950261446755746, 14.044281514759522, 60.84754824910937, 1.1338837588858237, 0.09642375256718859, 8.142764812700745, 7.884091070146933]

>  <energy>  (5) 
-401.4319226298477

>  <inter_energy>  (5) 
-377.2713512270735

>  <intra_energy>  (5) 
0.0

>  <rmsd>  (5) 
2.838

>  <sdf_rank>  (5) 
0

$$$$

     RDKit          3D

 15 15  0  0  0  0  0  0  0  0999 V2000
   21.9903   14.8180   59.5207 C   0  0  0  0  0  0  0  0  0  0  0  0
   21.6189   14.4585   58.3910 O   0  0  0  0  0  0  0  0  0  0  0  0
   22.2430   16.0085   59.8309 O   0  0  0  0  0  0  0  0  0  0  0  0
   22.1861   13.7406   60.5522 C   0  0  0  0  0  0  0  0  0  0  0  0
   23.0093   13.9594   61.6492 C   0  0  0  0  0  0  0  0  0  0  0  0
   23.1779   12.9865   62.6181 C   0  0  0  0  0  0  0  0  0  0  0  0
   22.5148   11.7741   62.5030 C   0  0  0  0  0  0  0  0  0  0  0  0
   21.7004   11.5428   61.4039 C   0  0  0  0  0  0  0  0  0  0  0  0
   21.5342   12.5226   60.4434 C   0  0  0  0  0  0  0  0  0  0  0  0
   22.6701   10.8175   63.4662 O   0  0  0  0  0  0  0  0  0  0  0  0
   23.5349   14.9205   61.7491 H   0  0  0  0  0  0  0  0  0  0  0  0
   23.8369   13.1745   63.4785 H   0  0  0  0  0  0  0  0  0  0  0  0
   21.1853   10.5767   61.2966 H   0  0  0  0  0  0  0  0  0  0  0  0
   20.8765   12.3333   59.5822 H   0  0  0  0  0  0  0  0  0  0  0  0
   22.1971    9.9517   63.3847 H   0  0  0  0  0  0  0  0  0  0  0  0
  1  2  2  0
  1  3  1  0
  1  4  1  0
  4  5  2  0
  4  9  1  0
  5  6  1  0
  6  7  2  0
  7  8  1  0
  7 10  1  0
  8  9  2  0
  5 11  1  0
  6 12  1  0
  8 13  1  0
  9 14  1  0
 10 15  1  0
M  CHG  1   3  -1
M  END
>  <filename_input>  (6) 
7CUO_PHB_docked.sdf

>  <pdb_id>  (6) 
7CUO_PHB

>  <pose_rank>  (6) 
5

>  <num_atoms_heavy>  (6) 
10

>  <num_torsions>  (6) 
1

>  <pose>  (6) 
[22.18611853299852, 13.740621359334394, 60.552202484540324, -4.674870761572247, -0.7528260654330134, -0.2793847052809313, -3.186492413280532]

>  <energy>  (6) 
-319.61732043240147

>  <inter_energy>  (6) 
-320.68105307132805

>  <intra_energy>  (6) 
0.0

>  <rmsd>  (6) 
3.54635

>  <sdf_rank>  (6) 
0

$$$$

     RDKit          3D

 15 15  0  0  0  0  0  0  0  0999 V2000
   22.4091   14.0309   60.0459 C   0  0  0  0  0  0  0  0  0  0  0  0
   22.2899   12.8257   59.7687 O   0  0  0  0  0  0  0  0  0  0  0  0
   22.6842   14.9211   59.2038 O   0  0  0  0  0  0  0  0  0  0  0  0
   22.2548   14.4197   61.4909 C   0  0  0  0  0  0  0  0  0  0  0  0
   21.3408   13.7600   62.3023 C   0  0  0  0  0  0  0  0  0  0  0  0
   21.2071   14.0904   63.6389 C   0  0  0  0  0  0  0  0  0  0  0  0
   21.9969   15.0902   64.1863 C   0  0  0  0  0  0  0  0  0  0  0  0
   22.9038   15.7625   63.3797 C   0  0  0  0  0  0  0  0  0  0  0  0
   23.0338   15.4221   62.0465 C   0  0  0  0  0  0  0  0  0  0  0  0
   21.8752   15.4082   65.5095 O   0  0  0  0  0  0  0  0  0  0  0  0
   20.7140   12.9631   61.8758 H   0  0  0  0  0  0  0  0  0  0  0  0
   20.4752   13.5610   64.2666 H   0  0  0  0  0  0  0  0  0  0  0  0
   23.5210   16.5688   63.8025 H   0  0  0  0  0  0  0  0  0  0  0  0
   23.7645   15.9533   61.4189 H   0  0  0  0  0  0  0  0  0  0  0  0
   22.4387   16.1218   65.9009 H   0  0  0  0  0  0  0  0  0  0  0  0
  1  2  2  0
  1  3  1  0
  1  4  1  0
  4  5  2  0
  4  9  1  0
  5  6  1  0
  6  7  2  0
  7  8  1  0
  7 10  1  0
  8  9  2  0
  5 11  1  0
  6 12  1  0
  8 13  1  0
  9 14  1  0
 10 15  1  0
M  CHG  1   3  -1
M  END
>  <filename_input>  (7) 
7CUO_PHB_docked.sdf

>  <pdb_id>  (7) 
7CUO_PHB

>  <pose_rank>  (7) 
6

>  <num_atoms_heavy>  (7) 
10

>  <num_torsions>  (7) 
1

>  <pose>  (7) 
[22.254824744534623, 14.419666990179877, 61.49091454367903, 0.29271910908916055, -1.5148771823111233, -2.8417533831955892, 6.004140663074839]

>  <energy>  (7) 
-507.7350079030193

>  <inter_energy>  (7) 
-518.0935297965349

>  <intra_energy>  (7) 
0.0

>  <rmsd>  (7) 
1.26566

>  <sdf_rank>  (7) 
0

$$$$

     RDKit          3D

 15 15  0  0  0  0  0  0  0  0999 V2000
   21.0361   14.6602   64.1691 C   0  0  0  0  0  0  0  0  0  0  0  0
   21.2600   15.6549   64.8789 O   0  0  0  0  0  0  0  0  0  0  0  0
   20.3426   13.6788   64.5342 O   0  0  0  0  0  0  0  0  0  0  0  0
   21.6810   14.6294   62.8104 C   0  0  0  0  0  0  0  0  0  0  0  0
   22.6912   15.5276   62.4916 C   0  0  0  0  0  0  0  0  0  0  0  0
   23.3101   15.4935   61.2549 C   0  0  0  0  0  0  0  0  0  0  0  0
   22.9261   14.5484   60.3155 C   0  0  0  0  0  0  0  0  0  0  0  0
   21.9093   13.6554   60.6216 C   0  0  0  0  0  0  0  0  0  0  0  0
   21.3002   13.6940   61.8616 C   0  0  0  0  0  0  0  0  0  0  0  0
   23.5458   14.5050   59.0987 O   0  0  0  0  0  0  0  0  0  0  0  0
   23.0038   16.2772   63.2334 H   0  0  0  0  0  0  0  0  0  0  0  0
   24.1056   16.2149   61.0169 H   0  0  0  0  0  0  0  0  0  0  0  0
   21.5870   12.9145   59.8751 H   0  0  0  0  0  0  0  0  0  0  0  0
   20.5034   12.9734   62.0982 H   0  0  0  0  0  0  0  0  0  0  0  0
   23.2723   13.8306   58.4276 H   0  0  0  0  0  0  0  0  0  0  0  0
  1  2  2  0
  1  3  1  0
  1  4  1  0
  4  5  2  0
  4  9  1  0
  5  6  1  0
  6  7  2  0
  7  8  1  0
  7 10  1  0
  8  9  2  0
  5 11  1  0
  6 12  1  0
  8 13  1  0
  9 14  1  0
 10 15  1  0
M  CHG  1   3  -1
M  END
>  <filename_input>  (8) 
7CUO_PHB_docked.sdf

>  <pdb_id>  (8) 
7CUO_PHB

>  <pose_rank>  (8) 
7

>  <num_atoms_heavy>  (8) 
10

>  <num_torsions>  (8) 
1

>  <pose>  (8) 
[21.68104440984384, 14.62938505690746, 62.81039758835183, 2.1604802650775636, 2.5144168519296892, -0.3422724941672529, 6.855662799942058]

>  <energy>  (8) 
-337.6040788457114

>  <inter_energy>  (8) 
-341.44973297979027

>  <intra_energy>  (8) 
0.0

>  <rmsd>  (8) 
3.87139

>  <sdf_rank>  (8) 
0

$$$$

     RDKit          3D

 15 15  0  0  0  0  0  0  0  0999 V2000
   22.4318   13.1533   60.8321 C   0  0  0  0  0  0  0  0  0  0  0  0
   22.5698   11.9568   61.1368 O   0  0  0  0  0  0  0  0  0  0  0  0
   22.4418   13.5829   59.6520 O   0  0  0  0  0  0  0  0  0  0  0  0
   22.2905   14.1359   61.9624 C   0  0  0  0  0  0  0  0  0  0  0  0
   23.0268   15.3134   61.9659 C   0  0  0  0  0  0  0  0  0  0  0  0
   22.8875   16.2372   62.9861 C   0  0  0  0  0  0  0  0  0  0  0  0
   21.9979   15.9944   64.0218 C   0  0  0  0  0  0  0  0  0  0  0  0
   21.2676   14.8148   64.0323 C   0  0  0  0  0  0  0  0  0  0  0  0
   21.4099   13.9000   63.0061 C   0  0  0  0  0  0  0  0  0  0  0  0
   21.8496   16.9122   65.0230 O   0  0  0  0  0  0  0  0  0  0  0  0
   23.7312   15.5145   61.1453 H   0  0  0  0  0  0  0  0  0  0  0  0
   23.4815   17.1630   62.9759 H   0  0  0  0  0  0  0  0  0  0  0  0
   20.5733   14.6070   64.8597 H   0  0  0  0  0  0  0  0  0  0  0  0
   20.8171   12.9735   63.0179 H   0  0  0  0  0  0  0  0  0  0  0  0
   21.2147   16.7395   65.7627 H   0  0  0  0  0  0  0  0  0  0  0  0
  1  2  2  0
  1  3  1  0
  1  4  1  0
  4  5  2  0
  4  9  1  0
  5  6  1  0
  6  7  2  0
  7  8  1  0
  7 10  1  0
  8  9  2  0
  5 11  1  0
  6 12  1  0
  8 13  1  0
  9 14  1  0
 10 15  1  0
M  CHG  1   3  -1
M  END
>  <filename_input>  (9) 
7CUO_PHB_docked.sdf

>  <pdb_id>  (9) 
7CUO_PHB

>  <pose_rank>  (9) 
8

>  <num_atoms_heavy>  (9) 
10

>  <num_torsions>  (9) 
1

>  <pose>  (9) 
[22.290521086369303, 14.135857394104882, 61.96235812771304, 3.5008841358924654, -2.556180719952551, -4.552105967513451, 8.953612556052628]

>  <energy>  (9) 
-576.5303516181356

>  <inter_energy>  (9) 
-564.3519735499451

>  <intra_energy>  (9) 
0.0

>  <rmsd>  (9) 
0.738721

>  <sdf_rank>  (9) 
0

$$$$

     RDKit          3D

 15 15  0  0  0  0  0  0  0  0999 V2000
   22.8584   15.0928   59.0379 C   0  0  0  0  0  0  0  0  0  0  0  0
   22.2747   15.7459   58.1569 O   0  0  0  0  0  0  0  0  0  0  0  0
   23.4777   14.0214   58.8236 O   0  0  0  0  0  0  0  0  0  0  0  0
   22.7679   15.6108   60.4474 C   0  0  0  0  0  0  0  0  0  0  0  0
   23.5349   16.6973   60.8474 C   0  0  0  0  0  0  0  0  0  0  0  0
   23.4424   17.1994   62.1330 C   0  0  0  0  0  0  0  0  0  0  0  0
   22.5695   16.6188   63.0407 C   0  0  0  0  0  0  0  0  0  0  0  0
   21.8087   15.5253   62.6529 C   0  0  0  0  0  0  0  0  0  0  0  0
   21.9044   15.0337   61.3648 C   0  0  0  0  0  0  0  0  0  0  0  0
   22.4675   17.1223   64.3068 O   0  0  0  0  0  0  0  0  0  0  0  0
   24.2263   17.1654   60.1312 H   0  0  0  0  0  0  0  0  0  0  0  0
   24.0603   18.0579   62.4348 H   0  0  0  0  0  0  0  0  0  0  0  0
   21.1274   15.0483   63.3728 H   0  0  0  0  0  0  0  0  0  0  0  0
   21.2876   14.1739   61.0642 H   0  0  0  0  0  0  0  0  0  0  0  0
   21.8445   16.7083   64.9554 H   0  0  0  0  0  0  0  0  0  0  0  0
  1  2  2  0
  1  3  1  0
  1  4  1  0
  4  5  2  0
  4  9  1  0
  5  6  1  0
  6  7  2  0
  7  8  1  0
  7 10  1  0
  8  9  2  0
  5 11  1  0
  6 12  1  0
  8 13  1  0
  9 14  1  0
 10 15  1  0
M  CHG  1   3  -1
M  END
>  <filename_input>  (10) 
7CUO_PHB_docked.sdf

>  <pdb_id>  (10) 
7CUO_PHB

>  <pose_rank>  (10) 
9

>  <num_atoms_heavy>  (10) 
10

>  <num_torsions>  (10) 
1

>  <pose>  (10) 
[22.767874722628402, 15.610777671967261, 60.44735933352257, -18.39655827044887, -1.293324340530821, 1.2242323429203565, 5.289692705293976]

>  <energy>  (10) 
-360.8105168043198

>  <inter_energy>  (10) 
-338.96846368045124

>  <intra_energy>  (10) 
0.0

>  <rmsd>  (10) 
2.55

>  <sdf_rank>  (10) 
0

$$$$

     RDKit          3D

 15 15  0  0  0  0  0  0  0  0999 V2000
   22.1806   12.4245   61.0563 C   0  0  0  0  0  0  0  0  0  0  0  0
   21.2492   12.2742   60.2481 O   0  0  0  0  0  0  0  0  0  0  0  0
   23.2016   11.6942   61.0948 O   0  0  0  0  0  0  0  0  0  0  0  0
   22.0361   13.5261   62.0705 C   0  0  0  0  0  0  0  0  0  0  0  0
   22.7283   14.7200   61.9146 C   0  0  0  0  0  0  0  0  0  0  0  0
   22.5848   15.7505   62.8262 C   0  0  0  0  0  0  0  0  0  0  0  0
   21.7351   15.5998   63.9117 C   0  0  0  0  0  0  0  0  0  0  0  0
   21.0493   14.4058   64.0815 C   0  0  0  0  0  0  0  0  0  0  0  0
   21.1954   13.3836   63.1628 C   0  0  0  0  0  0  0  0  0  0  0  0
   21.5822   16.6219   64.8054 O   0  0  0  0  0  0  0  0  0  0  0  0
   23.4008   14.8480   61.0536 H   0  0  0  0  0  0  0  0  0  0  0  0
   23.1437   16.6881   62.6903 H   0  0  0  0  0  0  0  0  0  0  0  0
   20.3873   14.2722   64.9498 H   0  0  0  0  0  0  0  0  0  0  0  0
   20.6375   12.4456   63.3004 H   0  0  0  0  0  0  0  0  0  0  0  0
   20.9757   16.5151   65.5806 H   0  0  0  0  0  0  0  0  0  0  0  0
  1  2  2  0
  1  3  1  0
  1  4  1  0
  4  5  2  0
  4  9  1  0
  5  6  1  0
  6  7  2  0
  7  8  1  0
  7 10  1  0
  8  9  2  0
  5 11  1  0
  6 12  1  0
  8 13  1  0
  9 14  1  0
 10 15  1  0
M  CHG  1   3  -1
M  END
>  <filename_input>  (11) 
7CUO_PHB_docked.sdf

>  <pdb_id>  (11) 
7CUO_PHB

>  <pose_rank>  (11) 
10

>  <num_atoms_heavy>  (11) 
10

>  <num_torsions>  (11) 
1

>  <pose>  (11) 
[22.036067383639633, 13.52613445978799, 62.070466883698586, 17.43733115193845, -4.572108652640593, -5.073320200013956, 4.826958421737716]

>  <energy>  (11) 
-597.7239839364896

>  <inter_energy>  (11) 
-602.1056198461913

>  <intra_energy>  (11) 
0.0

>  <rmsd>  (11) 
0.863686

>  <sdf_rank>  (11) 
0

$$$$

     RDKit          3D

 15 15  0  0  0  0  0  0  0  0999 V2000
   22.8347   15.4555   60.7193 C   0  0  0  0  0  0  0  0  0  0  0  0
   22.7003   15.4855   59.4846 O   0  0  0  0  0  0  0  0  0  0  0  0
   23.6061   16.2114   61.3602 O   0  0  0  0  0  0  0  0  0  0  0  0
   22.0501   14.4132   61.4683 C   0  0  0  0  0  0  0  0  0  0  0  0
   21.6176   13.2615   60.8237 C   0  0  0  0  0  0  0  0  0  0  0  0
   20.9174   12.2835   61.5070 C   0  0  0  0  0  0  0  0  0  0  0  0
   20.6436   12.4447   62.8568 C   0  0  0  0  0  0  0  0  0  0  0  0
   21.0614   13.5979   63.5053 C   0  0  0  0  0  0  0  0  0  0  0  0
   21.7646   14.5673   62.8155 C   0  0  0  0  0  0  0  0  0  0  0  0
   19.9638   11.4733   63.5358 O   0  0  0  0  0  0  0  0  0  0  0  0
   21.8350   13.1250   59.7541 H   0  0  0  0  0  0  0  0  0  0  0  0
   20.5783   11.3792   60.9803 H   0  0  0  0  0  0  0  0  0  0  0  0
   20.8323   13.7410   64.5716 H   0  0  0  0  0  0  0  0  0  0  0  0
   22.1017   15.4722   63.3423 H   0  0  0  0  0  0  0  0  0  0  0  0
   19.7680   11.5877   64.4994 H   0  0  0  0  0  0  0  0  0  0  0  0
  1  2  2  0
  1  3  1  0
  1  4  1  0
  4  5  2  0
  4  9  1  0
  5  6  1  0
  6  7  2  0
  7  8  1  0
  7 10  1  0
  8  9  2  0
  5 11  1  0
  6 12  1  0
  8 13  1  0
  9 14  1  0
 10 15  1  0
M  CHG  1   3  -1
M  END
>  <filename_input>  (12) 
7CUO_PHB_docked.sdf

>  <pdb_id>  (12) 
7CUO_PHB

>  <pose_rank>  (12) 
11

>  <num_atoms_heavy>  (12) 
10

>  <num_torsions>  (12) 
1

>  <pose>  (12) 
[22.05010399462384, 14.413151847704926, 61.468262484547935, -6.877757779667562, -0.4639344954560122, 14.10396845595494, -5.532008070364431]

>  <energy>  (12) 
-402.0234358118072

>  <inter_energy>  (12) 
-395.8559941162865

>  <intra_energy>  (12) 
0.0

>  <rmsd>  (12) 
3.29246

>  <sdf_rank>  (12) 
0

$$$$

     RDKit          3D

 15 15  0  0  0  0  0  0  0  0999 V2000
   29.3294   23.4595   54.9689 C   0  0  0  0  0  0  0  0  0  0  0  0
   28.1904   23.8518   55.2724 O   0  0  0  0  0  0  0  0  0  0  0  0
   30.0098   23.9390   54.0285 O   0  0  0  0  0  0  0  0  0  0  0  0
   29.8910   22.3097   55.7599 C   0  0  0  0  0  0  0  0  0  0  0  0
   31.0490   22.4714   56.5092 C   0  0  0  0  0  0  0  0  0  0  0  0
   31.5618   21.4297   57.2612 C   0  0  0  0  0  0  0  0  0  0  0  0
   30.9135   20.2039   57.2769 C   0  0  0  0  0  0  0  0  0  0  0  0
   29.7629   20.0303   56.5213 C   0  0  0  0  0  0  0  0  0  0  0  0
   29.2553   21.0784   55.7770 C   0  0  0  0  0  0  0  0  0  0  0  0
   31.4116   19.1784   58.0298 O   0  0  0  0  0  0  0  0  0  0  0  0
   31.5661   23.4423   56.5048 H   0  0  0  0  0  0  0  0  0  0  0  0
   32.4825   21.5734   57.8457 H   0  0  0  0  0  0  0  0  0  0  0  0
   29.2532   19.0556   56.5146 H   0  0  0  0  0  0  0  0  0  0  0  0
   28.3357   20.9335   55.1912 H   0  0  0  0  0  0  0  0  0  0  0  0
   30.9493   18.3030   58.0415 H   0  0  0  0  0  0  0  0  0  0  0  0
  1  2  2  0
  1  3  1  0
  1  4  1  0
  4  5  2  0
  4  9  1  0
  5  6  1  0
  6  7  2  0
  7  8  1  0
  7 10  1  0
  8  9  2  0
  5 11  1  0
  6 12  1  0
  8 13  1  0
  9 14  1  0
 10 15  1  0
M  CHG  1   3  -1
M  END
>  <filename_input>  (13) 
7CUO_PHB_docked.sdf

>  <pdb_id>  (13) 
7CUO_PHB

>  <pose_rank>  (13) 
12

>  <num_atoms_heavy>  (13) 
10

>  <num_torsions>  (13) 
1

>  <pose>  (13) 
[29.89097621401246, 22.30966372559799, 55.759866172960955, 1.6146581986301194, 0.5573119372645035, -0.1573493061913471, 4.559964901786969]

>  <energy>  (13) 
-136.85964480805026

>  <inter_energy>  (13) 
-103.63312475721095

>  <intra_energy>  (13) 
0.0

>  <rmsd>  (13) 
13.3981

>  <sdf_rank>  (13) 
0

$$$$

     RDKit          3D

 15 15  0  0  0  0  0  0  0  0999 V2000
   29.6546   22.2896   57.4634 C   0  0  0  0  0  0  0  0  0  0  0  0
   29.9166   21.6255   58.4801 O   0  0  0  0  0  0  0  0  0  0  0  0
   29.6124   23.5445   57.4360 O   0  0  0  0  0  0  0  0  0  0  0  0
   29.3274   21.5236   56.2106 C   0  0  0  0  0  0  0  0  0  0  0  0
   29.8736   20.2653   55.9936 C   0  0  0  0  0  0  0  0  0  0  0  0
   29.5609   19.5397   54.8581 C   0  0  0  0  0  0  0  0  0  0  0  0
   28.6860   20.0666   53.9201 C   0  0  0  0  0  0  0  0  0  0  0  0
   28.1456   21.3282   54.1233 C   0  0  0  0  0  0  0  0  0  0  0  0
   28.4600   22.0437   55.2632 C   0  0  0  0  0  0  0  0  0  0  0  0
   28.3660   19.3452   52.8048 O   0  0  0  0  0  0  0  0  0  0  0  0
   30.5650   19.8394   56.7355 H   0  0  0  0  0  0  0  0  0  0  0  0
   30.0057   18.5462   54.6995 H   0  0  0  0  0  0  0  0  0  0  0  0
   27.4649   21.7602   53.3750 H   0  0  0  0  0  0  0  0  0  0  0  0
   28.0164   23.0379   55.4203 H   0  0  0  0  0  0  0  0  0  0  0  0
   27.7414   19.7207   52.1347 H   0  0  0  0  0  0  0  0  0  0  0  0
  1  2  2  0
  1  3  1  0
  1  4  1  0
  4  5  2  0
  4  9  1  0
  5  6  1  0
  6  7  2  0
  7  8  1  0
  7 10  1  0
  8  9  2  0
  5 11  1  0
  6 12  1  0
  8 13  1  0
  9 14  1  0
 10 15  1  0
M  CHG  1   3  -1
M  END
>  <filename_input>  (14) 
7CUO_PHB_docked.sdf

>  <pdb_id>  (14) 
7CUO_PHB

>  <pose_rank>  (14) 
13

>  <num_atoms_heavy>  (14) 
10

>  <num_torsions>  (14) 
1

>  <pose>  (14) 
[29.32739684958827, 21.523648848898063, 56.210645756077106, -2.9796835917357156, 0.2235901475402544, 0.06746228764888733, -0.16797083531740695]

>  <energy>  (14) 
-130.53811501378297

>  <inter_energy>  (14) 
-114.40253925292032

>  <intra_energy>  (14) 
0.0

>  <rmsd>  (14) 
12.9655

>  <sdf_rank>  (14) 
0

$$$$

     RDKit          3D

 15 15  0  0  0  0  0  0  0  0999 V2000
   13.8106    5.3183   55.1186 C   0  0  0  0  0  0  0  0  0  0  0  0
   13.0113    4.3763   55.2498 O   0  0  0  0  0  0  0  0  0  0  0  0
   15.0580    5.1795   55.0733 O   0  0  0  0  0  0  0  0  0  0  0  0
   13.2306    6.7049   55.0571 C   0  0  0  0  0  0  0  0  0  0  0  0
   13.2184    7.5122   56.1871 C   0  0  0  0  0  0  0  0  0  0  0  0
   12.7113    8.7983   56.1379 C   0  0  0  0  0  0  0  0  0  0  0  0
   12.2107    9.2988   54.9455 C   0  0  0  0  0  0  0  0  0  0  0  0
   12.2078    8.4946   53.8149 C   0  0  0  0  0  0  0  0  0  0  0  0
   12.7210    7.2126   53.8726 C   0  0  0  0  0  0  0  0  0  0  0  0
   11.7219   10.5736   54.8924 O   0  0  0  0  0  0  0  0  0  0  0  0
   13.6179    7.1232   57.1353 H   0  0  0  0  0  0  0  0  0  0  0  0
   12.7052    9.4231   57.0432 H   0  0  0  0  0  0  0  0  0  0  0  0
   11.7959    8.8784   52.8699 H   0  0  0  0  0  0  0  0  0  0  0  0
   12.7251    6.5877   52.9673 H   0  0  0  0  0  0  0  0  0  0  0  0
   11.3643   10.9316   54.0415 H   0  0  0  0  0  0  0  0  0  0  0  0
  1  2  2  0
  1  3  1  0
  1  4  1  0
  4  5  2  0
  4  9  1  0
  5  6  1  0
  6  7  2  0
  7  8  1  0
  7 10  1  0
  8  9  2  0
  5 11  1  0
  6 12  1  0
  8 13  1  0
  9 14  1  0
 10 15  1  0
M  CHG  1   3  -1
M  END
>  <filename_input>  (15) 
7CUO_PHB_docked.sdf

>  <pdb_id>  (15) 
7CUO_PHB

>  <pose_rank>  (15) 
14

>  <num_atoms_heavy>  (15) 
10

>  <num_torsions>  (15) 
1

>  <pose>  (15) 
[13.230601230817994, 6.704939358666729, 55.0570696442204, 0.034981030982445, 3.9917621412425808, 1.337325956606784, 2.0699429822856783]

>  <energy>  (15) 
-126.4068399917749

>  <inter_energy>  (15) 
-91.2302417655212

>  <intra_energy>  (15) 
0.0

>  <rmsd>  (15) 
13.5078

>  <sdf_rank>  (15) 
0

$$$$

     RDKit          3D

 15 15  0  0  0  0  0  0  0  0999 V2000
   30.8191   22.4605   58.7354 C   0  0  0  0  0  0  0  0  0  0  0  0
   31.4582   21.4569   59.0930 O   0  0  0  0  0  0  0  0  0  0  0  0
   30.8262   23.5542   59.3526 O   0  0  0  0  0  0  0  0  0  0  0  0
   29.9559   22.3221   57.5112 C   0  0  0  0  0  0  0  0  0  0  0  0
   30.4779   21.7888   56.3399 C   0  0  0  0  0  0  0  0  0  0  0  0
   29.6882   21.6325   55.2149 C   0  0  0  0  0  0  0  0  0  0  0  0
   28.3533   22.0062   55.2499 C   0  0  0  0  0  0  0  0  0  0  0  0
   27.8271   22.5513   56.4122 C   0  0  0  0  0  0  0  0  0  0  0  0
   28.6225   22.6991   57.5328 C   0  0  0  0  0  0  0  0  0  0  0  0
   27.5690   21.8399   54.1436 O   0  0  0  0  0  0  0  0  0  0  0  0
   31.5349   21.4862   56.3063 H   0  0  0  0  0  0  0  0  0  0  0  0
   30.1186   21.2123   54.2939 H   0  0  0  0  0  0  0  0  0  0  0  0
   26.7737   22.8667   56.4420 H   0  0  0  0  0  0  0  0  0  0  0  0
   28.1920   23.1210   58.4529 H   0  0  0  0  0  0  0  0  0  0  0  0
   26.6159   22.1064   54.1679 H   0  0  0  0  0  0  0  0  0  0  0  0
  1  2  2  0
  1  3  1  0
  1  4  1  0
  4  5  2  0
  4  9  1  0
  5  6  1  0
  6  7  2  0
  7  8  1  0
  7 10  1  0
  8  9  2  0
  5 11  1  0
  6 12  1  0
  8 13  1  0
  9 14  1  0
 10 15  1  0
M  CHG  1   3  -1
M  END
>  <filename_input>  (16) 
7CUO_PHB_docked.sdf

>  <pdb_id>  (16) 
7CUO_PHB

>  <pose_rank>  (16) 
15

>  <num_atoms_heavy>  (16) 
10

>  <num_torsions>  (16) 
1

>  <pose>  (16) 
[29.95585982063944, 22.32208638881545, 57.511155412495775, -2.2416057253918162, -0.2863736420539784, 0.8236410566014696, -0.5334135197668167]

>  <energy>  (16) 
-126.27558481161103

>  <inter_energy>  (16) 
-87.86476599317474

>  <intra_energy>  (16) 
0.0

>  <rmsd>  (16) 
13.0822

>  <sdf_rank>  (16) 
0

$$$$

     RDKit          3D

 15 15  0  0  0  0  0  0  0  0999 V2000
   14.0336   19.4053   63.2100 C   0  0  0  0  0  0  0  0  0  0  0  0
   14.3446   20.5389   62.8080 O   0  0  0  0  0  0  0  0  0  0  0  0
   13.9295   18.3999   62.4646 O   0  0  0  0  0  0  0  0  0  0  0  0
   13.7237   19.2595   64.6749 C   0  0  0  0  0  0  0  0  0  0  0  0
   14.7337   18.9628   65.5807 C   0  0  0  0  0  0  0  0  0  0  0  0
   14.4668   18.8512   66.9334 C   0  0  0  0  0  0  0  0  0  0  0  0
   13.1754   19.0420   67.4013 C   0  0  0  0  0  0  0  0  0  0  0  0
   12.1583   19.3265   66.5016 C   0  0  0  0  0  0  0  0  0  0  0  0
   12.4355   19.4409   65.1525 C   0  0  0  0  0  0  0  0  0  0  0  0
   12.9131   18.9452   68.7386 O   0  0  0  0  0  0  0  0  0  0  0  0
   15.7612   18.8144   65.2171 H   0  0  0  0  0  0  0  0  0  0  0  0
   15.2777   18.6114   67.6369 H   0  0  0  0  0  0  0  0  0  0  0  0
   11.1282   19.4615   66.8632 H   0  0  0  0  0  0  0  0  0  0  0  0
   11.6238   19.6789   64.4492 H   0  0  0  0  0  0  0  0  0  0  0  0
   11.9914   19.0814   69.0734 H   0  0  0  0  0  0  0  0  0  0  0  0
  1  2  2  0
  1  3  1  0
  1  4  1  0
  4  5  2  0
  4  9  1  0
  5  6  1  0
  6  7  2  0
  7  8  1  0
  7 10  1  0
  8  9  2  0
  5 11  1  0
  6 12  1  0
  8 13  1  0
  9 14  1  0
 10 15  1  0
M  CHG  1   3  -1
M  END
>  <filename_input>  (17) 
7CUO_PHB_docked.sdf

>  <pdb_id>  (17) 
7CUO_PHB

>  <pose_rank>  (17) 
16

>  <num_atoms_heavy>  (17) 
10

>  <num_torsions>  (17) 
1

>  <pose>  (17) 
[13.723653485293694, 19.259531550756204, 64.6748795824607, -3.2067124942273604, 1.4898424773295034, 3.4082791431595703, 5.06435183243249]

>  <energy>  (17) 
-123.72803669437282

>  <inter_energy>  (17) 
-121.26835273116947

>  <intra_energy>  (17) 
0.0

>  <rmsd>  (17) 
9.94765

>  <sdf_rank>  (17) 
0

$$$$

     RDKit          3D

 15 15  0  0  0  0  0  0  0  0999 V2000
   29.8320   20.5807   55.9721 C   0  0  0  0  0  0  0  0  0  0  0  0
   29.5761   21.1526   54.8994 O   0  0  0  0  0  0  0  0  0  0  0  0
   29.8096   19.3345   56.1262 O   0  0  0  0  0  0  0  0  0  0  0  0
   30.1412   21.4543   57.1571 C   0  0  0  0  0  0  0  0  0  0  0  0
   29.1133   22.0005   57.9147 C   0  0  0  0  0  0  0  0  0  0  0  0
   29.3839   22.7847   59.0217 C   0  0  0  0  0  0  0  0  0  0  0  0
   30.6979   23.0297   59.3908 C   0  0  0  0  0  0  0  0  0  0  0  0
   31.7307   22.4980   58.6322 C   0  0  0  0  0  0  0  0  0  0  0  0
   31.4506   21.7117   57.5306 C   0  0  0  0  0  0  0  0  0  0  0  0
   30.9662   23.7929   60.4918 O   0  0  0  0  0  0  0  0  0  0  0  0
   28.0685   21.8068   57.6302 H   0  0  0  0  0  0  0  0  0  0  0  0
   28.5579   23.2132   59.6084 H   0  0  0  0  0  0  0  0  0  0  0  0
   32.7756   22.7029   58.9083 H   0  0  0  0  0  0  0  0  0  0  0  0
   32.2771   21.2851   56.9433 H   0  0  0  0  0  0  0  0  0  0  0  0
   31.9041   23.9683   60.7559 H   0  0  0  0  0  0  0  0  0  0  0  0
  1  2  2  0
  1  3  1  0
  1  4  1  0
  4  5  2  0
  4  9  1  0
  5  6  1  0
  6  7  2  0
  7  8  1  0
  7 10  1  0
  8  9  2  0
  5 11  1  0
  6 12  1  0
  8 13  1  0
  9 14  1  0
 10 15  1  0
M  CHG  1   3  -1
M  END
>  <filename_input>  (18) 
7CUO_PHB_docked.sdf

>  <pdb_id>  (18) 
7CUO_PHB

>  <pose_rank>  (18) 
17

>  <num_atoms_heavy>  (18) 
10

>  <num_torsions>  (18) 
1

>  <pose>  (18) 
[30.1411950400408, 21.454345735722352, 57.15711896990053, 0.17151117794832, 1.5702525009999175, 1.7128052169859866, 1.7934365762442717]

>  <energy>  (18) 
-123.52386588294289

>  <inter_energy>  (18) 
-113.78165541905395

>  <intra_energy>  (18) 
0.0

>  <rmsd>  (18) 
12.4846

>  <sdf_rank>  (18) 
0

$$$$

     RDKit          3D

 15 15  0  0  0  0  0  0  0  0999 V2000
   12.6878   20.7362   61.5731 C   0  0  0  0  0  0  0  0  0  0  0  0
   13.4733   20.7356   60.6106 O   0  0  0  0  0  0  0  0  0  0  0  0
   11.5746   21.3178   61.5706 O   0  0  0  0  0  0  0  0  0  0  0  0
   13.1360   20.0295   62.8232 C   0  0  0  0  0  0  0  0  0  0  0  0
   14.0824   19.0153   62.7560 C   0  0  0  0  0  0  0  0  0  0  0  0
   14.5220   18.3747   63.9006 C   0  0  0  0  0  0  0  0  0  0  0  0
   14.0194   18.7479   65.1380 C   0  0  0  0  0  0  0  0  0  0  0  0
   13.0646   19.7517   65.2126 C   0  0  0  0  0  0  0  0  0  0  0  0
   12.6351   20.3894   64.0641 C   0  0  0  0  0  0  0  0  0  0  0  0
   14.4627   18.1251   66.2704 O   0  0  0  0  0  0  0  0  0  0  0  0
   14.4885   18.7170   61.7782 H   0  0  0  0  0  0  0  0  0  0  0  0
   15.2690   17.5704   63.8293 H   0  0  0  0  0  0  0  0  0  0  0  0
   12.6481   20.0409   66.1888 H   0  0  0  0  0  0  0  0  0  0  0  0
   11.8866   21.1923   64.1359 H   0  0  0  0  0  0  0  0  0  0  0  0
   14.1044   18.3911   67.1541 H   0  0  0  0  0  0  0  0  0  0  0  0
  1  2  2  0
  1  3  1  0
  1  4  1  0
  4  5  2  0
  4  9  1  0
  5  6  1  0
  6  7  2  0
  7  8  1  0
  7 10  1  0
  8  9  2  0
  5 11  1  0
  6 12  1  0
  8 13  1  0
  9 14  1  0
 10 15  1  0
M  CHG  1   3  -1
M  END
>  <filename_input>  (19) 
7CUO_PHB_docked.sdf

>  <pdb_id>  (19) 
7CUO_PHB

>  <pose_rank>  (19) 
18

>  <num_atoms_heavy>  (19) 
10

>  <num_torsions>  (19) 
1

>  <pose>  (19) 
[13.135987533030068, 20.02946785571083, 62.82317992744903, 0.7240852724474245, 0.12540290327478504, -1.7786158906130853, -0.08344326301596554]

>  <energy>  (19) 
-81.03934824880143

>  <inter_energy>  (19) 
-89.8838762038954

>  <intra_energy>  (19) 
0.0

>  <rmsd>  (19) 
10.2089

>  <sdf_rank>  (19) 
0

$$$$

     RDKit          3D

 15 15  0  0  0  0  0  0  0  0999 V2000
   15.6215   18.9514   69.7769 C   0  0  0  0  0  0  0  0  0  0  0  0
   16.4828   18.0574   69.8261 O   0  0  0  0  0  0  0  0  0  0  0  0
   15.5282   19.8832   70.6137 O   0  0  0  0  0  0  0  0  0  0  0  0
   14.6116   18.8688   68.6651 C   0  0  0  0  0  0  0  0  0  0  0  0
   13.6831   17.8364   68.6345 C   0  0  0  0  0  0  0  0  0  0  0  0
   12.7329   17.7629   67.6319 C   0  0  0  0  0  0  0  0  0  0  0  0
   12.6962   18.7331   66.6418 C   0  0  0  0  0  0  0  0  0  0  0  0
   13.6279   19.7609   66.6581 C   0  0  0  0  0  0  0  0  0  0  0  0
   14.5705   19.8288   67.6665 C   0  0  0  0  0  0  0  0  0  0  0  0
   11.7496   18.6689   65.6586 O   0  0  0  0  0  0  0  0  0  0  0  0
   13.7037   17.0657   69.4191 H   0  0  0  0  0  0  0  0  0  0  0  0
   12.0074   16.9361   67.6201 H   0  0  0  0  0  0  0  0  0  0  0  0
   13.6163   20.5242   65.8660 H   0  0  0  0  0  0  0  0  0  0  0  0
   15.2968   20.6548   67.6767 H   0  0  0  0  0  0  0  0  0  0  0  0
   11.7228   19.3612   64.9514 H   0  0  0  0  0  0  0  0  0  0  0  0
  1  2  2  0
  1  3  1  0
  1  4  1  0
  4  5  2  0
  4  9  1  0
  5  6  1  0
  6  7  2  0
  7  8  1  0
  7 10  1  0
  8  9  2  0
  5 11  1  0
  6 12  1  0
  8 13  1  0
  9 14  1  0
 10 15  1  0
M  CHG  1   3  -1
M  END
>  <filename_input>  (20) 
7CUO_PHB_docked.sdf

>  <pdb_id>  (20) 
7CUO_PHB

>  <pose_rank>  (20) 
19

>  <num_atoms_heavy>  (20) 
10

>  <num_torsions>  (20) 
1

>  <pose>  (20) 
[14.61157676532959, 18.868750025529042, 68.66507022253423, -2.4905096788438463, 1.8712146675035204, 0.0739896397429667, 1.5119617601171678]

>  <energy>  (20) 
-121.94012017032578

>  <inter_energy>  (20) 
-115.49420080501805

>  <intra_energy>  (20) 
0.0

>  <rmsd>  (20) 
10.9841

>  <sdf_rank>  (20) 
0

$$$$

     RDKit          3D

 15 15  0  0  0  0  0  0  0  0999 V2000
   11.9927   10.4454   55.4566 C   0  0  0  0  0  0  0  0  0  0  0  0
   11.5715   11.0561   56.4531 O   0  0  0  0  0  0  0  0  0  0  0  0
   11.8279   10.8337   54.2736 O   0  0  0  0  0  0  0  0  0  0  0  0
   12.7014    9.1413   55.7016 C   0  0  0  0  0  0  0  0  0  0  0  0
   13.2727    8.8737   56.9389 C   0  0  0  0  0  0  0  0  0  0  0  0
   13.9050    7.6684   57.1855 C   0  0  0  0  0  0  0  0  0  0  0  0
   13.9695    6.7052   56.1899 C   0  0  0  0  0  0  0  0  0  0  0  0
   13.4122    6.9694   54.9471 C   0  0  0  0  0  0  0  0  0  0  0  0
   12.7782    8.1747   54.7117 C   0  0  0  0  0  0  0  0  0  0  0  0
   14.5821    5.5091   56.4365 O   0  0  0  0  0  0  0  0  0  0  0  0
   13.2215    9.6315   57.7347 H   0  0  0  0  0  0  0  0  0  0  0  0
   14.3561    7.4741   58.1698 H   0  0  0  0  0  0  0  0  0  0  0  0
   13.4752    6.2174   54.1468 H   0  0  0  0  0  0  0  0  0  0  0  0
   12.3291    8.3690   53.7265 H   0  0  0  0  0  0  0  0  0  0  0  0
   14.6285    4.8210   55.7262 H   0  0  0  0  0  0  0  0  0  0  0  0
  1  2  2  0
  1  3  1  0
  1  4  1  0
  4  5  2  0
  4  9  1  0
  5  6  1  0
  6  7  2  0
  7  8  1  0
  7 10  1  0
  8  9  2  0
  5 11  1  0
  6 12  1  0
  8 13  1  0
  9 14  1  0
 10 15  1  0
M  CHG  1   3  -1
M  END
>  <filename_input>  (21) 
7CUO_PHB_docked.sdf

>  <pdb_id>  (21) 
7CUO_PHB

>  <pose_rank>  (21) 
20

>  <num_atoms_heavy>  (21) 
10

>  <num_torsions>  (21) 
1

>  <pose>  (21) 
[12.70144250988615, 9.14132094044437, 55.701642903847336, 2.080116124510091, 0.4597748117117956, 0.8118733889060294, -0.04484746506591313]

>  <energy>  (21) 
-114.18330025099155

>  <inter_energy>  (21) 
-93.77525595043241

>  <intra_energy>  (21) 
0.0

>  <rmsd>  (21) 
12.8517

>  <sdf_rank>  (21) 
0

$$$$

     RDKit          3D

 15 15  0  0  0  0  0  0  0  0999 V2000
   16.0255   18.3294   53.6257 C   0  0  0  0  0  0  0  0  0  0  0  0
   16.3674   18.7611   52.5121 O   0  0  0  0  0  0  0  0  0  0  0  0
   15.8362   17.1141   53.8798 O   0  0  0  0  0  0  0  0  0  0  0  0
   15.7856   19.3447   54.7095 C   0  0  0  0  0  0  0  0  0  0  0  0
   16.5073   20.5310   54.7332 C   0  0  0  0  0  0  0  0  0  0  0  0
   16.2786   21.4841   55.7094 C   0  0  0  0  0  0  0  0  0  0  0  0
   15.3127   21.2623   56.6793 C   0  0  0  0  0  0  0  0  0  0  0  0
   14.5959   20.0745   56.6701 C   0  0  0  0  0  0  0  0  0  0  0  0
   14.8279   19.1302   55.6879 C   0  0  0  0  0  0  0  0  0  0  0  0
   15.0767   22.2088   57.6360 O   0  0  0  0  0  0  0  0  0  0  0  0
   17.2720   20.7155   53.9644 H   0  0  0  0  0  0  0  0  0  0  0  0
   16.8622   22.4166   55.7162 H   0  0  0  0  0  0  0  0  0  0  0  0
   13.8407   19.8837   57.4467 H   0  0  0  0  0  0  0  0  0  0  0  0
   14.2454   18.1972   55.6828 H   0  0  0  0  0  0  0  0  0  0  0  0
   14.3873   22.0511   58.3288 H   0  0  0  0  0  0  0  0  0  0  0  0
  1  2  2  0
  1  3  1  0
  1  4  1  0
  4  5  2  0
  4  9  1  0
  5  6  1  0
  6  7  2  0
  7  8  1  0
  7 10  1  0
  8  9  2  0
  5 11  1  0
  6 12  1  0
  8 13  1  0
  9 14  1  0
 10 15  1  0
M  CHG  1   3  -1
M  END
>  <filename_input>  (22) 
7CUO_PHB_docked.sdf

>  <pdb_id>  (22) 
7CUO_PHB

>  <pose_rank>  (22) 
21

>  <num_atoms_heavy>  (22) 
10

>  <num_torsions>  (22) 
1

>  <pose>  (22) 
[15.785571836016224, 19.344716801076213, 54.70948150169523, 2.162090990776266, 5.766900628774291, -0.6900813445559807, -0.20609231493467106]

>  <energy>  (22) 
-112.773490734665

>  <inter_energy>  (22) 
-78.77082406880143

>  <intra_energy>  (22) 
0.0

>  <rmsd>  (22) 
10.9002

>  <sdf_rank>  (22) 
0

$$$$

     RDKit          3D

 15 15  0  0  0  0  0  0  0  0999 V2000
   13.2686    5.1959   61.4932 C   0  0  0  0  0  0  0  0  0  0  0  0
   14.2062    5.5664   60.7672 O   0  0  0  0  0  0  0  0  0  0  0  0
   12.2639    4.5679   61.0767 O   0  0  0  0  0  0  0  0  0  0  0  0
   13.3395    5.5716   62.9482 C   0  0  0  0  0  0  0  0  0  0  0  0
   12.9271    6.8289   63.3701 C   0  0  0  0  0  0  0  0  0  0  0  0
   12.9632    7.1781   64.7081 C   0  0  0  0  0  0  0  0  0  0  0  0
   13.4112    6.2637   65.6494 C   0  0  0  0  0  0  0  0  0  0  0  0
   13.8366    5.0099   65.2349 C   0  0  0  0  0  0  0  0  0  0  0  0
   13.7924    4.6683   63.8964 C   0  0  0  0  0  0  0  0  0  0  0  0
   13.4347    6.6029   66.9728 O   0  0  0  0  0  0  0  0  0  0  0  0
   12.5665    7.5577   62.6294 H   0  0  0  0  0  0  0  0  0  0  0  0
   12.6369    8.1797   65.0250 H   0  0  0  0  0  0  0  0  0  0  0  0
   14.2103    4.2856   65.9736 H   0  0  0  0  0  0  0  0  0  0  0  0
   14.1206    3.6672   63.5800 H   0  0  0  0  0  0  0  0  0  0  0  0
   13.7544    5.9506   67.6453 H   0  0  0  0  0  0  0  0  0  0  0  0
  1  2  2  0
  1  3  1  0
  1  4  1  0
  4  5  2  0
  4  9  1  0
  5  6  1  0
  6  7  2  0
  7  8  1  0
  7 10  1  0
  8  9  2  0
  5 11  1  0
  6 12  1  0
  8 13  1  0
  9 14  1  0
 10 15  1  0
M  CHG  1   3  -1
M  END
>  <filename_input>  (23) 
7CUO_PHB_docked.sdf

>  <pdb_id>  (23) 
7CUO_PHB

>  <pose_rank>  (23) 
22

>  <num_atoms_heavy>  (23) 
10

>  <num_torsions>  (23) 
1

>  <pose>  (23) 
[13.339501350496482, 5.571620503896421, 62.94815124198785, -1.6456819855586466, -2.707624069571488, -3.9782622039688005, -4.497348879284148]

>  <energy>  (23) 
-109.79587954574771

>  <inter_energy>  (23) 
-89.6038696940412

>  <intra_energy>  (23) 
0.0

>  <rmsd>  (23) 
12.0164

>  <sdf_rank>  (23) 
0

$$$$

     RDKit          3D

 15 15  0  0  0  0  0  0  0  0999 V2000
   13.3988   18.6960   66.0153 C   0  0  0  0  0  0  0  0  0  0  0  0
   13.9627   17.6041   65.8330 O   0  0  0  0  0  0  0  0  0  0  0  0
   12.3457   19.0490   65.4291 O   0  0  0  0  0  0  0  0  0  0  0  0
   14.0584   19.6568   66.9666 C   0  0  0  0  0  0  0  0  0  0  0  0
   14.4503   20.9168   66.5334 C   0  0  0  0  0  0  0  0  0  0  0  0
   15.0347   21.8191   67.4040 C   0  0  0  0  0  0  0  0  0  0  0  0
   15.2309   21.4707   68.7318 C   0  0  0  0  0  0  0  0  0  0  0  0
   14.8535   20.2095   69.1698 C   0  0  0  0  0  0  0  0  0  0  0  0
   14.2660   19.3164   68.2938 C   0  0  0  0  0  0  0  0  0  0  0  0
   15.7957   22.3660   69.5957 O   0  0  0  0  0  0  0  0  0  0  0  0
   14.2938   21.2014   65.4825 H   0  0  0  0  0  0  0  0  0  0  0  0
   15.3432   22.8115   67.0436 H   0  0  0  0  0  0  0  0  0  0  0  0
   15.0224   19.9195   70.2174 H   0  0  0  0  0  0  0  0  0  0  0  0
   13.9594   18.3235   68.6544 H   0  0  0  0  0  0  0  0  0  0  0  0
   15.9361   22.1179   70.5438 H   0  0  0  0  0  0  0  0  0  0  0  0
  1  2  2  0
  1  3  1  0
  1  4  1  0
  4  5  2  0
  4  9  1  0
  5  6  1  0
  6  7  2  0
  7  8  1  0
  7 10  1  0
  8  9  2  0
  5 11  1  0
  6 12  1  0
  8 13  1  0
  9 14  1  0
 10 15  1  0
M  CHG  1   3  -1
M  END
>  <filename_input>  (24) 
7CUO_PHB_docked.sdf

>  <pdb_id>  (24) 
7CUO_PHB

>  <pose_rank>  (24) 
23

>  <num_atoms_heavy>  (24) 
10

>  <num_torsions>  (24) 
1

>  <pose>  (24) 
[14.0583958579456, 19.656799606027757, 66.96660532794175, -0.32191321105784054, -5.379087213327895, -0.7496916731900146, 8.735220218461466]

>  <energy>  (24) 
-105.36050633899876

>  <inter_energy>  (24) 
-99.29439610829131

>  <intra_energy>  (24) 
0.0

>  <rmsd>  (24) 
10.5543

>  <sdf_rank>  (24) 
0

$$$$

     RDKit          3D

 15 15  0  0  0  0  0  0  0  0999 V2000
   17.0926    5.1472   67.3732 C   0  0  0  0  0  0  0  0  0  0  0  0
   15.8629    4.9797   67.3172 O   0  0  0  0  0  0  0  0  0  0  0  0
   17.8455    5.1635   66.3681 O   0  0  0  0  0  0  0  0  0  0  0  0
   17.7023    5.2927   68.7407 C   0  0  0  0  0  0  0  0  0  0  0  0
   19.0821    5.3268   68.8948 C   0  0  0  0  0  0  0  0  0  0  0  0
   19.6553    5.4857   70.1438 C   0  0  0  0  0  0  0  0  0  0  0  0
   18.8477    5.6191   71.2631 C   0  0  0  0  0  0  0  0  0  0  0  0
   17.4685    5.5737   71.1194 C   0  0  0  0  0  0  0  0  0  0  0  0
   16.9048    5.4195   69.8669 C   0  0  0  0  0  0  0  0  0  0  0  0
   19.4125    5.7896   72.4954 O   0  0  0  0  0  0  0  0  0  0  0  0
   19.7287    5.2259   68.0107 H   0  0  0  0  0  0  0  0  0  0  0  0
   20.7501    5.5063   70.2488 H   0  0  0  0  0  0  0  0  0  0  0  0
   16.8217    5.6608   72.0049 H   0  0  0  0  0  0  0  0  0  0  0  0
   15.8100    5.3971   69.7628 H   0  0  0  0  0  0  0  0  0  0  0  0
   18.8366    5.8848   73.2950 H   0  0  0  0  0  0  0  0  0  0  0  0
  1  2  2  0
  1  3  1  0
  1  4  1  0
  4  5  2  0
  4  9  1  0
  5  6  1  0
  6  7  2  0
  7  8  1  0
  7 10  1  0
  8  9  2  0
  5 11  1  0
  6 12  1  0
  8 13  1  0
  9 14  1  0
 10 15  1  0
M  CHG  1   3  -1
M  END
>  <filename_input>  (25) 
7CUO_PHB_docked.sdf

>  <pdb_id>  (25) 
7CUO_PHB

>  <pose_rank>  (25) 
24

>  <num_atoms_heavy>  (25) 
10

>  <num_torsions>  (25) 
1

>  <pose>  (25) 
[17.70228329320835, 5.292692702127719, 68.74069384102337, -2.147745462991179, -0.57778256023588, 4.737253023860762, -2.9289063099675166]

>  <energy>  (25) 
-99.84398410425344

>  <inter_energy>  (25) 
-79.18491249672267

>  <intra_energy>  (25) 
0.0

>  <rmsd>  (25) 
11.945

>  <sdf_rank>  (25) 
0

$$$$

     RDKit          3D

 15 15  0  0  0  0  0  0  0  0999 V2000
   21.7940   12.8790   60.8840 C   0  0  0  0  0  0  0  0  0  0  0  0
   22.2680   13.3060   59.8180 O   0  0  0  0  0  0  0  0  0  0  0  0
   21.3990   11.6990   61.0540 O   0  0  0  0  0  0  0  0  0  0  0  0
   21.6520   13.8630   62.0130 C   0  0  0  0  0  0  0  0  0  0  0  0
   22.3860   15.0420   62.0140 C   0  0  0  0  0  0  0  0  0  0  0  0
   22.2460   15.9670   63.0330 C   0  0  0  0  0  0  0  0  0  0  0  0
   21.3580   15.7240   64.0700 C   0  0  0  0  0  0  0  0  0  0  0  0
   20.6300   14.5430   64.0830 C   0  0  0  0  0  0  0  0  0  0  0  0
   20.7730   13.6270   63.0580 C   0  0  0  0  0  0  0  0  0  0  0  0
   21.2090   16.6430   65.0700 O   0  0  0  0  0  0  0  0  0  0  0  0
   23.0891   15.2433   61.1923 H   0  0  0  0  0  0  0  0  0  0  0  0
   22.8382   16.8939   63.0207 H   0  0  0  0  0  0  0  0  0  0  0  0
   19.9370   14.3351   64.9115 H   0  0  0  0  0  0  0  0  0  0  0  0
   20.1819   12.6994   63.0719 H   0  0  0  0  0  0  0  0  0  0  0  0
   20.5752   16.4702   65.8107 H   0  0  0  0  0  0  0  0  0  0  0  0
  1  2  2  0
  1  3  1  0
  1  4  1  0
  4  5  2  0
  4  9  1  0
  5  6  1  0
  6  7  2  0
  7  8  1  0
  7 10  1  0
  8  9  2  0
  5 11  1  0
  6 12  1  0
  8 13  1  0
  9 14  1  0
 10 15  1  0
M  CHG  1   3  -1
M  END
>  <filename_input>  (26) 
7CUO_PHB_docked.sdf

>  <pdb_id>  (26) 
7CUO_PHB

>  <pose_rank>  (26) 
25

>  <num_atoms_heavy>  (26) 
10

>  <num_torsions>  (26) 
1

>  <pose>  (26) 
[21.652, 13.863, 62.013, 1e-06, 1e-06, 1e-06, 0.0]

>  <energy>  (26) 
-656.4923988190924

>  <inter_energy>  (26) 
-655.9928383188352

>  <intra_energy>  (26) 
0.0

>  <rmsd>  (26) 
0.0

>  <sdf_rank>  (26) 
0

$$$$
