
     RDKit          3D

 56 58  0  0  0  0  0  0  0  0999 V2000
    9.0351    7.6066   32.5598 N   0  0  0  0  0  0  0  0  0  0  0  0
    7.9738    7.4418   33.3557 C   0  0  0  0  0  0  0  0  0  0  0  0
    7.9347    7.3240   34.6915 N   0  0  0  0  0  0  0  0  0  0  0  0
    9.1652    7.3953   35.2161 C   0  0  0  0  0  0  0  0  0  0  0  0
   10.3536    7.5675   34.5221 C   0  0  0  0  0  0  0  0  0  0  0  0
   10.2627    7.6853   33.1191 C   0  0  0  0  0  0  0  0  0  0  0  0
    9.5127    7.3255   36.5432 N   0  0  0  0  0  0  0  0  0  0  0  0
   10.8776    7.4581   36.5777 C   0  0  0  0  0  0  0  0  0  0  0  0
   11.4316    7.6020   35.3967 N   0  0  0  0  0  0  0  0  0  0  0  0
    8.6111    7.1005   37.6659 C   0  0  1  0  0  0  0  0  0  0  0  0
    8.9439    5.8683   38.5048 C   0  0  1  0  0  0  0  0  0  0  0  0
    8.2037    6.2288   39.7860 C   0  0  1  0  0  0  0  0  0  0  0  0
    8.4857    7.7289   39.9092 C   0  0  2  0  0  0  0  0  0  0  0  0
    8.7084    8.1965   38.5572 O   0  0  0  0  0  0  0  0  0  0  0  0
   11.3121    7.8915   32.3178 N   0  0  0  0  0  0  0  0  0  0  0  0
    9.6727    8.1006   40.7617 C   0  0  0  0  0  0  0  0  0  0  0  0
   10.8548    8.0468   39.9405 O   0  0  0  0  0  0  0  0  0  0  0  0
   12.1175    7.1904   40.3357 P   0  0  2  0  0  0  0  0  0  0  0  0
   12.2128    6.0783   39.3551 O   0  0  0  0  0  0  0  0  0  0  0  0
   11.6920    6.5339   41.7757 O   0  0  0  0  0  0  0  0  0  0  0  0
    8.4587    4.6659   37.9189 O   0  0  0  0  0  0  0  0  0  0  0  0
    6.8081    6.0093   39.6027 O   0  0  0  0  0  0  0  0  0  0  0  0
   13.2913    8.0313   40.6275 O   0  0  0  0  0  0  0  0  0  0  0  0
   11.4277    5.2005   42.1875 C   0  0  0  0  0  0  0  0  0  0  0  0
   10.5425    5.0209   43.4211 C   0  0  1  0  0  0  0  0  0  0  0  0
   11.8807    4.2770   41.5673 O   0  0  0  0  0  0  0  0  0  0  0  0
    9.1424    5.0370   43.0501 N   0  0  0  0  0  0  0  0  0  0  0  0
   10.9765    3.7869   44.2387 C   0  0  2  0  0  0  0  0  0  0  0  0
   10.1415    2.5546   43.8630 C   0  0  0  0  0  0  0  0  0  0  0  0
    9.9549    1.5461   44.9750 C   0  0  0  0  0  0  0  0  0  0  0  0
   10.9083    4.0945   45.7350 C   0  0  0  0  0  0  0  0  0  0  0  0
    7.0001    7.3968   32.8461 H   0  0  0  0  0  0  0  0  0  0  0  0
   11.4567    7.4449   37.5128 H   0  0  0  0  0  0  0  0  0  0  0  0
    7.6158    6.9668   37.2170 H   0  0  0  0  0  0  0  0  0  0  0  0
   10.0178    5.6643   38.6279 H   0  0  0  0  0  0  0  0  0  0  0  0
    8.5102    5.6457   40.6669 H   0  0  0  0  0  0  0  0  0  0  0  0
    7.6281    8.1936   40.4179 H   0  0  0  0  0  0  0  0  0  0  0  0
   12.2597    7.9559   32.7165 H   0  0  0  0  0  0  0  0  0  0  0  0
   11.1734    7.9862   31.3016 H   0  0  0  0  0  0  0  0  0  0  0  0
    9.5416    9.1183   41.1582 H   0  0  0  0  0  0  0  0  0  0  0  0
    9.7661    7.4019   41.6061 H   0  0  0  0  0  0  0  0  0  0  0  0
    8.2023    4.0306   38.6336 H   0  0  0  0  0  0  0  0  0  0  0  0
    6.3662    5.9398   40.4858 H   0  0  0  0  0  0  0  0  0  0  0  0
   10.6778    5.8760   44.0998 H   0  0  0  0  0  0  0  0  0  0  0  0
    8.5619    5.0437   43.9008 H   0  0  0  0  0  0  0  0  0  0  0  0
    8.9446    5.8803   42.4928 H   0  0  0  0  0  0  0  0  0  0  0  0
    8.9253    4.1985   42.4928 H   0  0  0  0  0  0  0  0  0  0  0  0
   12.0220    3.5484   43.9937 H   0  0  0  0  0  0  0  0  0  0  0  0
    9.1467    2.9003   43.5453 H   0  0  0  0  0  0  0  0  0  0  0  0
   10.6980    2.0366   43.0681 H   0  0  0  0  0  0  0  0  0  0  0  0
   10.0483    2.0512   45.9476 H   0  0  0  0  0  0  0  0  0  0  0  0
    8.9572    1.0902   44.8929 H   0  0  0  0  0  0  0  0  0  0  0  0
   10.7235    0.7634   44.8929 H   0  0  0  0  0  0  0  0  0  0  0  0
   11.1116    3.1775   46.3074 H   0  0  0  0  0  0  0  0  0  0  0  0
   11.6589    4.8581   45.9869 H   0  0  0  0  0  0  0  0  0  0  0  0
    9.9052    4.4692   45.9869 H   0  0  0  0  0  0  0  0  0  0  0  0
  1  2  2  0
  1  6  1  0
  2  3  1  0
  3  4  2  0
  4  5  1  0
  4  7  1  0
  5  6  2  0
  5  9  1  0
  6 15  1  0
  7  8  1  0
 10  7  1  0
  8  9  2  0
 10 11  1  0
 10 14  1  0
 11 12  1  0
 11 21  1  0
 12 13  1  0
 12 22  1  0
 13 14  1  0
 13 16  1  0
 16 17  1  0
 17 18  1  0
 18 19  2  0
 18 20  1  0
 18 23  1  1
 20 24  1  0
 24 25  1  0
 24 26  2  0
 25 27  1  0
 25 28  1  0
 28 29  1  0
 28 31  1  0
 29 30  1  0
  2 32  1  0
  8 33  1  0
 10 34  1  6
 11 35  1  1
 12 36  1  1
 13 37  1  1
 15 38  1  0
 15 39  1  0
 16 40  1  0
 16 41  1  0
 21 42  1  0
 22 43  1  0
 25 44  1  1
 27 45  1  0
 27 46  1  0
 27 47  1  0
 28 48  1  6
 29 49  1  0
 29 50  1  0
 30 51  1  0
 30 52  1  0
 30 53  1  0
 31 54  1  0
 31 55  1  0
 31 56  1  0
M  CHG  2  23  -1  27   1
M  END
>  <filename_input>  (1) 
7D5C_GV6_docked.sdf

>  <pdb_id>  (1) 
7D5C_GV6

>  <pose_rank>  (1) 
0

>  <num_atoms_heavy>  (1) 
31

>  <num_torsions>  (1) 
9

>  <pose>  (1) 
[8.611082733628622, 7.100505370973413, 37.66592635041228, -0.08519645856547277, -0.05869508803191687, 0.0808432139639167, 0.07122981189525562, 0.5180266936145668, 0.9611320045703337, -1.3655191761707328, -5.562103135262045, 0.3680111705716671, 1.8368847056104063, -0.7931462098281811, 0.6389697475049899]

>  <energy>  (1) 
-1015.9963138656226

>  <inter_energy>  (1) 
-1049.6286953827182

>  <intra_energy>  (1) 
21.374094819085084

>  <rmsd>  (1) 
1.18344

>  <sdf_rank>  (1) 
0

$$$$

     RDKit          3D

 56 58  0  0  0  0  0  0  0  0999 V2000
    8.4435    7.7577   32.6486 N   0  0  0  0  0  0  0  0  0  0  0  0
    7.4232    7.4959   33.4717 C   0  0  0  0  0  0  0  0  0  0  0  0
    7.4319    7.3662   34.8069 N   0  0  0  0  0  0  0  0  0  0  0  0
    8.6657    7.5410   35.2984 C   0  0  0  0  0  0  0  0  0  0  0  0
    9.8148    7.8207   34.5738 C   0  0  0  0  0  0  0  0  0  0  0  0
    9.6748    7.9395   33.1749 C   0  0  0  0  0  0  0  0  0  0  0  0
    9.0549    7.4930   36.6148 N   0  0  0  0  0  0  0  0  0  0  0  0
   10.4035    7.7438   36.6133 C   0  0  0  0  0  0  0  0  0  0  0  0
   10.9097    7.9433   35.4190 N   0  0  0  0  0  0  0  0  0  0  0  0
    8.2080    7.1828   37.7596 C   0  0  1  0  0  0  0  0  0  0  0  0
    8.4866    5.8247   38.4004 C   0  0  1  0  0  0  0  0  0  0  0  0
    7.8592    6.0586   39.7683 C   0  0  1  0  0  0  0  0  0  0  0  0
    8.2736    7.5016   40.0699 C   0  0  2  0  0  0  0  0  0  0  0  0
    8.4518    8.1341   38.7797 O   0  0  0  0  0  0  0  0  0  0  0  0
   10.6795    8.2417   32.3472 N   0  0  0  0  0  0  0  0  0  0  0  0
    9.5378    7.6612   40.8763 C   0  0  0  0  0  0  0  0  0  0  0  0
    9.6605    6.5271   41.7556 O   0  0  0  0  0  0  0  0  0  0  0  0
   10.9819    5.6735   41.8511 P   0  0  2  0  0  0  0  0  0  0  0  0
   11.2059    5.3786   43.2899 O   0  0  0  0  0  0  0  0  0  0  0  0
   12.1462    6.7278   41.3837 O   0  0  0  0  0  0  0  0  0  0  0  0
    7.8668    4.7551   37.6960 O   0  0  0  0  0  0  0  0  0  0  0  0
    6.4415    5.9721   39.6586 O   0  0  0  0  0  0  0  0  0  0  0  0
   11.0189    4.5911   40.8525 O   0  0  0  0  0  0  0  0  0  0  0  0
   13.2291    6.6263   40.4702 C   0  0  0  0  0  0  0  0  0  0  0  0
   12.9239    6.9211   39.0014 C   0  0  1  0  0  0  0  0  0  0  0  0
   14.3254    6.3344   40.8648 O   0  0  0  0  0  0  0  0  0  0  0  0
   13.5013    8.1892   38.6057 N   0  0  0  0  0  0  0  0  0  0  0  0
   13.3161    5.7287   38.1047 C   0  0  2  0  0  0  0  0  0  0  0  0
   14.0605    6.2040   36.8490 C   0  0  0  0  0  0  0  0  0  0  0  0
   13.6669    5.5012   35.5685 C   0  0  0  0  0  0  0  0  0  0  0  0
   12.0794    4.8976   37.7611 C   0  0  0  0  0  0  0  0  0  0  0  0
    6.4432    7.3695   32.9884 H   0  0  0  0  0  0  0  0  0  0  0  0
   11.0075    7.7750   37.5321 H   0  0  0  0  0  0  0  0  0  0  0  0
    7.1794    7.1879   37.3699 H   0  0  0  0  0  0  0  0  0  0  0  0
    9.5450    5.5255   38.4174 H   0  0  0  0  0  0  0  0  0  0  0  0
    8.1689    5.3375   40.5392 H   0  0  0  0  0  0  0  0  0  0  0  0
    7.4911    7.9543   40.6965 H   0  0  0  0  0  0  0  0  0  0  0  0
   11.6286    8.3858   32.7204 H   0  0  0  0  0  0  0  0  0  0  0  0
   10.5047    8.3307   31.3360 H   0  0  0  0  0  0  0  0  0  0  0  0
   10.4059    7.7046   40.2021 H   0  0  0  0  0  0  0  0  0  0  0  0
    9.4985    8.5917   41.4617 H   0  0  0  0  0  0  0  0  0  0  0  0
    7.4913    4.1072   38.3435 H   0  0  0  0  0  0  0  0  0  0  0  0
    6.0413    5.9477   40.5638 H   0  0  0  0  0  0  0  0  0  0  0  0
   11.8383    7.0361   38.8661 H   0  0  0  0  0  0  0  0  0  0  0  0
   13.7481    8.7312   39.4460 H   0  0  0  0  0  0  0  0  0  0  0  0
   14.3486    8.0205   38.0448 H   0  0  0  0  0  0  0  0  0  0  0  0
   12.8178    8.7175   38.0448 H   0  0  0  0  0  0  0  0  0  0  0  0
   14.0109    5.0808   38.6592 H   0  0  0  0  0  0  0  0  0  0  0  0
   13.8645    7.2790   36.7224 H   0  0  0  0  0  0  0  0  0  0  0  0
   15.1226    5.9703   37.0141 H   0  0  0  0  0  0  0  0  0  0  0  0
   13.1425    4.5650   35.8104 H   0  0  0  0  0  0  0  0  0  0  0  0
   13.0023    6.1527   34.9820 H   0  0  0  0  0  0  0  0  0  0  0  0
   14.5696    5.2750   34.9820 H   0  0  0  0  0  0  0  0  0  0  0  0
   11.5895    4.5683   38.6893 H   0  0  0  0  0  0  0  0  0  0  0  0
   11.3786    5.5087   37.1735 H   0  0  0  0  0  0  0  0  0  0  0  0
   12.3805    4.0178   37.1735 H   0  0  0  0  0  0  0  0  0  0  0  0
  1  2  2  0
  1  6  1  0
  2  3  1  0
  3  4  2  0
  4  5  1  0
  4  7  1  0
  5  6  2  0
  5  9  1  0
  6 15  1  0
  7  8  1  0
 10  7  1  0
  8  9  2  0
 10 11  1  0
 10 14  1  0
 11 12  1  0
 11 21  1  0
 12 13  1  0
 12 22  1  0
 13 14  1  0
 13 16  1  0
 16 17  1  0
 17 18  1  0
 18 19  2  0
 18 20  1  0
 18 23  1  6
 20 24  1  0
 24 25  1  0
 24 26  2  0
 25 27  1  0
 25 28  1  0
 28 29  1  0
 28 31  1  0
 29 30  1  0
  2 32  1  0
  8 33  1  0
 10 34  1  6
 11 35  1  1
 12 36  1  1
 13 37  1  1
 15 38  1  0
 15 39  1  0
 16 40  1  0
 16 41  1  0
 21 42  1  0
 22 43  1  0
 25 44  1  1
 27 45  1  0
 27 46  1  0
 27 47  1  0
 28 48  1  1
 29 49  1  0
 29 50  1  0
 30 51  1  0
 30 52  1  0
 30 53  1  0
 31 54  1  0
 31 55  1  0
 31 56  1  0
M  CHG  2  23  -1  27   1
M  END
>  <filename_input>  (2) 
7D5C_GV6_docked.sdf

>  <pdb_id>  (2) 
7D5C_GV6

>  <pose_rank>  (2) 
1

>  <num_atoms_heavy>  (2) 
31

>  <num_torsions>  (2) 
9

>  <pose>  (2) 
[8.208015082486241, 7.182839416800263, 37.759621727314475, -6.185515309696677, -0.7491488998945381, 0.06008653884449321, -0.14354830374910144, 4.769769619801185, -0.8652870076289964, -0.9023920296322102, 2.7215351056382637, 4.588759029854325, 2.227623324633891, -1.489557403248081, 0.8495105839755389]

>  <energy>  (2) 
-1021.334339106738

>  <inter_energy>  (2) 
-1031.424716514877

>  <intra_energy>  (2) 
9.110466262572935

>  <rmsd>  (2) 
3.63941

>  <sdf_rank>  (2) 
0

$$$$

     RDKit          3D

 56 58  0  0  0  0  0  0  0  0999 V2000
    9.0437    7.7203   32.3722 N   0  0  0  0  0  0  0  0  0  0  0  0
    7.9170    7.4085   33.0205 C   0  0  0  0  0  0  0  0  0  0  0  0
    7.6980    7.3425   34.3423 N   0  0  0  0  0  0  0  0  0  0  0  0
    8.8071    7.6479   35.0286 C   0  0  0  0  0  0  0  0  0  0  0  0
   10.0414    7.9935   34.4985 C   0  0  0  0  0  0  0  0  0  0  0  0
   10.1436    8.0340   33.0919 C   0  0  0  0  0  0  0  0  0  0  0  0
    8.9585    7.6958   36.3931 N   0  0  0  0  0  0  0  0  0  0  0  0
   10.2620    8.0639   36.6100 C   0  0  0  0  0  0  0  0  0  0  0  0
   10.9554    8.2512   35.5115 N   0  0  0  0  0  0  0  0  0  0  0  0
    7.9484    7.3662   37.3905 C   0  0  1  0  0  0  0  0  0  0  0  0
    8.1090    5.9825   38.0172 C   0  0  1  0  0  0  0  0  0  0  0  0
    7.2918    6.1848   39.2863 C   0  0  1  0  0  0  0  0  0  0  0  0
    7.6799    7.6086   39.6954 C   0  0  2  0  0  0  0  0  0  0  0  0
    8.0548    8.2788   38.4680 O   0  0  0  0  0  0  0  0  0  0  0  0
   11.2527    8.3845   32.4339 N   0  0  0  0  0  0  0  0  0  0  0  0
    8.8146    7.7161   40.6827 C   0  0  0  0  0  0  0  0  0  0  0  0
    9.3469    6.3966   40.9065 O   0  0  0  0  0  0  0  0  0  0  0  0
    9.1089    5.6084   42.2504 P   0  0  2  0  0  0  0  0  0  0  0  0
    9.1559    6.6037   43.3524 O   0  0  0  0  0  0  0  0  0  0  0  0
   10.4488    4.6739   42.3816 O   0  0  0  0  0  0  0  0  0  0  0  0
    7.5825    4.9493   37.1928 O   0  0  0  0  0  0  0  0  0  0  0  0
    5.9042    6.1310   38.9680 O   0  0  0  0  0  0  0  0  0  0  0  0
    7.9863    4.6600   42.1482 O   0  0  0  0  0  0  0  0  0  0  0  0
   11.8358    4.9768   42.4233 C   0  0  0  0  0  0  0  0  0  0  0  0
   12.6410    4.7050   41.1524 C   0  0  1  0  0  0  0  0  0  0  0  0
   12.3226    5.4375   43.4202 O   0  0  0  0  0  0  0  0  0  0  0  0
   12.5126    3.3181   40.7549 N   0  0  0  0  0  0  0  0  0  0  0  0
   12.2932    5.7247   40.0484 C   0  0  2  0  0  0  0  0  0  0  0  0
   12.6395    5.1726   38.6584 C   0  0  0  0  0  0  0  0  0  0  0  0
   11.4888    5.1452   37.6769 C   0  0  0  0  0  0  0  0  0  0  0  0
   12.9846    7.0599   40.3264 C   0  0  0  0  0  0  0  0  0  0  0  0
    7.0515    7.1740   32.3833 H   0  0  0  0  0  0  0  0  0  0  0  0
   10.6886    8.1910   37.6159 H   0  0  0  0  0  0  0  0  0  0  0  0
    6.9881    7.4049   36.8554 H   0  0  0  0  0  0  0  0  0  0  0  0
    9.1487    5.6614   38.1778 H   0  0  0  0  0  0  0  0  0  0  0  0
    7.4740    5.4330   40.0683 H   0  0  0  0  0  0  0  0  0  0  0  0
    6.8212    8.0567   40.2167 H   0  0  0  0  0  0  0  0  0  0  0  0
   12.1060    8.6287   32.9565 H   0  0  0  0  0  0  0  0  0  0  0  0
   11.2542    8.4104   31.4043 H   0  0  0  0  0  0  0  0  0  0  0  0
    9.6003    8.3699   40.2763 H   0  0  0  0  0  0  0  0  0  0  0  0
    8.4536    8.1443   41.6294 H   0  0  0  0  0  0  0  0  0  0  0  0
    7.2149    4.2278   37.7624 H   0  0  0  0  0  0  0  0  0  0  0  0
    5.3744    6.1105   39.8040 H   0  0  0  0  0  0  0  0  0  0  0  0
   13.7116    4.8561   41.3547 H   0  0  0  0  0  0  0  0  0  0  0  0
   12.4576    2.7240   41.5945 H   0  0  0  0  0  0  0  0  0  0  0  0
   11.6570    3.1995   40.1938 H   0  0  0  0  0  0  0  0  0  0  0  0
   13.3318    3.0445   40.1938 H   0  0  0  0  0  0  0  0  0  0  0  0
   11.2076    5.9020   40.0578 H   0  0  0  0  0  0  0  0  0  0  0  0
   13.4373    5.7983   38.2316 H   0  0  0  0  0  0  0  0  0  0  0  0
   12.9399    4.1253   38.8095 H   0  0  0  0  0  0  0  0  0  0  0  0
   10.5371    5.1225   38.2281 H   0  0  0  0  0  0  0  0  0  0  0  0
   11.5248    6.0445   37.0444 H   0  0  0  0  0  0  0  0  0  0  0  0
   11.5676    4.2487   37.0444 H   0  0  0  0  0  0  0  0  0  0  0  0
   13.0637    7.2127   41.4129 H   0  0  0  0  0  0  0  0  0  0  0  0
   13.9913    7.0509   39.8832 H   0  0  0  0  0  0  0  0  0  0  0  0
   12.3962    7.8768   39.8832 H   0  0  0  0  0  0  0  0  0  0  0  0
  1  2  2  0
  1  6  1  0
  2  3  1  0
  3  4  2  0
  4  5  1  0
  4  7  1  0
  5  6  2  0
  5  9  1  0
  6 15  1  0
  7  8  1  0
 10  7  1  0
  8  9  2  0
 10 11  1  0
 10 14  1  0
 11 12  1  0
 11 21  1  0
 12 13  1  0
 12 22  1  0
 13 14  1  0
 13 16  1  0
 16 17  1  0
 17 18  1  0
 18 19  2  0
 18 20  1  0
 18 23  1  6
 20 24  1  0
 24 25  1  0
 24 26  2  0
 25 27  1  0
 25 28  1  0
 28 29  1  0
 28 31  1  0
 29 30  1  0
  2 32  1  0
  8 33  1  0
 10 34  1  6
 11 35  1  1
 12 36  1  1
 13 37  1  1
 15 38  1  0
 15 39  1  0
 16 40  1  0
 16 41  1  0
 21 42  1  0
 22 43  1  0
 25 44  1  1
 27 45  1  0
 27 46  1  0
 27 47  1  0
 28 48  1  6
 29 49  1  0
 29 50  1  0
 30 51  1  0
 30 52  1  0
 30 53  1  0
 31 54  1  0
 31 55  1  0
 31 56  1  0
M  CHG  2  23  -1  27   1
M  END
>  <filename_input>  (3) 
7D5C_GV6_docked.sdf

>  <pdb_id>  (3) 
7D5C_GV6

>  <pose_rank>  (3) 
2

>  <num_atoms_heavy>  (3) 
31

>  <num_torsions>  (3) 
9

>  <pose>  (3) 
[7.948366515391004, 7.3661883129915315, 37.39054796686977, -3.1648486985056277, 5.207282816968406, 0.5421513375270518, -0.28147615558698325, -0.880694945359947, 1.282774634643058, 2.3160832259976583, -0.24760788426909972, 1.280150894739157, -0.6480326841207145, -1.881148480859467, -0.8540816169798343]

>  <energy>  (3) 
-962.964663686578

>  <inter_energy>  (3) 
-987.0745138156836

>  <intra_energy>  (3) 
30.65190740452989

>  <rmsd>  (3) 
2.93838

>  <sdf_rank>  (3) 
0

$$$$

     RDKit          3D

 56 58  0  0  0  0  0  0  0  0999 V2000
    9.0622    7.5435   32.5116 N   0  0  0  0  0  0  0  0  0  0  0  0
    8.2038    7.2090   33.4802 C   0  0  0  0  0  0  0  0  0  0  0  0
    8.4269    7.0916   34.7978 N   0  0  0  0  0  0  0  0  0  0  0  0
    9.7037    7.3670   35.0952 C   0  0  0  0  0  0  0  0  0  0  0  0
   10.7027    7.7302   34.2042 C   0  0  0  0  0  0  0  0  0  0  0  0
   10.3413    7.8258   32.8437 C   0  0  0  0  0  0  0  0  0  0  0  0
   10.2924    7.3607   36.3362 N   0  0  0  0  0  0  0  0  0  0  0  0
   11.6008    7.7168   36.1291 C   0  0  0  0  0  0  0  0  0  0  0  0
   11.9008    7.9455   34.8721 N   0  0  0  0  0  0  0  0  0  0  0  0
    9.6578    6.9945   37.5961 C   0  0  1  0  0  0  0  0  0  0  0  0
    8.9960    5.6180   37.5920 C   0  0  1  0  0  0  0  0  0  0  0  0
    8.9296    5.3663   39.0925 C   0  0  1  0  0  0  0  0  0  0  0  0
   10.2760    5.9172   39.5710 C   0  0  2  0  0  0  0  0  0  0  0  0
   10.6489    6.9294   38.6053 O   0  0  0  0  0  0  0  0  0  0  0  0
   11.1804    8.1992   31.8730 N   0  0  0  0  0  0  0  0  0  0  0  0
   11.3903    4.9073   39.6825 C   0  0  0  0  0  0  0  0  0  0  0  0
   11.8641    4.9038   41.0426 O   0  0  0  0  0  0  0  0  0  0  0  0
   11.0955    4.1617   42.2012 P   0  0  2  0  0  0  0  0  0  0  0  0
   10.8932    2.7578   41.7592 O   0  0  0  0  0  0  0  0  0  0  0  0
    9.6261    4.8873   42.2038 O   0  0  0  0  0  0  0  0  0  0  0  0
    7.7077    5.6373   36.9885 O   0  0  0  0  0  0  0  0  0  0  0  0
    7.8648    6.1293   39.6526 O   0  0  0  0  0  0  0  0  0  0  0  0
   11.6707    4.4518   43.5260 O   0  0  0  0  0  0  0  0  0  0  0  0
    8.9327    5.6583   43.1744 C   0  0  0  0  0  0  0  0  0  0  0  0
    9.2128    7.1612   43.1917 C   0  0  1  0  0  0  0  0  0  0  0  0
    8.1578    5.1286   43.9239 O   0  0  0  0  0  0  0  0  0  0  0  0
   10.5820    7.4287   42.8022 N   0  0  0  0  0  0  0  0  0  0  0  0
    8.1515    7.9313   42.3792 C   0  0  2  0  0  0  0  0  0  0  0  0
    8.7773    9.1268   41.6470 C   0  0  0  0  0  0  0  0  0  0  0  0
    8.1135   10.4593   41.9156 C   0  0  0  0  0  0  0  0  0  0  0  0
    6.9953    8.3528   43.2868 C   0  0  0  0  0  0  0  0  0  0  0  0
    7.1745    7.0019   33.1523 H   0  0  0  0  0  0  0  0  0  0  0  0
   12.3339    7.8031   36.9446 H   0  0  0  0  0  0  0  0  0  0  0  0
    8.8859    7.7597   37.7659 H   0  0  0  0  0  0  0  0  0  0  0  0
    9.5260    4.8477   37.0126 H   0  0  0  0  0  0  0  0  0  0  0  0
    8.7560    4.3161   39.3696 H   0  0  0  0  0  0  0  0  0  0  0  0
   10.1430    6.2913   40.5969 H   0  0  0  0  0  0  0  0  0  0  0  0
   12.1611    8.4206   32.0969 H   0  0  0  0  0  0  0  0  0  0  0  0
   10.8465    8.2657   30.9009 H   0  0  0  0  0  0  0  0  0  0  0  0
   11.0145    3.9082   39.4171 H   0  0  0  0  0  0  0  0  0  0  0  0
   12.2094    5.1701   38.9969 H   0  0  0  0  0  0  0  0  0  0  0  0
    7.0130    5.6477   37.6937 H   0  0  0  0  0  0  0  0  0  0  0  0
    7.9164    6.0923   40.6405 H   0  0  0  0  0  0  0  0  0  0  0  0
    9.1186    7.5422   44.2193 H   0  0  0  0  0  0  0  0  0  0  0  0
   11.1629    7.5422   43.6452 H   0  0  0  0  0  0  0  0  0  0  0  0
   10.9397    6.6417   42.2422 H   0  0  0  0  0  0  0  0  0  0  0  0
   10.6172    8.2925   42.2422 H   0  0  0  0  0  0  0  0  0  0  0  0
    7.7432    7.2640   41.6058 H   0  0  0  0  0  0  0  0  0  0  0  0
    9.8307    9.2020   41.9548 H   0  0  0  0  0  0  0  0  0  0  0  0
    8.6495    8.9305   40.5723 H   0  0  0  0  0  0  0  0  0  0  0  0
    8.0347   10.6174   43.0013 H   0  0  0  0  0  0  0  0  0  0  0  0
    8.7154   11.2651   41.4704 H   0  0  0  0  0  0  0  0  0  0  0  0
    7.1076   10.4641   41.4704 H   0  0  0  0  0  0  0  0  0  0  0  0
    7.2965    8.2430   44.3391 H   0  0  0  0  0  0  0  0  0  0  0  0
    6.7365    9.4031   43.0872 H   0  0  0  0  0  0  0  0  0  0  0  0
    6.1213    7.7155   43.0872 H   0  0  0  0  0  0  0  0  0  0  0  0
  1  2  2  0
  1  6  1  0
  2  3  1  0
  3  4  2  0
  4  5  1  0
  4  7  1  0
  5  6  2  0
  5  9  1  0
  6 15  1  0
  7  8  1  0
 10  7  1  0
  8  9  2  0
 10 11  1  0
 10 14  1  0
 11 12  1  0
 11 21  1  0
 12 13  1  0
 12 22  1  0
 13 14  1  0
 13 16  1  0
 16 17  1  0
 17 18  1  0
 18 19  2  0
 18 20  1  0
 18 23  1  1
 20 24  1  0
 24 25  1  0
 24 26  2  0
 25 27  1  0
 25 28  1  0
 28 29  1  0
 28 31  1  0
 29 30  1  0
  2 32  1  0
  8 33  1  0
 10 34  1  1
 11 35  1  6
 12 36  1  6
 13 37  1  1
 15 38  1  0
 15 39  1  0
 16 40  1  0
 16 41  1  0
 21 42  1  0
 22 43  1  0
 25 44  1  1
 27 45  1  0
 27 46  1  0
 27 47  1  0
 28 48  1  6
 29 49  1  0
 29 50  1  0
 30 51  1  0
 30 52  1  0
 30 53  1  0
 31 54  1  0
 31 55  1  0
 31 56  1  0
M  CHG  2  23  -1  27   1
M  END
>  <filename_input>  (4) 
7D5C_GV6_docked.sdf

>  <pdb_id>  (4) 
7D5C_GV6

>  <pose_rank>  (4) 
3

>  <num_atoms_heavy>  (4) 
31

>  <num_torsions>  (4) 
9

>  <pose>  (4) 
[9.657781848372238, 6.994515893973132, 37.59609892207105, 0.538608555156175, 0.3540876066912091, -0.7310714518735636, -19.953848467676227, -9.378193917756317, -20.60305716947973, -21.2322354690467, -15.863988099566342, 4.6112856745474815, -6.508694371767919, -1.6425815663765742, 1.068350096995189]

>  <energy>  (4) 
-828.4174874465389

>  <inter_energy>  (4) 
-875.7478610576668

>  <intra_energy>  (4) 
63.15897104551459

>  <rmsd>  (4) 
3.17961

>  <sdf_rank>  (4) 
0

$$$$

     RDKit          3D

 56 58  0  0  0  0  0  0  0  0999 V2000
    9.7257    3.0679   45.5379 N   0  0  0  0  0  0  0  0  0  0  0  0
    8.7362    3.8914   45.1780 C   0  0  0  0  0  0  0  0  0  0  0  0
    8.5785    4.5644   44.0284 N   0  0  0  0  0  0  0  0  0  0  0  0
    9.5898    4.3183   43.1852 C   0  0  0  0  0  0  0  0  0  0  0  0
   10.6778    3.4893   43.4150 C   0  0  0  0  0  0  0  0  0  0  0  0
   10.7270    2.8309   44.6619 C   0  0  0  0  0  0  0  0  0  0  0  0
    9.7615    4.8195   41.9178 N   0  0  0  0  0  0  0  0  0  0  0  0
   10.9314    4.2715   41.4564 C   0  0  0  0  0  0  0  0  0  0  0  0
   11.5221    3.4714   42.3128 N   0  0  0  0  0  0  0  0  0  0  0  0
    8.8988    5.7784   41.2393 C   0  0  1  0  0  0  0  0  0  0  0  0
    9.6460    6.8348   40.4279 C   0  0  1  0  0  0  0  0  0  0  0  0
    8.5233    7.2797   39.4999 C   0  0  1  0  0  0  0  0  0  0  0  0
    7.8325    5.9531   39.1716 C   0  0  2  0  0  0  0  0  0  0  0  0
    8.0950    5.0863   40.3012 O   0  0  0  0  0  0  0  0  0  0  0  0
   11.6893    1.9740   45.0160 N   0  0  0  0  0  0  0  0  0  0  0  0
    8.2969    5.2720   37.9088 C   0  0  0  0  0  0  0  0  0  0  0  0
    7.4823    5.7387   36.8166 O   0  0  0  0  0  0  0  0  0  0  0  0
    7.9713    6.8549   35.8171 P   0  0  2  0  0  0  0  0  0  0  0  0
    7.5142    6.4549   34.4612 O   0  0  0  0  0  0  0  0  0  0  0  0
    9.6023    6.6986   35.8463 O   0  0  0  0  0  0  0  0  0  0  0  0
   10.1320    7.8982   41.2387 O   0  0  0  0  0  0  0  0  0  0  0  0
    7.6302    8.1301   40.2133 O   0  0  0  0  0  0  0  0  0  0  0  0
    7.7051    8.2120   36.3247 O   0  0  0  0  0  0  0  0  0  0  0  0
   10.6580    7.5096   35.3512 C   0  0  0  0  0  0  0  0  0  0  0  0
   11.0403    7.3255   33.8824 C   0  0  1  0  0  0  0  0  0  0  0  0
   11.1971    8.3043   36.0729 O   0  0  0  0  0  0  0  0  0  0  0  0
   10.3501    8.2906   33.0516 N   0  0  0  0  0  0  0  0  0  0  0  0
   12.5729    7.3067   33.7077 C   0  0  2  0  0  0  0  0  0  0  0  0
   12.9643    7.5509   32.2435 C   0  0  0  0  0  0  0  0  0  0  0  0
   13.3006    6.3042   31.4555 C   0  0  0  0  0  0  0  0  0  0  0  0
   13.1496    5.9973   34.2473 C   0  0  0  0  0  0  0  0  0  0  0  0
    7.9432    4.0369   45.9264 H   0  0  0  0  0  0  0  0  0  0  0  0
   11.3384    4.4839   40.4569 H   0  0  0  0  0  0  0  0  0  0  0  0
    8.3342    6.2786   42.0400 H   0  0  0  0  0  0  0  0  0  0  0  0
   10.5553    6.4774   39.9224 H   0  0  0  0  0  0  0  0  0  0  0  0
    8.8609    7.8359   38.6130 H   0  0  0  0  0  0  0  0  0  0  0  0
    6.7672    6.1614   38.9934 H   0  0  0  0  0  0  0  0  0  0  0  0
   12.4649    1.7742   44.3684 H   0  0  0  0  0  0  0  0  0  0  0  0
   11.6555    1.5133   45.9366 H   0  0  0  0  0  0  0  0  0  0  0  0
    9.3515    5.5204   37.7187 H   0  0  0  0  0  0  0  0  0  0  0  0
    8.2041    4.1807   38.0111 H   0  0  0  0  0  0  0  0  0  0  0  0
   10.0236    7.6610   42.1938 H   0  0  0  0  0  0  0  0  0  0  0  0
    7.7618    8.0048   41.1865 H   0  0  0  0  0  0  0  0  0  0  0  0
   10.7003    6.3392   33.5337 H   0  0  0  0  0  0  0  0  0  0  0  0
    9.8625    8.9724   33.6501 H   0  0  0  0  0  0  0  0  0  0  0  0
   11.0326    8.7820   32.4569 H   0  0  0  0  0  0  0  0  0  0  0  0
    9.6645    7.8036   32.4569 H   0  0  0  0  0  0  0  0  0  0  0  0
   13.0073    8.1300   34.2938 H   0  0  0  0  0  0  0  0  0  0  0  0
   12.1226    8.0534   31.7444 H   0  0  0  0  0  0  0  0  0  0  0  0
   13.8822    8.1566   32.2674 H   0  0  0  0  0  0  0  0  0  0  0  0
   13.5228    5.4804   32.1498 H   0  0  0  0  0  0  0  0  0  0  0  0
   12.4446    6.0289   30.8218 H   0  0  0  0  0  0  0  0  0  0  0  0
   14.1789    6.4967   30.8218 H   0  0  0  0  0  0  0  0  0  0  0  0
   13.1403    6.0183   35.3471 H   0  0  0  0  0  0  0  0  0  0  0  0
   12.5396    5.1539   33.8915 H   0  0  0  0  0  0  0  0  0  0  0  0
   14.1836    5.8779   33.8915 H   0  0  0  0  0  0  0  0  0  0  0  0
  1  2  2  0
  1  6  1  0
  2  3  1  0
  3  4  2  0
  4  5  1  0
  4  7  1  0
  5  6  2  0
  5  9  1  0
  6 15  1  0
  7  8  1  0
 10  7  1  0
  8  9  2  0
 10 11  1  0
 10 14  1  0
 11 12  1  0
 11 21  1  0
 12 13  1  0
 12 22  1  0
 13 14  1  0
 13 16  1  0
 16 17  1  0
 17 18  1  0
 18 19  2  0
 18 20  1  0
 18 23  1  1
 20 24  1  0
 24 25  1  0
 24 26  2  0
 25 27  1  0
 25 28  1  0
 28 29  1  0
 28 31  1  0
 29 30  1  0
  2 32  1  0
  8 33  1  0
 10 34  1  1
 11 35  1  6
 12 36  1  6
 13 37  1  6
 15 38  1  0
 15 39  1  0
 16 40  1  0
 16 41  1  0
 21 42  1  0
 22 43  1  0
 25 44  1  6
 27 45  1  0
 27 46  1  0
 27 47  1  0
 28 48  1  1
 29 49  1  0
 29 50  1  0
 30 51  1  0
 30 52  1  0
 30 53  1  0
 31 54  1  0
 31 55  1  0
 31 56  1  0
M  CHG  2  23  -1  27   1
M  END
>  <filename_input>  (5) 
7D5C_GV6_docked.sdf

>  <pdb_id>  (5) 
7D5C_GV6

>  <pose_rank>  (5) 
4

>  <num_atoms_heavy>  (5) 
31

>  <num_torsions>  (5) 
9

>  <pose>  (5) 
[8.898786861913996, 5.778377237501089, 41.23934663384109, 2.9961095652655847, -1.0458310806084874, -0.7047995208117851, 0.3907729069439184, 3.7368703704086705, -1.3804789950120113, -0.8671806650595417, -4.188682308389643, 1.6221280031537757, 1.9939295708416447, -1.9678994247321357, -4.7518045054172315]

>  <energy>  (5) 
-870.9303182209384

>  <inter_energy>  (5) 
-861.0815461605216

>  <intra_energy>  (5) 
3.141661691579549

>  <rmsd>  (5) 
8.69622

>  <sdf_rank>  (5) 
0

$$$$

     RDKit          3D

 56 58  0  0  0  0  0  0  0  0999 V2000
    8.5128    7.7746   32.6325 N   0  0  0  0  0  0  0  0  0  0  0  0
    7.5407    7.4123   33.4756 C   0  0  0  0  0  0  0  0  0  0  0  0
    7.6146    7.1823   34.7952 N   0  0  0  0  0  0  0  0  0  0  0  0
    8.8626    7.3663   35.2457 C   0  0  0  0  0  0  0  0  0  0  0  0
    9.9672    7.7438   34.4965 C   0  0  0  0  0  0  0  0  0  0  0  0
    9.7597    7.9628   33.1183 C   0  0  0  0  0  0  0  0  0  0  0  0
    9.3128    7.2335   36.5366 N   0  0  0  0  0  0  0  0  0  0  0  0
   10.6504    7.5351   36.4970 C   0  0  0  0  0  0  0  0  0  0  0  0
   11.0944    7.8437   35.3012 N   0  0  0  0  0  0  0  0  0  0  0  0
    8.5301    6.8055   37.6891 C   0  0  1  0  0  0  0  0  0  0  0  0
    9.3620    6.2668   38.8513 C   0  0  1  0  0  0  0  0  0  0  0  0
    8.3497    6.4223   39.9785 C   0  0  1  0  0  0  0  0  0  0  0  0
    7.7020    7.7694   39.6457 C   0  0  2  0  0  0  0  0  0  0  0  0
    7.8376    7.9241   38.2125 O   0  0  0  0  0  0  0  0  0  0  0  0
   10.7145    8.3650   32.2743 N   0  0  0  0  0  0  0  0  0  0  0  0
    8.3060    8.9694   40.3307 C   0  0  0  0  0  0  0  0  0  0  0  0
    7.8163    9.0124   41.6845 O   0  0  0  0  0  0  0  0  0  0  0  0
    6.8152   10.1225   42.1840 P   0  0  2  0  0  0  0  0  0  0  0  0
    5.7082   10.1863   41.1953 O   0  0  0  0  0  0  0  0  0  0  0  0
    7.6812   11.5057   42.0346 O   0  0  0  0  0  0  0  0  0  0  0  0
    9.7525    4.9125   38.6570 O   0  0  0  0  0  0  0  0  0  0  0  0
    7.3811    5.3814   39.8901 O   0  0  0  0  0  0  0  0  0  0  0  0
    6.5249   10.0033   43.6233 O   0  0  0  0  0  0  0  0  0  0  0  0
    7.3088   12.8749   41.9715 C   0  0  0  0  0  0  0  0  0  0  0  0
    6.4492   13.4106   43.1168 C   0  0  1  0  0  0  0  0  0  0  0  0
    7.6788   13.5588   41.0560 O   0  0  0  0  0  0  0  0  0  0  0  0
    7.2714   14.0927   44.0949 N   0  0  0  0  0  0  0  0  0  0  0  0
    5.2668   14.2426   42.5789 C   0  0  2  0  0  0  0  0  0  0  0  0
    5.5404   15.7465   42.7212 C   0  0  0  0  0  0  0  0  0  0  0  0
    5.1997   16.5761   41.5029 C   0  0  0  0  0  0  0  0  0  0  0  0
    3.9692   13.8252   43.2718 C   0  0  0  0  0  0  0  0  0  0  0  0
    6.5448    7.2856   33.0263 H   0  0  0  0  0  0  0  0  0  0  0  0
   11.2941    7.5196   37.3888 H   0  0  0  0  0  0  0  0  0  0  0  0
    7.8786    6.0017   37.3155 H   0  0  0  0  0  0  0  0  0  0  0  0
   10.3227    6.7776   39.0130 H   0  0  0  0  0  0  0  0  0  0  0  0
    8.7838    6.3758   40.9881 H   0  0  0  0  0  0  0  0  0  0  0  0
    6.6631    7.7435   40.0062 H   0  0  0  0  0  0  0  0  0  0  0  0
   11.6741    8.5165   32.6167 H   0  0  0  0  0  0  0  0  0  0  0  0
   10.4910    8.5236   31.2815 H   0  0  0  0  0  0  0  0  0  0  0  0
    9.4025    8.8825   40.3346 H   0  0  0  0  0  0  0  0  0  0  0  0
    8.0266    9.8902   39.7976 H   0  0  0  0  0  0  0  0  0  0  0  0
    9.8784    4.4759   39.5365 H   0  0  0  0  0  0  0  0  0  0  0  0
    7.1173    5.0979   40.8012 H   0  0  0  0  0  0  0  0  0  0  0  0
    5.9864   12.5702   43.6549 H   0  0  0  0  0  0  0  0  0  0  0  0
    6.9616   13.8357   45.0430 H   0  0  0  0  0  0  0  0  0  0  0  0
    8.2556   13.8165   43.9686 H   0  0  0  0  0  0  0  0  0  0  0  0
    7.1817   15.1110   43.9686 H   0  0  0  0  0  0  0  0  0  0  0  0
    5.1513   14.0416   41.5036 H   0  0  0  0  0  0  0  0  0  0  0  0
    4.9468   16.1229   43.5673 H   0  0  0  0  0  0  0  0  0  0  0  0
    6.6256   15.8491   42.8694 H   0  0  0  0  0  0  0  0  0  0  0  0
    4.7997   17.5497   41.8225 H   0  0  0  0  0  0  0  0  0  0  0  0
    6.1065   16.7321   40.9002 H   0  0  0  0  0  0  0  0  0  0  0  0
    4.4450   16.0496   40.9002 H   0  0  0  0  0  0  0  0  0  0  0  0
    4.1055   13.8690   44.3625 H   0  0  0  0  0  0  0  0  0  0  0  0
    3.1593   14.5081   42.9757 H   0  0  0  0  0  0  0  0  0  0  0  0
    3.7094   12.7982   42.9757 H   0  0  0  0  0  0  0  0  0  0  0  0
  1  2  2  0
  1  6  1  0
  2  3  1  0
  3  4  2  0
  4  5  1  0
  4  7  1  0
  5  6  2  0
  5  9  1  0
  6 15  1  0
  7  8  1  0
 10  7  1  0
  8  9  2  0
 10 11  1  0
 10 14  1  0
 11 12  1  0
 11 21  1  0
 12 13  1  0
 12 22  1  0
 13 14  1  0
 13 16  1  0
 16 17  1  0
 17 18  1  0
 18 19  2  0
 18 20  1  0
 18 23  1  1
 20 24  1  0
 24 25  1  0
 24 26  2  0
 25 27  1  0
 25 28  1  0
 28 29  1  0
 28 31  1  0
 29 30  1  0
  2 32  1  0
  8 33  1  0
 10 34  1  6
 11 35  1  1
 12 36  1  1
 13 37  1  6
 15 38  1  0
 15 39  1  0
 16 40  1  0
 16 41  1  0
 21 42  1  0
 22 43  1  0
 25 44  1  1
 27 45  1  0
 27 46  1  0
 27 47  1  0
 28 48  1  6
 29 49  1  0
 29 50  1  0
 30 51  1  0
 30 52  1  0
 30 53  1  0
 31 54  1  0
 31 55  1  0
 31 56  1  0
M  CHG  2  23  -1  27   1
M  END
>  <filename_input>  (6) 
7D5C_GV6_docked.sdf

>  <pdb_id>  (6) 
7D5C_GV6

>  <pose_rank>  (6) 
5

>  <num_atoms_heavy>  (6) 
31

>  <num_torsions>  (6) 
9

>  <pose>  (6) 
[8.530126113269093, 6.805458805543147, 37.68909719422808, 2.4307519962700654, 1.0203422962764188, -4.784527336834873, 0.7232847780619454, -2.344887652214938, 1.2285406334645232, -2.4578362576158153, -4.7225658348959465, -2.2297027769656794, -4.230221456584119, 5.372980799387609, -0.6618831364972612]

>  <energy>  (6) 
-850.9948798503273

>  <inter_energy>  (6) 
-844.0092632308396

>  <intra_energy>  (6) 
1.6746585995971113

>  <rmsd>  (6) 
6.41511

>  <sdf_rank>  (6) 
0

$$$$

     RDKit          3D

 56 58  0  0  0  0  0  0  0  0999 V2000
    8.8523    3.2047   44.5704 N   0  0  0  0  0  0  0  0  0  0  0  0
    8.1273    3.9742   43.7525 C   0  0  0  0  0  0  0  0  0  0  0  0
    8.5214    4.6445   42.6594 N   0  0  0  0  0  0  0  0  0  0  0  0
    9.8279    4.4600   42.4279 C   0  0  0  0  0  0  0  0  0  0  0  0
   10.7028    3.6912   43.1812 C   0  0  0  0  0  0  0  0  0  0  0  0
   10.1657    3.0290   44.3053 C   0  0  0  0  0  0  0  0  0  0  0  0
   10.5751    4.9777   41.3981 N   0  0  0  0  0  0  0  0  0  0  0  0
   11.8468    4.4982   41.5837 C   0  0  0  0  0  0  0  0  0  0  0  0
   11.9798    3.7269   42.6371 N   0  0  0  0  0  0  0  0  0  0  0  0
   10.1100    5.8913   40.3623 C   0  0  1  0  0  0  0  0  0  0  0  0
   10.4571    7.3575   40.6126 C   0  0  1  0  0  0  0  0  0  0  0  0
   10.3176    7.8947   39.1943 C   0  0  1  0  0  0  0  0  0  0  0  0
   10.9305    6.7657   38.3609 C   0  0  2  0  0  0  0  0  0  0  0  0
   10.7460    5.5602   39.1413 O   0  0  0  0  0  0  0  0  0  0  0  0
   10.8717    2.2246   45.1055 N   0  0  0  0  0  0  0  0  0  0  0  0
   12.3937    6.9204   38.0306 C   0  0  0  0  0  0  0  0  0  0  0  0
   12.5027    7.5668   36.7482 O   0  0  0  0  0  0  0  0  0  0  0  0
   13.1554    6.8592   35.5002 P   0  0  2  0  0  0  0  0  0  0  0  0
   14.1542    7.8043   34.9377 O   0  0  0  0  0  0  0  0  0  0  0  0
   11.9178    6.7656   34.4301 O   0  0  0  0  0  0  0  0  0  0  0  0
    9.5553    7.9813   41.5192 O   0  0  0  0  0  0  0  0  0  0  0  0
    8.9360    8.0386   38.8777 O   0  0  0  0  0  0  0  0  0  0  0  0
   13.5263    5.4619   35.7834 O   0  0  0  0  0  0  0  0  0  0  0  0
   10.7090    7.4974   34.2868 C   0  0  0  0  0  0  0  0  0  0  0  0
    9.4061    6.7315   34.5177 C   0  0  1  0  0  0  0  0  0  0  0  0
   10.7408    8.6660   34.0105 O   0  0  0  0  0  0  0  0  0  0  0  0
    9.5675    5.7603   35.5801 N   0  0  0  0  0  0  0  0  0  0  0  0
    8.2208    7.7005   34.7074 C   0  0  2  0  0  0  0  0  0  0  0  0
    7.2687    7.1998   35.8027 C   0  0  0  0  0  0  0  0  0  0  0  0
    5.9184    6.7290   35.3093 C   0  0  0  0  0  0  0  0  0  0  0  0
    7.5017    7.9217   33.3762 C   0  0  0  0  0  0  0  0  0  0  0  0
    7.0625    4.0710   44.0110 H   0  0  0  0  0  0  0  0  0  0  0  0
   12.6816    4.7390   40.9090 H   0  0  0  0  0  0  0  0  0  0  0  0
    9.0155    5.7823   40.3487 H   0  0  0  0  0  0  0  0  0  0  0  0
   11.4361    7.5310   41.0831 H   0  0  0  0  0  0  0  0  0  0  0  0
   10.7908    8.8742   39.0312 H   0  0  0  0  0  0  0  0  0  0  0  0
   10.4291    6.7574   37.3819 H   0  0  0  0  0  0  0  0  0  0  0  0
   11.8747    2.0721   44.9274 H   0  0  0  0  0  0  0  0  0  0  0  0
   10.4129    1.7571   45.9004 H   0  0  0  0  0  0  0  0  0  0  0  0
   12.8855    7.5345   38.7995 H   0  0  0  0  0  0  0  0  0  0  0  0
   12.8814    5.9349   38.0006 H   0  0  0  0  0  0  0  0  0  0  0  0
    9.8353    7.7876   42.4489 H   0  0  0  0  0  0  0  0  0  0  0  0
    8.4097    8.0934   39.7145 H   0  0  0  0  0  0  0  0  0  0  0  0
    9.1574    6.1476   33.6192 H   0  0  0  0  0  0  0  0  0  0  0  0
    9.4890    6.2327   36.4919 H   0  0  0  0  0  0  0  0  0  0  0  0
    8.8345    5.0409   35.5018 H   0  0  0  0  0  0  0  0  0  0  0  0
   10.4937    5.3166   35.5018 H   0  0  0  0  0  0  0  0  0  0  0  0
    8.6080    8.6735   35.0441 H   0  0  0  0  0  0  0  0  0  0  0  0
    7.7551    6.3595   36.3198 H   0  0  0  0  0  0  0  0  0  0  0  0
    7.0734    8.0615   36.4580 H   0  0  0  0  0  0  0  0  0  0  0  0
    5.2717    6.5035   36.1700 H   0  0  0  0  0  0  0  0  0  0  0  0
    5.4552    7.5186   34.6995 H   0  0  0  0  0  0  0  0  0  0  0  0
    6.0466    5.8225   34.6995 H   0  0  0  0  0  0  0  0  0  0  0  0
    6.4664    8.2403   33.5673 H   0  0  0  0  0  0  0  0  0  0  0  0
    8.0249    8.7004   32.8018 H   0  0  0  0  0  0  0  0  0  0  0  0
    7.4966    6.9836   32.8018 H   0  0  0  0  0  0  0  0  0  0  0  0
  1  2  2  0
  1  6  1  0
  2  3  1  0
  3  4  2  0
  4  5  1  0
  4  7  1  0
  5  6  2  0
  5  9  1  0
  6 15  1  0
  7  8  1  0
 10  7  1  0
  8  9  2  0
 10 11  1  0
 10 14  1  0
 11 12  1  0
 11 21  1  0
 12 13  1  0
 12 22  1  0
 13 14  1  0
 13 16  1  0
 16 17  1  0
 17 18  1  0
 18 19  2  0
 18 20  1  0
 18 23  1  1
 20 24  1  0
 24 25  1  0
 24 26  2  0
 25 27  1  0
 25 28  1  0
 28 29  1  0
 28 31  1  0
 29 30  1  0
  2 32  1  0
  8 33  1  0
 10 34  1  6
 11 35  1  1
 12 36  1  1
 13 37  1  6
 15 38  1  0
 15 39  1  0
 16 40  1  0
 16 41  1  0
 21 42  1  0
 22 43  1  0
 25 44  1  6
 27 45  1  0
 27 46  1  0
 27 47  1  0
 28 48  1  1
 29 49  1  0
 29 50  1  0
 30 51  1  0
 30 52  1  0
 30 53  1  0
 31 54  1  0
 31 55  1  0
 31 56  1  0
M  CHG  2  23  -1  27   1
M  END
>  <filename_input>  (7) 
7D5C_GV6_docked.sdf

>  <pdb_id>  (7) 
7D5C_GV6

>  <pose_rank>  (7) 
6

>  <num_atoms_heavy>  (7) 
31

>  <num_torsions>  (7) 
9

>  <pose>  (7) 
[10.10999850146474, 5.891331780205331, 40.3622596810317, -2.518089154322113, -0.009804082635408908, -0.4524386308254576, -0.3161554474311342, 3.68199127312772, 1.1208758400346357, 6.9838836596507115, -0.8566868757424505, 1.105214435265546, 0.9756476311189686, 10.989730005204363, 1.3348402322226687]

>  <energy>  (7) 
-785.9227152685032

>  <inter_energy>  (7) 
-790.9357742216148

>  <intra_energy>  (7) 
7.966005949107586

>  <rmsd>  (7) 
8.06341

>  <sdf_rank>  (7) 
0

$$$$

     RDKit          3D

 56 58  0  0  0  0  0  0  0  0999 V2000
   10.0590    3.3003   44.4693 N   0  0  0  0  0  0  0  0  0  0  0  0
   11.2304    3.4901   43.8540 C   0  0  0  0  0  0  0  0  0  0  0  0
   11.5269    4.3297   42.8506 N   0  0  0  0  0  0  0  0  0  0  0  0
   10.4499    5.0349   42.4804 C   0  0  0  0  0  0  0  0  0  0  0  0
    9.1769    4.9513   43.0247 C   0  0  0  0  0  0  0  0  0  0  0  0
    8.9928    4.0340   44.0808 C   0  0  0  0  0  0  0  0  0  0  0  0
   10.3756    5.9928   41.4987 N   0  0  0  0  0  0  0  0  0  0  0  0
    9.0757    6.4308   41.5038 C   0  0  0  0  0  0  0  0  0  0  0  0
    8.3148    5.8387   42.3943 N   0  0  0  0  0  0  0  0  0  0  0  0
   11.4514    6.4069   40.6068 C   0  0  1  0  0  0  0  0  0  0  0  0
   11.6635    5.4877   39.4056 C   0  0  1  0  0  0  0  0  0  0  0  0
   12.4193    6.4412   38.4896 C   0  0  1  0  0  0  0  0  0  0  0  0
   11.6822    7.7631   38.7226 C   0  0  2  0  0  0  0  0  0  0  0  0
   11.1285    7.6713   40.0572 O   0  0  0  0  0  0  0  0  0  0  0  0
    7.8371    3.8659   44.7304 N   0  0  0  0  0  0  0  0  0  0  0  0
   10.5731    8.0708   37.7484 C   0  0  0  0  0  0  0  0  0  0  0  0
    9.5815    7.0310   37.8476 O   0  0  0  0  0  0  0  0  0  0  0  0
    9.0435    6.2558   36.5852 P   0  0  2  0  0  0  0  0  0  0  0  0
    9.9962    5.1477   36.3169 O   0  0  0  0  0  0  0  0  0  0  0  0
    9.2120    7.3461   35.3734 O   0  0  0  0  0  0  0  0  0  0  0  0
   12.4270    4.3330   39.7343 O   0  0  0  0  0  0  0  0  0  0  0  0
   13.7687    6.5516   38.9330 O   0  0  0  0  0  0  0  0  0  0  0  0
    7.5965    5.9927   36.6683 O   0  0  0  0  0  0  0  0  0  0  0  0
   10.2318    7.5676   34.4099 C   0  0  0  0  0  0  0  0  0  0  0  0
   11.6608    7.2137   34.8225 C   0  0  1  0  0  0  0  0  0  0  0  0
    9.9523    8.0004   33.3248 O   0  0  0  0  0  0  0  0  0  0  0  0
   11.7390    5.8338   35.2557 N   0  0  0  0  0  0  0  0  0  0  0  0
   12.6669    7.5986   33.7183 C   0  0  2  0  0  0  0  0  0  0  0  0
   12.2323    7.0389   32.3564 C   0  0  0  0  0  0  0  0  0  0  0  0
   13.2049    6.0673   31.7251 C   0  0  0  0  0  0  0  0  0  0  0  0
   14.0746    7.1440   34.1052 C   0  0  0  0  0  0  0  0  0  0  0  0
   12.0648    2.8740   44.2202 H   0  0  0  0  0  0  0  0  0  0  0  0
    8.7038    7.2095   40.8218 H   0  0  0  0  0  0  0  0  0  0  0  0
   12.3609    6.3992   41.2255 H   0  0  0  0  0  0  0  0  0  0  0  0
   10.7447    5.0598   38.9781 H   0  0  0  0  0  0  0  0  0  0  0  0
   12.4494    6.1296   37.4351 H   0  0  0  0  0  0  0  0  0  0  0  0
   12.4034    8.5818   38.5825 H   0  0  0  0  0  0  0  0  0  0  0  0
    7.0079    4.4116   44.4559 H   0  0  0  0  0  0  0  0  0  0  0  0
    7.7757    3.1905   45.5057 H   0  0  0  0  0  0  0  0  0  0  0  0
   10.1196    9.0419   37.9959 H   0  0  0  0  0  0  0  0  0  0  0  0
   10.9711    8.1179   36.7240 H   0  0  0  0  0  0  0  0  0  0  0  0
   12.4852    4.2450   40.7186 H   0  0  0  0  0  0  0  0  0  0  0  0
   13.7917    6.5534   39.9227 H   0  0  0  0  0  0  0  0  0  0  0  0
   11.9517    7.8145   35.6968 H   0  0  0  0  0  0  0  0  0  0  0  0
   11.7411    5.7967   36.2850 H   0  0  0  0  0  0  0  0  0  0  0  0
   10.9261    5.3141   34.8951 H   0  0  0  0  0  0  0  0  0  0  0  0
   12.6054    5.4093   34.8951 H   0  0  0  0  0  0  0  0  0  0  0  0
   12.6845    8.6941   33.6201 H   0  0  0  0  0  0  0  0  0  0  0  0
   11.2714    6.5209   32.4912 H   0  0  0  0  0  0  0  0  0  0  0  0
   12.1721    7.9003   31.6749 H   0  0  0  0  0  0  0  0  0  0  0  0
   13.7468    5.5259   32.5146 H   0  0  0  0  0  0  0  0  0  0  0  0
   12.6527    5.3494   31.1009 H   0  0  0  0  0  0  0  0  0  0  0  0
   13.9223    6.6201   31.1009 H   0  0  0  0  0  0  0  0  0  0  0  0
   14.1625    7.1156   35.2013 H   0  0  0  0  0  0  0  0  0  0  0  0
   14.2610    6.1399   33.6963 H   0  0  0  0  0  0  0  0  0  0  0  0
   14.8131    7.8493   33.6963 H   0  0  0  0  0  0  0  0  0  0  0  0
  1  2  2  0
  1  6  1  0
  2  3  1  0
  3  4  2  0
  4  5  1  0
  4  7  1  0
  5  6  2  0
  5  9  1  0
  6 15  1  0
  7  8  1  0
 10  7  1  0
  8  9  2  0
 10 11  1  0
 10 14  1  0
 11 12  1  0
 11 21  1  0
 12 13  1  0
 12 22  1  0
 13 14  1  0
 13 16  1  0
 16 17  1  0
 17 18  1  0
 18 19  2  0
 18 20  1  0
 18 23  1  1
 20 24  1  0
 24 25  1  0
 24 26  2  0
 25 27  1  0
 25 28  1  0
 28 29  1  0
 28 31  1  0
 29 30  1  0
  2 32  1  0
  8 33  1  0
 10 34  1  1
 11 35  1  6
 12 36  1  6
 13 37  1  1
 15 38  1  0
 15 39  1  0
 16 40  1  0
 16 41  1  0
 21 42  1  0
 22 43  1  0
 25 44  1  1
 27 45  1  0
 27 46  1  0
 27 47  1  0
 28 48  1  6
 29 49  1  0
 29 50  1  0
 30 51  1  0
 30 52  1  0
 30 53  1  0
 31 54  1  0
 31 55  1  0
 31 56  1  0
M  CHG  2  23  -1  27   1
M  END
>  <filename_input>  (8) 
7D5C_GV6_docked.sdf

>  <pdb_id>  (8) 
7D5C_GV6

>  <pose_rank>  (8) 
7

>  <num_atoms_heavy>  (8) 
31

>  <num_torsions>  (8) 
9

>  <pose>  (8) 
[11.451363059370678, 6.406879275618653, 40.60682532260327, 0.3823044528480609, -3.272795361410886, -0.7032874410415427, -0.6285877064160098, -6.195523885670037, 0.9146756901252968, -8.118913324733168, 0.413707879881204, -3.719318671024694, 1.3131987506412464, -0.016730183110226605, 1.194839070064436]

>  <energy>  (8) 
-606.8962268808318

>  <inter_energy>  (8) 
-747.1662489030463

>  <intra_energy>  (8) 
146.47708011371827

>  <rmsd>  (8) 
8.42904

>  <sdf_rank>  (8) 
0

$$$$

     RDKit          3D

 56 58  0  0  0  0  0  0  0  0999 V2000
   12.7956    6.4151   33.6839 N   0  0  0  0  0  0  0  0  0  0  0  0
   12.5286    5.8819   34.8803 C   0  0  0  0  0  0  0  0  0  0  0  0
   11.4426    6.0460   35.6506 N   0  0  0  0  0  0  0  0  0  0  0  0
   10.5582    6.8646   35.0659 C   0  0  0  0  0  0  0  0  0  0  0  0
   10.6928    7.4861   33.8332 C   0  0  0  0  0  0  0  0  0  0  0  0
   11.8795    7.2291   33.1145 C   0  0  0  0  0  0  0  0  0  0  0  0
    9.3330    7.2536   35.5500 N   0  0  0  0  0  0  0  0  0  0  0  0
    8.8003    8.0799   34.5933 C   0  0  0  0  0  0  0  0  0  0  0  0
    9.5732    8.2561   33.5474 N   0  0  0  0  0  0  0  0  0  0  0  0
    8.7568    6.8978   36.8405 C   0  0  1  0  0  0  0  0  0  0  0  0
    9.4175    5.6981   37.5167 C   0  0  1  0  0  0  0  0  0  0  0  0
    8.9687    5.9396   38.9518 C   0  0  1  0  0  0  0  0  0  0  0  0
    9.1003    7.4600   39.0786 C   0  0  2  0  0  0  0  0  0  0  0  0
    8.9395    7.9789   37.7365 O   0  0  0  0  0  0  0  0  0  0  0  0
   12.1386    7.7234   31.9003 N   0  0  0  0  0  0  0  0  0  0  0  0
   10.4066    7.9556   39.6459 C   0  0  0  0  0  0  0  0  0  0  0  0
   11.4810    7.3829   38.8764 O   0  0  0  0  0  0  0  0  0  0  0  0
   12.9059    7.1090   39.4918 P   0  0  2  0  0  0  0  0  0  0  0  0
   13.7074    6.4245   38.4447 O   0  0  0  0  0  0  0  0  0  0  0  0
   12.6030    6.0096   40.6688 O   0  0  0  0  0  0  0  0  0  0  0  0
    8.9457    4.4580   37.0030 O   0  0  0  0  0  0  0  0  0  0  0  0
    7.6037    5.5560   39.0905 O   0  0  0  0  0  0  0  0  0  0  0  0
   13.4448    8.2865   40.1940 O   0  0  0  0  0  0  0  0  0  0  0  0
   11.6060    5.9256   41.6769 C   0  0  0  0  0  0  0  0  0  0  0  0
   10.8796    4.5880   41.8205 C   0  0  1  0  0  0  0  0  0  0  0  0
   11.3762    6.8734   42.3780 O   0  0  0  0  0  0  0  0  0  0  0  0
   11.7253    3.4988   41.3772 N   0  0  0  0  0  0  0  0  0  0  0  0
   10.3073    4.4191   43.2431 C   0  0  2  0  0  0  0  0  0  0  0  0
   10.8457    3.1438   43.9067 C   0  0  0  0  0  0  0  0  0  0  0  0
    9.8765    2.4503   44.8384 C   0  0  0  0  0  0  0  0  0  0  0  0
    8.7789    4.4467   43.2038 C   0  0  0  0  0  0  0  0  0  0  0  0
   13.3050    5.2184   35.2888 H   0  0  0  0  0  0  0  0  0  0  0  0
    7.8123    8.5530   34.6939 H   0  0  0  0  0  0  0  0  0  0  0  0
    7.7049    6.6534   36.6316 H   0  0  0  0  0  0  0  0  0  0  0  0
   10.5057    5.6237   37.3743 H   0  0  0  0  0  0  0  0  0  0  0  0
    9.5405    5.3801   39.7067 H   0  0  0  0  0  0  0  0  0  0  0  0
    8.3421    7.8065   39.7963 H   0  0  0  0  0  0  0  0  0  0  0  0
   11.4584    8.3465   31.4420 H   0  0  0  0  0  0  0  0  0  0  0  0
   13.0184    7.4813   31.4227 H   0  0  0  0  0  0  0  0  0  0  0  0
   10.4473    9.0530   39.5819 H   0  0  0  0  0  0  0  0  0  0  0  0
   10.4975    7.6599   40.7015 H   0  0  0  0  0  0  0  0  0  0  0  0
    8.7164    3.8554   37.7542 H   0  0  0  0  0  0  0  0  0  0  0  0
    7.3750    5.4917   40.0516 H   0  0  0  0  0  0  0  0  0  0  0  0
   10.0035    4.5708   41.1556 H   0  0  0  0  0  0  0  0  0  0  0  0
   12.1081    3.0059   42.1966 H   0  0  0  0  0  0  0  0  0  0  0  0
   11.1704    2.8423   40.8099 H   0  0  0  0  0  0  0  0  0  0  0  0
   12.4989    3.8738   40.8099 H   0  0  0  0  0  0  0  0  0  0  0  0
   10.6412    5.2644   43.8628 H   0  0  0  0  0  0  0  0  0  0  0  0
   11.1208    2.4353   43.1114 H   0  0  0  0  0  0  0  0  0  0  0  0
   11.6986    3.4564   44.5271 H   0  0  0  0  0  0  0  0  0  0  0  0
   10.1611    2.6539   45.8813 H   0  0  0  0  0  0  0  0  0  0  0  0
    8.8592    2.8268   44.6558 H   0  0  0  0  0  0  0  0  0  0  0  0
    9.9045    1.3660   44.6558 H   0  0  0  0  0  0  0  0  0  0  0  0
    8.3858    4.4538   44.2311 H   0  0  0  0  0  0  0  0  0  0  0  0
    8.4420    5.3511   42.6760 H   0  0  0  0  0  0  0  0  0  0  0  0
    8.4096    3.5551   42.6760 H   0  0  0  0  0  0  0  0  0  0  0  0
  1  2  2  0
  1  6  1  0
  2  3  1  0
  3  4  2  0
  4  5  1  0
  4  7  1  0
  5  6  2  0
  5  9  1  0
  6 15  1  0
  7  8  1  0
 10  7  1  0
  8  9  2  0
 10 11  1  0
 10 14  1  0
 11 12  1  0
 11 21  1  0
 12 13  1  0
 12 22  1  0
 13 14  1  0
 13 16  1  0
 16 17  1  0
 17 18  1  0
 18 19  2  0
 18 20  1  0
 18 23  1  1
 20 24  1  0
 24 25  1  0
 24 26  2  0
 25 27  1  0
 25 28  1  0
 28 29  1  0
 28 31  1  0
 29 30  1  0
  2 32  1  0
  8 33  1  0
 10 34  1  6
 11 35  1  1
 12 36  1  1
 13 37  1  1
 15 38  1  0
 15 39  1  0
 16 40  1  0
 16 41  1  0
 21 42  1  0
 22 43  1  0
 25 44  1  6
 27 45  1  0
 27 46  1  0
 27 47  1  0
 28 48  1  1
 29 49  1  0
 29 50  1  0
 30 51  1  0
 30 52  1  0
 30 53  1  0
 31 54  1  0
 31 55  1  0
 31 56  1  0
M  CHG  2  23  -1  27   1
M  END
>  <filename_input>  (9) 
7D5C_GV6_docked.sdf

>  <pdb_id>  (9) 
7D5C_GV6

>  <pose_rank>  (9) 
8

>  <num_atoms_heavy>  (9) 
31

>  <num_torsions>  (9) 
9

>  <pose>  (9) 
[8.756837680970687, 6.897775138647914, 36.84051849180282, -0.8721361057206328, 4.17383697320618, 4.981177538324156, -2.351433233584589, -0.04251786575531614, 19.364181990449104, 12.315184708462263, 4.245537225821495, -0.8897312850982916, 0.8203036287826435, -1.2703384660641328, 0.7120350269040753]

>  <energy>  (9) 
-772.301431315824

>  <inter_energy>  (9) 
-831.5506317584451

>  <intra_energy>  (9) 
62.13278866589601

>  <rmsd>  (9) 
2.37295

>  <sdf_rank>  (9) 
0

$$$$

     RDKit          3D

 56 58  0  0  0  0  0  0  0  0999 V2000
    8.9729    3.2208   45.4247 N   0  0  0  0  0  0  0  0  0  0  0  0
    7.9699    3.7812   44.7413 C   0  0  0  0  0  0  0  0  0  0  0  0
    7.9999    4.3735   43.5381 N   0  0  0  0  0  0  0  0  0  0  0  0
    9.2366    4.3534   43.0236 C   0  0  0  0  0  0  0  0  0  0  0  0
   10.3694    3.8080   43.6092 C   0  0  0  0  0  0  0  0  0  0  0  0
   10.2074    3.2066   44.8752 C   0  0  0  0  0  0  0  0  0  0  0  0
    9.6451    4.8536   41.8112 N   0  0  0  0  0  0  0  0  0  0  0  0
   10.9881    4.5855   41.7318 C   0  0  0  0  0  0  0  0  0  0  0  0
   11.4732    3.9650   42.7815 N   0  0  0  0  0  0  0  0  0  0  0  0
    8.8209    5.5684   40.8449 C   0  0  1  0  0  0  0  0  0  0  0  0
    8.7566    7.0783   41.0658 C   0  0  1  0  0  0  0  0  0  0  0  0
    8.3067    7.5165   39.6784 C   0  0  1  0  0  0  0  0  0  0  0  0
    9.1197    6.5906   38.7691 C   0  0  2  0  0  0  0  0  0  0  0  0
    9.3813    5.4032   39.5551 O   0  0  0  0  0  0  0  0  0  0  0  0
   11.1939    2.6072   45.5485 N   0  0  0  0  0  0  0  0  0  0  0  0
   10.4281    7.1510   38.2714 C   0  0  0  0  0  0  0  0  0  0  0  0
   10.5992    6.7512   36.8984 O   0  0  0  0  0  0  0  0  0  0  0  0
   11.4059    7.6215   35.8611 P   0  0  2  0  0  0  0  0  0  0  0  0
   10.4305    8.5286   35.2031 O   0  0  0  0  0  0  0  0  0  0  0  0
   11.8836    6.5255   34.7403 O   0  0  0  0  0  0  0  0  0  0  0  0
    7.8232    7.4394   42.0771 O   0  0  0  0  0  0  0  0  0  0  0  0
    6.9156    7.2491   39.5267 O   0  0  0  0  0  0  0  0  0  0  0  0
   12.6536    8.1557   36.4338 O   0  0  0  0  0  0  0  0  0  0  0  0
   13.0213    6.4446   33.8938 C   0  0  0  0  0  0  0  0  0  0  0  0
   12.7654    6.1219   32.4215 C   0  0  1  0  0  0  0  0  0  0  0  0
   14.1195    6.6396   34.3396 O   0  0  0  0  0  0  0  0  0  0  0  0
   12.5054    7.3339   31.6721 N   0  0  0  0  0  0  0  0  0  0  0  0
   13.8912    5.2389   31.8448 C   0  0  2  0  0  0  0  0  0  0  0  0
   13.9912    3.9076   32.6027 C   0  0  0  0  0  0  0  0  0  0  0  0
   13.8074    2.6716   31.7500 C   0  0  0  0  0  0  0  0  0  0  0  0
   15.2153    6.0037   31.8469 C   0  0  0  0  0  0  0  0  0  0  0  0
    6.9861    3.7527   45.2325 H   0  0  0  0  0  0  0  0  0  0  0  0
   11.6041    4.8660   40.8647 H   0  0  0  0  0  0  0  0  0  0  0  0
    7.8103    5.1490   40.9584 H   0  0  0  0  0  0  0  0  0  0  0  0
    9.6911    7.5378   41.4202 H   0  0  0  0  0  0  0  0  0  0  0  0
    8.4554    8.5862   39.4696 H   0  0  0  0  0  0  0  0  0  0  0  0
    8.5333    6.4137   37.8554 H   0  0  0  0  0  0  0  0  0  0  0  0
   12.1450    2.5811   45.1540 H   0  0  0  0  0  0  0  0  0  0  0  0
   11.0032    2.1714   46.4621 H   0  0  0  0  0  0  0  0  0  0  0  0
   10.4124    8.2488   38.3398 H   0  0  0  0  0  0  0  0  0  0  0  0
   11.2598    6.7710   38.8829 H   0  0  0  0  0  0  0  0  0  0  0  0
    8.2255    7.2838   42.9682 H   0  0  0  0  0  0  0  0  0  0  0  0
    6.4959    7.1684   40.4197 H   0  0  0  0  0  0  0  0  0  0  0  0
   11.8516    5.5166   32.3300 H   0  0  0  0  0  0  0  0  0  0  0  0
   12.3383    8.1124   32.3255 H   0  0  0  0  0  0  0  0  0  0  0  0
   13.3187    7.5520   31.0789 H   0  0  0  0  0  0  0  0  0  0  0  0
   11.6742    7.1991   31.0789 H   0  0  0  0  0  0  0  0  0  0  0  0
   13.6493    4.9921   30.8005 H   0  0  0  0  0  0  0  0  0  0  0  0
   14.9855    3.8548   33.0703 H   0  0  0  0  0  0  0  0  0  0  0  0
   13.1660    3.9049   33.3300 H   0  0  0  0  0  0  0  0  0  0  0  0
   13.6769    1.7938   32.3999 H   0  0  0  0  0  0  0  0  0  0  0  0
   12.9175    2.7933   31.1150 H   0  0  0  0  0  0  0  0  0  0  0  0
   14.6943    2.5291   31.1150 H   0  0  0  0  0  0  0  0  0  0  0  0
   15.5316    6.1864   32.8845 H   0  0  0  0  0  0  0  0  0  0  0  0
   15.9827    5.4097   31.3289 H   0  0  0  0  0  0  0  0  0  0  0  0
   15.0843    6.9652   31.3289 H   0  0  0  0  0  0  0  0  0  0  0  0
  1  2  2  0
  1  6  1  0
  2  3  1  0
  3  4  2  0
  4  5  1  0
  4  7  1  0
  5  6  2  0
  5  9  1  0
  6 15  1  0
  7  8  1  0
 10  7  1  0
  8  9  2  0
 10 11  1  0
 10 14  1  0
 11 12  1  0
 11 21  1  0
 12 13  1  0
 12 22  1  0
 13 14  1  0
 13 16  1  0
 16 17  1  0
 17 18  1  0
 18 19  2  0
 18 20  1  0
 18 23  1  1
 20 24  1  0
 24 25  1  0
 24 26  2  0
 25 27  1  0
 25 28  1  0
 28 29  1  0
 28 31  1  0
 29 30  1  0
  2 32  1  0
  8 33  1  0
 10 34  1  6
 11 35  1  1
 12 36  1  6
 13 37  1  6
 15 38  1  0
 15 39  1  0
 16 40  1  0
 16 41  1  0
 21 42  1  0
 22 43  1  0
 25 44  1  1
 27 45  1  0
 27 46  1  0
 27 47  1  0
 28 48  1  6
 29 49  1  0
 29 50  1  0
 30 51  1  0
 30 52  1  0
 30 53  1  0
 31 54  1  0
 31 55  1  0
 31 56  1  0
M  CHG  2  23  -1  27   1
M  END
>  <filename_input>  (10) 
7D5C_GV6_docked.sdf

>  <pdb_id>  (10) 
7D5C_GV6

>  <pose_rank>  (10) 
9

>  <num_atoms_heavy>  (10) 
31

>  <num_torsions>  (10) 
9

>  <pose>  (10) 
[8.82091358689387, 5.568379074710673, 40.844907303348315, 3.7183393717218673, 0.4933762118589981, 0.2769708096911288, -0.5119846743417844, -9.710386717465678, -0.49740392012898016, 1.3724761564403678, 2.427655022575737, 0.779310490079746, 1.8630101323628192, -4.358619078158199, -0.9020056587445395]

>  <energy>  (10) 
-765.7516404135368

>  <inter_energy>  (10) 
-792.4870402754285

>  <intra_energy>  (10) 
29.23695100647342

>  <rmsd>  (10) 
8.82682

>  <sdf_rank>  (10) 
0

$$$$

     RDKit          3D

 56 58  0  0  0  0  0  0  0  0999 V2000
    8.7795    8.3880   32.7266 N   0  0  0  0  0  0  0  0  0  0  0  0
    7.6824    8.3558   33.4897 C   0  0  0  0  0  0  0  0  0  0  0  0
    7.5649    8.0042   34.7789 N   0  0  0  0  0  0  0  0  0  0  0  0
    8.7525    7.6572   35.2922 C   0  0  0  0  0  0  0  0  0  0  0  0
    9.9706    7.6447   34.6291 C   0  0  0  0  0  0  0  0  0  0  0  0
    9.9650    8.0423   33.2754 C   0  0  0  0  0  0  0  0  0  0  0  0
    9.0211    7.2532   36.5774 N   0  0  0  0  0  0  0  0  0  0  0  0
   10.3725    7.0215   36.6196 C   0  0  0  0  0  0  0  0  0  0  0  0
   10.9885    7.2365   35.4809 N   0  0  0  0  0  0  0  0  0  0  0  0
    8.0508    7.0617   37.6478 C   0  0  1  0  0  0  0  0  0  0  0  0
    8.2586    5.7895   38.4670 C   0  0  1  0  0  0  0  0  0  0  0  0
    7.4797    6.1672   39.7200 C   0  0  1  0  0  0  0  0  0  0  0  0
    7.8533    7.6415   39.8990 C   0  0  2  0  0  0  0  0  0  0  0  0
    8.1748    8.1263   38.5732 O   0  0  0  0  0  0  0  0  0  0  0  0
   11.0614    8.1180   32.5151 N   0  0  0  0  0  0  0  0  0  0  0  0
    9.0175    7.9113   40.8187 C   0  0  0  0  0  0  0  0  0  0  0  0
    8.7924    9.1727   41.4763 O   0  0  0  0  0  0  0  0  0  0  0  0
    7.3474    9.7610   41.6997 P   0  0  2  0  0  0  0  0  0  0  0  0
    6.9465   10.4225   40.4312 O   0  0  0  0  0  0  0  0  0  0  0  0
    7.5889   10.9427   42.8091 O   0  0  0  0  0  0  0  0  0  0  0  0
    7.7256    4.6374   37.8245 O   0  0  0  0  0  0  0  0  0  0  0  0
    6.0838    6.0466   39.4624 O   0  0  0  0  0  0  0  0  0  0  0  0
    6.4483    8.7953   42.3548 O   0  0  0  0  0  0  0  0  0  0  0  0
    6.7078   11.8375   43.4727 C   0  0  0  0  0  0  0  0  0  0  0  0
    7.1551   12.3631   44.8369 C   0  0  1  0  0  0  0  0  0  0  0  0
    5.6728   12.1593   42.9549 O   0  0  0  0  0  0  0  0  0  0  0  0
    7.6958   13.7013   44.7149 N   0  0  0  0  0  0  0  0  0  0  0  0
    6.0299   12.2174   45.8821 C   0  0  2  0  0  0  0  0  0  0  0  0
    5.2895   10.8832   45.7134 C   0  0  0  0  0  0  0  0  0  0  0  0
    3.9274   10.8210   46.3686 C   0  0  0  0  0  0  0  0  0  0  0  0
    5.0824   13.4153   45.8079 C   0  0  0  0  0  0  0  0  0  0  0  0
    6.7490    8.6589   32.9928 H   0  0  0  0  0  0  0  0  0  0  0  0
   10.8939    6.6851   37.5279 H   0  0  0  0  0  0  0  0  0  0  0  0
    7.0729    7.0064   37.1471 H   0  0  0  0  0  0  0  0  0  0  0  0
    9.3091    5.5108   38.6368 H   0  0  0  0  0  0  0  0  0  0  0  0
    7.7020    5.5432   40.5982 H   0  0  0  0  0  0  0  0  0  0  0  0
    7.0036    8.1500   40.3779 H   0  0  0  0  0  0  0  0  0  0  0  0
   11.9786    7.8607   32.9070 H   0  0  0  0  0  0  0  0  0  0  0  0
   10.9893    8.4335   31.5373 H   0  0  0  0  0  0  0  0  0  0  0  0
    9.0929    7.1096   41.5681 H   0  0  0  0  0  0  0  0  0  0  0  0
    9.9544    7.9461   40.2433 H   0  0  0  0  0  0  0  0  0  0  0  0
    7.4250    3.9876   38.5083 H   0  0  0  0  0  0  0  0  0  0  0  0
    5.5923    6.0042   40.3207 H   0  0  0  0  0  0  0  0  0  0  0  0
    7.9812   11.7446   45.2176 H   0  0  0  0  0  0  0  0  0  0  0  0
    7.8546   14.0943   45.6537 H   0  0  0  0  0  0  0  0  0  0  0  0
    8.5884   13.6656   44.2022 H   0  0  0  0  0  0  0  0  0  0  0  0
    7.0289   14.2957   44.2022 H   0  0  0  0  0  0  0  0  0  0  0  0
    6.4776   12.2070   46.8868 H   0  0  0  0  0  0  0  0  0  0  0  0
    5.1590   10.6990   44.6368 H   0  0  0  0  0  0  0  0  0  0  0  0
    5.9069   10.1233   46.2146 H   0  0  0  0  0  0  0  0  0  0  0  0
    4.0461   10.8264   47.4622 H   0  0  0  0  0  0  0  0  0  0  0  0
    3.3320   11.6929   46.0601 H   0  0  0  0  0  0  0  0  0  0  0  0
    3.4139    9.8985   46.0601 H   0  0  0  0  0  0  0  0  0  0  0  0
    4.8240   13.7420   46.8260 H   0  0  0  0  0  0  0  0  0  0  0  0
    5.5752   14.2400   45.2722 H   0  0  0  0  0  0  0  0  0  0  0  0
    4.1663   13.1256   45.2722 H   0  0  0  0  0  0  0  0  0  0  0  0
  1  2  2  0
  1  6  1  0
  2  3  1  0
  3  4  2  0
  4  5  1  0
  4  7  1  0
  5  6  2  0
  5  9  1  0
  6 15  1  0
  7  8  1  0
 10  7  1  0
  8  9  2  0
 10 11  1  0
 10 14  1  0
 11 12  1  0
 11 21  1  0
 12 13  1  0
 12 22  1  0
 13 14  1  0
 13 16  1  0
 16 17  1  0
 17 18  1  0
 18 19  2  0
 18 20  1  0
 18 23  1  1
 20 24  1  0
 24 25  1  0
 24 26  2  0
 25 27  1  0
 25 28  1  0
 28 29  1  0
 28 31  1  0
 29 30  1  0
  2 32  1  0
  8 33  1  0
 10 34  1  6
 11 35  1  1
 12 36  1  1
 13 37  1  1
 15 38  1  0
 15 39  1  0
 16 40  1  0
 16 41  1  0
 21 42  1  0
 22 43  1  0
 25 44  1  1
 27 45  1  0
 27 46  1  0
 27 47  1  0
 28 48  1  1
 29 49  1  0
 29 50  1  0
 30 51  1  0
 30 52  1  0
 30 53  1  0
 31 54  1  0
 31 55  1  0
 31 56  1  0
M  CHG  2  23  -1  27   1
M  END
>  <filename_input>  (11) 
7D5C_GV6_docked.sdf

>  <pdb_id>  (11) 
7D5C_GV6

>  <pose_rank>  (11) 
10

>  <num_atoms_heavy>  (11) 
31

>  <num_torsions>  (11) 
9

>  <pose>  (11) 
[8.050789971390799, 7.061721771526856, 37.6477849673941, 3.1062155899516215, 5.288657405085105, -0.5598500167718126, 0.3288636180112745, -3.5495423722893755, -2.6767240862692634, 1.5369732409657404, 1.9259810082066275, -0.5010460285579326, 2.0966767871885224, 1.5718667160527229, 0.4469223367785892]

>  <energy>  (11) 
-751.6611923879375

>  <inter_energy>  (11) 
-786.1442743735578

>  <intra_energy>  (11) 
37.14480696987254

>  <rmsd>  (11) 
5.48756

>  <sdf_rank>  (11) 
0

$$$$

     RDKit          3D

 56 58  0  0  0  0  0  0  0  0999 V2000
   12.3072    4.5888   35.9101 N   0  0  0  0  0  0  0  0  0  0  0  0
   11.2272    4.4784   36.6901 C   0  0  0  0  0  0  0  0  0  0  0  0
   10.1694    5.2982   36.7825 N   0  0  0  0  0  0  0  0  0  0  0  0
   10.2922    6.3369   35.9456 C   0  0  0  0  0  0  0  0  0  0  0  0
   11.3462    6.5826   35.0782 C   0  0  0  0  0  0  0  0  0  0  0  0
   12.3980    5.6422   35.0685 C   0  0  0  0  0  0  0  0  0  0  0  0
    9.4043    7.3681   35.7582 N   0  0  0  0  0  0  0  0  0  0  0  0
    9.9647    8.1716   34.7979 C   0  0  0  0  0  0  0  0  0  0  0  0
   11.1277    7.7503   34.3593 N   0  0  0  0  0  0  0  0  0  0  0  0
    8.1555    7.5801   36.4790 C   0  0  1  0  0  0  0  0  0  0  0  0
    7.0721    6.5455   36.1811 C   0  0  1  0  0  0  0  0  0  0  0  0
    6.1928    6.7414   37.4091 C   0  0  1  0  0  0  0  0  0  0  0  0
    7.2295    6.9320   38.5200 C   0  0  2  0  0  0  0  0  0  0  0  0
    8.4052    7.4699   37.8685 O   0  0  0  0  0  0  0  0  0  0  0  0
   13.4620    5.7206   34.2638 N   0  0  0  0  0  0  0  0  0  0  0  0
    7.6114    5.6841   39.2755 C   0  0  0  0  0  0  0  0  0  0  0  0
    8.1498    6.0749   40.5530 O   0  0  0  0  0  0  0  0  0  0  0  0
    8.2842    5.0652   41.7557 P   0  0  2  0  0  0  0  0  0  0  0  0
    8.3191    5.8746   43.0010 O   0  0  0  0  0  0  0  0  0  0  0  0
    9.7797    4.4282   41.5476 O   0  0  0  0  0  0  0  0  0  0  0  0
    6.3789    6.8195   34.9692 O   0  0  0  0  0  0  0  0  0  0  0  0
    5.4222    7.9294   37.2533 O   0  0  0  0  0  0  0  0  0  0  0  0
    7.3593    3.9253   41.6316 O   0  0  0  0  0  0  0  0  0  0  0  0
   11.0392    4.7098   42.1406 C   0  0  0  0  0  0  0  0  0  0  0  0
   11.5323    6.1549   42.0620 C   0  0  1  0  0  0  0  0  0  0  0  0
   11.6588    3.8358   42.6839 O   0  0  0  0  0  0  0  0  0  0  0  0
   12.5570    6.3983   43.0563 N   0  0  0  0  0  0  0  0  0  0  0  0
   11.9358    6.5242   40.6196 C   0  0  2  0  0  0  0  0  0  0  0  0
   13.4198    6.9098   40.5434 C   0  0  0  0  0  0  0  0  0  0  0  0
   13.7151    8.1589   39.7429 C   0  0  0  0  0  0  0  0  0  0  0  0
   11.0253    7.6294   40.0834 C   0  0  0  0  0  0  0  0  0  0  0  0
   11.2025    3.5952   37.3452 H   0  0  0  0  0  0  0  0  0  0  0  0
    9.4819    9.0881   34.4281 H   0  0  0  0  0  0  0  0  0  0  0  0
    7.7994    8.5703   36.1585 H   0  0  0  0  0  0  0  0  0  0  0  0
    7.4372    5.5193   36.0274 H   0  0  0  0  0  0  0  0  0  0  0  0
    5.4864    5.9195   37.5975 H   0  0  0  0  0  0  0  0  0  0  0  0
    6.7894    7.5897   39.2841 H   0  0  0  0  0  0  0  0  0  0  0  0
   13.5575    6.5124   33.6120 H   0  0  0  0  0  0  0  0  0  0  0  0
   14.1865    4.9892   34.2953 H   0  0  0  0  0  0  0  0  0  0  0  0
    6.7230    5.0527   39.4239 H   0  0  0  0  0  0  0  0  0  0  0  0
    8.3603    5.1122   38.7080 H   0  0  0  0  0  0  0  0  0  0  0  0
    5.4788    7.1754   35.1771 H   0  0  0  0  0  0  0  0  0  0  0  0
    5.1882    8.2902   38.1450 H   0  0  0  0  0  0  0  0  0  0  0  0
   10.7089    6.8397   42.3131 H   0  0  0  0  0  0  0  0  0  0  0  0
   12.1513    6.3019   43.9982 H   0  0  0  0  0  0  0  0  0  0  0  0
   13.3185    5.7148   42.9389 H   0  0  0  0  0  0  0  0  0  0  0  0
   12.9298    7.3512   42.9389 H   0  0  0  0  0  0  0  0  0  0  0  0
   11.8041    5.6412   39.9769 H   0  0  0  0  0  0  0  0  0  0  0  0
   13.7846    7.0676   41.5691 H   0  0  0  0  0  0  0  0  0  0  0  0
   13.9259    6.0837   40.0224 H   0  0  0  0  0  0  0  0  0  0  0  0
   13.9129    8.9958   40.4289 H   0  0  0  0  0  0  0  0  0  0  0  0
   14.5976    7.9881   39.1089 H   0  0  0  0  0  0  0  0  0  0  0  0
   12.8495    8.4013   39.1089 H   0  0  0  0  0  0  0  0  0  0  0  0
   10.5757    8.1751   40.9260 H   0  0  0  0  0  0  0  0  0  0  0  0
   11.6157    8.3251   39.4692 H   0  0  0  0  0  0  0  0  0  0  0  0
   10.2294    7.1830   39.4692 H   0  0  0  0  0  0  0  0  0  0  0  0
  1  2  2  0
  1  6  1  0
  2  3  1  0
  3  4  2  0
  4  5  1  0
  4  7  1  0
  5  6  2  0
  5  9  1  0
  6 15  1  0
  7  8  1  0
 10  7  1  0
  8  9  2  0
 10 11  1  0
 10 14  1  0
 11 12  1  0
 11 21  1  0
 12 13  1  0
 12 22  1  0
 13 14  1  0
 13 16  1  0
 16 17  1  0
 17 18  1  0
 18 19  2  0
 18 20  1  0
 18 23  1  1
 20 24  1  0
 24 25  1  0
 24 26  2  0
 25 27  1  0
 25 28  1  0
 28 29  1  0
 28 31  1  0
 29 30  1  0
  2 32  1  0
  8 33  1  0
 10 34  1  1
 11 35  1  6
 12 36  1  1
 13 37  1  1
 15 38  1  0
 15 39  1  0
 16 40  1  0
 16 41  1  0
 21 42  1  0
 22 43  1  0
 25 44  1  1
 27 45  1  0
 27 46  1  0
 27 47  1  0
 28 48  1  6
 29 49  1  0
 29 50  1  0
 30 51  1  0
 30 52  1  0
 30 53  1  0
 31 54  1  0
 31 55  1  0
 31 56  1  0
M  CHG  2  23  -1  27   1
M  END
>  <filename_input>  (12) 
7D5C_GV6_docked.sdf

>  <pdb_id>  (12) 
7D5C_GV6

>  <pose_rank>  (12) 
11

>  <num_atoms_heavy>  (12) 
31

>  <num_torsions>  (12) 
9

>  <pose>  (12) 
[8.155522273089288, 7.580096948819106, 36.4790400745978, 0.6323880574484032, -0.35007297697078227, -0.9505576194583919, -3.241066854708889, 2.5496401666518484, -0.2848099347974289, 0.22629438662970713, 0.47804179083776044, 2.1317189346638914, 3.148120369844568, -1.2046462619260507, 0.9206418325474872]

>  <energy>  (12) 
-749.0764141277702

>  <inter_energy>  (12) 
-769.0480519271908

>  <intra_energy>  (12) 
15.858012177264914

>  <rmsd>  (12) 
3.92467

>  <sdf_rank>  (12) 
0

$$$$

     RDKit          3D

 56 58  0  0  0  0  0  0  0  0999 V2000
   12.1596    3.7102   43.6434 N   0  0  0  0  0  0  0  0  0  0  0  0
   12.0378    4.4219   42.5184 C   0  0  0  0  0  0  0  0  0  0  0  0
   10.9280    4.9259   41.9582 N   0  0  0  0  0  0  0  0  0  0  0  0
    9.8450    4.6332   42.6904 C   0  0  0  0  0  0  0  0  0  0  0  0
    9.8151    3.9119   43.8747 C   0  0  0  0  0  0  0  0  0  0  0  0
   11.0504    3.4395   44.3662 C   0  0  0  0  0  0  0  0  0  0  0  0
    8.5432    4.9901   42.4358 N   0  0  0  0  0  0  0  0  0  0  0  0
    7.8062    4.4705   43.4695 C   0  0  0  0  0  0  0  0  0  0  0  0
    8.5164    3.8132   44.3560 N   0  0  0  0  0  0  0  0  0  0  0  0
    8.0552    5.7220   41.2738 C   0  0  1  0  0  0  0  0  0  0  0  0
    8.3193    7.2257   41.3192 C   0  0  1  0  0  0  0  0  0  0  0  0
    8.1849    7.5495   39.8371 C   0  0  1  0  0  0  0  0  0  0  0  0
    8.8751    6.3498   39.1818 C   0  0  2  0  0  0  0  0  0  0  0  0
    8.7358    5.2578   40.1222 O   0  0  0  0  0  0  0  0  0  0  0  0
   11.1890    2.7631   45.5103 N   0  0  0  0  0  0  0  0  0  0  0  0
   10.3355    6.5369   38.8557 C   0  0  0  0  0  0  0  0  0  0  0  0
   10.4490    7.5757   37.8647 O   0  0  0  0  0  0  0  0  0  0  0  0
   10.4684    7.2679   36.3190 P   0  0  2  0  0  0  0  0  0  0  0  0
    9.2047    6.5539   36.0020 O   0  0  0  0  0  0  0  0  0  0  0  0
   11.6899    6.1861   36.1656 O   0  0  0  0  0  0  0  0  0  0  0  0
    7.3654    7.9203   42.1141 O   0  0  0  0  0  0  0  0  0  0  0  0
    6.8054    7.5712   39.4819 O   0  0  0  0  0  0  0  0  0  0  0  0
   10.8859    8.4357   35.5240 O   0  0  0  0  0  0  0  0  0  0  0  0
   12.9104    6.2060   35.4396 C   0  0  0  0  0  0  0  0  0  0  0  0
   13.3337    4.9015   34.7638 C   0  0  1  0  0  0  0  0  0  0  0  0
   13.5516    7.2190   35.3657 O   0  0  0  0  0  0  0  0  0  0  0  0
   12.7665    3.7622   35.4553 N   0  0  0  0  0  0  0  0  0  0  0  0
   13.0437    4.9435   33.2492 C   0  0  2  0  0  0  0  0  0  0  0  0
   14.2202    5.5598   32.4791 C   0  0  0  0  0  0  0  0  0  0  0  0
   13.9283    5.9044   31.0353 C   0  0  0  0  0  0  0  0  0  0  0  0
   11.7313    5.6819   32.9834 C   0  0  0  0  0  0  0  0  0  0  0  0
   12.9752    4.6215   41.9786 H   0  0  0  0  0  0  0  0  0  0  0  0
    6.7160    4.5938   43.5483 H   0  0  0  0  0  0  0  0  0  0  0  0
    6.9685    5.5521   41.2588 H   0  0  0  0  0  0  0  0  0  0  0  0
    9.2767    7.5172   41.7756 H   0  0  0  0  0  0  0  0  0  0  0  0
    8.6100    8.5208   39.5442 H   0  0  0  0  0  0  0  0  0  0  0  0
    8.3977    6.1763   38.2061 H   0  0  0  0  0  0  0  0  0  0  0  0
   10.3609    2.5427   46.0818 H   0  0  0  0  0  0  0  0  0  0  0  0
   12.1238    2.4621   45.8207 H   0  0  0  0  0  0  0  0  0  0  0  0
   10.8849    6.8273   39.7634 H   0  0  0  0  0  0  0  0  0  0  0  0
   10.7607    5.5983   38.4708 H   0  0  0  0  0  0  0  0  0  0  0  0
    7.5657    7.7744   43.0726 H   0  0  0  0  0  0  0  0  0  0  0  0
    6.2532    7.5799   40.3035 H   0  0  0  0  0  0  0  0  0  0  0  0
   14.4243    4.7819   34.8432 H   0  0  0  0  0  0  0  0  0  0  0  0
   12.8386    3.9071   36.4725 H   0  0  0  0  0  0  0  0  0  0  0  0
   11.7759    3.6594   35.1926 H   0  0  0  0  0  0  0  0  0  0  0  0
   13.2816    2.9098   35.1926 H   0  0  0  0  0  0  0  0  0  0  0  0
   12.9283    3.9134   32.8810 H   0  0  0  0  0  0  0  0  0  0  0  0
   14.5206    6.4829   32.9963 H   0  0  0  0  0  0  0  0  0  0  0  0
   15.0095    4.7940   32.4590 H   0  0  0  0  0  0  0  0  0  0  0  0
   13.2178    6.7432   30.9950 H   0  0  0  0  0  0  0  0  0  0  0  0
   14.8628    6.1907   30.5306 H   0  0  0  0  0  0  0  0  0  0  0  0
   13.4921    5.0298   30.5306 H   0  0  0  0  0  0  0  0  0  0  0  0
   11.2595    5.9474   33.9410 H   0  0  0  0  0  0  0  0  0  0  0  0
   11.9356    6.5975   32.4090 H   0  0  0  0  0  0  0  0  0  0  0  0
   11.0548    5.0320   32.4090 H   0  0  0  0  0  0  0  0  0  0  0  0
  1  2  2  0
  1  6  1  0
  2  3  1  0
  3  4  2  0
  4  5  1  0
  4  7  1  0
  5  6  2  0
  5  9  1  0
  6 15  1  0
  7  8  1  0
 10  7  1  0
  8  9  2  0
 10 11  1  0
 10 14  1  0
 11 12  1  0
 11 21  1  0
 12 13  1  0
 12 22  1  0
 13 14  1  0
 13 16  1  0
 16 17  1  0
 17 18  1  0
 18 19  2  0
 18 20  1  0
 18 23  1  6
 20 24  1  0
 24 25  1  0
 24 26  2  0
 25 27  1  0
 25 28  1  0
 28 29  1  0
 28 31  1  0
 29 30  1  0
  2 32  1  0
  8 33  1  0
 10 34  1  6
 11 35  1  1
 12 36  1  1
 13 37  1  6
 15 38  1  0
 15 39  1  0
 16 40  1  0
 16 41  1  0
 21 42  1  0
 22 43  1  0
 25 44  1  6
 27 45  1  0
 27 46  1  0
 27 47  1  0
 28 48  1  6
 29 49  1  0
 29 50  1  0
 30 51  1  0
 30 52  1  0
 30 53  1  0
 31 54  1  0
 31 55  1  0
 31 56  1  0
M  CHG  2  23  -1  27   1
M  END
>  <filename_input>  (13) 
7D5C_GV6_docked.sdf

>  <pdb_id>  (13) 
7D5C_GV6

>  <pose_rank>  (13) 
12

>  <num_atoms_heavy>  (13) 
31

>  <num_torsions>  (13) 
9

>  <pose>  (13) 
[8.05519838135681, 5.7219836308850045, 41.27383016670983, 3.5353964021565907, 0.16153594252591405, 0.6272322990130019, 2.884912626717287, -2.0968201940892124, 1.5482970467986912, -8.581206951272478, -15.902835027232017, -5.6369336113530935, -18.960931161804634, 2.4006253963292026, 0.3321731074429905]

>  <energy>  (13) 
-812.4081440177933

>  <inter_energy>  (13) 
-834.5194534973718

>  <intra_energy>  (13) 
31.736328472775785

>  <rmsd>  (13) 
8.30755

>  <sdf_rank>  (13) 
0

$$$$

     RDKit          3D

 56 58  0  0  0  0  0  0  0  0999 V2000
    6.0855    6.6423   36.6664 N   0  0  0  0  0  0  0  0  0  0  0  0
    7.2025    6.1356   37.1979 C   0  0  0  0  0  0  0  0  0  0  0  0
    8.4548    6.1752   36.7186 N   0  0  0  0  0  0  0  0  0  0  0  0
    8.5019    6.8310   35.5516 C   0  0  0  0  0  0  0  0  0  0  0  0
    7.4341    7.4114   34.8831 C   0  0  0  0  0  0  0  0  0  0  0  0
    6.1661    7.3078   35.4931 C   0  0  0  0  0  0  0  0  0  0  0  0
    9.6086    7.0786   34.7766 N   0  0  0  0  0  0  0  0  0  0  0  0
    9.1536    7.7877   33.6940 C   0  0  0  0  0  0  0  0  0  0  0  0
    7.8605    8.0113   33.7056 N   0  0  0  0  0  0  0  0  0  0  0  0
   10.9694    6.6262   35.0369 C   0  0  1  0  0  0  0  0  0  0  0  0
   12.0481    7.6631   34.7304 C   0  0  1  0  0  0  0  0  0  0  0  0
   13.1874    7.0955   35.5666 C   0  0  1  0  0  0  0  0  0  0  0  0
   12.4590    6.6350   36.8324 C   0  0  2  0  0  0  0  0  0  0  0  0
   11.1018    6.3466   36.4186 O   0  0  0  0  0  0  0  0  0  0  0  0
    5.0504    7.8459   34.9917 N   0  0  0  0  0  0  0  0  0  0  0  0
   12.4286    7.6302   37.9649 C   0  0  0  0  0  0  0  0  0  0  0  0
   11.3518    7.2736   38.8526 O   0  0  0  0  0  0  0  0  0  0  0  0
   11.6037    6.7843   40.3294 P   0  0  2  0  0  0  0  0  0  0  0  0
   12.0805    5.3796   40.2466 O   0  0  0  0  0  0  0  0  0  0  0  0
   10.0986    6.7496   40.9768 O   0  0  0  0  0  0  0  0  0  0  0  0
   12.3686    7.7194   33.3453 O   0  0  0  0  0  0  0  0  0  0  0  0
   13.7526    5.9736   34.8948 O   0  0  0  0  0  0  0  0  0  0  0  0
   12.3432    7.7781   41.1267 O   0  0  0  0  0  0  0  0  0  0  0  0
    9.3214    5.7115   41.5561 C   0  0  0  0  0  0  0  0  0  0  0  0
    9.6293    5.3460   43.0084 C   0  0  1  0  0  0  0  0  0  0  0  0
    8.4597    5.1739   40.9148 O   0  0  0  0  0  0  0  0  0  0  0  0
    8.4041    5.1818   43.7632 N   0  0  0  0  0  0  0  0  0  0  0  0
   10.5963    4.1465   43.0839 C   0  0  2  0  0  0  0  0  0  0  0  0
    9.9483    2.9604   43.8120 C   0  0  0  0  0  0  0  0  0  0  0  0
   10.5833    2.5996   45.1367 C   0  0  0  0  0  0  0  0  0  0  0  0
   11.9139    4.5708   43.7335 C   0  0  0  0  0  0  0  0  0  0  0  0
    7.0778    5.6153   38.1590 H   0  0  0  0  0  0  0  0  0  0  0  0
    9.8144    8.1380   32.8874 H   0  0  0  0  0  0  0  0  0  0  0  0
   11.1165    5.7555   34.3809 H   0  0  0  0  0  0  0  0  0  0  0  0
   11.7736    8.7032   34.9604 H   0  0  0  0  0  0  0  0  0  0  0  0
   14.0064    7.8042   35.7587 H   0  0  0  0  0  0  0  0  0  0  0  0
   13.0049    5.7722   37.2418 H   0  0  0  0  0  0  0  0  0  0  0  0
    5.0821    8.3588   34.0990 H   0  0  0  0  0  0  0  0  0  0  0  0
    4.1588    7.7479   35.4979 H   0  0  0  0  0  0  0  0  0  0  0  0
   13.3839    7.6029   38.5096 H   0  0  0  0  0  0  0  0  0  0  0  0
   12.2749    8.6461   37.5722 H   0  0  0  0  0  0  0  0  0  0  0  0
   13.3379    7.8896   33.2375 H   0  0  0  0  0  0  0  0  0  0  0  0
   14.0816    5.3206   35.5622 H   0  0  0  0  0  0  0  0  0  0  0  0
   10.1649    6.1763   43.4921 H   0  0  0  0  0  0  0  0  0  0  0  0
    8.6152    5.2101   44.7709 H   0  0  0  0  0  0  0  0  0  0  0  0
    7.7511    5.9428   43.5277 H   0  0  0  0  0  0  0  0  0  0  0  0
    7.9746    4.2757   43.5277 H   0  0  0  0  0  0  0  0  0  0  0  0
   10.8214    3.8069   42.0622 H   0  0  0  0  0  0  0  0  0  0  0  0
    8.8925    3.2083   43.9959 H   0  0  0  0  0  0  0  0  0  0  0  0
   10.0839    2.0865   43.1578 H   0  0  0  0  0  0  0  0  0  0  0  0
    9.9475    2.9608   45.9586 H   0  0  0  0  0  0  0  0  0  0  0  0
   10.6884    1.5069   45.2075 H   0  0  0  0  0  0  0  0  0  0  0  0
   11.5757    3.0688   45.2075 H   0  0  0  0  0  0  0  0  0  0  0  0
   11.8105    4.5375   44.8282 H   0  0  0  0  0  0  0  0  0  0  0  0
   12.7149    3.8852   43.4199 H   0  0  0  0  0  0  0  0  0  0  0  0
   12.1643    5.5950   43.4199 H   0  0  0  0  0  0  0  0  0  0  0  0
  1  2  2  0
  1  6  1  0
  2  3  1  0
  3  4  2  0
  4  5  1  0
  4  7  1  0
  5  6  2  0
  5  9  1  0
  6 15  1  0
  7  8  1  0
 10  7  1  0
  8  9  2  0
 10 11  1  0
 10 14  1  0
 11 12  1  0
 11 21  1  0
 12 13  1  0
 12 22  1  0
 13 14  1  0
 13 16  1  0
 16 17  1  0
 17 18  1  0
 18 19  2  0
 18 20  1  0
 18 23  1  1
 20 24  1  0
 24 25  1  0
 24 26  2  0
 25 27  1  0
 25 28  1  0
 28 29  1  0
 28 31  1  0
 29 30  1  0
  2 32  1  0
  8 33  1  0
 10 34  1  6
 11 35  1  1
 12 36  1  1
 13 37  1  1
 15 38  1  0
 15 39  1  0
 16 40  1  0
 16 41  1  0
 21 42  1  0
 22 43  1  0
 25 44  1  1
 27 45  1  0
 27 46  1  0
 27 47  1  0
 28 48  1  6
 29 49  1  0
 29 50  1  0
 30 51  1  0
 30 52  1  0
 30 53  1  0
 31 54  1  0
 31 55  1  0
 31 56  1  0
M  CHG  2  23  -1  27   1
M  END
>  <filename_input>  (14) 
7D5C_GV6_docked.sdf

>  <pdb_id>  (14) 
7D5C_GV6

>  <pose_rank>  (14) 
13

>  <num_atoms_heavy>  (14) 
31

>  <num_torsions>  (14) 
9

>  <pose>  (14) 
[10.969368145691234, 6.626166776287901, 35.03685201197541, 0.8800865334753625, 0.5845908760242675, 2.0491395696280907, 1.796180055084265, 1.8154793630667467, -1.133535334077691, 1.6410539216584952, 0.8591268873416196, -1.7882646509898361, 2.713927866553326, -1.202613283722147, 1.2821843815070415]

>  <energy>  (14) 
-796.4223530857366

>  <inter_energy>  (14) 
-793.0236655822509

>  <intra_energy>  (14) 
25.73557599695503

>  <rmsd>  (14) 
3.98914

>  <sdf_rank>  (14) 
0

$$$$

     RDKit          3D

 56 58  0  0  0  0  0  0  0  0999 V2000
   12.0898    6.4544   32.4195 N   0  0  0  0  0  0  0  0  0  0  0  0
   12.5349    5.4954   33.2375 C   0  0  0  0  0  0  0  0  0  0  0  0
   12.3399    5.3589   34.5577 N   0  0  0  0  0  0  0  0  0  0  0  0
   11.5861    6.3568   35.0376 C   0  0  0  0  0  0  0  0  0  0  0  0
   11.0518    7.4134   34.3152 C   0  0  0  0  0  0  0  0  0  0  0  0
   11.3228    7.4425   32.9309 C   0  0  0  0  0  0  0  0  0  0  0  0
   11.1731    6.5425   36.3344 N   0  0  0  0  0  0  0  0  0  0  0  0
   10.4198    7.6888   36.3244 C   0  0  0  0  0  0  0  0  0  0  0  0
   10.3177    8.2521   35.1434 N   0  0  0  0  0  0  0  0  0  0  0  0
   11.5190    5.7141   37.4825 C   0  0  1  0  0  0  0  0  0  0  0  0
   12.7781    6.1586   38.2242 C   0  0  1  0  0  0  0  0  0  0  0  0
   12.5407    5.4664   39.5599 C   0  0  1  0  0  0  0  0  0  0  0  0
   11.0368    5.6696   39.7648 C   0  0  2  0  0  0  0  0  0  0  0  0
   10.4754    5.7956   38.4362 O   0  0  0  0  0  0  0  0  0  0  0  0
   10.8489    8.3730   32.0969 N   0  0  0  0  0  0  0  0  0  0  0  0
   10.6478    6.8763   40.5811 C   0  0  0  0  0  0  0  0  0  0  0  0
   10.2454    6.4278   41.8893 O   0  0  0  0  0  0  0  0  0  0  0  0
    8.8523    5.7393   42.1528 P   0  0  2  0  0  0  0  0  0  0  0  0
    8.9924    4.3121   41.7645 O   0  0  0  0  0  0  0  0  0  0  0  0
    7.8672    6.4485   41.0518 O   0  0  0  0  0  0  0  0  0  0  0  0
   13.9692    5.7121   37.5869 O   0  0  0  0  0  0  0  0  0  0  0  0
   12.8310    4.0777   39.4302 O   0  0  0  0  0  0  0  0  0  0  0  0
    8.2901    6.1045   43.4645 O   0  0  0  0  0  0  0  0  0  0  0  0
    7.3209    6.0039   39.8184 C   0  0  0  0  0  0  0  0  0  0  0  0
    6.8396    7.0821   38.8472 C   0  0  1  0  0  0  0  0  0  0  0  0
    7.2658    4.8296   39.5718 O   0  0  0  0  0  0  0  0  0  0  0  0
    7.8561    8.0986   38.6700 N   0  0  0  0  0  0  0  0  0  0  0  0
    6.3225    6.4549   37.5361 C   0  0  2  0  0  0  0  0  0  0  0  0
    6.9823    7.1089   36.3139 C   0  0  0  0  0  0  0  0  0  0  0  0
    6.6319    6.4778   34.9845 C   0  0  0  0  0  0  0  0  0  0  0  0
    4.7966    6.5350   37.4787 C   0  0  0  0  0  0  0  0  0  0  0  0
   13.1439    4.7116   32.7636 H   0  0  0  0  0  0  0  0  0  0  0  0
    9.9432    8.0997   37.2266 H   0  0  0  0  0  0  0  0  0  0  0  0
   11.6839    4.7060   37.0744 H   0  0  0  0  0  0  0  0  0  0  0  0
   12.9250    7.2472   38.2823 H   0  0  0  0  0  0  0  0  0  0  0  0
   13.1571    5.8503   40.3861 H   0  0  0  0  0  0  0  0  0  0  0  0
   10.6556    4.8148   40.3427 H   0  0  0  0  0  0  0  0  0  0  0  0
   10.2616    9.1379   32.4588 H   0  0  0  0  0  0  0  0  0  0  0  0
   11.0710    8.3253   31.0923 H   0  0  0  0  0  0  0  0  0  0  0  0
   11.5068    7.5578   40.6697 H   0  0  0  0  0  0  0  0  0  0  0  0
    9.8204    7.4127   40.0936 H   0  0  0  0  0  0  0  0  0  0  0  0
   14.6370    5.4618   38.2735 H   0  0  0  0  0  0  0  0  0  0  0  0
   12.9157    3.6729   40.3297 H   0  0  0  0  0  0  0  0  0  0  0  0
    5.9718    7.6043   39.2765 H   0  0  0  0  0  0  0  0  0  0  0  0
    8.1811    8.4236   39.5918 H   0  0  0  0  0  0  0  0  0  0  0  0
    8.6497    7.7029   38.1461 H   0  0  0  0  0  0  0  0  0  0  0  0
    7.4604    8.8922   38.1461 H   0  0  0  0  0  0  0  0  0  0  0  0
    6.6025    5.3914   37.5166 H   0  0  0  0  0  0  0  0  0  0  0  0
    6.6730    8.1641   36.2828 H   0  0  0  0  0  0  0  0  0  0  0  0
    8.0667    6.9754   36.4415 H   0  0  0  0  0  0  0  0  0  0  0  0
    6.1046    5.5280   35.1572 H   0  0  0  0  0  0  0  0  0  0  0  0
    5.9829    7.1591   34.4148 H   0  0  0  0  0  0  0  0  0  0  0  0
    7.5534    6.2873   34.4148 H   0  0  0  0  0  0  0  0  0  0  0  0
    4.3918    6.5562   38.5012 H   0  0  0  0  0  0  0  0  0  0  0  0
    4.4972    7.4501   36.9467 H   0  0  0  0  0  0  0  0  0  0  0  0
    4.4031    5.6562   36.9467 H   0  0  0  0  0  0  0  0  0  0  0  0
  1  2  2  0
  1  6  1  0
  2  3  1  0
  3  4  2  0
  4  5  1  0
  4  7  1  0
  5  6  2  0
  5  9  1  0
  6 15  1  0
  7  8  1  0
 10  7  1  0
  8  9  2  0
 10 11  1  0
 10 14  1  0
 11 12  1  0
 11 21  1  0
 12 13  1  0
 12 22  1  0
 13 14  1  0
 13 16  1  0
 16 17  1  0
 17 18  1  0
 18 19  2  0
 18 20  1  0
 18 23  1  1
 20 24  1  0
 24 25  1  0
 24 26  2  0
 25 27  1  0
 25 28  1  0
 28 29  1  0
 28 31  1  0
 29 30  1  0
  2 32  1  0
  8 33  1  0
 10 34  1  6
 11 35  1  1
 12 36  1  1
 13 37  1  1
 15 38  1  0
 15 39  1  0
 16 40  1  0
 16 41  1  0
 21 42  1  0
 22 43  1  0
 25 44  1  1
 27 45  1  0
 27 46  1  0
 27 47  1  0
 28 48  1  1
 29 49  1  0
 29 50  1  0
 30 51  1  0
 30 52  1  0
 30 53  1  0
 31 54  1  0
 31 55  1  0
 31 56  1  0
M  CHG  2  23  -1  27   1
M  END
>  <filename_input>  (15) 
7D5C_GV6_docked.sdf

>  <pdb_id>  (15) 
7D5C_GV6

>  <pose_rank>  (15) 
14

>  <num_atoms_heavy>  (15) 
31

>  <num_torsions>  (15) 
9

>  <pose>  (15) 
[11.518986582446557, 5.714101307827226, 37.48254558010355, 0.011439180632229403, 0.07040120247161669, -4.572908955318147, -19.32031595795426, 9.76305523782021, 14.405198401919256, -1.8969685232784548, 0.569928059273609, 6.590555225025309, 1.2065788365783605, -1.3693272630335607, 0.03364459099825516]

>  <energy>  (15) 
-767.9348764469682

>  <inter_energy>  (15) 
-793.1629011963495

>  <intra_energy>  (15) 
23.10910611789393

>  <rmsd>  (15) 
5.16781

>  <sdf_rank>  (15) 
0

$$$$

     RDKit          3D

 56 58  0  0  0  0  0  0  0  0999 V2000
    8.5723    8.8307   40.7652 N   0  0  0  0  0  0  0  0  0  0  0  0
    9.7557    8.4491   40.2745 C   0  0  0  0  0  0  0  0  0  0  0  0
   10.0309    7.8756   39.0934 N   0  0  0  0  0  0  0  0  0  0  0  0
    8.9154    7.7021   38.3723 C   0  0  0  0  0  0  0  0  0  0  0  0
    7.6251    8.0492   38.7445 C   0  0  0  0  0  0  0  0  0  0  0  0
    7.4659    8.6522   40.0102 C   0  0  0  0  0  0  0  0  0  0  0  0
    8.8095    7.1585   37.1152 N   0  0  0  0  0  0  0  0  0  0  0  0
    7.4752    7.2067   36.8004 C   0  0  0  0  0  0  0  0  0  0  0  0
    6.7216    7.7266   37.7407 N   0  0  0  0  0  0  0  0  0  0  0  0
    9.8932    6.5993   36.3172 C   0  0  1  0  0  0  0  0  0  0  0  0
   11.2513    7.2591   36.5479 C   0  0  1  0  0  0  0  0  0  0  0  0
   12.1593    6.1587   36.0148 C   0  0  1  0  0  0  0  0  0  0  0  0
   11.4700    4.8934   36.5333 C   0  0  2  0  0  0  0  0  0  0  0  0
   10.0719    5.2414   36.6764 O   0  0  0  0  0  0  0  0  0  0  0  0
    6.2939    9.0750   40.4933 N   0  0  0  0  0  0  0  0  0  0  0  0
   11.9838    4.3643   37.8486 C   0  0  0  0  0  0  0  0  0  0  0  0
   11.7002    5.3386   38.8707 O   0  0  0  0  0  0  0  0  0  0  0  0
   12.6585    5.5748   40.0995 P   0  0  2  0  0  0  0  0  0  0  0  0
   13.4544    4.3326   40.2751 O   0  0  0  0  0  0  0  0  0  0  0  0
   11.6265    5.6748   41.3686 O   0  0  0  0  0  0  0  0  0  0  0  0
   11.3930    8.4762   35.8247 O   0  0  0  0  0  0  0  0  0  0  0  0
   12.1364    6.1765   34.5905 O   0  0  0  0  0  0  0  0  0  0  0  0
   13.3256    6.8869   40.0410 O   0  0  0  0  0  0  0  0  0  0  0  0
   10.7279    4.7453   41.9567 C   0  0  0  0  0  0  0  0  0  0  0  0
   11.1065    4.1931   43.3311 C   0  0  1  0  0  0  0  0  0  0  0  0
    9.7183    4.4374   41.3834 O   0  0  0  0  0  0  0  0  0  0  0  0
   11.6607    5.2393   44.1655 N   0  0  0  0  0  0  0  0  0  0  0  0
    9.9275    3.4243   43.9625 C   0  0  2  0  0  0  0  0  0  0  0  0
    8.6360    4.2525   43.9072 C   0  0  0  0  0  0  0  0  0  0  0  0
    7.3895    3.4696   43.5584 C   0  0  0  0  0  0  0  0  0  0  0  0
   10.2782    2.9987   45.3887 C   0  0  0  0  0  0  0  0  0  0  0  0
   10.6217    8.6299   40.9281 H   0  0  0  0  0  0  0  0  0  0  0  0
    7.0724    6.8418   35.8441 H   0  0  0  0  0  0  0  0  0  0  0  0
    9.5945    6.7570   35.2704 H   0  0  0  0  0  0  0  0  0  0  0  0
   11.4501    7.5664   37.5853 H   0  0  0  0  0  0  0  0  0  0  0  0
   13.2113    6.2491   36.3229 H   0  0  0  0  0  0  0  0  0  0  0  0
   11.6680    4.0825   35.8169 H   0  0  0  0  0  0  0  0  0  0  0  0
    5.4341    8.9521   39.9396 H   0  0  0  0  0  0  0  0  0  0  0  0
    6.2503    9.5239   41.4193 H   0  0  0  0  0  0  0  0  0  0  0  0
   11.4815    3.4158   38.0895 H   0  0  0  0  0  0  0  0  0  0  0  0
   13.0672    4.1845   37.7871 H   0  0  0  0  0  0  0  0  0  0  0  0
   11.4808    9.2297   36.4608 H   0  0  0  0  0  0  0  0  0  0  0  0
   11.3958    6.7553   34.2795 H   0  0  0  0  0  0  0  0  0  0  0  0
   11.9080    3.4478   43.2211 H   0  0  0  0  0  0  0  0  0  0  0  0
   11.5302    4.9929   45.1571 H   0  0  0  0  0  0  0  0  0  0  0  0
   12.6661    5.3409   43.9664 H   0  0  0  0  0  0  0  0  0  0  0  0
   11.1797    6.1281   43.9664 H   0  0  0  0  0  0  0  0  0  0  0  0
    9.7444    2.5115   43.3767 H   0  0  0  0  0  0  0  0  0  0  0  0
    8.4841    4.7141   44.8940 H   0  0  0  0  0  0  0  0  0  0  0  0
    8.7751    4.9856   43.0990 H   0  0  0  0  0  0  0  0  0  0  0  0
    6.8848    3.1527   44.4830 H   0  0  0  0  0  0  0  0  0  0  0  0
    6.7109    4.1040   42.9693 H   0  0  0  0  0  0  0  0  0  0  0  0
    7.6663    2.5829   42.9693 H   0  0  0  0  0  0  0  0  0  0  0  0
    9.7471    3.6432   46.1047 H   0  0  0  0  0  0  0  0  0  0  0  0
    9.9768    1.9523   45.5437 H   0  0  0  0  0  0  0  0  0  0  0  0
   11.3630    3.0946   45.5437 H   0  0  0  0  0  0  0  0  0  0  0  0
  1  2  2  0
  1  6  1  0
  2  3  1  0
  3  4  2  0
  4  5  1  0
  4  7  1  0
  5  6  2  0
  5  9  1  0
  6 15  1  0
  7  8  1  0
 10  7  1  0
  8  9  2  0
 10 11  1  0
 10 14  1  0
 11 12  1  0
 11 21  1  0
 12 13  1  0
 12 22  1  0
 13 14  1  0
 13 16  1  0
 16 17  1  0
 17 18  1  0
 18 19  2  0
 18 20  1  0
 18 23  1  6
 20 24  1  0
 24 25  1  0
 24 26  2  0
 25 27  1  0
 25 28  1  0
 28 29  1  0
 28 31  1  0
 29 30  1  0
  2 32  1  0
  8 33  1  0
 10 34  1  6
 11 35  1  1
 12 36  1  6
 13 37  1  6
 15 38  1  0
 15 39  1  0
 16 40  1  0
 16 41  1  0
 21 42  1  0
 22 43  1  0
 25 44  1  6
 27 45  1  0
 27 46  1  0
 27 47  1  0
 28 48  1  6
 29 49  1  0
 29 50  1  0
 30 51  1  0
 30 52  1  0
 30 53  1  0
 31 54  1  0
 31 55  1  0
 31 56  1  0
M  CHG  2  23  -1  27   1
M  END
>  <filename_input>  (16) 
7D5C_GV6_docked.sdf

>  <pdb_id>  (16) 
7D5C_GV6

>  <pose_rank>  (16) 
15

>  <num_atoms_heavy>  (16) 
31

>  <num_torsions>  (16) 
9

>  <pose>  (16) 
[9.893226310199852, 6.599349801132013, 36.317241445125084, -2.478221925235727, 0.7286277705945391, -2.57519910789963, -2.5977036520375614, 0.1551398274860138, 0.6069919787204845, -3.718825231658767, 6.146704831448706, 4.994746885800534, -5.234091259315214, 0.007133996221118613, -0.585325528166174]

>  <energy>  (16) 
-737.7689820548585

>  <inter_energy>  (16) 
-802.0574047609815

>  <intra_energy>  (16) 
62.849828234633776

>  <rmsd>  (16) 
4.34446

>  <sdf_rank>  (16) 
0

$$$$

     RDKit          3D

 56 58  0  0  0  0  0  0  0  0999 V2000
    6.2888    7.4377   34.9755 N   0  0  0  0  0  0  0  0  0  0  0  0
    7.1030    6.8582   35.8634 C   0  0  0  0  0  0  0  0  0  0  0  0
    8.4249    6.6464   35.7790 N   0  0  0  0  0  0  0  0  0  0  0  0
    8.9129    7.1112   34.6213 C   0  0  0  0  0  0  0  0  0  0  0  0
    8.1967    7.7358   33.6109 C   0  0  0  0  0  0  0  0  0  0  0  0
    6.8120    7.9062   33.8210 C   0  0  0  0  0  0  0  0  0  0  0  0
   10.2175    7.0809   34.1924 N   0  0  0  0  0  0  0  0  0  0  0  0
   10.2179    7.6825   32.9597 C   0  0  0  0  0  0  0  0  0  0  0  0
    9.0352    8.0896   32.5622 N   0  0  0  0  0  0  0  0  0  0  0  0
   11.3468    6.4797   34.8904 C   0  0  1  0  0  0  0  0  0  0  0  0
   12.4820    7.4513   35.2070 C   0  0  1  0  0  0  0  0  0  0  0  0
   13.1740    6.6755   36.3200 C   0  0  1  0  0  0  0  0  0  0  0  0
   11.9866    6.1081   37.1030 C   0  0  2  0  0  0  0  0  0  0  0  0
   10.9047    5.9996   36.1470 O   0  0  0  0  0  0  0  0  0  0  0  0
    5.9964    8.5208   32.9590 N   0  0  0  0  0  0  0  0  0  0  0  0
   11.5263    6.9344   38.2774 C   0  0  0  0  0  0  0  0  0  0  0  0
   11.4180    6.0703   39.4246 O   0  0  0  0  0  0  0  0  0  0  0  0
   12.6527    5.7301   40.3433 P   0  0  2  0  0  0  0  0  0  0  0  0
   12.9192    4.2763   40.1925 O   0  0  0  0  0  0  0  0  0  0  0  0
   12.0714    5.9635   41.8576 O   0  0  0  0  0  0  0  0  0  0  0  0
   13.3346    7.6721   34.0896 O   0  0  0  0  0  0  0  0  0  0  0  0
   13.9351    5.6133   35.7524 O   0  0  0  0  0  0  0  0  0  0  0  0
   13.7438    6.7086   40.1943 O   0  0  0  0  0  0  0  0  0  0  0  0
   12.2011    5.2266   43.0649 C   0  0  0  0  0  0  0  0  0  0  0  0
   11.3087    3.9951   43.2219 C   0  0  1  0  0  0  0  0  0  0  0  0
   12.9936    5.5709   43.8993 O   0  0  0  0  0  0  0  0  0  0  0  0
   12.1121    2.7963   43.3455 N   0  0  0  0  0  0  0  0  0  0  0  0
   10.2793    4.1983   44.3527 C   0  0  2  0  0  0  0  0  0  0  0  0
   10.7154    3.4717   45.6329 C   0  0  0  0  0  0  0  0  0  0  0  0
    9.6952    2.5100   46.2008 C   0  0  0  0  0  0  0  0  0  0  0  0
    8.8902    3.7607   43.8868 C   0  0  0  0  0  0  0  0  0  0  0  0
    6.6237    6.5072   36.7891 H   0  0  0  0  0  0  0  0  0  0  0  0
   11.1291    7.8123   32.3573 H   0  0  0  0  0  0  0  0  0  0  0  0
   11.7250    5.6995   34.2133 H   0  0  0  0  0  0  0  0  0  0  0  0
   12.1630    8.4691   35.4762 H   0  0  0  0  0  0  0  0  0  0  0  0
   13.8629    7.2764   36.9319 H   0  0  0  0  0  0  0  0  0  0  0  0
   12.3006    5.1524   37.5480 H   0  0  0  0  0  0  0  0  0  0  0  0
    6.3675    8.8879   32.0711 H   0  0  0  0  0  0  0  0  0  0  0  0
    4.9966    8.6273   33.1826 H   0  0  0  0  0  0  0  0  0  0  0  0
   12.2565    7.7317   38.4801 H   0  0  0  0  0  0  0  0  0  0  0  0
   10.5521    7.3953   38.0574 H   0  0  0  0  0  0  0  0  0  0  0  0
   14.2420    7.9072   34.4082 H   0  0  0  0  0  0  0  0  0  0  0  0
   14.3280    5.0650   36.4770 H   0  0  0  0  0  0  0  0  0  0  0  0
   10.7089    3.8557   42.3104 H   0  0  0  0  0  0  0  0  0  0  0  0
   12.2564    2.5810   44.3423 H   0  0  0  0  0  0  0  0  0  0  0  0
   11.6270    2.0095   42.8910 H   0  0  0  0  0  0  0  0  0  0  0  0
   13.0243    2.9459   42.8910 H   0  0  0  0  0  0  0  0  0  0  0  0
   10.2278    5.2694   44.5978 H   0  0  0  0  0  0  0  0  0  0  0  0
   11.6310    2.9049   45.4086 H   0  0  0  0  0  0  0  0  0  0  0  0
   10.8605    4.2516   46.3949 H   0  0  0  0  0  0  0  0  0  0  0  0
    9.7312    2.5439   47.2996 H   0  0  0  0  0  0  0  0  0  0  0  0
    8.6902    2.7968   45.8578 H   0  0  0  0  0  0  0  0  0  0  0  0
    9.9223    1.4898   45.8578 H   0  0  0  0  0  0  0  0  0  0  0  0
    8.2558    3.5608   44.7629 H   0  0  0  0  0  0  0  0  0  0  0  0
    8.4380    4.5598   43.2812 H   0  0  0  0  0  0  0  0  0  0  0  0
    8.9777    2.8466   43.2812 H   0  0  0  0  0  0  0  0  0  0  0  0
  1  2  2  0
  1  6  1  0
  2  3  1  0
  3  4  2  0
  4  5  1  0
  4  7  1  0
  5  6  2  0
  5  9  1  0
  6 15  1  0
  7  8  1  0
 10  7  1  0
  8  9  2  0
 10 11  1  0
 10 14  1  0
 11 12  1  0
 11 21  1  0
 12 13  1  0
 12 22  1  0
 13 14  1  0
 13 16  1  0
 16 17  1  0
 17 18  1  0
 18 19  2  0
 18 20  1  0
 18 23  1  6
 20 24  1  0
 24 25  1  0
 24 26  2  0
 25 27  1  0
 25 28  1  0
 28 29  1  0
 28 31  1  0
 29 30  1  0
  2 32  1  0
  8 33  1  0
 10 34  1  6
 11 35  1  1
 12 36  1  1
 13 37  1  1
 15 38  1  0
 15 39  1  0
 16 40  1  0
 16 41  1  0
 21 42  1  0
 22 43  1  0
 25 44  1  6
 27 45  1  0
 27 46  1  0
 27 47  1  0
 28 48  1  1
 29 49  1  0
 29 50  1  0
 30 51  1  0
 30 52  1  0
 30 53  1  0
 31 54  1  0
 31 55  1  0
 31 56  1  0
M  CHG  2  23  -1  27   1
M  END
>  <filename_input>  (17) 
7D5C_GV6_docked.sdf

>  <pdb_id>  (17) 
7D5C_GV6

>  <pose_rank>  (17) 
16

>  <num_atoms_heavy>  (17) 
31

>  <num_torsions>  (17) 
9

>  <pose>  (17) 
[11.346838206559529, 6.479681682511193, 34.89038485933551, -0.9581124452150824, -0.31692552100011684, -3.9237747357353703, -10.449182324715531, -34.661526501069645, -39.34267891846177, 13.532224575514732, -30.272973349349794, -61.123275627732504, -72.99397615593665, -32.31272030704061, -5.205199605697866]

>  <energy>  (17) 
-691.0849552129753

>  <inter_energy>  (17) 
-715.2835862668518

>  <intra_energy>  (17) 
28.15030522604628

>  <rmsd>  (17) 
3.63873

>  <sdf_rank>  (17) 
0

$$$$

     RDKit          3D

 56 58  0  0  0  0  0  0  0  0999 V2000
   13.0440    5.9490   36.6218 N   0  0  0  0  0  0  0  0  0  0  0  0
   11.8701    6.0436   37.2541 C   0  0  0  0  0  0  0  0  0  0  0  0
   10.7027    6.5175   36.7936 N   0  0  0  0  0  0  0  0  0  0  0  0
   10.8177    6.9254   35.5229 C   0  0  0  0  0  0  0  0  0  0  0  0
   11.9619    6.8864   34.7399 C   0  0  0  0  0  0  0  0  0  0  0  0
   13.1265    6.3591   35.3368 C   0  0  0  0  0  0  0  0  0  0  0  0
    9.8343    7.4551   34.7234 N   0  0  0  0  0  0  0  0  0  0  0  0
   10.4320    7.7042   33.5141 C   0  0  0  0  0  0  0  0  0  0  0  0
   11.7045    7.3862   33.4703 N   0  0  0  0  0  0  0  0  0  0  0  0
    8.4588    7.7394   35.1123 C   0  0  1  0  0  0  0  0  0  0  0  0
    7.4151    6.8594   34.4271 C   0  0  1  0  0  0  0  0  0  0  0  0
    6.2553    7.0433   35.3969 C   0  0  1  0  0  0  0  0  0  0  0  0
    6.9643    7.0223   36.7541 C   0  0  2  0  0  0  0  0  0  0  0  0
    8.3128    7.4825   36.4971 O   0  0  0  0  0  0  0  0  0  0  0  0
   14.2941    6.2216   34.7014 N   0  0  0  0  0  0  0  0  0  0  0  0
    7.0231    5.6793   37.4374 C   0  0  0  0  0  0  0  0  0  0  0  0
    7.1643    5.8976   38.8540 O   0  0  0  0  0  0  0  0  0  0  0  0
    8.5437    5.7347   39.5988 P   0  0  2  0  0  0  0  0  0  0  0  0
    9.2491    4.5925   38.9625 O   0  0  0  0  0  0  0  0  0  0  0  0
    8.1052    5.2580   41.1042 O   0  0  0  0  0  0  0  0  0  0  0  0
    7.1012    7.3117   33.1152 O   0  0  0  0  0  0  0  0  0  0  0  0
    5.6563    8.3176   35.1803 O   0  0  0  0  0  0  0  0  0  0  0  0
    9.2300    7.0245   39.7878 O   0  0  0  0  0  0  0  0  0  0  0  0
    8.4666    5.7078   42.4020 C   0  0  0  0  0  0  0  0  0  0  0  0
    8.6637    4.6364   43.4747 C   0  0  1  0  0  0  0  0  0  0  0  0
    8.6170    6.8806   42.6134 O   0  0  0  0  0  0  0  0  0  0  0  0
    7.6386    3.6182   43.3721 N   0  0  0  0  0  0  0  0  0  0  0  0
   10.1089    4.0971   43.4591 C   0  0  2  0  0  0  0  0  0  0  0  0
   10.8995    4.6717   42.2752 C   0  0  0  0  0  0  0  0  0  0  0  0
   11.6424    3.6477   41.4458 C   0  0  0  0  0  0  0  0  0  0  0  0
   10.1017    2.5680   43.4591 C   0  0  0  0  0  0  0  0  0  0  0  0
   11.8600    5.6837   38.2935 H   0  0  0  0  0  0  0  0  0  0  0  0
    9.8924    8.1328   32.6567 H   0  0  0  0  0  0  0  0  0  0  0  0
    8.2857    8.7866   34.8237 H   0  0  0  0  0  0  0  0  0  0  0  0
    7.7224    5.8166   34.2594 H   0  0  0  0  0  0  0  0  0  0  0  0
    5.4590    6.2906   35.3004 H   0  0  0  0  0  0  0  0  0  0  0  0
    6.3894    7.6556   37.4458 H   0  0  0  0  0  0  0  0  0  0  0  0
   14.3861    6.5255   33.7216 H   0  0  0  0  0  0  0  0  0  0  0  0
   15.1020    5.8118   35.1915 H   0  0  0  0  0  0  0  0  0  0  0  0
    6.0974    5.1198   37.2379 H   0  0  0  0  0  0  0  0  0  0  0  0
    7.8760    5.0980   37.0571 H   0  0  0  0  0  0  0  0  0  0  0  0
    6.5376    8.1236   33.1721 H   0  0  0  0  0  0  0  0  0  0  0  0
    5.4572    8.7412   36.0527 H   0  0  0  0  0  0  0  0  0  0  0  0
    8.5360    5.0843   44.4712 H   0  0  0  0  0  0  0  0  0  0  0  0
    7.3469    3.3283   44.3164 H   0  0  0  0  0  0  0  0  0  0  0  0
    6.8274    3.9977   42.8634 H   0  0  0  0  0  0  0  0  0  0  0  0
    8.0127    2.8044   42.8634 H   0  0  0  0  0  0  0  0  0  0  0  0
   10.6217    4.4290   44.3739 H   0  0  0  0  0  0  0  0  0  0  0  0
   10.1930    5.1973   41.6159 H   0  0  0  0  0  0  0  0  0  0  0  0
   11.6659    5.3313   42.7082 H   0  0  0  0  0  0  0  0  0  0  0  0
   12.1563    2.9392   42.1120 H   0  0  0  0  0  0  0  0  0  0  0  0
   10.9285    3.1022   40.8111 H   0  0  0  0  0  0  0  0  0  0  0  0
   12.3825    4.1570   40.8111 H   0  0  0  0  0  0  0  0  0  0  0  0
   10.1000    2.2013   44.4961 H   0  0  0  0  0  0  0  0  0  0  0  0
    9.2019    2.2056   42.9405 H   0  0  0  0  0  0  0  0  0  0  0  0
   10.9981    2.1971   42.9405 H   0  0  0  0  0  0  0  0  0  0  0  0
  1  2  2  0
  1  6  1  0
  2  3  1  0
  3  4  2  0
  4  5  1  0
  4  7  1  0
  5  6  2  0
  5  9  1  0
  6 15  1  0
  7  8  1  0
 10  7  1  0
  8  9  2  0
 10 11  1  0
 10 14  1  0
 11 12  1  0
 11 21  1  0
 12 13  1  0
 12 22  1  0
 13 14  1  0
 13 16  1  0
 16 17  1  0
 17 18  1  0
 18 19  2  0
 18 20  1  0
 18 23  1  1
 20 24  1  0
 24 25  1  0
 24 26  2  0
 25 27  1  0
 25 28  1  0
 28 29  1  0
 28 31  1  0
 29 30  1  0
  2 32  1  0
  8 33  1  0
 10 34  1  1
 11 35  1  6
 12 36  1  1
 13 37  1  1
 15 38  1  0
 15 39  1  0
 16 40  1  0
 16 41  1  0
 21 42  1  0
 22 43  1  0
 25 44  1  1
 27 45  1  0
 27 46  1  0
 27 47  1  0
 28 48  1  1
 29 49  1  0
 29 50  1  0
 30 51  1  0
 30 52  1  0
 30 53  1  0
 31 54  1  0
 31 55  1  0
 31 56  1  0
M  CHG  2  23  -1  27   1
M  END
>  <filename_input>  (18) 
7D5C_GV6_docked.sdf

>  <pdb_id>  (18) 
7D5C_GV6

>  <pose_rank>  (18) 
17

>  <num_atoms_heavy>  (18) 
31

>  <num_torsions>  (18) 
9

>  <pose>  (18) 
[8.458762236511832, 7.7393804110214415, 35.11229277437977, -2.8972798699552254, 1.9857179002692678, 3.364081270485572, 2.2692356504229747, -16.254717331668328, -11.194993299663933, -10.241021761233048, 9.03695334414285, 0.6391758846000135, -0.3800852899746525, 0.7634814286477829, 0.9868608638631365]

>  <energy>  (18) 
-721.4284580491801

>  <inter_energy>  (18) 
-766.5381158401358

>  <intra_energy>  (18) 
55.97684145848621

>  <rmsd>  (18) 
3.95815

>  <sdf_rank>  (18) 
0

$$$$

     RDKit          3D

 56 58  0  0  0  0  0  0  0  0999 V2000
   14.2234    5.6444   32.6485 N   0  0  0  0  0  0  0  0  0  0  0  0
   12.9195    5.8632   32.4514 C   0  0  0  0  0  0  0  0  0  0  0  0
   11.9627    6.1146   33.3575 N   0  0  0  0  0  0  0  0  0  0  0  0
   12.4688    6.1343   34.5976 C   0  0  0  0  0  0  0  0  0  0  0  0
   13.7931    5.9303   34.9559 C   0  0  0  0  0  0  0  0  0  0  0  0
   14.7066    5.6809   33.9100 C   0  0  0  0  0  0  0  0  0  0  0  0
   11.7949    6.3698   35.7712 N   0  0  0  0  0  0  0  0  0  0  0  0
   12.7392    6.2961   36.7635 C   0  0  0  0  0  0  0  0  0  0  0  0
   13.9501    6.0321   36.3318 N   0  0  0  0  0  0  0  0  0  0  0  0
   10.3626    6.5944   35.9196 C   0  0  1  0  0  0  0  0  0  0  0  0
    9.7164    5.8105   37.0601 C   0  0  1  0  0  0  0  0  0  0  0  0
    8.4522    6.6383   37.2496 C   0  0  1  0  0  0  0  0  0  0  0  0
    8.9752    8.0676   37.0805 C   0  0  2  0  0  0  0  0  0  0  0  0
   10.1435    7.9579   36.2325 O   0  0  0  0  0  0  0  0  0  0  0  0
   16.0184    5.5019   34.0915 N   0  0  0  0  0  0  0  0  0  0  0  0
    9.3560    8.7769   38.3556 C   0  0  0  0  0  0  0  0  0  0  0  0
    8.1942    8.8376   39.2046 O   0  0  0  0  0  0  0  0  0  0  0  0
    7.9810    7.8492   40.4136 P   0  0  2  0  0  0  0  0  0  0  0  0
    7.4084    8.6450   41.5299 O   0  0  0  0  0  0  0  0  0  0  0  0
    9.5096    7.4414   40.8411 O   0  0  0  0  0  0  0  0  0  0  0  0
    9.4328    4.4635   36.7001 O   0  0  0  0  0  0  0  0  0  0  0  0
    7.5272    6.3324   36.2102 O   0  0  0  0  0  0  0  0  0  0  0  0
    7.3480    6.5864   39.9954 O   0  0  0  0  0  0  0  0  0  0  0  0
   10.1033    6.2169   41.2478 C   0  0  0  0  0  0  0  0  0  0  0  0
    9.7659    5.7186   42.6532 C   0  0  1  0  0  0  0  0  0  0  0  0
   10.8216    5.6160   40.4955 O   0  0  0  0  0  0  0  0  0  0  0  0
    8.3310    5.6614   42.8426 N   0  0  0  0  0  0  0  0  0  0  0  0
   10.5084    4.4033   42.9671 C   0  0  2  0  0  0  0  0  0  0  0  0
    9.6611    3.4926   43.8669 C   0  0  0  0  0  0  0  0  0  0  0  0
   10.2722    3.1789   45.2148 C   0  0  0  0  0  0  0  0  0  0  0  0
   11.8780    4.7031   43.5773 C   0  0  0  0  0  0  0  0  0  0  0  0
   12.5857    5.8332   31.4037 H   0  0  0  0  0  0  0  0  0  0  0  0
   12.5023    6.4451   37.8273 H   0  0  0  0  0  0  0  0  0  0  0  0
    9.9173    6.2693   34.9677 H   0  0  0  0  0  0  0  0  0  0  0  0
   10.3393    5.6973   37.9596 H   0  0  0  0  0  0  0  0  0  0  0  0
    7.9349    6.4650   38.2048 H   0  0  0  0  0  0  0  0  0  0  0  0
    8.1619    8.6780   36.6611 H   0  0  0  0  0  0  0  0  0  0  0  0
   16.4146    5.5247   35.0420 H   0  0  0  0  0  0  0  0  0  0  0  0
   16.6333    5.3413   33.2810 H   0  0  0  0  0  0  0  0  0  0  0  0
   10.1592    8.2230   38.8636 H   0  0  0  0  0  0  0  0  0  0  0  0
    9.7146    9.7924   38.1314 H   0  0  0  0  0  0  0  0  0  0  0  0
    9.3185    3.9200   37.5196 H   0  0  0  0  0  0  0  0  0  0  0  0
    6.6664    6.0476   36.6078 H   0  0  0  0  0  0  0  0  0  0  0  0
   10.1334    6.4395   43.3983 H   0  0  0  0  0  0  0  0  0  0  0  0
    8.1177    5.6530   43.8502 H   0  0  0  0  0  0  0  0  0  0  0  0
    7.8940    6.4857   42.4061 H   0  0  0  0  0  0  0  0  0  0  0  0
    7.9609    4.8051   42.4061 H   0  0  0  0  0  0  0  0  0  0  0  0
   10.6736    3.8559   42.0274 H   0  0  0  0  0  0  0  0  0  0  0  0
    8.6931    3.9864   44.0376 H   0  0  0  0  0  0  0  0  0  0  0  0
    9.5740    2.5323   43.3377 H   0  0  0  0  0  0  0  0  0  0  0  0
    9.5982    3.5249   46.0123 H   0  0  0  0  0  0  0  0  0  0  0  0
   10.4211    2.0929   45.3060 H   0  0  0  0  0  0  0  0  0  0  0  0
   11.2415    3.6909   45.3060 H   0  0  0  0  0  0  0  0  0  0  0  0
   11.8021    4.6865   44.6746 H   0  0  0  0  0  0  0  0  0  0  0  0
   12.6006    3.9419   43.2482 H   0  0  0  0  0  0  0  0  0  0  0  0
   12.2165    5.6966   43.2482 H   0  0  0  0  0  0  0  0  0  0  0  0
  1  2  2  0
  1  6  1  0
  2  3  1  0
  3  4  2  0
  4  5  1  0
  4  7  1  0
  5  6  2  0
  5  9  1  0
  6 15  1  0
  7  8  1  0
 10  7  1  0
  8  9  2  0
 10 11  1  0
 10 14  1  0
 11 12  1  0
 11 21  1  0
 12 13  1  0
 12 22  1  0
 13 14  1  0
 13 16  1  0
 16 17  1  0
 17 18  1  0
 18 19  2  0
 18 20  1  0
 18 23  1  6
 20 24  1  0
 24 25  1  0
 24 26  2  0
 25 27  1  0
 25 28  1  0
 28 29  1  0
 28 31  1  0
 29 30  1  0
  2 32  1  0
  8 33  1  0
 10 34  1  6
 11 35  1  1
 12 36  1  1
 13 37  1  6
 15 38  1  0
 15 39  1  0
 16 40  1  0
 16 41  1  0
 21 42  1  0
 22 43  1  0
 25 44  1  1
 27 45  1  0
 27 46  1  0
 27 47  1  0
 28 48  1  6
 29 49  1  0
 29 50  1  0
 30 51  1  0
 30 52  1  0
 30 53  1  0
 31 54  1  0
 31 55  1  0
 31 56  1  0
M  CHG  2  23  -1  27   1
M  END
>  <filename_input>  (19) 
7D5C_GV6_docked.sdf

>  <pdb_id>  (19) 
7D5C_GV6

>  <pose_rank>  (19) 
18

>  <num_atoms_heavy>  (19) 
31

>  <num_torsions>  (19) 
9

>  <pose>  (19) 
[10.362595472996357, 6.594350488140998, 35.91958075397882, -0.5180560695062016, -0.8155379795965019, -0.08774307827402533, 0.2981689117732782, 4.274190621241887, -1.3642546279040497, -0.8720303402792271, -3.6930082232595596, 1.8221367735928544, 1.2689841540140339, -1.6812306059238793, 1.2019257739549434]

>  <energy>  (19) 
-671.5336856391409

>  <inter_energy>  (19) 
-709.2420491525061

>  <intra_energy>  (19) 
39.059630798590426

>  <rmsd>  (19) 
3.78296

>  <sdf_rank>  (19) 
0

$$$$

     RDKit          3D

 56 58  0  0  0  0  0  0  0  0999 V2000
   12.1376    5.3383   42.0319 N   0  0  0  0  0  0  0  0  0  0  0  0
   12.1946    5.7271   40.7542 C   0  0  0  0  0  0  0  0  0  0  0  0
   11.1878    5.9281   39.8907 N   0  0  0  0  0  0  0  0  0  0  0  0
   10.0038    5.6879   40.4692 C   0  0  0  0  0  0  0  0  0  0  0  0
    9.7873    5.2849   41.7786 C   0  0  0  0  0  0  0  0  0  0  0  0
   10.9281    5.1135   42.5910 C   0  0  0  0  0  0  0  0  0  0  0  0
    8.7584    5.7985   39.9003 N   0  0  0  0  0  0  0  0  0  0  0  0
    7.8674    5.4599   40.8868 C   0  0  0  0  0  0  0  0  0  0  0  0
    8.4292    5.1407   42.0291 N   0  0  0  0  0  0  0  0  0  0  0  0
    8.4642    6.1499   38.5168 C   0  0  1  0  0  0  0  0  0  0  0  0
    8.0328    7.6008   38.3129 C   0  0  1  0  0  0  0  0  0  0  0  0
    8.3205    7.7418   36.8240 C   0  0  1  0  0  0  0  0  0  0  0  0
    9.6377    6.9747   36.6768 C   0  0  2  0  0  0  0  0  0  0  0  0
    9.6425    5.9988   37.7462 O   0  0  0  0  0  0  0  0  0  0  0  0
   10.8807    4.7655   43.8804 N   0  0  0  0  0  0  0  0  0  0  0  0
   10.8907    7.8092   36.7647 C   0  0  0  0  0  0  0  0  0  0  0  0
   11.8960    7.2064   35.9277 O   0  0  0  0  0  0  0  0  0  0  0  0
   13.3468    6.8836   36.4521 P   0  0  2  0  0  0  0  0  0  0  0  0
   13.9832    8.1810   36.7969 O   0  0  0  0  0  0  0  0  0  0  0  0
   14.1089    6.3065   35.1211 O   0  0  0  0  0  0  0  0  0  0  0  0
    6.6591    7.8066   38.6210 O   0  0  0  0  0  0  0  0  0  0  0  0
    7.2932    7.0922   36.0810 O   0  0  0  0  0  0  0  0  0  0  0  0
   13.3554    5.7685   37.4148 O   0  0  0  0  0  0  0  0  0  0  0  0
   13.9617    5.1118   34.3671 C   0  0  0  0  0  0  0  0  0  0  0  0
   14.0133    5.2447   32.8449 C   0  0  1  0  0  0  0  0  0  0  0  0
   13.8191    4.0590   34.9274 O   0  0  0  0  0  0  0  0  0  0  0  0
   13.4599    6.5159   32.4254 N   0  0  0  0  0  0  0  0  0  0  0  0
   15.4314    4.9539   32.3118 C   0  0  2  0  0  0  0  0  0  0  0  0
   15.8430    3.5035   32.6013 C   0  0  0  0  0  0  0  0  0  0  0  0
   17.2095    3.1118   32.0840 C   0  0  0  0  0  0  0  0  0  0  0  0
   16.4281    5.9611   32.8865 C   0  0  0  0  0  0  0  0  0  0  0  0
   13.2044    5.9067   40.3568 H   0  0  0  0  0  0  0  0  0  0  0  0
    6.7781    5.4563   40.7339 H   0  0  0  0  0  0  0  0  0  0  0  0
    7.6380    5.4879   38.2182 H   0  0  0  0  0  0  0  0  0  0  0  0
    8.5405    8.3331   38.9578 H   0  0  0  0  0  0  0  0  0  0  0  0
    8.3700    8.7813   36.4676 H   0  0  0  0  0  0  0  0  0  0  0  0
    9.6670    6.5440   35.6650 H   0  0  0  0  0  0  0  0  0  0  0  0
    9.9726    4.5880   44.3329 H   0  0  0  0  0  0  0  0  0  0  0  0
   11.7523    4.6748   44.4217 H   0  0  0  0  0  0  0  0  0  0  0  0
   10.6816    8.8316   36.4170 H   0  0  0  0  0  0  0  0  0  0  0  0
   11.2426    7.8553   37.8058 H   0  0  0  0  0  0  0  0  0  0  0  0
    6.5403    7.8244   39.6037 H   0  0  0  0  0  0  0  0  0  0  0  0
    6.6438    6.6815   36.7052 H   0  0  0  0  0  0  0  0  0  0  0  0
   13.3721    4.4778   32.3858 H   0  0  0  0  0  0  0  0  0  0  0  0
   13.2165    7.0750   33.2555 H   0  0  0  0  0  0  0  0  0  0  0  0
   14.1560    7.0239   31.8613 H   0  0  0  0  0  0  0  0  0  0  0  0
   12.6138    6.3526   31.8613 H   0  0  0  0  0  0  0  0  0  0  0  0
   15.4306    5.0712   31.2181 H   0  0  0  0  0  0  0  0  0  0  0  0
   15.8362    3.3579   33.6916 H   0  0  0  0  0  0  0  0  0  0  0  0
   15.1194    2.8668   32.0713 H   0  0  0  0  0  0  0  0  0  0  0  0
   17.8817    2.9191   32.9332 H   0  0  0  0  0  0  0  0  0  0  0  0
   17.1228    2.2023   31.4713 H   0  0  0  0  0  0  0  0  0  0  0  0
   17.6178    3.9291   31.4713 H   0  0  0  0  0  0  0  0  0  0  0  0
   16.3929    5.9256   33.9854 H   0  0  0  0  0  0  0  0  0  0  0  0
   17.4426    5.7094   32.5438 H   0  0  0  0  0  0  0  0  0  0  0  0
   16.1658    6.9729   32.5438 H   0  0  0  0  0  0  0  0  0  0  0  0
  1  2  2  0
  1  6  1  0
  2  3  1  0
  3  4  2  0
  4  5  1  0
  4  7  1  0
  5  6  2  0
  5  9  1  0
  6 15  1  0
  7  8  1  0
 10  7  1  0
  8  9  2  0
 10 11  1  0
 10 14  1  0
 11 12  1  0
 11 21  1  0
 12 13  1  0
 12 22  1  0
 13 14  1  0
 13 16  1  0
 16 17  1  0
 17 18  1  0
 18 19  2  0
 18 20  1  0
 18 23  1  1
 20 24  1  0
 24 25  1  0
 24 26  2  0
 25 27  1  0
 25 28  1  0
 28 29  1  0
 28 31  1  0
 29 30  1  0
  2 32  1  0
  8 33  1  0
 10 34  1  6
 11 35  1  1
 12 36  1  6
 13 37  1  6
 15 38  1  0
 15 39  1  0
 16 40  1  0
 16 41  1  0
 21 42  1  0
 22 43  1  0
 25 44  1  6
 27 45  1  0
 27 46  1  0
 27 47  1  0
 28 48  1  6
 29 49  1  0
 29 50  1  0
 30 51  1  0
 30 52  1  0
 30 53  1  0
 31 54  1  0
 31 55  1  0
 31 56  1  0
M  CHG  2  23  -1  27   1
M  END
>  <filename_input>  (20) 
7D5C_GV6_docked.sdf

>  <pdb_id>  (20) 
7D5C_GV6

>  <pose_rank>  (20) 
19

>  <num_atoms_heavy>  (20) 
31

>  <num_torsions>  (20) 
9

>  <pose>  (20) 
[8.46422488792654, 6.149863903817921, 38.516796594554506, -2.519934055908023, -0.895558580408339, -0.7685850023042018, 2.469897055224633, -9.849179099275233, 0.9103045398686243, 1.8538943410490671, -2.4532145335285724, -0.7785587236152334, -0.2257641725476484, 1.9798847180855228, 0.09911578886150438]

>  <energy>  (20) 
-639.5105415276447

>  <inter_energy>  (20) 
-681.0772755549124

>  <intra_energy>  (20) 
37.903928556816986

>  <rmsd>  (20) 
8.00152

>  <sdf_rank>  (20) 
0

$$$$

     RDKit          3D

 56 58  0  0  0  0  0  0  0  0999 V2000
    8.5378    6.9393   33.7088 N   0  0  0  0  0  0  0  0  0  0  0  0
    8.6648    6.4751   34.9559 C   0  0  0  0  0  0  0  0  0  0  0  0
    9.7834    6.2753   35.6690 N   0  0  0  0  0  0  0  0  0  0  0  0
   10.8700    6.6151   34.9631 C   0  0  0  0  0  0  0  0  0  0  0  0
   10.8957    7.1119   33.6684 C   0  0  0  0  0  0  0  0  0  0  0  0
    9.6516    7.2837   33.0254 C   0  0  0  0  0  0  0  0  0  0  0  0
   12.1812    6.5569   35.3683 N   0  0  0  0  0  0  0  0  0  0  0  0
   12.9192    7.0169   34.3075 C   0  0  0  0  0  0  0  0  0  0  0  0
   12.2008    7.3589   33.2638 N   0  0  0  0  0  0  0  0  0  0  0  0
   12.6737    6.0547   36.6448 C   0  0  1  0  0  0  0  0  0  0  0  0
   12.6574    7.0819   37.7751 C   0  0  1  0  0  0  0  0  0  0  0  0
   12.7087    6.1406   38.9712 C   0  0  1  0  0  0  0  0  0  0  0  0
   11.7806    5.0061   38.5278 C   0  0  2  0  0  0  0  0  0  0  0  0
   11.8278    5.0062   37.0808 O   0  0  0  0  0  0  0  0  0  0  0  0
    9.5104    7.7855   31.7949 N   0  0  0  0  0  0  0  0  0  0  0  0
   10.3454    5.1265   38.9747 C   0  0  0  0  0  0  0  0  0  0  0  0
   10.3048    4.9955   40.4084 O   0  0  0  0  0  0  0  0  0  0  0  0
    8.9915    5.2512   41.2414 P   0  0  2  0  0  0  0  0  0  0  0  0
    7.8440    4.9454   40.3487 O   0  0  0  0  0  0  0  0  0  0  0  0
    9.0050    6.8727   41.4781 O   0  0  0  0  0  0  0  0  0  0  0  0
   13.7768    7.9588   37.7274 O   0  0  0  0  0  0  0  0  0  0  0  0
   14.0367    5.6496   39.1289 O   0  0  0  0  0  0  0  0  0  0  0  0
    9.0650    4.6643   42.5906 O   0  0  0  0  0  0  0  0  0  0  0  0
    9.6726    7.9384   40.8178 C   0  0  0  0  0  0  0  0  0  0  0  0
    8.8148    8.8578   39.9481 C   0  0  1  0  0  0  0  0  0  0  0  0
   10.8544    8.0935   40.9661 O   0  0  0  0  0  0  0  0  0  0  0  0
    7.7707    8.1039   39.2853 N   0  0  0  0  0  0  0  0  0  0  0  0
    8.3157   10.0748   40.7542 C   0  0  2  0  0  0  0  0  0  0  0  0
    6.7875   10.0517   40.8988 C   0  0  0  0  0  0  0  0  0  0  0  0
    6.2814    9.6719   42.2729 C   0  0  0  0  0  0  0  0  0  0  0  0
    8.8143   11.3715   40.1153 C   0  0  0  0  0  0  0  0  0  0  0  0
    7.7241    6.2225   35.4670 H   0  0  0  0  0  0  0  0  0  0  0  0
   14.0164    7.0924   34.3296 H   0  0  0  0  0  0  0  0  0  0  0  0
   13.7138    5.7506   36.4557 H   0  0  0  0  0  0  0  0  0  0  0  0
   11.8032    7.7749   37.7628 H   0  0  0  0  0  0  0  0  0  0  0  0
   12.4191    6.6035   39.9261 H   0  0  0  0  0  0  0  0  0  0  0  0
   12.1353    4.0763   38.9965 H   0  0  0  0  0  0  0  0  0  0  0  0
   10.3418    8.0567   31.2508 H   0  0  0  0  0  0  0  0  0  0  0  0
    8.5701    7.9012   31.3907 H   0  0  0  0  0  0  0  0  0  0  0  0
    9.9451    6.1076   38.6794 H   0  0  0  0  0  0  0  0  0  0  0  0
    9.7355    4.3406   38.5052 H   0  0  0  0  0  0  0  0  0  0  0  0
   14.0611    8.1815   38.6492 H   0  0  0  0  0  0  0  0  0  0  0  0
   14.2474    5.5717   40.0931 H   0  0  0  0  0  0  0  0  0  0  0  0
    9.4302    9.2820   39.1411 H   0  0  0  0  0  0  0  0  0  0  0  0
    7.1629    7.6650   39.9916 H   0  0  0  0  0  0  0  0  0  0  0  0
    7.2110    8.7370   38.6964 H   0  0  0  0  0  0  0  0  0  0  0  0
    8.1957    7.3734   38.6964 H   0  0  0  0  0  0  0  0  0  0  0  0
    8.7315   10.0217   41.7712 H   0  0  0  0  0  0  0  0  0  0  0  0
    6.4069   11.0558   40.6604 H   0  0  0  0  0  0  0  0  0  0  0  0
    6.4252    9.2730   40.2115 H   0  0  0  0  0  0  0  0  0  0  0  0
    6.9122   10.1453   43.0397 H   0  0  0  0  0  0  0  0  0  0  0  0
    5.2430   10.0155   42.3890 H   0  0  0  0  0  0  0  0  0  0  0  0
    6.3211    8.5788   42.3890 H   0  0  0  0  0  0  0  0  0  0  0  0
    9.0893   12.0869   40.9043 H   0  0  0  0  0  0  0  0  0  0  0  0
    9.6944   11.1579   39.4910 H   0  0  0  0  0  0  0  0  0  0  0  0
    8.0177   11.8025   39.4910 H   0  0  0  0  0  0  0  0  0  0  0  0
  1  2  2  0
  1  6  1  0
  2  3  1  0
  3  4  2  0
  4  5  1  0
  4  7  1  0
  5  6  2  0
  5  9  1  0
  6 15  1  0
  7  8  1  0
 10  7  1  0
  8  9  2  0
 10 11  1  0
 10 14  1  0
 11 12  1  0
 11 21  1  0
 12 13  1  0
 12 22  1  0
 13 14  1  0
 13 16  1  0
 16 17  1  0
 17 18  1  0
 18 19  2  0
 18 20  1  0
 18 23  1  1
 20 24  1  0
 24 25  1  0
 24 26  2  0
 25 27  1  0
 25 28  1  0
 28 29  1  0
 28 31  1  0
 29 30  1  0
  2 32  1  0
  8 33  1  0
 10 34  1  6
 11 35  1  1
 12 36  1  1
 13 37  1  1
 15 38  1  0
 15 39  1  0
 16 40  1  0
 16 41  1  0
 21 42  1  0
 22 43  1  0
 25 44  1  6
 27 45  1  0
 27 46  1  0
 27 47  1  0
 28 48  1  1
 29 49  1  0
 29 50  1  0
 30 51  1  0
 30 52  1  0
 30 53  1  0
 31 54  1  0
 31 55  1  0
 31 56  1  0
M  CHG  2  23  -1  27   1
M  END
>  <filename_input>  (21) 
7D5C_GV6_docked.sdf

>  <pdb_id>  (21) 
7D5C_GV6

>  <pose_rank>  (21) 
20

>  <num_atoms_heavy>  (21) 
31

>  <num_torsions>  (21) 
9

>  <pose>  (21) 
[12.673721662477, 6.0547183448039, 36.64480533748422, 0.4388090944354663, 0.6689269914558722, -3.453105212258987, -3.5272033765045414, 4.146172678692782, -0.1214932192557143, 3.45238134795871, -0.902179072940353, -1.3043501182349833, -0.2857572920017588, -1.132710171927194, -1.1671072263564457]

>  <energy>  (21) 
-624.0865277060354

>  <inter_energy>  (21) 
-650.5108567838146

>  <intra_energy>  (21) 
25.61265458328457

>  <rmsd>  (21) 
4.87654

>  <sdf_rank>  (21) 
0

$$$$

     RDKit          3D

 56 58  0  0  0  0  0  0  0  0999 V2000
    6.1432    6.7097   36.6684 N   0  0  0  0  0  0  0  0  0  0  0  0
    7.2141    6.0128   37.0614 C   0  0  0  0  0  0  0  0  0  0  0  0
    8.4513    6.0085   36.5430 N   0  0  0  0  0  0  0  0  0  0  0  0
    8.5375    6.8436   35.4992 C   0  0  0  0  0  0  0  0  0  0  0  0
    7.5199    7.6310   34.9812 C   0  0  0  0  0  0  0  0  0  0  0  0
    6.2637    7.5520   35.6185 C   0  0  0  0  0  0  0  0  0  0  0  0
    9.6444    7.1076   34.7298 N   0  0  0  0  0  0  0  0  0  0  0  0
    9.2391    8.0303   33.7992 C   0  0  0  0  0  0  0  0  0  0  0  0
    7.9771    8.3755   33.9019 N   0  0  0  0  0  0  0  0  0  0  0  0
   10.9565    6.4855   34.8543 C   0  0  1  0  0  0  0  0  0  0  0  0
   12.1289    7.4284   34.5911 C   0  0  1  0  0  0  0  0  0  0  0  0
   13.2376    6.6520   35.2891 C   0  0  1  0  0  0  0  0  0  0  0  0
   12.5274    6.1338   36.5430 C   0  0  2  0  0  0  0  0  0  0  0  0
   11.1269    6.0408   36.1878 O   0  0  0  0  0  0  0  0  0  0  0  0
    5.1982    8.2745   35.2602 N   0  0  0  0  0  0  0  0  0  0  0  0
   12.6683    6.9938   37.7736 C   0  0  0  0  0  0  0  0  0  0  0  0
   11.7845    6.4806   38.7885 O   0  0  0  0  0  0  0  0  0  0  0  0
   12.1157    5.1807   39.6161 P   0  0  2  0  0  0  0  0  0  0  0  0
   11.8074    4.0191   38.7427 O   0  0  0  0  0  0  0  0  0  0  0  0
   10.9961    5.2003   40.8126 O   0  0  0  0  0  0  0  0  0  0  0  0
   12.3823    7.6043   33.2022 O   0  0  0  0  0  0  0  0  0  0  0  0
   13.6366    5.5579   34.4685 O   0  0  0  0  0  0  0  0  0  0  0  0
   13.4155    5.2743   40.3030 O   0  0  0  0  0  0  0  0  0  0  0  0
   10.1409    6.2160   41.3170 C   0  0  0  0  0  0  0  0  0  0  0  0
    8.8593    5.7575   42.0131 C   0  0  1  0  0  0  0  0  0  0  0  0
   10.4439    7.3724   41.1997 O   0  0  0  0  0  0  0  0  0  0  0  0
    7.9328    5.1924   41.0538 N   0  0  0  0  0  0  0  0  0  0  0  0
    9.1786    4.8430   43.2137 C   0  0  2  0  0  0  0  0  0  0  0  0
   10.3969    3.9554   42.9226 C   0  0  0  0  0  0  0  0  0  0  0  0
   10.6497    2.8640   43.9391 C   0  0  0  0  0  0  0  0  0  0  0  0
    7.9458    4.0222   43.5945 C   0  0  0  0  0  0  0  0  0  0  0  0
    7.0597    5.3529   37.9279 H   0  0  0  0  0  0  0  0  0  0  0  0
    9.9125    8.4444   33.0343 H   0  0  0  0  0  0  0  0  0  0  0  0
   10.9700    5.6827   34.1024 H   0  0  0  0  0  0  0  0  0  0  0  0
   11.9864    8.4597   34.9463 H   0  0  0  0  0  0  0  0  0  0  0  0
   14.1406    7.2427   35.5026 H   0  0  0  0  0  0  0  0  0  0  0  0
   12.9921    5.1771   36.8239 H   0  0  0  0  0  0  0  0  0  0  0  0
    5.2610    8.9247   34.4638 H   0  0  0  0  0  0  0  0  0  0  0  0
    4.3141    8.1812   35.7804 H   0  0  0  0  0  0  0  0  0  0  0  0
   13.7071    6.9603   38.1337 H   0  0  0  0  0  0  0  0  0  0  0  0
   12.4096    8.0367   37.5384 H   0  0  0  0  0  0  0  0  0  0  0  0
   13.1897    8.1645   33.0824 H   0  0  0  0  0  0  0  0  0  0  0  0
   13.9133    4.7994   35.0414 H   0  0  0  0  0  0  0  0  0  0  0  0
    8.3428    6.6273   42.4452 H   0  0  0  0  0  0  0  0  0  0  0  0
    7.1640    4.7236   41.5540 H   0  0  0  0  0  0  0  0  0  0  0  0
    7.5498    5.9439   40.4626 H   0  0  0  0  0  0  0  0  0  0  0  0
    8.4255    4.5079   40.4626 H   0  0  0  0  0  0  0  0  0  0  0  0
    9.4424    5.4705   44.0778 H   0  0  0  0  0  0  0  0  0  0  0  0
   10.2465    3.4803   41.9420 H   0  0  0  0  0  0  0  0  0  0  0  0
   11.2749    4.6172   42.9570 H   0  0  0  0  0  0  0  0  0  0  0  0
   10.5537    3.2783   44.9535 H   0  0  0  0  0  0  0  0  0  0  0  0
    9.9147    2.0573   43.8015 H   0  0  0  0  0  0  0  0  0  0  0  0
   11.6646    2.4627   43.8015 H   0  0  0  0  0  0  0  0  0  0  0  0
    7.8652    3.9686   44.6902 H   0  0  0  0  0  0  0  0  0  0  0  0
    7.0450    4.5015   43.1835 H   0  0  0  0  0  0  0  0  0  0  0  0
    8.0405    3.0063   43.1835 H   0  0  0  0  0  0  0  0  0  0  0  0
  1  2  2  0
  1  6  1  0
  2  3  1  0
  3  4  2  0
  4  5  1  0
  4  7  1  0
  5  6  2  0
  5  9  1  0
  6 15  1  0
  7  8  1  0
 10  7  1  0
  8  9  2  0
 10 11  1  0
 10 14  1  0
 11 12  1  0
 11 21  1  0
 12 13  1  0
 12 22  1  0
 13 14  1  0
 13 16  1  0
 16 17  1  0
 17 18  1  0
 18 19  2  0
 18 20  1  0
 18 23  1  1
 20 24  1  0
 24 25  1  0
 24 26  2  0
 25 27  1  0
 25 28  1  0
 28 29  1  0
 28 31  1  0
 29 30  1  0
  2 32  1  0
  8 33  1  0
 10 34  1  6
 11 35  1  1
 12 36  1  1
 13 37  1  1
 15 38  1  0
 15 39  1  0
 16 40  1  0
 16 41  1  0
 21 42  1  0
 22 43  1  0
 25 44  1  1
 27 45  1  0
 27 46  1  0
 27 47  1  0
 28 48  1  1
 29 49  1  0
 29 50  1  0
 30 51  1  0
 30 52  1  0
 30 53  1  0
 31 54  1  0
 31 55  1  0
 31 56  1  0
M  CHG  2  23  -1  27   1
M  END
>  <filename_input>  (22) 
7D5C_GV6_docked.sdf

>  <pdb_id>  (22) 
7D5C_GV6

>  <pose_rank>  (22) 
21

>  <num_atoms_heavy>  (22) 
31

>  <num_torsions>  (22) 
9

>  <pose>  (22) 
[10.95646711974322, 6.485479987127827, 34.85433830920559, 1.0156227964733486, 0.44796061035305157, 1.9754767553942794, -4.550953581987829, 2.015342799787412, -1.7937314705215663, 1.600476247767372, -1.5311626617457863, -0.4780582979904541, -0.8762442097721688, 0.24926712456086597, 0.29593743380932036]

>  <energy>  (22) 
-687.3046643792454

>  <inter_energy>  (22) 
-757.6289836817914

>  <intra_energy>  (22) 
73.08826532790218

>  <rmsd>  (22) 
4.21058

>  <sdf_rank>  (22) 
0

$$$$

     RDKit          3D

 56 58  0  0  0  0  0  0  0  0999 V2000
   13.6503    5.3067   36.7927 N   0  0  0  0  0  0  0  0  0  0  0  0
   12.5438    5.3360   37.5421 C   0  0  0  0  0  0  0  0  0  0  0  0
   11.3287    5.8109   37.2294 N   0  0  0  0  0  0  0  0  0  0  0  0
   11.3101    6.2982   35.9818 C   0  0  0  0  0  0  0  0  0  0  0  0
   12.3712    6.3329   35.0893 C   0  0  0  0  0  0  0  0  0  0  0  0
   13.5979    5.7964   35.5343 C   0  0  0  0  0  0  0  0  0  0  0  0
   10.2435    6.8536   35.3178 N   0  0  0  0  0  0  0  0  0  0  0  0
   10.7138    7.1896   34.0738 C   0  0  0  0  0  0  0  0  0  0  0  0
   11.9807    6.9035   33.8851 N   0  0  0  0  0  0  0  0  0  0  0  0
    8.9091    7.0826   35.8572 C   0  0  1  0  0  0  0  0  0  0  0  0
    8.5272    6.1556   37.0094 C   0  0  1  0  0  0  0  0  0  0  0  0
    7.3992    6.9722   37.6260 C   0  0  1  0  0  0  0  0  0  0  0  0
    7.9418    8.4004   37.5218 C   0  0  2  0  0  0  0  0  0  0  0  0
    8.8519    8.3909   36.3958 O   0  0  0  0  0  0  0  0  0  0  0  0
   14.6985    5.7243   34.7798 N   0  0  0  0  0  0  0  0  0  0  0  0
    8.6694    8.9112   38.7399 C   0  0  0  0  0  0  0  0  0  0  0  0
    7.9819    8.4333   39.9118 O   0  0  0  0  0  0  0  0  0  0  0  0
    8.6362    8.4665   41.3453 P   0  0  2  0  0  0  0  0  0  0  0  0
    9.6314    9.5696   41.3435 O   0  0  0  0  0  0  0  0  0  0  0  0
    9.4714    7.0580   41.4110 O   0  0  0  0  0  0  0  0  0  0  0  0
    8.0878    4.8802   36.5568 O   0  0  0  0  0  0  0  0  0  0  0  0
    6.2274    6.8373   36.8272 O   0  0  0  0  0  0  0  0  0  0  0  0
    7.6314    8.3690   42.4182 O   0  0  0  0  0  0  0  0  0  0  0  0
   10.7424    6.6662   40.9127 C   0  0  0  0  0  0  0  0  0  0  0  0
   11.0650    5.1720   40.9411 C   0  0  1  0  0  0  0  0  0  0  0  0
   11.5018    7.4913   40.4823 O   0  0  0  0  0  0  0  0  0  0  0  0
   12.4815    4.9525   40.7328 N   0  0  0  0  0  0  0  0  0  0  0  0
   10.4912    4.5060   42.2088 C   0  0  2  0  0  0  0  0  0  0  0  0
    9.0058    4.8499   42.3885 C   0  0  0  0  0  0  0  0  0  0  0  0
    8.2978    4.0749   43.4778 C   0  0  0  0  0  0  0  0  0  0  0  0
   11.3240    4.8931   43.4314 C   0  0  0  0  0  0  0  0  0  0  0  0
   12.6430    4.9131   38.5527 H   0  0  0  0  0  0  0  0  0  0  0  0
   10.0846    7.6576   33.3024 H   0  0  0  0  0  0  0  0  0  0  0  0
    8.2218    6.9068   35.0166 H   0  0  0  0  0  0  0  0  0  0  0  0
    9.3487    5.9019   37.6956 H   0  0  0  0  0  0  0  0  0  0  0  0
    7.1294    6.6735   38.6497 H   0  0  0  0  0  0  0  0  0  0  0  0
    7.0846    9.0807   37.4107 H   0  0  0  0  0  0  0  0  0  0  0  0
   14.6876    6.0895   33.8168 H   0  0  0  0  0  0  0  0  0  0  0  0
   15.5578    5.3035   35.1613 H   0  0  0  0  0  0  0  0  0  0  0  0
    9.7044    8.5386   38.7382 H   0  0  0  0  0  0  0  0  0  0  0  0
    8.6901   10.0110   38.7351 H   0  0  0  0  0  0  0  0  0  0  0  0
    7.8892    4.3037   37.3368 H   0  0  0  0  0  0  0  0  0  0  0  0
    5.4360    6.7461   37.4149 H   0  0  0  0  0  0  0  0  0  0  0  0
   10.5619    4.6700   40.1015 H   0  0  0  0  0  0  0  0  0  0  0  0
   12.9552    4.8792   41.6444 H   0  0  0  0  0  0  0  0  0  0  0  0
   12.6195    4.0801   40.2029 H   0  0  0  0  0  0  0  0  0  0  0  0
   12.8769    5.7423   40.2029 H   0  0  0  0  0  0  0  0  0  0  0  0
   10.5524    3.4137   42.0948 H   0  0  0  0  0  0  0  0  0  0  0  0
    8.9299    5.9210   42.6273 H   0  0  0  0  0  0  0  0  0  0  0  0
    8.5105    4.5768   41.4451 H   0  0  0  0  0  0  0  0  0  0  0  0
    8.6299    4.4384   44.4615 H   0  0  0  0  0  0  0  0  0  0  0  0
    7.2113    4.2171   43.3820 H   0  0  0  0  0  0  0  0  0  0  0  0
    8.5375    3.0056   43.3820 H   0  0  0  0  0  0  0  0  0  0  0  0
   10.7718    4.6364   44.3474 H   0  0  0  0  0  0  0  0  0  0  0  0
   12.2782    4.3462   43.4131 H   0  0  0  0  0  0  0  0  0  0  0  0
   11.5211    5.9752   43.4131 H   0  0  0  0  0  0  0  0  0  0  0  0
  1  2  2  0
  1  6  1  0
  2  3  1  0
  3  4  2  0
  4  5  1  0
  4  7  1  0
  5  6  2  0
  5  9  1  0
  6 15  1  0
  7  8  1  0
 10  7  1  0
  8  9  2  0
 10 11  1  0
 10 14  1  0
 11 12  1  0
 11 21  1  0
 12 13  1  0
 12 22  1  0
 13 14  1  0
 13 16  1  0
 16 17  1  0
 17 18  1  0
 18 19  2  0
 18 20  1  0
 18 23  1  1
 20 24  1  0
 24 25  1  0
 24 26  2  0
 25 27  1  0
 25 28  1  0
 28 29  1  0
 28 31  1  0
 29 30  1  0
  2 32  1  0
  8 33  1  0
 10 34  1  6
 11 35  1  1
 12 36  1  1
 13 37  1  6
 15 38  1  0
 15 39  1  0
 16 40  1  0
 16 41  1  0
 21 42  1  0
 22 43  1  0
 25 44  1  6
 27 45  1  0
 27 46  1  0
 27 47  1  0
 28 48  1  6
 29 49  1  0
 29 50  1  0
 30 51  1  0
 30 52  1  0
 30 53  1  0
 31 54  1  0
 31 55  1  0
 31 56  1  0
M  CHG  2  23  -1  27   1
M  END
>  <filename_input>  (23) 
7D5C_GV6_docked.sdf

>  <pdb_id>  (23) 
7D5C_GV6

>  <pose_rank>  (23) 
22

>  <num_atoms_heavy>  (23) 
31

>  <num_torsions>  (23) 
9

>  <pose>  (23) 
[8.909078813357594, 7.082608735028462, 35.85720440771956, 3.283597141711012, 4.443302622818246, 0.9032223355932576, -8.77112129557721, -33.062412471162105, 6.034082560391886, -9.139465922453228, -6.115116353513397, 0.15710896705406058, -2.5459083942828413, -4.522486792645335, -6.317765771527576]

>  <energy>  (23) 
-655.0324524594334

>  <inter_energy>  (23) 
-727.0891894953368

>  <intra_energy>  (23) 
77.73368828843482

>  <rmsd>  (23) 
3.52243

>  <sdf_rank>  (23) 
0

$$$$

     RDKit          3D

 56 58  0  0  0  0  0  0  0  0999 V2000
   11.2020    7.8804   34.0327 N   0  0  0  0  0  0  0  0  0  0  0  0
   11.4377    8.0599   35.3362 C   0  0  0  0  0  0  0  0  0  0  0  0
   10.5715    8.0258   36.3599 N   0  0  0  0  0  0  0  0  0  0  0  0
    9.3293    7.7684   35.9296 C   0  0  0  0  0  0  0  0  0  0  0  0
    8.9338    7.5566   34.6171 C   0  0  0  0  0  0  0  0  0  0  0  0
    9.9403    7.6120   33.6299 C   0  0  0  0  0  0  0  0  0  0  0  0
    8.1906    7.6481   36.6883 N   0  0  0  0  0  0  0  0  0  0  0  0
    7.1804    7.3730   35.8020 C   0  0  0  0  0  0  0  0  0  0  0  0
    7.5689    7.3107   34.5499 N   0  0  0  0  0  0  0  0  0  0  0  0
    8.0847    7.8329   38.1300 C   0  0  1  0  0  0  0  0  0  0  0  0
    7.6925    6.5734   38.9000 C   0  0  1  0  0  0  0  0  0  0  0  0
    8.1761    6.9672   40.2894 C   0  0  1  0  0  0  0  0  0  0  0  0
    9.4967    7.6784   39.9808 C   0  0  2  0  0  0  0  0  0  0  0  0
    9.3540    8.2012   38.6383 O   0  0  0  0  0  0  0  0  0  0  0  0
    9.7232    7.3932   32.3296 N   0  0  0  0  0  0  0  0  0  0  0  0
   10.7317    6.8156   40.0456 C   0  0  0  0  0  0  0  0  0  0  0  0
   11.8663    7.6197   39.6708 O   0  0  0  0  0  0  0  0  0  0  0  0
   13.3144    7.0161   39.5197 P   0  0  2  0  0  0  0  0  0  0  0  0
   14.2189    8.1398   39.1644 O   0  0  0  0  0  0  0  0  0  0  0  0
   13.1869    6.0573   38.1968 O   0  0  0  0  0  0  0  0  0  0  0  0
    6.2912    6.3294   38.8631 O   0  0  0  0  0  0  0  0  0  0  0  0
    7.2528    7.8848   40.8682 O   0  0  0  0  0  0  0  0  0  0  0  0
   13.6554    6.1039   40.6251 O   0  0  0  0  0  0  0  0  0  0  0  0
   13.2742    4.6518   38.0121 C   0  0  0  0  0  0  0  0  0  0  0  0
   12.3486    4.0338   36.9638 C   0  0  1  0  0  0  0  0  0  0  0  0
   14.0583    4.0069   38.6540 O   0  0  0  0  0  0  0  0  0  0  0  0
   10.9664    4.3593   37.2494 N   0  0  0  0  0  0  0  0  0  0  0  0
   12.8116    4.3924   35.5366 C   0  0  2  0  0  0  0  0  0  0  0  0
   12.6093    3.2107   34.5777 C   0  0  0  0  0  0  0  0  0  0  0  0
   13.6366    3.1015   33.4727 C   0  0  0  0  0  0  0  0  0  0  0  0
   14.2624    4.8750   35.5580 C   0  0  0  0  0  0  0  0  0  0  0  0
   12.4845    8.2633   35.6061 H   0  0  0  0  0  0  0  0  0  0  0  0
    6.1368    7.2184   36.1132 H   0  0  0  0  0  0  0  0  0  0  0  0
    7.3016    8.5928   38.2688 H   0  0  0  0  0  0  0  0  0  0  0  0
    8.1143    5.6366   38.5071 H   0  0  0  0  0  0  0  0  0  0  0  0
    8.2784    6.1254   40.9901 H   0  0  0  0  0  0  0  0  0  0  0  0
    9.6576    8.4437   40.7545 H   0  0  0  0  0  0  0  0  0  0  0  0
    8.7716    7.1863   31.9940 H   0  0  0  0  0  0  0  0  0  0  0  0
   10.5074    7.4316   31.6629 H   0  0  0  0  0  0  0  0  0  0  0  0
   10.8668    6.4360   41.0691 H   0  0  0  0  0  0  0  0  0  0  0  0
   10.6319    5.9596   39.3619 H   0  0  0  0  0  0  0  0  0  0  0  0
    5.9424    6.2686   39.7877 H   0  0  0  0  0  0  0  0  0  0  0  0
    7.3079    7.8300   41.8552 H   0  0  0  0  0  0  0  0  0  0  0  0
   12.4107    2.9369   37.0177 H   0  0  0  0  0  0  0  0  0  0  0  0
   10.8252    4.3926   38.2691 H   0  0  0  0  0  0  0  0  0  0  0  0
   10.7383    5.2770   36.8411 H   0  0  0  0  0  0  0  0  0  0  0  0
   10.3528    3.6398   36.8411 H   0  0  0  0  0  0  0  0  0  0  0  0
   12.1902    5.2177   35.1586 H   0  0  0  0  0  0  0  0  0  0  0  0
   12.6426    2.2829   35.1676 H   0  0  0  0  0  0  0  0  0  0  0  0
   11.6416    3.3786   34.0825 H   0  0  0  0  0  0  0  0  0  0  0  0
   14.6390    2.9950   33.9131 H   0  0  0  0  0  0  0  0  0  0  0  0
   13.4141    2.2220   32.8507 H   0  0  0  0  0  0  0  0  0  0  0  0
   13.6039    4.0082   32.8507 H   0  0  0  0  0  0  0  0  0  0  0  0
   14.5965    4.9861   36.6001 H   0  0  0  0  0  0  0  0  0  0  0  0
   14.9006    4.1408   35.0447 H   0  0  0  0  0  0  0  0  0  0  0  0
   14.3337    5.8452   35.0447 H   0  0  0  0  0  0  0  0  0  0  0  0
  1  2  2  0
  1  6  1  0
  2  3  1  0
  3  4  2  0
  4  5  1  0
  4  7  1  0
  5  6  2  0
  5  9  1  0
  6 15  1  0
  7  8  1  0
 10  7  1  0
  8  9  2  0
 10 11  1  0
 10 14  1  0
 11 12  1  0
 11 21  1  0
 12 13  1  0
 12 22  1  0
 13 14  1  0
 13 16  1  0
 16 17  1  0
 17 18  1  0
 18 19  2  0
 18 20  1  0
 18 23  1  1
 20 24  1  0
 24 25  1  0
 24 26  2  0
 25 27  1  0
 25 28  1  0
 28 29  1  0
 28 31  1  0
 29 30  1  0
  2 32  1  0
  8 33  1  0
 10 34  1  6
 11 35  1  6
 12 36  1  1
 13 37  1  1
 15 38  1  0
 15 39  1  0
 16 40  1  0
 16 41  1  0
 21 42  1  0
 22 43  1  0
 25 44  1  6
 27 45  1  0
 27 46  1  0
 27 47  1  0
 28 48  1  6
 29 49  1  0
 29 50  1  0
 30 51  1  0
 30 52  1  0
 30 53  1  0
 31 54  1  0
 31 55  1  0
 31 56  1  0
M  CHG  2  23  -1  27   1
M  END
>  <filename_input>  (24) 
7D5C_GV6_docked.sdf

>  <pdb_id>  (24) 
7D5C_GV6

>  <pose_rank>  (24) 
23

>  <num_atoms_heavy>  (24) 
31

>  <num_torsions>  (24) 
9

>  <pose>  (24) 
[8.08469126942422, 7.83287293544786, 38.13004808919769, 0.08990530746213803, -3.036481268027971, 4.364884507292017, 2.216112310586113, -4.161772097270374, 6.38345032930794, -6.431560412817116, -3.2403469982056947, -6.956547968971531, -0.6367456898252639, 3.3584234194014635, 0.6970373922597072]

>  <energy>  (24) 
-654.8882079177164

>  <inter_energy>  (24) 
-702.0887604948185

>  <intra_energy>  (24) 
46.26042277516605

>  <rmsd>  (24) 
4.64627

>  <sdf_rank>  (24) 
0

$$$$

     RDKit          3D

 56 58  0  0  0  0  0  0  0  0999 V2000
   12.1415    3.7817   43.6661 N   0  0  0  0  0  0  0  0  0  0  0  0
   12.3965    4.2810   42.4526 C   0  0  0  0  0  0  0  0  0  0  0  0
   11.5344    4.7502   41.5382 N   0  0  0  0  0  0  0  0  0  0  0  0
   10.2733    4.6742   41.9836 C   0  0  0  0  0  0  0  0  0  0  0  0
    9.8564    4.1871   43.2134 C   0  0  0  0  0  0  0  0  0  0  0  0
   10.8602    3.7274   44.0920 C   0  0  0  0  0  0  0  0  0  0  0  0
    9.1314    5.0689   41.3300 N   0  0  0  0  0  0  0  0  0  0  0  0
    8.0983    4.8015   42.1919 C   0  0  0  0  0  0  0  0  0  0  0  0
    8.4754    4.2703   43.3312 N   0  0  0  0  0  0  0  0  0  0  0  0
    9.0470    5.6069   39.9782 C   0  0  1  0  0  0  0  0  0  0  0  0
    7.7196    5.3349   39.2731 C   0  0  1  0  0  0  0  0  0  0  0  0
    7.7777    6.4159   38.2019 C   0  0  1  0  0  0  0  0  0  0  0  0
    8.3704    7.5998   38.9714 C   0  0  2  0  0  0  0  0  0  0  0  0
    9.1549    7.0174   40.0398 O   0  0  0  0  0  0  0  0  0  0  0  0
   10.6205    3.2651   45.3227 N   0  0  0  0  0  0  0  0  0  0  0  0
    7.3687    8.5600   39.5618 C   0  0  0  0  0  0  0  0  0  0  0  0
    8.0358    9.8108   39.8164 O   0  0  0  0  0  0  0  0  0  0  0  0
    8.1906   10.4034   41.2686 P   0  0  2  0  0  0  0  0  0  0  0  0
    8.7173    9.3128   42.1292 O   0  0  0  0  0  0  0  0  0  0  0  0
    6.6427   10.6819   41.7291 O   0  0  0  0  0  0  0  0  0  0  0  0
    7.6580    4.0259   38.7189 O   0  0  0  0  0  0  0  0  0  0  0  0
    8.6714    6.0099   37.1694 O   0  0  0  0  0  0  0  0  0  0  0  0
    8.8353   11.7279   41.2636 O   0  0  0  0  0  0  0  0  0  0  0  0
    6.0118   11.7755   42.3796 C   0  0  0  0  0  0  0  0  0  0  0  0
    6.3898   12.0220   43.8404 C   0  0  1  0  0  0  0  0  0  0  0  0
    5.2325   12.4655   41.7802 O   0  0  0  0  0  0  0  0  0  0  0  0
    6.8780   13.3739   44.0191 N   0  0  0  0  0  0  0  0  0  0  0  0
    5.2365   11.6251   44.7849 C   0  0  2  0  0  0  0  0  0  0  0  0
    4.3320   12.8282   45.0872 C   0  0  0  0  0  0  0  0  0  0  0  0
    4.1208   13.1152   46.5574 C   0  0  0  0  0  0  0  0  0  0  0  0
    5.7931   10.9884   46.0589 C   0  0  0  0  0  0  0  0  0  0  0  0
   13.4577    4.3114   42.1647 H   0  0  0  0  0  0  0  0  0  0  0  0
    7.0465    5.0137   41.9495 H   0  0  0  0  0  0  0  0  0  0  0  0
    9.8548    5.1134   39.4180 H   0  0  0  0  0  0  0  0  0  0  0  0
    6.8319    5.3678   39.9218 H   0  0  0  0  0  0  0  0  0  0  0  0
    6.8108    6.6354   37.7255 H   0  0  0  0  0  0  0  0  0  0  0  0
    8.9475    8.2100   38.2611 H   0  0  0  0  0  0  0  0  0  0  0  0
    9.6536    3.2125   45.6738 H   0  0  0  0  0  0  0  0  0  0  0  0
   11.4026    2.9613   45.9201 H   0  0  0  0  0  0  0  0  0  0  0  0
    6.5419    8.7170   38.8534 H   0  0  0  0  0  0  0  0  0  0  0  0
    6.9591    8.1520   40.4976 H   0  0  0  0  0  0  0  0  0  0  0  0
    7.6267    3.3591   39.4500 H   0  0  0  0  0  0  0  0  0  0  0  0
    9.4943    5.6361   37.5734 H   0  0  0  0  0  0  0  0  0  0  0  0
    7.2275   11.3663   44.1203 H   0  0  0  0  0  0  0  0  0  0  0  0
    6.9530   13.5817   45.0251 H   0  0  0  0  0  0  0  0  0  0  0  0
    7.8050   13.4651   43.5796 H   0  0  0  0  0  0  0  0  0  0  0  0
    6.2230   14.0364   43.5796 H   0  0  0  0  0  0  0  0  0  0  0  0
    4.6086   10.8744   44.2828 H   0  0  0  0  0  0  0  0  0  0  0  0
    4.7840   13.7192   44.6270 H   0  0  0  0  0  0  0  0  0  0  0  0
    3.3421   12.5795   44.6770 H   0  0  0  0  0  0  0  0  0  0  0  0
    4.6669   12.3730   47.1581 H   0  0  0  0  0  0  0  0  0  0  0  0
    4.4943   14.1230   46.7915 H   0  0  0  0  0  0  0  0  0  0  0  0
    3.0475   13.0584   46.7915 H   0  0  0  0  0  0  0  0  0  0  0  0
    5.3578   11.4863   46.9379 H   0  0  0  0  0  0  0  0  0  0  0  0
    5.5347    9.9194   46.0777 H   0  0  0  0  0  0  0  0  0  0  0  0
    6.8871   11.1016   46.0777 H   0  0  0  0  0  0  0  0  0  0  0  0
  1  2  2  0
  1  6  1  0
  2  3  1  0
  3  4  2  0
  4  5  1  0
  4  7  1  0
  5  6  2  0
  5  9  1  0
  6 15  1  0
  7  8  1  0
 10  7  1  0
  8  9  2  0
 10 11  1  0
 10 14  1  0
 11 12  1  0
 11 21  1  0
 12 13  1  0
 12 22  1  0
 13 14  1  0
 13 16  1  0
 16 17  1  0
 17 18  1  0
 18 19  2  0
 18 20  1  0
 18 23  1  6
 20 24  1  0
 24 25  1  0
 24 26  2  0
 25 27  1  0
 25 28  1  0
 28 29  1  0
 28 31  1  0
 29 30  1  0
  2 32  1  0
  8 33  1  0
 10 34  1  6
 11 35  1  1
 12 36  1  6
 13 37  1  6
 15 38  1  0
 15 39  1  0
 16 40  1  0
 16 41  1  0
 21 42  1  0
 22 43  1  0
 25 44  1  1
 27 45  1  0
 27 46  1  0
 27 47  1  0
 28 48  1  6
 29 49  1  0
 29 50  1  0
 30 51  1  0
 30 52  1  0
 30 53  1  0
 31 54  1  0
 31 55  1  0
 31 56  1  0
M  CHG  2  23  -1  27   1
M  END
>  <filename_input>  (25) 
7D5C_GV6_docked.sdf

>  <pdb_id>  (25) 
7D5C_GV6

>  <pose_rank>  (25) 
24

>  <num_atoms_heavy>  (25) 
31

>  <num_torsions>  (25) 
9

>  <pose>  (25) 
[9.046961978430007, 5.606874124800503, 39.97816629705224, -0.6475064135811391, -2.181369694171343, -0.8856848410468869, 0.6028844098471555, 15.085815609491087, 57.661556695691615, 16.391712139466073, 8.94829657867062, -4.375675834620662, 8.789322099996205, 11.822677405281583, 7.347896577702751]

>  <energy>  (25) 
-700.407672603351

>  <inter_energy>  (25) 
-694.3054261492422

>  <intra_energy>  (25) 
3.0133493134223093

>  <rmsd>  (25) 
7.87744

>  <sdf_rank>  (25) 
0

$$$$

     RDKit          3D

 56 58  0  0  0  0  0  0  0  0999 V2000
    8.4820    7.8010   32.6970 N   0  0  0  0  0  0  0  0  0  0  0  0
    7.4550    7.6280   33.5350 C   0  0  0  0  0  0  0  0  0  0  0  0
    7.4750    7.4540   34.8650 N   0  0  0  0  0  0  0  0  0  0  0  0
    8.7300    7.4730   35.3330 C   0  0  0  0  0  0  0  0  0  0  0  0
    9.8890    7.6460   34.5910 C   0  0  0  0  0  0  0  0  0  0  0  0
    9.7360    7.8260   33.2000 C   0  0  0  0  0  0  0  0  0  0  0  0
    9.1370    7.3380   36.6380 N   0  0  0  0  0  0  0  0  0  0  0  0
   10.5050    7.4360   36.6130 C   0  0  0  0  0  0  0  0  0  0  0  0
   11.0070    7.6170   35.4140 N   0  0  0  0  0  0  0  0  0  0  0  0
    8.2830    7.0870   37.7920 C   0  0  1  0  0  0  0  0  0  0  0  0
    8.5580    5.7640   38.5040 C   0  0  1  0  0  0  0  0  0  0  0  0
    7.9220    6.0680   39.8540 C   0  0  1  0  0  0  0  0  0  0  0  0
    8.3340    7.5250   40.0830 C   0  0  2  0  0  0  0  0  0  0  0  0
    8.5200    8.0900   38.7630 O   0  0  0  0  0  0  0  0  0  0  0  0
   10.7520    8.0410   32.3590 N   0  0  0  0  0  0  0  0  0  0  0  0
    9.5930    7.7270   40.8880 C   0  0  0  0  0  0  0  0  0  0  0  0
   10.6610    7.0030   40.2480 O   0  0  0  0  0  0  0  0  0  0  0  0
   12.1350    7.0070   40.8060 P   0  0  2  0  0  0  0  0  0  0  0  0
   12.9930    6.3730   39.7720 O   0  0  0  0  0  0  0  0  0  0  0  0
   12.0600    5.9740   42.0760 O   0  0  0  0  0  0  0  0  0  0  0  0
    7.9430    4.6590   37.8520 O   0  0  0  0  0  0  0  0  0  0  0  0
    6.5050    5.9750   39.7400 O   0  0  0  0  0  0  0  0  0  0  0  0
   12.5060    8.3080   41.3890 O   0  0  0  0  0  0  0  0  0  0  0  0
   11.9240    4.5630   42.1650 C   0  0  0  0  0  0  0  0  0  0  0  0
   11.8310    3.9650   43.5690 C   0  0  1  0  0  0  0  0  0  0  0  0
   11.8730    3.8980   41.1660 O   0  0  0  0  0  0  0  0  0  0  0  0
   12.3510    4.8920   44.5530 N   0  0  0  0  0  0  0  0  0  0  0  0
   10.4050    3.4530   43.8590 C   0  0  2  0  0  0  0  0  0  0  0  0
    9.3560    4.5230   43.5250 C   0  0  0  0  0  0  0  0  0  0  0  0
    7.9190    4.0590   43.6150 C   0  0  0  0  0  0  0  0  0  0  0  0
   10.3000    2.9760   45.3080 C   0  0  0  0  0  0  0  0  0  0  0  0
    6.4577    7.6284   33.0708 H   0  0  0  0  0  0  0  0  0  0  0  0
   11.1265    7.3688   37.5181 H   0  0  0  0  0  0  0  0  0  0  0  0
    7.2568    7.0712   37.3961 H   0  0  0  0  0  0  0  0  0  0  0  0
    9.6164    5.4668   38.5430 H   0  0  0  0  0  0  0  0  0  0  0  0
    8.2271    5.3880   40.6631 H   0  0  0  0  0  0  0  0  0  0  0  0
    7.5474    8.0090   40.6805 H   0  0  0  0  0  0  0  0  0  0  0  0
   11.7184    8.0653   32.7144 H   0  0  0  0  0  0  0  0  0  0  0  0
   10.5687    8.1824   31.3554 H   0  0  0  0  0  0  0  0  0  0  0  0
    9.8412    8.7979   40.9275 H   0  0  0  0  0  0  0  0  0  0  0  0
    9.4488    7.3599   41.9149 H   0  0  0  0  0  0  0  0  0  0  0  0
    7.5924    4.0290   38.5304 H   0  0  0  0  0  0  0  0  0  0  0  0
    6.1022    5.9486   40.6440 H   0  0  0  0  0  0  0  0  0  0  0  0
   12.4736    3.0745   43.6339 H   0  0  0  0  0  0  0  0  0  0  0  0
   12.1515    4.5364   45.4988 H   0  0  0  0  0  0  0  0  0  0  0  0
   13.3691    4.9880   44.4299 H   0  0  0  0  0  0  0  0  0  0  0  0
   11.9022    5.8109   44.4299 H   0  0  0  0  0  0  0  0  0  0  0  0
   10.1978    2.5913   43.2075 H   0  0  0  0  0  0  0  0  0  0  0  0
    9.4885    5.3611   44.2250 H   0  0  0  0  0  0  0  0  0  0  0  0
    9.5242    4.8012   42.4741 H   0  0  0  0  0  0  0  0  0  0  0  0
    7.6294    3.9655   44.6721 H   0  0  0  0  0  0  0  0  0  0  0  0
    7.2654    4.7917   43.1192 H   0  0  0  0  0  0  0  0  0  0  0  0
    7.8173    3.0824   43.1192 H   0  0  0  0  0  0  0  0  0  0  0  0
   10.4861    3.8214   45.9867 H   0  0  0  0  0  0  0  0  0  0  0  0
    9.2921    2.5748   45.4898 H   0  0  0  0  0  0  0  0  0  0  0  0
   11.0463    2.1886   45.4898 H   0  0  0  0  0  0  0  0  0  0  0  0
  1  2  2  0
  1  6  1  0
  2  3  1  0
  3  4  2  0
  4  5  1  0
  4  7  1  0
  5  6  2  0
  5  9  1  0
  6 15  1  0
  7  8  1  0
 10  7  1  0
  8  9  2  0
 10 11  1  0
 10 14  1  0
 11 12  1  0
 11 21  1  0
 12 13  1  0
 12 22  1  0
 13 14  1  0
 13 16  1  0
 16 17  1  0
 17 18  1  0
 18 19  2  0
 18 20  1  0
 18 23  1  1
 20 24  1  0
 24 25  1  0
 24 26  2  0
 25 27  1  0
 25 28  1  0
 28 29  1  0
 28 31  1  0
 29 30  1  0
  2 32  1  0
  8 33  1  0
 10 34  1  6
 11 35  1  1
 12 36  1  1
 13 37  1  1
 15 38  1  0
 15 39  1  0
 16 40  1  0
 16 41  1  0
 21 42  1  0
 22 43  1  0
 25 44  1  6
 27 45  1  0
 27 46  1  0
 27 47  1  0
 28 48  1  6
 29 49  1  0
 29 50  1  0
 30 51  1  0
 30 52  1  0
 30 53  1  0
 31 54  1  0
 31 55  1  0
 31 56  1  0
M  CHG  2  23  -1  27   1
M  END
>  <filename_input>  (26) 
7D5C_GV6_docked.sdf

>  <pdb_id>  (26) 
7D5C_GV6

>  <pose_rank>  (26) 
25

>  <num_atoms_heavy>  (26) 
31

>  <num_torsions>  (26) 
9

>  <pose>  (26) 
[8.283, 7.087, 37.792, 1e-06, 1e-06, 1e-06, 0.0, 0.0, 0.0, 0.0, 0.0, 0.0, 0.0, 0.0, 0.0]

>  <energy>  (26) 
-1152.9020596577327

>  <inter_energy>  (26) 
-1171.0235940876787

>  <intra_energy>  (26) 
16.92824011709028

>  <rmsd>  (26) 
0.0

>  <sdf_rank>  (26) 
0

$$$$
