
     RDKit          3D

 36 38  0  0  0  0  0  0  0  0999 V2000
   62.3968  -21.5147   51.7190 N   0  0  0  0  0  0  0  0  0  0  0  0
   61.2162  -20.9272   51.6084 C   0  0  0  0  0  0  0  0  0  0  0  0
   60.6030  -20.4214   52.6871 N   0  0  0  0  0  0  0  0  0  0  0  0
   60.5910  -20.8240   50.3998 N   0  0  0  0  0  0  0  0  0  0  0  0
   61.1375  -21.3451   49.2260 C   0  0  0  0  0  0  0  0  0  0  0  0
   60.5315  -21.2651   48.1784 O   0  0  0  0  0  0  0  0  0  0  0  0
   63.0143  -22.4951   48.1789 N   0  0  0  0  0  0  0  0  0  0  0  0
   64.1113  -23.4237   48.4229 C   0  0  2  0  0  0  0  0  0  0  0  0
   64.9916  -22.9029   49.5637 C   0  0  2  0  0  0  0  0  0  0  0  0
   64.1864  -22.5837   50.7183 N   0  0  0  0  0  0  0  0  0  0  0  0
   62.3785  -21.9600   49.3188 C   0  0  0  0  0  0  0  0  0  0  0  0
   62.9740  -22.0308   50.5878 C   0  0  0  0  0  0  0  0  0  0  0  0
   65.0197  -23.6773   47.2457 C   0  0  0  0  0  0  0  0  0  0  0  0
   64.4289  -24.8947   46.1494 S   0  0  0  0  0  0  0  0  0  0  0  0
   66.1886  -23.0531   47.0775 C   0  0  0  0  0  0  0  0  0  0  0  0
   67.1829  -23.4346   45.6868 S   0  0  0  0  0  0  0  0  0  0  0  0
   66.6362  -21.9861   48.0398 C   0  0  2  0  0  0  0  0  0  0  0  0
   65.7307  -21.7655   49.1356 O   0  0  0  0  0  0  0  0  0  0  0  0
   66.7736  -20.6754   47.2444 C   0  0  0  0  0  0  0  0  0  0  0  0
   67.1088  -19.5162   48.0558 O   0  0  0  0  0  0  0  0  0  0  0  0
   68.6106  -19.3195   48.6453 P   0  0  2  0  0  0  0  0  0  0  0  0
   68.7572  -20.2610   49.8129 O   0  0  0  0  0  0  0  0  0  0  0  0
   68.5695  -17.9026   48.9824 O   0  0  0  0  0  0  0  0  0  0  0  0
   69.4385  -19.7059   47.4569 O   0  0  0  0  0  0  0  0  0  0  0  0
   59.6842  -19.9660   52.5910 H   0  0  0  0  0  0  0  0  0  0  0  0
   61.0505  -20.4881   53.6125 H   0  0  0  0  0  0  0  0  0  0  0  0
   59.6813  -20.3433   50.3521 H   0  0  0  0  0  0  0  0  0  0  0  0
   62.7191  -22.2432   47.2248 H   0  0  0  0  0  0  0  0  0  0  0  0
   63.6125  -24.3746   48.6619 H   0  0  0  0  0  0  0  0  0  0  0  0
   65.7024  -23.6926   49.8485 H   0  0  0  0  0  0  0  0  0  0  0  0
   64.5512  -22.7851   51.6603 H   0  0  0  0  0  0  0  0  0  0  0  0
   63.9190  -25.9454   46.8655 H   0  0  0  0  0  0  0  0  0  0  0  0
   68.3996  -23.9014   46.1095 H   0  0  0  0  0  0  0  0  0  0  0  0
   67.5842  -22.3209   48.4861 H   0  0  0  0  0  0  0  0  0  0  0  0
   67.5648  -20.8100   46.4922 H   0  0  0  0  0  0  0  0  0  0  0  0
   65.7891  -20.4733   46.7972 H   0  0  0  0  0  0  0  0  0  0  0  0
  1  2  2  0
  1 12  1  0
  2  3  1  0
  2  4  1  0
  4  5  1  0
  5  6  2  0
  5 11  1  0
  8  7  1  0
  7 11  1  0
  8  9  1  0
  8 13  1  0
  9 10  1  0
  9 18  1  0
 10 12  1  0
 11 12  2  0
 13 14  1  0
 13 15  2  0
 15 16  1  0
 15 17  1  0
 17 18  1  0
 17 19  1  0
 19 20  1  0
 20 21  1  0
 21 22  2  0
 21 23  1  1
 21 24  1  0
  3 25  1  0
  3 26  1  0
  4 27  1  0
  7 28  1  0
  8 29  1  1
  9 30  1  1
 10 31  1  0
 14 32  1  0
 16 33  1  0
 17 34  1  1
 19 35  1  0
 19 36  1  0
M  CHG  2  23  -1  24  -1
M  END
>  <filename_input>  (1) 
7D6O_MTE_docked.sdf

>  <pdb_id>  (1) 
7D6O_MTE

>  <pose_rank>  (1) 
0

>  <num_atoms_heavy>  (1) 
24

>  <num_torsions>  (1) 
3

>  <pose>  (1) 
[62.39684567146613, -21.514684309952887, 51.71895984302679, 3.2733267642885426, -5.307124107636643, -0.1721624756907262, -0.008099596366212875, -0.19411655224679267, -1.988177676993547]

>  <energy>  (1) 
-910.3347710187409

>  <inter_energy>  (1) 
-908.9337752071093

>  <intra_energy>  (1) 
3.4969091533501833

>  <rmsd>  (1) 
0.183384

>  <sdf_rank>  (1) 
0

$$$$

     RDKit          3D

 36 38  0  0  0  0  0  0  0  0999 V2000
   68.3946  -17.8344   48.9940 N   0  0  0  0  0  0  0  0  0  0  0  0
   69.2948  -17.7444   49.9598 C   0  0  0  0  0  0  0  0  0  0  0  0
   69.7258  -16.5474   50.3803 N   0  0  0  0  0  0  0  0  0  0  0  0
   69.8101  -18.8622   50.5490 N   0  0  0  0  0  0  0  0  0  0  0  0
   69.4442  -20.1517   50.1595 C   0  0  0  0  0  0  0  0  0  0  0  0
   69.9542  -21.1193   50.6837 O   0  0  0  0  0  0  0  0  0  0  0  0
   68.0525  -21.5328   48.7113 N   0  0  0  0  0  0  0  0  0  0  0  0
   67.3528  -21.5660   47.4328 C   0  0  2  0  0  0  0  0  0  0  0  0
   66.3801  -20.3859   47.3396 C   0  0  2  0  0  0  0  0  0  0  0  0
   67.0581  -19.1472   47.6387 N   0  0  0  0  0  0  0  0  0  0  0  0
   68.4964  -20.2683   49.1522 C   0  0  0  0  0  0  0  0  0  0  0  0
   67.9994  -19.0828   48.5886 C   0  0  0  0  0  0  0  0  0  0  0  0
   66.5547  -22.8174   47.1633 C   0  0  0  0  0  0  0  0  0  0  0  0
   67.4987  -24.1284   46.5128 S   0  0  0  0  0  0  0  0  0  0  0  0
   65.2376  -22.9019   47.3688 C   0  0  0  0  0  0  0  0  0  0  0  0
   64.3971  -24.3945   47.0029 S   0  0  0  0  0  0  0  0  0  0  0  0
   64.4762  -21.7476   47.9627 C   0  0  2  0  0  0  0  0  0  0  0  0
   65.2806  -20.5831   48.2201 O   0  0  0  0  0  0  0  0  0  0  0  0
   63.8701  -22.2301   49.2929 C   0  0  0  0  0  0  0  0  0  0  0  0
   62.4164  -22.2216   49.3253 O   0  0  0  0  0  0  0  0  0  0  0  0
   61.6084  -21.0439   50.1010 P   0  0  2  0  0  0  0  0  0  0  0  0
   61.5347  -21.4373   51.5539 O   0  0  0  0  0  0  0  0  0  0  0  0
   60.3451  -21.0798   49.3758 O   0  0  0  0  0  0  0  0  0  0  0  0
   62.4998  -19.8665   49.8439 O   0  0  0  0  0  0  0  0  0  0  0  0
   70.4267  -16.4876   51.1327 H   0  0  0  0  0  0  0  0  0  0  0  0
   69.3562  -15.6871   49.9512 H   0  0  0  0  0  0  0  0  0  0  0  0
   70.4951  -18.7502   51.3100 H   0  0  0  0  0  0  0  0  0  0  0  0
   68.2142  -22.3871   49.2634 H   0  0  0  0  0  0  0  0  0  0  0  0
   68.1569  -21.5232   46.6834 H   0  0  0  0  0  0  0  0  0  0  0  0
   65.9956  -20.3271   46.3107 H   0  0  0  0  0  0  0  0  0  0  0  0
   66.8131  -18.2969   47.1114 H   0  0  0  0  0  0  0  0  0  0  0  0
   68.0281  -24.8637   47.5404 H   0  0  0  0  0  0  0  0  0  0  0  0
   64.0456  -25.0188   48.1707 H   0  0  0  0  0  0  0  0  0  0  0  0
   63.7163  -21.4411   47.2288 H   0  0  0  0  0  0  0  0  0  0  0  0
   64.2129  -23.2594   49.4745 H   0  0  0  0  0  0  0  0  0  0  0  0
   64.2069  -21.5248   50.0670 H   0  0  0  0  0  0  0  0  0  0  0  0
  1  2  2  0
  1 12  1  0
  2  3  1  0
  2  4  1  0
  4  5  1  0
  5  6  2  0
  5 11  1  0
  8  7  1  0
  7 11  1  0
  8  9  1  0
  8 13  1  0
  9 10  1  0
  9 18  1  0
 10 12  1  0
 11 12  2  0
 13 14  1  0
 13 15  2  0
 15 16  1  0
 15 17  1  0
 17 18  1  0
 17 19  1  0
 19 20  1  0
 20 21  1  0
 21 22  2  0
 21 23  1  6
 21 24  1  0
  3 25  1  0
  3 26  1  0
  4 27  1  0
  7 28  1  0
  8 29  1  6
  9 30  1  6
 10 31  1  0
 14 32  1  0
 16 33  1  0
 17 34  1  6
 19 35  1  0
 19 36  1  0
M  CHG  2  23  -1  24  -1
M  END
>  <filename_input>  (2) 
7D6O_MTE_docked.sdf

>  <pdb_id>  (2) 
7D6O_MTE

>  <pose_rank>  (2) 
1

>  <num_atoms_heavy>  (2) 
24

>  <num_torsions>  (2) 
3

>  <pose>  (2) 
[68.39459104099895, -17.834392419925745, 48.99396755955746, 0.4780219822122402, -2.5895092249611467, -2.068872430722754, 1.1638737884866237, 3.0022730741449397, -2.126848940153616]

>  <energy>  (2) 
-671.9884936171277

>  <inter_energy>  (2) 
-671.8893212067534

>  <intra_energy>  (2) 
2.757684766781108

>  <rmsd>  (2) 
6.41191

>  <sdf_rank>  (2) 
0

$$$$

     RDKit          3D

 36 38  0  0  0  0  0  0  0  0999 V2000
   62.2898  -20.7119   49.7750 N   0  0  0  0  0  0  0  0  0  0  0  0
   61.8127  -21.6583   50.5675 C   0  0  0  0  0  0  0  0  0  0  0  0
   60.5084  -21.6989   50.8717 N   0  0  0  0  0  0  0  0  0  0  0  0
   62.6317  -22.6122   51.0980 N   0  0  0  0  0  0  0  0  0  0  0  0
   64.0072  -22.6353   50.8617 C   0  0  0  0  0  0  0  0  0  0  0  0
   64.7055  -23.4788   51.3830 O   0  0  0  0  0  0  0  0  0  0  0  0
   65.9028  -21.6160   49.7175 N   0  0  0  0  0  0  0  0  0  0  0  0
   66.4058  -20.3705   49.1510 C   0  0  2  0  0  0  0  0  0  0  0  0
   65.4154  -19.8320   48.1133 C   0  0  2  0  0  0  0  0  0  0  0  0
   64.0862  -19.7621   48.6718 N   0  0  0  0  0  0  0  0  0  0  0  0
   64.5272  -21.6549   50.0279 C   0  0  0  0  0  0  0  0  0  0  0  0
   63.6343  -20.7047   49.5084 C   0  0  0  0  0  0  0  0  0  0  0  0
   67.7492  -20.4638   48.4712 C   0  0  0  0  0  0  0  0  0  0  0  0
   69.1009  -20.3407   49.5625 S   0  0  0  0  0  0  0  0  0  0  0  0
   67.8914  -20.5914   47.1492 C   0  0  0  0  0  0  0  0  0  0  0  0
   69.4971  -20.6686   46.4535 S   0  0  0  0  0  0  0  0  0  0  0  0
   66.6879  -20.7246   46.2555 C   0  0  2  0  0  0  0  0  0  0  0  0
   65.4297  -20.6484   46.9487 O   0  0  0  0  0  0  0  0  0  0  0  0
   66.7816  -22.0927   45.5562 C   0  0  0  0  0  0  0  0  0  0  0  0
   65.5961  -22.9217   45.7035 O   0  0  0  0  0  0  0  0  0  0  0  0
   65.3424  -23.7766   47.0623 P   0  0  2  0  0  0  0  0  0  0  0  0
   66.5330  -23.5517   47.9584 O   0  0  0  0  0  0  0  0  0  0  0  0
   65.2217  -25.1165   46.5027 O   0  0  0  0  0  0  0  0  0  0  0  0
   64.0826  -23.1422   47.5699 O   0  0  0  0  0  0  0  0  0  0  0  0
   60.1465  -22.4395   51.4894 H   0  0  0  0  0  0  0  0  0  0  0  0
   59.8677  -20.9897   50.4879 H   0  0  0  0  0  0  0  0  0  0  0  0
   62.2193  -23.3428   51.6955 H   0  0  0  0  0  0  0  0  0  0  0  0
   66.5191  -22.4246   49.8825 H   0  0  0  0  0  0  0  0  0  0  0  0
   66.5244  -19.7066   50.0200 H   0  0  0  0  0  0  0  0  0  0  0  0
   65.7221  -18.8146   47.8288 H   0  0  0  0  0  0  0  0  0  0  0  0
   63.4740  -18.9724   48.4220 H   0  0  0  0  0  0  0  0  0  0  0  0
   68.6493  -20.3818   50.8553 H   0  0  0  0  0  0  0  0  0  0  0  0
   70.4281  -20.7134   47.4575 H   0  0  0  0  0  0  0  0  0  0  0  0
   66.7039  -19.8789   45.5522 H   0  0  0  0  0  0  0  0  0  0  0  0
   66.9504  -21.9203   44.4829 H   0  0  0  0  0  0  0  0  0  0  0  0
   67.6084  -22.6364   46.0366 H   0  0  0  0  0  0  0  0  0  0  0  0
  1  2  2  0
  1 12  1  0
  2  3  1  0
  2  4  1  0
  4  5  1  0
  5  6  2  0
  5 11  1  0
  8  7  1  0
  7 11  1  0
  8  9  1  0
  8 13  1  0
  9 10  1  0
  9 18  1  0
 10 12  1  0
 11 12  2  0
 13 14  1  0
 13 15  2  0
 15 16  1  0
 15 17  1  0
 17 18  1  0
 17 19  1  0
 19 20  1  0
 20 21  1  0
 21 22  2  0
 21 23  1  6
 21 24  1  0
  3 25  1  0
  3 26  1  0
  4 27  1  0
  7 28  1  0
  8 29  1  1
  9 30  1  6
 10 31  1  0
 14 32  1  0
 16 33  1  0
 17 34  1  6
 19 35  1  0
 19 36  1  0
M  CHG  2  23  -1  24  -1
M  END
>  <filename_input>  (3) 
7D6O_MTE_docked.sdf

>  <pdb_id>  (3) 
7D6O_MTE

>  <pose_rank>  (3) 
2

>  <num_atoms_heavy>  (3) 
24

>  <num_torsions>  (3) 
3

>  <pose>  (3) 
[62.28976452450336, -20.711888477829746, 49.775005562582216, -1.8980253677494605, 0.08696747334485504, 1.5607418924417522, -0.8656388205375578, 3.391643270159077, -0.6967747914245421]

>  <energy>  (3) 
-525.1169350469278

>  <inter_energy>  (3) 
-595.8078345412532

>  <intra_energy>  (3) 
82.15405623310396

>  <rmsd>  (3) 
4.13307

>  <sdf_rank>  (3) 
0

$$$$

     RDKit          3D

 36 38  0  0  0  0  0  0  0  0999 V2000
   69.0378  -20.3129   50.1179 N   0  0  0  0  0  0  0  0  0  0  0  0
   69.6429  -19.4466   49.3212 C   0  0  0  0  0  0  0  0  0  0  0  0
   70.9379  -19.1500   49.4952 N   0  0  0  0  0  0  0  0  0  0  0  0
   68.9676  -18.8306   48.3079 N   0  0  0  0  0  0  0  0  0  0  0  0
   67.6111  -19.0535   48.0665 C   0  0  0  0  0  0  0  0  0  0  0  0
   67.0394  -18.4570   47.1785 O   0  0  0  0  0  0  0  0  0  0  0  0
   65.5935  -20.2655   48.7004 N   0  0  0  0  0  0  0  0  0  0  0  0
   64.9186  -20.9320   49.8074 C   0  0  2  0  0  0  0  0  0  0  0  0
   65.8256  -22.0193   50.3928 C   0  0  2  0  0  0  0  0  0  0  0  0
   67.1282  -21.4790   50.7011 N   0  0  0  0  0  0  0  0  0  0  0  0
   66.9589  -19.9636   48.8869 C   0  0  0  0  0  0  0  0  0  0  0  0
   67.7076  -20.5688   49.9083 C   0  0  0  0  0  0  0  0  0  0  0  0
   63.6060  -21.5910   49.4638 C   0  0  0  0  0  0  0  0  0  0  0  0
   62.2456  -20.5038   49.4830 S   0  0  0  0  0  0  0  0  0  0  0  0
   63.4899  -22.8962   49.2048 C   0  0  0  0  0  0  0  0  0  0  0  0
   61.9154  -23.5706   48.8377 S   0  0  0  0  0  0  0  0  0  0  0  0
   64.7041  -23.7847   49.1709 C   0  0  2  0  0  0  0  0  0  0  0  0
   65.9349  -23.1102   49.4866 O   0  0  0  0  0  0  0  0  0  0  0  0
   64.8122  -24.3645   47.7491 C   0  0  0  0  0  0  0  0  0  0  0  0
   64.8815  -23.3617   46.6984 O   0  0  0  0  0  0  0  0  0  0  0  0
   66.1946  -23.2416   45.7482 P   0  0  2  0  0  0  0  0  0  0  0  0
   67.3874  -23.6207   46.5876 O   0  0  0  0  0  0  0  0  0  0  0  0
   66.1116  -21.8360   45.3736 O   0  0  0  0  0  0  0  0  0  0  0  0
   65.8701  -24.2437   44.6817 O   0  0  0  0  0  0  0  0  0  0  0  0
   71.4001  -18.4745   48.8700 H   0  0  0  0  0  0  0  0  0  0  0  0
   71.4713  -19.5977   50.2542 H   0  0  0  0  0  0  0  0  0  0  0  0
   69.4785  -18.1764   47.6979 H   0  0  0  0  0  0  0  0  0  0  0  0
   65.0996  -20.0277   47.8284 H   0  0  0  0  0  0  0  0  0  0  0  0
   64.7013  -20.1217   50.5189 H   0  0  0  0  0  0  0  0  0  0  0  0
   65.3766  -22.3869   51.3273 H   0  0  0  0  0  0  0  0  0  0  0  0
   67.6212  -21.7997   51.5467 H   0  0  0  0  0  0  0  0  0  0  0  0
   61.9000  -20.2276   50.7796 H   0  0  0  0  0  0  0  0  0  0  0  0
   61.2561  -23.8529   50.0050 H   0  0  0  0  0  0  0  0  0  0  0  0
   64.5694  -24.5571   49.9424 H   0  0  0  0  0  0  0  0  0  0  0  0
   65.7212  -24.9818   47.6969 H   0  0  0  0  0  0  0  0  0  0  0  0
   63.8928  -24.9423   47.5735 H   0  0  0  0  0  0  0  0  0  0  0  0
  1  2  2  0
  1 12  1  0
  2  3  1  0
  2  4  1  0
  4  5  1  0
  5  6  2  0
  5 11  1  0
  8  7  1  0
  7 11  1  0
  8  9  1  0
  8 13  1  0
  9 10  1  0
  9 18  1  0
 10 12  1  0
 11 12  2  0
 13 14  1  0
 13 15  2  0
 15 16  1  0
 15 17  1  0
 17 18  1  0
 17 19  1  0
 19 20  1  0
 20 21  1  0
 21 22  2  0
 21 23  1  6
 21 24  1  0
  3 25  1  0
  3 26  1  0
  4 27  1  0
  7 28  1  0
  8 29  1  1
  9 30  1  1
 10 31  1  0
 14 32  1  0
 16 33  1  0
 17 34  1  1
 19 35  1  0
 19 36  1  0
M  CHG  2  23  -1  24  -1
M  END
>  <filename_input>  (4) 
7D6O_MTE_docked.sdf

>  <pdb_id>  (4) 
7D6O_MTE

>  <pose_rank>  (4) 
3

>  <num_atoms_heavy>  (4) 
24

>  <num_torsions>  (4) 
3

>  <pose>  (4) 
[69.03781162197265, -20.31288940392564, 50.117890488727916, 1.534137837244543, -1.3088122876159307, 3.6229225896726143, 4.199330301156408, 0.5559449829022949, -1.2300670653168926]

>  <energy>  (4) 
-605.9036266107021

>  <inter_energy>  (4) 
-606.4552094014473

>  <intra_energy>  (4) 
0.7101673335767984

>  <rmsd>  (4) 
5.73643

>  <sdf_rank>  (4) 
0

$$$$

     RDKit          3D

 36 38  0  0  0  0  0  0  0  0999 V2000
   67.8947  -20.7084   46.2381 N   0  0  0  0  0  0  0  0  0  0  0  0
   68.9527  -19.9416   46.4477 C   0  0  0  0  0  0  0  0  0  0  0  0
   69.6825  -19.4911   45.4182 N   0  0  0  0  0  0  0  0  0  0  0  0
   69.3311  -19.5932   47.7117 N   0  0  0  0  0  0  0  0  0  0  0  0
   68.6511  -20.0368   48.8471 C   0  0  0  0  0  0  0  0  0  0  0  0
   69.0428  -19.7344   49.9544 O   0  0  0  0  0  0  0  0  0  0  0  0
   66.7752  -21.3122   49.7391 N   0  0  0  0  0  0  0  0  0  0  0  0
   65.8657  -22.4178   49.4644 C   0  0  2  0  0  0  0  0  0  0  0  0
   65.1479  -22.1839   48.1311 C   0  0  2  0  0  0  0  0  0  0  0  0
   66.1022  -21.8972   47.0867 N   0  0  0  0  0  0  0  0  0  0  0  0
   67.5345  -20.8372   48.6491 C   0  0  0  0  0  0  0  0  0  0  0  0
   67.1919  -21.1570   47.3261 C   0  0  0  0  0  0  0  0  0  0  0  0
   64.7985  -22.6527   50.5042 C   0  0  0  0  0  0  0  0  0  0  0  0
   65.3293  -23.6187   51.8526 S   0  0  0  0  0  0  0  0  0  0  0  0
   63.5496  -22.1942   50.3853 C   0  0  0  0  0  0  0  0  0  0  0  0
   62.3760  -22.5403   51.6388 S   0  0  0  0  0  0  0  0  0  0  0  0
   63.1531  -21.3373   49.2134 C   0  0  2  0  0  0  0  0  0  0  0  0
   64.2069  -21.1248   48.2575 O   0  0  0  0  0  0  0  0  0  0  0  0
   62.7109  -19.9716   49.7690 C   0  0  0  0  0  0  0  0  0  0  0  0
   61.4252  -19.9905   50.4480 O   0  0  0  0  0  0  0  0  0  0  0  0
   60.1482  -20.7514   49.7908 P   0  0  2  0  0  0  0  0  0  0  0  0
   58.9586  -19.8393   49.9457 O   0  0  0  0  0  0  0  0  0  0  0  0
   60.1235  -21.9595   50.6048 O   0  0  0  0  0  0  0  0  0  0  0  0
   60.6046  -20.9044   48.3711 O   0  0  0  0  0  0  0  0  0  0  0  0
   70.5043  -18.8948   45.5914 H   0  0  0  0  0  0  0  0  0  0  0  0
   69.4217  -19.7410   44.4536 H   0  0  0  0  0  0  0  0  0  0  0  0
   70.1496  -18.9797   47.8324 H   0  0  0  0  0  0  0  0  0  0  0  0
   66.8590  -20.8996   50.6792 H   0  0  0  0  0  0  0  0  0  0  0  0
   66.5147  -23.3059   49.4554 H   0  0  0  0  0  0  0  0  0  0  0  0
   64.6051  -23.1008   47.8579 H   0  0  0  0  0  0  0  0  0  0  0  0
   65.9419  -22.2690   46.1396 H   0  0  0  0  0  0  0  0  0  0  0  0
   64.9868  -22.9955   53.0237 H   0  0  0  0  0  0  0  0  0  0  0  0
   62.9566  -22.3691   52.8678 H   0  0  0  0  0  0  0  0  0  0  0  0
   62.3510  -21.8642   48.6757 H   0  0  0  0  0  0  0  0  0  0  0  0
   63.4730  -19.6270   50.4834 H   0  0  0  0  0  0  0  0  0  0  0  0
   62.6011  -19.3001   48.9046 H   0  0  0  0  0  0  0  0  0  0  0  0
  1  2  2  0
  1 12  1  0
  2  3  1  0
  2  4  1  0
  4  5  1  0
  5  6  2  0
  5 11  1  0
  8  7  1  0
  7 11  1  0
  8  9  1  0
  8 13  1  0
  9 10  1  0
  9 18  1  0
 10 12  1  0
 11 12  2  0
 13 14  1  0
 13 15  2  0
 15 16  1  0
 15 17  1  0
 17 18  1  0
 17 19  1  0
 19 20  1  0
 20 21  1  0
 21 22  2  0
 21 23  1  1
 21 24  1  0
  3 25  1  0
  3 26  1  0
  4 27  1  0
  7 28  1  0
  8 29  1  6
  9 30  1  6
 10 31  1  0
 14 32  1  0
 16 33  1  0
 17 34  1  6
 19 35  1  0
 19 36  1  0
M  CHG  2  23  -1  24  -1
M  END
>  <filename_input>  (5) 
7D6O_MTE_docked.sdf

>  <pdb_id>  (5) 
7D6O_MTE

>  <pose_rank>  (5) 
4

>  <num_atoms_heavy>  (5) 
24

>  <num_torsions>  (5) 
3

>  <pose>  (5) 
[67.89472218654382, -20.70841646129127, 46.23811911843846, -0.20625138918611255, 2.996344326337659, -0.17975323088656406, -4.3414915912020975, -2.2896446639010772, -3.0241640234974585]

>  <energy>  (5) 
-483.2920137924648

>  <inter_energy>  (5) 
-566.0643800138014

>  <intra_energy>  (5) 
97.88844124499336

>  <rmsd>  (5) 
6.92796

>  <sdf_rank>  (5) 
0

$$$$

     RDKit          3D

 36 38  0  0  0  0  0  0  0  0999 V2000
   64.6589  -24.1074   47.5820 N   0  0  0  0  0  0  0  0  0  0  0  0
   63.4233  -24.1983   48.0471 C   0  0  0  0  0  0  0  0  0  0  0  0
   62.7341  -25.3416   47.9319 N   0  0  0  0  0  0  0  0  0  0  0  0
   62.8175  -23.1346   48.6502 N   0  0  0  0  0  0  0  0  0  0  0  0
   63.4442  -21.8953   48.7907 C   0  0  0  0  0  0  0  0  0  0  0  0
   62.8565  -20.9644   49.2996 O   0  0  0  0  0  0  0  0  0  0  0  0
   65.4595  -20.5711   48.4353 N   0  0  0  0  0  0  0  0  0  0  0  0
   66.6468  -20.4338   47.6005 C   0  0  2  0  0  0  0  0  0  0  0  0
   67.4385  -21.7455   47.5999 C   0  0  2  0  0  0  0  0  0  0  0  0
   66.5775  -22.8556   47.2683 N   0  0  0  0  0  0  0  0  0  0  0  0
   64.7432  -21.7805   48.3152 C   0  0  0  0  0  0  0  0  0  0  0  0
   65.3146  -22.9105   47.7096 C   0  0  0  0  0  0  0  0  0  0  0  0
   67.6036  -19.3417   48.0094 C   0  0  0  0  0  0  0  0  0  0  0  0
   67.1756  -17.7665   47.4023 S   0  0  0  0  0  0  0  0  0  0  0  0
   68.6997  -19.5665   48.7389 C   0  0  0  0  0  0  0  0  0  0  0  0
   69.7608  -18.2326   49.1430 S   0  0  0  0  0  0  0  0  0  0  0  0
   69.0051  -20.9433   49.2641 C   0  0  2  0  0  0  0  0  0  0  0  0
   68.0567  -21.9484   48.8648 O   0  0  0  0  0  0  0  0  0  0  0  0
   69.0143  -20.8594   50.8011 C   0  0  0  0  0  0  0  0  0  0  0  0
   68.3184  -19.7022   51.3407 O   0  0  0  0  0  0  0  0  0  0  0  0
   68.8263  -18.9901   52.7106 P   0  0  2  0  0  0  0  0  0  0  0  0
   67.9670  -19.5170   53.8310 O   0  0  0  0  0  0  0  0  0  0  0  0
   68.6175  -17.5904   52.3640 O   0  0  0  0  0  0  0  0  0  0  0  0
   70.2469  -19.4647   52.7714 O   0  0  0  0  0  0  0  0  0  0  0  0
   61.7729  -25.4026   48.2970 H   0  0  0  0  0  0  0  0  0  0  0  0
   63.1655  -26.1595   47.4782 H   0  0  0  0  0  0  0  0  0  0  0  0
   61.8615  -23.2506   49.0156 H   0  0  0  0  0  0  0  0  0  0  0  0
   65.1596  -19.8247   49.0785 H   0  0  0  0  0  0  0  0  0  0  0  0
   66.2510  -20.1678   46.6093 H   0  0  0  0  0  0  0  0  0  0  0  0
   68.2258  -21.6812   46.8343 H   0  0  0  0  0  0  0  0  0  0  0  0
   66.9414  -23.6197   46.6813 H   0  0  0  0  0  0  0  0  0  0  0  0
   66.9452  -16.9189   48.4537 H   0  0  0  0  0  0  0  0  0  0  0  0
   69.8519  -18.1180   50.5051 H   0  0  0  0  0  0  0  0  0  0  0  0
   69.9742  -21.2496   48.8433 H   0  0  0  0  0  0  0  0  0  0  0  0
   68.5349  -21.7661   51.1986 H   0  0  0  0  0  0  0  0  0  0  0  0
   70.0671  -20.7644   51.1054 H   0  0  0  0  0  0  0  0  0  0  0  0
  1  2  2  0
  1 12  1  0
  2  3  1  0
  2  4  1  0
  4  5  1  0
  5  6  2  0
  5 11  1  0
  8  7  1  0
  7 11  1  0
  8  9  1  0
  8 13  1  0
  9 10  1  0
  9 18  1  0
 10 12  1  0
 11 12  2  0
 13 14  1  0
 13 15  2  0
 15 16  1  0
 15 17  1  0
 17 18  1  0
 17 19  1  0
 19 20  1  0
 20 21  1  0
 21 22  2  0
 21 23  1  6
 21 24  1  0
  3 25  1  0
  3 26  1  0
  4 27  1  0
  7 28  1  0
  8 29  1  6
  9 30  1  6
 10 31  1  0
 14 32  1  0
 16 33  1  0
 17 34  1  6
 19 35  1  0
 19 36  1  0
M  CHG  2  23  -1  24  -1
M  END
>  <filename_input>  (6) 
7D6O_MTE_docked.sdf

>  <pdb_id>  (6) 
7D6O_MTE

>  <pose_rank>  (6) 
5

>  <num_atoms_heavy>  (6) 
24

>  <num_torsions>  (6) 
3

>  <pose>  (6) 
[64.65889832653482, -24.107447115669995, 47.58201048539685, 2.029564822791642, -0.10522716358119674, 0.08425669758495664, -2.732563860107819, 2.2268166088448957, -2.373238833649652]

>  <energy>  (6) 
-521.9008009907178

>  <inter_energy>  (6) 
-537.9127580323491

>  <intra_energy>  (6) 
19.970768432003393

>  <rmsd>  (6) 
4.41247

>  <sdf_rank>  (6) 
0

$$$$

     RDKit          3D

 36 38  0  0  0  0  0  0  0  0999 V2000
   68.2029  -19.4473   52.9156 N   0  0  0  0  0  0  0  0  0  0  0  0
   69.3347  -19.5868   53.5869 C   0  0  0  0  0  0  0  0  0  0  0  0
   69.3860  -19.3206   54.8992 N   0  0  0  0  0  0  0  0  0  0  0  0
   70.4769  -19.9994   52.9644 N   0  0  0  0  0  0  0  0  0  0  0  0
   70.5286  -20.2726   51.5966 C   0  0  0  0  0  0  0  0  0  0  0  0
   71.5733  -20.6009   51.0753 O   0  0  0  0  0  0  0  0  0  0  0  0
   69.3068  -20.4152   49.4922 N   0  0  0  0  0  0  0  0  0  0  0  0
   68.1515  -19.9051   48.7640 C   0  0  2  0  0  0  0  0  0  0  0  0
   66.8775  -20.1265   49.5858 C   0  0  2  0  0  0  0  0  0  0  0  0
   67.0415  -19.6071   50.9225 N   0  0  0  0  0  0  0  0  0  0  0  0
   69.3505  -20.1386   50.8749 C   0  0  0  0  0  0  0  0  0  0  0  0
   68.2076  -19.7161   51.5715 C   0  0  0  0  0  0  0  0  0  0  0  0
   67.9149  -20.5238   47.4088 C   0  0  0  0  0  0  0  0  0  0  0  0
   68.8530  -19.8018   46.1314 S   0  0  0  0  0  0  0  0  0  0  0  0
   67.0389  -21.5101   47.1992 C   0  0  0  0  0  0  0  0  0  0  0  0
   66.8204  -22.1464   45.5819 S   0  0  0  0  0  0  0  0  0  0  0  0
   66.2769  -22.1186   48.3454 C   0  0  2  0  0  0  0  0  0  0  0  0
   66.5478  -21.5097   49.6203 O   0  0  0  0  0  0  0  0  0  0  0  0
   66.6645  -23.6064   48.4192 C   0  0  0  0  0  0  0  0  0  0  0  0
   65.5514  -24.5239   48.2358 O   0  0  0  0  0  0  0  0  0  0  0  0
   64.1672  -24.0250   47.5451 P   0  0  2  0  0  0  0  0  0  0  0  0
   63.0340  -24.6458   48.3207 O   0  0  0  0  0  0  0  0  0  0  0  0
   64.3572  -24.5356   46.1937 O   0  0  0  0  0  0  0  0  0  0  0  0
   64.2745  -22.5409   47.7262 O   0  0  0  0  0  0  0  0  0  0  0  0
   70.2716  -19.4322   55.4131 H   0  0  0  0  0  0  0  0  0  0  0  0
   68.5397  -19.0045   55.3940 H   0  0  0  0  0  0  0  0  0  0  0  0
   71.3332  -20.1135   53.5252 H   0  0  0  0  0  0  0  0  0  0  0  0
   70.0516  -20.9492   49.0222 H   0  0  0  0  0  0  0  0  0  0  0  0
   68.3818  -18.8417   48.6024 H   0  0  0  0  0  0  0  0  0  0  0  0
   66.0501  -19.5835   49.1057 H   0  0  0  0  0  0  0  0  0  0  0  0
   66.2467  -19.1439   51.3858 H   0  0  0  0  0  0  0  0  0  0  0  0
   69.8498  -19.0346   46.6744 H   0  0  0  0  0  0  0  0  0  0  0  0
   66.3761  -23.4402   45.6563 H   0  0  0  0  0  0  0  0  0  0  0  0
   65.2059  -21.9613   48.1502 H   0  0  0  0  0  0  0  0  0  0  0  0
   67.4098  -23.8077   47.6356 H   0  0  0  0  0  0  0  0  0  0  0  0
   67.0533  -23.7811   49.4333 H   0  0  0  0  0  0  0  0  0  0  0  0
  1  2  2  0
  1 12  1  0
  2  3  1  0
  2  4  1  0
  4  5  1  0
  5  6  2  0
  5 11  1  0
  8  7  1  0
  7 11  1  0
  8  9  1  0
  8 13  1  0
  9 10  1  0
  9 18  1  0
 10 12  1  0
 11 12  2  0
 13 14  1  0
 13 15  2  0
 15 16  1  0
 15 17  1  0
 17 18  1  0
 17 19  1  0
 19 20  1  0
 20 21  1  0
 21 22  2  0
 21 23  1  6
 21 24  1  0
  3 25  1  0
  3 26  1  0
  4 27  1  0
  7 28  1  0
  8 29  1  6
  9 30  1  6
 10 31  1  0
 14 32  1  0
 16 33  1  0
 17 34  1  6
 19 35  1  0
 19 36  1  0
M  CHG  2  23  -1  24  -1
M  END
>  <filename_input>  (7) 
7D6O_MTE_docked.sdf

>  <pdb_id>  (7) 
7D6O_MTE

>  <pose_rank>  (7) 
6

>  <num_atoms_heavy>  (7) 
24

>  <num_torsions>  (7) 
3

>  <pose>  (7) 
[68.20285320072901, -19.44729301280194, 52.91559111827832, 0.7177235189839408, -0.7426411279642267, -2.7035912034653187, 1.1280438104379769, -7.4475694677282345, 3.2005948579519528]

>  <energy>  (7) 
-395.08303644429236

>  <inter_energy>  (7) 
-491.00465302794646

>  <intra_energy>  (7) 
85.74989258319117

>  <rmsd>  (7) 
6.53589

>  <sdf_rank>  (7) 
0

$$$$

     RDKit          3D

 36 38  0  0  0  0  0  0  0  0999 V2000
   65.8689  -23.6789   46.7832 N   0  0  0  0  0  0  0  0  0  0  0  0
   64.5808  -23.9633   46.8884 C   0  0  0  0  0  0  0  0  0  0  0  0
   64.1091  -25.1491   46.4796 N   0  0  0  0  0  0  0  0  0  0  0  0
   63.7001  -23.0604   47.4093 N   0  0  0  0  0  0  0  0  0  0  0  0
   64.0923  -21.7903   47.8350 C   0  0  0  0  0  0  0  0  0  0  0  0
   63.2712  -21.0038   48.2573 O   0  0  0  0  0  0  0  0  0  0  0  0
   65.9277  -20.2209   48.1665 N   0  0  0  0  0  0  0  0  0  0  0  0
   67.2568  -19.8471   47.6988 C   0  0  2  0  0  0  0  0  0  0  0  0
   68.1972  -21.0540   47.7804 C   0  0  2  0  0  0  0  0  0  0  0  0
   67.6112  -22.1968   47.1215 N   0  0  0  0  0  0  0  0  0  0  0  0
   65.4404  -21.4740   47.7393 C   0  0  0  0  0  0  0  0  0  0  0  0
   66.2979  -22.4456   47.2001 C   0  0  0  0  0  0  0  0  0  0  0  0
   67.9173  -18.7217   48.4556 C   0  0  0  0  0  0  0  0  0  0  0  0
   67.4427  -17.1356   47.9153 S   0  0  0  0  0  0  0  0  0  0  0  0
   68.8128  -18.9214   49.4264 C   0  0  0  0  0  0  0  0  0  0  0  0
   69.5407  -17.5460   50.2306 S   0  0  0  0  0  0  0  0  0  0  0  0
   69.1632  -20.3145   49.8750 C   0  0  2  0  0  0  0  0  0  0  0  0
   68.4962  -21.3544   49.1382 O   0  0  0  0  0  0  0  0  0  0  0  0
   68.7705  -20.4340   51.3585 C   0  0  0  0  0  0  0  0  0  0  0  0
   69.8107  -20.0218   52.2873 O   0  0  0  0  0  0  0  0  0  0  0  0
   71.3631  -20.4302   52.0324 P   0  0  2  0  0  0  0  0  0  0  0  0
   71.9280  -19.4390   51.0477 O   0  0  0  0  0  0  0  0  0  0  0  0
   71.1916  -21.7869   51.5295 O   0  0  0  0  0  0  0  0  0  0  0  0
   71.9276  -20.2898   53.4139 O   0  0  0  0  0  0  0  0  0  0  0  0
   63.1049  -25.3612   46.5656 H   0  0  0  0  0  0  0  0  0  0  0  0
   64.7508  -25.8484   46.0795 H   0  0  0  0  0  0  0  0  0  0  0  0
   62.7084  -23.3263   47.4914 H   0  0  0  0  0  0  0  0  0  0  0  0
   65.3737  -19.6029   48.7764 H   0  0  0  0  0  0  0  0  0  0  0  0
   67.0925  -19.4966   46.6691 H   0  0  0  0  0  0  0  0  0  0  0  0
   69.1360  -20.8043   47.2644 H   0  0  0  0  0  0  0  0  0  0  0  0
   68.2146  -22.8328   46.5809 H   0  0  0  0  0  0  0  0  0  0  0  0
   67.2034  -16.3358   49.0015 H   0  0  0  0  0  0  0  0  0  0  0  0
   69.4531  -17.7115   51.5877 H   0  0  0  0  0  0  0  0  0  0  0  0
   70.2402  -20.4560   49.7014 H   0  0  0  0  0  0  0  0  0  0  0  0
   67.8846  -19.8056   51.5323 H   0  0  0  0  0  0  0  0  0  0  0  0
   68.5817  -21.5007   51.5498 H   0  0  0  0  0  0  0  0  0  0  0  0
  1  2  2  0
  1 12  1  0
  2  3  1  0
  2  4  1  0
  4  5  1  0
  5  6  2  0
  5 11  1  0
  8  7  1  0
  7 11  1  0
  8  9  1  0
  8 13  1  0
  9 10  1  0
  9 18  1  0
 10 12  1  0
 11 12  2  0
 13 14  1  0
 13 15  2  0
 15 16  1  0
 15 17  1  0
 17 18  1  0
 17 19  1  0
 19 20  1  0
 20 21  1  0
 21 22  2  0
 21 23  1  6
 21 24  1  0
  3 25  1  0
  3 26  1  0
  4 27  1  0
  7 28  1  0
  8 29  1  6
  9 30  1  6
 10 31  1  0
 14 32  1  0
 16 33  1  0
 17 34  1  1
 19 35  1  0
 19 36  1  0
M  CHG  2  23  -1  24  -1
M  END
>  <filename_input>  (8) 
7D6O_MTE_docked.sdf

>  <pdb_id>  (8) 
7D6O_MTE

>  <pose_rank>  (8) 
7

>  <num_atoms_heavy>  (8) 
24

>  <num_torsions>  (8) 
3

>  <pose>  (8) 
[65.86894108725917, -23.678945924678608, 46.783234100245515, 2.132572000958987, -0.15240693628151503, 0.4359122992888044, 1.669446605588557, -2.2162789551450985, 0.7750256321664507]

>  <energy>  (8) 
-464.07796553283254

>  <inter_energy>  (8) 
-486.60073715659587

>  <intra_energy>  (8) 
34.83297978471333

>  <rmsd>  (8) 
5.17526

>  <sdf_rank>  (8) 
0

$$$$

     RDKit          3D

 36 38  0  0  0  0  0  0  0  0999 V2000
   65.8304  -24.5832   46.7814 N   0  0  0  0  0  0  0  0  0  0  0  0
   64.6341  -24.6602   46.2210 C   0  0  0  0  0  0  0  0  0  0  0  0
   64.0565  -25.8505   46.0085 N   0  0  0  0  0  0  0  0  0  0  0  0
   63.9600  -23.5360   45.8416 N   0  0  0  0  0  0  0  0  0  0  0  0
   64.4919  -22.2548   45.9960 C   0  0  0  0  0  0  0  0  0  0  0  0
   63.8755  -21.2837   45.6111 O   0  0  0  0  0  0  0  0  0  0  0  0
   66.3468  -20.8943   46.8022 N   0  0  0  0  0  0  0  0  0  0  0  0
   67.7776  -20.8999   47.0811 C   0  0  2  0  0  0  0  0  0  0  0  0
   68.1161  -22.0386   48.0488 C   0  0  2  0  0  0  0  0  0  0  0  0
   67.5775  -23.2882   47.5672 N   0  0  0  0  0  0  0  0  0  0  0  0
   65.7433  -22.1513   46.5877 C   0  0  0  0  0  0  0  0  0  0  0  0
   66.3847  -23.3425   46.9613 C   0  0  0  0  0  0  0  0  0  0  0  0
   68.3251  -19.6308   47.6851 C   0  0  0  0  0  0  0  0  0  0  0  0
   68.7085  -18.4010   46.5130 S   0  0  0  0  0  0  0  0  0  0  0  0
   68.5327  -19.4761   48.9955 C   0  0  0  0  0  0  0  0  0  0  0  0
   69.1942  -17.9696   49.5966 S   0  0  0  0  0  0  0  0  0  0  0  0
   68.1540  -20.5607   49.9676 C   0  0  2  0  0  0  0  0  0  0  0  0
   67.6194  -21.7442   49.3487 O   0  0  0  0  0  0  0  0  0  0  0  0
   67.0904  -19.9792   50.9164 C   0  0  0  0  0  0  0  0  0  0  0  0
   65.7775  -19.8144   50.3134 O   0  0  0  0  0  0  0  0  0  0  0  0
   64.5918  -20.8898   50.5949 P   0  0  2  0  0  0  0  0  0  0  0  0
   63.4956  -20.1614   51.3290 O   0  0  0  0  0  0  0  0  0  0  0  0
   65.3228  -21.8777   51.3774 O   0  0  0  0  0  0  0  0  0  0  0  0
   64.2193  -21.2794   49.1961 O   0  0  0  0  0  0  0  0  0  0  0  0
   63.1250  -25.9002   45.5717 H   0  0  0  0  0  0  0  0  0  0  0  0
   64.5439  -26.7156   46.2820 H   0  0  0  0  0  0  0  0  0  0  0  0
   63.0231  -23.6367   45.4256 H   0  0  0  0  0  0  0  0  0  0  0  0
   65.8051  -20.0190   46.7639 H   0  0  0  0  0  0  0  0  0  0  0  0
   68.2452  -21.0199   46.0926 H   0  0  0  0  0  0  0  0  0  0  0  0
   69.2101  -22.1365   48.1083 H   0  0  0  0  0  0  0  0  0  0  0  0
   68.1208  -24.1543   47.6920 H   0  0  0  0  0  0  0  0  0  0  0  0
   69.0677  -17.2487   47.1609 H   0  0  0  0  0  0  0  0  0  0  0  0
   69.1885  -17.9827   50.9665 H   0  0  0  0  0  0  0  0  0  0  0  0
   69.0715  -20.8727   50.4879 H   0  0  0  0  0  0  0  0  0  0  0  0
   66.9913  -20.6551   51.7786 H   0  0  0  0  0  0  0  0  0  0  0  0
   67.4360  -18.9740   51.1993 H   0  0  0  0  0  0  0  0  0  0  0  0
  1  2  2  0
  1 12  1  0
  2  3  1  0
  2  4  1  0
  4  5  1  0
  5  6  2  0
  5 11  1  0
  8  7  1  0
  7 11  1  0
  8  9  1  0
  8 13  1  0
  9 10  1  0
  9 18  1  0
 10 12  1  0
 11 12  2  0
 13 14  1  0
 13 15  2  0
 15 16  1  0
 15 17  1  0
 17 18  1  0
 17 19  1  0
 19 20  1  0
 20 21  1  0
 21 22  2  0
 21 23  1  1
 21 24  1  0
  3 25  1  0
  3 26  1  0
  4 27  1  0
  7 28  1  0
  8 29  1  6
  9 30  1  1
 10 31  1  0
 14 32  1  0
 16 33  1  0
 17 34  1  1
 19 35  1  0
 19 36  1  0
M  CHG  2  23  -1  24  -1
M  END
>  <filename_input>  (9) 
7D6O_MTE_docked.sdf

>  <pdb_id>  (9) 
7D6O_MTE

>  <pose_rank>  (9) 
8

>  <num_atoms_heavy>  (9) 
24

>  <num_torsions>  (9) 
3

>  <pose>  (9) 
[65.83044252783817, -24.583168216579363, 46.78139746392562, -3.6881311260125704, 1.3998061179159917, -2.0502077577441264, 4.491811492062431, -6.009371059783621, 1.3660946676686325]

>  <energy>  (9) 
-350.6163937275417

>  <inter_energy>  (9) 
-372.046491972405

>  <intra_energy>  (9) 
19.696591309983873

>  <rmsd>  (9) 
5.27926

>  <sdf_rank>  (9) 
0

$$$$

     RDKit          3D

 36 38  0  0  0  0  0  0  0  0999 V2000
   66.8258  -23.3599   48.6505 N   0  0  0  0  0  0  0  0  0  0  0  0
   65.6467  -23.4593   48.0579 C   0  0  0  0  0  0  0  0  0  0  0  0
   65.1783  -24.6527   47.6683 N   0  0  0  0  0  0  0  0  0  0  0  0
   64.8803  -22.3547   47.8240 N   0  0  0  0  0  0  0  0  0  0  0  0
   65.2958  -21.0673   48.1677 C   0  0  0  0  0  0  0  0  0  0  0  0
   64.6004  -20.1081   47.9082 O   0  0  0  0  0  0  0  0  0  0  0  0
   67.0152  -19.6803   49.1978 N   0  0  0  0  0  0  0  0  0  0  0  0
   68.4381  -19.6026   49.5055 C   0  0  2  0  0  0  0  0  0  0  0  0
   68.8653  -20.8331   50.3122 C   0  0  2  0  0  0  0  0  0  0  0  0
   68.4438  -22.0438   49.6488 N   0  0  0  0  0  0  0  0  0  0  0  0
   66.5269  -20.9414   48.7963 C   0  0  0  0  0  0  0  0  0  0  0  0
   67.2668  -22.1141   49.0144 C   0  0  0  0  0  0  0  0  0  0  0  0
   68.8654  -18.3891   50.2931 C   0  0  0  0  0  0  0  0  0  0  0  0
   69.1513  -16.9781   49.3130 S   0  0  0  0  0  0  0  0  0  0  0  0
   69.0450  -18.4036   51.6166 C   0  0  0  0  0  0  0  0  0  0  0  0
   69.5650  -16.9459   52.4369 S   0  0  0  0  0  0  0  0  0  0  0  0
   68.7530  -19.6428   52.4189 C   0  0  2  0  0  0  0  0  0  0  0  0
   68.3312  -20.7686   51.6289 O   0  0  0  0  0  0  0  0  0  0  0  0
   67.6326  -19.2943   53.4152 C   0  0  0  0  0  0  0  0  0  0  0  0
   68.0061  -19.4471   54.8122 O   0  0  0  0  0  0  0  0  0  0  0  0
   67.3971  -18.4582   55.9493 P   0  0  2  0  0  0  0  0  0  0  0  0
   68.1566  -18.7243   57.2235 O   0  0  0  0  0  0  0  0  0  0  0  0
   66.0057  -18.8905   55.9456 O   0  0  0  0  0  0  0  0  0  0  0  0
   67.6876  -17.1161   55.3481 O   0  0  0  0  0  0  0  0  0  0  0  0
   64.2595  -24.7200   47.2077 H   0  0  0  0  0  0  0  0  0  0  0  0
   65.7371  -25.5029   47.8293 H   0  0  0  0  0  0  0  0  0  0  0  0
   63.9603  -22.4756   47.3768 H   0  0  0  0  0  0  0  0  0  0  0  0
   66.3991  -18.8580   49.2698 H   0  0  0  0  0  0  0  0  0  0  0  0
   68.9247  -19.5415   48.5209 H   0  0  0  0  0  0  0  0  0  0  0  0
   69.9630  -20.8444   50.3823 H   0  0  0  0  0  0  0  0  0  0  0  0
   69.0599  -22.8691   49.6638 H   0  0  0  0  0  0  0  0  0  0  0  0
   69.3706  -15.8958   50.1238 H   0  0  0  0  0  0  0  0  0  0  0  0
   69.4974  -17.1355   53.7920 H   0  0  0  0  0  0  0  0  0  0  0  0
   69.6890  -19.9454   52.9113 H   0  0  0  0  0  0  0  0  0  0  0  0
   67.3377  -18.2475   53.2499 H   0  0  0  0  0  0  0  0  0  0  0  0
   66.8128  -20.0036   53.2286 H   0  0  0  0  0  0  0  0  0  0  0  0
  1  2  2  0
  1 12  1  0
  2  3  1  0
  2  4  1  0
  4  5  1  0
  5  6  2  0
  5 11  1  0
  8  7  1  0
  7 11  1  0
  8  9  1  0
  8 13  1  0
  9 10  1  0
  9 18  1  0
 10 12  1  0
 11 12  2  0
 13 14  1  0
 13 15  2  0
 15 16  1  0
 15 17  1  0
 17 18  1  0
 17 19  1  0
 19 20  1  0
 20 21  1  0
 21 22  2  0
 21 23  1  1
 21 24  1  0
  3 25  1  0
  3 26  1  0
  4 27  1  0
  7 28  1  0
  8 29  1  6
  9 30  1  1
 10 31  1  0
 14 32  1  0
 16 33  1  0
 17 34  1  1
 19 35  1  0
 19 36  1  0
M  CHG  2  23  -1  24  -1
M  END
>  <filename_input>  (10) 
7D6O_MTE_docked.sdf

>  <pdb_id>  (10) 
7D6O_MTE

>  <pose_rank>  (10) 
9

>  <num_atoms_heavy>  (10) 
24

>  <num_torsions>  (10) 
3

>  <pose>  (10) 
[66.82575799466329, -23.359874673606395, 48.650540663418546, 1.6819415468275516, -0.5977821016383815, 0.9021270164556722, 1.1250025074305106, 7.349399847250175, -3.6298192004814887]

>  <energy>  (10) 
-465.89458092804585

>  <inter_energy>  (10) 
-454.160187421009

>  <intra_energy>  (10) 
1.6107844946237222

>  <rmsd>  (10) 
6.41677

>  <sdf_rank>  (10) 
0

$$$$

     RDKit          3D

 36 38  0  0  0  0  0  0  0  0999 V2000
   74.0681  -29.9412   48.8311 N   0  0  0  0  0  0  0  0  0  0  0  0
   73.4300  -29.3982   47.8068 C   0  0  0  0  0  0  0  0  0  0  0  0
   73.4062  -30.0118   46.6159 N   0  0  0  0  0  0  0  0  0  0  0  0
   72.7849  -28.2022   47.9325 N   0  0  0  0  0  0  0  0  0  0  0  0
   72.7781  -27.4754   49.1241 C   0  0  0  0  0  0  0  0  0  0  0  0
   72.2242  -26.3981   49.1829 O   0  0  0  0  0  0  0  0  0  0  0  0
   73.4616  -27.3747   51.4617 N   0  0  0  0  0  0  0  0  0  0  0  0
   74.4602  -27.8367   52.4179 C   0  0  2  0  0  0  0  0  0  0  0  0
   74.5269  -29.3674   52.4040 C   0  0  2  0  0  0  0  0  0  0  0  0
   74.6940  -29.8539   51.0553 N   0  0  0  0  0  0  0  0  0  0  0  0
   73.4365  -28.0304   50.2128 C   0  0  0  0  0  0  0  0  0  0  0  0
   74.0768  -29.2650   50.0234 C   0  0  0  0  0  0  0  0  0  0  0  0
   74.2295  -27.4186   53.8488 C   0  0  0  0  0  0  0  0  0  0  0  0
   74.8249  -25.8250   54.2217 S   0  0  0  0  0  0  0  0  0  0  0  0
   73.6551  -28.2112   54.7576 C   0  0  0  0  0  0  0  0  0  0  0  0
   73.4524  -27.6405   56.4013 S   0  0  0  0  0  0  0  0  0  0  0  0
   73.1303  -29.5682   54.3730 C   0  0  2  0  0  0  0  0  0  0  0  0
   73.3558  -29.9168   52.9957 O   0  0  0  0  0  0  0  0  0  0  0  0
   71.6140  -29.5688   54.6381 C   0  0  0  0  0  0  0  0  0  0  0  0
   70.8470  -30.3946   53.7192 O   0  0  0  0  0  0  0  0  0  0  0  0
   69.2414  -30.5702   53.9008 P   0  0  2  0  0  0  0  0  0  0  0  0
   69.0244  -31.4950   55.0707 O   0  0  0  0  0  0  0  0  0  0  0  0
   68.8947  -31.1168   52.5954 O   0  0  0  0  0  0  0  0  0  0  0  0
   68.8264  -29.1553   54.1709 O   0  0  0  0  0  0  0  0  0  0  0  0
   72.9069  -29.5812   45.8246 H   0  0  0  0  0  0  0  0  0  0  0  0
   73.8874  -30.9140   46.4917 H   0  0  0  0  0  0  0  0  0  0  0  0
   72.2840  -27.8214   47.1170 H   0  0  0  0  0  0  0  0  0  0  0  0
   72.8089  -26.6101   51.6860 H   0  0  0  0  0  0  0  0  0  0  0  0
   75.3942  -27.3608   52.0846 H   0  0  0  0  0  0  0  0  0  0  0  0
   75.3979  -29.6872   52.9947 H   0  0  0  0  0  0  0  0  0  0  0  0
   75.2995  -30.6693   50.8836 H   0  0  0  0  0  0  0  0  0  0  0  0
   74.8842  -25.6662   55.5811 H   0  0  0  0  0  0  0  0  0  0  0  0
   73.8052  -28.6338   57.2763 H   0  0  0  0  0  0  0  0  0  0  0  0
   73.6730  -30.3139   54.9724 H   0  0  0  0  0  0  0  0  0  0  0  0
   71.4429  -29.9394   55.6595 H   0  0  0  0  0  0  0  0  0  0  0  0
   71.2686  -28.5342   54.4956 H   0  0  0  0  0  0  0  0  0  0  0  0
  1  2  2  0
  1 12  1  0
  2  3  1  0
  2  4  1  0
  4  5  1  0
  5  6  2  0
  5 11  1  0
  8  7  1  0
  7 11  1  0
  8  9  1  0
  8 13  1  0
  9 10  1  0
  9 18  1  0
 10 12  1  0
 11 12  2  0
 13 14  1  0
 13 15  2  0
 15 16  1  0
 15 17  1  0
 17 18  1  0
 17 19  1  0
 19 20  1  0
 20 21  1  0
 21 22  2  0
 21 23  1  6
 21 24  1  0
  3 25  1  0
  3 26  1  0
  4 27  1  0
  7 28  1  0
  8 29  1  6
  9 30  1  1
 10 31  1  0
 14 32  1  0
 16 33  1  0
 17 34  1  1
 19 35  1  0
 19 36  1  0
M  CHG  2  23  -1  24  -1
M  END
>  <filename_input>  (11) 
7D6O_MTE_docked.sdf

>  <pdb_id>  (11) 
7D6O_MTE

>  <pose_rank>  (11) 
10

>  <num_atoms_heavy>  (11) 
24

>  <num_torsions>  (11) 
3

>  <pose>  (11) 
[74.0681421634613, -29.94118833346668, 48.831110269917886, 1.9316864165797438, -1.4807856604090401, 1.2575840503734084, -0.49989431507522764, -4.686510225446294, -1.9594847733431167]

>  <energy>  (11) 
-179.962734340358

>  <inter_energy>  (11) 
-175.4135179498869

>  <intra_energy>  (11) 
0.0

>  <rmsd>  (11) 
12.9987

>  <sdf_rank>  (11) 
0

$$$$

     RDKit          3D

 36 38  0  0  0  0  0  0  0  0999 V2000
   68.3431  -31.2847   53.2810 N   0  0  0  0  0  0  0  0  0  0  0  0
   68.2871  -31.1564   51.9651 C   0  0  0  0  0  0  0  0  0  0  0  0
   67.1317  -31.3378   51.3113 N   0  0  0  0  0  0  0  0  0  0  0  0
   69.3994  -30.8417   51.2399 N   0  0  0  0  0  0  0  0  0  0  0  0
   70.6522  -30.6619   51.8285 C   0  0  0  0  0  0  0  0  0  0  0  0
   71.6233  -30.4198   51.1433 O   0  0  0  0  0  0  0  0  0  0  0  0
   71.9536  -30.5990   53.8886 N   0  0  0  0  0  0  0  0  0  0  0  0
   72.0189  -31.0993   55.2563 C   0  0  2  0  0  0  0  0  0  0  0  0
   70.7209  -30.7627   55.9974 C   0  0  2  0  0  0  0  0  0  0  0  0
   69.5757  -31.2003   55.2356 N   0  0  0  0  0  0  0  0  0  0  0  0
   70.7316  -30.7858   53.2087 C   0  0  0  0  0  0  0  0  0  0  0  0
   69.5528  -31.1056   53.9002 C   0  0  0  0  0  0  0  0  0  0  0  0
   73.1548  -30.5604   56.0898 C   0  0  0  0  0  0  0  0  0  0  0  0
   74.6585  -31.4097   55.8644 S   0  0  0  0  0  0  0  0  0  0  0  0
   73.0132  -29.5487   56.9503 C   0  0  0  0  0  0  0  0  0  0  0  0
   74.3902  -29.0105   57.8898 S   0  0  0  0  0  0  0  0  0  0  0  0
   71.6977  -28.8298   57.0825 C   0  0  2  0  0  0  0  0  0  0  0  0
   70.6494  -29.3658   56.2560 O   0  0  0  0  0  0  0  0  0  0  0  0
   71.9328  -27.3609   56.6869 C   0  0  0  0  0  0  0  0  0  0  0  0
   70.7140  -26.5934   56.4872 O   0  0  0  0  0  0  0  0  0  0  0  0
   70.0848  -25.7027   57.6924 P   0  0  2  0  0  0  0  0  0  0  0  0
   70.0411  -26.5793   58.9175 O   0  0  0  0  0  0  0  0  0  0  0  0
   68.7903  -25.3673   57.1137 O   0  0  0  0  0  0  0  0  0  0  0  0
   71.0894  -24.5940   57.7849 O   0  0  0  0  0  0  0  0  0  0  0  0
   67.0981  -31.2357   50.2869 H   0  0  0  0  0  0  0  0  0  0  0  0
   66.2771  -31.5792   51.8331 H   0  0  0  0  0  0  0  0  0  0  0  0
   69.3111  -30.7326   50.2195 H   0  0  0  0  0  0  0  0  0  0  0  0
   72.7570  -30.1339   53.4423 H   0  0  0  0  0  0  0  0  0  0  0  0
   72.1823  -32.1810   55.1410 H   0  0  0  0  0  0  0  0  0  0  0  0
   70.7168  -31.2953   56.9599 H   0  0  0  0  0  0  0  0  0  0  0  0
   68.7608  -31.5929   55.7284 H   0  0  0  0  0  0  0  0  0  0  0  0
   75.1984  -31.7146   57.0860 H   0  0  0  0  0  0  0  0  0  0  0  0
   74.1039  -29.1223   59.2249 H   0  0  0  0  0  0  0  0  0  0  0  0
   71.3605  -28.9474   58.1229 H   0  0  0  0  0  0  0  0  0  0  0  0
   72.5171  -26.8785   57.4843 H   0  0  0  0  0  0  0  0  0  0  0  0
   72.4586  -27.3748   55.7208 H   0  0  0  0  0  0  0  0  0  0  0  0
  1  2  2  0
  1 12  1  0
  2  3  1  0
  2  4  1  0
  4  5  1  0
  5  6  2  0
  5 11  1  0
  8  7  1  0
  7 11  1  0
  8  9  1  0
  8 13  1  0
  9 10  1  0
  9 18  1  0
 10 12  1  0
 11 12  2  0
 13 14  1  0
 13 15  2  0
 15 16  1  0
 15 17  1  0
 17 18  1  0
 17 19  1  0
 19 20  1  0
 20 21  1  0
 21 22  2  0
 21 23  1  6
 21 24  1  0
  3 25  1  0
  3 26  1  0
  4 27  1  0
  7 28  1  0
  8 29  1  6
  9 30  1  1
 10 31  1  0
 14 32  1  0
 16 33  1  0
 17 34  1  1
 19 35  1  0
 19 36  1  0
M  CHG  2  23  -1  24  -1
M  END
>  <filename_input>  (12) 
7D6O_MTE_docked.sdf

>  <pdb_id>  (12) 
7D6O_MTE

>  <pose_rank>  (12) 
11

>  <num_atoms_heavy>  (12) 
24

>  <num_torsions>  (12) 
3

>  <pose>  (12) 
[68.34310439227424, -31.284708025739178, 53.281028650598024, -0.01176761911489944, -1.4813058345512247, 0.5739161913159966, -0.15015746934563987, 6.443954106527191, 4.782890427952379]

>  <energy>  (12) 
-162.72438239979599

>  <inter_energy>  (12) 
-158.37378405588885

>  <intra_energy>  (12) 
1.9795992250165826

>  <rmsd>  (12) 
12.6981

>  <sdf_rank>  (12) 
0

$$$$

     RDKit          3D

 36 38  0  0  0  0  0  0  0  0999 V2000
   65.4944  -17.6113   57.6287 N   0  0  0  0  0  0  0  0  0  0  0  0
   64.9296  -17.9885   56.4930 C   0  0  0  0  0  0  0  0  0  0  0  0
   63.6124  -17.8335   56.3024 N   0  0  0  0  0  0  0  0  0  0  0  0
   65.6680  -18.5472   55.4904 N   0  0  0  0  0  0  0  0  0  0  0  0
   67.0401  -18.7749   55.6072 C   0  0  0  0  0  0  0  0  0  0  0  0
   67.6527  -19.3084   54.7065 O   0  0  0  0  0  0  0  0  0  0  0  0
   69.0400  -18.5530   56.9830 N   0  0  0  0  0  0  0  0  0  0  0  0
   69.5203  -18.4546   58.3559 C   0  0  2  0  0  0  0  0  0  0  0  0
   68.8305  -17.2861   59.0674 C   0  0  2  0  0  0  0  0  0  0  0  0
   67.3976  -17.3802   58.9214 N   0  0  0  0  0  0  0  0  0  0  0  0
   67.6534  -18.3805   56.7883 C   0  0  0  0  0  0  0  0  0  0  0  0
   66.8426  -17.8072   57.7802 C   0  0  0  0  0  0  0  0  0  0  0  0
   71.0067  -18.2485   58.5091 C   0  0  0  0  0  0  0  0  0  0  0  0
   71.9323  -19.7224   58.4473 S   0  0  0  0  0  0  0  0  0  0  0  0
   71.5607  -17.0500   58.7113 C   0  0  0  0  0  0  0  0  0  0  0  0
   73.2972  -16.9183   58.8997 S   0  0  0  0  0  0  0  0  0  0  0  0
   70.7161  -15.8045   58.7247 C   0  0  2  0  0  0  0  0  0  0  0  0
   69.3081  -16.0474   58.5567 O   0  0  0  0  0  0  0  0  0  0  0  0
   71.2005  -14.9059   57.5727 C   0  0  0  0  0  0  0  0  0  0  0  0
   71.1609  -13.4826   57.8676 O   0  0  0  0  0  0  0  0  0  0  0  0
   70.2565  -12.4721   56.9716 P   0  0  2  0  0  0  0  0  0  0  0  0
   71.0151  -12.2082   55.6964 O   0  0  0  0  0  0  0  0  0  0  0  0
   70.1529  -11.3425   57.8860 O   0  0  0  0  0  0  0  0  0  0  0  0
   69.0188  -13.2942   56.7729 O   0  0  0  0  0  0  0  0  0  0  0  0
   63.1820  -18.1302   55.4149 H   0  0  0  0  0  0  0  0  0  0  0  0
   63.0303  -17.4176   57.0434 H   0  0  0  0  0  0  0  0  0  0  0  0
   65.1947  -18.8108   54.6144 H   0  0  0  0  0  0  0  0  0  0  0  0
   69.6790  -18.7385   56.1968 H   0  0  0  0  0  0  0  0  0  0  0  0
   69.2784  -19.4326   58.7976 H   0  0  0  0  0  0  0  0  0  0  0  0
   69.0704  -17.3359   60.1398 H   0  0  0  0  0  0  0  0  0  0  0  0
   66.7907  -17.1139   59.7099 H   0  0  0  0  0  0  0  0  0  0  0  0
   72.1994  -20.1477   59.7220 H   0  0  0  0  0  0  0  0  0  0  0  0
   73.6115  -16.8945   60.2329 H   0  0  0  0  0  0  0  0  0  0  0  0
   70.8323  -15.3376   59.7138 H   0  0  0  0  0  0  0  0  0  0  0  0
   72.2391  -15.1799   57.3352 H   0  0  0  0  0  0  0  0  0  0  0  0
   70.5118  -15.0730   56.7314 H   0  0  0  0  0  0  0  0  0  0  0  0
  1  2  2  0
  1 12  1  0
  2  3  1  0
  2  4  1  0
  4  5  1  0
  5  6  2  0
  5 11  1  0
  8  7  1  0
  7 11  1  0
  8  9  1  0
  8 13  1  0
  9 10  1  0
  9 18  1  0
 10 12  1  0
 11 12  2  0
 13 14  1  0
 13 15  2  0
 15 16  1  0
 15 17  1  0
 17 18  1  0
 17 19  1  0
 19 20  1  0
 20 21  1  0
 21 22  2  0
 21 23  1  1
 21 24  1  0
  3 25  1  0
  3 26  1  0
  4 27  1  0
  7 28  1  0
  8 29  1  1
  9 30  1  1
 10 31  1  0
 14 32  1  0
 16 33  1  0
 17 34  1  1
 19 35  1  0
 19 36  1  0
M  CHG  2  23  -1  24  -1
M  END
>  <filename_input>  (13) 
7D6O_MTE_docked.sdf

>  <pdb_id>  (13) 
7D6O_MTE

>  <pose_rank>  (13) 
12

>  <num_atoms_heavy>  (13) 
24

>  <num_torsions>  (13) 
3

>  <pose>  (13) 
[65.49439247164237, -17.611272847979688, 57.62872499515758, -0.5801085042463114, -0.9252304381479405, 0.5461901477961245, 0.693296132643955, -3.582442332859502, -2.0248776749805812]

>  <energy>  (13) 
-164.4141894632796

>  <inter_energy>  (13) 
-156.6960589868917

>  <intra_energy>  (13) 
0.341165030829321

>  <rmsd>  (13) 
11.268

>  <sdf_rank>  (13) 
0

$$$$

     RDKit          3D

 36 38  0  0  0  0  0  0  0  0999 V2000
   71.8306  -30.3731   42.3744 N   0  0  0  0  0  0  0  0  0  0  0  0
   70.6896  -30.0329   41.7968 C   0  0  0  0  0  0  0  0  0  0  0  0
   70.1221  -30.8338   40.8847 N   0  0  0  0  0  0  0  0  0  0  0  0
   70.0640  -28.8609   42.1087 N   0  0  0  0  0  0  0  0  0  0  0  0
   70.5921  -27.9496   43.0245 C   0  0  0  0  0  0  0  0  0  0  0  0
   70.0230  -26.9016   43.2456 O   0  0  0  0  0  0  0  0  0  0  0  0
   72.3791  -27.4381   44.6015 N   0  0  0  0  0  0  0  0  0  0  0  0
   73.7784  -27.6944   44.9197 C   0  0  2  0  0  0  0  0  0  0  0  0
   74.0161  -29.2024   45.0499 C   0  0  2  0  0  0  0  0  0  0  0  0
   73.5114  -29.8959   43.8889 N   0  0  0  0  0  0  0  0  0  0  0  0
   71.7853  -28.2902   43.6467 C   0  0  0  0  0  0  0  0  0  0  0  0
   72.3783  -29.5108   43.2884 C   0  0  0  0  0  0  0  0  0  0  0  0
   74.2810  -27.0576   46.1914 C   0  0  0  0  0  0  0  0  0  0  0  0
   74.7816  -25.4006   45.9992 S   0  0  0  0  0  0  0  0  0  0  0  0
   74.3698  -27.7140   47.3512 C   0  0  0  0  0  0  0  0  0  0  0  0
   74.9885  -26.8908   48.7682 S   0  0  0  0  0  0  0  0  0  0  0  0
   73.8934  -29.1367   47.4683 C   0  0  2  0  0  0  0  0  0  0  0  0
   73.4059  -29.6966   46.2360 O   0  0  0  0  0  0  0  0  0  0  0  0
   72.7536  -29.1582   48.5025 C   0  0  0  0  0  0  0  0  0  0  0  0
   73.1894  -29.4074   49.8672 O   0  0  0  0  0  0  0  0  0  0  0  0
   72.3355  -30.3821   50.8484 P   0  0  2  0  0  0  0  0  0  0  0  0
   72.2191  -29.6832   52.1785 O   0  0  0  0  0  0  0  0  0  0  0  0
   73.1837  -31.5667   50.8336 O   0  0  0  0  0  0  0  0  0  0  0  0
   71.0375  -30.4732   50.1041 O   0  0  0  0  0  0  0  0  0  0  0  0
   69.2340  -30.5604   40.4406 H   0  0  0  0  0  0  0  0  0  0  0  0
   70.5741  -31.7230   40.6277 H   0  0  0  0  0  0  0  0  0  0  0  0
   69.1680  -28.6405   41.6509 H   0  0  0  0  0  0  0  0  0  0  0  0
   71.8518  -26.6754   45.0501 H   0  0  0  0  0  0  0  0  0  0  0  0
   74.3329  -27.2404   44.0852 H   0  0  0  0  0  0  0  0  0  0  0  0
   75.0991  -29.3839   45.1143 H   0  0  0  0  0  0  0  0  0  0  0  0
   74.0326  -30.7020   43.5155 H   0  0  0  0  0  0  0  0  0  0  0  0
   74.9541  -24.8297   47.2326 H   0  0  0  0  0  0  0  0  0  0  0  0
   74.5221  -27.5114   49.8970 H   0  0  0  0  0  0  0  0  0  0  0  0
   74.7566  -29.7505   47.7653 H   0  0  0  0  0  0  0  0  0  0  0  0
   72.2455  -28.1829   48.4757 H   0  0  0  0  0  0  0  0  0  0  0  0
   72.0920  -29.9922   48.2255 H   0  0  0  0  0  0  0  0  0  0  0  0
  1  2  2  0
  1 12  1  0
  2  3  1  0
  2  4  1  0
  4  5  1  0
  5  6  2  0
  5 11  1  0
  8  7  1  0
  7 11  1  0
  8  9  1  0
  8 13  1  0
  9 10  1  0
  9 18  1  0
 10 12  1  0
 11 12  2  0
 13 14  1  0
 13 15  2  0
 15 16  1  0
 15 17  1  0
 17 18  1  0
 17 19  1  0
 19 20  1  0
 20 21  1  0
 21 22  2  0
 21 23  1  1
 21 24  1  0
  3 25  1  0
  3 26  1  0
  4 27  1  0
  7 28  1  0
  8 29  1  6
  9 30  1  1
 10 31  1  0
 14 32  1  0
 16 33  1  0
 17 34  1  1
 19 35  1  0
 19 36  1  0
M  CHG  2  23  -1  24  -1
M  END
>  <filename_input>  (14) 
7D6O_MTE_docked.sdf

>  <pdb_id>  (14) 
7D6O_MTE

>  <pose_rank>  (14) 
13

>  <num_atoms_heavy>  (14) 
24

>  <num_torsions>  (14) 
3

>  <pose>  (14) 
[71.83061886364479, -30.373079437015356, 42.37438535424168, 2.0386317986217586, -0.9986019217253072, 0.7363387888143116, -4.666161873010217, 2.3638167301756923, 3.280515019578807]

>  <energy>  (14) 
-159.3065754057906

>  <inter_energy>  (14) 
-154.01988603316843

>  <intra_energy>  (14) 
5.2162871464523946

>  <rmsd>  (14) 
12.4657

>  <sdf_rank>  (14) 
0

$$$$

     RDKit          3D

 36 38  0  0  0  0  0  0  0  0999 V2000
   72.9066  -27.9321   50.2719 N   0  0  0  0  0  0  0  0  0  0  0  0
   73.9279  -28.5841   49.7398 C   0  0  0  0  0  0  0  0  0  0  0  0
   74.4182  -28.2247   48.5457 N   0  0  0  0  0  0  0  0  0  0  0  0
   74.5050  -29.6380   50.3867 N   0  0  0  0  0  0  0  0  0  0  0  0
   74.0461  -30.1033   51.6200 C   0  0  0  0  0  0  0  0  0  0  0  0
   74.5636  -31.0671   52.1437 O   0  0  0  0  0  0  0  0  0  0  0  0
   72.4656  -29.8181   53.4537 N   0  0  0  0  0  0  0  0  0  0  0  0
   71.1467  -29.3045   53.8028 C   0  0  2  0  0  0  0  0  0  0  0  0
   71.0389  -27.8292   53.4035 C   0  0  2  0  0  0  0  0  0  0  0  0
   71.4246  -27.6494   52.0242 N   0  0  0  0  0  0  0  0  0  0  0  0
   72.9795  -29.4293   52.1987 C   0  0  0  0  0  0  0  0  0  0  0  0
   72.4316  -28.3501   51.4879 C   0  0  0  0  0  0  0  0  0  0  0  0
   70.7827  -29.3933   55.2640 C   0  0  0  0  0  0  0  0  0  0  0  0
   70.1420  -30.9420   55.7375 S   0  0  0  0  0  0  0  0  0  0  0  0
   70.9048  -28.3674   56.1106 C   0  0  0  0  0  0  0  0  0  0  0  0
   70.4330  -28.5651   57.7860 S   0  0  0  0  0  0  0  0  0  0  0  0
   71.4942  -27.0599   55.6548 C   0  0  2  0  0  0  0  0  0  0  0  0
   71.8432  -27.0271   54.2597 O   0  0  0  0  0  0  0  0  0  0  0  0
   72.7662  -26.8124   56.4855 C   0  0  0  0  0  0  0  0  0  0  0  0
   73.2342  -25.4358   56.4664 O   0  0  0  0  0  0  0  0  0  0  0  0
   73.4226  -24.6018   57.8486 P   0  0  2  0  0  0  0  0  0  0  0  0
   74.1728  -23.3399   57.5082 O   0  0  0  0  0  0  0  0  0  0  0  0
   74.1617  -25.5783   58.6379 O   0  0  0  0  0  0  0  0  0  0  0  0
   71.9945  -24.3631   58.2369 O   0  0  0  0  0  0  0  0  0  0  0  0
   75.2134  -28.7383   48.1398 H   0  0  0  0  0  0  0  0  0  0  0  0
   73.9999  -27.4349   48.0338 H   0  0  0  0  0  0  0  0  0  0  0  0
   75.3098  -30.1080   49.9481 H   0  0  0  0  0  0  0  0  0  0  0  0
   72.9942  -30.4323   54.0895 H   0  0  0  0  0  0  0  0  0  0  0  0
   70.4495  -29.9530   53.2521 H   0  0  0  0  0  0  0  0  0  0  0  0
   69.9915  -27.5109   53.5113 H   0  0  0  0  0  0  0  0  0  0  0  0
   70.9157  -26.9693   51.4417 H   0  0  0  0  0  0  0  0  0  0  0  0
   70.1083  -31.0236   57.1046 H   0  0  0  0  0  0  0  0  0  0  0  0
   71.4494  -28.1392   58.5999 H   0  0  0  0  0  0  0  0  0  0  0  0
   70.7275  -26.2843   55.7989 H   0  0  0  0  0  0  0  0  0  0  0  0
   72.5560  -27.0905   57.5288 H   0  0  0  0  0  0  0  0  0  0  0  0
   73.5619  -27.4224   56.0330 H   0  0  0  0  0  0  0  0  0  0  0  0
  1  2  2  0
  1 12  1  0
  2  3  1  0
  2  4  1  0
  4  5  1  0
  5  6  2  0
  5 11  1  0
  8  7  1  0
  7 11  1  0
  8  9  1  0
  8 13  1  0
  9 10  1  0
  9 18  1  0
 10 12  1  0
 11 12  2  0
 13 14  1  0
 13 15  2  0
 15 16  1  0
 15 17  1  0
 17 18  1  0
 17 19  1  0
 19 20  1  0
 20 21  1  0
 21 22  2  0
 21 23  1  1
 21 24  1  0
  3 25  1  0
  3 26  1  0
  4 27  1  0
  7 28  1  0
  8 29  1  6
  9 30  1  6
 10 31  1  0
 14 32  1  0
 16 33  1  0
 17 34  1  6
 19 35  1  0
 19 36  1  0
M  CHG  2  23  -1  24  -1
M  END
>  <filename_input>  (15) 
7D6O_MTE_docked.sdf

>  <pdb_id>  (15) 
7D6O_MTE

>  <pose_rank>  (15) 
14

>  <num_atoms_heavy>  (15) 
24

>  <num_torsions>  (15) 
3

>  <pose>  (15) 
[72.90655860875815, -27.93211453493003, 50.271934116697096, -1.3521265538548342, -2.2098529134307103, -0.5656665487199478, 0.3714870867476483, -5.62638144962333, 2.287338979842148]

>  <energy>  (15) 
-157.1390900610779

>  <inter_energy>  (15) 
-151.59323444531478

>  <intra_energy>  (15) 
0.0

>  <rmsd>  (15) 
12.6965

>  <sdf_rank>  (15) 
0

$$$$

     RDKit          3D

 36 38  0  0  0  0  0  0  0  0999 V2000
   65.6005  -30.6107   56.3652 N   0  0  0  0  0  0  0  0  0  0  0  0
   65.4060  -31.1402   55.1682 C   0  0  0  0  0  0  0  0  0  0  0  0
   64.1715  -31.4605   54.7571 N   0  0  0  0  0  0  0  0  0  0  0  0
   66.4518  -31.3778   54.3244 N   0  0  0  0  0  0  0  0  0  0  0  0
   67.7749  -31.1042   54.6746 C   0  0  0  0  0  0  0  0  0  0  0  0
   68.6791  -31.3653   53.9095 O   0  0  0  0  0  0  0  0  0  0  0  0
   69.3042  -30.2137   56.3509 N   0  0  0  0  0  0  0  0  0  0  0  0
   69.4801  -29.9798   57.7790 C   0  0  2  0  0  0  0  0  0  0  0  0
   68.3116  -29.1490   58.3194 C   0  0  2  0  0  0  0  0  0  0  0  0
   67.0515  -29.7442   57.9433 N   0  0  0  0  0  0  0  0  0  0  0  0
   68.0005  -30.5424   55.9237 C   0  0  0  0  0  0  0  0  0  0  0  0
   66.8845  -30.3167   56.7445 C   0  0  0  0  0  0  0  0  0  0  0  0
   70.7483  -29.2610   58.1665 C   0  0  0  0  0  0  0  0  0  0  0  0
   72.1327  -30.3068   58.3177 S   0  0  0  0  0  0  0  0  0  0  0  0
   70.7990  -27.9483   58.4086 C   0  0  0  0  0  0  0  0  0  0  0  0
   72.3178  -27.2107   58.8749 S   0  0  0  0  0  0  0  0  0  0  0  0
   69.5783  -27.0860   58.2323 C   0  0  2  0  0  0  0  0  0  0  0  0
   68.3977  -27.8109   57.8447 O   0  0  0  0  0  0  0  0  0  0  0  0
   69.8991  -26.0496   57.1404 C   0  0  0  0  0  0  0  0  0  0  0  0
   68.9700  -24.9324   57.0853 O   0  0  0  0  0  0  0  0  0  0  0  0
   69.0124  -23.7588   58.2089 P   0  0  2  0  0  0  0  0  0  0  0  0
   67.7869  -23.9232   59.0705 O   0  0  0  0  0  0  0  0  0  0  0  0
   69.0228  -22.5822   57.3496 O   0  0  0  0  0  0  0  0  0  0  0  0
   70.2916  -24.0866   58.9184 O   0  0  0  0  0  0  0  0  0  0  0  0
   64.0301  -31.8723   53.8237 H   0  0  0  0  0  0  0  0  0  0  0  0
   63.3639  -31.2951   55.3747 H   0  0  0  0  0  0  0  0  0  0  0  0
   66.2574  -31.7740   53.3937 H   0  0  0  0  0  0  0  0  0  0  0  0
   70.0901  -30.1427   55.6889 H   0  0  0  0  0  0  0  0  0  0  0  0
   69.5300  -30.9889   58.2141 H   0  0  0  0  0  0  0  0  0  0  0  0
   68.3694  -29.1328   59.4178 H   0  0  0  0  0  0  0  0  0  0  0  0
   66.2662  -29.7284   58.6096 H   0  0  0  0  0  0  0  0  0  0  0  0
   72.4062  -30.5135   59.6442 H   0  0  0  0  0  0  0  0  0  0  0  0
   72.4044  -27.1686   60.2415 H   0  0  0  0  0  0  0  0  0  0  0  0
   69.3532  -26.6294   59.2074 H   0  0  0  0  0  0  0  0  0  0  0  0
   70.9068  -25.6509   57.3291 H   0  0  0  0  0  0  0  0  0  0  0  0
   69.8206  -26.5729   56.1760 H   0  0  0  0  0  0  0  0  0  0  0  0
  1  2  2  0
  1 12  1  0
  2  3  1  0
  2  4  1  0
  4  5  1  0
  5  6  2  0
  5 11  1  0
  8  7  1  0
  7 11  1  0
  8  9  1  0
  8 13  1  0
  9 10  1  0
  9 18  1  0
 10 12  1  0
 11 12  2  0
 13 14  1  0
 13 15  2  0
 15 16  1  0
 15 17  1  0
 17 18  1  0
 17 19  1  0
 19 20  1  0
 20 21  1  0
 21 22  2  0
 21 23  1  6
 21 24  1  0
  3 25  1  0
  3 26  1  0
  4 27  1  0
  7 28  1  0
  8 29  1  1
  9 30  1  1
 10 31  1  0
 14 32  1  0
 16 33  1  0
 17 34  1  1
 19 35  1  0
 19 36  1  0
M  CHG  2  23  -1  24  -1
M  END
>  <filename_input>  (16) 
7D6O_MTE_docked.sdf

>  <pdb_id>  (16) 
7D6O_MTE

>  <pose_rank>  (16) 
15

>  <num_atoms_heavy>  (16) 
24

>  <num_torsions>  (16) 
3

>  <pose>  (16) 
[65.60052379646585, -30.61067136065342, 56.36523450919038, 1.457455244756796, 3.702777023988857, -2.581672371662447, 0.3289203589234426, -0.18997369969177252, 3.7296908498895305]

>  <energy>  (16) 
-153.23853025169

>  <inter_energy>  (16) 
-151.91000012550614

>  <intra_energy>  (16) 
5.846786516859098

>  <rmsd>  (16) 
12.1455

>  <sdf_rank>  (16) 
0

$$$$

     RDKit          3D

 36 38  0  0  0  0  0  0  0  0999 V2000
   63.4601  -13.3471   40.4497 N   0  0  0  0  0  0  0  0  0  0  0  0
   64.2500  -14.4088   40.4658 C   0  0  0  0  0  0  0  0  0  0  0  0
   65.5780  -14.2719   40.3518 N   0  0  0  0  0  0  0  0  0  0  0  0
   63.7369  -15.6668   40.5939 N   0  0  0  0  0  0  0  0  0  0  0  0
   62.3661  -15.9113   40.6901 C   0  0  0  0  0  0  0  0  0  0  0  0
   61.9490  -17.0477   40.7650 O   0  0  0  0  0  0  0  0  0  0  0  0
   60.1226  -14.9643   40.7961 N   0  0  0  0  0  0  0  0  0  0  0  0
   59.3096  -13.8157   40.4153 C   0  0  2  0  0  0  0  0  0  0  0  0
   59.9416  -12.5279   40.9535 C   0  0  2  0  0  0  0  0  0  0  0  0
   61.3324  -12.4508   40.5751 N   0  0  0  0  0  0  0  0  0  0  0  0
   61.5203  -14.8108   40.6816 C   0  0  0  0  0  0  0  0  0  0  0  0
   62.1073  -13.5424   40.5526 C   0  0  0  0  0  0  0  0  0  0  0  0
   57.8819  -13.8426   40.9014 C   0  0  0  0  0  0  0  0  0  0  0  0
   56.8069  -14.7553   39.8794 S   0  0  0  0  0  0  0  0  0  0  0  0
   57.4704  -13.1953   41.9949 C   0  0  0  0  0  0  0  0  0  0  0  0
   55.7845  -13.2705   42.4640 S   0  0  0  0  0  0  0  0  0  0  0  0
   58.4488  -12.4468   42.8595 C   0  0  2  0  0  0  0  0  0  0  0  0
   59.8005  -12.4636   42.3675 O   0  0  0  0  0  0  0  0  0  0  0  0
   58.4253  -13.0986   44.2537 C   0  0  0  0  0  0  0  0  0  0  0  0
   58.0024  -12.2082   45.3227 O   0  0  0  0  0  0  0  0  0  0  0  0
   57.9691  -12.7178   46.8658 P   0  0  2  0  0  0  0  0  0  0  0  0
   58.7873  -13.9815   46.9348 O   0  0  0  0  0  0  0  0  0  0  0  0
   56.5336  -12.8884   47.0479 O   0  0  0  0  0  0  0  0  0  0  0  0
   58.6038  -11.5544   47.5662 O   0  0  0  0  0  0  0  0  0  0  0  0
   66.1846  -15.1042   40.3654 H   0  0  0  0  0  0  0  0  0  0  0  0
   65.9923  -13.3343   40.2506 H   0  0  0  0  0  0  0  0  0  0  0  0
   64.3859  -16.4662   40.6207 H   0  0  0  0  0  0  0  0  0  0  0  0
   59.6990  -15.8414   41.1310 H   0  0  0  0  0  0  0  0  0  0  0  0
   59.2818  -13.8566   39.3164 H   0  0  0  0  0  0  0  0  0  0  0  0
   59.4174  -11.6674   40.5121 H   0  0  0  0  0  0  0  0  0  0  0  0
   61.7362  -11.5389   40.3174 H   0  0  0  0  0  0  0  0  0  0  0  0
   55.9472  -15.4852   40.6572 H   0  0  0  0  0  0  0  0  0  0  0  0
   55.6905  -13.2747   43.8308 H   0  0  0  0  0  0  0  0  0  0  0  0
   58.1384  -11.3916   42.8716 H   0  0  0  0  0  0  0  0  0  0  0  0
   57.7334  -13.9532   44.2231 H   0  0  0  0  0  0  0  0  0  0  0  0
   59.4601  -13.3947   44.4809 H   0  0  0  0  0  0  0  0  0  0  0  0
  1  2  2  0
  1 12  1  0
  2  3  1  0
  2  4  1  0
  4  5  1  0
  5  6  2  0
  5 11  1  0
  8  7  1  0
  7 11  1  0
  8  9  1  0
  8 13  1  0
  9 10  1  0
  9 18  1  0
 10 12  1  0
 11 12  2  0
 13 14  1  0
 13 15  2  0
 15 16  1  0
 15 17  1  0
 17 18  1  0
 17 19  1  0
 19 20  1  0
 20 21  1  0
 21 22  2  0
 21 23  1  1
 21 24  1  0
  3 25  1  0
  3 26  1  0
  4 27  1  0
  7 28  1  0
  8 29  1  6
  9 30  1  6
 10 31  1  0
 14 32  1  0
 16 33  1  0
 17 34  1  1
 19 35  1  0
 19 36  1  0
M  CHG  2  23  -1  24  -1
M  END
>  <filename_input>  (17) 
7D6O_MTE_docked.sdf

>  <pdb_id>  (17) 
7D6O_MTE

>  <pose_rank>  (17) 
16

>  <num_atoms_heavy>  (17) 
24

>  <num_torsions>  (17) 
3

>  <pose>  (17) 
[63.460143888496106, -13.347090119348566, 40.44973136865264, -1.599214827958626, -2.0983983270951083, -2.074248068116948, 1.1395882184736768, 1.6882049350468282, -0.37679574986225456]

>  <energy>  (17) 
-149.48197314436348

>  <inter_energy>  (17) 
-143.1171317929956

>  <intra_energy>  (17) 
0.0

>  <rmsd>  (17) 
12.9612

>  <sdf_rank>  (17) 
0

$$$$

     RDKit          3D

 36 38  0  0  0  0  0  0  0  0999 V2000
   72.9991  -26.4440   55.6528 N   0  0  0  0  0  0  0  0  0  0  0  0
   74.0270  -26.8102   56.4015 C   0  0  0  0  0  0  0  0  0  0  0  0
   74.7772  -25.8917   57.0254 N   0  0  0  0  0  0  0  0  0  0  0  0
   74.3532  -28.1263   56.5554 N   0  0  0  0  0  0  0  0  0  0  0  0
   73.6491  -29.1522   55.9229 C   0  0  0  0  0  0  0  0  0  0  0  0
   73.9950  -30.3070   56.0563 O   0  0  0  0  0  0  0  0  0  0  0  0
   71.7822  -29.7633   54.4797 N   0  0  0  0  0  0  0  0  0  0  0  0
   70.9146  -29.2852   53.4101 C   0  0  2  0  0  0  0  0  0  0  0  0
   70.2349  -27.9792   53.8342 C   0  0  2  0  0  0  0  0  0  0  0  0
   71.2145  -27.0288   54.3038 N   0  0  0  0  0  0  0  0  0  0  0  0
   72.5631  -28.7900   55.1379 C   0  0  0  0  0  0  0  0  0  0  0  0
   72.2739  -27.4214   55.0223 C   0  0  0  0  0  0  0  0  0  0  0  0
   69.8208  -30.2351   52.9897 C   0  0  0  0  0  0  0  0  0  0  0  0
   70.3343  -31.4346   51.8362 S   0  0  0  0  0  0  0  0  0  0  0  0
   68.5638  -30.1430   53.4320 C   0  0  0  0  0  0  0  0  0  0  0  0
   67.3598  -31.2823   52.8657 S   0  0  0  0  0  0  0  0  0  0  0  0
   68.1817  -29.1057   54.4531 C   0  0  2  0  0  0  0  0  0  0  0  0
   69.2600  -28.2346   54.8379 O   0  0  0  0  0  0  0  0  0  0  0  0
   67.6821  -29.8512   55.7037 C   0  0  0  0  0  0  0  0  0  0  0  0
   66.6576  -29.1417   56.4531 O   0  0  0  0  0  0  0  0  0  0  0  0
   66.8568  -28.8178   58.0333 P   0  0  2  0  0  0  0  0  0  0  0  0
   67.7010  -27.5731   58.1294 O   0  0  0  0  0  0  0  0  0  0  0  0
   67.5026  -30.0497   58.4675 O   0  0  0  0  0  0  0  0  0  0  0  0
   65.4363  -28.6129   58.4658 O   0  0  0  0  0  0  0  0  0  0  0  0
   75.5752  -26.1865   57.6060 H   0  0  0  0  0  0  0  0  0  0  0  0
   74.5557  -24.8909   56.9243 H   0  0  0  0  0  0  0  0  0  0  0  0
   75.1491  -28.3719   57.1612 H   0  0  0  0  0  0  0  0  0  0  0  0
   71.8229  -30.7587   54.7409 H   0  0  0  0  0  0  0  0  0  0  0  0
   71.5889  -29.1616   52.5499 H   0  0  0  0  0  0  0  0  0  0  0  0
   69.7281  -27.5459   52.9593 H   0  0  0  0  0  0  0  0  0  0  0  0
   71.0964  -26.0299   54.0821 H   0  0  0  0  0  0  0  0  0  0  0  0
   70.8057  -32.5356   52.5014 H   0  0  0  0  0  0  0  0  0  0  0  0
   66.7426  -31.8664   53.9403 H   0  0  0  0  0  0  0  0  0  0  0  0
   67.4134  -28.4627   53.9989 H   0  0  0  0  0  0  0  0  0  0  0  0
   67.2681  -30.8193   55.3854 H   0  0  0  0  0  0  0  0  0  0  0  0
   68.5474  -29.9566   56.3747 H   0  0  0  0  0  0  0  0  0  0  0  0
  1  2  2  0
  1 12  1  0
  2  3  1  0
  2  4  1  0
  4  5  1  0
  5  6  2  0
  5 11  1  0
  8  7  1  0
  7 11  1  0
  8  9  1  0
  8 13  1  0
  9 10  1  0
  9 18  1  0
 10 12  1  0
 11 12  2  0
 13 14  1  0
 13 15  2  0
 15 16  1  0
 15 17  1  0
 17 18  1  0
 17 19  1  0
 19 20  1  0
 20 21  1  0
 21 22  2  0
 21 23  1  1
 21 24  1  0
  3 25  1  0
  3 26  1  0
  4 27  1  0
  7 28  1  0
  8 29  1  6
  9 30  1  6
 10 31  1  0
 14 32  1  0
 16 33  1  0
 17 34  1  6
 19 35  1  0
 19 36  1  0
M  CHG  2  23  -1  24  -1
M  END
>  <filename_input>  (18) 
7D6O_MTE_docked.sdf

>  <pdb_id>  (18) 
7D6O_MTE

>  <pose_rank>  (18) 
17

>  <num_atoms_heavy>  (18) 
24

>  <num_torsions>  (18) 
3

>  <pose>  (18) 
[72.99910315730978, -26.443959823376034, 55.65281873131754, 0.03087651122986736, 2.0176299273593465, 2.094139681337816, 0.6152873794945152, -3.6627509831054237, 0.779892217986181]

>  <energy>  (18) 
-142.39280015241312

>  <inter_energy>  (18) 
-135.43520546325848

>  <intra_energy>  (18) 
0.0

>  <rmsd>  (18) 
12.8034

>  <sdf_rank>  (18) 
0

$$$$

     RDKit          3D

 36 38  0  0  0  0  0  0  0  0999 V2000
   57.3178  -19.1252   40.9382 N   0  0  0  0  0  0  0  0  0  0  0  0
   56.3459  -19.4496   41.7757 C   0  0  0  0  0  0  0  0  0  0  0  0
   56.1105  -20.7326   42.0823 N   0  0  0  0  0  0  0  0  0  0  0  0
   55.5572  -18.4923   42.3446 N   0  0  0  0  0  0  0  0  0  0  0  0
   55.7076  -17.1332   42.0646 C   0  0  0  0  0  0  0  0  0  0  0  0
   54.9610  -16.3175   42.5629 O   0  0  0  0  0  0  0  0  0  0  0  0
   56.9627  -15.4179   40.8713 N   0  0  0  0  0  0  0  0  0  0  0  0
   57.7869  -15.1649   39.6958 C   0  0  2  0  0  0  0  0  0  0  0  0
   58.9752  -16.1319   39.6739 C   0  0  2  0  0  0  0  0  0  0  0  0
   58.5216  -17.4937   39.8267 N   0  0  0  0  0  0  0  0  0  0  0  0
   56.7255  -16.7708   41.1933 C   0  0  0  0  0  0  0  0  0  0  0  0
   57.5065  -17.7997   40.6443 C   0  0  0  0  0  0  0  0  0  0  0  0
   58.3516  -13.7703   39.5882 C   0  0  0  0  0  0  0  0  0  0  0  0
   57.2526  -12.6179   38.8829 S   0  0  0  0  0  0  0  0  0  0  0  0
   59.5937  -13.4543   39.9643 C   0  0  0  0  0  0  0  0  0  0  0  0
   60.1638  -11.8086   39.7778 S   0  0  0  0  0  0  0  0  0  0  0  0
   60.4909  -14.4834   40.5973 C   0  0  2  0  0  0  0  0  0  0  0  0
   59.9046  -15.7933   40.6961 O   0  0  0  0  0  0  0  0  0  0  0  0
   60.8316  -13.9895   42.0148 C   0  0  0  0  0  0  0  0  0  0  0  0
   59.6796  -13.5585   42.7906 O   0  0  0  0  0  0  0  0  0  0  0  0
   59.8665  -12.6326   44.1132 P   0  0  2  0  0  0  0  0  0  0  0  0
   59.1910  -13.3468   45.2555 O   0  0  0  0  0  0  0  0  0  0  0  0
   59.2142  -11.4097   43.6636 O   0  0  0  0  0  0  0  0  0  0  0  0
   61.3605  -12.5960   44.2295 O   0  0  0  0  0  0  0  0  0  0  0  0
   55.3517  -20.9752   42.7352 H   0  0  0  0  0  0  0  0  0  0  0  0
   56.6883  -21.4762   41.6651 H   0  0  0  0  0  0  0  0  0  0  0  0
   54.8231  -18.7837   43.0057 H   0  0  0  0  0  0  0  0  0  0  0  0
   56.5741  -14.6496   41.4367 H   0  0  0  0  0  0  0  0  0  0  0  0
   57.0998  -15.3058   38.8484 H   0  0  0  0  0  0  0  0  0  0  0  0
   59.4813  -16.0457   38.7011 H   0  0  0  0  0  0  0  0  0  0  0  0
   58.9876  -18.2440   39.2968 H   0  0  0  0  0  0  0  0  0  0  0  0
   56.6035  -11.9371   39.8790 H   0  0  0  0  0  0  0  0  0  0  0  0
   60.3575  -11.2495   41.0134 H   0  0  0  0  0  0  0  0  0  0  0  0
   61.3764  -14.5900   39.9535 H   0  0  0  0  0  0  0  0  0  0  0  0
   61.3245  -14.8102   42.5566 H   0  0  0  0  0  0  0  0  0  0  0  0
   61.4784  -13.1079   41.8946 H   0  0  0  0  0  0  0  0  0  0  0  0
  1  2  2  0
  1 12  1  0
  2  3  1  0
  2  4  1  0
  4  5  1  0
  5  6  2  0
  5 11  1  0
  8  7  1  0
  7 11  1  0
  8  9  1  0
  8 13  1  0
  9 10  1  0
  9 18  1  0
 10 12  1  0
 11 12  2  0
 13 14  1  0
 13 15  2  0
 15 16  1  0
 15 17  1  0
 17 18  1  0
 17 19  1  0
 19 20  1  0
 20 21  1  0
 21 22  2  0
 21 23  1  6
 21 24  1  0
  3 25  1  0
  3 26  1  0
  4 27  1  0
  7 28  1  0
  8 29  1  6
  9 30  1  6
 10 31  1  0
 14 32  1  0
 16 33  1  0
 17 34  1  6
 19 35  1  0
 19 36  1  0
M  CHG  2  23  -1  24  -1
M  END
>  <filename_input>  (19) 
7D6O_MTE_docked.sdf

>  <pdb_id>  (19) 
7D6O_MTE

>  <pose_rank>  (19) 
18

>  <num_atoms_heavy>  (19) 
24

>  <num_torsions>  (19) 
3

>  <pose>  (19) 
[57.31777841179873, -19.12521344361189, 40.93817099116361, -4.329102735025625, -1.0077915234698789, -0.04522542290718479, -2.2257141703309005, -10.611266785037348, -2.833829360723226]

>  <energy>  (19) 
-140.70900926557755

>  <inter_energy>  (19) 
-126.44256905615956

>  <intra_energy>  (19) 
1.4796885282823509

>  <rmsd>  (19) 
12.219

>  <sdf_rank>  (19) 
0

$$$$

     RDKit          3D

 36 38  0  0  0  0  0  0  0  0999 V2000
   70.7863  -26.9930   58.5202 N   0  0  0  0  0  0  0  0  0  0  0  0
   71.1301  -25.9306   57.8100 C   0  0  0  0  0  0  0  0  0  0  0  0
   72.3484  -25.3885   57.9408 N   0  0  0  0  0  0  0  0  0  0  0  0
   70.2567  -25.3574   56.9319 N   0  0  0  0  0  0  0  0  0  0  0  0
   68.9575  -25.8332   56.7482 C   0  0  0  0  0  0  0  0  0  0  0  0
   68.2002  -25.2717   55.9851 O   0  0  0  0  0  0  0  0  0  0  0  0
   67.2918  -27.5117   57.3395 N   0  0  0  0  0  0  0  0  0  0  0  0
   66.8670  -28.4315   58.3878 C   0  0  2  0  0  0  0  0  0  0  0  0
   68.0239  -29.3625   58.7652 C   0  0  2  0  0  0  0  0  0  0  0  0
   69.2121  -28.5981   59.0608 N   0  0  0  0  0  0  0  0  0  0  0  0
   68.5788  -26.9509   57.4790 C   0  0  0  0  0  0  0  0  0  0  0  0
   69.5223  -27.4990   58.3618 C   0  0  0  0  0  0  0  0  0  0  0  0
   65.6899  -29.3091   58.0419 C   0  0  0  0  0  0  0  0  0  0  0  0
   64.1447  -28.5453   58.2909 S   0  0  0  0  0  0  0  0  0  0  0  0
   65.8181  -30.5696   57.6190 C   0  0  0  0  0  0  0  0  0  0  0  0
   64.3867  -31.5148   57.2643 S   0  0  0  0  0  0  0  0  0  0  0  0
   67.1792  -31.1698   57.3912 C   0  0  2  0  0  0  0  0  0  0  0  0
   68.2709  -30.2913   57.7166 O   0  0  0  0  0  0  0  0  0  0  0  0
   67.2758  -31.5424   55.9009 C   0  0  0  0  0  0  0  0  0  0  0  0
   68.2370  -30.7524   55.1483 O   0  0  0  0  0  0  0  0  0  0  0  0
   67.8309  -30.0842   53.7234 P   0  0  2  0  0  0  0  0  0  0  0  0
   66.4317  -30.5413   53.4004 O   0  0  0  0  0  0  0  0  0  0  0  0
   68.8818  -30.6314   52.8755 O   0  0  0  0  0  0  0  0  0  0  0  0
   67.9228  -28.6250   54.0539 O   0  0  0  0  0  0  0  0  0  0  0  0
   72.6067  -24.5616   57.3836 H   0  0  0  0  0  0  0  0  0  0  0  0
   73.0267  -25.7987   58.5985 H   0  0  0  0  0  0  0  0  0  0  0  0
   70.5682  -24.5427   56.3840 H   0  0  0  0  0  0  0  0  0  0  0  0
   66.6845  -27.2834   56.5396 H   0  0  0  0  0  0  0  0  0  0  0  0
   66.5542  -27.7750   59.2131 H   0  0  0  0  0  0  0  0  0  0  0  0
   67.7435  -29.9241   59.6685 H   0  0  0  0  0  0  0  0  0  0  0  0
   69.8330  -28.9038   59.8236 H   0  0  0  0  0  0  0  0  0  0  0  0
   63.9050  -28.4268   59.6345 H   0  0  0  0  0  0  0  0  0  0  0  0
   63.7953  -31.9054   58.4367 H   0  0  0  0  0  0  0  0  0  0  0  0
   67.2730  -32.0383   58.0597 H   0  0  0  0  0  0  0  0  0  0  0  0
   67.5674  -32.6006   55.8284 H   0  0  0  0  0  0  0  0  0  0  0  0
   66.2882  -31.3405   55.4607 H   0  0  0  0  0  0  0  0  0  0  0  0
  1  2  2  0
  1 12  1  0
  2  3  1  0
  2  4  1  0
  4  5  1  0
  5  6  2  0
  5 11  1  0
  8  7  1  0
  7 11  1  0
  8  9  1  0
  8 13  1  0
  9 10  1  0
  9 18  1  0
 10 12  1  0
 11 12  2  0
 13 14  1  0
 13 15  2  0
 15 16  1  0
 15 17  1  0
 17 18  1  0
 17 19  1  0
 19 20  1  0
 20 21  1  0
 21 22  2  0
 21 23  1  6
 21 24  1  0
  3 25  1  0
  3 26  1  0
  4 27  1  0
  7 28  1  0
  8 29  1  1
  9 30  1  1
 10 31  1  0
 14 32  1  0
 16 33  1  0
 17 34  1  1
 19 35  1  0
 19 36  1  0
M  CHG  2  23  -1  24  -1
M  END
>  <filename_input>  (20) 
7D6O_MTE_docked.sdf

>  <pdb_id>  (20) 
7D6O_MTE

>  <pose_rank>  (20) 
19

>  <num_atoms_heavy>  (20) 
24

>  <num_torsions>  (20) 
3

>  <pose>  (20) 
[70.78634135905028, -26.993021039697, 58.52020714776376, -0.8207653380989537, 0.7218709563980283, -1.5960822442551235, -1.1081206498526084, -3.7928180212872453, -0.7268663548505943]

>  <energy>  (20) 
-140.33588151219018

>  <inter_energy>  (20) 
-134.27239963323981

>  <intra_energy>  (20) 
0.0

>  <rmsd>  (20) 
12.416

>  <sdf_rank>  (20) 
0

$$$$

     RDKit          3D

 36 38  0  0  0  0  0  0  0  0999 V2000
   67.7741  -30.7895   53.7282 N   0  0  0  0  0  0  0  0  0  0  0  0
   67.3455  -29.8993   52.8478 C   0  0  0  0  0  0  0  0  0  0  0  0
   66.1883  -30.0854   52.1985 N   0  0  0  0  0  0  0  0  0  0  0  0
   68.0682  -28.7745   52.5743 N   0  0  0  0  0  0  0  0  0  0  0  0
   69.2979  -28.5079   53.1785 C   0  0  0  0  0  0  0  0  0  0  0  0
   69.9263  -27.5146   52.8794 O   0  0  0  0  0  0  0  0  0  0  0  0
   70.9852  -29.2252   54.7847 N   0  0  0  0  0  0  0  0  0  0  0  0
   71.5580  -30.3884   55.4511 C   0  0  2  0  0  0  0  0  0  0  0  0
   70.4559  -31.1726   56.1708 C   0  0  2  0  0  0  0  0  0  0  0  0
   69.3649  -31.4547   55.2688 N   0  0  0  0  0  0  0  0  0  0  0  0
   69.7626  -29.4260   54.1101 C   0  0  0  0  0  0  0  0  0  0  0  0
   68.9726  -30.5605   54.3527 C   0  0  0  0  0  0  0  0  0  0  0  0
   72.6255  -30.0888   56.4739 C   0  0  0  0  0  0  0  0  0  0  0  0
   74.2149  -29.8809   55.7930 S   0  0  0  0  0  0  0  0  0  0  0  0
   72.3826  -30.0256   57.7859 C   0  0  0  0  0  0  0  0  0  0  0  0
   73.6964  -29.6933   58.8957 S   0  0  0  0  0  0  0  0  0  0  0  0
   70.9835  -30.1823   58.3175 C   0  0  2  0  0  0  0  0  0  0  0  0
   69.9965  -30.4481   57.3053 O   0  0  0  0  0  0  0  0  0  0  0  0
   70.6123  -28.8712   59.0335 C   0  0  0  0  0  0  0  0  0  0  0  0
   70.4109  -27.7399   58.1425 O   0  0  0  0  0  0  0  0  0  0  0  0
   68.9401  -27.0711   57.9663 P   0  0  2  0  0  0  0  0  0  0  0  0
   68.4466  -27.4375   56.5903 O   0  0  0  0  0  0  0  0  0  0  0  0
   69.2730  -25.6660   58.1605 O   0  0  0  0  0  0  0  0  0  0  0  0
   68.1843  -27.7439   59.0723 O   0  0  0  0  0  0  0  0  0  0  0  0
   65.8631  -29.3869   51.5151 H   0  0  0  0  0  0  0  0  0  0  0  0
   65.6239  -30.9271   52.3830 H   0  0  0  0  0  0  0  0  0  0  0  0
   67.6919  -28.0965   51.8963 H   0  0  0  0  0  0  0  0  0  0  0  0
   71.4485  -28.3055   54.8054 H   0  0  0  0  0  0  0  0  0  0  0  0
   72.0336  -30.9581   54.6392 H   0  0  0  0  0  0  0  0  0  0  0  0
   70.8730  -32.1304   56.5152 H   0  0  0  0  0  0  0  0  0  0  0  0
   68.8790  -32.3608   55.3310 H   0  0  0  0  0  0  0  0  0  0  0  0
   75.1324  -29.7608   56.8033 H   0  0  0  0  0  0  0  0  0  0  0  0
   73.2456  -29.8073   60.1844 H   0  0  0  0  0  0  0  0  0  0  0  0
   70.9808  -31.0550   58.9872 H   0  0  0  0  0  0  0  0  0  0  0  0
   69.6815  -29.0371   59.5956 H   0  0  0  0  0  0  0  0  0  0  0  0
   71.4629  -28.6144   59.6820 H   0  0  0  0  0  0  0  0  0  0  0  0
  1  2  2  0
  1 12  1  0
  2  3  1  0
  2  4  1  0
  4  5  1  0
  5  6  2  0
  5 11  1  0
  8  7  1  0
  7 11  1  0
  8  9  1  0
  8 13  1  0
  9 10  1  0
  9 18  1  0
 10 12  1  0
 11 12  2  0
 13 14  1  0
 13 15  2  0
 15 16  1  0
 15 17  1  0
 17 18  1  0
 17 19  1  0
 19 20  1  0
 20 21  1  0
 21 22  2  0
 21 23  1  1
 21 24  1  0
  3 25  1  0
  3 26  1  0
  4 27  1  0
  7 28  1  0
  8 29  1  6
  9 30  1  1
 10 31  1  0
 14 32  1  0
 16 33  1  0
 17 34  1  1
 19 35  1  0
 19 36  1  0
M  CHG  2  23  -1  24  -1
M  END
>  <filename_input>  (21) 
7D6O_MTE_docked.sdf

>  <pdb_id>  (21) 
7D6O_MTE

>  <pose_rank>  (21) 
20

>  <num_atoms_heavy>  (21) 
24

>  <num_torsions>  (21) 
3

>  <pose>  (21) 
[67.77406853730234, -30.789516226310138, 53.72819228127718, 0.9159757712580444, -1.5069648227626975, 0.31737101011636115, -1.8475462577365784, -5.798714326780913, -2.5555302870118246]

>  <energy>  (21) 
-132.3034643449941

>  <inter_energy>  (21) 
-126.7545618289989

>  <intra_energy>  (21) 
1.9678608405817037

>  <rmsd>  (21) 
12.5733

>  <sdf_rank>  (21) 
0

$$$$

     RDKit          3D

 36 38  0  0  0  0  0  0  0  0999 V2000
   58.4625  -19.8890   40.7777 N   0  0  0  0  0  0  0  0  0  0  0  0
   59.6784  -19.7191   40.2839 C   0  0  0  0  0  0  0  0  0  0  0  0
   60.3041  -18.5403   40.4038 N   0  0  0  0  0  0  0  0  0  0  0  0
   60.3247  -20.7329   39.6383 N   0  0  0  0  0  0  0  0  0  0  0  0
   59.7434  -21.9863   39.4396 C   0  0  0  0  0  0  0  0  0  0  0  0
   60.3376  -22.8485   38.8275 O   0  0  0  0  0  0  0  0  0  0  0  0
   57.8167  -23.4302   39.8195 N   0  0  0  0  0  0  0  0  0  0  0  0
   56.3785  -23.4368   40.0581 C   0  0  2  0  0  0  0  0  0  0  0  0
   56.0488  -22.5769   41.2826 C   0  0  2  0  0  0  0  0  0  0  0  0
   56.6464  -21.2689   41.1575 N   0  0  0  0  0  0  0  0  0  0  0  0
   58.4706  -22.1875   39.9554 C   0  0  0  0  0  0  0  0  0  0  0  0
   57.8594  -21.1090   40.6137 C   0  0  0  0  0  0  0  0  0  0  0  0
   55.7675  -24.7953   40.2960 C   0  0  0  0  0  0  0  0  0  0  0  0
   55.3796  -25.6591   38.8343 S   0  0  0  0  0  0  0  0  0  0  0  0
   55.5119  -25.2777   41.5151 C   0  0  0  0  0  0  0  0  0  0  0  0
   54.7787  -26.8593   41.6854 S   0  0  0  0  0  0  0  0  0  0  0  0
   55.8966  -24.5014   42.7457 C   0  0  2  0  0  0  0  0  0  0  0  0
   56.4922  -23.2212   42.4707 O   0  0  0  0  0  0  0  0  0  0  0  0
   56.9075  -25.3549   43.5324 C   0  0  0  0  0  0  0  0  0  0  0  0
   56.6355  -25.4407   44.9583 O   0  0  0  0  0  0  0  0  0  0  0  0
   56.2926  -26.8684   45.6554 P   0  0  2  0  0  0  0  0  0  0  0  0
   57.5793  -27.4039   46.2288 O   0  0  0  0  0  0  0  0  0  0  0  0
   55.7669  -27.5943   44.5067 O   0  0  0  0  0  0  0  0  0  0  0  0
   55.3014  -26.4480   46.6984 O   0  0  0  0  0  0  0  0  0  0  0  0
   61.2504  -18.4178   40.0161 H   0  0  0  0  0  0  0  0  0  0  0  0
   59.8386  -17.7567   40.8835 H   0  0  0  0  0  0  0  0  0  0  0  0
   61.2776  -20.5670   39.2843 H   0  0  0  0  0  0  0  0  0  0  0  0
   58.3282  -24.2872   39.5653 H   0  0  0  0  0  0  0  0  0  0  0  0
   55.9480  -23.0433   39.1255 H   0  0  0  0  0  0  0  0  0  0  0  0
   54.9576  -22.4516   41.3413 H   0  0  0  0  0  0  0  0  0  0  0  0
   56.1300  -20.4432   41.4927 H   0  0  0  0  0  0  0  0  0  0  0  0
   54.8339  -26.8745   39.1533 H   0  0  0  0  0  0  0  0  0  0  0  0
   54.6404  -27.1578   43.0154 H   0  0  0  0  0  0  0  0  0  0  0  0
   54.9740  -24.2974   43.3090 H   0  0  0  0  0  0  0  0  0  0  0  0
   56.8954  -26.3735   43.1173 H   0  0  0  0  0  0  0  0  0  0  0  0
   57.8854  -24.8624   43.4271 H   0  0  0  0  0  0  0  0  0  0  0  0
  1  2  2  0
  1 12  1  0
  2  3  1  0
  2  4  1  0
  4  5  1  0
  5  6  2  0
  5 11  1  0
  8  7  1  0
  7 11  1  0
  8  9  1  0
  8 13  1  0
  9 10  1  0
  9 18  1  0
 10 12  1  0
 11 12  2  0
 13 14  1  0
 13 15  2  0
 15 16  1  0
 15 17  1  0
 17 18  1  0
 17 19  1  0
 19 20  1  0
 20 21  1  0
 21 22  2  0
 21 23  1  6
 21 24  1  0
  3 25  1  0
  3 26  1  0
  4 27  1  0
  7 28  1  0
  8 29  1  6
  9 30  1  1
 10 31  1  0
 14 32  1  0
 16 33  1  0
 17 34  1  1
 19 35  1  0
 19 36  1  0
M  CHG  2  23  -1  24  -1
M  END
>  <filename_input>  (22) 
7D6O_MTE_docked.sdf

>  <pdb_id>  (22) 
7D6O_MTE

>  <pose_rank>  (22) 
21

>  <num_atoms_heavy>  (22) 
24

>  <num_torsions>  (22) 
3

>  <pose>  (22) 
[58.4624731378318, -19.889021388827956, 40.777722891078554, 0.8611603316147758, 2.4197486819234446, 2.949315504391989, 0.8746195285554659, 0.554183972963301, 1.0158130907440144]

>  <energy>  (22) 
-96.98090328233178

>  <inter_energy>  (22) 
-102.35952172780239

>  <intra_energy>  (22) 
11.63976603466925

>  <rmsd>  (22) 
12.2203

>  <sdf_rank>  (22) 
0

$$$$

     RDKit          3D

 36 38  0  0  0  0  0  0  0  0999 V2000
   55.1750  -28.4534   45.9679 N   0  0  0  0  0  0  0  0  0  0  0  0
   56.0252  -28.9132   46.8718 C   0  0  0  0  0  0  0  0  0  0  0  0
   55.5996  -29.6996   47.8697 N   0  0  0  0  0  0  0  0  0  0  0  0
   57.3517  -28.5979   46.8161 N   0  0  0  0  0  0  0  0  0  0  0  0
   57.8834  -27.7634   45.8316 C   0  0  0  0  0  0  0  0  0  0  0  0
   59.0621  -27.4778   45.8399 O   0  0  0  0  0  0  0  0  0  0  0  0
   57.4651  -26.4429   43.8259 N   0  0  0  0  0  0  0  0  0  0  0  0
   56.4457  -25.6974   43.0978 C   0  0  2  0  0  0  0  0  0  0  0  0
   55.2344  -26.5963   42.8290 C   0  0  2  0  0  0  0  0  0  0  0  0
   54.7863  -27.2197   44.0513 N   0  0  0  0  0  0  0  0  0  0  0  0
   57.0096  -27.2753   44.8699 C   0  0  0  0  0  0  0  0  0  0  0  0
   55.6581  -27.6388   44.9770 C   0  0  0  0  0  0  0  0  0  0  0  0
   56.8807  -25.1346   41.7676 C   0  0  0  0  0  0  0  0  0  0  0  0
   57.7046  -23.6048   41.8855 S   0  0  0  0  0  0  0  0  0  0  0  0
   56.6253  -25.7349   40.6020 C   0  0  0  0  0  0  0  0  0  0  0  0
   57.1538  -24.9882   39.1082 S   0  0  0  0  0  0  0  0  0  0  0  0
   55.9369  -27.0724   40.5602 C   0  0  2  0  0  0  0  0  0  0  0  0
   55.5570  -27.5785   41.8521 O   0  0  0  0  0  0  0  0  0  0  0  0
   56.9089  -28.0716   39.9074 C   0  0  0  0  0  0  0  0  0  0  0  0
   57.1433  -29.2751   40.6892 O   0  0  0  0  0  0  0  0  0  0  0  0
   57.8611  -30.5728   40.0239 P   0  0  2  0  0  0  0  0  0  0  0  0
   58.8348  -31.1123   41.0397 O   0  0  0  0  0  0  0  0  0  0  0  0
   58.4587  -29.9585   38.8456 O   0  0  0  0  0  0  0  0  0  0  0  0
   56.6804  -31.4669   39.7924 O   0  0  0  0  0  0  0  0  0  0  0  0
   56.2689  -30.0526   48.5685 H   0  0  0  0  0  0  0  0  0  0  0  0
   54.6031  -29.9511   47.9381 H   0  0  0  0  0  0  0  0  0  0  0  0
   57.9846  -28.9905   47.5276 H   0  0  0  0  0  0  0  0  0  0  0  0
   58.4650  -26.3660   43.5906 H   0  0  0  0  0  0  0  0  0  0  0  0
   56.2140  -24.8452   43.7535 H   0  0  0  0  0  0  0  0  0  0  0  0
   54.4143  -25.9749   42.4399 H   0  0  0  0  0  0  0  0  0  0  0  0
   53.7769  -27.3443   44.2145 H   0  0  0  0  0  0  0  0  0  0  0  0
   57.8791  -23.2806   43.2051 H   0  0  0  0  0  0  0  0  0  0  0  0
   57.9279  -23.8944   39.3933 H   0  0  0  0  0  0  0  0  0  0  0  0
   55.0034  -26.9455   39.9923 H   0  0  0  0  0  0  0  0  0  0  0  0
   56.4945  -28.3690   38.9328 H   0  0  0  0  0  0  0  0  0  0  0  0
   57.8779  -27.5582   39.8208 H   0  0  0  0  0  0  0  0  0  0  0  0
  1  2  2  0
  1 12  1  0
  2  3  1  0
  2  4  1  0
  4  5  1  0
  5  6  2  0
  5 11  1  0
  8  7  1  0
  7 11  1  0
  8  9  1  0
  8 13  1  0
  9 10  1  0
  9 18  1  0
 10 12  1  0
 11 12  2  0
 13 14  1  0
 13 15  2  0
 15 16  1  0
 15 17  1  0
 17 18  1  0
 17 19  1  0
 19 20  1  0
 20 21  1  0
 21 22  2  0
 21 23  1  6
 21 24  1  0
  3 25  1  0
  3 26  1  0
  4 27  1  0
  7 28  1  0
  8 29  1  1
  9 30  1  6
 10 31  1  0
 14 32  1  0
 16 33  1  0
 17 34  1  6
 19 35  1  0
 19 36  1  0
M  CHG  2  23  -1  24  -1
M  END
>  <filename_input>  (23) 
7D6O_MTE_docked.sdf

>  <pdb_id>  (23) 
7D6O_MTE

>  <pose_rank>  (23) 
22

>  <num_atoms_heavy>  (23) 
24

>  <num_torsions>  (23) 
3

>  <pose>  (23) 
[55.17501317348101, -28.453376169375268, 45.967922421450155, 1.4932128309677246, 0.40264334524716894, -2.486370400325076, -0.8589263755446209, -4.873852364764021, 1.755175277499018]

>  <energy>  (23) 
-99.01840552645103

>  <inter_energy>  (23) 
-89.14021467769453

>  <intra_energy>  (23) 
0.0

>  <rmsd>  (23) 
12.6871

>  <sdf_rank>  (23) 
0

$$$$

     RDKit          3D

 36 38  0  0  0  0  0  0  0  0999 V2000
   72.7424  -26.9159   48.1101 N   0  0  0  0  0  0  0  0  0  0  0  0
   73.8104  -27.2505   47.4038 C   0  0  0  0  0  0  0  0  0  0  0  0
   74.1593  -26.5441   46.3199 N   0  0  0  0  0  0  0  0  0  0  0  0
   74.5802  -28.3212   47.7548 N   0  0  0  0  0  0  0  0  0  0  0  0
   74.2806  -29.1332   48.8499 C   0  0  0  0  0  0  0  0  0  0  0  0
   74.9699  -30.0979   49.1055 O   0  0  0  0  0  0  0  0  0  0  0  0
   72.8042  -29.5487   50.7444 N   0  0  0  0  0  0  0  0  0  0  0  0
   71.4507  -29.3509   51.2485 C   0  0  2  0  0  0  0  0  0  0  0  0
   71.0984  -27.8600   51.2263 C   0  0  2  0  0  0  0  0  0  0  0  0
   71.3581  -27.2985   49.9222 N   0  0  0  0  0  0  0  0  0  0  0  0
   73.1679  -28.7959   49.6080 C   0  0  0  0  0  0  0  0  0  0  0  0
   72.4188  -27.6811   49.2003 C   0  0  0  0  0  0  0  0  0  0  0  0
   71.2045  -29.8412   52.6536 C   0  0  0  0  0  0  0  0  0  0  0  0
   70.8344  -31.5401   52.7523 S   0  0  0  0  0  0  0  0  0  0  0  0
   71.2306  -29.0396   53.7218 C   0  0  0  0  0  0  0  0  0  0  0  0
   70.9089  -29.7022   55.3110 S   0  0  0  0  0  0  0  0  0  0  0  0
   71.5871  -27.5841   53.5827 C   0  0  2  0  0  0  0  0  0  0  0  0
   71.8314  -27.1657   52.2282 O   0  0  0  0  0  0  0  0  0  0  0  0
   72.8621  -27.3402   54.4099 C   0  0  0  0  0  0  0  0  0  0  0  0
   72.9459  -26.0147   55.0021 O   0  0  0  0  0  0  0  0  0  0  0  0
   73.6781  -25.7887   56.4355 P   0  0  2  0  0  0  0  0  0  0  0  0
   73.7327  -24.3023   56.6777 O   0  0  0  0  0  0  0  0  0  0  0  0
   74.9598  -26.4295   56.1718 O   0  0  0  0  0  0  0  0  0  0  0  0
   72.7397  -26.5112   57.3544 O   0  0  0  0  0  0  0  0  0  0  0  0
   74.9923  -26.8123   45.7766 H   0  0  0  0  0  0  0  0  0  0  0  0
   73.5946  -25.7330   46.0300 H   0  0  0  0  0  0  0  0  0  0  0  0
   75.4139  -28.5383   47.1904 H   0  0  0  0  0  0  0  0  0  0  0  0
   73.4602  -30.2032   51.1940 H   0  0  0  0  0  0  0  0  0  0  0  0
   70.8214  -29.9534   50.5769 H   0  0  0  0  0  0  0  0  0  0  0  0
   70.0252  -27.7487   51.4405 H   0  0  0  0  0  0  0  0  0  0  0  0
   70.7154  -26.5903   49.5397 H   0  0  0  0  0  0  0  0  0  0  0  0
   70.7529  -31.9141   54.0677 H   0  0  0  0  0  0  0  0  0  0  0  0
   71.3369  -28.8208   56.2685 H   0  0  0  0  0  0  0  0  0  0  0  0
   70.7256  -26.9982   53.9356 H   0  0  0  0  0  0  0  0  0  0  0  0
   72.8942  -28.0826   55.2209 H   0  0  0  0  0  0  0  0  0  0  0  0
   73.7105  -27.4294   53.7154 H   0  0  0  0  0  0  0  0  0  0  0  0
  1  2  2  0
  1 12  1  0
  2  3  1  0
  2  4  1  0
  4  5  1  0
  5  6  2  0
  5 11  1  0
  8  7  1  0
  7 11  1  0
  8  9  1  0
  8 13  1  0
  9 10  1  0
  9 18  1  0
 10 12  1  0
 11 12  2  0
 13 14  1  0
 13 15  2  0
 15 16  1  0
 15 17  1  0
 17 18  1  0
 17 19  1  0
 19 20  1  0
 20 21  1  0
 21 22  2  0
 21 23  1  6
 21 24  1  0
  3 25  1  0
  3 26  1  0
  4 27  1  0
  7 28  1  0
  8 29  1  6
  9 30  1  1
 10 31  1  0
 14 32  1  0
 16 33  1  0
 17 34  1  1
 19 35  1  0
 19 36  1  0
M  CHG  2  23  -1  24  -1
M  END
>  <filename_input>  (24) 
7D6O_MTE_docked.sdf

>  <pdb_id>  (24) 
7D6O_MTE

>  <pose_rank>  (24) 
23

>  <num_atoms_heavy>  (24) 
24

>  <num_torsions>  (24) 
3

>  <pose>  (24) 
[72.74242799267746, -26.91588770448738, 48.11006548489018, -1.0477185249128056, -2.1042278137272663, -0.7093097757232342, 0.6311542704319872, -5.203453625507467, 2.3712568362402338]

>  <energy>  (24) 
-99.8458454971818

>  <inter_energy>  (24) 
-102.43736785689849

>  <intra_energy>  (24) 
0.0

>  <rmsd>  (24) 
12.057

>  <sdf_rank>  (24) 
0

$$$$

     RDKit          3D

 36 38  0  0  0  0  0  0  0  0999 V2000
   71.0985  -20.3434   41.6251 N   0  0  0  0  0  0  0  0  0  0  0  0
   71.5654  -21.1723   40.7052 C   0  0  0  0  0  0  0  0  0  0  0  0
   71.0226  -22.3867   40.5436 N   0  0  0  0  0  0  0  0  0  0  0  0
   72.6100  -20.8175   39.9021 N   0  0  0  0  0  0  0  0  0  0  0  0
   73.2580  -19.5864   40.0147 C   0  0  0  0  0  0  0  0  0  0  0  0
   74.2071  -19.3250   39.3062 O   0  0  0  0  0  0  0  0  0  0  0  0
   73.3610  -17.4249   41.1368 N   0  0  0  0  0  0  0  0  0  0  0  0
   73.0451  -16.7247   42.3758 C   0  0  2  0  0  0  0  0  0  0  0  0
   71.5573  -16.8890   42.7031 C   0  0  2  0  0  0  0  0  0  0  0  0
   71.1835  -18.2828   42.6708 N   0  0  0  0  0  0  0  0  0  0  0  0
   72.7798  -18.6994   40.9694 C   0  0  0  0  0  0  0  0  0  0  0  0
   71.6997  -19.1191   41.7615 C   0  0  0  0  0  0  0  0  0  0  0  0
   73.3355  -15.2445   42.3757 C   0  0  0  0  0  0  0  0  0  0  0  0
   74.9905  -14.8513   42.7490 S   0  0  0  0  0  0  0  0  0  0  0  0
   72.4017  -14.3171   42.1474 C   0  0  0  0  0  0  0  0  0  0  0  0
   72.8356  -12.6206   42.1916 S   0  0  0  0  0  0  0  0  0  0  0  0
   70.9925  -14.7140   41.7986 C   0  0  2  0  0  0  0  0  0  0  0  0
   70.7665  -16.1347   41.7927 O   0  0  0  0  0  0  0  0  0  0  0  0
   70.6923  -14.1628   40.3931 C   0  0  0  0  0  0  0  0  0  0  0  0
   69.5227  -13.3013   40.3262 O   0  0  0  0  0  0  0  0  0  0  0  0
   68.1332  -13.8342   39.6728 P   0  0  2  0  0  0  0  0  0  0  0  0
   68.4492  -15.1087   38.9333 O   0  0  0  0  0  0  0  0  0  0  0  0
   67.7891  -12.6917   38.8365 O   0  0  0  0  0  0  0  0  0  0  0  0
   67.3005  -14.0453   40.9012 O   0  0  0  0  0  0  0  0  0  0  0  0
   71.3929  -23.0248   39.8249 H   0  0  0  0  0  0  0  0  0  0  0  0
   70.2350  -22.6820   41.1381 H   0  0  0  0  0  0  0  0  0  0  0  0
   72.9326  -21.4834   39.1856 H   0  0  0  0  0  0  0  0  0  0  0  0
   73.9760  -17.0111   40.4217 H   0  0  0  0  0  0  0  0  0  0  0  0
   73.7055  -17.1875   43.1239 H   0  0  0  0  0  0  0  0  0  0  0  0
   71.3763  -16.5085   43.7191 H   0  0  0  0  0  0  0  0  0  0  0  0
   70.5071  -18.6408   43.3601 H   0  0  0  0  0  0  0  0  0  0  0  0
   75.1552  -14.8122   44.1085 H   0  0  0  0  0  0  0  0  0  0  0  0
   72.9406  -12.2099   43.4944 H   0  0  0  0  0  0  0  0  0  0  0  0
   70.3315  -14.3001   42.5743 H   0  0  0  0  0  0  0  0  0  0  0  0
   71.5655  -13.5852   40.0556 H   0  0  0  0  0  0  0  0  0  0  0  0
   70.4811  -15.0315   39.7522 H   0  0  0  0  0  0  0  0  0  0  0  0
  1  2  2  0
  1 12  1  0
  2  3  1  0
  2  4  1  0
  4  5  1  0
  5  6  2  0
  5 11  1  0
  8  7  1  0
  7 11  1  0
  8  9  1  0
  8 13  1  0
  9 10  1  0
  9 18  1  0
 10 12  1  0
 11 12  2  0
 13 14  1  0
 13 15  2  0
 15 16  1  0
 15 17  1  0
 17 18  1  0
 17 19  1  0
 19 20  1  0
 20 21  1  0
 21 22  2  0
 21 23  1  6
 21 24  1  0
  3 25  1  0
  3 26  1  0
  4 27  1  0
  7 28  1  0
  8 29  1  1
  9 30  1  1
 10 31  1  0
 14 32  1  0
 16 33  1  0
 17 34  1  1
 19 35  1  0
 19 36  1  0
M  CHG  2  23  -1  24  -1
M  END
>  <filename_input>  (25) 
7D6O_MTE_docked.sdf

>  <pdb_id>  (25) 
7D6O_MTE

>  <pose_rank>  (25) 
24

>  <num_atoms_heavy>  (25) 
24

>  <num_torsions>  (25) 
3

>  <pose>  (25) 
[71.09847202345998, -20.343361249719518, 41.625051355331955, 0.5258172717793921, 2.384100940893878, -3.245041963024498, 1.0459010442580536, 2.9557353731795737, -0.8911617375830204]

>  <energy>  (25) 
-93.10543536610429

>  <inter_energy>  (25) 
-83.72615790801004

>  <intra_energy>  (25) 
0.0

>  <rmsd>  (25) 
12.7234

>  <sdf_rank>  (25) 
0

$$$$

     RDKit          3D

 36 38  0  0  0  0  0  0  0  0999 V2000
   62.3600  -21.5990   51.5730 N   0  0  0  0  0  0  0  0  0  0  0  0
   61.1850  -21.0070   51.4310 C   0  0  0  0  0  0  0  0  0  0  0  0
   60.5310  -20.5260   52.4970 N   0  0  0  0  0  0  0  0  0  0  0  0
   60.6070  -20.8740   50.2020 N   0  0  0  0  0  0  0  0  0  0  0  0
   61.1980  -21.3680   49.0380 C   0  0  0  0  0  0  0  0  0  0  0  0
   60.6330  -21.2620   47.9700 O   0  0  0  0  0  0  0  0  0  0  0  0
   63.1130  -22.4960   48.0370 N   0  0  0  0  0  0  0  0  0  0  0  0
   64.1990  -23.4320   48.3010 C   0  0  2  0  0  0  0  0  0  0  0  0
   65.0350  -22.9400   49.4870 C   0  0  2  0  0  0  0  0  0  0  0  0
   64.1860  -22.6470   50.6170 N   0  0  0  0  0  0  0  0  0  0  0  0
   62.4340  -21.9870   49.1640 C   0  0  0  0  0  0  0  0  0  0  0  0
   62.9800  -22.0890   50.4530 C   0  0  0  0  0  0  0  0  0  0  0  0
   65.1520  -23.6590   47.1540 C   0  0  0  0  0  0  0  0  0  0  0  0
   64.6030  -24.8490   46.0070 S   0  0  0  0  0  0  0  0  0  0  0  0
   66.3270  -23.0330   47.0460 C   0  0  0  0  0  0  0  0  0  0  0  0
   67.3740  -23.3830   45.6860 S   0  0  0  0  0  0  0  0  0  0  0  0
   66.7380  -21.9900   48.0500 C   0  0  2  0  0  0  0  0  0  0  0  0
   65.7910  -21.7940   49.1150 O   0  0  0  0  0  0  0  0  0  0  0  0
   66.9070  -20.6610   47.2920 C   0  0  0  0  0  0  0  0  0  0  0  0
   67.2220  -19.5240   48.1420 O   0  0  0  0  0  0  0  0  0  0  0  0
   68.7580  -19.2010   48.5640 P   0  0  2  0  0  0  0  0  0  0  0  0
   69.6220  -19.5080   47.3680 O   0  0  0  0  0  0  0  0  0  0  0  0
   68.9080  -20.1060   49.6960 O   0  0  0  0  0  0  0  0  0  0  0  0
   68.6680  -17.7380   48.8780 O   0  0  0  0  0  0  0  0  0  0  0  0
   59.6169  -20.0668   52.3764 H   0  0  0  0  0  0  0  0  0  0  0  0
   60.9423  -20.6154   53.4371 H   0  0  0  0  0  0  0  0  0  0  0  0
   59.7002  -20.3907   50.1306 H   0  0  0  0  0  0  0  0  0  0  0  0
   62.8551  -22.2209   47.0785 H   0  0  0  0  0  0  0  0  0  0  0  0
   63.6906  -24.3874   48.4978 H   0  0  0  0  0  0  0  0  0  0  0  0
   65.7336  -23.7375   49.7802 H   0  0  0  0  0  0  0  0  0  0  0  0
   64.5141  -22.8714   51.5672 H   0  0  0  0  0  0  0  0  0  0  0  0
   64.1027  -25.9335   46.6782 H   0  0  0  0  0  0  0  0  0  0  0  0
   68.5981  -23.7922   46.1455 H   0  0  0  0  0  0  0  0  0  0  0  0
   67.6678  -22.3369   48.5245 H   0  0  0  0  0  0  0  0  0  0  0  0
   67.7211  -20.7816   46.5621 H   0  0  0  0  0  0  0  0  0  0  0  0
   65.9382  -20.4423   46.8191 H   0  0  0  0  0  0  0  0  0  0  0  0
  1  2  2  0
  1 12  1  0
  2  3  1  0
  2  4  1  0
  4  5  1  0
  5  6  2  0
  5 11  1  0
  8  7  1  0
  7 11  1  0
  8  9  1  0
  8 13  1  0
  9 10  1  0
  9 18  1  0
 10 12  1  0
 11 12  2  0
 13 14  1  0
 13 15  2  0
 15 16  1  0
 15 17  1  0
 17 18  1  0
 17 19  1  0
 19 20  1  0
 20 21  1  0
 21 22  2  0
 21 23  1  1
 21 24  1  0
  3 25  1  0
  3 26  1  0
  4 27  1  0
  7 28  1  0
  8 29  1  1
  9 30  1  1
 10 31  1  0
 14 32  1  0
 16 33  1  0
 17 34  1  1
 19 35  1  0
 19 36  1  0
M  CHG  2  23  -1  24  -1
M  END
>  <filename_input>  (26) 
7D6O_MTE_docked.sdf

>  <pdb_id>  (26) 
7D6O_MTE

>  <pose_rank>  (26) 
25

>  <num_atoms_heavy>  (26) 
24

>  <num_torsions>  (26) 
3

>  <pose>  (26) 
[62.36, -21.599, 51.573, 1e-06, 1e-06, 1e-06, 0.0, 0.0, 0.0]

>  <energy>  (26) 
-893.3478282351791

>  <inter_energy>  (26) 
-903.7451643963483

>  <intra_energy>  (26) 
2.492683882894569

>  <rmsd>  (26) 
0.0

>  <sdf_rank>  (26) 
0

$$$$
