
     RDKit          3D

 23 23  0  0  0  0  0  0  0  0999 V2000
   57.2678   66.9096   61.6680 C   0  0  1  0  0  0  0  0  0  0  0  0
   56.5625   66.7828   60.3228 C   0  0  1  0  0  0  0  0  0  0  0  0
   57.5688   66.3873   59.2330 C   0  0  2  0  0  0  0  0  0  0  0  0
   58.6613   67.4437   59.1703 C   0  0  1  0  0  0  0  0  0  0  0  0
   59.2899   67.6671   60.5499 C   0  0  1  0  0  0  0  0  0  0  0  0
   60.2535   68.8429   60.5391 C   0  0  0  0  0  0  0  0  0  0  0  0
   57.7761   65.6930   62.0212 F   0  0  0  0  0  0  0  0  0  0  0  0
   55.4931   65.8374   60.4229 O   0  0  0  0  0  0  0  0  0  0  0  0
   56.9517   66.3128   57.9458 O   0  0  0  0  0  0  0  0  0  0  0  0
   59.6662   67.0620   58.2236 O   0  0  0  0  0  0  0  0  0  0  0  0
   58.3040   67.8718   61.5806 O   0  0  0  0  0  0  0  0  0  0  0  0
   61.0880   68.8117   61.7083 O   0  0  0  0  0  0  0  0  0  0  0  0
   56.5511   67.2397   62.4344 H   0  0  0  0  0  0  0  0  0  0  0  0
   56.1309   67.7544   60.0405 H   0  0  0  0  0  0  0  0  0  0  0  0
   57.9746   65.3972   59.4881 H   0  0  0  0  0  0  0  0  0  0  0  0
   58.2046   68.3899   58.8447 H   0  0  0  0  0  0  0  0  0  0  0  0
   59.8423   66.7442   60.7803 H   0  0  0  0  0  0  0  0  0  0  0  0
   60.8852   68.7867   59.6404 H   0  0  0  0  0  0  0  0  0  0  0  0
   59.6767   69.7795   60.5349 H   0  0  0  0  0  0  0  0  0  0  0  0
   55.2954   65.6627   61.3771 H   0  0  0  0  0  0  0  0  0  0  0  0
   55.9748   66.1948   58.0545 H   0  0  0  0  0  0  0  0  0  0  0  0
   60.4744   66.7550   58.7059 H   0  0  0  0  0  0  0  0  0  0  0  0
   60.5206   68.8329   62.5193 H   0  0  0  0  0  0  0  0  0  0  0  0
  1  2  1  0
  1  7  1  0
  1 11  1  0
  2  3  1  0
  2  8  1  0
  3  4  1  0
  3  9  1  0
  4  5  1  0
  4 10  1  0
  5  6  1  0
  5 11  1  0
  6 12  1  0
  1 13  1  1
  2 14  1  6
  3 15  1  1
  4 16  1  6
  5 17  1  1
  6 18  1  0
  6 19  1  0
  8 20  1  0
  9 21  1  0
 10 22  1  0
 12 23  1  0
M  END
>  <filename_input>  (1) 
7DKT_GLF_docked.sdf

>  <pdb_id>  (1) 
7DKT_GLF

>  <pose_rank>  (1) 
0

>  <num_atoms_heavy>  (1) 
12

>  <num_torsions>  (1) 
1

>  <pose>  (1) 
[57.26778967540818, 66.90958095748245, 61.66797939164886, -0.8663012001628038, 5.774087497286525, -2.2921278361032806, 0.0817135695568014]

>  <energy>  (1) 
-735.5554797050432

>  <inter_energy>  (1) 
-731.0805142703706

>  <intra_energy>  (1) 
0.0

>  <rmsd>  (1) 
0.243504

>  <sdf_rank>  (1) 
0

$$$$

     RDKit          3D

 23 23  0  0  0  0  0  0  0  0999 V2000
   59.2710   67.1499   61.1335 C   0  0  1  0  0  0  0  0  0  0  0  0
   58.9456   66.9995   59.6521 C   0  0  1  0  0  0  0  0  0  0  0  0
   57.4292   66.8641   59.4547 C   0  0  2  0  0  0  0  0  0  0  0  0
   56.9406   65.6555   60.2383 C   0  0  1  0  0  0  0  0  0  0  0  0
   57.3746   65.7394   61.7056 C   0  0  1  0  0  0  0  0  0  0  0  0
   57.0508   64.4578   62.4564 C   0  0  0  0  0  0  0  0  0  0  0  0
   58.7067   68.3022   61.5991 F   0  0  0  0  0  0  0  0  0  0  0  0
   59.4762   68.1108   58.9236 O   0  0  0  0  0  0  0  0  0  0  0  0
   57.0909   66.6658   58.0801 O   0  0  0  0  0  0  0  0  0  0  0  0
   55.5149   65.5497   60.1483 O   0  0  0  0  0  0  0  0  0  0  0  0
   58.7778   66.0326   61.8516 O   0  0  0  0  0  0  0  0  0  0  0  0
   56.2966   63.5680   61.6176 O   0  0  0  0  0  0  0  0  0  0  0  0
   60.3612   67.1980   61.2721 H   0  0  0  0  0  0  0  0  0  0  0  0
   59.4149   66.0838   59.2633 H   0  0  0  0  0  0  0  0  0  0  0  0
   56.9564   67.7937   59.8043 H   0  0  0  0  0  0  0  0  0  0  0  0
   57.3942   64.7554   59.7979 H   0  0  0  0  0  0  0  0  0  0  0  0
   56.8019   66.5720   62.1401 H   0  0  0  0  0  0  0  0  0  0  0  0
   57.9878   63.9665   62.7574 H   0  0  0  0  0  0  0  0  0  0  0  0
   56.4533   64.7046   63.3464 H   0  0  0  0  0  0  0  0  0  0  0  0
   59.8033   68.7960   59.5589 H   0  0  0  0  0  0  0  0  0  0  0  0
   56.2384   66.1661   58.0188 H   0  0  0  0  0  0  0  0  0  0  0  0
   55.1280   65.5210   61.0591 H   0  0  0  0  0  0  0  0  0  0  0  0
   55.7710   62.9479   62.1827 H   0  0  0  0  0  0  0  0  0  0  0  0
  1  2  1  0
  1  7  1  0
  1 11  1  0
  2  3  1  0
  2  8  1  0
  3  4  1  0
  3  9  1  0
  4  5  1  0
  4 10  1  0
  5  6  1  0
  5 11  1  0
  6 12  1  0
  1 13  1  6
  2 14  1  6
  3 15  1  1
  4 16  1  6
  5 17  1  1
  6 18  1  0
  6 19  1  0
  8 20  1  0
  9 21  1  0
 10 22  1  0
 12 23  1  0
M  END
>  <filename_input>  (2) 
7DKT_GLF_docked.sdf

>  <pdb_id>  (2) 
7DKT_GLF

>  <pose_rank>  (2) 
1

>  <num_atoms_heavy>  (2) 
12

>  <num_torsions>  (2) 
1

>  <pose>  (2) 
[59.27100376869268, 67.14986608011274, 61.13349667323475, -0.9904373790149441, -0.31770146238735797, -2.6642153521552, 9.128614671092368]

>  <energy>  (2) 
-452.93966902632917

>  <inter_energy>  (2) 
-481.07049070432674

>  <intra_energy>  (2) 
19.787718384126777

>  <rmsd>  (2) 
3.70904

>  <sdf_rank>  (2) 
0

$$$$

     RDKit          3D

 23 23  0  0  0  0  0  0  0  0999 V2000
   57.8057   65.7289   58.8635 C   0  0  1  0  0  0  0  0  0  0  0  0
   57.2200   65.2144   60.1732 C   0  0  1  0  0  0  0  0  0  0  0  0
   57.0019   66.3793   61.1489 C   0  0  2  0  0  0  0  0  0  0  0  0
   58.3352   67.0705   61.3904 C   0  0  1  0  0  0  0  0  0  0  0  0
   58.9907   67.4784   60.0667 C   0  0  1  0  0  0  0  0  0  0  0  0
   60.4005   68.0050   60.2823 C   0  0  0  0  0  0  0  0  0  0  0  0
   56.9097   66.5746   58.2763 F   0  0  0  0  0  0  0  0  0  0  0  0
   56.0038   64.5060   59.9156 O   0  0  0  0  0  0  0  0  0  0  0  0
   56.5042   65.9263   62.4100 O   0  0  0  0  0  0  0  0  0  0  0  0
   58.1541   68.2179   62.2284 O   0  0  0  0  0  0  0  0  0  0  0  0
   59.0286   66.3995   59.1124 O   0  0  0  0  0  0  0  0  0  0  0  0
   60.3919   69.4409   60.3320 O   0  0  0  0  0  0  0  0  0  0  0  0
   58.0043   64.8842   58.1873 H   0  0  0  0  0  0  0  0  0  0  0  0
   57.9271   64.5148   60.6429 H   0  0  0  0  0  0  0  0  0  0  0  0
   56.2645   67.0629   60.7030 H   0  0  0  0  0  0  0  0  0  0  0  0
   59.0029   66.3589   61.8983 H   0  0  0  0  0  0  0  0  0  0  0  0
   58.3602   68.2803   59.6550 H   0  0  0  0  0  0  0  0  0  0  0  0
   60.7943   67.6110   61.2308 H   0  0  0  0  0  0  0  0  0  0  0  0
   61.0370   67.6787   59.4467 H   0  0  0  0  0  0  0  0  0  0  0  0
   55.5782   64.2580   60.7744 H   0  0  0  0  0  0  0  0  0  0  0  0
   56.9982   66.3759   63.1406 H   0  0  0  0  0  0  0  0  0  0  0  0
   58.1975   67.9429   63.1784 H   0  0  0  0  0  0  0  0  0  0  0  0
   60.3902   69.7384   61.2763 H   0  0  0  0  0  0  0  0  0  0  0  0
  1  2  1  0
  1  7  1  0
  1 11  1  0
  2  3  1  0
  2  8  1  0
  3  4  1  0
  3  9  1  0
  4  5  1  0
  4 10  1  0
  5  6  1  0
  5 11  1  0
  6 12  1  0
  1 13  1  6
  2 14  1  1
  3 15  1  6
  4 16  1  1
  5 17  1  6
  6 18  1  0
  6 19  1  0
  8 20  1  0
  9 21  1  0
 10 22  1  0
 12 23  1  0
M  END
>  <filename_input>  (3) 
7DKT_GLF_docked.sdf

>  <pdb_id>  (3) 
7DKT_GLF

>  <pose_rank>  (3) 
2

>  <num_atoms_heavy>  (3) 
12

>  <num_torsions>  (3) 
1

>  <pose>  (3) 
[57.805728608459695, 65.72886652503463, 58.86348470083664, -2.706353372445241, -1.9049662400777863, -0.14326890642019224, -5.025451924698876]

>  <energy>  (3) 
-485.71175691096556

>  <inter_energy>  (3) 
-473.8656182110855

>  <intra_energy>  (3) 
1.4787642214578627

>  <rmsd>  (3) 
2.7562

>  <sdf_rank>  (3) 
0

$$$$

     RDKit          3D

 23 23  0  0  0  0  0  0  0  0999 V2000
   57.2446   66.9065   61.7853 C   0  0  1  0  0  0  0  0  0  0  0  0
   56.5297   66.7569   60.4475 C   0  0  1  0  0  0  0  0  0  0  0  0
   57.5246   66.3236   59.3616 C   0  0  2  0  0  0  0  0  0  0  0  0
   58.6295   67.3646   59.2678 C   0  0  1  0  0  0  0  0  0  0  0  0
   59.2691   67.6127   60.6381 C   0  0  1  0  0  0  0  0  0  0  0  0
   60.2468   68.7760   60.5941 C   0  0  0  0  0  0  0  0  0  0  0  0
   57.7402   65.6925   62.1641 F   0  0  0  0  0  0  0  0  0  0  0  0
   55.4496   65.8274   60.5760 O   0  0  0  0  0  0  0  0  0  0  0  0
   56.8989   66.2264   58.0801 O   0  0  0  0  0  0  0  0  0  0  0  0
   59.6239   66.9485   58.3246 O   0  0  0  0  0  0  0  0  0  0  0  0
   58.2919   67.8536   61.6693 O   0  0  0  0  0  0  0  0  0  0  0  0
   61.1815   68.6804   61.6811 O   0  0  0  0  0  0  0  0  0  0  0  0
   56.5367   67.2634   62.5478 H   0  0  0  0  0  0  0  0  0  0  0  0
   56.1083   67.7268   60.1449 H   0  0  0  0  0  0  0  0  0  0  0  0
   57.9199   65.3348   59.6376 H   0  0  0  0  0  0  0  0  0  0  0  0
   58.1824   68.3085   58.9226 H   0  0  0  0  0  0  0  0  0  0  0  0
   59.8116   66.6887   60.8870 H   0  0  0  0  0  0  0  0  0  0  0  0
   60.7949   68.7540   59.6407 H   0  0  0  0  0  0  0  0  0  0  0  0
   59.6871   69.7186   60.6841 H   0  0  0  0  0  0  0  0  0  0  0  0
   55.2640   65.6677   61.5353 H   0  0  0  0  0  0  0  0  0  0  0  0
   55.9275   66.0756   58.1977 H   0  0  0  0  0  0  0  0  0  0  0  0
   60.4200   66.6153   58.8097 H   0  0  0  0  0  0  0  0  0  0  0  0
   60.6937   68.7303   62.5411 H   0  0  0  0  0  0  0  0  0  0  0  0
  1  2  1  0
  1  7  1  0
  1 11  1  0
  2  3  1  0
  2  8  1  0
  3  4  1  0
  3  9  1  0
  4  5  1  0
  4 10  1  0
  5  6  1  0
  5 11  1  0
  6 12  1  0
  1 13  1  1
  2 14  1  6
  3 15  1  1
  4 16  1  6
  5 17  1  1
  6 18  1  0
  6 19  1  0
  8 20  1  0
  9 21  1  0
 10 22  1  0
 12 23  1  0
M  END
>  <filename_input>  (4) 
7DKT_GLF_docked.sdf

>  <pdb_id>  (4) 
7DKT_GLF

>  <pose_rank>  (4) 
3

>  <num_atoms_heavy>  (4) 
12

>  <num_torsions>  (4) 
1

>  <pose>  (4) 
[57.24462877703941, 66.90653792224344, 61.78529814947811, 5.787976794047948, 1.0226842746850158, 2.1522453868230262, 0.19050658125412565]

>  <energy>  (4) 
-716.32678277015

>  <inter_energy>  (4) 
-723.946156128963

>  <intra_energy>  (4) 
0.0

>  <rmsd>  (4) 
0.154468

>  <sdf_rank>  (4) 
0

$$$$

     RDKit          3D

 23 23  0  0  0  0  0  0  0  0999 V2000
   58.6765   66.5840   58.8759 C   0  0  1  0  0  0  0  0  0  0  0  0
   57.8736   65.5494   59.6558 C   0  0  1  0  0  0  0  0  0  0  0  0
   56.9796   66.2450   60.6919 C   0  0  2  0  0  0  0  0  0  0  0  0
   57.8591   67.0604   61.6274 C   0  0  1  0  0  0  0  0  0  0  0  0
   58.7622   68.0155   60.8397 C   0  0  1  0  0  0  0  0  0  0  0  0
   59.7703   68.7035   61.7461 C   0  0  0  0  0  0  0  0  0  0  0  0
   57.8164   67.3853   58.1823 F   0  0  0  0  0  0  0  0  0  0  0  0
   57.1087   64.7467   58.7516 O   0  0  0  0  0  0  0  0  0  0  0  0
   56.2517   65.3008   61.4806 O   0  0  0  0  0  0  0  0  0  0  0  0
   57.0503   67.7941   62.5543 O   0  0  0  0  0  0  0  0  0  0  0  0
   59.4623   67.3563   59.7666 O   0  0  0  0  0  0  0  0  0  0  0  0
   60.7579   69.3896   60.9598 O   0  0  0  0  0  0  0  0  0  0  0  0
   59.3499   66.0770   58.1692 H   0  0  0  0  0  0  0  0  0  0  0  0
   58.5604   64.8853   60.2012 H   0  0  0  0  0  0  0  0  0  0  0  0
   56.2629   66.8803   60.1508 H   0  0  0  0  0  0  0  0  0  0  0  0
   58.5017   66.3646   62.1867 H   0  0  0  0  0  0  0  0  0  0  0  0
   58.0912   68.7689   60.4014 H   0  0  0  0  0  0  0  0  0  0  0  0
   59.2472   69.4293   62.3862 H   0  0  0  0  0  0  0  0  0  0  0  0
   60.2696   67.9457   62.3677 H   0  0  0  0  0  0  0  0  0  0  0  0
   56.5253   64.1345   59.2664 H   0  0  0  0  0  0  0  0  0  0  0  0
   56.3981   65.4907   62.4412 H   0  0  0  0  0  0  0  0  0  0  0  0
   57.3113   67.5573   63.4794 H   0  0  0  0  0  0  0  0  0  0  0  0
   61.4042   69.8386   61.5604 H   0  0  0  0  0  0  0  0  0  0  0  0
  1  2  1  0
  1  7  1  0
  1 11  1  0
  2  3  1  0
  2  8  1  0
  3  4  1  0
  3  9  1  0
  4  5  1  0
  4 10  1  0
  5  6  1  0
  5 11  1  0
  6 12  1  0
  1 13  1  6
  2 14  1  1
  3 15  1  6
  4 16  1  1
  5 17  1  6
  6 18  1  0
  6 19  1  0
  8 20  1  0
  9 21  1  0
 10 22  1  0
 12 23  1  0
M  END
>  <filename_input>  (5) 
7DKT_GLF_docked.sdf

>  <pdb_id>  (5) 
7DKT_GLF

>  <pose_rank>  (5) 
4

>  <num_atoms_heavy>  (5) 
12

>  <num_torsions>  (5) 
1

>  <pose>  (5) 
[58.67653157098675, 66.58395499082945, 58.87594840228764, 2.1342936222282782, 1.9126733976139256, 0.9050574355655383, -0.3803162196690897]

>  <energy>  (5) 
-510.0816751855688

>  <inter_energy>  (5) 
-490.5979536580214

>  <intra_energy>  (5) 
0.0

>  <rmsd>  (5) 
2.81358

>  <sdf_rank>  (5) 
0

$$$$

     RDKit          3D

 23 23  0  0  0  0  0  0  0  0999 V2000
   57.4792   67.1831   62.1670 C   0  0  1  0  0  0  0  0  0  0  0  0
   56.4717   66.3026   61.4370 C   0  0  1  0  0  0  0  0  0  0  0  0
   57.2033   65.2793   60.5570 C   0  0  2  0  0  0  0  0  0  0  0  0
   58.0822   66.0270   59.5660 C   0  0  1  0  0  0  0  0  0  0  0  0
   59.0118   67.0088   60.2871 C   0  0  1  0  0  0  0  0  0  0  0  0
   59.7643   67.8890   59.3023 C   0  0  0  0  0  0  0  0  0  0  0  0
   58.2275   66.4055   63.0027 F   0  0  0  0  0  0  0  0  0  0  0  0
   55.6092   65.6647   62.3838 O   0  0  0  0  0  0  0  0  0  0  0  0
   56.2879   64.4712   59.8139 O   0  0  0  0  0  0  0  0  0  0  0  0
   58.8478   65.1013   58.7858 O   0  0  0  0  0  0  0  0  0  0  0  0
   58.3110   67.8437   61.2295 O   0  0  0  0  0  0  0  0  0  0  0  0
   60.8124   68.6045   59.9761 O   0  0  0  0  0  0  0  0  0  0  0  0
   56.9489   67.9445   62.7577 H   0  0  0  0  0  0  0  0  0  0  0  0
   55.8496   66.9248   60.7768 H   0  0  0  0  0  0  0  0  0  0  0  0
   57.7964   64.6273   61.2151 H   0  0  0  0  0  0  0  0  0  0  0  0
   57.4282   66.6040   58.8956 H   0  0  0  0  0  0  0  0  0  0  0  0
   59.7290   66.3879   60.8441 H   0  0  0  0  0  0  0  0  0  0  0  0
   60.2029   67.2596   58.5140 H   0  0  0  0  0  0  0  0  0  0  0  0
   59.0636   68.6121   58.8594 H   0  0  0  0  0  0  0  0  0  0  0  0
   55.9069   65.8849   63.3019 H   0  0  0  0  0  0  0  0  0  0  0  0
   55.7128   63.9634   60.4397 H   0  0  0  0  0  0  0  0  0  0  0  0
   59.3482   64.4963   59.3888 H   0  0  0  0  0  0  0  0  0  0  0  0
   60.6915   68.5220   60.9552 H   0  0  0  0  0  0  0  0  0  0  0  0
  1  2  1  0
  1  7  1  0
  1 11  1  0
  2  3  1  0
  2  8  1  0
  3  4  1  0
  3  9  1  0
  4  5  1  0
  4 10  1  0
  5  6  1  0
  5 11  1  0
  6 12  1  0
  1 13  1  1
  2 14  1  6
  3 15  1  1
  4 16  1  6
  5 17  1  1
  6 18  1  0
  6 19  1  0
  8 20  1  0
  9 21  1  0
 10 22  1  0
 12 23  1  0
M  END
>  <filename_input>  (6) 
7DKT_GLF_docked.sdf

>  <pdb_id>  (6) 
7DKT_GLF

>  <pose_rank>  (6) 
5

>  <num_atoms_heavy>  (6) 
12

>  <num_torsions>  (6) 
1

>  <pose>  (6) 
[57.479217482694644, 67.18308736473527, 62.16696995896441, -6.358069491841483, 2.8756290788338186, 0.5516041731252777, 0.010253891136713152]

>  <energy>  (6) 
-470.0475953998645

>  <inter_energy>  (6) 
-473.62575658041686

>  <intra_energy>  (6) 
0.0

>  <rmsd>  (6) 
1.52289

>  <sdf_rank>  (6) 
0

$$$$

     RDKit          3D

 23 23  0  0  0  0  0  0  0  0999 V2000
   57.2153   66.9669   62.0839 C   0  0  1  0  0  0  0  0  0  0  0  0
   56.3450   66.8256   60.8406 C   0  0  1  0  0  0  0  0  0  0  0  0
   57.2042   66.4114   59.6378 C   0  0  2  0  0  0  0  0  0  0  0  0
   58.2829   67.4620   59.4230 C   0  0  1  0  0  0  0  0  0  0  0  0
   59.0817   67.7007   60.7088 C   0  0  1  0  0  0  0  0  0  0  0  0
   60.0394   68.8720   60.5602 C   0  0  0  0  0  0  0  0  0  0  0  0
   57.7608   65.7529   62.3864 F   0  0  0  0  0  0  0  0  0  0  0  0
   55.2943   65.8865   61.0880 O   0  0  0  0  0  0  0  0  0  0  0  0
   56.4289   66.3228   58.4401 O   0  0  0  0  0  0  0  0  0  0  0  0
   59.1588   67.0635   58.3620 O   0  0  0  0  0  0  0  0  0  0  0  0
   58.2347   67.9233   61.8531 O   0  0  0  0  0  0  0  0  0  0  0  0
   61.1621   68.7104   61.4422 O   0  0  0  0  0  0  0  0  0  0  0  0
   56.6023   67.3103   62.9303 H   0  0  0  0  0  0  0  0  0  0  0  0
   55.8839   67.7954   60.6020 H   0  0  0  0  0  0  0  0  0  0  0  0
   57.6363   65.4230   59.8528 H   0  0  0  0  0  0  0  0  0  0  0  0
   57.7913   68.4059   59.1450 H   0  0  0  0  0  0  0  0  0  0  0  0
   59.6563   66.7784   60.8799 H   0  0  0  0  0  0  0  0  0  0  0  0
   60.3975   68.9189   59.5212 H   0  0  0  0  0  0  0  0  0  0  0  0
   59.5116   69.8020   60.8181 H   0  0  0  0  0  0  0  0  0  0  0  0
   55.1723   65.7774   62.0644 H   0  0  0  0  0  0  0  0  0  0  0  0
   55.4730   66.2134   58.6731 H   0  0  0  0  0  0  0  0  0  0  0  0
   59.9899   66.6853   58.7446 H   0  0  0  0  0  0  0  0  0  0  0  0
   60.8528   68.7549   62.3816 H   0  0  0  0  0  0  0  0  0  0  0  0
  1  2  1  0
  1  7  1  0
  1 11  1  0
  2  3  1  0
  2  8  1  0
  3  4  1  0
  3  9  1  0
  4  5  1  0
  4 10  1  0
  5  6  1  0
  5 11  1  0
  6 12  1  0
  1 13  1  1
  2 14  1  6
  3 15  1  1
  4 16  1  6
  5 17  1  1
  6 18  1  0
  6 19  1  0
  8 20  1  0
  9 21  1  0
 10 22  1  0
 12 23  1  0
M  END
>  <filename_input>  (7) 
7DKT_GLF_docked.sdf

>  <pdb_id>  (7) 
7DKT_GLF

>  <pose_rank>  (7) 
6

>  <num_atoms_heavy>  (7) 
12

>  <num_torsions>  (7) 
1

>  <pose>  (7) 
[57.21527399235413, 66.96692651186483, 62.083916741411414, 0.6114388067923968, -6.135099253596859, -0.013446814072122597, 6.563666060085671]

>  <energy>  (7) 
-644.4482217150736

>  <inter_energy>  (7) 
-636.1753331243362

>  <intra_energy>  (7) 
0.0

>  <rmsd>  (7) 
0.414043

>  <sdf_rank>  (7) 
0

$$$$

     RDKit          3D

 23 23  0  0  0  0  0  0  0  0999 V2000
   58.7542   67.3986   61.6317 C   0  0  1  0  0  0  0  0  0  0  0  0
   59.2753   67.2962   60.2030 C   0  0  1  0  0  0  0  0  0  0  0  0
   58.1076   67.0934   59.2273 C   0  0  2  0  0  0  0  0  0  0  0  0
   57.3580   65.8290   59.6186 C   0  0  1  0  0  0  0  0  0  0  0  0
   56.9406   65.8712   61.0925 C   0  0  1  0  0  0  0  0  0  0  0  0
   56.3525   64.5437   61.5430 C   0  0  0  0  0  0  0  0  0  0  0  0
   57.9547   68.4998   61.7367 F   0  0  0  0  0  0  0  0  0  0  0  0
   60.0374   68.4632   59.8798 O   0  0  0  0  0  0  0  0  0  0  0  0
   58.5642   66.9379   57.8817 O   0  0  0  0  0  0  0  0  0  0  0  0
   56.2080   65.6557   58.7824 O   0  0  0  0  0  0  0  0  0  0  0  0
   58.0297   66.2279   61.9659 O   0  0  0  0  0  0  0  0  0  0  0  0
   57.3443   63.5075   61.4598 O   0  0  0  0  0  0  0  0  0  0  0  0
   59.5988   67.4954   62.3298 H   0  0  0  0  0  0  0  0  0  0  0  0
   59.9382   66.4229   60.1147 H   0  0  0  0  0  0  0  0  0  0  0  0
   57.4616   67.9821   59.2807 H   0  0  0  0  0  0  0  0  0  0  0  0
   58.0340   64.9727   59.4784 H   0  0  0  0  0  0  0  0  0  0  0  0
   56.1715   66.6544   61.1635 H   0  0  0  0  0  0  0  0  0  0  0  0
   56.0075   64.6336   62.5836 H   0  0  0  0  0  0  0  0  0  0  0  0
   55.5074   64.2849   60.8881 H   0  0  0  0  0  0  0  0  0  0  0  0
   60.3285   68.9089   60.7145 H   0  0  0  0  0  0  0  0  0  0  0  0
   59.5013   66.6188   57.8860 H   0  0  0  0  0  0  0  0  0  0  0  0
   55.4042   65.5345   59.3476 H   0  0  0  0  0  0  0  0  0  0  0  0
   57.6095   63.2304   62.3725 H   0  0  0  0  0  0  0  0  0  0  0  0
  1  2  1  0
  1  7  1  0
  1 11  1  0
  2  3  1  0
  2  8  1  0
  3  4  1  0
  3  9  1  0
  4  5  1  0
  4 10  1  0
  5  6  1  0
  5 11  1  0
  6 12  1  0
  1 13  1  1
  2 14  1  1
  3 15  1  6
  4 16  1  1
  5 17  1  6
  6 18  1  0
  6 19  1  0
  8 20  1  0
  9 21  1  0
 10 22  1  0
 12 23  1  0
M  END
>  <filename_input>  (8) 
7DKT_GLF_docked.sdf

>  <pdb_id>  (8) 
7DKT_GLF

>  <pose_rank>  (8) 
7

>  <num_atoms_heavy>  (8) 
12

>  <num_torsions>  (8) 
1

>  <pose>  (8) 
[58.75424365755278, 67.39855126871042, 61.63167333584549, 0.23727818752279695, 0.4898624712872007, 3.3725096345538357, 4.058949062758182]

>  <energy>  (8) 
-492.2214903716214

>  <inter_energy>  (8) 
-482.61448149002206

>  <intra_energy>  (8) 
0.0

>  <rmsd>  (8) 
3.59665

>  <sdf_rank>  (8) 
0

$$$$

     RDKit          3D

 23 23  0  0  0  0  0  0  0  0999 V2000
   59.4576   67.4300   61.8783 C   0  0  1  0  0  0  0  0  0  0  0  0
   59.5077   67.3326   60.3581 C   0  0  1  0  0  0  0  0  0  0  0  0
   58.0861   67.2324   59.7873 C   0  0  2  0  0  0  0  0  0  0  0  0
   57.4057   66.0093   60.3828 C   0  0  1  0  0  0  0  0  0  0  0  0
   57.4637   66.0387   61.9139 C   0  0  1  0  0  0  0  0  0  0  0  0
   56.9503   64.7405   62.5157 C   0  0  0  0  0  0  0  0  0  0  0  0
   58.8079   68.5777   62.2302 F   0  0  0  0  0  0  0  0  0  0  0  0
   60.2140   68.4560   59.8229 O   0  0  0  0  0  0  0  0  0  0  0  0
   58.0967   67.0839   58.3656 O   0  0  0  0  0  0  0  0  0  0  0  0
   56.0457   65.9335   59.9395 O   0  0  0  0  0  0  0  0  0  0  0  0
   58.7901   66.3004   62.4124 O   0  0  0  0  0  0  0  0  0  0  0  0
   55.6162   64.4727   62.0544 O   0  0  0  0  0  0  0  0  0  0  0  0
   60.4799   67.4530   62.2837 H   0  0  0  0  0  0  0  0  0  0  0  0
   60.0489   66.4208   60.0654 H   0  0  0  0  0  0  0  0  0  0  0  0
   57.5514   68.1594   60.0417 H   0  0  0  0  0  0  0  0  0  0  0  0
   57.9446   65.1150   60.0368 H   0  0  0  0  0  0  0  0  0  0  0  0
   56.8101   66.8680   62.2223 H   0  0  0  0  0  0  0  0  0  0  0  0
   57.6113   63.9143   62.2151 H   0  0  0  0  0  0  0  0  0  0  0  0
   56.9391   64.8330   63.6118 H   0  0  0  0  0  0  0  0  0  0  0  0
   60.5628   69.0106   60.5651 H   0  0  0  0  0  0  0  0  0  0  0  0
   58.1653   66.1237   58.1346 H   0  0  0  0  0  0  0  0  0  0  0  0
   55.4440   65.9000   60.7249 H   0  0  0  0  0  0  0  0  0  0  0  0
   55.0160   64.3523   62.8324 H   0  0  0  0  0  0  0  0  0  0  0  0
  1  2  1  0
  1  7  1  0
  1 11  1  0
  2  3  1  0
  2  8  1  0
  3  4  1  0
  3  9  1  0
  4  5  1  0
  4 10  1  0
  5  6  1  0
  5 11  1  0
  6 12  1  0
  1 13  1  1
  2 14  1  1
  3 15  1  6
  4 16  1  6
  5 17  1  1
  6 18  1  0
  6 19  1  0
  8 20  1  0
  9 21  1  0
 10 22  1  0
 12 23  1  0
M  END
>  <filename_input>  (9) 
7DKT_GLF_docked.sdf

>  <pdb_id>  (9) 
7DKT_GLF

>  <pose_rank>  (9) 
8

>  <num_atoms_heavy>  (9) 
12

>  <num_torsions>  (9) 
1

>  <pose>  (9) 
[59.457616284676575, 67.43004879535943, 61.87829562912588, 0.7640505991124509, 0.3709141462231743, 3.2827783479112833, 1.9710773452669996]

>  <energy>  (9) 
-399.0407269372664

>  <inter_energy>  (9) 
-421.16503569213944

>  <intra_energy>  (9) 
18.91257257088885

>  <rmsd>  (9) 
3.72116

>  <sdf_rank>  (9) 
0

$$$$

     RDKit          3D

 23 23  0  0  0  0  0  0  0  0999 V2000
   56.9718   66.5729   61.7646 C   0  0  1  0  0  0  0  0  0  0  0  0
   56.2985   66.4746   60.4008 C   0  0  1  0  0  0  0  0  0  0  0  0
   57.3425   66.1753   59.3158 C   0  0  2  0  0  0  0  0  0  0  0  0
   58.3854   67.2825   59.3226 C   0  0  1  0  0  0  0  0  0  0  0  0
   58.9769   67.4721   60.7235 C   0  0  1  0  0  0  0  0  0  0  0  0
   59.8844   68.6902   60.7848 C   0  0  0  0  0  0  0  0  0  0  0  0
   57.5298   65.3663   62.0742 F   0  0  0  0  0  0  0  0  0  0  0  0
   55.2729   65.4776   60.4367 O   0  0  0  0  0  0  0  0  0  0  0  0
   56.7538   66.1306   58.0139 O   0  0  0  0  0  0  0  0  0  0  0  0
   59.4246   66.9904   58.3811 O   0  0  0  0  0  0  0  0  0  0  0  0
   57.9632   67.5846   61.7415 O   0  0  0  0  0  0  0  0  0  0  0  0
   60.9091   68.4967   61.7731 O   0  0  0  0  0  0  0  0  0  0  0  0
   56.2262   66.8349   62.5298 H   0  0  0  0  0  0  0  0  0  0  0  0
   55.8274   67.4371   60.1527 H   0  0  0  0  0  0  0  0  0  0  0  0
   57.7894   65.1944   59.5353 H   0  0  0  0  0  0  0  0  0  0  0  0
   57.8911   68.2205   59.0297 H   0  0  0  0  0  0  0  0  0  0  0  0
   59.5674   66.5661   60.9243 H   0  0  0  0  0  0  0  0  0  0  0  0
   60.3526   68.8442   59.8014 H   0  0  0  0  0  0  0  0  0  0  0  0
   59.2847   69.5711   61.0575 H   0  0  0  0  0  0  0  0  0  0  0  0
   55.0532   65.2640   61.3781 H   0  0  0  0  0  0  0  0  0  0  0  0
   55.7703   66.0560   58.0989 H   0  0  0  0  0  0  0  0  0  0  0  0
   60.2547   66.7571   58.8675 H   0  0  0  0  0  0  0  0  0  0  0  0
   60.5135   68.5714   62.6776 H   0  0  0  0  0  0  0  0  0  0  0  0
  1  2  1  0
  1  7  1  0
  1 11  1  0
  2  3  1  0
  2  8  1  0
  3  4  1  0
  3  9  1  0
  4  5  1  0
  4 10  1  0
  5  6  1  0
  5 11  1  0
  6 12  1  0
  1 13  1  1
  2 14  1  6
  3 15  1  1
  4 16  1  6
  5 17  1  1
  6 18  1  0
  6 19  1  0
  8 20  1  0
  9 21  1  0
 10 22  1  0
 12 23  1  0
M  END
>  <filename_input>  (10) 
7DKT_GLF_docked.sdf

>  <pdb_id>  (10) 
7DKT_GLF

>  <pose_rank>  (10) 
9

>  <num_atoms_heavy>  (10) 
12

>  <num_torsions>  (10) 
1

>  <pose>  (10) 
[56.97178938281804, 66.57285932669105, 61.76463859796046, -3.8661634858311764, 2.4767269432930217, -4.179398928620963, 0.3225671113877925]

>  <energy>  (10) 
-716.1944929621042

>  <inter_energy>  (10) 
-714.9086770145134

>  <intra_energy>  (10) 
0.0

>  <rmsd>  (10) 
0.329317

>  <sdf_rank>  (10) 
0

$$$$

     RDKit          3D

 23 23  0  0  0  0  0  0  0  0999 V2000
   57.3508   67.1048   61.9623 C   0  0  1  0  0  0  0  0  0  0  0  0
   56.7300   66.5757   60.6747 C   0  0  1  0  0  0  0  0  0  0  0  0
   57.8283   66.0882   59.7193 C   0  0  2  0  0  0  0  0  0  0  0  0
   58.7703   67.2460   59.4264 C   0  0  1  0  0  0  0  0  0  0  0  0
   59.3005   67.8652   60.7240 C   0  0  1  0  0  0  0  0  0  0  0  0
   60.0964   69.1317   60.4522 C   0  0  0  0  0  0  0  0  0  0  0  0
   58.0020   66.0856   62.5948 F   0  0  0  0  0  0  0  0  0  0  0  0
   55.7944   65.5367   60.9785 O   0  0  0  0  0  0  0  0  0  0  0  0
   57.2853   65.6351   58.4771 O   0  0  0  0  0  0  0  0  0  0  0  0
   59.8589   66.8042   58.6069 O   0  0  0  0  0  0  0  0  0  0  0  0
   58.2507   68.1583   61.6665 O   0  0  0  0  0  0  0  0  0  0  0  0
   60.9460   69.4338   61.5707 O   0  0  0  0  0  0  0  0  0  0  0  0
   56.5625   67.4965   62.6220 H   0  0  0  0  0  0  0  0  0  0  0  0
   56.1846   67.3861   60.1690 H   0  0  0  0  0  0  0  0  0  0  0  0
   58.3520   65.2502   60.2025 H   0  0  0  0  0  0  0  0  0  0  0  0
   58.2053   68.0185   58.8841 H   0  0  0  0  0  0  0  0  0  0  0  0
   59.9613   67.1070   61.1694 H   0  0  0  0  0  0  0  0  0  0  0  0
   60.7155   68.9861   59.5546 H   0  0  0  0  0  0  0  0  0  0  0  0
   59.3985   69.9674   60.2957 H   0  0  0  0  0  0  0  0  0  0  0  0
   55.7112   65.4443   61.9607 H   0  0  0  0  0  0  0  0  0  0  0  0
   56.5371   65.0108   58.6521 H   0  0  0  0  0  0  0  0  0  0  0  0
   60.6045   66.5017   59.1836 H   0  0  0  0  0  0  0  0  0  0  0  0
   60.4565   69.2597   62.4134 H   0  0  0  0  0  0  0  0  0  0  0  0
  1  2  1  0
  1  7  1  0
  1 11  1  0
  2  3  1  0
  2  8  1  0
  3  4  1  0
  3  9  1  0
  4  5  1  0
  4 10  1  0
  5  6  1  0
  5 11  1  0
  6 12  1  0
  1 13  1  1
  2 14  1  6
  3 15  1  1
  4 16  1  6
  5 17  1  1
  6 18  1  0
  6 19  1  0
  8 20  1  0
  9 21  1  0
 10 22  1  0
 12 23  1  0
M  END
>  <filename_input>  (11) 
7DKT_GLF_docked.sdf

>  <pdb_id>  (11) 
7DKT_GLF

>  <pose_rank>  (11) 
10

>  <num_atoms_heavy>  (11) 
12

>  <num_torsions>  (11) 
1

>  <pose>  (11) 
[57.3507943002345, 67.10483405229492, 61.962259807496885, -0.23122473563253154, -0.038213847064984485, 0.14489462648531096, 6.436336264816332]

>  <energy>  (11) 
-649.2873087022374

>  <inter_energy>  (11) 
-644.1452647734448

>  <intra_energy>  (11) 
0.0

>  <rmsd>  (11) 
0.492834

>  <sdf_rank>  (11) 
0

$$$$

     RDKit          3D

 23 23  0  0  0  0  0  0  0  0999 V2000
   50.1841   69.3195   66.2834 C   0  0  1  0  0  0  0  0  0  0  0  0
   49.3484   69.2954   65.0090 C   0  0  1  0  0  0  0  0  0  0  0  0
   50.2305   68.9377   63.8046 C   0  0  2  0  0  0  0  0  0  0  0  0
   51.3483   69.9635   63.6958 C   0  0  1  0  0  0  0  0  0  0  0  0
   52.1144   70.0841   65.0175 C   0  0  1  0  0  0  0  0  0  0  0  0
   53.1131   71.2297   64.9799 C   0  0  0  0  0  0  0  0  0  0  0  0
   50.6811   68.0693   66.5141 F   0  0  0  0  0  0  0  0  0  0  0  0
   48.2612   68.3775   65.1591 O   0  0  0  0  0  0  0  0  0  0  0  0
   49.4899   68.9597   62.5821 O   0  0  0  0  0  0  0  0  0  0  0  0
   52.2431   69.6108   62.6344 O   0  0  0  0  0  0  0  0  0  0  0  0
   51.2401   70.2544   66.1502 O   0  0  0  0  0  0  0  0  0  0  0  0
   53.6782   71.4387   66.2842 O   0  0  0  0  0  0  0  0  0  0  0  0
   49.5567   69.6232   67.1343 H   0  0  0  0  0  0  0  0  0  0  0  0
   48.9260   70.2946   64.8270 H   0  0  0  0  0  0  0  0  0  0  0  0
   50.6240   67.9225   63.9610 H   0  0  0  0  0  0  0  0  0  0  0  0
   50.8958   70.9407   63.4718 H   0  0  0  0  0  0  0  0  0  0  0  0
   52.6537   69.1331   65.1388 H   0  0  0  0  0  0  0  0  0  0  0  0
   53.9176   70.9871   64.2700 H   0  0  0  0  0  0  0  0  0  0  0  0
   52.5953   72.1467   64.6620 H   0  0  0  0  0  0  0  0  0  0  0  0
   48.0852   68.2289   66.1219 H   0  0  0  0  0  0  0  0  0  0  0  0
   48.5211   68.9885   62.7837 H   0  0  0  0  0  0  0  0  0  0  0  0
   53.0928   69.2760   63.0167 H   0  0  0  0  0  0  0  0  0  0  0  0
   53.0133   71.1928   66.9752 H   0  0  0  0  0  0  0  0  0  0  0  0
  1  2  1  0
  1  7  1  0
  1 11  1  0
  2  3  1  0
  2  8  1  0
  3  4  1  0
  3  9  1  0
  4  5  1  0
  4 10  1  0
  5  6  1  0
  5 11  1  0
  6 12  1  0
  1 13  1  1
  2 14  1  6
  3 15  1  1
  4 16  1  6
  5 17  1  1
  6 18  1  0
  6 19  1  0
  8 20  1  0
  9 21  1  0
 10 22  1  0
 12 23  1  0
M  END
>  <filename_input>  (12) 
7DKT_GLF_docked.sdf

>  <pdb_id>  (12) 
7DKT_GLF

>  <pose_rank>  (12) 
11

>  <num_atoms_heavy>  (12) 
12

>  <num_torsions>  (12) 
1

>  <pose>  (12) 
[50.18413622107684, 69.31945560045527, 66.28338861070486, -3.401556337415838, -4.894963576513424, 1.6033262493884284, -0.33137044221088907]

>  <energy>  (12) 
-180.7886740139875

>  <inter_energy>  (12) 
-162.1030246299649

>  <intra_energy>  (12) 
0.0

>  <rmsd>  (12) 
8.85576

>  <sdf_rank>  (12) 
0

$$$$

     RDKit          3D

 23 23  0  0  0  0  0  0  0  0999 V2000
   50.7815   69.1748   69.4986 C   0  0  1  0  0  0  0  0  0  0  0  0
   49.5254   68.8684   68.6916 C   0  0  1  0  0  0  0  0  0  0  0  0
   49.9056   68.3596   67.2940 C   0  0  2  0  0  0  0  0  0  0  0  0
   50.7458   69.4205   66.5997 C   0  0  1  0  0  0  0  0  0  0  0  0
   51.9442   69.8256   67.4645 C   0  0  1  0  0  0  0  0  0  0  0  0
   52.6880   71.0090   66.8665 C   0  0  0  0  0  0  0  0  0  0  0  0
   51.4896   68.0215   69.6762 F   0  0  0  0  0  0  0  0  0  0  0  0
   48.7149   67.9227   69.3959 O   0  0  0  0  0  0  0  0  0  0  0  0
   48.7504   68.1139   66.4887 O   0  0  0  0  0  0  0  0  0  0  0  0
   51.1929   68.9431   65.3253 O   0  0  0  0  0  0  0  0  0  0  0  0
   51.5679   70.1381   68.8199 O   0  0  0  0  0  0  0  0  0  0  0  0
   53.6475   71.5188   67.8065 O   0  0  0  0  0  0  0  0  0  0  0  0
   50.5023   69.5841   70.4807 H   0  0  0  0  0  0  0  0  0  0  0  0
   48.9375   69.7890   68.5620 H   0  0  0  0  0  0  0  0  0  0  0  0
   50.4593   67.4168   67.4143 H   0  0  0  0  0  0  0  0  0  0  0  0
   50.1170   70.3101   66.4475 H   0  0  0  0  0  0  0  0  0  0  0  0
   52.6086   68.9491   67.4850 H   0  0  0  0  0  0  0  0  0  0  0  0
   53.2098   70.6864   65.9535 H   0  0  0  0  0  0  0  0  0  0  0  0
   51.9652   71.8025   66.6257 H   0  0  0  0  0  0  0  0  0  0  0  0
   48.8270   68.0535   70.3708 H   0  0  0  0  0  0  0  0  0  0  0  0
   47.9694   67.9477   67.0740 H   0  0  0  0  0  0  0  0  0  0  0  0
   51.8635   68.2271   65.4579 H   0  0  0  0  0  0  0  0  0  0  0  0
   53.3286   71.3494   68.7283 H   0  0  0  0  0  0  0  0  0  0  0  0
  1  2  1  0
  1  7  1  0
  1 11  1  0
  2  3  1  0
  2  8  1  0
  3  4  1  0
  3  9  1  0
  4  5  1  0
  4 10  1  0
  5  6  1  0
  5 11  1  0
  6 12  1  0
  1 13  1  1
  2 14  1  6
  3 15  1  1
  4 16  1  6
  5 17  1  1
  6 18  1  0
  6 19  1  0
  8 20  1  0
  9 21  1  0
 10 22  1  0
 12 23  1  0
M  END
>  <filename_input>  (13) 
7DKT_GLF_docked.sdf

>  <pdb_id>  (13) 
7DKT_GLF

>  <pose_rank>  (13) 
12

>  <num_atoms_heavy>  (13) 
12

>  <num_torsions>  (13) 
1

>  <pose>  (13) 
[50.78151424636432, 69.17481331146838, 69.49861468457152, 1.2773634546370505, -5.590621402501121, -0.6078614199277153, -0.37202842195763763]

>  <energy>  (13) 
-99.07238312515108

>  <inter_energy>  (13) 
-103.6151116145628

>  <intra_energy>  (13) 
0.0

>  <rmsd>  (13) 
10.6739

>  <sdf_rank>  (13) 
0

$$$$

     RDKit          3D

 23 23  0  0  0  0  0  0  0  0999 V2000
   56.0720   73.8778   51.2338 C   0  0  1  0  0  0  0  0  0  0  0  0
   55.5069   73.8950   52.6492 C   0  0  1  0  0  0  0  0  0  0  0  0
   56.0483   75.1069   53.4203 C   0  0  2  0  0  0  0  0  0  0  0  0
   57.5672   75.0295   53.4482 C   0  0  1  0  0  0  0  0  0  0  0  0
   58.1364   74.8843   52.0328 C   0  0  1  0  0  0  0  0  0  0  0  0
   59.6341   74.6248   52.0587 C   0  0  0  0  0  0  0  0  0  0  0  0
   55.6459   74.9919   50.5702 F   0  0  0  0  0  0  0  0  0  0  0  0
   54.0769   73.8953   52.6007 O   0  0  0  0  0  0  0  0  0  0  0  0
   55.5819   75.1251   54.7714 O   0  0  0  0  0  0  0  0  0  0  0  0
   58.1112   76.1918   54.0845 O   0  0  0  0  0  0  0  0  0  0  0  0
   57.4875   73.8410   51.2799 O   0  0  0  0  0  0  0  0  0  0  0  0
   59.9711   73.5702   51.1430 O   0  0  0  0  0  0  0  0  0  0  0  0
   55.7185   72.9817   50.7027 H   0  0  0  0  0  0  0  0  0  0  0  0
   55.8279   72.9893   53.1847 H   0  0  0  0  0  0  0  0  0  0  0  0
   55.6969   76.0175   52.9130 H   0  0  0  0  0  0  0  0  0  0  0  0
   57.8542   74.1385   54.0259 H   0  0  0  0  0  0  0  0  0  0  0  0
   57.9404   75.8436   51.5315 H   0  0  0  0  0  0  0  0  0  0  0  0
   60.1668   75.5423   51.7681 H   0  0  0  0  0  0  0  0  0  0  0  0
   59.9288   74.3252   53.0753 H   0  0  0  0  0  0  0  0  0  0  0  0
   53.7155   73.8954   53.5224 H   0  0  0  0  0  0  0  0  0  0  0  0
   56.3557   75.0950   55.3881 H   0  0  0  0  0  0  0  0  0  0  0  0
   58.0607   76.0840   55.0673 H   0  0  0  0  0  0  0  0  0  0  0  0
   60.2297   72.7613   51.6520 H   0  0  0  0  0  0  0  0  0  0  0  0
  1  2  1  0
  1  7  1  0
  1 11  1  0
  2  3  1  0
  2  8  1  0
  3  4  1  0
  3  9  1  0
  4  5  1  0
  4 10  1  0
  5  6  1  0
  5 11  1  0
  6 12  1  0
  1 13  1  6
  2 14  1  1
  3 15  1  6
  4 16  1  1
  5 17  1  6
  6 18  1  0
  6 19  1  0
  8 20  1  0
  9 21  1  0
 10 22  1  0
 12 23  1  0
M  END
>  <filename_input>  (14) 
7DKT_GLF_docked.sdf

>  <pdb_id>  (14) 
7DKT_GLF

>  <pose_rank>  (14) 
13

>  <num_atoms_heavy>  (14) 
12

>  <num_torsions>  (14) 
1

>  <pose>  (14) 
[56.0720121476845, 73.87781203274733, 51.23379340771267, 2.7114052565771125, 0.9965043014519653, -0.2033468629147043, -0.9734402511553492]

>  <energy>  (14) 
-160.50895364276556

>  <inter_energy>  (14) 
-143.8575208885807

>  <intra_energy>  (14) 
0.0

>  <rmsd>  (14) 
11.5049

>  <sdf_rank>  (14) 
0

$$$$

     RDKit          3D

 23 23  0  0  0  0  0  0  0  0999 V2000
   51.1328   68.9406   67.3845 C   0  0  1  0  0  0  0  0  0  0  0  0
   49.9803   68.9602   66.3873 C   0  0  1  0  0  0  0  0  0  0  0  0
   50.4958   69.3331   64.9902 C   0  0  2  0  0  0  0  0  0  0  0  0
   51.1662   70.6964   65.0646 C   0  0  1  0  0  0  0  0  0  0  0  0
   52.2427   70.7209   66.1550 C   0  0  1  0  0  0  0  0  0  0  0  0
   52.7933   72.1227   66.3627 C   0  0  0  0  0  0  0  0  0  0  0  0
   52.0220   67.9717   67.0190 F   0  0  0  0  0  0  0  0  0  0  0  0
   49.3188   67.6915   66.3853 O   0  0  0  0  0  0  0  0  0  0  0  0
   49.4321   69.4151   64.0389 O   0  0  0  0  0  0  0  0  0  0  0  0
   51.7375   71.0378   63.7962 O   0  0  0  0  0  0  0  0  0  0  0  0
   51.7665   70.2074   67.4143 O   0  0  0  0  0  0  0  0  0  0  0  0
   53.5028   72.1977   67.6098 O   0  0  0  0  0  0  0  0  0  0  0  0
   50.7497   68.7202   68.3918 H   0  0  0  0  0  0  0  0  0  0  0  0
   49.2476   69.7242   66.6865 H   0  0  0  0  0  0  0  0  0  0  0  0
   51.1990   68.5513   64.6674 H   0  0  0  0  0  0  0  0  0  0  0  0
   50.3995   71.4415   65.3234 H   0  0  0  0  0  0  0  0  0  0  0  0
   53.0471   70.0619   65.7964 H   0  0  0  0  0  0  0  0  0  0  0  0
   53.4794   72.3692   65.5390 H   0  0  0  0  0  0  0  0  0  0  0  0
   51.9573   72.8373   66.3820 H   0  0  0  0  0  0  0  0  0  0  0  0
   49.1657   67.3977   67.3182 H   0  0  0  0  0  0  0  0  0  0  0  0
   48.5671   69.4817   64.5159 H   0  0  0  0  0  0  0  0  0  0  0  0
   52.5785   71.5405   63.9377 H   0  0  0  0  0  0  0  0  0  0  0  0
   52.8601   72.1297   68.3597 H   0  0  0  0  0  0  0  0  0  0  0  0
  1  2  1  0
  1  7  1  0
  1 11  1  0
  2  3  1  0
  2  8  1  0
  3  4  1  0
  3  9  1  0
  4  5  1  0
  4 10  1  0
  5  6  1  0
  5 11  1  0
  6 12  1  0
  1 13  1  1
  2 14  1  1
  3 15  1  6
  4 16  1  1
  5 17  1  6
  6 18  1  0
  6 19  1  0
  8 20  1  0
  9 21  1  0
 10 22  1  0
 12 23  1  0
M  END
>  <filename_input>  (15) 
7DKT_GLF_docked.sdf

>  <pdb_id>  (15) 
7DKT_GLF

>  <pose_rank>  (15) 
14

>  <num_atoms_heavy>  (15) 
12

>  <num_torsions>  (15) 
1

>  <pose>  (15) 
[51.13279626687866, 68.94062247968141, 67.38447186519251, -3.4632381342205707, -3.2956875367254868, -2.9976055650934725, -0.4718642466897793]

>  <energy>  (15) 
-135.43458358153075

>  <inter_energy>  (15) 
-133.8806110958537

>  <intra_energy>  (15) 
0.0

>  <rmsd>  (15) 
9.41795

>  <sdf_rank>  (15) 
0

$$$$

     RDKit          3D

 23 23  0  0  0  0  0  0  0  0999 V2000
   53.6046   75.5061   53.9843 C   0  0  1  0  0  0  0  0  0  0  0  0
   52.5875   74.8197   53.0801 C   0  0  1  0  0  0  0  0  0  0  0  0
   53.2570   73.6784   52.3018 C   0  0  2  0  0  0  0  0  0  0  0  0
   54.4037   74.2520   51.4835 C   0  0  1  0  0  0  0  0  0  0  0  0
   55.3648   75.0521   52.3692 C   0  0  1  0  0  0  0  0  0  0  0  0
   56.4117   75.7789   51.5404 C   0  0  0  0  0  0  0  0  0  0  0  0
   54.0569   74.6088   54.9081 F   0  0  0  0  0  0  0  0  0  0  0  0
   51.4834   74.3510   53.8602 O   0  0  0  0  0  0  0  0  0  0  0  0
   52.3443   73.0464   51.4012 O   0  0  0  0  0  0  0  0  0  0  0  0
   55.1075   73.2008   50.8116 O   0  0  0  0  0  0  0  0  0  0  0  0
   54.6815   76.0028   53.2092 O   0  0  0  0  0  0  0  0  0  0  0  0
   56.9222   76.9092   52.2657 O   0  0  0  0  0  0  0  0  0  0  0  0
   53.1304   76.3526   54.5025 H   0  0  0  0  0  0  0  0  0  0  0  0
   52.2016   75.5419   52.3456 H   0  0  0  0  0  0  0  0  0  0  0  0
   53.6097   72.9321   53.0288 H   0  0  0  0  0  0  0  0  0  0  0  0
   53.9805   74.9354   50.7327 H   0  0  0  0  0  0  0  0  0  0  0  0
   55.8599   74.3137   53.0170 H   0  0  0  0  0  0  0  0  0  0  0  0
   57.2381   75.0894   51.3133 H   0  0  0  0  0  0  0  0  0  0  0  0
   55.9489   76.1311   50.6067 H   0  0  0  0  0  0  0  0  0  0  0  0
   51.6971   74.4417   54.8225 H   0  0  0  0  0  0  0  0  0  0  0  0
   51.6501   72.5658   51.9182 H   0  0  0  0  0  0  0  0  0  0  0  0
   55.5133   72.5948   51.4811 H   0  0  0  0  0  0  0  0  0  0  0  0
   56.8455   76.7393   53.2380 H   0  0  0  0  0  0  0  0  0  0  0  0
  1  2  1  0
  1  7  1  0
  1 11  1  0
  2  3  1  0
  2  8  1  0
  3  4  1  0
  3  9  1  0
  4  5  1  0
  4 10  1  0
  5  6  1  0
  5 11  1  0
  6 12  1  0
  1 13  1  1
  2 14  1  6
  3 15  1  1
  4 16  1  6
  5 17  1  1
  6 18  1  0
  6 19  1  0
  8 20  1  0
  9 21  1  0
 10 22  1  0
 12 23  1  0
M  END
>  <filename_input>  (16) 
7DKT_GLF_docked.sdf

>  <pdb_id>  (16) 
7DKT_GLF

>  <pose_rank>  (16) 
15

>  <num_atoms_heavy>  (16) 
12

>  <num_torsions>  (16) 
1

>  <pose>  (16) 
[53.60462071558978, 75.50611829557201, 53.98429513473369, 5.179507213928009, -1.65596530326952, 1.4197794859670525, -0.605844174713946]

>  <energy>  (16) 
-138.2879467711533

>  <inter_energy>  (16) 
-118.05135927641766

>  <intra_energy>  (16) 
0.0

>  <rmsd>  (16) 
11.8494

>  <sdf_rank>  (16) 
0

$$$$

     RDKit          3D

 23 23  0  0  0  0  0  0  0  0999 V2000
   65.6133   74.0070   55.6610 C   0  0  1  0  0  0  0  0  0  0  0  0
   66.9191   74.3791   54.9686 C   0  0  1  0  0  0  0  0  0  0  0  0
   66.8107   75.7813   54.3533 C   0  0  2  0  0  0  0  0  0  0  0  0
   65.6550   75.7930   53.3645 C   0  0  1  0  0  0  0  0  0  0  0  0
   64.3629   75.2981   54.0231 C   0  0  1  0  0  0  0  0  0  0  0  0
   63.2463   75.1332   53.0046 C   0  0  0  0  0  0  0  0  0  0  0  0
   65.3916   74.8751   56.6907 F   0  0  0  0  0  0  0  0  0  0  0  0
   68.0031   74.2922   55.8984 O   0  0  0  0  0  0  0  0  0  0  0  0
   68.0002   76.1419   53.6472 O   0  0  0  0  0  0  0  0  0  0  0  0
   65.4686   77.1110   52.8354 O   0  0  0  0  0  0  0  0  0  0  0  0
   64.5439   74.0573   54.7331 O   0  0  0  0  0  0  0  0  0  0  0  0
   62.0827   75.8660   53.4206 O   0  0  0  0  0  0  0  0  0  0  0  0
   65.6808   72.9832   56.0577 H   0  0  0  0  0  0  0  0  0  0  0  0
   67.1165   73.6709   54.1503 H   0  0  0  0  0  0  0  0  0  0  0  0
   66.6536   76.5002   55.1709 H   0  0  0  0  0  0  0  0  0  0  0  0
   65.9029   75.1087   52.5397 H   0  0  0  0  0  0  0  0  0  0  0  0
   64.0819   76.0735   54.7510 H   0  0  0  0  0  0  0  0  0  0  0  0
   63.5853   75.5126   52.0294 H   0  0  0  0  0  0  0  0  0  0  0  0
   62.9889   74.0668   52.9240 H   0  0  0  0  0  0  0  0  0  0  0  0
   67.6485   74.3206   56.8223 H   0  0  0  0  0  0  0  0  0  0  0  0
   68.7160   76.3589   54.2957 H   0  0  0  0  0  0  0  0  0  0  0  0
   65.3773   77.7559   53.5809 H   0  0  0  0  0  0  0  0  0  0  0  0
   62.0440   75.8904   54.4095 H   0  0  0  0  0  0  0  0  0  0  0  0
  1  2  1  0
  1  7  1  0
  1 11  1  0
  2  3  1  0
  2  8  1  0
  3  4  1  0
  3  9  1  0
  4  5  1  0
  4 10  1  0
  5  6  1  0
  5 11  1  0
  6 12  1  0
  1 13  1  1
  2 14  1  6
  3 15  1  1
  4 16  1  6
  5 17  1  1
  6 18  1  0
  6 19  1  0
  8 20  1  0
  9 21  1  0
 10 22  1  0
 12 23  1  0
M  END
>  <filename_input>  (17) 
7DKT_GLF_docked.sdf

>  <pdb_id>  (17) 
7DKT_GLF

>  <pose_rank>  (17) 
16

>  <num_atoms_heavy>  (17) 
12

>  <num_torsions>  (17) 
1

>  <pose>  (17) 
[65.61325272306784, 74.00696932391277, 55.66096525458295, 0.7279915724492376, 1.3333972226843915, -3.311921688570105, 0.7483311532588017]

>  <energy>  (17) 
-136.95900235662063

>  <inter_energy>  (17) 
-114.76559450538984

>  <intra_energy>  (17) 
0.0

>  <rmsd>  (17) 
13.071

>  <sdf_rank>  (17) 
0

$$$$

     RDKit          3D

 23 23  0  0  0  0  0  0  0  0999 V2000
   63.6436   74.9804   51.7330 C   0  0  1  0  0  0  0  0  0  0  0  0
   62.2669   74.4001   52.0349 C   0  0  1  0  0  0  0  0  0  0  0  0
   61.3307   75.5010   52.5527 C   0  0  2  0  0  0  0  0  0  0  0  0
   61.9422   76.1141   53.8032 C   0  0  1  0  0  0  0  0  0  0  0  0
   63.3760   76.5863   53.5393 C   0  0  1  0  0  0  0  0  0  0  0  0
   64.0598   77.0339   54.8212 C   0  0  0  0  0  0  0  0  0  0  0  0
   63.5287   75.9043   50.7349 F   0  0  0  0  0  0  0  0  0  0  0  0
   61.7407   73.7658   50.8653 O   0  0  0  0  0  0  0  0  0  0  0  0
   60.0447   74.9815   52.8987 O   0  0  0  0  0  0  0  0  0  0  0  0
   61.1377   77.2059   54.2643 O   0  0  0  0  0  0  0  0  0  0  0  0
   64.1818   75.5774   52.8997 O   0  0  0  0  0  0  0  0  0  0  0  0
   64.6800   75.9125   55.4708 O   0  0  0  0  0  0  0  0  0  0  0  0
   64.3227   74.1782   51.4086 H   0  0  0  0  0  0  0  0  0  0  0  0
   62.3535   73.6386   52.8239 H   0  0  0  0  0  0  0  0  0  0  0  0
   61.2072   76.2462   51.7531 H   0  0  0  0  0  0  0  0  0  0  0  0
   61.9748   75.3397   54.5837 H   0  0  0  0  0  0  0  0  0  0  0  0
   63.2880   77.4422   52.8541 H   0  0  0  0  0  0  0  0  0  0  0  0
   64.8272   77.7844   54.5806 H   0  0  0  0  0  0  0  0  0  0  0  0
   63.3077   77.4686   55.4960 H   0  0  0  0  0  0  0  0  0  0  0  0
   61.1322   73.0323   51.1332 H   0  0  0  0  0  0  0  0  0  0  0  0
   59.9573   74.9462   53.8842 H   0  0  0  0  0  0  0  0  0  0  0  0
   61.1306   77.2155   55.2542 H   0  0  0  0  0  0  0  0  0  0  0  0
   64.6182   76.0243   56.4525 H   0  0  0  0  0  0  0  0  0  0  0  0
  1  2  1  0
  1  7  1  0
  1 11  1  0
  2  3  1  0
  2  8  1  0
  3  4  1  0
  3  9  1  0
  4  5  1  0
  4 10  1  0
  5  6  1  0
  5 11  1  0
  6 12  1  0
  1 13  1  6
  2 14  1  1
  3 15  1  6
  4 16  1  1
  5 17  1  6
  6 18  1  0
  6 19  1  0
  8 20  1  0
  9 21  1  0
 10 22  1  0
 12 23  1  0
M  END
>  <filename_input>  (18) 
7DKT_GLF_docked.sdf

>  <pdb_id>  (18) 
7DKT_GLF

>  <pose_rank>  (18) 
17

>  <num_atoms_heavy>  (18) 
12

>  <num_torsions>  (18) 
1

>  <pose>  (18) 
[63.643571675855775, 74.98043221390549, 51.733042105269696, 1.911647047200558, 1.2566954394478724, 1.1148400241474739, 4.47516725732633]

>  <energy>  (18) 
-127.90442927229817

>  <inter_energy>  (18) 
-116.72265521874422

>  <intra_energy>  (18) 
0.0

>  <rmsd>  (18) 
12.5973

>  <sdf_rank>  (18) 
0

$$$$

     RDKit          3D

 23 23  0  0  0  0  0  0  0  0999 V2000
   62.8103   75.0263   52.9824 C   0  0  1  0  0  0  0  0  0  0  0  0
   62.8623   74.1079   51.7671 C   0  0  1  0  0  0  0  0  0  0  0  0
   64.2496   73.4606   51.6522 C   0  0  2  0  0  0  0  0  0  0  0  0
   65.2942   74.5605   51.5408 C   0  0  1  0  0  0  0  0  0  0  0  0
   65.1650   75.5606   52.6947 C   0  0  1  0  0  0  0  0  0  0  0  0
   66.0801   76.7586   52.4986 C   0  0  0  0  0  0  0  0  0  0  0  0
   62.9946   74.2821   54.1117 F   0  0  0  0  0  0  0  0  0  0  0  0
   61.8263   73.1252   51.8569 O   0  0  0  0  0  0  0  0  0  0  0  0
   64.3525   72.6340   50.4906 O   0  0  0  0  0  0  0  0  0  0  0  0
   66.6099   73.9944   51.5204 O   0  0  0  0  0  0  0  0  0  0  0  0
   63.8124   76.0223   52.8778 O   0  0  0  0  0  0  0  0  0  0  0  0
   67.1256   76.7514   53.4840 O   0  0  0  0  0  0  0  0  0  0  0  0
   61.8303   75.5235   53.0315 H   0  0  0  0  0  0  0  0  0  0  0  0
   62.6932   74.6967   50.8535 H   0  0  0  0  0  0  0  0  0  0  0  0
   64.4089   72.8374   52.5445 H   0  0  0  0  0  0  0  0  0  0  0  0
   65.1232   75.1011   50.5982 H   0  0  0  0  0  0  0  0  0  0  0  0
   65.4677   75.0139   53.5999 H   0  0  0  0  0  0  0  0  0  0  0  0
   66.5270   76.7139   51.4944 H   0  0  0  0  0  0  0  0  0  0  0  0
   65.4912   77.6814   52.6070 H   0  0  0  0  0  0  0  0  0  0  0  0
   61.6299   72.9388   52.8091 H   0  0  0  0  0  0  0  0  0  0  0  0
   64.4699   71.6904   50.7664 H   0  0  0  0  0  0  0  0  0  0  0  0
   66.9252   73.8587   52.4489 H   0  0  0  0  0  0  0  0  0  0  0  0
   66.7255   76.7542   54.3896 H   0  0  0  0  0  0  0  0  0  0  0  0
  1  2  1  0
  1  7  1  0
  1 11  1  0
  2  3  1  0
  2  8  1  0
  3  4  1  0
  3  9  1  0
  4  5  1  0
  4 10  1  0
  5  6  1  0
  5 11  1  0
  6 12  1  0
  1 13  1  1
  2 14  1  6
  3 15  1  1
  4 16  1  6
  5 17  1  1
  6 18  1  0
  6 19  1  0
  8 20  1  0
  9 21  1  0
 10 22  1  0
 12 23  1  0
M  END
>  <filename_input>  (19) 
7DKT_GLF_docked.sdf

>  <pdb_id>  (19) 
7DKT_GLF

>  <pose_rank>  (19) 
18

>  <num_atoms_heavy>  (19) 
12

>  <num_torsions>  (19) 
1

>  <pose>  (19) 
[62.810273655207084, 75.0262812040221, 52.98243125181188, -0.564632483669487, -0.5352895132918857, 0.09162698836284947, 7.282172866993821]

>  <energy>  (19) 
-118.94462152967162

>  <inter_energy>  (19) 
-87.38284159846692

>  <intra_energy>  (19) 
0.0

>  <rmsd>  (19) 
12.8738

>  <sdf_rank>  (19) 
0

$$$$

     RDKit          3D

 23 23  0  0  0  0  0  0  0  0999 V2000
   65.0952   57.6818   65.3100 C   0  0  1  0  0  0  0  0  0  0  0  0
   66.5146   58.1112   65.6619 C   0  0  1  0  0  0  0  0  0  0  0  0
   66.9876   59.2121   64.7022 C   0  0  2  0  0  0  0  0  0  0  0  0
   66.9236   58.6799   63.2787 C   0  0  1  0  0  0  0  0  0  0  0  0
   65.5295   58.1293   62.9597 C   0  0  1  0  0  0  0  0  0  0  0  0
   65.5016   57.4328   61.6087 C   0  0  0  0  0  0  0  0  0  0  0  0
   64.2536   58.7429   65.4793 F   0  0  0  0  0  0  0  0  0  0  0  0
   66.5676   58.5404   67.0258 O   0  0  0  0  0  0  0  0  0  0  0  0
   68.3370   59.6013   64.9683 O   0  0  0  0  0  0  0  0  0  0  0  0
   67.2745   59.7106   62.3480 O   0  0  0  0  0  0  0  0  0  0  0  0
   65.0482   57.2224   63.9707 O   0  0  0  0  0  0  0  0  0  0  0  0
   64.1717   57.4562   61.0655 O   0  0  0  0  0  0  0  0  0  0  0  0
   64.7804   56.8601   65.9701 H   0  0  0  0  0  0  0  0  0  0  0  0
   67.1967   57.2556   65.5488 H   0  0  0  0  0  0  0  0  0  0  0  0
   66.3342   60.0863   64.8392 H   0  0  0  0  0  0  0  0  0  0  0  0
   67.6463   57.8556   63.1884 H   0  0  0  0  0  0  0  0  0  0  0  0
   64.8613   59.0027   62.9343 H   0  0  0  0  0  0  0  0  0  0  0  0
   66.1849   57.9500   60.9191 H   0  0  0  0  0  0  0  0  0  0  0  0
   65.8181   56.3872   61.7375 H   0  0  0  0  0  0  0  0  0  0  0  0
   66.4708   57.7564   67.6225 H   0  0  0  0  0  0  0  0  0  0  0  0
   68.4816   59.6430   65.9468 H   0  0  0  0  0  0  0  0  0  0  0  0
   67.5509   60.5222   62.8430 H   0  0  0  0  0  0  0  0  0  0  0  0
   63.5133   57.4678   61.8048 H   0  0  0  0  0  0  0  0  0  0  0  0
  1  2  1  0
  1  7  1  0
  1 11  1  0
  2  3  1  0
  2  8  1  0
  3  4  1  0
  3  9  1  0
  4  5  1  0
  4 10  1  0
  5  6  1  0
  5 11  1  0
  6 12  1  0
  1 13  1  1
  2 14  1  1
  3 15  1  6
  4 16  1  1
  5 17  1  6
  6 18  1  0
  6 19  1  0
  8 20  1  0
  9 21  1  0
 10 22  1  0
 12 23  1  0
M  END
>  <filename_input>  (20) 
7DKT_GLF_docked.sdf

>  <pdb_id>  (20) 
7DKT_GLF

>  <pose_rank>  (20) 
19

>  <num_atoms_heavy>  (20) 
12

>  <num_torsions>  (20) 
1

>  <pose>  (20) 
[65.09518787031747, 57.68176887908144, 65.31000137709822, 1.7532698692671613, 0.8396919363828698, -2.4946341045833655, 0.25434550531531813]

>  <energy>  (20) 
-110.2361350095721

>  <inter_energy>  (20) 
-109.65443166169095

>  <intra_energy>  (20) 
0.0

>  <rmsd>  (20) 
12.6543

>  <sdf_rank>  (20) 
0

$$$$

     RDKit          3D

 23 23  0  0  0  0  0  0  0  0999 V2000
   67.2295   62.4488   63.7852 C   0  0  1  0  0  0  0  0  0  0  0  0
   67.3493   60.9295   63.7643 C   0  0  1  0  0  0  0  0  0  0  0  0
   66.5424   60.3194   64.9189 C   0  0  2  0  0  0  0  0  0  0  0  0
   67.0655   60.8824   66.2315 C   0  0  1  0  0  0  0  0  0  0  0  0
   67.0663   62.4147   66.2111 C   0  0  1  0  0  0  0  0  0  0  0  0
   67.7525   62.9878   67.4407 C   0  0  0  0  0  0  0  0  0  0  0  0
   65.9250   62.7960   63.5833 F   0  0  0  0  0  0  0  0  0  0  0  0
   66.9197   60.4264   62.4956 O   0  0  0  0  0  0  0  0  0  0  0  0
   66.6765   58.8969   64.9635 O   0  0  0  0  0  0  0  0  0  0  0  0
   66.2770   60.4016   67.3265 O   0  0  0  0  0  0  0  0  0  0  0  0
   67.6884   62.9519   65.0276 O   0  0  0  0  0  0  0  0  0  0  0  0
   67.9813   64.3959   67.2705 O   0  0  0  0  0  0  0  0  0  0  0  0
   67.8482   62.8820   62.9854 H   0  0  0  0  0  0  0  0  0  0  0  0
   68.4015   60.6413   63.9048 H   0  0  0  0  0  0  0  0  0  0  0  0
   65.4827   60.5696   64.7627 H   0  0  0  0  0  0  0  0  0  0  0  0
   68.1031   60.5410   66.3614 H   0  0  0  0  0  0  0  0  0  0  0  0
   66.0080   62.7146   66.2102 H   0  0  0  0  0  0  0  0  0  0  0  0
   67.1132   62.8274   68.3214 H   0  0  0  0  0  0  0  0  0  0  0  0
   68.7190   62.4816   67.5808 H   0  0  0  0  0  0  0  0  0  0  0  0
   66.2833   59.6810   62.6345 H   0  0  0  0  0  0  0  0  0  0  0  0
   66.7047   58.5975   65.9067 H   0  0  0  0  0  0  0  0  0  0  0  0
   66.7045   60.6623   68.1805 H   0  0  0  0  0  0  0  0  0  0  0  0
   68.0516   64.8285   68.1583 H   0  0  0  0  0  0  0  0  0  0  0  0
  1  2  1  0
  1  7  1  0
  1 11  1  0
  2  3  1  0
  2  8  1  0
  3  4  1  0
  3  9  1  0
  4  5  1  0
  4 10  1  0
  5  6  1  0
  5 11  1  0
  6 12  1  0
  1 13  1  6
  2 14  1  1
  3 15  1  6
  4 16  1  1
  5 17  1  1
  6 18  1  0
  6 19  1  0
  8 20  1  0
  9 21  1  0
 10 22  1  0
 12 23  1  0
M  END
>  <filename_input>  (21) 
7DKT_GLF_docked.sdf

>  <pdb_id>  (21) 
7DKT_GLF

>  <pose_rank>  (21) 
20

>  <num_atoms_heavy>  (21) 
12

>  <num_torsions>  (21) 
1

>  <pose>  (21) 
[67.22954883170036, 62.44884633843705, 63.78517624300345, -1.2804547548420615, -1.905195332306855, -1.2000270208395145, -0.3939632935185304]

>  <energy>  (21) 
-112.58294522091562

>  <inter_energy>  (21) 
-102.51114569066446

>  <intra_energy>  (21) 
0.0

>  <rmsd>  (21) 
11.7269

>  <sdf_rank>  (21) 
0

$$$$

     RDKit          3D

 23 23  0  0  0  0  0  0  0  0999 V2000
   53.8913   59.8438   52.2099 C   0  0  1  0  0  0  0  0  0  0  0  0
   53.1655   58.8374   53.0950 C   0  0  1  0  0  0  0  0  0  0  0  0
   51.8843   58.3515   52.4029 C   0  0  2  0  0  0  0  0  0  0  0  0
   50.9978   59.5538   52.1163 C   0  0  1  0  0  0  0  0  0  0  0  0
   51.7624   60.6266   51.3336 C   0  0  1  0  0  0  0  0  0  0  0  0
   50.9484   61.9034   51.1979 C   0  0  0  0  0  0  0  0  0  0  0  0
   54.2752   59.2261   51.0549 F   0  0  0  0  0  0  0  0  0  0  0  0
   54.0401   57.7501   53.4115 O   0  0  0  0  0  0  0  0  0  0  0  0
   51.1481   57.4464   53.2289 O   0  0  0  0  0  0  0  0  0  0  0  0
   49.8312   59.1479   51.3910 O   0  0  0  0  0  0  0  0  0  0  0  0
   53.0387   60.9388   51.9251 O   0  0  0  0  0  0  0  0  0  0  0  0
   50.2363   62.1701   52.4169 O   0  0  0  0  0  0  0  0  0  0  0  0
   54.7821   60.2238   52.7315 H   0  0  0  0  0  0  0  0  0  0  0  0
   52.8712   59.3215   54.0379 H   0  0  0  0  0  0  0  0  0  0  0  0
   52.1739   57.8303   51.4785 H   0  0  0  0  0  0  0  0  0  0  0  0
   50.6874   59.9876   53.0783 H   0  0  0  0  0  0  0  0  0  0  0  0
   51.9407   60.1992   50.3358 H   0  0  0  0  0  0  0  0  0  0  0  0
   51.6242   62.7437   50.9807 H   0  0  0  0  0  0  0  0  0  0  0  0
   50.2245   61.7820   50.3787 H   0  0  0  0  0  0  0  0  0  0  0  0
   54.1124   57.6602   54.3947 H   0  0  0  0  0  0  0  0  0  0  0  0
   51.3185   57.6559   54.1814 H   0  0  0  0  0  0  0  0  0  0  0  0
   49.1161   58.8990   52.0287 H   0  0  0  0  0  0  0  0  0  0  0  0
   50.8143   61.9536   53.1909 H   0  0  0  0  0  0  0  0  0  0  0  0
  1  2  1  0
  1  7  1  0
  1 11  1  0
  2  3  1  0
  2  8  1  0
  3  4  1  0
  3  9  1  0
  4  5  1  0
  4 10  1  0
  5  6  1  0
  5 11  1  0
  6 12  1  0
  1 13  1  1
  2 14  1  1
  3 15  1  6
  4 16  1  1
  5 17  1  6
  6 18  1  0
  6 19  1  0
  8 20  1  0
  9 21  1  0
 10 22  1  0
 12 23  1  0
M  END
>  <filename_input>  (22) 
7DKT_GLF_docked.sdf

>  <pdb_id>  (22) 
7DKT_GLF

>  <pose_rank>  (22) 
21

>  <num_atoms_heavy>  (22) 
12

>  <num_torsions>  (22) 
1

>  <pose>  (22) 
[53.89129946491691, 59.84376251933298, 52.20992621718965, -0.1310140290736336, -3.9073573744453127, -1.5477812912728273, 3.6343029618552296]

>  <energy>  (22) 
-108.4726176888345

>  <inter_energy>  (22) 
-96.6109649649417

>  <intra_energy>  (22) 
1.001798185158917

>  <rmsd>  (22) 
13.1286

>  <sdf_rank>  (22) 
0

$$$$

     RDKit          3D

 23 23  0  0  0  0  0  0  0  0999 V2000
   66.1960   61.5519   64.8633 C   0  0  1  0  0  0  0  0  0  0  0  0
   66.7648   61.7674   66.2609 C   0  0  1  0  0  0  0  0  0  0  0  0
   67.4198   60.4759   66.7704 C   0  0  2  0  0  0  0  0  0  0  0  0
   66.3763   59.3693   66.7789 C   0  0  1  0  0  0  0  0  0  0  0  0
   65.7091   59.2321   65.4061 C   0  0  1  0  0  0  0  0  0  0  0  0
   64.5431   58.2576   65.4484 C   0  0  0  0  0  0  0  0  0  0  0  0
   67.2177   61.2614   64.0062 F   0  0  0  0  0  0  0  0  0  0  0  0
   67.6901   62.8587   66.2451 O   0  0  0  0  0  0  0  0  0  0  0  0
   67.9165   60.6252   68.1024 O   0  0  0  0  0  0  0  0  0  0  0  0
   66.9746   58.1267   67.1657 O   0  0  0  0  0  0  0  0  0  0  0  0
   65.2525   60.4952   64.8842 O   0  0  0  0  0  0  0  0  0  0  0  0
   64.9160   57.0105   64.8400 O   0  0  0  0  0  0  0  0  0  0  0  0
   65.6863   62.4657   64.5239 H   0  0  0  0  0  0  0  0  0  0  0  0
   65.9502   62.0234   66.9543 H   0  0  0  0  0  0  0  0  0  0  0  0
   68.2616   60.2359   66.1043 H   0  0  0  0  0  0  0  0  0  0  0  0
   65.6004   59.6357   67.5117 H   0  0  0  0  0  0  0  0  0  0  0  0
   66.4869   58.8423   64.7329 H   0  0  0  0  0  0  0  0  0  0  0  0
   64.2562   58.0796   66.4953 H   0  0  0  0  0  0  0  0  0  0  0  0
   63.6957   58.6878   64.8944 H   0  0  0  0  0  0  0  0  0  0  0  0
   67.9101   63.1182   67.1748 H   0  0  0  0  0  0  0  0  0  0  0  0
   67.1982   60.4093   68.7486 H   0  0  0  0  0  0  0  0  0  0  0  0
   67.0031   58.0676   68.1536 H   0  0  0  0  0  0  0  0  0  0  0  0
   65.1148   56.3455   65.5459 H   0  0  0  0  0  0  0  0  0  0  0  0
  1  2  1  0
  1  7  1  0
  1 11  1  0
  2  3  1  0
  2  8  1  0
  3  4  1  0
  3  9  1  0
  4  5  1  0
  4 10  1  0
  5  6  1  0
  5 11  1  0
  6 12  1  0
  1 13  1  6
  2 14  1  1
  3 15  1  6
  4 16  1  1
  5 17  1  6
  6 18  1  0
  6 19  1  0
  8 20  1  0
  9 21  1  0
 10 22  1  0
 12 23  1  0
M  END
>  <filename_input>  (23) 
7DKT_GLF_docked.sdf

>  <pdb_id>  (23) 
7DKT_GLF

>  <pose_rank>  (23) 
22

>  <num_atoms_heavy>  (23) 
12

>  <num_torsions>  (23) 
1

>  <pose>  (23) 
[66.19596347692777, 61.55190933724776, 64.86334390876537, -2.132356992292433, 2.141987282144817, 0.7364537036583448, 1.1289885200318341]

>  <energy>  (23) 
-101.51204210784468

>  <inter_energy>  (23) 
-93.22114010092915

>  <intra_energy>  (23) 
0.2976699511590574

>  <rmsd>  (23) 
12.7372

>  <sdf_rank>  (23) 
0

$$$$

     RDKit          3D

 23 23  0  0  0  0  0  0  0  0999 V2000
   65.2089   58.4344   64.7107 C   0  0  1  0  0  0  0  0  0  0  0  0
   64.5806   58.1406   63.3534 C   0  0  1  0  0  0  0  0  0  0  0  0
   65.6660   57.7444   62.3427 C   0  0  2  0  0  0  0  0  0  0  0  0
   66.6720   58.8802   62.2356 C   0  0  1  0  0  0  0  0  0  0  0  0
   67.2144   59.2663   63.6158 C   0  0  1  0  0  0  0  0  0  0  0  0
   68.0798   60.5142   63.5450 C   0  0  0  0  0  0  0  0  0  0  0  0
   65.7959   57.2974   65.1856 F   0  0  0  0  0  0  0  0  0  0  0  0
   63.5871   57.1200   63.4894 O   0  0  0  0  0  0  0  0  0  0  0  0
   65.1187   57.5146   61.0424 O   0  0  0  0  0  0  0  0  0  0  0  0
   67.7480   58.5091   61.3661 O   0  0  0  0  0  0  0  0  0  0  0  0
   66.1674   59.4700   64.5846 O   0  0  0  0  0  0  0  0  0  0  0  0
   67.2549   61.6904   63.5302 O   0  0  0  0  0  0  0  0  0  0  0  0
   64.4324   58.7640   65.4167 H   0  0  0  0  0  0  0  0  0  0  0  0
   64.0864   59.0466   62.9728 H   0  0  0  0  0  0  0  0  0  0  0  0
   66.1375   56.8157   62.6967 H   0  0  0  0  0  0  0  0  0  0  0  0
   66.1567   59.7554   61.8130 H   0  0  0  0  0  0  0  0  0  0  0  0
   67.8276   58.4147   63.9455 H   0  0  0  0  0  0  0  0  0  0  0  0
   68.7430   60.5466   64.4221 H   0  0  0  0  0  0  0  0  0  0  0  0
   68.6782   60.4840   62.6225 H   0  0  0  0  0  0  0  0  0  0  0  0
   63.4199   56.9482   64.4499 H   0  0  0  0  0  0  0  0  0  0  0  0
   64.2095   57.1328   61.1298 H   0  0  0  0  0  0  0  0  0  0  0  0
   68.5316   58.2388   61.9075 H   0  0  0  0  0  0  0  0  0  0  0  0
   67.0599   61.9684   64.4601 H   0  0  0  0  0  0  0  0  0  0  0  0
  1  2  1  0
  1  7  1  0
  1 11  1  0
  2  3  1  0
  2  8  1  0
  3  4  1  0
  3  9  1  0
  4  5  1  0
  4 10  1  0
  5  6  1  0
  5 11  1  0
  6 12  1  0
  1 13  1  1
  2 14  1  6
  3 15  1  1
  4 16  1  6
  5 17  1  1
  6 18  1  0
  6 19  1  0
  8 20  1  0
  9 21  1  0
 10 22  1  0
 12 23  1  0
M  END
>  <filename_input>  (24) 
7DKT_GLF_docked.sdf

>  <pdb_id>  (24) 
7DKT_GLF

>  <pose_rank>  (24) 
23

>  <num_atoms_heavy>  (24) 
12

>  <num_torsions>  (24) 
1

>  <pose>  (24) 
[65.20886627251026, 58.43441845952159, 64.71066988166265, 3.8256146645094984, 2.5394746676818376, -4.095635249051534, 4.3694175887909745]

>  <energy>  (24) 
-85.15474150897963

>  <inter_energy>  (24) 
-89.75415278676526

>  <intra_energy>  (24) 
0.0

>  <rmsd>  (24) 
11.7688

>  <sdf_rank>  (24) 
0

$$$$

     RDKit          3D

 23 23  0  0  0  0  0  0  0  0999 V2000
   62.6117   60.8212   51.2582 C   0  0  1  0  0  0  0  0  0  0  0  0
   62.0597   59.5206   50.6865 C   0  0  1  0  0  0  0  0  0  0  0  0
   62.4370   58.3415   51.5943 C   0  0  2  0  0  0  0  0  0  0  0  0
   63.9524   58.2786   51.7089 C   0  0  1  0  0  0  0  0  0  0  0  0
   64.5259   59.6252   52.1630 C   0  0  1  0  0  0  0  0  0  0  0  0
   66.0451   59.6308   52.1076 C   0  0  0  0  0  0  0  0  0  0  0  0
   62.0334   61.0554   52.4722 F   0  0  0  0  0  0  0  0  0  0  0  0
   60.6426   59.6268   50.5198 O   0  0  0  0  0  0  0  0  0  0  0  0
   61.9821   57.0963   51.0597 O   0  0  0  0  0  0  0  0  0  0  0  0
   64.3381   57.2429   52.6202 O   0  0  0  0  0  0  0  0  0  0  0  0
   64.0194   60.7310   51.3903 O   0  0  0  0  0  0  0  0  0  0  0  0
   66.5521   60.9120   52.5146 O   0  0  0  0  0  0  0  0  0  0  0  0
   62.3794   61.6546   50.5789 H   0  0  0  0  0  0  0  0  0  0  0  0
   62.5047   59.3350   49.6978 H   0  0  0  0  0  0  0  0  0  0  0  0
   61.9614   58.5004   52.5734 H   0  0  0  0  0  0  0  0  0  0  0  0
   64.3620   58.0499   50.7140 H   0  0  0  0  0  0  0  0  0  0  0  0
   64.1978   59.7543   53.2049 H   0  0  0  0  0  0  0  0  0  0  0  0
   66.4360   58.8545   52.7818 H   0  0  0  0  0  0  0  0  0  0  0  0
   66.3672   59.4289   51.0754 H   0  0  0  0  0  0  0  0  0  0  0  0
   60.2073   59.6594   51.4083 H   0  0  0  0  0  0  0  0  0  0  0  0
   61.7574   56.4809   51.8019 H   0  0  0  0  0  0  0  0  0  0  0  0
   64.2197   57.5608   53.5503 H   0  0  0  0  0  0  0  0  0  0  0  0
   66.5712   60.9604   53.5033 H   0  0  0  0  0  0  0  0  0  0  0  0
  1  2  1  0
  1  7  1  0
  1 11  1  0
  2  3  1  0
  2  8  1  0
  3  4  1  0
  3  9  1  0
  4  5  1  0
  4 10  1  0
  5  6  1  0
  5 11  1  0
  6 12  1  0
  1 13  1  6
  2 14  1  6
  3 15  1  1
  4 16  1  6
  5 17  1  1
  6 18  1  0
  6 19  1  0
  8 20  1  0
  9 21  1  0
 10 22  1  0
 12 23  1  0
M  END
>  <filename_input>  (25) 
7DKT_GLF_docked.sdf

>  <pdb_id>  (25) 
7DKT_GLF

>  <pose_rank>  (25) 
24

>  <num_atoms_heavy>  (25) 
12

>  <num_torsions>  (25) 
1

>  <pose>  (25) 
[62.61171034926484, 60.82117877430758, 51.25820182828404, -1.3796993657565388, -0.632851025085876, -0.6693565298305552, -0.20863647377291497]

>  <energy>  (25) 
-105.86015119653403

>  <inter_energy>  (25) 
-81.17180507332884

>  <intra_energy>  (25) 
0.0

>  <rmsd>  (25) 
12.907

>  <sdf_rank>  (25) 
0

$$$$

     RDKit          3D

 23 23  0  0  0  0  0  0  0  0999 V2000
   57.2850   66.7750   61.8740 C   0  0  1  0  0  0  0  0  0  0  0  0
   56.5660   66.6490   60.5360 C   0  0  1  0  0  0  0  0  0  0  0  0
   57.5600   66.2480   59.4370 C   0  0  2  0  0  0  0  0  0  0  0  0
   58.6560   67.3000   59.3620 C   0  0  1  0  0  0  0  0  0  0  0  0
   59.2990   67.5230   60.7350 C   0  0  1  0  0  0  0  0  0  0  0  0
   60.2670   68.6950   60.7130 C   0  0  0  0  0  0  0  0  0  0  0  0
   57.7920   65.5570   62.2240 F   0  0  0  0  0  0  0  0  0  0  0  0
   55.4940   65.7080   60.6480 O   0  0  0  0  0  0  0  0  0  0  0  0
   56.9300   66.1740   58.1560 O   0  0  0  0  0  0  0  0  0  0  0  0
   59.6500   66.9130   58.4060 O   0  0  0  0  0  0  0  0  0  0  0  0
   58.3240   67.7330   61.7750 O   0  0  0  0  0  0  0  0  0  0  0  0
   61.0380   68.7250   61.9250 O   0  0  0  0  0  0  0  0  0  0  0  0
   56.5772   67.1091   62.6469 H   0  0  0  0  0  0  0  0  0  0  0  0
   56.1355   67.6219   60.2565 H   0  0  0  0  0  0  0  0  0  0  0  0
   57.9645   65.2567   59.6895 H   0  0  0  0  0  0  0  0  0  0  0  0
   58.1998   68.2476   59.0395 H   0  0  0  0  0  0  0  0  0  0  0  0
   59.8500   66.5982   60.9613 H   0  0  0  0  0  0  0  0  0  0  0  0
   60.9453   68.5898   59.8534 H   0  0  0  0  0  0  0  0  0  0  0  0
   59.6953   69.6309   60.6282 H   0  0  0  0  0  0  0  0  0  0  0  0
   55.3017   65.5392   61.6044 H   0  0  0  0  0  0  0  0  0  0  0  0
   55.9538   66.0593   58.2745 H   0  0  0  0  0  0  0  0  0  0  0  0
   60.4595   66.5978   58.8808 H   0  0  0  0  0  0  0  0  0  0  0  0
   60.4283   68.7013   62.7046 H   0  0  0  0  0  0  0  0  0  0  0  0
  1  2  1  0
  1  7  1  0
  1 11  1  0
  2  3  1  0
  2  8  1  0
  3  4  1  0
  3  9  1  0
  4  5  1  0
  4 10  1  0
  5  6  1  0
  5 11  1  0
  6 12  1  0
  1 13  1  1
  2 14  1  6
  3 15  1  1
  4 16  1  6
  5 17  1  1
  6 18  1  0
  6 19  1  0
  8 20  1  0
  9 21  1  0
 10 22  1  0
 12 23  1  0
M  END
>  <filename_input>  (26) 
7DKT_GLF_docked.sdf

>  <pdb_id>  (26) 
7DKT_GLF

>  <pose_rank>  (26) 
25

>  <num_atoms_heavy>  (26) 
12

>  <num_torsions>  (26) 
1

>  <pose>  (26) 
[57.285, 66.775, 61.874, 1e-06, 1e-06, 1e-06, 0.0]

>  <energy>  (26) 
-702.8547421772047

>  <inter_energy>  (26) 
-702.0231766883094

>  <intra_energy>  (26) 
0.0

>  <rmsd>  (26) 
0.0

>  <sdf_rank>  (26) 
0

$$$$
