
     RDKit          3D

 14 14  0  0  0  0  0  0  0  0999 V2000
   -2.0060  -10.5098    7.5283 Cl  0  0  0  0  0  0  0  0  0  0  0  0
   -2.1028   -8.7954    7.2429 C   0  0  0  0  0  0  0  0  0  0  0  0
   -1.0138   -7.9999    7.5340 C   0  0  0  0  0  0  0  0  0  0  0  0
   -1.0899   -6.6394    7.2936 C   0  0  0  0  0  0  0  0  0  0  0  0
   -2.2452   -6.0824    6.7543 C   0  0  0  0  0  0  0  0  0  0  0  0
   -2.3312   -4.7497    6.4982 O   0  0  0  0  0  0  0  0  0  0  0  0
   -3.3398   -6.9059    6.4665 C   0  0  0  0  0  0  0  0  0  0  0  0
   -3.2697   -8.2676    6.7219 C   0  0  0  0  0  0  0  0  0  0  0  0
   -4.4555   -6.3548    5.9204 O   0  0  0  0  0  0  0  0  0  0  0  0
   -0.0970   -8.4414    7.9519 H   0  0  0  0  0  0  0  0  0  0  0  0
   -0.2313   -5.9938    7.5305 H   0  0  0  0  0  0  0  0  0  0  0  0
   -3.1618   -4.3720    6.1142 H   0  0  0  0  0  0  0  0  0  0  0  0
   -4.1312   -8.9188    6.5127 H   0  0  0  0  0  0  0  0  0  0  0  0
   -5.2376   -6.9247    5.7114 H   0  0  0  0  0  0  0  0  0  0  0  0
  1  2  1  0
  2  3  2  0
  2  8  1  0
  3  4  1  0
  4  5  2  0
  5  6  1  0
  5  7  1  0
  7  8  2  0
  7  9  1  0
  3 10  1  0
  4 11  1  0
  6 12  1  0
  8 13  1  0
  9 14  1  0
M  END
>  <filename_input>  (1) 
7DQL_4CL_docked.sdf

>  <pdb_id>  (1) 
7DQL_4CL

>  <pose_rank>  (1) 
0

>  <num_atoms_heavy>  (1) 
9

>  <num_torsions>  (1) 
0

>  <pose>  (1) 
[-2.006039096179415, -10.509782929160334, 7.528261611025911, 1.0434216853703835, 0.18403421913098883, -2.5769351296944247]

>  <energy>  (1) 
-346.1672560800114

>  <inter_energy>  (1) 
-336.6996782638158

>  <intra_energy>  (1) 
0.0

>  <rmsd>  (1) 
4.29371

>  <sdf_rank>  (1) 
0

$$$$

     RDKit          3D

 14 14  0  0  0  0  0  0  0  0999 V2000
   -2.7513   -5.3617    6.8605 Cl  0  0  0  0  0  0  0  0  0  0  0  0
   -2.4631   -7.0767    6.7850 C   0  0  0  0  0  0  0  0  0  0  0  0
   -1.4374   -7.6224    7.5291 C   0  0  0  0  0  0  0  0  0  0  0  0
   -1.2197   -8.9878    7.4766 C   0  0  0  0  0  0  0  0  0  0  0  0
   -2.0318   -9.8015    6.6929 C   0  0  0  0  0  0  0  0  0  0  0  0
   -1.8407  -11.1468    6.6416 O   0  0  0  0  0  0  0  0  0  0  0  0
   -3.0667   -9.2289    5.9444 C   0  0  0  0  0  0  0  0  0  0  0  0
   -3.2756   -7.8581    5.9844 C   0  0  0  0  0  0  0  0  0  0  0  0
   -3.8671  -10.0353    5.1988 O   0  0  0  0  0  0  0  0  0  0  0  0
   -0.8011   -6.9805    8.1560 H   0  0  0  0  0  0  0  0  0  0  0  0
   -0.3991   -9.4330    8.0583 H   0  0  0  0  0  0  0  0  0  0  0  0
   -2.4291  -11.7092    6.0779 H   0  0  0  0  0  0  0  0  0  0  0  0
   -4.0771   -7.3989    5.3872 H   0  0  0  0  0  0  0  0  0  0  0  0
   -4.6031   -9.6446    4.6642 H   0  0  0  0  0  0  0  0  0  0  0  0
  1  2  1  0
  2  3  2  0
  2  8  1  0
  3  4  1  0
  4  5  2  0
  5  6  1  0
  5  7  1  0
  7  8  2  0
  7  9  1  0
  3 10  1  0
  4 11  1  0
  6 12  1  0
  8 13  1  0
  9 14  1  0
M  END
>  <filename_input>  (2) 
7DQL_4CL_docked.sdf

>  <pdb_id>  (2) 
7DQL_4CL

>  <pose_rank>  (2) 
1

>  <num_atoms_heavy>  (2) 
9

>  <num_torsions>  (2) 
0

>  <pose>  (2) 
[-2.751302200277891, -5.361684656492557, 6.860515428840536, 0.1314928439513583, -3.278071503602909, -0.6833807562682962]

>  <energy>  (2) 
-490.8066763532497

>  <inter_energy>  (2) 
-471.1673987728718

>  <intra_energy>  (2) 
0.0

>  <rmsd>  (2) 
2.22575

>  <sdf_rank>  (2) 
0

$$$$

     RDKit          3D

 14 14  0  0  0  0  0  0  0  0999 V2000
   -1.4764  -11.6691    6.6689 Cl  0  0  0  0  0  0  0  0  0  0  0  0
   -1.9247   -9.9944    6.5126 C   0  0  0  0  0  0  0  0  0  0  0  0
   -1.2528   -9.0436    7.2530 C   0  0  0  0  0  0  0  0  0  0  0  0
   -1.6033   -7.7121    7.1164 C   0  0  0  0  0  0  0  0  0  0  0  0
   -2.6119   -7.3354    6.2351 C   0  0  0  0  0  0  0  0  0  0  0  0
   -2.9585   -6.0300    6.0780 O   0  0  0  0  0  0  0  0  0  0  0  0
   -3.2824   -8.3149    5.4934 C   0  0  0  0  0  0  0  0  0  0  0  0
   -2.9422   -9.6515    5.6415 C   0  0  0  0  0  0  0  0  0  0  0  0
   -4.2515   -7.9341    4.6201 O   0  0  0  0  0  0  0  0  0  0  0  0
   -0.4491   -9.3403    7.9430 H   0  0  0  0  0  0  0  0  0  0  0  0
   -1.0810   -6.9461    7.7084 H   0  0  0  0  0  0  0  0  0  0  0  0
   -3.6789   -5.7817    5.4460 H   0  0  0  0  0  0  0  0  0  0  0  0
   -3.4749  -10.4284    5.0735 H   0  0  0  0  0  0  0  0  0  0  0  0
   -4.7344   -8.6156    4.0885 H   0  0  0  0  0  0  0  0  0  0  0  0
  1  2  1  0
  2  3  2  0
  2  8  1  0
  3  4  1  0
  4  5  2  0
  5  6  1  0
  5  7  1  0
  7  8  2  0
  7  9  1  0
  3 10  1  0
  4 11  1  0
  6 12  1  0
  8 13  1  0
  9 14  1  0
M  END
>  <filename_input>  (3) 
7DQL_4CL_docked.sdf

>  <pdb_id>  (3) 
7DQL_4CL

>  <pose_rank>  (3) 
2

>  <num_atoms_heavy>  (3) 
9

>  <num_torsions>  (3) 
0

>  <pose>  (3) 
[-1.4763565759968311, -11.669057668482193, 6.668850712622917, 1.4217050041773334, 0.36983805143128823, -2.1316938914515893]

>  <energy>  (3) 
-495.9106424018473

>  <inter_energy>  (3) 
-461.19883609146154

>  <intra_energy>  (3) 
0.0

>  <rmsd>  (3) 
3.85176

>  <sdf_rank>  (3) 
0

$$$$

     RDKit          3D

 14 14  0  0  0  0  0  0  0  0999 V2000
   -1.0217   -8.5000    8.7903 Cl  0  0  0  0  0  0  0  0  0  0  0  0
   -1.9883   -8.3239    7.3534 C   0  0  0  0  0  0  0  0  0  0  0  0
   -3.2856   -8.7936    7.3505 C   0  0  0  0  0  0  0  0  0  0  0  0
   -4.0550   -8.6400    6.2108 C   0  0  0  0  0  0  0  0  0  0  0  0
   -3.5314   -8.0097    5.0864 C   0  0  0  0  0  0  0  0  0  0  0  0
   -4.2788   -7.8376    3.9636 O   0  0  0  0  0  0  0  0  0  0  0  0
   -2.2128   -7.5408    5.1086 C   0  0  0  0  0  0  0  0  0  0  0  0
   -1.4358   -7.7083    6.2454 C   0  0  0  0  0  0  0  0  0  0  0  0
   -1.7182   -6.9079    4.0124 O   0  0  0  0  0  0  0  0  0  0  0  0
   -3.7027   -9.2837    8.2426 H   0  0  0  0  0  0  0  0  0  0  0  0
   -5.0876   -9.0189    6.1936 H   0  0  0  0  0  0  0  0  0  0  0  0
   -3.8885   -7.3866    3.1734 H   0  0  0  0  0  0  0  0  0  0  0  0
   -0.3939   -7.3562    6.2652 H   0  0  0  0  0  0  0  0  0  0  0  0
   -0.7874   -6.5708    4.0133 H   0  0  0  0  0  0  0  0  0  0  0  0
  1  2  1  0
  2  3  2  0
  2  8  1  0
  3  4  1  0
  4  5  2  0
  5  6  1  0
  5  7  1  0
  7  8  2  0
  7  9  1  0
  3 10  1  0
  4 11  1  0
  6 12  1  0
  8 13  1  0
  9 14  1  0
M  END
>  <filename_input>  (4) 
7DQL_4CL_docked.sdf

>  <pdb_id>  (4) 
7DQL_4CL

>  <pose_rank>  (4) 
3

>  <num_atoms_heavy>  (4) 
9

>  <num_torsions>  (4) 
0

>  <pose>  (4) 
[-1.0217288680131293, -8.49998321575541, 8.790339807804807, 6.768114807954846, 3.932461454999299, 2.269140086108404]

>  <energy>  (4) 
-299.8859468900225

>  <inter_energy>  (4) 
-290.7495839625934

>  <intra_energy>  (4) 
0.0

>  <rmsd>  (4) 
2.83855

>  <sdf_rank>  (4) 
0

$$$$

     RDKit          3D

 14 14  0  0  0  0  0  0  0  0999 V2000
   -1.9607   -6.5027    7.5469 Cl  0  0  0  0  0  0  0  0  0  0  0  0
   -2.1048   -8.0818    6.8287 C   0  0  0  0  0  0  0  0  0  0  0  0
   -3.1987   -8.3664    6.0376 C   0  0  0  0  0  0  0  0  0  0  0  0
   -3.3032   -9.6184    5.4578 C   0  0  0  0  0  0  0  0  0  0  0  0
   -2.3124  -10.5739    5.6602 C   0  0  0  0  0  0  0  0  0  0  0  0
   -2.3924  -11.8039    5.0859 O   0  0  0  0  0  0  0  0  0  0  0  0
   -1.2107  -10.2664    6.4669 C   0  0  0  0  0  0  0  0  0  0  0  0
   -1.1131   -9.0167    7.0611 C   0  0  0  0  0  0  0  0  0  0  0  0
   -0.2383  -11.1996    6.6409 O   0  0  0  0  0  0  0  0  0  0  0  0
   -3.9776   -7.6080    5.8699 H   0  0  0  0  0  0  0  0  0  0  0  0
   -4.1755   -9.8599    4.8327 H   0  0  0  0  0  0  0  0  0  0  0  0
   -1.6772  -12.4705    5.2419 H   0  0  0  0  0  0  0  0  0  0  0  0
   -0.2580   -8.7728    7.7087 H   0  0  0  0  0  0  0  0  0  0  0  0
    0.5469  -10.9965    7.2087 H   0  0  0  0  0  0  0  0  0  0  0  0
  1  2  1  0
  2  3  2  0
  2  8  1  0
  3  4  1  0
  4  5  2  0
  5  6  1  0
  5  7  1  0
  7  8  2  0
  7  9  1  0
  3 10  1  0
  4 11  1  0
  6 12  1  0
  8 13  1  0
  9 14  1  0
M  END
>  <filename_input>  (5) 
7DQL_4CL_docked.sdf

>  <pdb_id>  (5) 
7DQL_4CL

>  <pose_rank>  (5) 
4

>  <num_atoms_heavy>  (5) 
9

>  <num_torsions>  (5) 
0

>  <pose>  (5) 
[-1.9606888042776514, -6.502699224313108, 7.546885994801091, 5.11243835459154, -3.744558492695588, 0.8255009683545177]

>  <energy>  (5) 
-362.22511172883196

>  <inter_energy>  (5) 
-356.1728671134176

>  <intra_energy>  (5) 
0.0

>  <rmsd>  (5) 
0.455208

>  <sdf_rank>  (5) 
0

$$$$

     RDKit          3D

 14 14  0  0  0  0  0  0  0  0999 V2000
   -2.3397   -5.2607    7.3389 Cl  0  0  0  0  0  0  0  0  0  0  0  0
   -2.5273   -6.8927    6.7632 C   0  0  0  0  0  0  0  0  0  0  0  0
   -3.6617   -7.2327    6.0553 C   0  0  0  0  0  0  0  0  0  0  0  0
   -3.8012   -8.5276    5.5881 C   0  0  0  0  0  0  0  0  0  0  0  0
   -2.8053   -9.4714    5.8188 C   0  0  0  0  0  0  0  0  0  0  0  0
   -2.9201  -10.7441    5.3539 O   0  0  0  0  0  0  0  0  0  0  0  0
   -1.6623   -9.1073    6.5399 C   0  0  0  0  0  0  0  0  0  0  0  0
   -1.5290   -7.8135    7.0220 C   0  0  0  0  0  0  0  0  0  0  0  0
   -0.6862  -10.0312    6.7414 O   0  0  0  0  0  0  0  0  0  0  0  0
   -4.4450   -6.4842    5.8648 H   0  0  0  0  0  0  0  0  0  0  0  0
   -4.7055   -8.8128    5.0305 H   0  0  0  0  0  0  0  0  0  0  0  0
   -2.2007  -11.4015    5.5283 H   0  0  0  0  0  0  0  0  0  0  0  0
   -0.6407   -7.5240    7.6026 H   0  0  0  0  0  0  0  0  0  0  0  0
    0.1280   -9.7883    7.2495 H   0  0  0  0  0  0  0  0  0  0  0  0
  1  2  1  0
  2  3  2  0
  2  8  1  0
  3  4  1  0
  4  5  2  0
  5  6  1  0
  5  7  1  0
  7  8  2  0
  7  9  1  0
  3 10  1  0
  4 11  1  0
  6 12  1  0
  8 13  1  0
  9 14  1  0
M  END
>  <filename_input>  (6) 
7DQL_4CL_docked.sdf

>  <pdb_id>  (6) 
7DQL_4CL

>  <pose_rank>  (6) 
5

>  <num_atoms_heavy>  (6) 
9

>  <num_torsions>  (6) 
0

>  <pose>  (6) 
[-2.339714952427002, -5.260678232326584, 7.338865601794846, 1.2166080315050287, -5.080851339617448, 3.5157812876987427]

>  <energy>  (6) 
-347.5455896601652

>  <inter_energy>  (6) 
-335.7638167361532

>  <intra_energy>  (6) 
0.0

>  <rmsd>  (6) 
0.851356

>  <sdf_rank>  (6) 
0

$$$$

     RDKit          3D

 14 14  0  0  0  0  0  0  0  0999 V2000
   -0.9917  -11.0860    6.8545 Cl  0  0  0  0  0  0  0  0  0  0  0  0
   -1.6781   -9.4906    6.7366 C   0  0  0  0  0  0  0  0  0  0  0  0
   -3.0041   -9.3505    6.3821 C   0  0  0  0  0  0  0  0  0  0  0  0
   -3.5495   -8.0814    6.3022 C   0  0  0  0  0  0  0  0  0  0  0  0
   -2.7743   -6.9618    6.5869 C   0  0  0  0  0  0  0  0  0  0  0  0
   -3.2987   -5.7086    6.5274 O   0  0  0  0  0  0  0  0  0  0  0  0
   -1.4307   -7.1245    6.9438 C   0  0  0  0  0  0  0  0  0  0  0  0
   -0.8791   -8.3956    7.0090 C   0  0  0  0  0  0  0  0  0  0  0  0
   -0.6882   -6.0255    7.2404 O   0  0  0  0  0  0  0  0  0  0  0  0
   -3.6196  -10.2362    6.1659 H   0  0  0  0  0  0  0  0  0  0  0  0
   -4.6031   -7.9569    6.0115 H   0  0  0  0  0  0  0  0  0  0  0  0
   -2.7310   -4.9241    6.7336 H   0  0  0  0  0  0  0  0  0  0  0  0
    0.1800   -8.5306    7.2739 H   0  0  0  0  0  0  0  0  0  0  0  0
    0.2634   -6.1250    7.4945 H   0  0  0  0  0  0  0  0  0  0  0  0
  1  2  1  0
  2  3  2  0
  2  8  1  0
  3  4  1  0
  4  5  2  0
  5  6  1  0
  5  7  1  0
  7  8  2  0
  7  9  1  0
  3 10  1  0
  4 11  1  0
  6 12  1  0
  8 13  1  0
  9 14  1  0
M  END
>  <filename_input>  (7) 
7DQL_4CL_docked.sdf

>  <pdb_id>  (7) 
7DQL_4CL

>  <pose_rank>  (7) 
6

>  <num_atoms_heavy>  (7) 
9

>  <num_torsions>  (7) 
0

>  <pose>  (7) 
[-0.9917489298239651, -11.085952864225272, 6.854500239938051, -3.072655405375812, -0.2824256209716761, -1.244475655042563]

>  <energy>  (7) 
-397.23012066136414

>  <inter_energy>  (7) 
-389.346604382424

>  <intra_energy>  (7) 
0.0

>  <rmsd>  (7) 
3.56

>  <sdf_rank>  (7) 
0

$$$$

     RDKit          3D

 14 14  0  0  0  0  0  0  0  0999 V2000
   -1.0778   -5.6210    7.3964 Cl  0  0  0  0  0  0  0  0  0  0  0  0
   -1.5249   -7.2771    7.1004 C   0  0  0  0  0  0  0  0  0  0  0  0
   -0.6865   -8.2885    7.5220 C   0  0  0  0  0  0  0  0  0  0  0  0
   -1.0516   -9.6039    7.2965 C   0  0  0  0  0  0  0  0  0  0  0  0
   -2.2539   -9.9032    6.6636 C   0  0  0  0  0  0  0  0  0  0  0  0
   -2.6345  -11.1907    6.4476 O   0  0  0  0  0  0  0  0  0  0  0  0
   -3.0905   -8.8631    6.2425 C   0  0  0  0  0  0  0  0  0  0  0  0
   -2.7177   -7.5439    6.4542 C   0  0  0  0  0  0  0  0  0  0  0  0
   -4.2723   -9.1670    5.6442 O   0  0  0  0  0  0  0  0  0  0  0  0
    0.2598   -8.0522    8.0307 H   0  0  0  0  0  0  0  0  0  0  0  0
   -0.3868  -10.4185    7.6199 H   0  0  0  0  0  0  0  0  0  0  0  0
   -3.4938  -11.3836    5.9955 H   0  0  0  0  0  0  0  0  0  0  0  0
   -3.3626   -6.7209    6.1125 H   0  0  0  0  0  0  0  0  0  0  0  0
   -4.8744   -8.4420    5.3410 H   0  0  0  0  0  0  0  0  0  0  0  0
  1  2  1  0
  2  3  2  0
  2  8  1  0
  3  4  1  0
  4  5  2  0
  5  6  1  0
  5  7  1  0
  7  8  2  0
  7  9  1  0
  3 10  1  0
  4 11  1  0
  6 12  1  0
  8 13  1  0
  9 14  1  0
M  END
>  <filename_input>  (8) 
7DQL_4CL_docked.sdf

>  <pdb_id>  (8) 
7DQL_4CL

>  <pose_rank>  (8) 
7

>  <num_atoms_heavy>  (8) 
9

>  <num_torsions>  (8) 
0

>  <pose>  (8) 
[-1.0777549487072264, -5.621006369661933, 7.396358079092921, 0.5707919206705572, 2.9167258733097343, 0.7589486294297095]

>  <energy>  (8) 
-416.6111145258352

>  <inter_energy>  (8) 
-414.0995475521529

>  <intra_energy>  (8) 
0.0

>  <rmsd>  (8) 
2.34677

>  <sdf_rank>  (8) 
0

$$$$

     RDKit          3D

 14 14  0  0  0  0  0  0  0  0999 V2000
   -4.2414  -10.0428    5.6269 Cl  0  0  0  0  0  0  0  0  0  0  0  0
   -2.9492   -8.9627    6.0671 C   0  0  0  0  0  0  0  0  0  0  0  0
   -1.8721   -9.4524    6.7768 C   0  0  0  0  0  0  0  0  0  0  0  0
   -0.8408   -8.5936    7.1136 C   0  0  0  0  0  0  0  0  0  0  0  0
   -0.8836   -7.2565    6.7314 C   0  0  0  0  0  0  0  0  0  0  0  0
    0.1283   -6.4027    7.0415 O   0  0  0  0  0  0  0  0  0  0  0  0
   -1.9854   -6.7785    6.0127 C   0  0  0  0  0  0  0  0  0  0  0  0
   -3.0270   -7.6353    5.6883 C   0  0  0  0  0  0  0  0  0  0  0  0
   -2.0073   -5.4757    5.6263 O   0  0  0  0  0  0  0  0  0  0  0  0
   -1.8337  -10.5116    7.0710 H   0  0  0  0  0  0  0  0  0  0  0  0
    0.0187   -8.9706    7.6873 H   0  0  0  0  0  0  0  0  0  0  0  0
    0.0796   -5.4546    6.7608 H   0  0  0  0  0  0  0  0  0  0  0  0
   -3.9032   -7.2635    5.1369 H   0  0  0  0  0  0  0  0  0  0  0  0
   -2.7799   -5.1233    5.1173 H   0  0  0  0  0  0  0  0  0  0  0  0
  1  2  1  0
  2  3  2  0
  2  8  1  0
  3  4  1  0
  4  5  2  0
  5  6  1  0
  5  7  1  0
  7  8  2  0
  7  9  1  0
  3 10  1  0
  4 11  1  0
  6 12  1  0
  8 13  1  0
  9 14  1  0
M  END
>  <filename_input>  (9) 
7DQL_4CL_docked.sdf

>  <pdb_id>  (9) 
7DQL_4CL

>  <pose_rank>  (9) 
8

>  <num_atoms_heavy>  (9) 
9

>  <num_torsions>  (9) 
0

>  <pose>  (9) 
[-4.241363508484603, -10.042780774907225, 5.6269143024642645, 2.004543721311423, 0.0699223951081476, -3.1655756896385587]

>  <energy>  (9) 
-331.6875155334464

>  <inter_energy>  (9) 
-311.56757189345046

>  <intra_energy>  (9) 
0.0

>  <rmsd>  (9) 
3.95822

>  <sdf_rank>  (9) 
0

$$$$

     RDKit          3D

 14 14  0  0  0  0  0  0  0  0999 V2000
   -4.7374   -9.5002    5.6213 Cl  0  0  0  0  0  0  0  0  0  0  0  0
   -3.8617   -8.0170    5.8733 C   0  0  0  0  0  0  0  0  0  0  0  0
   -4.5313   -6.9110    6.3547 C   0  0  0  0  0  0  0  0  0  0  0  0
   -3.8292   -5.7376    6.5660 C   0  0  0  0  0  0  0  0  0  0  0  0
   -2.4634   -5.6772    6.3076 C   0  0  0  0  0  0  0  0  0  0  0  0
   -1.7557   -4.5363    6.5238 O   0  0  0  0  0  0  0  0  0  0  0  0
   -1.8021   -6.8097    5.8187 C   0  0  0  0  0  0  0  0  0  0  0  0
   -2.5085   -7.9817    5.5918 C   0  0  0  0  0  0  0  0  0  0  0  0
   -0.4641   -6.7459    5.5896 O   0  0  0  0  0  0  0  0  0  0  0  0
   -5.6093   -6.9614    6.5678 H   0  0  0  0  0  0  0  0  0  0  0  0
   -4.3543   -4.8467    6.9408 H   0  0  0  0  0  0  0  0  0  0  0  0
   -0.7844   -4.5129    6.3339 H   0  0  0  0  0  0  0  0  0  0  0  0
   -1.9988   -8.8713    5.1932 H   0  0  0  0  0  0  0  0  0  0  0  0
    0.0173   -7.5388    5.2438 H   0  0  0  0  0  0  0  0  0  0  0  0
  1  2  1  0
  2  3  2  0
  2  8  1  0
  3  4  1  0
  4  5  2  0
  5  6  1  0
  5  7  1  0
  7  8  2  0
  7  9  1  0
  3 10  1  0
  4 11  1  0
  6 12  1  0
  8 13  1  0
  9 14  1  0
M  END
>  <filename_input>  (10) 
7DQL_4CL_docked.sdf

>  <pdb_id>  (10) 
7DQL_4CL

>  <pose_rank>  (10) 
9

>  <num_atoms_heavy>  (10) 
9

>  <num_torsions>  (10) 
0

>  <pose>  (10) 
[-4.7373864302597894, -9.500205266940522, 5.621327122164344, -3.1503247747428587, 1.1207181119554737, -0.09798994083075901]

>  <energy>  (10) 
-297.5478477608058

>  <inter_energy>  (10) 
-277.8280997497322

>  <intra_energy>  (10) 
0.0

>  <rmsd>  (10) 
4.04629

>  <sdf_rank>  (10) 
0

$$$$

     RDKit          3D

 14 14  0  0  0  0  0  0  0  0999 V2000
   -4.7952   -3.4576    7.1847 Cl  0  0  0  0  0  0  0  0  0  0  0  0
   -4.4090   -5.1284    6.8859 C   0  0  0  0  0  0  0  0  0  0  0  0
   -5.4253   -6.0144    6.5928 C   0  0  0  0  0  0  0  0  0  0  0  0
   -5.1129   -7.3390    6.3431 C   0  0  0  0  0  0  0  0  0  0  0  0
   -3.7903   -7.7696    6.3755 C   0  0  0  0  0  0  0  0  0  0  0  0
   -3.4649   -9.0645    6.1180 O   0  0  0  0  0  0  0  0  0  0  0  0
   -2.7735   -6.8558    6.6757 C   0  0  0  0  0  0  0  0  0  0  0  0
   -3.0875   -5.5311    6.9415 C   0  0  0  0  0  0  0  0  0  0  0  0
   -1.4833   -7.2824    6.6840 O   0  0  0  0  0  0  0  0  0  0  0  0
   -6.4701   -5.6722    6.5581 H   0  0  0  0  0  0  0  0  0  0  0  0
   -5.9157   -8.0564    6.1174 H   0  0  0  0  0  0  0  0  0  0  0  0
   -2.5179   -9.3519    6.1459 H   0  0  0  0  0  0  0  0  0  0  0  0
   -2.2955   -4.8104    7.1932 H   0  0  0  0  0  0  0  0  0  0  0  0
   -0.7534   -6.6476    6.8946 H   0  0  0  0  0  0  0  0  0  0  0  0
  1  2  1  0
  2  3  2  0
  2  8  1  0
  3  4  1  0
  4  5  2  0
  5  6  1  0
  5  7  1  0
  7  8  2  0
  7  9  1  0
  3 10  1  0
  4 11  1  0
  6 12  1  0
  8 13  1  0
  9 14  1  0
M  END
>  <filename_input>  (11) 
7DQL_4CL_docked.sdf

>  <pdb_id>  (11) 
7DQL_4CL

>  <pose_rank>  (11) 
10

>  <num_atoms_heavy>  (11) 
9

>  <num_torsions>  (11) 
0

>  <pose>  (11) 
[-4.795224723956138, -3.4576259040721635, 7.184712956672169, 1.9061557250030396, -2.8905786117129098, -4.599521628355927]

>  <energy>  (11) 
-344.62146041031406

>  <inter_energy>  (11) 
-338.14234318060124

>  <intra_energy>  (11) 
0.0

>  <rmsd>  (11) 
3.22046

>  <sdf_rank>  (11) 
0

$$$$

     RDKit          3D

 14 14  0  0  0  0  0  0  0  0999 V2000
   -3.7578   -4.8595    7.4167 Cl  0  0  0  0  0  0  0  0  0  0  0  0
   -2.8154   -6.2864    7.0908 C   0  0  0  0  0  0  0  0  0  0  0  0
   -3.1790   -7.1118    6.0468 C   0  0  0  0  0  0  0  0  0  0  0  0
   -2.4198   -8.2380    5.7827 C   0  0  0  0  0  0  0  0  0  0  0  0
   -1.2976   -8.5281    6.5523 C   0  0  0  0  0  0  0  0  0  0  0  0
   -0.5324   -9.6227    6.2968 O   0  0  0  0  0  0  0  0  0  0  0  0
   -0.9456   -7.6789    7.6078 C   0  0  0  0  0  0  0  0  0  0  0  0
   -1.7152   -6.5582    7.8829 C   0  0  0  0  0  0  0  0  0  0  0  0
    0.1644   -7.9601    8.3398 O   0  0  0  0  0  0  0  0  0  0  0  0
   -4.0609   -6.8776    5.4324 H   0  0  0  0  0  0  0  0  0  0  0  0
   -2.7054   -8.9085    4.9588 H   0  0  0  0  0  0  0  0  0  0  0  0
    0.2625   -9.8123    6.8557 H   0  0  0  0  0  0  0  0  0  0  0  0
   -1.4537   -5.8944    8.7202 H   0  0  0  0  0  0  0  0  0  0  0  0
    0.4259   -7.3686    9.0894 H   0  0  0  0  0  0  0  0  0  0  0  0
  1  2  1  0
  2  3  2  0
  2  8  1  0
  3  4  1  0
  4  5  2  0
  5  6  1  0
  5  7  1  0
  7  8  2  0
  7  9  1  0
  3 10  1  0
  4 11  1  0
  6 12  1  0
  8 13  1  0
  9 14  1  0
M  END
>  <filename_input>  (12) 
7DQL_4CL_docked.sdf

>  <pdb_id>  (12) 
7DQL_4CL

>  <pose_rank>  (12) 
11

>  <num_atoms_heavy>  (12) 
9

>  <num_torsions>  (12) 
0

>  <pose>  (12) 
[-3.7577649865632687, -4.859541627183734, 7.416735295072994, -0.03813438531465526, -0.47153208112622097, 0.5782639758751053]

>  <energy>  (12) 
-344.5229320619397

>  <inter_energy>  (12) 
-334.567414669188

>  <intra_energy>  (12) 
0.0

>  <rmsd>  (12) 
2.32841

>  <sdf_rank>  (12) 
0

$$$$

     RDKit          3D

 14 14  0  0  0  0  0  0  0  0999 V2000
   -1.0811  -11.0786    6.6537 Cl  0  0  0  0  0  0  0  0  0  0  0  0
   -1.8207   -9.5078    6.5287 C   0  0  0  0  0  0  0  0  0  0  0  0
   -1.2997   -8.4565    7.2545 C   0  0  0  0  0  0  0  0  0  0  0  0
   -1.8824   -7.2065    7.1425 C   0  0  0  0  0  0  0  0  0  0  0  0
   -2.9720   -7.0096    6.3001 C   0  0  0  0  0  0  0  0  0  0  0  0
   -3.5470   -5.7845    6.1673 O   0  0  0  0  0  0  0  0  0  0  0  0
   -3.4867   -8.0889    5.5727 C   0  0  0  0  0  0  0  0  0  0  0  0
   -2.9129   -9.3457    5.6965 C   0  0  0  0  0  0  0  0  0  0  0  0
   -4.5379   -7.8810    4.7369 O   0  0  0  0  0  0  0  0  0  0  0  0
   -0.4325   -8.6100    7.9136 H   0  0  0  0  0  0  0  0  0  0  0  0
   -1.4814   -6.3628    7.7234 H   0  0  0  0  0  0  0  0  0  0  0  0
   -4.3217   -5.6642    5.5628 H   0  0  0  0  0  0  0  0  0  0  0  0
   -3.3213  -10.2021    5.1398 H   0  0  0  0  0  0  0  0  0  0  0  0
   -4.9127   -8.6348    4.2159 H   0  0  0  0  0  0  0  0  0  0  0  0
  1  2  1  0
  2  3  2  0
  2  8  1  0
  3  4  1  0
  4  5  2  0
  5  6  1  0
  5  7  1  0
  7  8  2  0
  7  9  1  0
  3 10  1  0
  4 11  1  0
  6 12  1  0
  8 13  1  0
  9 14  1  0
M  END
>  <filename_input>  (13) 
7DQL_4CL_docked.sdf

>  <pdb_id>  (13) 
7DQL_4CL

>  <pose_rank>  (13) 
12

>  <num_atoms_heavy>  (13) 
9

>  <num_torsions>  (13) 
0

>  <pose>  (13) 
[-1.0810620899882815, -11.078596899947598, 6.653723294036129, -2.038396496631651, -0.7754577683453525, 3.1480382120969135]

>  <energy>  (13) 
-453.1893345574807

>  <inter_energy>  (13) 
-455.16283052914747

>  <intra_energy>  (13) 
0.0

>  <rmsd>  (13) 
3.86423

>  <sdf_rank>  (13) 
0

$$$$

     RDKit          3D

 14 14  0  0  0  0  0  0  0  0999 V2000
   -0.4637   -5.6656    7.3835 Cl  0  0  0  0  0  0  0  0  0  0  0  0
   -1.5858   -6.8731    6.8242 C   0  0  0  0  0  0  0  0  0  0  0  0
   -2.8661   -6.4953    6.4756 C   0  0  0  0  0  0  0  0  0  0  0  0
   -3.7512   -7.4559    6.0191 C   0  0  0  0  0  0  0  0  0  0  0  0
   -3.3518   -8.7835    5.9019 C   0  0  0  0  0  0  0  0  0  0  0  0
   -4.2045   -9.7373    5.4411 O   0  0  0  0  0  0  0  0  0  0  0  0
   -2.0490   -9.1472    6.2615 C   0  0  0  0  0  0  0  0  0  0  0  0
   -1.1660   -8.1874    6.7340 C   0  0  0  0  0  0  0  0  0  0  0  0
   -1.6628  -10.4429    6.1232 O   0  0  0  0  0  0  0  0  0  0  0  0
   -3.1792   -5.4441    6.5594 H   0  0  0  0  0  0  0  0  0  0  0  0
   -4.7774   -7.1681    5.7470 H   0  0  0  0  0  0  0  0  0  0  0  0
   -3.9018  -10.6768    5.3648 H   0  0  0  0  0  0  0  0  0  0  0  0
   -0.1453   -8.4682    7.0330 H   0  0  0  0  0  0  0  0  0  0  0  0
   -0.7445  -10.7151    6.3734 H   0  0  0  0  0  0  0  0  0  0  0  0
  1  2  1  0
  2  3  2  0
  2  8  1  0
  3  4  1  0
  4  5  2  0
  5  6  1  0
  5  7  1  0
  7  8  2  0
  7  9  1  0
  3 10  1  0
  4 11  1  0
  6 12  1  0
  8 13  1  0
  9 14  1  0
M  END
>  <filename_input>  (14) 
7DQL_4CL_docked.sdf

>  <pdb_id>  (14) 
7DQL_4CL

>  <pose_rank>  (14) 
13

>  <num_atoms_heavy>  (14) 
9

>  <num_torsions>  (14) 
0

>  <pose>  (14) 
[-0.4637163729580574, -5.665565424684372, 7.383483681243438, -1.1581161001719253, -2.6096096353227347, 4.9173404846249404]

>  <energy>  (14) 
-361.05331378720734

>  <inter_energy>  (14) 
-350.25554062835465

>  <intra_energy>  (14) 
0.0

>  <rmsd>  (14) 
1.57939

>  <sdf_rank>  (14) 
0

$$$$

     RDKit          3D

 14 14  0  0  0  0  0  0  0  0999 V2000
   -1.7917  -10.7501    6.2876 Cl  0  0  0  0  0  0  0  0  0  0  0  0
   -2.0339   -9.0466    6.5511 C   0  0  0  0  0  0  0  0  0  0  0  0
   -0.9632   -8.2629    6.9294 C   0  0  0  0  0  0  0  0  0  0  0  0
   -1.1569   -6.9070    7.1253 C   0  0  0  0  0  0  0  0  0  0  0  0
   -2.4122   -6.3390    6.9318 C   0  0  0  0  0  0  0  0  0  0  0  0
   -2.6163   -5.0059    7.1057 O   0  0  0  0  0  0  0  0  0  0  0  0
   -3.4861   -7.1509    6.5489 C   0  0  0  0  0  0  0  0  0  0  0  0
   -3.2961   -8.5129    6.3676 C   0  0  0  0  0  0  0  0  0  0  0  0
   -4.7031   -6.5825    6.3422 O   0  0  0  0  0  0  0  0  0  0  0  0
    0.0313   -8.7102    7.0735 H   0  0  0  0  0  0  0  0  0  0  0  0
   -0.3128   -6.2738    7.4360 H   0  0  0  0  0  0  0  0  0  0  0  0
   -3.5169   -4.6203    6.9632 H   0  0  0  0  0  0  0  0  0  0  0  0
   -4.1385   -9.1599    6.0815 H   0  0  0  0  0  0  0  0  0  0  0  0
   -5.4721   -7.1440    6.0710 H   0  0  0  0  0  0  0  0  0  0  0  0
  1  2  1  0
  2  3  2  0
  2  8  1  0
  3  4  1  0
  4  5  2  0
  5  6  1  0
  5  7  1  0
  7  8  2  0
  7  9  1  0
  3 10  1  0
  4 11  1  0
  6 12  1  0
  8 13  1  0
  9 14  1  0
M  END
>  <filename_input>  (15) 
7DQL_4CL_docked.sdf

>  <pdb_id>  (15) 
7DQL_4CL

>  <pose_rank>  (15) 
14

>  <num_atoms_heavy>  (15) 
9

>  <num_torsions>  (15) 
0

>  <pose>  (15) 
[-1.7916551682725104, -10.750094545998039, 6.287578004995705, 0.9262637194775435, 0.6586672810484863, -2.599777404352692]

>  <energy>  (15) 
-390.6509433637879

>  <inter_energy>  (15) 
-393.3412196077628

>  <intra_energy>  (15) 
0.0

>  <rmsd>  (15) 
4.23741

>  <sdf_rank>  (15) 
0

$$$$

     RDKit          3D

 14 14  0  0  0  0  0  0  0  0999 V2000
   -2.2310   -9.7268    8.3080 Cl  0  0  0  0  0  0  0  0  0  0  0  0
   -2.6866   -8.7094    6.9711 C   0  0  0  0  0  0  0  0  0  0  0  0
   -2.1561   -7.4391    6.8779 C   0  0  0  0  0  0  0  0  0  0  0  0
   -2.5106   -6.6381    5.8068 C   0  0  0  0  0  0  0  0  0  0  0  0
   -3.3812   -7.1115    4.8302 C   0  0  0  0  0  0  0  0  0  0  0  0
   -3.7281   -6.3427    3.7636 O   0  0  0  0  0  0  0  0  0  0  0  0
   -3.9095   -8.4027    4.9430 C   0  0  0  0  0  0  0  0  0  0  0  0
   -3.5668   -9.2006    6.0247 C   0  0  0  0  0  0  0  0  0  0  0  0
   -4.7423   -8.8628    3.9727 O   0  0  0  0  0  0  0  0  0  0  0  0
   -1.4606   -7.0680    7.6450 H   0  0  0  0  0  0  0  0  0  0  0  0
   -2.1013   -5.6202    5.7268 H   0  0  0  0  0  0  0  0  0  0  0  0
   -4.3491   -6.6973    3.0789 H   0  0  0  0  0  0  0  0  0  0  0  0
   -3.9898  -10.2107    6.1283 H   0  0  0  0  0  0  0  0  0  0  0  0
   -5.1237   -9.7740    4.0388 H   0  0  0  0  0  0  0  0  0  0  0  0
  1  2  1  0
  2  3  2  0
  2  8  1  0
  3  4  1  0
  4  5  2  0
  5  6  1  0
  5  7  1  0
  7  8  2  0
  7  9  1  0
  3 10  1  0
  4 11  1  0
  6 12  1  0
  8 13  1  0
  9 14  1  0
M  END
>  <filename_input>  (16) 
7DQL_4CL_docked.sdf

>  <pdb_id>  (16) 
7DQL_4CL

>  <pose_rank>  (16) 
15

>  <num_atoms_heavy>  (16) 
9

>  <num_torsions>  (16) 
0

>  <pose>  (16) 
[-2.230967399799133, -9.726772650876947, 8.308018899033346, 1.0421739931852678, -0.4198571197283306, -1.7859650818526969]

>  <energy>  (16) 
-279.7953306809192

>  <inter_energy>  (16) 
-283.60185597310243

>  <intra_energy>  (16) 
0.0

>  <rmsd>  (16) 
3.58991

>  <sdf_rank>  (16) 
0

$$$$

     RDKit          3D

 14 14  0  0  0  0  0  0  0  0999 V2000
   -0.7291   -4.3152    5.7489 Cl  0  0  0  0  0  0  0  0  0  0  0  0
   -1.2392   -5.8767    6.3246 C   0  0  0  0  0  0  0  0  0  0  0  0
   -2.4402   -6.3978    5.8890 C   0  0  0  0  0  0  0  0  0  0  0  0
   -2.8361   -7.6449    6.3387 C   0  0  0  0  0  0  0  0  0  0  0  0
   -2.0283   -8.3694    7.2096 C   0  0  0  0  0  0  0  0  0  0  0  0
   -2.3956   -9.6026    7.6494 O   0  0  0  0  0  0  0  0  0  0  0  0
   -0.8139   -7.8234    7.6409 C   0  0  0  0  0  0  0  0  0  0  0  0
   -0.4237   -6.5664    7.2027 C   0  0  0  0  0  0  0  0  0  0  0  0
   -0.0227   -8.5483    8.4748 O   0  0  0  0  0  0  0  0  0  0  0  0
   -3.0746   -5.8291    5.1932 H   0  0  0  0  0  0  0  0  0  0  0  0
   -3.7959   -8.0665    6.0055 H   0  0  0  0  0  0  0  0  0  0  0  0
   -1.8072  -10.1027    8.2689 H   0  0  0  0  0  0  0  0  0  0  0  0
    0.5220   -6.1242    7.5492 H   0  0  0  0  0  0  0  0  0  0  0  0
    0.8390   -8.1752    8.7883 H   0  0  0  0  0  0  0  0  0  0  0  0
  1  2  1  0
  2  3  2  0
  2  8  1  0
  3  4  1  0
  4  5  2  0
  5  6  1  0
  5  7  1  0
  7  8  2  0
  7  9  1  0
  3 10  1  0
  4 11  1  0
  6 12  1  0
  8 13  1  0
  9 14  1  0
M  END
>  <filename_input>  (17) 
7DQL_4CL_docked.sdf

>  <pdb_id>  (17) 
7DQL_4CL

>  <pose_rank>  (17) 
16

>  <num_atoms_heavy>  (17) 
9

>  <num_torsions>  (17) 
0

>  <pose>  (17) 
[-0.7291145274943543, -4.3152391601001465, 5.748853249665, 5.37367540352169, 0.3279084727696495, 1.4026709170869556]

>  <energy>  (17) 
-247.8644244409198

>  <inter_energy>  (17) 
-241.74351750935267

>  <intra_energy>  (17) 
0.0

>  <rmsd>  (17) 
2.48576

>  <sdf_rank>  (17) 
0

$$$$

     RDKit          3D

 14 14  0  0  0  0  0  0  0  0999 V2000
   -2.3471   -5.3838    7.0871 Cl  0  0  0  0  0  0  0  0  0  0  0  0
   -2.5595   -7.0579    6.6602 C   0  0  0  0  0  0  0  0  0  0  0  0
   -3.7333   -7.4567    6.0546 C   0  0  0  0  0  0  0  0  0  0  0  0
   -3.8931   -8.7859    5.7050 C   0  0  0  0  0  0  0  0  0  0  0  0
   -2.8787   -9.7061    5.9499 C   0  0  0  0  0  0  0  0  0  0  0  0
   -3.0137  -11.0129    5.5992 O   0  0  0  0  0  0  0  0  0  0  0  0
   -1.6956   -9.2823    6.5660 C   0  0  0  0  0  0  0  0  0  0  0  0
   -1.5410   -7.9530    6.9310 C   0  0  0  0  0  0  0  0  0  0  0  0
   -0.7029  -10.1851    6.7815 O   0  0  0  0  0  0  0  0  0  0  0  0
   -4.5317   -6.7275    5.8525 H   0  0  0  0  0  0  0  0  0  0  0  0
   -4.8284   -9.1172    5.2301 H   0  0  0  0  0  0  0  0  0  0  0  0
   -2.2807  -11.6527    5.7818 H   0  0  0  0  0  0  0  0  0  0  0  0
   -0.6203   -7.6153    7.4294 H   0  0  0  0  0  0  0  0  0  0  0  0
    0.1396   -9.9000    7.2163 H   0  0  0  0  0  0  0  0  0  0  0  0
  1  2  1  0
  2  3  2  0
  2  8  1  0
  3  4  1  0
  4  5  2  0
  5  6  1  0
  5  7  1  0
  7  8  2  0
  7  9  1  0
  3 10  1  0
  4 11  1  0
  6 12  1  0
  8 13  1  0
  9 14  1  0
M  END
>  <filename_input>  (18) 
7DQL_4CL_docked.sdf

>  <pdb_id>  (18) 
7DQL_4CL

>  <pose_rank>  (18) 
17

>  <num_atoms_heavy>  (18) 
9

>  <num_torsions>  (18) 
0

>  <pose>  (18) 
[-2.347123354147604, -5.383810750497718, 7.08706828408179, -5.316114354599135, 3.428839152810587, 0.8164411944634695]

>  <energy>  (18) 
-357.37311011269094

>  <inter_energy>  (18) 
-347.7446045523176

>  <intra_energy>  (18) 
0.0

>  <rmsd>  (18) 
0.692755

>  <sdf_rank>  (18) 
0

$$$$

     RDKit          3D

 14 14  0  0  0  0  0  0  0  0999 V2000
   -8.5840   -3.3552   10.7118 Cl  0  0  0  0  0  0  0  0  0  0  0  0
   -8.1486   -4.0721    9.1865 C   0  0  0  0  0  0  0  0  0  0  0  0
   -7.9994   -5.4411    9.1020 C   0  0  0  0  0  0  0  0  0  0  0  0
   -7.6659   -6.0084    7.8848 C   0  0  0  0  0  0  0  0  0  0  0  0
   -7.4949   -5.2101    6.7582 C   0  0  0  0  0  0  0  0  0  0  0  0
   -7.1817   -5.7530    5.5515 O   0  0  0  0  0  0  0  0  0  0  0  0
   -7.6497   -3.8231    6.8644 C   0  0  0  0  0  0  0  0  0  0  0  0
   -7.9686   -3.2522    8.0878 C   0  0  0  0  0  0  0  0  0  0  0  0
   -7.5011   -3.0548    5.7534 O   0  0  0  0  0  0  0  0  0  0  0  0
   -8.1436   -6.0732    9.9905 H   0  0  0  0  0  0  0  0  0  0  0  0
   -7.5352   -7.0978    7.8074 H   0  0  0  0  0  0  0  0  0  0  0  0
   -7.0640   -5.1684    4.7612 H   0  0  0  0  0  0  0  0  0  0  0  0
   -8.0769   -2.1617    8.1825 H   0  0  0  0  0  0  0  0  0  0  0  0
   -7.6076   -2.0723    5.8131 H   0  0  0  0  0  0  0  0  0  0  0  0
  1  2  1  0
  2  3  2  0
  2  8  1  0
  3  4  1  0
  4  5  2  0
  5  6  1  0
  5  7  1  0
  7  8  2  0
  7  9  1  0
  3 10  1  0
  4 11  1  0
  6 12  1  0
  8 13  1  0
  9 14  1  0
M  END
>  <filename_input>  (19) 
7DQL_4CL_docked.sdf

>  <pdb_id>  (19) 
7DQL_4CL

>  <pose_rank>  (19) 
18

>  <num_atoms_heavy>  (19) 
9

>  <num_torsions>  (19) 
0

>  <pose>  (19) 
[-8.584029299721676, -3.3551674905299724, 10.711787728129046, 0.3615223954251281, 1.3602970405554209, 1.5446270638000181]

>  <energy>  (19) 
-113.86779099039333

>  <inter_energy>  (19) 
-111.99840274342436

>  <intra_energy>  (19) 
0.0

>  <rmsd>  (19) 
7.79557

>  <sdf_rank>  (19) 
0

$$$$

     RDKit          3D

 14 14  0  0  0  0  0  0  0  0999 V2000
   -1.1641   -8.4009    8.3189 Cl  0  0  0  0  0  0  0  0  0  0  0  0
   -1.6901   -7.0034    7.4242 C   0  0  0  0  0  0  0  0  0  0  0  0
   -0.8431   -6.4404    6.4919 C   0  0  0  0  0  0  0  0  0  0  0  0
   -1.2698   -5.3375    5.7735 C   0  0  0  0  0  0  0  0  0  0  0  0
   -2.5407   -4.8104    5.9799 C   0  0  0  0  0  0  0  0  0  0  0  0
   -2.9810   -3.7362    5.2719 O   0  0  0  0  0  0  0  0  0  0  0  0
   -3.3850   -5.3951    6.9309 C   0  0  0  0  0  0  0  0  0  0  0  0
   -2.9520   -6.4911    7.6626 C   0  0  0  0  0  0  0  0  0  0  0  0
   -4.6320   -4.8853    7.1096 O   0  0  0  0  0  0  0  0  0  0  0  0
    0.1583   -6.8627    6.3221 H   0  0  0  0  0  0  0  0  0  0  0  0
   -0.5997   -4.8745    5.0342 H   0  0  0  0  0  0  0  0  0  0  0  0
   -3.8887   -3.3754    5.4331 H   0  0  0  0  0  0  0  0  0  0  0  0
   -3.6040   -6.9467    8.4224 H   0  0  0  0  0  0  0  0  0  0  0  0
   -5.2404   -5.2883    7.7785 H   0  0  0  0  0  0  0  0  0  0  0  0
  1  2  1  0
  2  3  2  0
  2  8  1  0
  3  4  1  0
  4  5  2  0
  5  6  1  0
  5  7  1  0
  7  8  2  0
  7  9  1  0
  3 10  1  0
  4 11  1  0
  6 12  1  0
  8 13  1  0
  9 14  1  0
M  END
>  <filename_input>  (20) 
7DQL_4CL_docked.sdf

>  <pdb_id>  (20) 
7DQL_4CL

>  <pose_rank>  (20) 
19

>  <num_atoms_heavy>  (20) 
9

>  <num_torsions>  (20) 
0

>  <pose>  (20) 
[-1.1640711516029918, -8.400891544755304, 8.318866062893708, -2.7268820399422293, -4.595138228265389, -40.077335373307356]

>  <energy>  (20) 
-260.853693372501

>  <inter_energy>  (20) 
-257.94472488292945

>  <intra_energy>  (20) 
0.0

>  <rmsd>  (20) 
4.90795

>  <sdf_rank>  (20) 
0

$$$$

     RDKit          3D

 14 14  0  0  0  0  0  0  0  0999 V2000
   -8.8152   -6.0548   13.2557 Cl  0  0  0  0  0  0  0  0  0  0  0  0
   -8.8716   -4.6854   12.1826 C   0  0  0  0  0  0  0  0  0  0  0  0
   -8.2296   -4.7560   10.9634 C   0  0  0  0  0  0  0  0  0  0  0  0
   -8.2877   -3.6703   10.1076 C   0  0  0  0  0  0  0  0  0  0  0  0
   -8.9941   -2.5267   10.4667 C   0  0  0  0  0  0  0  0  0  0  0  0
   -9.0733   -1.4567    9.6313 O   0  0  0  0  0  0  0  0  0  0  0  0
   -9.6380   -2.4739   11.7083 C   0  0  0  0  0  0  0  0  0  0  0  0
   -9.5671   -3.5560   12.5732 C   0  0  0  0  0  0  0  0  0  0  0  0
  -10.3426   -1.3603   12.0402 O   0  0  0  0  0  0  0  0  0  0  0  0
   -7.6788   -5.6636   10.6754 H   0  0  0  0  0  0  0  0  0  0  0  0
   -7.7719   -3.7116    9.1369 H   0  0  0  0  0  0  0  0  0  0  0  0
   -9.5808   -0.6518    9.9047 H   0  0  0  0  0  0  0  0  0  0  0  0
  -10.0577   -3.5162   13.5570 H   0  0  0  0  0  0  0  0  0  0  0  0
  -10.8034   -1.3085   12.9149 H   0  0  0  0  0  0  0  0  0  0  0  0
  1  2  1  0
  2  3  2  0
  2  8  1  0
  3  4  1  0
  4  5  2  0
  5  6  1  0
  5  7  1  0
  7  8  2  0
  7  9  1  0
  3 10  1  0
  4 11  1  0
  6 12  1  0
  8 13  1  0
  9 14  1  0
M  END
>  <filename_input>  (21) 
7DQL_4CL_docked.sdf

>  <pdb_id>  (21) 
7DQL_4CL

>  <pose_rank>  (21) 
20

>  <num_atoms_heavy>  (21) 
9

>  <num_torsions>  (21) 
0

>  <pose>  (21) 
[-8.815222858742604, -6.0547955022742865, 13.255665357034095, -0.8433545484953133, -0.479921011146266, -3.10934107868592]

>  <energy>  (21) 
-79.82256876767408

>  <inter_energy>  (21) 
-75.56587217831911

>  <intra_energy>  (21) 
0.0

>  <rmsd>  (21) 
10.87

>  <sdf_rank>  (21) 
0

$$$$

     RDKit          3D

 14 14  0  0  0  0  0  0  0  0999 V2000
    2.4055  -17.1174   -1.1363 Cl  0  0  0  0  0  0  0  0  0  0  0  0
    1.5742  -15.7571   -1.8353 C   0  0  0  0  0  0  0  0  0  0  0  0
    2.1420  -15.0956   -2.9047 C   0  0  0  0  0  0  0  0  0  0  0  0
    1.4719  -14.0229   -3.4659 C   0  0  0  0  0  0  0  0  0  0  0  0
    0.2362  -13.6240   -2.9662 C   0  0  0  0  0  0  0  0  0  0  0  0
   -0.4422  -12.5814   -3.5155 O   0  0  0  0  0  0  0  0  0  0  0  0
   -0.3229  -14.3073   -1.8802 C   0  0  0  0  0  0  0  0  0  0  0  0
    0.3556  -15.3729   -1.3071 C   0  0  0  0  0  0  0  0  0  0  0  0
   -1.5399  -13.9228   -1.4134 O   0  0  0  0  0  0  0  0  0  0  0  0
    3.1146  -15.4166   -3.3058 H   0  0  0  0  0  0  0  0  0  0  0  0
    1.9192  -13.4820   -4.3129 H   0  0  0  0  0  0  0  0  0  0  0  0
   -1.3203  -12.3124   -3.1459 H   0  0  0  0  0  0  0  0  0  0  0  0
   -0.0703  -15.9051   -0.4437 H   0  0  0  0  0  0  0  0  0  0  0  0
   -1.9481  -14.3966   -0.6460 H   0  0  0  0  0  0  0  0  0  0  0  0
  1  2  1  0
  2  3  2  0
  2  8  1  0
  3  4  1  0
  4  5  2  0
  5  6  1  0
  5  7  1  0
  7  8  2  0
  7  9  1  0
  3 10  1  0
  4 11  1  0
  6 12  1  0
  8 13  1  0
  9 14  1  0
M  END
>  <filename_input>  (22) 
7DQL_4CL_docked.sdf

>  <pdb_id>  (22) 
7DQL_4CL

>  <pose_rank>  (22) 
21

>  <num_atoms_heavy>  (22) 
9

>  <num_torsions>  (22) 
0

>  <pose>  (22) 
[2.4055035925226815, -17.117375162712595, -1.1363071461899696, -0.44447517931904, -0.20442576489727846, -2.5700778885864883]

>  <energy>  (22) 
-135.02354025795591

>  <inter_energy>  (22) 
-121.14916988293142

>  <intra_energy>  (22) 
0.0

>  <rmsd>  (22) 
11.1953

>  <sdf_rank>  (22) 
0

$$$$

     RDKit          3D

 14 14  0  0  0  0  0  0  0  0999 V2000
    1.2694  -18.2408   16.1835 Cl  0  0  0  0  0  0  0  0  0  0  0  0
    1.5664  -16.9235   15.0851 C   0  0  0  0  0  0  0  0  0  0  0  0
    0.7600  -16.7746   13.9755 C   0  0  0  0  0  0  0  0  0  0  0  0
    0.9910  -15.7186   13.1118 C   0  0  0  0  0  0  0  0  0  0  0  0
    2.0156  -14.8120   13.3649 C   0  0  0  0  0  0  0  0  0  0  0  0
    2.2466  -13.7605   12.5342 O   0  0  0  0  0  0  0  0  0  0  0  0
    2.8235  -14.9806   14.4953 C   0  0  0  0  0  0  0  0  0  0  0  0
    2.6024  -16.0479   15.3533 C   0  0  0  0  0  0  0  0  0  0  0  0
    3.8078  -14.0773   14.7444 O   0  0  0  0  0  0  0  0  0  0  0  0
   -0.0559  -17.4860   13.7802 H   0  0  0  0  0  0  0  0  0  0  0  0
    0.3604  -15.5951   12.2189 H   0  0  0  0  0  0  0  0  0  0  0  0
    2.9805  -13.1260   12.7312 H   0  0  0  0  0  0  0  0  0  0  0  0
    3.2427  -16.1958   16.2354 H   0  0  0  0  0  0  0  0  0  0  0  0
    4.3873  -14.1835   15.5401 H   0  0  0  0  0  0  0  0  0  0  0  0
  1  2  1  0
  2  3  2  0
  2  8  1  0
  3  4  1  0
  4  5  2  0
  5  6  1  0
  5  7  1  0
  7  8  2  0
  7  9  1  0
  3 10  1  0
  4 11  1  0
  6 12  1  0
  8 13  1  0
  9 14  1  0
M  END
>  <filename_input>  (23) 
7DQL_4CL_docked.sdf

>  <pdb_id>  (23) 
7DQL_4CL

>  <pose_rank>  (23) 
22

>  <num_atoms_heavy>  (23) 
9

>  <num_torsions>  (23) 
0

>  <pose>  (23) 
[1.2694209640487193, -18.24079758076168, 16.183467677331375, 1.791750868303904, -0.055742876660173225, 1.3952692071563308]

>  <energy>  (23) 
-132.35675262024216

>  <inter_energy>  (23) 
-115.68338387062009

>  <intra_energy>  (23) 
0.0

>  <rmsd>  (23) 
11.5493

>  <sdf_rank>  (23) 
0

$$$$

     RDKit          3D

 14 14  0  0  0  0  0  0  0  0999 V2000
    1.6577  -11.4865   -3.5277 Cl  0  0  0  0  0  0  0  0  0  0  0  0
    1.8631  -13.0397   -2.7692 C   0  0  0  0  0  0  0  0  0  0  0  0
    2.8564  -13.2044   -1.8260 C   0  0  0  0  0  0  0  0  0  0  0  0
    3.0082  -14.4370   -1.2158 C   0  0  0  0  0  0  0  0  0  0  0  0
    2.1627  -15.4932   -1.5405 C   0  0  0  0  0  0  0  0  0  0  0  0
    2.2889  -16.7065   -0.9396 O   0  0  0  0  0  0  0  0  0  0  0  0
    1.1616  -15.3065   -2.5007 C   0  0  0  0  0  0  0  0  0  0  0  0
    1.0189  -14.0756   -3.1241 C   0  0  0  0  0  0  0  0  0  0  0  0
    0.3279  -16.3386   -2.7950 O   0  0  0  0  0  0  0  0  0  0  0  0
    3.5190  -12.3669   -1.5624 H   0  0  0  0  0  0  0  0  0  0  0  0
    3.8026  -14.5828   -0.4691 H   0  0  0  0  0  0  0  0  0  0  0  0
    1.6776  -17.4459   -1.1841 H   0  0  0  0  0  0  0  0  0  0  0  0
    0.2444  -13.9257   -3.8906 H   0  0  0  0  0  0  0  0  0  0  0  0
   -0.3850  -16.2215   -3.4719 H   0  0  0  0  0  0  0  0  0  0  0  0
  1  2  1  0
  2  3  2  0
  2  8  1  0
  3  4  1  0
  4  5  2  0
  5  6  1  0
  5  7  1  0
  7  8  2  0
  7  9  1  0
  3 10  1  0
  4 11  1  0
  6 12  1  0
  8 13  1  0
  9 14  1  0
M  END
>  <filename_input>  (24) 
7DQL_4CL_docked.sdf

>  <pdb_id>  (24) 
7DQL_4CL

>  <pose_rank>  (24) 
23

>  <num_atoms_heavy>  (24) 
9

>  <num_torsions>  (24) 
0

>  <pose>  (24) 
[1.6576559632352987, -11.486455414045729, -3.527678841039073, 0.1460457971635432, -3.3455480092405216, 0.15308431969814476]

>  <energy>  (24) 
-94.12209547488413

>  <inter_energy>  (24) 
-92.0166282047208

>  <intra_energy>  (24) 
0.0

>  <rmsd>  (24) 
11.143

>  <sdf_rank>  (24) 
0

$$$$

     RDKit          3D

 14 14  0  0  0  0  0  0  0  0999 V2000
  -10.0576  -16.7189    7.8123 Cl  0  0  0  0  0  0  0  0  0  0  0  0
  -10.6581  -16.5024    9.4318 C   0  0  0  0  0  0  0  0  0  0  0  0
  -11.6543  -15.5766    9.6644 C   0  0  0  0  0  0  0  0  0  0  0  0
  -12.1382  -15.4167   10.9507 C   0  0  0  0  0  0  0  0  0  0  0  0
  -11.6352  -16.1876   11.9940 C   0  0  0  0  0  0  0  0  0  0  0  0
  -12.1100  -16.0534   13.2612 O   0  0  0  0  0  0  0  0  0  0  0  0
  -10.6241  -17.1209   11.7381 C   0  0  0  0  0  0  0  0  0  0  0  0
  -10.1276  -17.2707   10.4515 C   0  0  0  0  0  0  0  0  0  0  0  0
  -10.1547  -17.8835   12.7604 O   0  0  0  0  0  0  0  0  0  0  0  0
  -12.0585  -14.9735    8.8380 H   0  0  0  0  0  0  0  0  0  0  0  0
  -12.9258  -14.6750   11.1499 H   0  0  0  0  0  0  0  0  0  0  0  0
  -11.7393  -16.6110   13.9903 H   0  0  0  0  0  0  0  0  0  0  0  0
   -9.3224  -17.9912   10.2453 H   0  0  0  0  0  0  0  0  0  0  0  0
   -9.4397  -18.5479   12.5946 H   0  0  0  0  0  0  0  0  0  0  0  0
  1  2  1  0
  2  3  2  0
  2  8  1  0
  3  4  1  0
  4  5  2  0
  5  6  1  0
  5  7  1  0
  7  8  2  0
  7  9  1  0
  3 10  1  0
  4 11  1  0
  6 12  1  0
  8 13  1  0
  9 14  1  0
M  END
>  <filename_input>  (25) 
7DQL_4CL_docked.sdf

>  <pdb_id>  (25) 
7DQL_4CL

>  <pose_rank>  (25) 
24

>  <num_atoms_heavy>  (25) 
9

>  <num_torsions>  (25) 
0

>  <pose>  (25) 
[-10.057566056299784, -16.71887991417294, 7.81233233664334, -1.4288958780549463, 0.9467975787007811, -1.0566847364635297]

>  <energy>  (25) 
-121.93991800022536

>  <inter_energy>  (25) 
-82.0500803643676

>  <intra_energy>  (25) 
0.0

>  <rmsd>  (25) 
12.6038

>  <sdf_rank>  (25) 
0

$$$$

     RDKit          3D

 14 14  0  0  0  0  0  0  0  0999 V2000
   -2.1260   -6.0910    7.3410 Cl  0  0  0  0  0  0  0  0  0  0  0  0
   -2.3330   -7.7230    6.7720 C   0  0  0  0  0  0  0  0  0  0  0  0
   -3.4780   -8.0560    6.0780 C   0  0  0  0  0  0  0  0  0  0  0  0
   -3.6330   -9.3510    5.6160 C   0  0  0  0  0  0  0  0  0  0  0  0
   -2.6420  -10.3020    5.8380 C   0  0  0  0  0  0  0  0  0  0  0  0
   -2.7720  -11.5750    5.3780 O   0  0  0  0  0  0  0  0  0  0  0  0
   -1.4880   -9.9450    6.5450 C   0  0  0  0  0  0  0  0  0  0  0  0
   -1.3390   -8.6510    7.0220 C   0  0  0  0  0  0  0  0  0  0  0  0
   -0.5170  -10.8760    6.7380 O   0  0  0  0  0  0  0  0  0  0  0  0
   -4.2575   -7.3019    5.8944 H   0  0  0  0  0  0  0  0  0  0  0  0
   -4.5458   -9.6305    5.0695 H   0  0  0  0  0  0  0  0  0  0  0  0
   -2.0559  -12.2376    5.5460 H   0  0  0  0  0  0  0  0  0  0  0  0
   -0.4419   -8.3669    7.5916 H   0  0  0  0  0  0  0  0  0  0  0  0
    0.3048  -10.6382    7.2361 H   0  0  0  0  0  0  0  0  0  0  0  0
  1  2  1  0
  2  3  2  0
  2  8  1  0
  3  4  1  0
  4  5  2  0
  5  6  1  0
  5  7  1  0
  7  8  2  0
  7  9  1  0
  3 10  1  0
  4 11  1  0
  6 12  1  0
  8 13  1  0
  9 14  1  0
M  END
>  <filename_input>  (26) 
7DQL_4CL_docked.sdf

>  <pdb_id>  (26) 
7DQL_4CL

>  <pose_rank>  (26) 
25

>  <num_atoms_heavy>  (26) 
9

>  <num_torsions>  (26) 
0

>  <pose>  (26) 
[-2.126, -6.091, 7.341, 1e-06, 1e-06, 1e-06]

>  <energy>  (26) 
-383.4848128895959

>  <inter_energy>  (26) 
-360.5018316274178

>  <intra_energy>  (26) 
0.0

>  <rmsd>  (26) 
0.0

>  <sdf_rank>  (26) 
0

$$$$
