
     RDKit          3D

 40 43  0  0  0  0  0  0  0  0999 V2000
   26.4928   12.6629  -25.5163 C   0  0  0  0  0  0  0  0  0  0  0  0
   27.8798   11.1508  -24.2430 C   0  0  0  0  0  0  0  0  0  0  0  0
   29.0986   11.7597  -24.0876 C   0  0  0  0  0  0  0  0  0  0  0  0
   29.9606   10.8016  -23.5703 C   0  0  0  0  0  0  0  0  0  0  0  0
   31.4193   10.9845  -23.2519 C   0  0  0  0  0  0  0  0  0  0  0  0
   23.9822   12.7827  -25.2141 C   0  0  0  0  0  0  0  0  0  0  0  0
   23.5086   16.4321  -27.7923 C   0  0  0  0  0  0  0  0  0  0  0  0
   25.5244   15.3281  -27.3908 C   0  0  0  0  0  0  0  0  0  0  0  0
   24.8279   14.3999  -26.5771 C   0  0  0  0  0  0  0  0  0  0  0  0
   20.8508   12.3091  -26.0443 C   0  0  0  0  0  0  0  0  0  0  0  0
   20.8342   14.7077  -24.9512 C   0  0  0  0  0  0  0  0  0  0  0  0
   27.4397   13.2233  -26.0517 O   0  0  0  0  0  0  0  0  0  0  0  0
   26.6603   11.6518  -24.6419 N   0  0  0  0  0  0  0  0  0  0  0  0
   29.2777    9.7038  -23.3939 N   0  0  0  0  0  0  0  0  0  0  0  0
   27.9625    9.9164  -23.7792 N   0  0  0  0  0  0  0  0  0  0  0  0
   25.1576   13.2047  -25.7837 C   0  0  0  0  0  0  0  0  0  0  0  0
   22.9776   13.5685  -25.6184 N   0  0  0  0  0  0  0  0  0  0  0  0
   23.4295   14.5615  -26.4311 C   0  0  0  0  0  0  0  0  0  0  0  0
   22.8158   15.5761  -27.0573 N   0  0  0  0  0  0  0  0  0  0  0  0
   24.8228   16.3186  -27.9766 N   0  0  0  0  0  0  0  0  0  0  0  0
   26.8815   15.2394  -27.6324 N   0  0  0  0  0  0  0  0  0  0  0  0
   21.5740   13.4099  -25.2636 C   0  0  2  0  0  0  0  0  0  0  0  0
   21.1150   13.7041  -23.8355 C   0  0  0  0  0  0  0  0  0  0  0  0
   29.3456   12.8046  -24.3265 H   0  0  0  0  0  0  0  0  0  0  0  0
   31.5571   11.0017  -22.1607 H   0  0  0  0  0  0  0  0  0  0  0  0
   31.9955   10.1515  -23.6811 H   0  0  0  0  0  0  0  0  0  0  0  0
   31.7721   11.9339  -23.6811 H   0  0  0  0  0  0  0  0  0  0  0  0
   23.8814   11.9280  -24.5291 H   0  0  0  0  0  0  0  0  0  0  0  0
   22.9783   17.2695  -28.2693 H   0  0  0  0  0  0  0  0  0  0  0  0
   20.3873   11.6035  -25.3392 H   0  0  0  0  0  0  0  0  0  0  0  0
   20.0722   12.7596  -26.6774 H   0  0  0  0  0  0  0  0  0  0  0  0
   21.5735   11.7733  -26.6774 H   0  0  0  0  0  0  0  0  0  0  0  0
   21.3722   15.6669  -24.9761 H   0  0  0  0  0  0  0  0  0  0  0  0
   19.9332   15.2025  -25.3430 H   0  0  0  0  0  0  0  0  0  0  0  0
   25.8140   11.2217  -24.2422 H   0  0  0  0  0  0  0  0  0  0  0  0
   29.6557    8.8190  -23.0265 H   0  0  0  0  0  0  0  0  0  0  0  0
   27.3447   15.9378  -28.2310 H   0  0  0  0  0  0  0  0  0  0  0  0
   27.4301   14.4747  -27.2139 H   0  0  0  0  0  0  0  0  0  0  0  0
   21.8557   13.9397  -23.0571 H   0  0  0  0  0  0  0  0  0  0  0  0
   20.5010   13.1760  -23.0911 H   0  0  0  0  0  0  0  0  0  0  0  0
  1 12  2  0
  1 13  1  0
  1 16  1  0
  2  3  1  0
  2 13  1  0
  2 15  2  0
  3  4  2  0
  4  5  1  0
  4 14  1  0
  6 16  2  0
  6 17  1  0
  7 19  2  0
  7 20  1  0
  8  9  1  0
  8 20  2  0
  8 21  1  0
  9 16  1  0
  9 18  2  0
 22 10  1  6
 11 22  1  0
 11 23  1  0
 14 15  1  0
 17 18  1  0
 17 22  1  0
 18 19  1  0
 22 23  1  0
  3 24  1  0
  5 25  1  0
  5 26  1  0
  5 27  1  0
  6 28  1  0
  7 29  1  0
 10 30  1  0
 10 31  1  0
 10 32  1  0
 11 33  1  0
 11 34  1  0
 13 35  1  0
 14 36  1  0
 21 37  1  0
 21 38  1  0
 23 39  1  0
 23 40  1  0
M  END
>  <filename_input>  (1) 
7DUA_HJ0_docked.sdf

>  <pdb_id>  (1) 
7DUA_HJ0

>  <pose_rank>  (1) 
0

>  <num_atoms_heavy>  (1) 
23

>  <num_torsions>  (1) 
2

>  <pose>  (1) 
[23.982227859047313, 12.78273117793049, -25.21414929400577, 1.3259147475190274, -0.351208589102316, 6.090134996939983, -0.2981283427321637, 0.44542970529650294]

>  <energy>  (1) 
-1745.4736260552008

>  <inter_energy>  (1) 
-1761.3464436284323

>  <intra_energy>  (1) 
43.238095047548654

>  <rmsd>  (1) 
0.396609

>  <sdf_rank>  (1) 
0

$$$$

     RDKit          3D

 40 43  0  0  0  0  0  0  0  0999 V2000
   26.5266   12.6910  -25.4362 C   0  0  0  0  0  0  0  0  0  0  0  0
   27.9136   11.1209  -24.2352 C   0  0  0  0  0  0  0  0  0  0  0  0
   29.0810   11.7711  -23.9277 C   0  0  0  0  0  0  0  0  0  0  0  0
   29.9623   10.8074  -23.4550 C   0  0  0  0  0  0  0  0  0  0  0  0
   31.3832   11.0291  -23.0141 C   0  0  0  0  0  0  0  0  0  0  0  0
   24.0101   12.7595  -25.1695 C   0  0  0  0  0  0  0  0  0  0  0  0
   23.4816   16.2986  -27.8870 C   0  0  0  0  0  0  0  0  0  0  0  0
   25.5183   15.2606  -27.4201 C   0  0  0  0  0  0  0  0  0  0  0  0
   24.8340   14.3459  -26.5811 C   0  0  0  0  0  0  0  0  0  0  0  0
   21.0638   14.3204  -24.2339 C   0  0  0  0  0  0  0  0  0  0  0  0
   21.1165   11.8740  -25.2142 C   0  0  0  0  0  0  0  0  0  0  0  0
   27.4720   13.3558  -25.8385 O   0  0  0  0  0  0  0  0  0  0  0  0
   26.6955   11.5992  -24.6653 N   0  0  0  0  0  0  0  0  0  0  0  0
   29.3356    9.6630  -23.4471 N   0  0  0  0  0  0  0  0  0  0  0  0
   28.0386    9.8485  -23.9016 N   0  0  0  0  0  0  0  0  0  0  0  0
   25.1822   13.1893  -25.7398 C   0  0  0  0  0  0  0  0  0  0  0  0
   22.9920   13.5047  -25.6150 N   0  0  0  0  0  0  0  0  0  0  0  0
   23.4302   14.4779  -26.4583 C   0  0  0  0  0  0  0  0  0  0  0  0
   22.8003   15.4533  -27.1293 N   0  0  0  0  0  0  0  0  0  0  0  0
   24.8005   16.2110  -28.0508 N   0  0  0  0  0  0  0  0  0  0  0  0
   26.8802   15.1967  -27.6415 N   0  0  0  0  0  0  0  0  0  0  0  0
   21.5882   13.3243  -25.2718 C   0  0  2  0  0  0  0  0  0  0  0  0
   20.6127   12.7948  -26.3229 C   0  0  0  0  0  0  0  0  0  0  0  0
   29.2809   12.8475  -24.0348 H   0  0  0  0  0  0  0  0  0  0  0  0
   31.4293   11.0363  -21.9151 H   0  0  0  0  0  0  0  0  0  0  0  0
   32.0183   10.2192  -23.4024 H   0  0  0  0  0  0  0  0  0  0  0  0
   31.7413   11.9940  -23.4024 H   0  0  0  0  0  0  0  0  0  0  0  0
   23.9212   11.9283  -24.4546 H   0  0  0  0  0  0  0  0  0  0  0  0
   22.9374   17.1044  -28.4013 H   0  0  0  0  0  0  0  0  0  0  0  0
   21.2657   13.9369  -23.2229 H   0  0  0  0  0  0  0  0  0  0  0  0
   21.5693   15.2884  -24.3666 H   0  0  0  0  0  0  0  0  0  0  0  0
   19.9798   14.4516  -24.3666 H   0  0  0  0  0  0  0  0  0  0  0  0
   21.8157   11.0587  -25.4520 H   0  0  0  0  0  0  0  0  0  0  0  0
   20.6383   11.2419  -24.4515 H   0  0  0  0  0  0  0  0  0  0  0  0
   25.8517   11.0841  -24.3763 H   0  0  0  0  0  0  0  0  0  0  0  0
   29.7404    8.7636  -23.1502 H   0  0  0  0  0  0  0  0  0  0  0  0
   27.3342   15.8840  -28.2599 H   0  0  0  0  0  0  0  0  0  0  0  0
   27.4418   14.4619  -27.1882 H   0  0  0  0  0  0  0  0  0  0  0  0
   20.9492   12.6434  -27.3591 H   0  0  0  0  0  0  0  0  0  0  0  0
   19.6220   13.1013  -26.6896 H   0  0  0  0  0  0  0  0  0  0  0  0
  1 12  2  0
  1 13  1  0
  1 16  1  0
  2  3  1  0
  2 13  1  0
  2 15  2  0
  3  4  2  0
  4  5  1  0
  4 14  1  0
  6 16  2  0
  6 17  1  0
  7 19  2  0
  7 20  1  0
  8  9  1  0
  8 20  2  0
  8 21  1  0
  9 16  1  0
  9 18  2  0
 22 10  1  1
 11 22  1  0
 11 23  1  0
 14 15  1  0
 17 18  1  0
 17 22  1  0
 18 19  1  0
 22 23  1  0
  3 24  1  0
  5 25  1  0
  5 26  1  0
  5 27  1  0
  6 28  1  0
  7 29  1  0
 10 30  1  0
 10 31  1  0
 10 32  1  0
 11 33  1  0
 11 34  1  0
 13 35  1  0
 14 36  1  0
 21 37  1  0
 21 38  1  0
 23 39  1  0
 23 40  1  0
M  END
>  <filename_input>  (2) 
7DUA_HJ0_docked.sdf

>  <pdb_id>  (2) 
7DUA_HJ0

>  <pose_rank>  (2) 
1

>  <num_atoms_heavy>  (2) 
23

>  <num_torsions>  (2) 
2

>  <pose>  (2) 
[24.010087504382202, 12.759471631978759, -25.169545615453245, -0.04534889736801098, -0.011298600454860011, -0.01496264286672344, -6.421211036939402, 3.592469896816041]

>  <energy>  (2) 
-1720.4416311259404

>  <inter_energy>  (2) 
-1721.359604820005

>  <intra_energy>  (2) 
29.347585196892137

>  <rmsd>  (2) 
0.918084

>  <sdf_rank>  (2) 
0

$$$$

     RDKit          3D

 40 43  0  0  0  0  0  0  0  0999 V2000
   26.5016   12.7801  -25.3886 C   0  0  0  0  0  0  0  0  0  0  0  0
   28.2125   11.0990  -25.6687 C   0  0  0  0  0  0  0  0  0  0  0  0
   28.9114   11.0385  -24.4906 C   0  0  0  0  0  0  0  0  0  0  0  0
   30.0320   10.2541  -24.7308 C   0  0  0  0  0  0  0  0  0  0  0  0
   31.1195    9.9168  -23.7479 C   0  0  0  0  0  0  0  0  0  0  0  0
   23.9806   12.7555  -25.1594 C   0  0  0  0  0  0  0  0  0  0  0  0
   23.3722   16.3639  -27.7669 C   0  0  0  0  0  0  0  0  0  0  0  0
   25.4358   15.3794  -27.3024 C   0  0  0  0  0  0  0  0  0  0  0  0
   24.7707   14.4149  -26.5048 C   0  0  0  0  0  0  0  0  0  0  0  0
   20.8660   12.2044  -26.1806 C   0  0  0  0  0  0  0  0  0  0  0  0
   20.7564   14.4774  -24.8501 C   0  0  0  0  0  0  0  0  0  0  0  0
   27.1158   13.3893  -24.5230 O   0  0  0  0  0  0  0  0  0  0  0  0
   26.9980   11.6730  -25.9740 N   0  0  0  0  0  0  0  0  0  0  0  0
   29.9741    9.8439  -25.9682 N   0  0  0  0  0  0  0  0  0  0  0  0
   28.8212   10.3373  -26.5603 N   0  0  0  0  0  0  0  0  0  0  0  0
   25.1457   13.2431  -25.6967 C   0  0  0  0  0  0  0  0  0  0  0  0
   22.9445   13.4808  -25.5960 N   0  0  0  0  0  0  0  0  0  0  0  0
   23.3617   14.4958  -26.3999 C   0  0  0  0  0  0  0  0  0  0  0  0
   22.7089   15.4714  -27.0481 N   0  0  0  0  0  0  0  0  0  0  0  0
   24.6955   16.3259  -27.9127 N   0  0  0  0  0  0  0  0  0  0  0  0
   26.8022   15.3685  -27.5044 N   0  0  0  0  0  0  0  0  0  0  0  0
   21.5427   13.2423  -25.2810 C   0  0  2  0  0  0  0  0  0  0  0  0
   21.0567   13.3746  -23.8378 C   0  0  0  0  0  0  0  0  0  0  0  0
   28.6377   11.5184  -23.5394 H   0  0  0  0  0  0  0  0  0  0  0  0
   30.7373   10.0353  -22.7233 H   0  0  0  0  0  0  0  0  0  0  0  0
   31.4423    8.8764  -23.9009 H   0  0  0  0  0  0  0  0  0  0  0  0
   31.9743   10.5922  -23.9009 H   0  0  0  0  0  0  0  0  0  0  0  0
   23.9095   11.8984  -24.4736 H   0  0  0  0  0  0  0  0  0  0  0  0
   22.8085   17.1678  -28.2628 H   0  0  0  0  0  0  0  0  0  0  0  0
   20.3712   11.4454  -25.5568 H   0  0  0  0  0  0  0  0  0  0  0  0
   20.1180   12.7015  -26.8156 H   0  0  0  0  0  0  0  0  0  0  0  0
   21.6228   11.7205  -26.8156 H   0  0  0  0  0  0  0  0  0  0  0  0
   21.2625   15.4506  -24.7691 H   0  0  0  0  0  0  0  0  0  0  0  0
   19.8444   14.9806  -25.2036 H   0  0  0  0  0  0  0  0  0  0  0  0
   26.4274   11.2225  -26.7036 H   0  0  0  0  0  0  0  0  0  0  0  0
   30.6743    9.2476  -26.4320 H   0  0  0  0  0  0  0  0  0  0  0  0
   27.2415   16.0909  -28.0927 H   0  0  0  0  0  0  0  0  0  0  0  0
   27.3817   14.6381  -27.0668 H   0  0  0  0  0  0  0  0  0  0  0  0
   21.7795   13.5531  -23.0280 H   0  0  0  0  0  0  0  0  0  0  0  0
   20.4515   12.7542  -23.1604 H   0  0  0  0  0  0  0  0  0  0  0  0
  1 12  2  0
  1 13  1  0
  1 16  1  0
  2  3  1  0
  2 13  1  0
  2 15  2  0
  3  4  2  0
  4  5  1  0
  4 14  1  0
  6 16  2  0
  6 17  1  0
  7 19  2  0
  7 20  1  0
  8  9  1  0
  8 20  2  0
  8 21  1  0
  9 16  1  0
  9 18  2  0
 22 10  1  6
 11 22  1  0
 11 23  1  0
 14 15  1  0
 17 18  1  0
 17 22  1  0
 18 19  1  0
 22 23  1  0
  3 24  1  0
  5 25  1  0
  5 26  1  0
  5 27  1  0
  6 28  1  0
  7 29  1  0
 10 30  1  0
 10 31  1  0
 10 32  1  0
 11 33  1  0
 11 34  1  0
 13 35  1  0
 14 36  1  0
 21 37  1  0
 21 38  1  0
 23 39  1  0
 23 40  1  0
M  END
>  <filename_input>  (3) 
7DUA_HJ0_docked.sdf

>  <pdb_id>  (3) 
7DUA_HJ0

>  <pose_rank>  (3) 
2

>  <num_atoms_heavy>  (3) 
23

>  <num_torsions>  (3) 
2

>  <pose>  (3) 
[23.980599550200417, 12.755521518751667, -25.159375344451096, 2.1415563838836436, 4.868021938466053, -3.280389150770631, 1.1115965911879366, 0.33576811100572745]

>  <energy>  (3) 
-1653.4737944835772

>  <inter_energy>  (3) 
-1641.5501356633904

>  <intra_energy>  (3) 
10.674497641951824

>  <rmsd>  (3) 
0.922581

>  <sdf_rank>  (3) 
0

$$$$

     RDKit          3D

 40 43  0  0  0  0  0  0  0  0999 V2000
   25.7158   12.1220  -25.1589 C   0  0  0  0  0  0  0  0  0  0  0  0
   28.0753   12.1626  -24.6464 C   0  0  0  0  0  0  0  0  0  0  0  0
   28.6343   11.0630  -25.2451 C   0  0  0  0  0  0  0  0  0  0  0  0
   29.9298   10.9573  -24.7561 C   0  0  0  0  0  0  0  0  0  0  0  0
   30.9346    9.8916  -25.0983 C   0  0  0  0  0  0  0  0  0  0  0  0
   23.2469   12.6245  -24.9118 C   0  0  0  0  0  0  0  0  0  0  0  0
   23.4132   16.3564  -27.4088 C   0  0  0  0  0  0  0  0  0  0  0  0
   25.2222   14.9441  -26.9885 C   0  0  0  0  0  0  0  0  0  0  0  0
   24.3689   14.1186  -26.2143 C   0  0  0  0  0  0  0  0  0  0  0  0
   20.6619   14.0896  -23.5762 C   0  0  0  0  0  0  0  0  0  0  0  0
   20.1233   12.5044  -25.6124 C   0  0  0  0  0  0  0  0  0  0  0  0
   25.6810   10.9100  -25.3239 O   0  0  0  0  0  0  0  0  0  0  0  0
   26.8501   12.7668  -24.8235 N   0  0  0  0  0  0  0  0  0  0  0  0
   30.1340   11.9605  -23.9470 N   0  0  0  0  0  0  0  0  0  0  0  0
   28.9917   12.7449  -23.8935 N   0  0  0  0  0  0  0  0  0  0  0  0
   24.4882   12.8704  -25.4434 C   0  0  0  0  0  0  0  0  0  0  0  0
   22.3873   13.5653  -25.3194 N   0  0  0  0  0  0  0  0  0  0  0  0
   23.0091   14.4927  -26.0965 C   0  0  0  0  0  0  0  0  0  0  0  0
   22.5769   15.6033  -26.7113 N   0  0  0  0  0  0  0  0  0  0  0  0
   24.6984   16.0437  -27.5655 N   0  0  0  0  0  0  0  0  0  0  0  0
   26.5551   14.6504  -27.2009 N   0  0  0  0  0  0  0  0  0  0  0  0
   20.9672   13.6195  -25.0011 C   0  0  2  0  0  0  0  0  0  0  0  0
   19.9554   13.9411  -26.1008 C   0  0  0  0  0  0  0  0  0  0  0  0
   28.1504   10.3941  -25.9720 H   0  0  0  0  0  0  0  0  0  0  0  0
   31.3414    9.4601  -24.1718 H   0  0  0  0  0  0  0  0  0  0  0  0
   30.4451    9.1015  -25.6867 H   0  0  0  0  0  0  0  0  0  0  0  0
   31.7521   10.3337  -25.6867 H   0  0  0  0  0  0  0  0  0  0  0  0
   22.9967   11.7817  -24.2507 H   0  0  0  0  0  0  0  0  0  0  0  0
   23.0320   17.2759  -27.8769 H   0  0  0  0  0  0  0  0  0  0  0  0
   21.1144   13.3928  -22.8554 H   0  0  0  0  0  0  0  0  0  0  0  0
   21.0791   15.0960  -23.4248 H   0  0  0  0  0  0  0  0  0  0  0  0
   19.5727   14.1176  -23.4248 H   0  0  0  0  0  0  0  0  0  0  0  0
   20.5935   11.7535  -26.2644 H   0  0  0  0  0  0  0  0  0  0  0  0
   19.4459   11.7347  -25.2139 H   0  0  0  0  0  0  0  0  0  0  0  0
   26.7973   13.7867  -24.6897 H   0  0  0  0  0  0  0  0  0  0  0  0
   31.0061   12.1412  -23.4296 H   0  0  0  0  0  0  0  0  0  0  0  0
   27.1368   15.2807  -27.7712 H   0  0  0  0  0  0  0  0  0  0  0  0
   26.9673   13.8011  -26.7890 H   0  0  0  0  0  0  0  0  0  0  0  0
   20.3052   14.2256  -27.1042 H   0  0  0  0  0  0  0  0  0  0  0  0
   19.1079   14.6354  -26.1997 H   0  0  0  0  0  0  0  0  0  0  0  0
  1 12  2  0
  1 13  1  0
  1 16  1  0
  2  3  1  0
  2 13  1  0
  2 15  2  0
  3  4  2  0
  4  5  1  0
  4 14  1  0
  6 16  2  0
  6 17  1  0
  7 19  2  0
  7 20  1  0
  8  9  1  0
  8 20  2  0
  8 21  1  0
  9 16  1  0
  9 18  2  0
 22 10  1  1
 11 22  1  0
 11 23  1  0
 14 15  1  0
 17 18  1  0
 17 22  1  0
 18 19  1  0
 22 23  1  0
  3 24  1  0
  5 25  1  0
  5 26  1  0
  5 27  1  0
  6 28  1  0
  7 29  1  0
 10 30  1  0
 10 31  1  0
 10 32  1  0
 11 33  1  0
 11 34  1  0
 13 35  1  0
 14 36  1  0
 21 37  1  0
 21 38  1  0
 23 39  1  0
 23 40  1  0
M  END
>  <filename_input>  (4) 
7DUA_HJ0_docked.sdf

>  <pdb_id>  (4) 
7DUA_HJ0

>  <pose_rank>  (4) 
3

>  <num_atoms_heavy>  (4) 
23

>  <num_torsions>  (4) 
2

>  <pose>  (4) 
[23.24693243780526, 12.624504339494981, -24.91176670315577, -0.4650823531783955, 0.6639103906953848, 6.031720368459092, -2.5761167192451504, 3.132886882021353]

>  <energy>  (4) 
-1173.7317806569135

>  <inter_energy>  (4) 
-1176.8608814322936

>  <intra_energy>  (4) 
19.309151849993082

>  <rmsd>  (4) 
1.60343

>  <sdf_rank>  (4) 
0

$$$$

     RDKit          3D

 40 43  0  0  0  0  0  0  0  0999 V2000
   26.4077   13.0195  -25.2469 C   0  0  0  0  0  0  0  0  0  0  0  0
   28.0475   11.2519  -25.3826 C   0  0  0  0  0  0  0  0  0  0  0  0
   28.7984   11.3132  -24.2370 C   0  0  0  0  0  0  0  0  0  0  0  0
   29.8801   10.4622  -24.4225 C   0  0  0  0  0  0  0  0  0  0  0  0
   31.0008   10.2097  -23.4515 C   0  0  0  0  0  0  0  0  0  0  0  0
   23.8891   13.0345  -24.9918 C   0  0  0  0  0  0  0  0  0  0  0  0
   23.3004   16.5785  -27.6905 C   0  0  0  0  0  0  0  0  0  0  0  0
   25.3559   15.5798  -27.2201 C   0  0  0  0  0  0  0  0  0  0  0  0
   24.6866   14.6461  -26.3899 C   0  0  0  0  0  0  0  0  0  0  0  0
   20.8660   14.6169  -24.1763 C   0  0  0  0  0  0  0  0  0  0  0  0
   21.0491   12.0917  -24.9104 C   0  0  0  0  0  0  0  0  0  0  0  0
   27.0813   13.7086  -24.4927 O   0  0  0  0  0  0  0  0  0  0  0  0
   26.8396   11.8292  -25.7070 N   0  0  0  0  0  0  0  0  0  0  0  0
   29.7510    9.9022  -25.5940 N   0  0  0  0  0  0  0  0  0  0  0  0
   28.5886   10.3613  -26.1949 N   0  0  0  0  0  0  0  0  0  0  0  0
   25.0548   13.4918  -25.5540 C   0  0  0  0  0  0  0  0  0  0  0  0
   22.8580   13.7612  -25.4377 N   0  0  0  0  0  0  0  0  0  0  0  0
   23.2799   14.7485  -26.2730 C   0  0  0  0  0  0  0  0  0  0  0  0
   22.6331   15.7147  -26.9411 N   0  0  0  0  0  0  0  0  0  0  0  0
   24.6215   16.5191  -27.8485 N   0  0  0  0  0  0  0  0  0  0  0  0
   26.7198   15.5453  -27.4354 N   0  0  0  0  0  0  0  0  0  0  0  0
   21.4565   13.5500  -25.1023 C   0  0  2  0  0  0  0  0  0  0  0  0
   20.5284   12.8757  -26.1126 C   0  0  0  0  0  0  0  0  0  0  0  0
   28.5853   11.9191  -23.3439 H   0  0  0  0  0  0  0  0  0  0  0  0
   30.6209   10.2953  -22.4227 H   0  0  0  0  0  0  0  0  0  0  0  0
   31.4031    9.1984  -23.6108 H   0  0  0  0  0  0  0  0  0  0  0  0
   31.7980   10.9508  -23.6108 H   0  0  0  0  0  0  0  0  0  0  0  0
   23.8140   12.1972  -24.2823 H   0  0  0  0  0  0  0  0  0  0  0  0
   22.7421   17.3761  -28.2024 H   0  0  0  0  0  0  0  0  0  0  0  0
   21.0283   14.3236  -23.1287 H   0  0  0  0  0  0  0  0  0  0  0  0
   21.3586   15.5817  -24.3676 H   0  0  0  0  0  0  0  0  0  0  0  0
   19.7869   14.7118  -24.3676 H   0  0  0  0  0  0  0  0  0  0  0  0
   21.7889   11.2906  -25.0551 H   0  0  0  0  0  0  0  0  0  0  0  0
   20.5834   11.5153  -24.0975 H   0  0  0  0  0  0  0  0  0  0  0  0
   26.2210   11.3128  -26.3485 H   0  0  0  0  0  0  0  0  0  0  0  0
   30.4088    9.2258  -26.0072 H   0  0  0  0  0  0  0  0  0  0  0  0
   27.1624   16.2456  -28.0475 H   0  0  0  0  0  0  0  0  0  0  0  0
   27.2943   14.8194  -26.9838 H   0  0  0  0  0  0  0  0  0  0  0  0
   20.8935   12.6400  -27.1231 H   0  0  0  0  0  0  0  0  0  0  0  0
   19.5331   13.0986  -26.5245 H   0  0  0  0  0  0  0  0  0  0  0  0
  1 12  2  0
  1 13  1  0
  1 16  1  0
  2  3  1  0
  2 13  1  0
  2 15  2  0
  3  4  2  0
  4  5  1  0
  4 14  1  0
  6 16  2  0
  6 17  1  0
  7 19  2  0
  7 20  1  0
  8  9  1  0
  8 20  2  0
  8 21  1  0
  9 16  1  0
  9 18  2  0
 22 10  1  1
 11 22  1  0
 11 23  1  0
 14 15  1  0
 17 18  1  0
 17 22  1  0
 18 19  1  0
 22 23  1  0
  3 24  1  0
  5 25  1  0
  5 26  1  0
  5 27  1  0
  6 28  1  0
  7 29  1  0
 10 30  1  0
 10 31  1  0
 10 32  1  0
 11 33  1  0
 11 34  1  0
 13 35  1  0
 14 36  1  0
 21 37  1  0
 21 38  1  0
 23 39  1  0
 23 40  1  0
M  END
>  <filename_input>  (5) 
7DUA_HJ0_docked.sdf

>  <pdb_id>  (5) 
7DUA_HJ0

>  <pose_rank>  (5) 
4

>  <num_atoms_heavy>  (5) 
23

>  <num_torsions>  (5) 
2

>  <pose>  (5) 
[23.88906022151466, 13.03445649760229, -24.991845614211382, 5.7062398758062205, 2.396040544253452, -0.8002102273805508, -5.279545176762157, -2.582655429949871]

>  <energy>  (5) 
-1481.108626384049

>  <inter_energy>  (5) 
-1496.4186786372766

>  <intra_energy>  (5) 
1.8797591785176253

>  <rmsd>  (5) 
1.12024

>  <sdf_rank>  (5) 
0

$$$$

     RDKit          3D

 40 43  0  0  0  0  0  0  0  0999 V2000
   25.7231   12.0491  -24.9874 C   0  0  0  0  0  0  0  0  0  0  0  0
   28.0805   11.7205  -25.3950 C   0  0  0  0  0  0  0  0  0  0  0  0
   28.3597   10.4113  -25.0982 C   0  0  0  0  0  0  0  0  0  0  0  0
   29.7429   10.2871  -25.1020 C   0  0  0  0  0  0  0  0  0  0  0  0
   30.5336    9.0423  -24.8057 C   0  0  0  0  0  0  0  0  0  0  0  0
   23.2235   12.4337  -24.8743 C   0  0  0  0  0  0  0  0  0  0  0  0
   23.3234   16.0646  -27.5194 C   0  0  0  0  0  0  0  0  0  0  0  0
   25.1780   14.7654  -26.9572 C   0  0  0  0  0  0  0  0  0  0  0  0
   24.3308   13.9293  -26.1877 C   0  0  0  0  0  0  0  0  0  0  0  0
   20.1520   12.1643  -25.7993 C   0  0  0  0  0  0  0  0  0  0  0  0
   20.2541   14.6846  -25.0333 C   0  0  0  0  0  0  0  0  0  0  0  0
   25.6453   11.1384  -24.1738 O   0  0  0  0  0  0  0  0  0  0  0  0
   26.8819   12.3690  -25.5955 N   0  0  0  0  0  0  0  0  0  0  0  0
   30.2469   11.4474  -25.4221 N   0  0  0  0  0  0  0  0  0  0  0  0
   29.2162   12.3487  -25.6425 N   0  0  0  0  0  0  0  0  0  0  0  0
   24.4749   12.7213  -25.3592 C   0  0  0  0  0  0  0  0  0  0  0  0
   22.3388   13.3117  -25.3606 N   0  0  0  0  0  0  0  0  0  0  0  0
   22.9500   14.2375  -26.1479 C   0  0  0  0  0  0  0  0  0  0  0  0
   22.4931   15.2985  -26.8288 N   0  0  0  0  0  0  0  0  0  0  0  0
   24.6283   15.8122  -27.6041 N   0  0  0  0  0  0  0  0  0  0  0  0
   26.5323   14.5322  -27.0961 N   0  0  0  0  0  0  0  0  0  0  0  0
   20.9041   13.3058  -25.1096 C   0  0  2  0  0  0  0  0  0  0  0  0
   20.3655   13.8249  -23.7765 C   0  0  0  0  0  0  0  0  0  0  0  0
   27.6296    9.6137  -24.8963 H   0  0  0  0  0  0  0  0  0  0  0  0
   30.6168    8.9112  -23.7167 H   0  0  0  0  0  0  0  0  0  0  0  0
   30.0229    8.1711  -25.2419 H   0  0  0  0  0  0  0  0  0  0  0  0
   31.5392    9.1341  -25.2419 H   0  0  0  0  0  0  0  0  0  0  0  0
   22.9842   11.6067  -24.1896 H   0  0  0  0  0  0  0  0  0  0  0  0
   22.9197   16.9435  -28.0434 H   0  0  0  0  0  0  0  0  0  0  0  0
   19.7148   11.5009  -25.0385 H   0  0  0  0  0  0  0  0  0  0  0  0
   19.3504   12.5802  -26.4274 H   0  0  0  0  0  0  0  0  0  0  0  0
   20.8504   11.5918  -26.4274 H   0  0  0  0  0  0  0  0  0  0  0  0
   20.8708   15.5895  -25.1368 H   0  0  0  0  0  0  0  0  0  0  0  0
   19.4297   15.1855  -25.5618 H   0  0  0  0  0  0  0  0  0  0  0  0
   26.8707   13.1565  -26.2593 H   0  0  0  0  0  0  0  0  0  0  0  0
   31.2517   11.6603  -25.4991 H   0  0  0  0  0  0  0  0  0  0  0  0
   27.1085   15.1679  -27.6660 H   0  0  0  0  0  0  0  0  0  0  0  0
   26.9660   13.7227  -26.6298 H   0  0  0  0  0  0  0  0  0  0  0  0
   21.0628   14.1100  -22.9749 H   0  0  0  0  0  0  0  0  0  0  0  0
   19.6553   13.4496  -23.0250 H   0  0  0  0  0  0  0  0  0  0  0  0
  1 12  2  0
  1 13  1  0
  1 16  1  0
  2  3  1  0
  2 13  1  0
  2 15  2  0
  3  4  2  0
  4  5  1  0
  4 14  1  0
  6 16  2  0
  6 17  1  0
  7 19  2  0
  7 20  1  0
  8  9  1  0
  8 20  2  0
  8 21  1  0
  9 16  1  0
  9 18  2  0
 22 10  1  6
 11 22  1  0
 11 23  1  0
 14 15  1  0
 17 18  1  0
 17 22  1  0
 18 19  1  0
 22 23  1  0
  3 24  1  0
  5 25  1  0
  5 26  1  0
  5 27  1  0
  6 28  1  0
  7 29  1  0
 10 30  1  0
 10 31  1  0
 10 32  1  0
 11 33  1  0
 11 34  1  0
 13 35  1  0
 14 36  1  0
 21 37  1  0
 21 38  1  0
 23 39  1  0
 23 40  1  0
M  END
>  <filename_input>  (6) 
7DUA_HJ0_docked.sdf

>  <pdb_id>  (6) 
7DUA_HJ0

>  <pose_rank>  (6) 
5

>  <num_atoms_heavy>  (6) 
23

>  <num_torsions>  (6) 
2

>  <pose>  (6) 
[23.223488062117386, 12.433716455166946, -24.8743125347578, 0.813541813600888, 2.6942678558745783, 5.435432946627772, 9.053393707916683, -5.715404617613608]

>  <energy>  (6) 
-1083.604480803295

>  <inter_energy>  (6) 
-1114.9679807385487

>  <intra_energy>  (6) 
50.78098096995636

>  <rmsd>  (6) 
1.47231

>  <sdf_rank>  (6) 
0

$$$$

     RDKit          3D

 40 43  0  0  0  0  0  0  0  0999 V2000
   25.7337   12.0524  -25.1602 C   0  0  0  0  0  0  0  0  0  0  0  0
   28.0246   12.1493  -24.4028 C   0  0  0  0  0  0  0  0  0  0  0  0
   28.6574   11.0379  -24.8973 C   0  0  0  0  0  0  0  0  0  0  0  0
   29.8948   10.9707  -24.2703 C   0  0  0  0  0  0  0  0  0  0  0  0
   30.9431    9.9095  -24.4640 C   0  0  0  0  0  0  0  0  0  0  0  0
   23.2349   12.4211  -25.3300 C   0  0  0  0  0  0  0  0  0  0  0  0
   23.6219   16.3772  -27.4250 C   0  0  0  0  0  0  0  0  0  0  0  0
   25.4077   15.0115  -26.8011 C   0  0  0  0  0  0  0  0  0  0  0  0
   24.4805   14.0798  -26.2709 C   0  0  0  0  0  0  0  0  0  0  0  0
   20.3677   11.9124  -25.6058 C   0  0  0  0  0  0  0  0  0  0  0  0
   20.2438   14.3291  -26.6514 C   0  0  0  0  0  0  0  0  0  0  0  0
   25.7313   10.8348  -25.2823 O   0  0  0  0  0  0  0  0  0  0  0  0
   26.8180   12.7269  -24.7311 N   0  0  0  0  0  0  0  0  0  0  0  0
   29.9996   12.0054  -23.4823 N   0  0  0  0  0  0  0  0  0  0  0  0
   28.8487   12.7729  -23.5795 N   0  0  0  0  0  0  0  0  0  0  0  0
   24.5344   12.7703  -25.6009 C   0  0  0  0  0  0  0  0  0  0  0  0
   22.4074   13.3581  -25.8070 N   0  0  0  0  0  0  0  0  0  0  0  0
   23.1016   14.3813  -26.3741 C   0  0  0  0  0  0  0  0  0  0  0  0
   22.7207   15.5255  -26.9606 N   0  0  0  0  0  0  0  0  0  0  0  0
   24.9307   16.1371  -27.3685 N   0  0  0  0  0  0  0  0  0  0  0  0
   26.7722   14.7977  -26.7887 N   0  0  0  0  0  0  0  0  0  0  0  0
   20.9525   13.3199  -25.7523 C   0  0  2  0  0  0  0  0  0  0  0  0
   20.1861   14.4891  -25.1342 C   0  0  0  0  0  0  0  0  0  0  0  0
   28.2617   10.3355  -25.6457 H   0  0  0  0  0  0  0  0  0  0  0  0
   31.2926    9.5558  -23.4828 H   0  0  0  0  0  0  0  0  0  0  0  0
   30.5128    9.0672  -25.0255 H   0  0  0  0  0  0  0  0  0  0  0  0
   31.7907   10.3296  -25.0255 H   0  0  0  0  0  0  0  0  0  0  0  0
   22.9213   11.5091  -24.8009 H   0  0  0  0  0  0  0  0  0  0  0  0
   23.2762   17.3195  -27.8750 H   0  0  0  0  0  0  0  0  0  0  0  0
   20.2657   11.6670  -24.5384 H   0  0  0  0  0  0  0  0  0  0  0  0
   19.3792   11.8742  -26.0869 H   0  0  0  0  0  0  0  0  0  0  0  0
   21.0380   11.1849  -26.0869 H   0  0  0  0  0  0  0  0  0  0  0  0
   20.8321   15.0344  -27.2567 H   0  0  0  0  0  0  0  0  0  0  0  0
   19.4955   14.2631  -27.4551 H   0  0  0  0  0  0  0  0  0  0  0  0
   26.7389   13.7500  -24.6419 H   0  0  0  0  0  0  0  0  0  0  0  0
   30.8095   12.2186  -22.8827 H   0  0  0  0  0  0  0  0  0  0  0  0
   27.4078   15.5041  -27.1860 H   0  0  0  0  0  0  0  0  0  0  0  0
   27.1541   13.9318  -26.3821 H   0  0  0  0  0  0  0  0  0  0  0  0
   20.7333   15.3092  -24.6463 H   0  0  0  0  0  0  0  0  0  0  0  0
   19.3800   14.5858  -24.3919 H   0  0  0  0  0  0  0  0  0  0  0  0
  1 12  2  0
  1 13  1  0
  1 16  1  0
  2  3  1  0
  2 13  1  0
  2 15  2  0
  3  4  2  0
  4  5  1  0
  4 14  1  0
  6 16  2  0
  6 17  1  0
  7 19  2  0
  7 20  1  0
  8  9  1  0
  8 20  2  0
  8 21  1  0
  9 16  1  0
  9 18  2  0
 22 10  1  1
 11 22  1  0
 11 23  1  0
 14 15  1  0
 17 18  1  0
 17 22  1  0
 18 19  1  0
 22 23  1  0
  3 24  1  0
  5 25  1  0
  5 26  1  0
  5 27  1  0
  6 28  1  0
  7 29  1  0
 10 30  1  0
 10 31  1  0
 10 32  1  0
 11 33  1  0
 11 34  1  0
 13 35  1  0
 14 36  1  0
 21 37  1  0
 21 38  1  0
 23 39  1  0
 23 40  1  0
M  END
>  <filename_input>  (7) 
7DUA_HJ0_docked.sdf

>  <pdb_id>  (7) 
7DUA_HJ0

>  <pose_rank>  (7) 
6

>  <num_atoms_heavy>  (7) 
23

>  <num_torsions>  (7) 
2

>  <pose>  (7) 
[23.234897052544646, 12.42111891003749, -25.32999120545101, -2.752024827322539, 4.316028335837011, 3.153168431616107, -2.73001876685264, 1.4088937723536912]

>  <energy>  (7) 
-1147.2690516364783

>  <inter_energy>  (7) 
-1209.8243619850848

>  <intra_energy>  (7) 
47.82720583645772

>  <rmsd>  (7) 
1.48349

>  <sdf_rank>  (7) 
0

$$$$

     RDKit          3D

 40 43  0  0  0  0  0  0  0  0999 V2000
   24.8082   12.5756  -24.6930 C   0  0  0  0  0  0  0  0  0  0  0  0
   27.2153   12.4293  -24.8210 C   0  0  0  0  0  0  0  0  0  0  0  0
   27.5677   11.1943  -24.3406 C   0  0  0  0  0  0  0  0  0  0  0  0
   28.9484   11.2028  -24.1916 C   0  0  0  0  0  0  0  0  0  0  0  0
   29.8021   10.0801  -23.6688 C   0  0  0  0  0  0  0  0  0  0  0  0
   22.2955   12.6096  -24.9994 C   0  0  0  0  0  0  0  0  0  0  0  0
   22.3221   16.2914  -27.5749 C   0  0  0  0  0  0  0  0  0  0  0  0
   24.2215   15.2445  -26.7148 C   0  0  0  0  0  0  0  0  0  0  0  0
   23.3843   14.2790  -26.1020 C   0  0  0  0  0  0  0  0  0  0  0  0
   19.1266   14.4492  -25.7105 C   0  0  0  0  0  0  0  0  0  0  0  0
   19.4620   12.0337  -24.7097 C   0  0  0  0  0  0  0  0  0  0  0  0
   24.7171   11.7588  -23.7863 O   0  0  0  0  0  0  0  0  0  0  0  0
   25.9964   12.9340  -25.2172 N   0  0  0  0  0  0  0  0  0  0  0  0
   29.3866   12.3624  -24.5990 N   0  0  0  0  0  0  0  0  0  0  0  0
   28.3153   13.1310  -25.0289 N   0  0  0  0  0  0  0  0  0  0  0  0
   23.5572   13.0798  -25.2662 C   0  0  0  0  0  0  0  0  0  0  0  0
   21.3893   13.3707  -25.6236 N   0  0  0  0  0  0  0  0  0  0  0  0
   21.9867   14.3931  -26.2932 C   0  0  0  0  0  0  0  0  0  0  0  0
   21.5046   15.3997  -27.0367 N   0  0  0  0  0  0  0  0  0  0  0  0
   23.6454   16.2233  -27.4404 N   0  0  0  0  0  0  0  0  0  0  0  0
   25.5993   15.2037  -26.6254 N   0  0  0  0  0  0  0  0  0  0  0  0
   19.9481   13.1606  -25.6170 C   0  0  2  0  0  0  0  0  0  0  0  0
   19.3650   11.8857  -26.2262 C   0  0  0  0  0  0  0  0  0  0  0  0
   26.8883   10.3586  -24.1167 H   0  0  0  0  0  0  0  0  0  0  0  0
   29.7920   10.0934  -22.5689 H   0  0  0  0  0  0  0  0  0  0  0  0
   29.4043    9.1194  -24.0276 H   0  0  0  0  0  0  0  0  0  0  0  0
   30.8342   10.2066  -24.0276 H   0  0  0  0  0  0  0  0  0  0  0  0
   22.0645   11.7389  -24.3681 H   0  0  0  0  0  0  0  0  0  0  0  0
   21.8916   17.1206  -28.1555 H   0  0  0  0  0  0  0  0  0  0  0  0
   18.8958   14.8112  -24.6977 H   0  0  0  0  0  0  0  0  0  0  0  0
   19.7041   15.2140  -26.2505 H   0  0  0  0  0  0  0  0  0  0  0  0
   18.1895   14.2483  -26.2505 H   0  0  0  0  0  0  0  0  0  0  0  0
   20.1880   11.4315  -24.1439 H   0  0  0  0  0  0  0  0  0  0  0  0
   18.7499   11.9606  -23.8745 H   0  0  0  0  0  0  0  0  0  0  0  0
   25.9931   13.6373  -25.9698 H   0  0  0  0  0  0  0  0  0  0  0  0
   30.3727   12.6600  -24.6009 H   0  0  0  0  0  0  0  0  0  0  0  0
   26.1670   15.9281  -27.0879 H   0  0  0  0  0  0  0  0  0  0  0  0
   26.0589   14.4489  -26.0964 H   0  0  0  0  0  0  0  0  0  0  0  0
   20.0215   11.1775  -26.7530 H   0  0  0  0  0  0  0  0  0  0  0  0
   18.5549   11.6624  -26.9361 H   0  0  0  0  0  0  0  0  0  0  0  0
  1 12  2  0
  1 13  1  0
  1 16  1  0
  2  3  1  0
  2 13  1  0
  2 15  2  0
  3  4  2  0
  4  5  1  0
  4 14  1  0
  6 16  2  0
  6 17  1  0
  7 19  2  0
  7 20  1  0
  8  9  1  0
  8 20  2  0
  8 21  1  0
  9 16  1  0
  9 18  2  0
 22 10  1  1
 11 22  1  0
 11 23  1  0
 14 15  1  0
 17 18  1  0
 17 22  1  0
 18 19  1  0
 22 23  1  0
  3 24  1  0
  5 25  1  0
  5 26  1  0
  5 27  1  0
  6 28  1  0
  7 29  1  0
 10 30  1  0
 10 31  1  0
 10 32  1  0
 11 33  1  0
 11 34  1  0
 13 35  1  0
 14 36  1  0
 21 37  1  0
 21 38  1  0
 23 39  1  0
 23 40  1  0
M  END
>  <filename_input>  (8) 
7DUA_HJ0_docked.sdf

>  <pdb_id>  (8) 
7DUA_HJ0

>  <pose_rank>  (8) 
7

>  <num_atoms_heavy>  (8) 
23

>  <num_torsions>  (8) 
2

>  <pose>  (8) 
[22.29553712912419, 12.609578768906914, -24.999421117825086, -0.29364242872574026, 6.034527539184551, 0.15904641545049752, -3.668905852794557, 4.400252758494468]

>  <energy>  (8) 
-776.9082114703674

>  <inter_energy>  (8) 
-830.211771370753

>  <intra_energy>  (8) 
49.66079474135891

>  <rmsd>  (8) 
1.9314

>  <sdf_rank>  (8) 
0

$$$$

     RDKit          3D

 40 43  0  0  0  0  0  0  0  0999 V2000
   26.6177   13.0594  -25.1920 C   0  0  0  0  0  0  0  0  0  0  0  0
   28.2910   11.3498  -24.8613 C   0  0  0  0  0  0  0  0  0  0  0  0
   29.0734   11.7531  -23.8099 C   0  0  0  0  0  0  0  0  0  0  0  0
   30.1675   10.8985  -23.7754 C   0  0  0  0  0  0  0  0  0  0  0  0
   31.3212   10.9551  -22.8119 C   0  0  0  0  0  0  0  0  0  0  0  0
   24.0975   12.8592  -25.0611 C   0  0  0  0  0  0  0  0  0  0  0  0
   23.3434   16.2775  -27.8781 C   0  0  0  0  0  0  0  0  0  0  0  0
   25.4507   15.4734  -27.2814 C   0  0  0  0  0  0  0  0  0  0  0  0
   24.8232   14.5032  -26.4606 C   0  0  0  0  0  0  0  0  0  0  0  0
   20.8625   14.2681  -24.5914 C   0  0  0  0  0  0  0  0  0  0  0  0
   21.3762   11.7034  -24.9195 C   0  0  0  0  0  0  0  0  0  0  0  0
   27.2979   13.9473  -24.6956 O   0  0  0  0  0  0  0  0  0  0  0  0
   27.0619   11.7920  -25.2987 N   0  0  0  0  0  0  0  0  0  0  0  0
   30.0166   10.0184  -24.7270 N   0  0  0  0  0  0  0  0  0  0  0  0
   28.8275   10.2671  -25.3957 N   0  0  0  0  0  0  0  0  0  0  0  0
   25.2465   13.4044  -25.5774 C   0  0  0  0  0  0  0  0  0  0  0  0
   23.0316   13.4828  -25.5759 N   0  0  0  0  0  0  0  0  0  0  0  0
   23.4088   14.4845  -26.4154 C   0  0  0  0  0  0  0  0  0  0  0  0
   22.7158   15.3754  -27.1397 N   0  0  0  0  0  0  0  0  0  0  0  0
   24.6710   16.3306  -27.9696 N   0  0  0  0  0  0  0  0  0  0  0  0
   26.8217   15.5539  -27.4287 N   0  0  0  0  0  0  0  0  0  0  0  0
   21.6383   13.1570  -25.3040 C   0  0  2  0  0  0  0  0  0  0  0  0
   20.8742   12.2391  -26.2582 C   0  0  0  0  0  0  0  0  0  0  0  0
   28.8732   12.5912  -23.1261 H   0  0  0  0  0  0  0  0  0  0  0  0
   30.9388   10.9364  -21.7806 H   0  0  0  0  0  0  0  0  0  0  0  0
   31.9782   10.0882  -22.9752 H   0  0  0  0  0  0  0  0  0  0  0  0
   31.8901   11.8823  -22.9752 H   0  0  0  0  0  0  0  0  0  0  0  0
   24.0589   12.0345  -24.3342 H   0  0  0  0  0  0  0  0  0  0  0  0
   22.7451   17.0116  -28.4377 H   0  0  0  0  0  0  0  0  0  0  0  0
   20.9530   14.1384  -23.5029 H   0  0  0  0  0  0  0  0  0  0  0  0
   21.2749   15.2462  -24.8797 H   0  0  0  0  0  0  0  0  0  0  0  0
   19.8021   14.2178  -24.8797 H   0  0  0  0  0  0  0  0  0  0  0  0
   22.2074   10.9835  -24.8923 H   0  0  0  0  0  0  0  0  0  0  0  0
   20.9103   11.1986  -24.0604 H   0  0  0  0  0  0  0  0  0  0  0  0
   26.4363   11.1028  -25.7398 H   0  0  0  0  0  0  0  0  0  0  0  0
   30.6767    9.2589  -24.9468 H   0  0  0  0  0  0  0  0  0  0  0  0
   27.2328   16.2765  -28.0367 H   0  0  0  0  0  0  0  0  0  0  0  0
   27.4330   14.8913  -26.9305 H   0  0  0  0  0  0  0  0  0  0  0  0
   21.3441   11.9058  -27.1953 H   0  0  0  0  0  0  0  0  0  0  0  0
   19.8977   12.2808  -26.7629 H   0  0  0  0  0  0  0  0  0  0  0  0
  1 12  2  0
  1 13  1  0
  1 16  1  0
  2  3  1  0
  2 13  1  0
  2 15  2  0
  3  4  2  0
  4  5  1  0
  4 14  1  0
  6 16  2  0
  6 17  1  0
  7 19  2  0
  7 20  1  0
  8  9  1  0
  8 20  2  0
  8 21  1  0
  9 16  1  0
  9 18  2  0
 22 10  1  1
 11 22  1  0
 11 23  1  0
 14 15  1  0
 17 18  1  0
 17 22  1  0
 18 19  1  0
 22 23  1  0
  3 24  1  0
  5 25  1  0
  5 26  1  0
  5 27  1  0
  6 28  1  0
  7 29  1  0
 10 30  1  0
 10 31  1  0
 10 32  1  0
 11 33  1  0
 11 34  1  0
 13 35  1  0
 14 36  1  0
 21 37  1  0
 21 38  1  0
 23 39  1  0
 23 40  1  0
M  END
>  <filename_input>  (9) 
7DUA_HJ0_docked.sdf

>  <pdb_id>  (9) 
7DUA_HJ0

>  <pose_rank>  (9) 
8

>  <num_atoms_heavy>  (9) 
23

>  <num_torsions>  (9) 
2

>  <pose>  (9) 
[24.097525778180362, 12.859193296086795, -25.06107263187322, -0.06284406146580304, -0.06814820504507388, 0.09189266381344766, -5.572596215317891, -2.4530789612026616]

>  <energy>  (9) 
-1557.6056051956964

>  <inter_energy>  (9) 
-1576.0027142560145

>  <intra_energy>  (9) 
6.6552209673021405

>  <rmsd>  (9) 
1.03735

>  <sdf_rank>  (9) 
0

$$$$

     RDKit          3D

 40 43  0  0  0  0  0  0  0  0999 V2000
   26.5713   12.5213  -25.4506 C   0  0  0  0  0  0  0  0  0  0  0  0
   28.0256   11.1783  -24.0674 C   0  0  0  0  0  0  0  0  0  0  0  0
   29.2407   11.8126  -24.0297 C   0  0  0  0  0  0  0  0  0  0  0  0
   30.1346   10.9283  -23.4400 C   0  0  0  0  0  0  0  0  0  0  0  0
   31.6014   11.1603  -23.2010 C   0  0  0  0  0  0  0  0  0  0  0  0
   24.0555   12.5480  -25.1703 C   0  0  0  0  0  0  0  0  0  0  0  0
   23.4723   16.1956  -27.7284 C   0  0  0  0  0  0  0  0  0  0  0  0
   25.5232   15.1626  -27.3160 C   0  0  0  0  0  0  0  0  0  0  0  0
   24.8538   14.2041  -26.5148 C   0  0  0  0  0  0  0  0  0  0  0  0
   21.0907   14.0433  -24.1676 C   0  0  0  0  0  0  0  0  0  0  0  0
   21.1768   11.6294  -25.2234 C   0  0  0  0  0  0  0  0  0  0  0  0
   27.4898   13.0256  -26.0826 O   0  0  0  0  0  0  0  0  0  0  0  0
   26.7852   11.6187  -24.4736 N   0  0  0  0  0  0  0  0  0  0  0  0
   29.4739    9.8515  -23.1132 N   0  0  0  0  0  0  0  0  0  0  0  0
   28.1426   10.0060  -23.4693 N   0  0  0  0  0  0  0  0  0  0  0  0
   25.2197   13.0162  -25.7264 C   0  0  0  0  0  0  0  0  0  0  0  0
   23.0266   13.2996  -25.5784 N   0  0  0  0  0  0  0  0  0  0  0  0
   23.4492   14.3139  -26.3803 C   0  0  0  0  0  0  0  0  0  0  0  0
   22.8046   15.3100  -27.0053 N   0  0  0  0  0  0  0  0  0  0  0  0
   24.7912   16.1310  -27.9015 N   0  0  0  0  0  0  0  0  0  0  0  0
   26.8847   15.1248  -27.5459 N   0  0  0  0  0  0  0  0  0  0  0  0
   21.6266   13.0878  -25.2373 C   0  0  2  0  0  0  0  0  0  0  0  0
   20.6559   12.5765  -26.3017 C   0  0  0  0  0  0  0  0  0  0  0  0
   29.4642   12.8255  -24.3957 H   0  0  0  0  0  0  0  0  0  0  0  0
   31.7963   11.1911  -22.1188 H   0  0  0  0  0  0  0  0  0  0  0  0
   32.1807   10.3426  -23.6547 H   0  0  0  0  0  0  0  0  0  0  0  0
   31.9001   12.1168  -23.6547 H   0  0  0  0  0  0  0  0  0  0  0  0
   23.9798   11.6854  -24.4919 H   0  0  0  0  0  0  0  0  0  0  0  0
   22.9161   17.0165  -28.2046 H   0  0  0  0  0  0  0  0  0  0  0  0
   21.3168   13.6402  -23.1694 H   0  0  0  0  0  0  0  0  0  0  0  0
   21.5685   15.0274  -24.2825 H   0  0  0  0  0  0  0  0  0  0  0  0
   20.0018   14.1487  -24.2825 H   0  0  0  0  0  0  0  0  0  0  0  0
   21.8873   10.8324  -25.4882 H   0  0  0  0  0  0  0  0  0  0  0  0
   20.7104   10.9669  -24.4794 H   0  0  0  0  0  0  0  0  0  0  0  0
   25.9604   11.2292  -23.9950 H   0  0  0  0  0  0  0  0  0  0  0  0
   29.8776    9.0183  -22.6620 H   0  0  0  0  0  0  0  0  0  0  0  0
   27.3275   15.8437  -28.1358 H   0  0  0  0  0  0  0  0  0  0  0  0
   27.4571   14.3776  -27.1276 H   0  0  0  0  0  0  0  0  0  0  0  0
   20.9914   12.4624  -27.3430 H   0  0  0  0  0  0  0  0  0  0  0  0
   19.6596   12.8794  -26.6562 H   0  0  0  0  0  0  0  0  0  0  0  0
  1 12  2  0
  1 13  1  0
  1 16  1  0
  2  3  1  0
  2 13  1  0
  2 15  2  0
  3  4  2  0
  4  5  1  0
  4 14  1  0
  6 16  2  0
  6 17  1  0
  7 19  2  0
  7 20  1  0
  8  9  1  0
  8 20  2  0
  8 21  1  0
  9 16  1  0
  9 18  2  0
 22 10  1  1
 11 22  1  0
 11 23  1  0
 14 15  1  0
 17 18  1  0
 17 22  1  0
 18 19  1  0
 22 23  1  0
  3 24  1  0
  5 25  1  0
  5 26  1  0
  5 27  1  0
  6 28  1  0
  7 29  1  0
 10 30  1  0
 10 31  1  0
 10 32  1  0
 11 33  1  0
 11 34  1  0
 13 35  1  0
 14 36  1  0
 21 37  1  0
 21 38  1  0
 23 39  1  0
 23 40  1  0
M  END
>  <filename_input>  (10) 
7DUA_HJ0_docked.sdf

>  <pdb_id>  (10) 
7DUA_HJ0

>  <pose_rank>  (10) 
9

>  <num_atoms_heavy>  (10) 
23

>  <num_torsions>  (10) 
2

>  <pose>  (10) 
[24.055469256120485, 12.547961508344148, -25.170260048837825, -1.3996116084888772, -5.505800486992663, -2.702017524215827, -0.43060667367866046, 3.6055816343498055]

>  <energy>  (10) 
-1587.7747725621223

>  <inter_energy>  (10) 
-1607.826104614764

>  <intra_energy>  (10) 
30.05481235371184

>  <rmsd>  (10) 
1.00391

>  <sdf_rank>  (10) 
0

$$$$

     RDKit          3D

 40 43  0  0  0  0  0  0  0  0999 V2000
   26.5388   12.7904  -25.3319 C   0  0  0  0  0  0  0  0  0  0  0  0
   28.3062   11.1618  -25.5678 C   0  0  0  0  0  0  0  0  0  0  0  0
   28.9411   11.0811  -24.3552 C   0  0  0  0  0  0  0  0  0  0  0  0
   30.0934   10.3325  -24.5567 C   0  0  0  0  0  0  0  0  0  0  0  0
   31.1342    9.9912  -23.5258 C   0  0  0  0  0  0  0  0  0  0  0  0
   24.0109   12.7214  -25.2150 C   0  0  0  0  0  0  0  0  0  0  0  0
   23.4556   16.3179  -27.8505 C   0  0  0  0  0  0  0  0  0  0  0  0
   25.5136   15.3701  -27.2938 C   0  0  0  0  0  0  0  0  0  0  0  0
   24.8308   14.3941  -26.5256 C   0  0  0  0  0  0  0  0  0  0  0  0
   20.8050   12.6415  -26.6623 C   0  0  0  0  0  0  0  0  0  0  0  0
   20.8882   14.1518  -24.5034 C   0  0  0  0  0  0  0  0  0  0  0  0
   27.0885   13.3867  -24.4155 O   0  0  0  0  0  0  0  0  0  0  0  0
   27.0955   11.7150  -25.9223 N   0  0  0  0  0  0  0  0  0  0  0  0
   30.1140    9.9606  -25.8073 N   0  0  0  0  0  0  0  0  0  0  0  0
   28.9826   10.4441  -26.4471 N   0  0  0  0  0  0  0  0  0  0  0  0
   25.1900   13.2293  -25.7005 C   0  0  0  0  0  0  0  0  0  0  0  0
   22.9826   13.4282  -25.6979 N   0  0  0  0  0  0  0  0  0  0  0  0
   23.4172   14.4502  -26.4835 C   0  0  0  0  0  0  0  0  0  0  0  0
   22.7768   15.4141  -27.1611 N   0  0  0  0  0  0  0  0  0  0  0  0
   24.7845   16.3033  -27.9373 N   0  0  0  0  0  0  0  0  0  0  0  0
   26.8875   15.3833  -27.4348 N   0  0  0  0  0  0  0  0  0  0  0  0
   21.5726   13.1651  -25.4454 C   0  0  2  0  0  0  0  0  0  0  0  0
   21.1229   12.7108  -24.0568 C   0  0  0  0  0  0  0  0  0  0  0  0
   28.6032   11.5235  -23.4064 H   0  0  0  0  0  0  0  0  0  0  0  0
   30.7125   10.1295  -22.5193 H   0  0  0  0  0  0  0  0  0  0  0  0
   31.4457    8.9438  -23.6521 H   0  0  0  0  0  0  0  0  0  0  0  0
   32.0055   10.6506  -23.6521 H   0  0  0  0  0  0  0  0  0  0  0  0
   23.9245   11.8633  -24.5322 H   0  0  0  0  0  0  0  0  0  0  0  0
   22.9004   17.1117  -28.3717 H   0  0  0  0  0  0  0  0  0  0  0  0
   19.9402   12.0517  -26.3244 H   0  0  0  0  0  0  0  0  0  0  0  0
   20.4556   13.4904  -27.2684 H   0  0  0  0  0  0  0  0  0  0  0  0
   21.4677   12.0064  -27.2684 H   0  0  0  0  0  0  0  0  0  0  0  0
   21.4668   14.9694  -24.0487 H   0  0  0  0  0  0  0  0  0  0  0  0
   20.0102   14.8109  -24.5724 H   0  0  0  0  0  0  0  0  0  0  0  0
   26.5776   11.2740  -26.6958 H   0  0  0  0  0  0  0  0  0  0  0  0
   30.8540    9.3968  -26.2495 H   0  0  0  0  0  0  0  0  0  0  0  0
   27.3398   16.1131  -28.0037 H   0  0  0  0  0  0  0  0  0  0  0  0
   27.4598   14.6632  -26.9711 H   0  0  0  0  0  0  0  0  0  0  0  0
   21.8710   12.4902  -23.2811 H   0  0  0  0  0  0  0  0  0  0  0  0
   20.4850   11.9018  -23.6714 H   0  0  0  0  0  0  0  0  0  0  0  0
  1 12  2  0
  1 13  1  0
  1 16  1  0
  2  3  1  0
  2 13  1  0
  2 15  2  0
  3  4  2  0
  4  5  1  0
  4 14  1  0
  6 16  2  0
  6 17  1  0
  7 19  2  0
  7 20  1  0
  8  9  1  0
  8 20  2  0
  8 21  1  0
  9 16  1  0
  9 18  2  0
 22 10  1  6
 11 22  1  0
 11 23  1  0
 14 15  1  0
 17 18  1  0
 17 22  1  0
 18 19  1  0
 22 23  1  0
  3 24  1  0
  5 25  1  0
  5 26  1  0
  5 27  1  0
  6 28  1  0
  7 29  1  0
 10 30  1  0
 10 31  1  0
 10 32  1  0
 11 33  1  0
 11 34  1  0
 13 35  1  0
 14 36  1  0
 21 37  1  0
 21 38  1  0
 23 39  1  0
 23 40  1  0
M  END
>  <filename_input>  (11) 
7DUA_HJ0_docked.sdf

>  <pdb_id>  (11) 
7DUA_HJ0

>  <pose_rank>  (11) 
10

>  <num_atoms_heavy>  (11) 
23

>  <num_torsions>  (11) 
2

>  <pose>  (11) 
[24.010903375224846, 12.721377125615842, -25.21497118746196, 0.9677993981174696, 5.486858758011721, -2.7251985710919535, 1.1459653600825592, -0.11103458664217497]

>  <energy>  (11) 
-1588.5459957222868

>  <inter_energy>  (11) 
-1567.187845243316

>  <intra_energy>  (11) 
3.2960992779129317

>  <rmsd>  (11) 
0.903374

>  <sdf_rank>  (11) 
0

$$$$

     RDKit          3D

 40 43  0  0  0  0  0  0  0  0999 V2000
   25.7860   12.0560  -25.1455 C   0  0  0  0  0  0  0  0  0  0  0  0
   28.0711   12.1786  -24.3741 C   0  0  0  0  0  0  0  0  0  0  0  0
   28.7578   11.1660  -24.9932 C   0  0  0  0  0  0  0  0  0  0  0  0
   29.9985   11.0882  -24.3741 C   0  0  0  0  0  0  0  0  0  0  0  0
   31.0985   10.1111  -24.6872 C   0  0  0  0  0  0  0  0  0  0  0  0
   23.2804   12.4162  -25.1134 C   0  0  0  0  0  0  0  0  0  0  0  0
   23.4736   16.3114  -27.3448 C   0  0  0  0  0  0  0  0  0  0  0  0
   25.3110   14.9666  -26.8360 C   0  0  0  0  0  0  0  0  0  0  0  0
   24.4356   14.0491  -26.2030 C   0  0  0  0  0  0  0  0  0  0  0  0
   20.2111   12.6279  -26.5159 C   0  0  0  0  0  0  0  0  0  0  0  0
   20.3636   14.5329  -24.7002 C   0  0  0  0  0  0  0  0  0  0  0  0
   25.8447   10.8625  -25.4094 O   0  0  0  0  0  0  0  0  0  0  0  0
   26.8361   12.7293  -24.6366 N   0  0  0  0  0  0  0  0  0  0  0  0
   30.0531   12.0274  -23.4700 N   0  0  0  0  0  0  0  0  0  0  0  0
   28.8647   12.7421  -23.4806 N   0  0  0  0  0  0  0  0  0  0  0  0
   24.5510   12.7593  -25.5031 C   0  0  0  0  0  0  0  0  0  0  0  0
   22.4120   13.3380  -25.5449 N   0  0  0  0  0  0  0  0  0  0  0  0
   23.0518   14.3456  -26.1975 C   0  0  0  0  0  0  0  0  0  0  0  0
   22.6183   15.4721  -26.7819 N   0  0  0  0  0  0  0  0  0  0  0  0
   24.7834   16.0748  -27.3926 N   0  0  0  0  0  0  0  0  0  0  0  0
   26.6725   14.7551  -26.9331 N   0  0  0  0  0  0  0  0  0  0  0  0
   20.9671   13.2993  -25.3661 C   0  0  2  0  0  0  0  0  0  0  0  0
   20.3798   13.1985  -23.9584 C   0  0  0  0  0  0  0  0  0  0  0  0
   28.3961   10.5372  -25.8201 H   0  0  0  0  0  0  0  0  0  0  0  0
   31.5280    9.7296  -23.7492 H   0  0  0  0  0  0  0  0  0  0  0  0
   30.6895    9.2731  -25.2707 H   0  0  0  0  0  0  0  0  0  0  0  0
   31.8824   10.6161  -25.2707 H   0  0  0  0  0  0  0  0  0  0  0  0
   23.0162   11.5193  -24.5340 H   0  0  0  0  0  0  0  0  0  0  0  0
   23.0875   17.2401  -27.7904 H   0  0  0  0  0  0  0  0  0  0  0  0
   19.4477   11.9500  -26.1064 H   0  0  0  0  0  0  0  0  0  0  0  0
   19.7248   13.3973  -27.1337 H   0  0  0  0  0  0  0  0  0  0  0  0
   20.9176   12.0542  -27.1337 H   0  0  0  0  0  0  0  0  0  0  0  0
   21.0166   15.3538  -24.3692 H   0  0  0  0  0  0  0  0  0  0  0  0
   19.5856   15.2612  -24.9729 H   0  0  0  0  0  0  0  0  0  0  0  0
   26.7058   13.7296  -24.4285 H   0  0  0  0  0  0  0  0  0  0  0  0
   30.8527   12.2094  -22.8468 H   0  0  0  0  0  0  0  0  0  0  0  0
   27.2695   15.4508  -27.4027 H   0  0  0  0  0  0  0  0  0  0  0  0
   27.0908   13.9018  -26.5360 H   0  0  0  0  0  0  0  0  0  0  0  0
   21.0448   13.0579  -23.0936 H   0  0  0  0  0  0  0  0  0  0  0  0
   19.6192   12.5671  -23.4759 H   0  0  0  0  0  0  0  0  0  0  0  0
  1 12  2  0
  1 13  1  0
  1 16  1  0
  2  3  1  0
  2 13  1  0
  2 15  2  0
  3  4  2  0
  4  5  1  0
  4 14  1  0
  6 16  2  0
  6 17  1  0
  7 19  2  0
  7 20  1  0
  8  9  1  0
  8 20  2  0
  8 21  1  0
  9 16  1  0
  9 18  2  0
 22 10  1  6
 11 22  1  0
 11 23  1  0
 14 15  1  0
 17 18  1  0
 17 22  1  0
 18 19  1  0
 22 23  1  0
  3 24  1  0
  5 25  1  0
  5 26  1  0
  5 27  1  0
  6 28  1  0
  7 29  1  0
 10 30  1  0
 10 31  1  0
 10 32  1  0
 11 33  1  0
 11 34  1  0
 13 35  1  0
 14 36  1  0
 21 37  1  0
 21 38  1  0
 23 39  1  0
 23 40  1  0
M  END
>  <filename_input>  (12) 
7DUA_HJ0_docked.sdf

>  <pdb_id>  (12) 
7DUA_HJ0

>  <pose_rank>  (12) 
11

>  <num_atoms_heavy>  (12) 
23

>  <num_torsions>  (12) 
2

>  <pose>  (12) 
[23.280445362250255, 12.416203771122753, -25.11337513598394, -2.7076832020573454, 3.374778454063627, 4.273528464793054, -2.554402122375702, 0.20832715107680494]

>  <energy>  (12) 
-1179.2635224264943

>  <inter_energy>  (12) 
-1213.5638866337788

>  <intra_energy>  (12) 
17.101381140498784

>  <rmsd>  (12) 
1.31564

>  <sdf_rank>  (12) 
0

$$$$

     RDKit          3D

 40 43  0  0  0  0  0  0  0  0999 V2000
   26.4259   12.7396  -25.6240 C   0  0  0  0  0  0  0  0  0  0  0  0
   27.9885   11.2874  -24.4923 C   0  0  0  0  0  0  0  0  0  0  0  0
   29.1705   11.9745  -24.3876 C   0  0  0  0  0  0  0  0  0  0  0  0
   30.1259   11.0626  -23.9583 C   0  0  0  0  0  0  0  0  0  0  0  0
   31.5858   11.3364  -23.7210 C   0  0  0  0  0  0  0  0  0  0  0  0
   23.9436   12.7103  -25.1278 C   0  0  0  0  0  0  0  0  0  0  0  0
   23.0470   16.2885  -27.6933 C   0  0  0  0  0  0  0  0  0  0  0  0
   25.1523   15.3151  -27.4406 C   0  0  0  0  0  0  0  0  0  0  0  0
   24.5796   14.3573  -26.5669 C   0  0  0  0  0  0  0  0  0  0  0  0
   20.5137   14.2977  -25.3587 C   0  0  0  0  0  0  0  0  0  0  0  0
   21.3958   12.5137  -23.6301 C   0  0  0  0  0  0  0  0  0  0  0  0
   27.2976   13.3820  -26.1940 O   0  0  0  0  0  0  0  0  0  0  0  0
   26.7154   11.7147  -24.7990 N   0  0  0  0  0  0  0  0  0  0  0  0
   29.5311    9.9147  -23.7820 N   0  0  0  0  0  0  0  0  0  0  0  0
   28.1832   10.0473  -24.0800 N   0  0  0  0  0  0  0  0  0  0  0  0
   25.0431   13.1954  -25.7911 C   0  0  0  0  0  0  0  0  0  0  0  0
   22.8641   13.4278  -25.4594 N   0  0  0  0  0  0  0  0  0  0  0  0
   23.1894   14.4353  -26.3135 C   0  0  0  0  0  0  0  0  0  0  0  0
   22.4675   15.4020  -26.8988 N   0  0  0  0  0  0  0  0  0  0  0  0
   24.3475   16.2528  -27.9786 N   0  0  0  0  0  0  0  0  0  0  0  0
   26.4895   15.3060  -27.7866 N   0  0  0  0  0  0  0  0  0  0  0  0
   21.5046   13.1887  -24.9946 C   0  0  2  0  0  0  0  0  0  0  0  0
   20.9802   11.7567  -24.8892 C   0  0  0  0  0  0  0  0  0  0  0  0
   29.3309   13.0414  -24.6022 H   0  0  0  0  0  0  0  0  0  0  0  0
   31.7808   11.3730  -22.6390 H   0  0  0  0  0  0  0  0  0  0  0  0
   32.1876   10.5355  -24.1752 H   0  0  0  0  0  0  0  0  0  0  0  0
   31.8565   12.3010  -24.1752 H   0  0  0  0  0  0  0  0  0  0  0  0
   23.9492   11.8604  -24.4295 H   0  0  0  0  0  0  0  0  0  0  0  0
   22.4306   17.0854  -28.1348 H   0  0  0  0  0  0  0  0  0  0  0  0
   20.1121   14.7472  -24.4386 H   0  0  0  0  0  0  0  0  0  0  0  0
   21.0284   15.0697  -25.9496 H   0  0  0  0  0  0  0  0  0  0  0  0
   19.6889   13.8729  -25.9496 H   0  0  0  0  0  0  0  0  0  0  0  0
   22.3067   12.2202  -23.0878 H   0  0  0  0  0  0  0  0  0  0  0  0
   20.9078   12.7629  -22.6764 H   0  0  0  0  0  0  0  0  0  0  0  0
   25.9266   11.2138  -24.3656 H   0  0  0  0  0  0  0  0  0  0  0  0
   29.9903    9.0469  -23.4706 H   0  0  0  0  0  0  0  0  0  0  0  0
   26.8609   16.0232  -28.4258 H   0  0  0  0  0  0  0  0  0  0  0  0
   27.1151   14.5819  -27.4055 H   0  0  0  0  0  0  0  0  0  0  0  0
   21.5919   10.9185  -25.2543 H   0  0  0  0  0  0  0  0  0  0  0  0
   20.0695   11.2353  -25.2187 H   0  0  0  0  0  0  0  0  0  0  0  0
  1 12  2  0
  1 13  1  0
  1 16  1  0
  2  3  1  0
  2 13  1  0
  2 15  2  0
  3  4  2  0
  4  5  1  0
  4 14  1  0
  6 16  2  0
  6 17  1  0
  7 19  2  0
  7 20  1  0
  8  9  1  0
  8 20  2  0
  8 21  1  0
  9 16  1  0
  9 18  2  0
 22 10  1  1
 11 22  1  0
 11 23  1  0
 14 15  1  0
 17 18  1  0
 17 22  1  0
 18 19  1  0
 22 23  1  0
  3 24  1  0
  5 25  1  0
  5 26  1  0
  5 27  1  0
  6 28  1  0
  7 29  1  0
 10 30  1  0
 10 31  1  0
 10 32  1  0
 11 33  1  0
 11 34  1  0
 13 35  1  0
 14 36  1  0
 21 37  1  0
 21 38  1  0
 23 39  1  0
 23 40  1  0
M  END
>  <filename_input>  (13) 
7DUA_HJ0_docked.sdf

>  <pdb_id>  (13) 
7DUA_HJ0

>  <pose_rank>  (13) 
12

>  <num_atoms_heavy>  (13) 
23

>  <num_torsions>  (13) 
2

>  <pose>  (13) 
[23.943626192223576, 12.710261524732339, -25.127822678373853, -1.5985226164404647, 5.935150750883768, 1.666781839834814, -0.24857647392988308, 4.7870454550687995]

>  <energy>  (13) 
-1451.4143914653994

>  <inter_energy>  (13) 
-1503.229833189246

>  <intra_energy>  (13) 
57.86821118974511

>  <rmsd>  (13) 
0.766932

>  <sdf_rank>  (13) 
0

$$$$

     RDKit          3D

 40 43  0  0  0  0  0  0  0  0999 V2000
   26.3249   12.6688  -25.4944 C   0  0  0  0  0  0  0  0  0  0  0  0
   27.7583   11.1071  -24.3377 C   0  0  0  0  0  0  0  0  0  0  0  0
   28.9367   11.7594  -24.0809 C   0  0  0  0  0  0  0  0  0  0  0  0
   29.8361   10.7990  -23.6363 C   0  0  0  0  0  0  0  0  0  0  0  0
   31.2732   11.0238  -23.2530 C   0  0  0  0  0  0  0  0  0  0  0  0
   23.8134   12.6948  -25.1775 C   0  0  0  0  0  0  0  0  0  0  0  0
   23.1939   16.3523  -27.7130 C   0  0  0  0  0  0  0  0  0  0  0  0
   25.2504   15.3174  -27.3344 C   0  0  0  0  0  0  0  0  0  0  0  0
   24.5925   14.3560  -26.5272 C   0  0  0  0  0  0  0  0  0  0  0  0
   20.3880   13.6089  -26.3084 C   0  0  0  0  0  0  0  0  0  0  0  0
   21.0359   13.5459  -23.7540 C   0  0  0  0  0  0  0  0  0  0  0  0
   27.2536   13.3306  -25.9383 O   0  0  0  0  0  0  0  0  0  0  0  0
   26.5242   11.5824  -24.7231 N   0  0  0  0  0  0  0  0  0  0  0  0
   29.2104    9.6547  -23.5957 N   0  0  0  0  0  0  0  0  0  0  0  0
   27.8965    9.8371  -24.0003 N   0  0  0  0  0  0  0  0  0  0  0  0
   24.9696   13.1650  -25.7487 C   0  0  0  0  0  0  0  0  0  0  0  0
   22.7789   13.4482  -25.5677 N   0  0  0  0  0  0  0  0  0  0  0  0
   23.1900   14.4655  -26.3719 C   0  0  0  0  0  0  0  0  0  0  0  0
   22.5366   15.4640  -26.9836 N   0  0  0  0  0  0  0  0  0  0  0  0
   24.5102   16.2882  -27.9055 N   0  0  0  0  0  0  0  0  0  0  0  0
   26.6084   15.2802  -27.5842 N   0  0  0  0  0  0  0  0  0  0  0  0
   21.3840   13.2353  -25.2072 C   0  0  2  0  0  0  0  0  0  0  0  0
   21.0126   12.1023  -24.2505 C   0  0  0  0  0  0  0  0  0  0  0  0
   29.1320   12.8350  -24.2033 H   0  0  0  0  0  0  0  0  0  0  0  0
   31.3624   11.0377  -22.1568 H   0  0  0  0  0  0  0  0  0  0  0  0
   31.8928   10.2116  -23.6611 H   0  0  0  0  0  0  0  0  0  0  0  0
   31.6152   11.9863  -23.6611 H   0  0  0  0  0  0  0  0  0  0  0  0
   23.7474   11.8297  -24.5014 H   0  0  0  0  0  0  0  0  0  0  0  0
   22.6311   17.1751  -28.1779 H   0  0  0  0  0  0  0  0  0  0  0  0
   19.4511   13.9603  -25.8516 H   0  0  0  0  0  0  0  0  0  0  0  0
   20.8141   14.4083  -26.9324 H   0  0  0  0  0  0  0  0  0  0  0  0
   20.1832   12.7264  -26.9324 H   0  0  0  0  0  0  0  0  0  0  0  0
   21.8220   13.8755  -23.0588 H   0  0  0  0  0  0  0  0  0  0  0  0
   20.3141   14.2069  -23.2518 H   0  0  0  0  0  0  0  0  0  0  0  0
   25.6924   11.0695  -24.3976 H   0  0  0  0  0  0  0  0  0  0  0  0
   29.6267    8.7574  -23.3086 H   0  0  0  0  0  0  0  0  0  0  0  0
   27.0428   16.0014  -28.1776 H   0  0  0  0  0  0  0  0  0  0  0  0
   27.1866   14.5314  -27.1771 H   0  0  0  0  0  0  0  0  0  0  0  0
   21.7821   11.3921  -23.9137 H   0  0  0  0  0  0  0  0  0  0  0  0
   20.2678   11.2928  -24.2549 H   0  0  0  0  0  0  0  0  0  0  0  0
  1 12  2  0
  1 13  1  0
  1 16  1  0
  2  3  1  0
  2 13  1  0
  2 15  2  0
  3  4  2  0
  4  5  1  0
  4 14  1  0
  6 16  2  0
  6 17  1  0
  7 19  2  0
  7 20  1  0
  8  9  1  0
  8 20  2  0
  8 21  1  0
  9 16  1  0
  9 18  2  0
 22 10  1  6
 11 22  1  0
 11 23  1  0
 14 15  1  0
 17 18  1  0
 17 22  1  0
 18 19  1  0
 22 23  1  0
  3 24  1  0
  5 25  1  0
  5 26  1  0
  5 27  1  0
  6 28  1  0
  7 29  1  0
 10 30  1  0
 10 31  1  0
 10 32  1  0
 11 33  1  0
 11 34  1  0
 13 35  1  0
 14 36  1  0
 21 37  1  0
 21 38  1  0
 23 39  1  0
 23 40  1  0
M  END
>  <filename_input>  (14) 
7DUA_HJ0_docked.sdf

>  <pdb_id>  (14) 
7DUA_HJ0

>  <pose_rank>  (14) 
13

>  <num_atoms_heavy>  (14) 
23

>  <num_torsions>  (14) 
2

>  <pose>  (14) 
[23.813439660926218, 12.694826923062129, -25.17750710417653, 1.4904376259741294, 5.604865535587193, -2.440109989554638, -0.1973097668469676, -0.7346731467180598]

>  <energy>  (14) 
-1586.9932455706967

>  <inter_energy>  (14) 
-1628.594004015543

>  <intra_energy>  (14) 
47.094077694633015

>  <rmsd>  (14) 
0.39943

>  <sdf_rank>  (14) 
0

$$$$

     RDKit          3D

 40 43  0  0  0  0  0  0  0  0999 V2000
   26.6797   12.7087  -25.5382 C   0  0  0  0  0  0  0  0  0  0  0  0
   28.1588   10.8546  -25.0840 C   0  0  0  0  0  0  0  0  0  0  0  0
   29.1584   11.3287  -24.2740 C   0  0  0  0  0  0  0  0  0  0  0  0
   30.1263   10.3347  -24.2107 C   0  0  0  0  0  0  0  0  0  0  0  0
   31.4298   10.3970  -23.4626 C   0  0  0  0  0  0  0  0  0  0  0  0
   24.1706   12.7035  -25.2023 C   0  0  0  0  0  0  0  0  0  0  0  0
   23.4823   16.3301  -27.7641 C   0  0  0  0  0  0  0  0  0  0  0  0
   25.5555   15.3264  -27.3925 C   0  0  0  0  0  0  0  0  0  0  0  0
   24.9168   14.3632  -26.5721 C   0  0  0  0  0  0  0  0  0  0  0  0
   21.0311   14.4398  -24.6348 C   0  0  0  0  0  0  0  0  0  0  0  0
   21.4405   11.8358  -24.6241 C   0  0  0  0  0  0  0  0  0  0  0  0
   27.5420   13.5576  -25.3559 O   0  0  0  0  0  0  0  0  0  0  0  0
   26.9366   11.3911  -25.4245 N   0  0  0  0  0  0  0  0  0  0  0  0
   29.7015    9.3188  -24.9108 N   0  0  0  0  0  0  0  0  0  0  0  0
   28.4534    9.6160  -25.4372 N   0  0  0  0  0  0  0  0  0  0  0  0
   25.3159   13.1843  -25.7863 C   0  0  0  0  0  0  0  0  0  0  0  0
   23.1230   13.4394  -25.5910 N   0  0  0  0  0  0  0  0  0  0  0  0
   23.5142   14.4551  -26.4069 C   0  0  0  0  0  0  0  0  0  0  0  0
   22.8426   15.4394  -27.0222 N   0  0  0  0  0  0  0  0  0  0  0  0
   24.7978   16.2821  -27.9662 N   0  0  0  0  0  0  0  0  0  0  0  0
   26.9119   15.3054  -27.6524 N   0  0  0  0  0  0  0  0  0  0  0  0
   21.7338   13.2108  -25.2179 C   0  0  2  0  0  0  0  0  0  0  0  0
   20.8943   12.2022  -26.0019 C   0  0  0  0  0  0  0  0  0  0  0  0
   29.1880   12.3068  -23.7716 H   0  0  0  0  0  0  0  0  0  0  0  0
   31.2323   10.3876  -22.3805 H   0  0  0  0  0  0  0  0  0  0  0  0
   32.0480    9.5274  -23.7301 H   0  0  0  0  0  0  0  0  0  0  0  0
   31.9622   11.3217  -23.7301 H   0  0  0  0  0  0  0  0  0  0  0  0
   24.1214   11.8434  -24.5182 H   0  0  0  0  0  0  0  0  0  0  0  0
   22.9048   17.1412  -28.2317 H   0  0  0  0  0  0  0  0  0  0  0  0
   21.0589   14.3913  -23.5362 H   0  0  0  0  0  0  0  0  0  0  0  0
   21.5446   15.3514  -24.9746 H   0  0  0  0  0  0  0  0  0  0  0  0
   19.9851   14.4598  -24.9746 H   0  0  0  0  0  0  0  0  0  0  0  0
   22.2469   11.0933  -24.5320 H   0  0  0  0  0  0  0  0  0  0  0  0
   20.9989   11.4732  -23.6841 H   0  0  0  0  0  0  0  0  0  0  0  0
   26.1621   10.7367  -25.6056 H   0  0  0  0  0  0  0  0  0  0  0  0
   30.2125    8.4355  -25.0503 H   0  0  0  0  0  0  0  0  0  0  0  0
   27.3319   16.0272  -28.2553 H   0  0  0  0  0  0  0  0  0  0  0  0
   27.5033   14.5680  -27.2433 H   0  0  0  0  0  0  0  0  0  0  0  0
   21.3076   11.7244  -26.9024 H   0  0  0  0  0  0  0  0  0  0  0  0
   19.8970   12.2135  -26.4658 H   0  0  0  0  0  0  0  0  0  0  0  0
  1 12  2  0
  1 13  1  0
  1 16  1  0
  2  3  1  0
  2 13  1  0
  2 15  2  0
  3  4  2  0
  4  5  1  0
  4 14  1  0
  6 16  2  0
  6 17  1  0
  7 19  2  0
  7 20  1  0
  8  9  1  0
  8 20  2  0
  8 21  1  0
  9 16  1  0
  9 18  2  0
 22 10  1  1
 11 22  1  0
 11 23  1  0
 14 15  1  0
 17 18  1  0
 17 22  1  0
 18 19  1  0
 22 23  1  0
  3 24  1  0
  5 25  1  0
  5 26  1  0
  5 27  1  0
  6 28  1  0
  7 29  1  0
 10 30  1  0
 10 31  1  0
 10 32  1  0
 11 33  1  0
 11 34  1  0
 13 35  1  0
 14 36  1  0
 21 37  1  0
 21 38  1  0
 23 39  1  0
 23 40  1  0
M  END
>  <filename_input>  (15) 
7DUA_HJ0_docked.sdf

>  <pdb_id>  (15) 
7DUA_HJ0

>  <pose_rank>  (15) 
14

>  <num_atoms_heavy>  (15) 
23

>  <num_torsions>  (15) 
2

>  <pose>  (15) 
[24.17056859161461, 12.70349273606721, -25.202255444649833, -2.113305229083467, 4.984019313360847, 3.2278644057791324, 0.4237013490184558, 4.032991234662831]

>  <energy>  (15) 
-1653.2519769267349

>  <inter_energy>  (15) 
-1658.2342079402836

>  <intra_energy>  (15) 
19.593577851463586

>  <rmsd>  (15) 
0.99349

>  <sdf_rank>  (15) 
0

$$$$

     RDKit          3D

 40 43  0  0  0  0  0  0  0  0999 V2000
   26.3115   12.6751  -25.5291 C   0  0  0  0  0  0  0  0  0  0  0  0
   27.7264   10.7506  -25.8837 C   0  0  0  0  0  0  0  0  0  0  0  0
   28.4657   10.5809  -24.7414 C   0  0  0  0  0  0  0  0  0  0  0  0
   29.4384    9.6333  -25.0323 C   0  0  0  0  0  0  0  0  0  0  0  0
   30.5087    9.1306  -24.1026 C   0  0  0  0  0  0  0  0  0  0  0  0
   23.8403   13.0675  -25.1445 C   0  0  0  0  0  0  0  0  0  0  0  0
   23.6429   16.6435  -27.8579 C   0  0  0  0  0  0  0  0  0  0  0  0
   25.5489   15.3519  -27.4805 C   0  0  0  0  0  0  0  0  0  0  0  0
   24.7933   14.5336  -26.6041 C   0  0  0  0  0  0  0  0  0  0  0  0
   20.9729   15.3198  -24.7459 C   0  0  0  0  0  0  0  0  0  0  0  0
   21.0667   12.7174  -24.3365 C   0  0  0  0  0  0  0  0  0  0  0  0
   27.0547   13.1807  -24.6988 O   0  0  0  0  0  0  0  0  0  0  0  0
   26.6013   11.5056  -26.1318 N   0  0  0  0  0  0  0  0  0  0  0  0
   29.2562    9.2391  -26.2628 N   0  0  0  0  0  0  0  0  0  0  0  0
   28.1651    9.9056  -26.7999 N   0  0  0  0  0  0  0  0  0  0  0  0
   25.0295   13.3423  -25.7724 C   0  0  0  0  0  0  0  0  0  0  0  0
   22.9065   13.9374  -25.5465 N   0  0  0  0  0  0  0  0  0  0  0  0
   23.4257   14.8456  -26.4161 C   0  0  0  0  0  0  0  0  0  0  0  0
   22.8952   15.8935  -27.0631 N   0  0  0  0  0  0  0  0  0  0  0  0
   24.9301   16.3866  -28.0831 N   0  0  0  0  0  0  0  0  0  0  0  0
   26.8791   15.1130  -27.7655 N   0  0  0  0  0  0  0  0  0  0  0  0
   21.5091   13.9397  -25.1362 C   0  0  2  0  0  0  0  0  0  0  0  0
   20.5365   12.9339  -25.7518 C   0  0  0  0  0  0  0  0  0  0  0  0
   28.3171   11.0956  -23.7807 H   0  0  0  0  0  0  0  0  0  0  0  0
   30.1894    9.2806  -23.0607 H   0  0  0  0  0  0  0  0  0  0  0  0
   30.6778    8.0589  -24.2836 H   0  0  0  0  0  0  0  0  0  0  0  0
   31.4415    9.6847  -24.2836 H   0  0  0  0  0  0  0  0  0  0  0  0
   23.6793   12.2551  -24.4205 H   0  0  0  0  0  0  0  0  0  0  0  0
   23.1830   17.5125  -28.3513 H   0  0  0  0  0  0  0  0  0  0  0  0
   20.9402   15.4039  -23.6497 H   0  0  0  0  0  0  0  0  0  0  0  0
   21.6338   16.0987  -25.1539 H   0  0  0  0  0  0  0  0  0  0  0  0
   19.9594   15.4482  -25.1539 H   0  0  0  0  0  0  0  0  0  0  0  0
   21.7800   11.9046  -24.1351 H   0  0  0  0  0  0  0  0  0  0  0  0
   20.6068   12.5588  -23.3500 H   0  0  0  0  0  0  0  0  0  0  0  0
   25.9323   11.1499  -26.8295 H   0  0  0  0  0  0  0  0  0  0  0  0
   29.8320    8.5427  -26.7572 H   0  0  0  0  0  0  0  0  0  0  0  0
   27.3878   15.7356  -28.4093 H   0  0  0  0  0  0  0  0  0  0  0  0
   27.3624   14.3121  -27.3343 H   0  0  0  0  0  0  0  0  0  0  0  0
   20.8682   12.2777  -26.5700 H   0  0  0  0  0  0  0  0  0  0  0  0
   19.5372   12.9963  -26.2074 H   0  0  0  0  0  0  0  0  0  0  0  0
  1 12  2  0
  1 13  1  0
  1 16  1  0
  2  3  1  0
  2 13  1  0
  2 15  2  0
  3  4  2  0
  4  5  1  0
  4 14  1  0
  6 16  2  0
  6 17  1  0
  7 19  2  0
  7 20  1  0
  8  9  1  0
  8 20  2  0
  8 21  1  0
  9 16  1  0
  9 18  2  0
 22 10  1  1
 11 22  1  0
 11 23  1  0
 14 15  1  0
 17 18  1  0
 17 22  1  0
 18 19  1  0
 22 23  1  0
  3 24  1  0
  5 25  1  0
  5 26  1  0
  5 27  1  0
  6 28  1  0
  7 29  1  0
 10 30  1  0
 10 31  1  0
 10 32  1  0
 11 33  1  0
 11 34  1  0
 13 35  1  0
 14 36  1  0
 21 37  1  0
 21 38  1  0
 23 39  1  0
 23 40  1  0
M  END
>  <filename_input>  (16) 
7DUA_HJ0_docked.sdf

>  <pdb_id>  (16) 
7DUA_HJ0

>  <pose_rank>  (16) 
15

>  <num_atoms_heavy>  (16) 
23

>  <num_torsions>  (16) 
2

>  <pose>  (16) 
[23.84026603758119, 13.067480655896585, -25.144508218561022, -0.05006401414942507, 0.03918893741351555, -0.1430475739316157, -5.133398717167753, -2.1364688808955314]

>  <energy>  (16) 
-1393.866323135189

>  <inter_energy>  (16) 
-1397.4998739188711

>  <intra_energy>  (16) 
12.098012333656927

>  <rmsd>  (16) 
1.34146

>  <sdf_rank>  (16) 
0

$$$$

     RDKit          3D

 40 43  0  0  0  0  0  0  0  0999 V2000
   26.7773   13.2563  -24.9037 C   0  0  0  0  0  0  0  0  0  0  0  0
   28.6008   11.6748  -24.8326 C   0  0  0  0  0  0  0  0  0  0  0  0
   29.2980   11.9189  -23.6773 C   0  0  0  0  0  0  0  0  0  0  0  0
   30.4708   11.1791  -23.7547 C   0  0  0  0  0  0  0  0  0  0  0  0
   31.5754   11.1378  -22.7345 C   0  0  0  0  0  0  0  0  0  0  0  0
   24.2630   13.0550  -24.6876 C   0  0  0  0  0  0  0  0  0  0  0  0
   23.4080   16.1397  -27.8409 C   0  0  0  0  0  0  0  0  0  0  0  0
   25.5368   15.4196  -27.2138 C   0  0  0  0  0  0  0  0  0  0  0  0
   24.9387   14.5409  -26.2762 C   0  0  0  0  0  0  0  0  0  0  0  0
   21.0023   14.5080  -24.3746 C   0  0  0  0  0  0  0  0  0  0  0  0
   21.5697   11.9358  -24.2708 C   0  0  0  0  0  0  0  0  0  0  0  0
   27.3449   14.0790  -24.1977 O   0  0  0  0  0  0  0  0  0  0  0  0
   27.3509   12.0850  -25.2411 N   0  0  0  0  0  0  0  0  0  0  0  0
   30.4458   10.5074  -24.8731 N   0  0  0  0  0  0  0  0  0  0  0  0
   29.2639   10.7812  -25.5449 N   0  0  0  0  0  0  0  0  0  0  0  0
   25.3938   13.5481  -25.2894 C   0  0  0  0  0  0  0  0  0  0  0  0
   23.1790   13.6115  -25.2402 N   0  0  0  0  0  0  0  0  0  0  0  0
   23.5260   14.5179  -26.1934 C   0  0  0  0  0  0  0  0  0  0  0  0
   22.8072   15.3196  -26.9927 N   0  0  0  0  0  0  0  0  0  0  0  0
   24.7325   16.1912  -27.9714 N   0  0  0  0  0  0  0  0  0  0  0  0
   26.9029   15.4925  -27.4038 N   0  0  0  0  0  0  0  0  0  0  0  0
   21.7959   13.3082  -24.8990 C   0  0  2  0  0  0  0  0  0  0  0  0
   21.0435   12.2267  -25.6742 C   0  0  0  0  0  0  0  0  0  0  0  0
   28.9883   12.5739  -22.8495 H   0  0  0  0  0  0  0  0  0  0  0  0
   31.1417   11.1540  -21.7237 H   0  0  0  0  0  0  0  0  0  0  0  0
   32.1625   10.2171  -22.8669 H   0  0  0  0  0  0  0  0  0  0  0  0
   32.2296   12.0121  -22.8669 H   0  0  0  0  0  0  0  0  0  0  0  0
   24.2500   12.3146  -23.8743 H   0  0  0  0  0  0  0  0  0  0  0  0
   22.7893   16.8042  -28.4619 H   0  0  0  0  0  0  0  0  0  0  0  0
   21.0082   14.4990  -23.2746 H   0  0  0  0  0  0  0  0  0  0  0  0
   21.4633   15.4390  -24.7362 H   0  0  0  0  0  0  0  0  0  0  0  0
   19.9651   14.4479  -24.7362 H   0  0  0  0  0  0  0  0  0  0  0  0
   22.4170   11.2479  -24.1331 H   0  0  0  0  0  0  0  0  0  0  0  0
   21.1233   11.5744  -23.3327 H   0  0  0  0  0  0  0  0  0  0  0  0
   26.8153   11.4492  -25.8493 H   0  0  0  0  0  0  0  0  0  0  0  0
   31.1871    9.8738  -25.2047 H   0  0  0  0  0  0  0  0  0  0  0  0
   27.2922   16.1470  -28.0973 H   0  0  0  0  0  0  0  0  0  0  0  0
   27.5324   14.8924  -26.8519 H   0  0  0  0  0  0  0  0  0  0  0  0
   21.5118   11.7491  -26.5474 H   0  0  0  0  0  0  0  0  0  0  0  0
   20.0616   12.1624  -26.1659 H   0  0  0  0  0  0  0  0  0  0  0  0
  1 12  2  0
  1 13  1  0
  1 16  1  0
  2  3  1  0
  2 13  1  0
  2 15  2  0
  3  4  2  0
  4  5  1  0
  4 14  1  0
  6 16  2  0
  6 17  1  0
  7 19  2  0
  7 20  1  0
  8  9  1  0
  8 20  2  0
  8 21  1  0
  9 16  1  0
  9 18  2  0
 22 10  1  1
 11 22  1  0
 11 23  1  0
 14 15  1  0
 17 18  1  0
 17 22  1  0
 18 19  1  0
 22 23  1  0
  3 24  1  0
  5 25  1  0
  5 26  1  0
  5 27  1  0
  6 28  1  0
  7 29  1  0
 10 30  1  0
 10 31  1  0
 10 32  1  0
 11 33  1  0
 11 34  1  0
 13 35  1  0
 14 36  1  0
 21 37  1  0
 21 38  1  0
 23 39  1  0
 23 40  1  0
M  END
>  <filename_input>  (17) 
7DUA_HJ0_docked.sdf

>  <pdb_id>  (17) 
7DUA_HJ0

>  <pose_rank>  (17) 
16

>  <num_atoms_heavy>  (17) 
23

>  <num_torsions>  (17) 
2

>  <pose>  (17) 
[24.26299963532851, 13.05504676186216, -24.687615853354494, -0.17079072762139247, -0.03830499691220036, 0.10433750410233976, -5.234247154313496, -2.389527858127042]

>  <energy>  (17) 
-1420.707218386076

>  <inter_energy>  (17) 
-1431.9655167675412

>  <intra_energy>  (17) 
5.2431410645961485

>  <rmsd>  (17) 
1.2049

>  <sdf_rank>  (17) 
0

$$$$

     RDKit          3D

 40 43  0  0  0  0  0  0  0  0999 V2000
   26.4584   12.8126  -25.3858 C   0  0  0  0  0  0  0  0  0  0  0  0
   28.6109   12.0567  -26.1776 C   0  0  0  0  0  0  0  0  0  0  0  0
   29.0272   11.0679  -25.3237 C   0  0  0  0  0  0  0  0  0  0  0  0
   30.3548   10.8045  -25.6349 C   0  0  0  0  0  0  0  0  0  0  0  0
   31.2569    9.8122  -24.9534 C   0  0  0  0  0  0  0  0  0  0  0  0
   23.9411   12.9228  -25.1408 C   0  0  0  0  0  0  0  0  0  0  0  0
   23.4932   16.4601  -27.8750 C   0  0  0  0  0  0  0  0  0  0  0  0
   25.5087   15.3909  -27.3872 C   0  0  0  0  0  0  0  0  0  0  0  0
   24.8025   14.4905  -26.5509 C   0  0  0  0  0  0  0  0  0  0  0  0
   21.2724   13.0423  -23.8360 C   0  0  0  0  0  0  0  0  0  0  0  0
   20.6521   12.9996  -26.3977 C   0  0  0  0  0  0  0  0  0  0  0  0
   26.6631   12.4695  -24.2292 O   0  0  0  0  0  0  0  0  0  0  0  0
   27.3753   12.6386  -26.3574 N   0  0  0  0  0  0  0  0  0  0  0  0
   30.6878   11.5663  -26.6406 N   0  0  0  0  0  0  0  0  0  0  0  0
   29.5948   12.3334  -27.0149 N   0  0  0  0  0  0  0  0  0  0  0  0
   25.1249   13.3315  -25.7027 C   0  0  0  0  0  0  0  0  0  0  0  0
   22.9391   13.6828  -25.5975 N   0  0  0  0  0  0  0  0  0  0  0  0
   23.4002   14.6457  -26.4405 C   0  0  0  0  0  0  0  0  0  0  0  0
   22.7918   15.6287  -27.1201 N   0  0  0  0  0  0  0  0  0  0  0  0
   24.8118   16.3505  -28.0273 N   0  0  0  0  0  0  0  0  0  0  0  0
   26.8712   15.3041  -27.5969 N   0  0  0  0  0  0  0  0  0  0  0  0
   21.5296   13.5265  -25.2656 C   0  0  2  0  0  0  0  0  0  0  0  0
   20.4915   14.4398  -25.9173 C   0  0  0  0  0  0  0  0  0  0  0  0
   28.4261   10.5782  -24.5434 H   0  0  0  0  0  0  0  0  0  0  0  0
   31.1608    9.9180  -23.8628 H   0  0  0  0  0  0  0  0  0  0  0  0
   30.9703    8.7924  -25.2496 H   0  0  0  0  0  0  0  0  0  0  0  0
   32.2994   10.0007  -25.2496 H   0  0  0  0  0  0  0  0  0  0  0  0
   23.8327   12.0958  -24.4237 H   0  0  0  0  0  0  0  0  0  0  0  0
   22.9664   17.2728  -28.3967 H   0  0  0  0  0  0  0  0  0  0  0  0
   21.6651   13.7815  -23.1223 H   0  0  0  0  0  0  0  0  0  0  0  0
   20.1905   12.9201  -23.6793 H   0  0  0  0  0  0  0  0  0  0  0  0
   21.7769   12.0774  -23.6793 H   0  0  0  0  0  0  0  0  0  0  0  0
   21.0923   12.7952  -27.3848 H   0  0  0  0  0  0  0  0  0  0  0  0
   19.9752   12.1414  -26.5214 H   0  0  0  0  0  0  0  0  0  0  0  0
   27.1347   12.9646  -27.3043 H   0  0  0  0  0  0  0  0  0  0  0  0
   31.6161   11.5936  -27.0861 H   0  0  0  0  0  0  0  0  0  0  0  0
   27.3414   15.9817  -28.2138 H   0  0  0  0  0  0  0  0  0  0  0  0
   27.4169   14.5619  -27.1362 H   0  0  0  0  0  0  0  0  0  0  0  0
   20.8164   15.2730  -26.5578 H   0  0  0  0  0  0  0  0  0  0  0  0
   19.6518   15.0490  -25.5513 H   0  0  0  0  0  0  0  0  0  0  0  0
  1 12  2  0
  1 13  1  0
  1 16  1  0
  2  3  1  0
  2 13  1  0
  2 15  2  0
  3  4  2  0
  4  5  1  0
  4 14  1  0
  6 16  2  0
  6 17  1  0
  7 19  2  0
  7 20  1  0
  8  9  1  0
  8 20  2  0
  8 21  1  0
  9 16  1  0
  9 18  2  0
 22 10  1  1
 11 22  1  0
 11 23  1  0
 14 15  1  0
 17 18  1  0
 17 22  1  0
 18 19  1  0
 22 23  1  0
  3 24  1  0
  5 25  1  0
  5 26  1  0
  5 27  1  0
  6 28  1  0
  7 29  1  0
 10 30  1  0
 10 31  1  0
 10 32  1  0
 11 33  1  0
 11 34  1  0
 13 35  1  0
 14 36  1  0
 21 37  1  0
 21 38  1  0
 23 39  1  0
 23 40  1  0
M  END
>  <filename_input>  (18) 
7DUA_HJ0_docked.sdf

>  <pdb_id>  (18) 
7DUA_HJ0

>  <pose_rank>  (18) 
17

>  <num_atoms_heavy>  (18) 
23

>  <num_torsions>  (18) 
2

>  <pose>  (18) 
[23.94112445665223, 12.922797371266414, -25.140794632858054, 4.968858800166261, 1.9689087294662926, 3.185242771157645, 2.1680458745374587, 2.401927976570839]

>  <energy>  (18) 
-1446.571358043259

>  <inter_energy>  (18) 
-1489.4683840166376

>  <intra_energy>  (18) 
35.92659356471826

>  <rmsd>  (18) 
1.74202

>  <sdf_rank>  (18) 
0

$$$$

     RDKit          3D

 40 43  0  0  0  0  0  0  0  0999 V2000
   26.5526   12.6900  -25.5549 C   0  0  0  0  0  0  0  0  0  0  0  0
   27.9932   11.0372  -24.5429 C   0  0  0  0  0  0  0  0  0  0  0  0
   29.1388   11.6855  -24.1587 C   0  0  0  0  0  0  0  0  0  0  0  0
   30.0525   10.7031  -23.8000 C   0  0  0  0  0  0  0  0  0  0  0  0
   31.4659   10.9189  -23.3329 C   0  0  0  0  0  0  0  0  0  0  0  0
   24.0422   12.6915  -25.2283 C   0  0  0  0  0  0  0  0  0  0  0  0
   23.3799   16.3571  -27.7411 C   0  0  0  0  0  0  0  0  0  0  0  0
   25.4471   15.3388  -27.3761 C   0  0  0  0  0  0  0  0  0  0  0  0
   24.8010   14.3670  -26.5718 C   0  0  0  0  0  0  0  0  0  0  0  0
   20.5969   13.8432  -26.2057 C   0  0  0  0  0  0  0  0  0  0  0  0
   21.3201   13.2260  -23.7470 C   0  0  0  0  0  0  0  0  0  0  0  0
   27.4746   13.4285  -25.8745 O   0  0  0  0  0  0  0  0  0  0  0  0
   26.7591   11.5217  -24.9168 N   0  0  0  0  0  0  0  0  0  0  0  0
   29.4644    9.5453  -23.9277 N   0  0  0  0  0  0  0  0  0  0  0  0
   28.1612    9.7394  -24.3603 N   0  0  0  0  0  0  0  0  0  0  0  0
   25.1919   13.1753  -25.8013 C   0  0  0  0  0  0  0  0  0  0  0  0
   22.9994   13.4376  -25.6105 N   0  0  0  0  0  0  0  0  0  0  0  0
   23.3982   14.4630  -26.4105 C   0  0  0  0  0  0  0  0  0  0  0  0
   22.7334   15.4589  -27.0142 N   0  0  0  0  0  0  0  0  0  0  0  0
   24.6960   16.3059  -27.9390 N   0  0  0  0  0  0  0  0  0  0  0  0
   26.8044   15.3154  -27.6313 N   0  0  0  0  0  0  0  0  0  0  0  0
   21.6079   13.2100  -25.2458 C   0  0  2  0  0  0  0  0  0  0  0  0
   21.2134   11.9189  -24.5288 C   0  0  0  0  0  0  0  0  0  0  0  0
   29.3023   12.7731  -24.1385 H   0  0  0  0  0  0  0  0  0  0  0  0
   31.4921   10.9229  -22.2333 H   0  0  0  0  0  0  0  0  0  0  0  0
   32.1052   10.1080  -23.7120 H   0  0  0  0  0  0  0  0  0  0  0  0
   31.8341   11.8837  -23.7120 H   0  0  0  0  0  0  0  0  0  0  0  0
   23.9866   11.8221  -24.5568 H   0  0  0  0  0  0  0  0  0  0  0  0
   22.8078   17.1773  -28.1994 H   0  0  0  0  0  0  0  0  0  0  0  0
   19.8038   14.3399  -25.6275 H   0  0  0  0  0  0  0  0  0  0  0  0
   21.1070   14.5835  -26.8395 H   0  0  0  0  0  0  0  0  0  0  0  0
   20.1535   13.0611  -26.8395 H   0  0  0  0  0  0  0  0  0  0  0  0
   22.1421   13.3727  -23.0310 H   0  0  0  0  0  0  0  0  0  0  0  0
   20.6462   13.7965  -23.0910 H   0  0  0  0  0  0  0  0  0  0  0  0
   25.9335   10.9484  -24.6921 H   0  0  0  0  0  0  0  0  0  0  0  0
   29.8995    8.6313  -23.7372 H   0  0  0  0  0  0  0  0  0  0  0  0
   27.2299   16.0437  -28.2224 H   0  0  0  0  0  0  0  0  0  0  0  0
   27.3909   14.5696  -27.2305 H   0  0  0  0  0  0  0  0  0  0  0  0
   21.9587   11.1243  -24.3766 H   0  0  0  0  0  0  0  0  0  0  0  0
   20.4315   11.1581  -24.6699 H   0  0  0  0  0  0  0  0  0  0  0  0
  1 12  2  0
  1 13  1  0
  1 16  1  0
  2  3  1  0
  2 13  1  0
  2 15  2  0
  3  4  2  0
  4  5  1  0
  4 14  1  0
  6 16  2  0
  6 17  1  0
  7 19  2  0
  7 20  1  0
  8  9  1  0
  8 20  2  0
  8 21  1  0
  9 16  1  0
  9 18  2  0
 22 10  1  6
 11 22  1  0
 11 23  1  0
 14 15  1  0
 17 18  1  0
 17 22  1  0
 18 19  1  0
 22 23  1  0
  3 24  1  0
  5 25  1  0
  5 26  1  0
  5 27  1  0
  6 28  1  0
  7 29  1  0
 10 30  1  0
 10 31  1  0
 10 32  1  0
 11 33  1  0
 11 34  1  0
 13 35  1  0
 14 36  1  0
 21 37  1  0
 21 38  1  0
 23 39  1  0
 23 40  1  0
M  END
>  <filename_input>  (19) 
7DUA_HJ0_docked.sdf

>  <pdb_id>  (19) 
7DUA_HJ0

>  <pose_rank>  (19) 
18

>  <num_atoms_heavy>  (19) 
23

>  <num_torsions>  (19) 
2

>  <pose>  (19) 
[24.04221861847395, 12.691490421603365, -25.228346394503085, 3.166799265457904, 4.907133438378901, 2.3578474760212496, -0.0682478565319492, -0.946652402707659]

>  <energy>  (19) 
-1660.3742472620402

>  <inter_energy>  (19) 
-1733.388635519444

>  <intra_energy>  (19) 
51.068717456043075

>  <rmsd>  (19) 
0.535262

>  <sdf_rank>  (19) 
0

$$$$

     RDKit          3D

 40 43  0  0  0  0  0  0  0  0999 V2000
   26.2610   12.9739  -25.4855 C   0  0  0  0  0  0  0  0  0  0  0  0
   28.1490   11.4708  -25.5729 C   0  0  0  0  0  0  0  0  0  0  0  0
   28.6566   11.3907  -24.3016 C   0  0  0  0  0  0  0  0  0  0  0  0
   29.8715   10.7248  -24.3979 C   0  0  0  0  0  0  0  0  0  0  0  0
   30.8185   10.4168  -23.2705 C   0  0  0  0  0  0  0  0  0  0  0  0
   23.7496   12.7152  -25.6712 C   0  0  0  0  0  0  0  0  0  0  0  0
   23.2130   16.4261  -28.1472 C   0  0  0  0  0  0  0  0  0  0  0  0
   25.2633   15.5950  -27.4062 C   0  0  0  0  0  0  0  0  0  0  0  0
   24.5774   14.5244  -26.7800 C   0  0  0  0  0  0  0  0  0  0  0  0
   20.4177   14.0621  -25.5427 C   0  0  0  0  0  0  0  0  0  0  0  0
   21.0674   11.5253  -25.8452 C   0  0  0  0  0  0  0  0  0  0  0  0
   26.6697   13.5735  -24.5001 O   0  0  0  0  0  0  0  0  0  0  0  0
   26.9479   11.9566  -26.0407 N   0  0  0  0  0  0  0  0  0  0  0  0
   30.0488   10.3966  -25.6483 N   0  0  0  0  0  0  0  0  0  0  0  0
   28.9611   10.8275  -26.3930 N   0  0  0  0  0  0  0  0  0  0  0  0
   24.9321   13.3374  -25.9851 C   0  0  0  0  0  0  0  0  0  0  0  0
   22.7298   13.3758  -26.2314 N   0  0  0  0  0  0  0  0  0  0  0  0
   23.1682   14.4755  -26.9015 C   0  0  0  0  0  0  0  0  0  0  0  0
   22.5343   15.4327  -27.5945 N   0  0  0  0  0  0  0  0  0  0  0  0
   24.5402   16.5130  -28.0776 N   0  0  0  0  0  0  0  0  0  0  0  0
   26.6390   15.7164  -27.3835 N   0  0  0  0  0  0  0  0  0  0  0  0
   21.3256   12.9958  -26.1618 C   0  0  2  0  0  0  0  0  0  0  0  0
   20.7353   12.0755  -27.2301 C   0  0  0  0  0  0  0  0  0  0  0  0
   28.1917   11.7789  -23.3834 H   0  0  0  0  0  0  0  0  0  0  0  0
   30.3101   10.5821  -22.3091 H   0  0  0  0  0  0  0  0  0  0  0  0
   31.1412    9.3675  -23.3390 H   0  0  0  0  0  0  0  0  0  0  0  0
   31.6966   11.0757  -23.3390 H   0  0  0  0  0  0  0  0  0  0  0  0
   23.6547   11.8105  -25.0527 H   0  0  0  0  0  0  0  0  0  0  0  0
   22.6592   17.2099  -28.6848 H   0  0  0  0  0  0  0  0  0  0  0  0
   20.4722   13.9981  -24.4459 H   0  0  0  0  0  0  0  0  0  0  0  0
   20.7483   15.0593  -25.8687 H   0  0  0  0  0  0  0  0  0  0  0  0
   19.3806   13.8948  -25.8687 H   0  0  0  0  0  0  0  0  0  0  0  0
   21.9132   10.8339  -25.7167 H   0  0  0  0  0  0  0  0  0  0  0  0
   20.5066   10.9842  -25.0689 H   0  0  0  0  0  0  0  0  0  0  0  0
   26.5453   11.5092  -26.8766 H   0  0  0  0  0  0  0  0  0  0  0  0
   30.8674    9.8965  -26.0232 H   0  0  0  0  0  0  0  0  0  0  0  0
   27.0935   16.5125  -27.8532 H   0  0  0  0  0  0  0  0  0  0  0  0
   27.2103   15.0109  -26.8969 H   0  0  0  0  0  0  0  0  0  0  0  0
   21.3422   11.7812  -28.0991 H   0  0  0  0  0  0  0  0  0  0  0  0
   19.8370   12.0957  -27.8646 H   0  0  0  0  0  0  0  0  0  0  0  0
  1 12  2  0
  1 13  1  0
  1 16  1  0
  2  3  1  0
  2 13  1  0
  2 15  2  0
  3  4  2  0
  4  5  1  0
  4 14  1  0
  6 16  2  0
  6 17  1  0
  7 19  2  0
  7 20  1  0
  8  9  1  0
  8 20  2  0
  8 21  1  0
  9 16  1  0
  9 18  2  0
 22 10  1  1
 11 22  1  0
 11 23  1  0
 14 15  1  0
 17 18  1  0
 17 22  1  0
 18 19  1  0
 22 23  1  0
  3 24  1  0
  5 25  1  0
  5 26  1  0
  5 27  1  0
  6 28  1  0
  7 29  1  0
 10 30  1  0
 10 31  1  0
 10 32  1  0
 11 33  1  0
 11 34  1  0
 13 35  1  0
 14 36  1  0
 21 37  1  0
 21 38  1  0
 23 39  1  0
 23 40  1  0
M  END
>  <filename_input>  (20) 
7DUA_HJ0_docked.sdf

>  <pdb_id>  (20) 
7DUA_HJ0

>  <pose_rank>  (20) 
19

>  <num_atoms_heavy>  (20) 
23

>  <num_torsions>  (20) 
2

>  <pose>  (20) 
[23.749573799067342, 12.715203078809497, -25.671166193377214, 0.0489448725064816, -0.18895450481926093, 0.10857002954042663, -5.171185318878551, -2.3549206639439704]

>  <energy>  (20) 
-1193.6508180943072

>  <inter_energy>  (20) 
-1214.3656260034134

>  <intra_energy>  (20) 
6.052067870578323

>  <rmsd>  (20) 
1.35039

>  <sdf_rank>  (20) 
0

$$$$

     RDKit          3D

 40 43  0  0  0  0  0  0  0  0999 V2000
   26.3210   12.8752  -25.4457 C   0  0  0  0  0  0  0  0  0  0  0  0
   28.2031   11.4909  -26.0564 C   0  0  0  0  0  0  0  0  0  0  0  0
   28.7729   11.0517  -24.8891 C   0  0  0  0  0  0  0  0  0  0  0  0
   29.9818   10.4607  -25.2324 C   0  0  0  0  0  0  0  0  0  0  0  0
   30.9834    9.8519  -24.2896 C   0  0  0  0  0  0  0  0  0  0  0  0
   23.7990   12.8617  -25.2272 C   0  0  0  0  0  0  0  0  0  0  0  0
   23.2206   16.5007  -27.7987 C   0  0  0  0  0  0  0  0  0  0  0  0
   25.2771   15.5003  -27.3362 C   0  0  0  0  0  0  0  0  0  0  0  0
   24.6035   14.5310  -26.5517 C   0  0  0  0  0  0  0  0  0  0  0  0
   20.5379   12.8642  -26.5424 C   0  0  0  0  0  0  0  0  0  0  0  0
   20.7392   14.3577  -24.3796 C   0  0  0  0  0  0  0  0  0  0  0  0
   26.7775   13.1678  -24.3487 O   0  0  0  0  0  0  0  0  0  0  0  0
   26.9802   12.0741  -26.3051 N   0  0  0  0  0  0  0  0  0  0  0  0
   30.0974   10.5136  -26.5310 N   0  0  0  0  0  0  0  0  0  0  0  0
   28.9741   11.1265  -27.0656 N   0  0  0  0  0  0  0  0  0  0  0  0
   24.9689   13.3487  -25.7546 C   0  0  0  0  0  0  0  0  0  0  0  0
   22.7686   13.5971  -25.6604 N   0  0  0  0  0  0  0  0  0  0  0  0
   23.1945   14.6183  -26.4517 C   0  0  0  0  0  0  0  0  0  0  0  0
   22.5496   15.6043  -27.0922 N   0  0  0  0  0  0  0  0  0  0  0  0
   24.5443   16.4572  -27.9394 N   0  0  0  0  0  0  0  0  0  0  0  0
   26.6442   15.4843  -27.5327 N   0  0  0  0  0  0  0  0  0  0  0  0
   21.3642   13.3628  -25.3537 C   0  0  2  0  0  0  0  0  0  0  0  0
   20.9599   12.9090  -23.9511 C   0  0  0  0  0  0  0  0  0  0  0  0
   28.3536   11.1486  -23.8768 H   0  0  0  0  0  0  0  0  0  0  0  0
   30.6721   10.0411  -23.2517 H   0  0  0  0  0  0  0  0  0  0  0  0
   31.0387    8.7672  -24.4639 H   0  0  0  0  0  0  0  0  0  0  0  0
   31.9718   10.3021  -24.4639 H   0  0  0  0  0  0  0  0  0  0  0  0
   23.7204   11.9977  -24.5509 H   0  0  0  0  0  0  0  0  0  0  0  0
   22.6633   17.3129  -28.2883 H   0  0  0  0  0  0  0  0  0  0  0  0
   19.6507   12.3288  -26.1734 H   0  0  0  0  0  0  0  0  0  0  0  0
   20.2207   13.7217  -27.1539 H   0  0  0  0  0  0  0  0  0  0  0  0
   21.1488   12.1838  -27.1539 H   0  0  0  0  0  0  0  0  0  0  0  0
   21.3530   15.1596  -23.9434 H   0  0  0  0  0  0  0  0  0  0  0  0
   19.8738   15.0361  -24.4099 H   0  0  0  0  0  0  0  0  0  0  0  0
   26.5371   11.8836  -27.2152 H   0  0  0  0  0  0  0  0  0  0  0  0
   30.8968   10.1565  -27.0735 H   0  0  0  0  0  0  0  0  0  0  0  0
   27.0898   16.2105  -28.1114 H   0  0  0  0  0  0  0  0  0  0  0  0
   27.2180   14.7461  -27.1005 H   0  0  0  0  0  0  0  0  0  0  0  0
   21.7329   12.6671  -23.2069 H   0  0  0  0  0  0  0  0  0  0  0  0
   20.3201   12.1114  -23.5455 H   0  0  0  0  0  0  0  0  0  0  0  0
  1 12  2  0
  1 13  1  0
  1 16  1  0
  2  3  1  0
  2 13  1  0
  2 15  2  0
  3  4  2  0
  4  5  1  0
  4 14  1  0
  6 16  2  0
  6 17  1  0
  7 19  2  0
  7 20  1  0
  8  9  1  0
  8 20  2  0
  8 21  1  0
  9 16  1  0
  9 18  2  0
 22 10  1  6
 11 22  1  0
 11 23  1  0
 14 15  1  0
 17 18  1  0
 17 22  1  0
 18 19  1  0
 22 23  1  0
  3 24  1  0
  5 25  1  0
  5 26  1  0
  5 27  1  0
  6 28  1  0
  7 29  1  0
 10 30  1  0
 10 31  1  0
 10 32  1  0
 11 33  1  0
 11 34  1  0
 13 35  1  0
 14 36  1  0
 21 37  1  0
 21 38  1  0
 23 39  1  0
 23 40  1  0
M  END
>  <filename_input>  (21) 
7DUA_HJ0_docked.sdf

>  <pdb_id>  (21) 
7DUA_HJ0

>  <pose_rank>  (21) 
20

>  <num_atoms_heavy>  (21) 
23

>  <num_torsions>  (21) 
2

>  <pose>  (21) 
[23.798973961499716, 12.861704725129202, -25.227210668985187, 0.25001069337602977, 5.786109744327854, -2.348417986354448, 1.4886731371863937, -0.1058047525461191]

>  <energy>  (21) 
-1471.5923106019131

>  <inter_energy>  (21) 
-1482.6027973343964

>  <intra_energy>  (21) 
3.279950278163895

>  <rmsd>  (21) 
1.18152

>  <sdf_rank>  (21) 
0

$$$$

     RDKit          3D

 40 43  0  0  0  0  0  0  0  0999 V2000
   26.5944   12.7076  -25.5346 C   0  0  0  0  0  0  0  0  0  0  0  0
   28.1028   11.3337  -24.2428 C   0  0  0  0  0  0  0  0  0  0  0  0
   29.2970   12.0041  -24.1752 C   0  0  0  0  0  0  0  0  0  0  0  0
   30.2239   11.1164  -23.6447 C   0  0  0  0  0  0  0  0  0  0  0  0
   31.6844   11.3819  -23.4017 C   0  0  0  0  0  0  0  0  0  0  0  0
   24.0886   12.6883  -25.1745 C   0  0  0  0  0  0  0  0  0  0  0  0
   23.3528   16.2973  -27.7480 C   0  0  0  0  0  0  0  0  0  0  0  0
   25.4358   15.3087  -27.3912 C   0  0  0  0  0  0  0  0  0  0  0  0
   24.8111   14.3457  -26.5598 C   0  0  0  0  0  0  0  0  0  0  0  0
   20.9709   14.3814  -24.5046 C   0  0  0  0  0  0  0  0  0  0  0  0
   21.3520   11.7769  -24.6473 C   0  0  0  0  0  0  0  0  0  0  0  0
   27.4908   13.2783  -26.1414 O   0  0  0  0  0  0  0  0  0  0  0  0
   26.8454   11.7563  -24.6143 N   0  0  0  0  0  0  0  0  0  0  0  0
   29.6012   10.0011  -23.3783 N   0  0  0  0  0  0  0  0  0  0  0  0
   28.2626   10.1325  -23.7161 N   0  0  0  0  0  0  0  0  0  0  0  0
   25.2252   13.1733  -25.7719 C   0  0  0  0  0  0  0  0  0  0  0  0
   23.0327   13.4156  -25.5569 N   0  0  0  0  0  0  0  0  0  0  0  0
   23.4096   14.4295  -26.3817 C   0  0  0  0  0  0  0  0  0  0  0  0
   22.7259   15.4064  -26.9954 N   0  0  0  0  0  0  0  0  0  0  0  0
   24.6666   16.2566  -27.9624 N   0  0  0  0  0  0  0  0  0  0  0  0
   26.7897   15.2949  -27.6640 N   0  0  0  0  0  0  0  0  0  0  0  0
   21.6487   13.1801  -25.1693 C   0  0  2  0  0  0  0  0  0  0  0  0
   20.7831   12.2252  -25.9913 C   0  0  0  0  0  0  0  0  0  0  0  0
   29.4845   13.0438  -24.4818 H   0  0  0  0  0  0  0  0  0  0  0  0
   31.8755   11.4166  -22.3190 H   0  0  0  0  0  0  0  0  0  0  0  0
   32.2835   10.5779  -23.8542 H   0  0  0  0  0  0  0  0  0  0  0  0
   31.9622   12.3453  -23.8542 H   0  0  0  0  0  0  0  0  0  0  0  0
   24.0515   11.8314  -24.4857 H   0  0  0  0  0  0  0  0  0  0  0  0
   22.7657   17.1023  -28.2141 H   0  0  0  0  0  0  0  0  0  0  0  0
   21.0299   14.2770  -23.4112 H   0  0  0  0  0  0  0  0  0  0  0  0
   21.4803   15.3065  -24.8126 H   0  0  0  0  0  0  0  0  0  0  0  0
   19.9158   14.4239  -24.8126 H   0  0  0  0  0  0  0  0  0  0  0  0
   22.1518   11.0226  -24.6129 H   0  0  0  0  0  0  0  0  0  0  0  0
   20.9248   11.3667  -23.7204 H   0  0  0  0  0  0  0  0  0  0  0  0
   26.0377   11.3124  -24.1545 H   0  0  0  0  0  0  0  0  0  0  0  0
   30.0354    9.1563  -22.9799 H   0  0  0  0  0  0  0  0  0  0  0  0
   27.1994   16.0162  -28.2746 H   0  0  0  0  0  0  0  0  0  0  0  0
   27.3897   14.5634  -27.2569 H   0  0  0  0  0  0  0  0  0  0  0  0
   21.1735   11.7945  -26.9252 H   0  0  0  0  0  0  0  0  0  0  0  0
   19.7771   12.2723  -26.4338 H   0  0  0  0  0  0  0  0  0  0  0  0
  1 12  2  0
  1 13  1  0
  1 16  1  0
  2  3  1  0
  2 13  1  0
  2 15  2  0
  3  4  2  0
  4  5  1  0
  4 14  1  0
  6 16  2  0
  6 17  1  0
  7 19  2  0
  7 20  1  0
  8  9  1  0
  8 20  2  0
  8 21  1  0
  9 16  1  0
  9 18  2  0
 22 10  1  1
 11 22  1  0
 11 23  1  0
 14 15  1  0
 17 18  1  0
 17 22  1  0
 18 19  1  0
 22 23  1  0
  3 24  1  0
  5 25  1  0
  5 26  1  0
  5 27  1  0
  6 28  1  0
  7 29  1  0
 10 30  1  0
 10 31  1  0
 10 32  1  0
 11 33  1  0
 11 34  1  0
 13 35  1  0
 14 36  1  0
 21 37  1  0
 21 38  1  0
 23 39  1  0
 23 40  1  0
M  END
>  <filename_input>  (22) 
7DUA_HJ0_docked.sdf

>  <pdb_id>  (22) 
7DUA_HJ0

>  <pose_rank>  (22) 
21

>  <num_atoms_heavy>  (22) 
23

>  <num_torsions>  (22) 
2

>  <pose>  (22) 
[24.088622252896045, 12.688257882777563, -25.174514341411285, -2.2902511342629106, 4.928616798387988, 3.216738337792171, -0.3559771364678084, 3.968963478069667]

>  <energy>  (22) 
-1649.4301458820003

>  <inter_energy>  (22) 
-1672.9748789089406

>  <intra_energy>  (22) 
36.312578178798994

>  <rmsd>  (22) 
0.946705

>  <sdf_rank>  (22) 
0

$$$$

     RDKit          3D

 40 43  0  0  0  0  0  0  0  0999 V2000
   26.7696   12.8719  -25.4225 C   0  0  0  0  0  0  0  0  0  0  0  0
   28.4514   11.1401  -25.3582 C   0  0  0  0  0  0  0  0  0  0  0  0
   29.2725   11.4183  -24.2958 C   0  0  0  0  0  0  0  0  0  0  0  0
   30.3659   10.5688  -24.4030 C   0  0  0  0  0  0  0  0  0  0  0  0
   31.5543   10.5143  -23.4825 C   0  0  0  0  0  0  0  0  0  0  0  0
   24.2597   12.7448  -25.1183 C   0  0  0  0  0  0  0  0  0  0  0  0
   23.4125   16.1814  -27.8863 C   0  0  0  0  0  0  0  0  0  0  0  0
   25.5318   15.3171  -27.4335 C   0  0  0  0  0  0  0  0  0  0  0  0
   24.9345   14.3661  -26.5688 C   0  0  0  0  0  0  0  0  0  0  0  0
   21.0739   14.2847  -24.5245 C   0  0  0  0  0  0  0  0  0  0  0  0
   21.5429   11.6959  -24.6884 C   0  0  0  0  0  0  0  0  0  0  0  0
   27.4689   13.6968  -24.8498 O   0  0  0  0  0  0  0  0  0  0  0  0
   27.2077   11.6274  -25.6948 N   0  0  0  0  0  0  0  0  0  0  0  0
   30.1789    9.8072  -25.4459 N   0  0  0  0  0  0  0  0  0  0  0  0
   28.9663   10.1299  -26.0364 N   0  0  0  0  0  0  0  0  0  0  0  0
   25.3857   13.2562  -25.7138 C   0  0  0  0  0  0  0  0  0  0  0  0
   23.1793   13.3986  -25.5604 N   0  0  0  0  0  0  0  0  0  0  0  0
   23.5265   14.3883  -26.4266 C   0  0  0  0  0  0  0  0  0  0  0  0
   22.8114   15.2983  -27.1040 N   0  0  0  0  0  0  0  0  0  0  0  0
   24.7317   16.1960  -28.0689 N   0  0  0  0  0  0  0  0  0  0  0  0
   26.8912   15.3578  -27.6748 N   0  0  0  0  0  0  0  0  0  0  0  0
   21.7992   13.1134  -25.1926 C   0  0  2  0  0  0  0  0  0  0  0  0
   20.9759   12.1390  -26.0349 C   0  0  0  0  0  0  0  0  0  0  0  0
   29.0988   12.1690  -23.5108 H   0  0  0  0  0  0  0  0  0  0  0  0
   31.2100   10.5301  -22.4379 H   0  0  0  0  0  0  0  0  0  0  0  0
   32.1198    9.5893  -23.6682 H   0  0  0  0  0  0  0  0  0  0  0  0
   32.2021   11.3837  -23.6682 H   0  0  0  0  0  0  0  0  0  0  0  0
   24.2474   11.9221  -24.3882 H   0  0  0  0  0  0  0  0  0  0  0  0
   22.7985   16.9320  -28.4054 H   0  0  0  0  0  0  0  0  0  0  0  0
   21.1384   14.1804  -23.4314 H   0  0  0  0  0  0  0  0  0  0  0  0
   21.5446   15.2304  -24.8311 H   0  0  0  0  0  0  0  0  0  0  0  0
   20.0175   14.2847  -24.8311 H   0  0  0  0  0  0  0  0  0  0  0  0
   22.3669   10.9681  -24.6516 H   0  0  0  0  0  0  0  0  0  0  0  0
   21.1183   11.2621  -23.7711 H   0  0  0  0  0  0  0  0  0  0  0  0
   26.5653   10.9934  -26.1911 H   0  0  0  0  0  0  0  0  0  0  0  0
   30.8293    9.0809  -25.7781 H   0  0  0  0  0  0  0  0  0  0  0  0
   27.2801   16.0678  -28.3116 H   0  0  0  0  0  0  0  0  0  0  0  0
   27.5159   14.6782  -27.2179 H   0  0  0  0  0  0  0  0  0  0  0  0
   21.3917   11.7312  -26.9681 H   0  0  0  0  0  0  0  0  0  0  0  0
   19.9744   12.1574  -26.4895 H   0  0  0  0  0  0  0  0  0  0  0  0
  1 12  2  0
  1 13  1  0
  1 16  1  0
  2  3  1  0
  2 13  1  0
  2 15  2  0
  3  4  2  0
  4  5  1  0
  4 14  1  0
  6 16  2  0
  6 17  1  0
  7 19  2  0
  7 20  1  0
  8  9  1  0
  8 20  2  0
  8 21  1  0
  9 16  1  0
  9 18  2  0
 22 10  1  1
 11 22  1  0
 11 23  1  0
 14 15  1  0
 17 18  1  0
 17 22  1  0
 18 19  1  0
 22 23  1  0
  3 24  1  0
  5 25  1  0
  5 26  1  0
  5 27  1  0
  6 28  1  0
  7 29  1  0
 10 30  1  0
 10 31  1  0
 10 32  1  0
 11 33  1  0
 11 34  1  0
 13 35  1  0
 14 36  1  0
 21 37  1  0
 21 38  1  0
 23 39  1  0
 23 40  1  0
M  END
>  <filename_input>  (23) 
7DUA_HJ0_docked.sdf

>  <pdb_id>  (23) 
7DUA_HJ0

>  <pose_rank>  (23) 
22

>  <num_atoms_heavy>  (23) 
23

>  <num_torsions>  (23) 
2

>  <pose>  (23) 
[24.259667466922437, 12.744806587519466, -25.118285548168636, -0.06235438338915264, 0.001534471994462416, 0.06518679867901295, -5.444514585892117, -2.377508525840771]

>  <energy>  (23) 
-1578.2612835972766

>  <inter_energy>  (23) 
-1568.2177982747414

>  <intra_energy>  (23) 
6.409536544933

>  <rmsd>  (23) 
1.16079

>  <sdf_rank>  (23) 
0

$$$$

     RDKit          3D

 40 43  0  0  0  0  0  0  0  0999 V2000
   26.4556   12.7067  -25.4712 C   0  0  0  0  0  0  0  0  0  0  0  0
   27.8946   11.0015  -24.5475 C   0  0  0  0  0  0  0  0  0  0  0  0
   29.0128   11.6360  -24.0708 C   0  0  0  0  0  0  0  0  0  0  0  0
   29.9338   10.6436  -23.7616 C   0  0  0  0  0  0  0  0  0  0  0  0
   31.3258   10.8450  -23.2282 C   0  0  0  0  0  0  0  0  0  0  0  0
   23.9449   12.7084  -25.1472 C   0  0  0  0  0  0  0  0  0  0  0  0
   23.2793   16.3398  -27.7083 C   0  0  0  0  0  0  0  0  0  0  0  0
   25.3478   15.3298  -27.3279 C   0  0  0  0  0  0  0  0  0  0  0  0
   24.7024   14.3675  -26.5116 C   0  0  0  0  0  0  0  0  0  0  0  0
   20.9851   14.1711  -24.0924 C   0  0  0  0  0  0  0  0  0  0  0  0
   21.0732   11.7604  -25.1553 C   0  0  0  0  0  0  0  0  0  0  0  0
   27.3726   13.4853  -25.6959 O   0  0  0  0  0  0  0  0  0  0  0  0
   26.6643   11.4934  -24.9243 N   0  0  0  0  0  0  0  0  0  0  0  0
   29.3744    9.4901  -24.0049 N   0  0  0  0  0  0  0  0  0  0  0  0
   28.0830    9.6963  -24.4663 N   0  0  0  0  0  0  0  0  0  0  0  0
   25.0944   13.1866  -25.7252 C   0  0  0  0  0  0  0  0  0  0  0  0
   22.9013   13.4478  -25.5402 N   0  0  0  0  0  0  0  0  0  0  0  0
   23.2993   14.4633  -26.3531 C   0  0  0  0  0  0  0  0  0  0  0  0
   22.6336   15.4502  -26.9704 N   0  0  0  0  0  0  0  0  0  0  0  0
   24.5957   16.2883  -27.9041 N   0  0  0  0  0  0  0  0  0  0  0  0
   26.7054   15.3052  -27.5813 N   0  0  0  0  0  0  0  0  0  0  0  0
   21.5097   13.2227  -25.1740 C   0  0  2  0  0  0  0  0  0  0  0  0
   20.5242   12.7052  -26.2216 C   0  0  0  0  0  0  0  0  0  0  0  0
   29.1531   12.7209  -23.9555 H   0  0  0  0  0  0  0  0  0  0  0  0
   31.3011   10.8414  -22.1285 H   0  0  0  0  0  0  0  0  0  0  0  0
   31.9757   10.0315  -23.5830 H   0  0  0  0  0  0  0  0  0  0  0  0
   31.7184   11.8093  -23.5830 H   0  0  0  0  0  0  0  0  0  0  0  0
   23.8900   11.8477  -24.4644 H   0  0  0  0  0  0  0  0  0  0  0  0
   22.7065   17.1531  -28.1778 H   0  0  0  0  0  0  0  0  0  0  0  0
   21.2141   13.7572  -23.0993 H   0  0  0  0  0  0  0  0  0  0  0  0
   21.4680   15.1535  -24.2005 H   0  0  0  0  0  0  0  0  0  0  0  0
   19.8962   14.2839  -24.2005 H   0  0  0  0  0  0  0  0  0  0  0  0
   21.7857   10.9704  -25.4350 H   0  0  0  0  0  0  0  0  0  0  0  0
   20.6264   11.0921  -24.4044 H   0  0  0  0  0  0  0  0  0  0  0  0
   25.8434   10.8889  -24.7770 H   0  0  0  0  0  0  0  0  0  0  0  0
   29.8214    8.5713  -23.8747 H   0  0  0  0  0  0  0  0  0  0  0  0
   27.1304   16.0264  -28.1814 H   0  0  0  0  0  0  0  0  0  0  0  0
   27.2927   14.5656  -27.1702 H   0  0  0  0  0  0  0  0  0  0  0  0
   20.8416   12.5963  -27.2692 H   0  0  0  0  0  0  0  0  0  0  0  0
   19.5190   13.0000  -26.5571 H   0  0  0  0  0  0  0  0  0  0  0  0
  1 12  2  0
  1 13  1  0
  1 16  1  0
  2  3  1  0
  2 13  1  0
  2 15  2  0
  3  4  2  0
  4  5  1  0
  4 14  1  0
  6 16  2  0
  6 17  1  0
  7 19  2  0
  7 20  1  0
  8  9  1  0
  8 20  2  0
  8 21  1  0
  9 16  1  0
  9 18  2  0
 22 10  1  1
 11 22  1  0
 11 23  1  0
 14 15  1  0
 17 18  1  0
 17 22  1  0
 18 19  1  0
 22 23  1  0
  3 24  1  0
  5 25  1  0
  5 26  1  0
  5 27  1  0
  6 28  1  0
  7 29  1  0
 10 30  1  0
 10 31  1  0
 10 32  1  0
 11 33  1  0
 11 34  1  0
 13 35  1  0
 14 36  1  0
 21 37  1  0
 21 38  1  0
 23 39  1  0
 23 40  1  0
M  END
>  <filename_input>  (24) 
7DUA_HJ0_docked.sdf

>  <pdb_id>  (24) 
7DUA_HJ0

>  <pose_rank>  (24) 
23

>  <num_atoms_heavy>  (24) 
23

>  <num_torsions>  (24) 
2

>  <pose>  (24) 
[23.944900067198493, 12.708401327763308, -25.147239007047705, -2.456567972093735, 4.8203426351809275, 3.2224863712221867, 0.03473399664292996, 3.5992608797496244]

>  <energy>  (24) 
-1647.224312846102

>  <inter_energy>  (24) 
-1683.0182279570986

>  <intra_energy>  (24) 
25.476128656087116

>  <rmsd>  (24) 
0.88139

>  <sdf_rank>  (24) 
0

$$$$

     RDKit          3D

 40 43  0  0  0  0  0  0  0  0999 V2000
   26.2761   12.7813  -25.1617 C   0  0  0  0  0  0  0  0  0  0  0  0
   28.4724   12.0252  -25.8222 C   0  0  0  0  0  0  0  0  0  0  0  0
   28.8264   11.0200  -24.9594 C   0  0  0  0  0  0  0  0  0  0  0  0
   30.1703   10.7535  -25.1865 C   0  0  0  0  0  0  0  0  0  0  0  0
   31.0202    9.7446  -24.4638 C   0  0  0  0  0  0  0  0  0  0  0  0
   23.7568   12.9772  -25.0084 C   0  0  0  0  0  0  0  0  0  0  0  0
   23.4996   16.3287  -27.9901 C   0  0  0  0  0  0  0  0  0  0  0  0
   25.4663   15.2407  -27.3641 C   0  0  0  0  0  0  0  0  0  0  0  0
   24.7080   14.4198  -26.4924 C   0  0  0  0  0  0  0  0  0  0  0  0
   20.8105   14.8302  -24.4743 C   0  0  0  0  0  0  0  0  0  0  0  0
   20.8677   12.2336  -24.9247 C   0  0  0  0  0  0  0  0  0  0  0  0
   26.4022   12.4180  -24.0000 O   0  0  0  0  0  0  0  0  0  0  0  0
   27.2544   12.6175  -26.0733 N   0  0  0  0  0  0  0  0  0  0  0  0
   30.5729   11.5296  -26.1551 N   0  0  0  0  0  0  0  0  0  0  0  0
   29.5110   12.3095  -26.5878 N   0  0  0  0  0  0  0  0  0  0  0  0
   24.9692   13.3135  -25.5571 C   0  0  0  0  0  0  0  0  0  0  0  0
   22.7926   13.7311  -25.5487 N   0  0  0  0  0  0  0  0  0  0  0  0
   23.3081   14.6207  -26.4394 C   0  0  0  0  0  0  0  0  0  0  0  0
   22.7507   15.5709  -27.2041 N   0  0  0  0  0  0  0  0  0  0  0  0
   24.8185   16.1728  -28.0907 N   0  0  0  0  0  0  0  0  0  0  0  0
   26.8315   15.1024  -27.5220 N   0  0  0  0  0  0  0  0  0  0  0  0
   21.3694   13.6368  -25.2539 C   0  0  2  0  0  0  0  0  0  0  0  0
   20.4404   12.9091  -26.2255 C   0  0  0  0  0  0  0  0  0  0  0  0
   28.1725   10.5213  -24.2288 H   0  0  0  0  0  0  0  0  0  0  0  0
   30.9064    9.8798  -23.3780 H   0  0  0  0  0  0  0  0  0  0  0  0
   30.7011    8.7295  -24.7423 H   0  0  0  0  0  0  0  0  0  0  0  0
   32.0748    9.8869  -24.7423 H   0  0  0  0  0  0  0  0  0  0  0  0
   23.6016   12.2048  -24.2408 H   0  0  0  0  0  0  0  0  0  0  0  0
   23.0138   17.1177  -28.5829 H   0  0  0  0  0  0  0  0  0  0  0  0
   20.9007   14.6378  -23.3950 H   0  0  0  0  0  0  0  0  0  0  0  0
   21.3781   15.7360  -24.7339 H   0  0  0  0  0  0  0  0  0  0  0  0
   19.7513   14.9742  -24.7339 H   0  0  0  0  0  0  0  0  0  0  0  0
   21.5625   11.3812  -24.9503 H   0  0  0  0  0  0  0  0  0  0  0  0
   20.3380   11.7767  -24.0757 H   0  0  0  0  0  0  0  0  0  0  0  0
   27.0787   12.9606  -27.0285 H   0  0  0  0  0  0  0  0  0  0  0  0
   31.5287   11.5585  -26.5379 H   0  0  0  0  0  0  0  0  0  0  0  0
   27.3407   15.7227  -28.1676 H   0  0  0  0  0  0  0  0  0  0  0  0
   27.3403   14.3789  -26.9941 H   0  0  0  0  0  0  0  0  0  0  0  0
   20.8279   12.5440  -27.1881 H   0  0  0  0  0  0  0  0  0  0  0  0
   19.4764   13.1410  -26.7018 H   0  0  0  0  0  0  0  0  0  0  0  0
  1 12  2  0
  1 13  1  0
  1 16  1  0
  2  3  1  0
  2 13  1  0
  2 15  2  0
  3  4  2  0
  4  5  1  0
  4 14  1  0
  6 16  2  0
  6 17  1  0
  7 19  2  0
  7 20  1  0
  8  9  1  0
  8 20  2  0
  8 21  1  0
  9 16  1  0
  9 18  2  0
 22 10  1  1
 11 22  1  0
 11 23  1  0
 14 15  1  0
 17 18  1  0
 17 22  1  0
 18 19  1  0
 22 23  1  0
  3 24  1  0
  5 25  1  0
  5 26  1  0
  5 27  1  0
  6 28  1  0
  7 29  1  0
 10 30  1  0
 10 31  1  0
 10 32  1  0
 11 33  1  0
 11 34  1  0
 13 35  1  0
 14 36  1  0
 21 37  1  0
 21 38  1  0
 23 39  1  0
 23 40  1  0
M  END
>  <filename_input>  (25) 
7DUA_HJ0_docked.sdf

>  <pdb_id>  (25) 
7DUA_HJ0

>  <pose_rank>  (25) 
24

>  <num_atoms_heavy>  (25) 
23

>  <num_torsions>  (25) 
2

>  <pose>  (25) 
[23.756838021747434, 12.977173568662172, -25.008420629511072, 5.082964947602284, 2.2562674402730662, 2.606069609663867, 2.2624614523188913, 3.732714588837475]

>  <energy>  (25) 
-1489.5367162785628

>  <inter_energy>  (25) 
-1495.9022814700986

>  <intra_energy>  (25) 
18.876467728289228

>  <rmsd>  (25) 
1.60505

>  <sdf_rank>  (25) 
0

$$$$

     RDKit          3D

 40 43  0  0  0  0  0  0  0  0999 V2000
   26.3060   12.7630  -25.4880 C   0  0  0  0  0  0  0  0  0  0  0  0
   27.7230   11.0640  -24.5200 C   0  0  0  0  0  0  0  0  0  0  0  0
   28.8500   11.6960  -24.0610 C   0  0  0  0  0  0  0  0  0  0  0  0
   29.7580   10.7000  -23.7260 C   0  0  0  0  0  0  0  0  0  0  0  0
   31.1530   10.8970  -23.1990 C   0  0  0  0  0  0  0  0  0  0  0  0
   23.7920   12.7810  -25.1910 C   0  0  0  0  0  0  0  0  0  0  0  0
   23.1800   16.4310  -27.7390 C   0  0  0  0  0  0  0  0  0  0  0  0
   25.2370   15.4040  -27.3420 C   0  0  0  0  0  0  0  0  0  0  0  0
   24.5760   14.4420  -26.5380 C   0  0  0  0  0  0  0  0  0  0  0  0
   20.5240   12.6890  -26.3610 C   0  0  0  0  0  0  0  0  0  0  0  0
   20.7380   14.3940  -24.3620 C   0  0  0  0  0  0  0  0  0  0  0  0
   27.2330   13.5230  -25.7340 O   0  0  0  0  0  0  0  0  0  0  0  0
   26.4990   11.5620  -24.9090 N   0  0  0  0  0  0  0  0  0  0  0  0
   29.1830    9.5480  -23.9380 N   0  0  0  0  0  0  0  0  0  0  0  0
   27.8940    9.7590  -24.4040 N   0  0  0  0  0  0  0  0  0  0  0  0
   24.9510   13.2540  -25.7540 C   0  0  0  0  0  0  0  0  0  0  0  0
   22.7580   13.5300  -25.5910 N   0  0  0  0  0  0  0  0  0  0  0  0
   23.1720   14.5470  -26.3940 C   0  0  0  0  0  0  0  0  0  0  0  0
   22.5200   15.5420  -27.0130 N   0  0  0  0  0  0  0  0  0  0  0  0
   24.4980   16.3710  -27.9210 N   0  0  0  0  0  0  0  0  0  0  0  0
   26.5970   15.3710  -27.5810 N   0  0  0  0  0  0  0  0  0  0  0  0
   21.3610   13.3130  -25.2410 C   0  0  2  0  0  0  0  0  0  0  0  0
   20.9820   12.9980  -23.7940 C   0  0  0  0  0  0  0  0  0  0  0  0
   29.0049   12.7816  -23.9748 H   0  0  0  0  0  0  0  0  0  0  0  0
   31.1333   10.8942  -22.0992 H   0  0  0  0  0  0  0  0  0  0  0  0
   31.7985   10.0811  -23.5562 H   0  0  0  0  0  0  0  0  0  0  0  0
   31.5474   11.8598  -23.5562 H   0  0  0  0  0  0  0  0  0  0  0  0
   23.7236   11.9170  -24.5136 H   0  0  0  0  0  0  0  0  0  0  0  0
   22.6180   17.2509  -28.2101 H   0  0  0  0  0  0  0  0  0  0  0  0
   19.7154   12.0861  -25.9221 H   0  0  0  0  0  0  0  0  0  0  0  0
   20.0908   13.4863  -26.9828 H   0  0  0  0  0  0  0  0  0  0  0  0
   21.1645   12.0462  -26.9828 H   0  0  0  0  0  0  0  0  0  0  0  0
   21.3483   15.2420  -24.0178 H   0  0  0  0  0  0  0  0  0  0  0  0
   19.8642   15.0568  -24.4468 H   0  0  0  0  0  0  0  0  0  0  0  0
   25.6703   10.9727  -24.7451 H   0  0  0  0  0  0  0  0  0  0  0  0
   29.6179    8.6272  -23.7836 H   0  0  0  0  0  0  0  0  0  0  0  0
   27.0336   16.0924  -28.1725 H   0  0  0  0  0  0  0  0  0  0  0  0
   27.1746   14.6250  -27.1677 H   0  0  0  0  0  0  0  0  0  0  0  0
   21.7684   12.8400  -23.0412 H   0  0  0  0  0  0  0  0  0  0  0  0
   20.3576   12.2385  -23.3008 H   0  0  0  0  0  0  0  0  0  0  0  0
  1 12  2  0
  1 13  1  0
  1 16  1  0
  2  3  1  0
  2 13  1  0
  2 15  2  0
  3  4  2  0
  4  5  1  0
  4 14  1  0
  6 16  2  0
  6 17  1  0
  7 19  2  0
  7 20  1  0
  8  9  1  0
  8 20  2  0
  8 21  1  0
  9 16  1  0
  9 18  2  0
 22 10  1  6
 11 22  1  0
 11 23  1  0
 14 15  1  0
 17 18  1  0
 17 22  1  0
 18 19  1  0
 22 23  1  0
  3 24  1  0
  5 25  1  0
  5 26  1  0
  5 27  1  0
  6 28  1  0
  7 29  1  0
 10 30  1  0
 10 31  1  0
 10 32  1  0
 11 33  1  0
 11 34  1  0
 13 35  1  0
 14 36  1  0
 21 37  1  0
 21 38  1  0
 23 39  1  0
 23 40  1  0
M  END
>  <filename_input>  (26) 
7DUA_HJ0_docked.sdf

>  <pdb_id>  (26) 
7DUA_HJ0

>  <pose_rank>  (26) 
25

>  <num_atoms_heavy>  (26) 
23

>  <num_torsions>  (26) 
2

>  <pose>  (26) 
[23.792, 12.781, -25.191, 1e-06, 1e-06, 1e-06, 0.0, 0.0]

>  <energy>  (26) 
-1619.8516849619448

>  <inter_energy>  (26) 
-1646.5771881605874

>  <intra_energy>  (26) 
28.587756264913523

>  <rmsd>  (26) 
0.0

>  <sdf_rank>  (26) 
0

$$$$
