
     RDKit          3D

 11 10  0  0  0  0  0  0  0  0999 V2000
   -2.8766    3.2571   -5.0651 O   0  0  0  0  0  0  0  0  0  0  0  0
   -4.1512    4.0582   -5.2012 P   0  0  1  0  0  0  0  0  0  0  0  0
   -5.2579    3.2650   -5.9092 O   0  0  0  0  0  0  0  0  0  0  0  0
   -4.6289    4.6149   -3.8813 O   0  0  0  0  0  0  0  0  0  0  0  0
   -3.8511    5.4278   -6.3506 C   0  0  0  0  0  0  0  0  0  0  0  0
   -2.4236    6.5274   -6.0838 P   0  0  1  0  0  0  0  0  0  0  0  0
   -1.3714    6.1573   -7.0744 O   0  0  0  0  0  0  0  0  0  0  0  0
   -2.9863    7.8944   -6.3585 O   0  0  0  0  0  0  0  0  0  0  0  0
   -1.9437    6.4065   -4.6793 O   0  0  0  0  0  0  0  0  0  0  0  0
   -3.7316    4.9857   -7.3508 H   0  0  0  0  0  0  0  0  0  0  0  0
   -4.7175    6.0880   -6.1972 H   0  0  0  0  0  0  0  0  0  0  0  0
  2  1  1  1
  2  3  2  0
  2  4  1  0
  2  5  1  0
  5  6  1  0
  6  7  2  0
  6  8  1  6
  6  9  1  0
  5 10  1  0
  5 11  1  0
M  CHG  4   1  -1   4  -1   8  -1   9  -1
M  END
>  <filename_input>  (1) 
7E4L_MDN_docked.sdf

>  <pdb_id>  (1) 
7E4L_MDN

>  <pose_rank>  (1) 
0

>  <num_atoms_heavy>  (1) 
9

>  <num_torsions>  (1) 
2

>  <pose>  (1) 
[-3.85110501107572, 5.427842675052716, -6.35064303932152, 5.778454932214349, 0.6466520634626234, 1.7205456885741803, 6.626275475976989, -6.34732476293997]

>  <energy>  (1) 
-322.2215734551669

>  <inter_energy>  (1) 
-303.98913103600995

>  <intra_energy>  (1) 
0.426403085784826

>  <rmsd>  (1) 
0.711196

>  <sdf_rank>  (1) 
0

$$$$

     RDKit          3D

 11 10  0  0  0  0  0  0  0  0999 V2000
   -3.1305    7.5759   -5.0635 O   0  0  0  0  0  0  0  0  0  0  0  0
   -2.8020    6.1830   -5.5501 P   0  0  1  0  0  0  0  0  0  0  0  0
   -2.2532    6.1875   -6.9833 O   0  0  0  0  0  0  0  0  0  0  0  0
   -1.8820    5.4428   -4.6089 O   0  0  0  0  0  0  0  0  0  0  0  0
   -4.3488    5.2533   -5.7235 C   0  0  0  0  0  0  0  0  0  0  0  0
   -4.4605    3.5635   -5.0528 P   0  0  1  0  0  0  0  0  0  0  0  0
   -4.5425    3.6670   -3.5668 O   0  0  0  0  0  0  0  0  0  0  0  0
   -5.7417    3.0431   -5.6429 O   0  0  0  0  0  0  0  0  0  0  0  0
   -3.2882    2.7606   -5.4984 O   0  0  0  0  0  0  0  0  0  0  0  0
   -5.1346    5.8453   -5.2314 H   0  0  0  0  0  0  0  0  0  0  0  0
   -4.4413    5.1064   -6.8097 H   0  0  0  0  0  0  0  0  0  0  0  0
  2  1  1  1
  2  3  2  0
  2  4  1  0
  2  5  1  0
  5  6  1  0
  6  7  2  0
  6  8  1  6
  6  9  1  0
  5 10  1  0
  5 11  1  0
M  CHG  4   1  -1   4  -1   8  -1   9  -1
M  END
>  <filename_input>  (2) 
7E4L_MDN_docked.sdf

>  <pdb_id>  (2) 
7E4L_MDN

>  <pose_rank>  (2) 
1

>  <num_atoms_heavy>  (2) 
9

>  <num_torsions>  (2) 
2

>  <pose>  (2) 
[-4.3488422816503345, 5.253321490794214, -5.723450834594949, -2.3267474758600493, 1.0895497874585667, -1.9047169787620015, -7.364295985475993, -0.5945982981228083]

>  <energy>  (2) 
-314.03553241270356

>  <inter_energy>  (2) 
-295.5787076353076

>  <intra_energy>  (2) 
1.8196787380030766

>  <rmsd>  (2) 
0.496519

>  <sdf_rank>  (2) 
0

$$$$

     RDKit          3D

 11 10  0  0  0  0  0  0  0  0999 V2000
   -4.0212    2.8075   -5.6725 O   0  0  0  0  0  0  0  0  0  0  0  0
   -3.7579    4.0486   -4.8509 P   0  0  1  0  0  0  0  0  0  0  0  0
   -4.8449    4.2808   -3.7927 O   0  0  0  0  0  0  0  0  0  0  0  0
   -2.3787    4.0542   -4.2361 O   0  0  0  0  0  0  0  0  0  0  0  0
   -3.9364    5.4989   -5.9241 C   0  0  0  0  0  0  0  0  0  0  0  0
   -2.7693    6.8876   -5.7582 P   0  0  1  0  0  0  0  0  0  0  0  0
   -2.1066    6.7698   -4.4268 O   0  0  0  0  0  0  0  0  0  0  0  0
   -1.7979    6.6567   -6.8824 O   0  0  0  0  0  0  0  0  0  0  0  0
   -3.4909    8.1805   -5.9167 O   0  0  0  0  0  0  0  0  0  0  0  0
   -3.8616    5.1404   -6.9613 H   0  0  0  0  0  0  0  0  0  0  0  0
   -4.8988    5.9323   -5.6142 H   0  0  0  0  0  0  0  0  0  0  0  0
  2  1  1  6
  2  3  2  0
  2  4  1  0
  2  5  1  0
  5  6  1  0
  6  7  2  0
  6  8  1  6
  6  9  1  0
  5 10  1  0
  5 11  1  0
M  CHG  4   1  -1   4  -1   8  -1   9  -1
M  END
>  <filename_input>  (3) 
7E4L_MDN_docked.sdf

>  <pdb_id>  (3) 
7E4L_MDN

>  <pose_rank>  (3) 
2

>  <num_atoms_heavy>  (3) 
9

>  <num_torsions>  (3) 
2

>  <pose>  (3) 
[-3.9364166873026067, 5.4989369846879415, -5.924083011031892, 3.5937448193340624, -2.1160730843262123, -4.358073339123871, -13.760489011047865, -27.333306320335428]

>  <energy>  (3) 
-273.00450840583744

>  <inter_energy>  (3) 
-275.5142805553086

>  <intra_energy>  (3) 
13.231020572268138

>  <rmsd>  (3) 
1.03318

>  <sdf_rank>  (3) 
0

$$$$

     RDKit          3D

 11 10  0  0  0  0  0  0  0  0999 V2000
   -4.7988    4.1666   -3.2457 O   0  0  0  0  0  0  0  0  0  0  0  0
   -4.4712    3.4798   -4.5518 P   0  0  1  0  0  0  0  0  0  0  0  0
   -3.1338    2.7296   -4.4891 O   0  0  0  0  0  0  0  0  0  0  0  0
   -5.5867    2.5809   -5.0290 O   0  0  0  0  0  0  0  0  0  0  0  0
   -4.1525    4.7492   -5.8064 C   0  0  0  0  0  0  0  0  0  0  0  0
   -3.0269    6.1288   -5.4219 P   0  0  1  0  0  0  0  0  0  0  0  0
   -3.7614    7.0856   -4.5440 O   0  0  0  0  0  0  0  0  0  0  0  0
   -1.8990    5.4582   -4.6879 O   0  0  0  0  0  0  0  0  0  0  0  0
   -2.5555    6.7673   -6.6819 O   0  0  0  0  0  0  0  0  0  0  0  0
   -3.7377    4.2335   -6.6850 H   0  0  0  0  0  0  0  0  0  0  0  0
   -5.1290    5.2400   -5.9308 H   0  0  0  0  0  0  0  0  0  0  0  0
  2  1  1  1
  2  3  2  0
  2  4  1  0
  2  5  1  0
  5  6  1  0
  6  7  2  0
  6  8  1  1
  6  9  1  0
  5 10  1  0
  5 11  1  0
M  CHG  4   1  -1   4  -1   8  -1   9  -1
M  END
>  <filename_input>  (4) 
7E4L_MDN_docked.sdf

>  <pdb_id>  (4) 
7E4L_MDN

>  <pose_rank>  (4) 
3

>  <num_atoms_heavy>  (4) 
9

>  <num_torsions>  (4) 
2

>  <pose>  (4) 
[-4.15247092537606, 4.749240198409727, -5.806416372581015, -0.3286310332127608, -0.2638779816516841, 0.10076342770859804, 2.088594875506597, -9.494196218188975]

>  <energy>  (4) 
-304.9677389949656

>  <inter_energy>  (4) 
-288.05111318979743

>  <intra_energy>  (4) 
4.812218540490364

>  <rmsd>  (4) 
0.858469

>  <sdf_rank>  (4) 
0

$$$$

     RDKit          3D

 11 10  0  0  0  0  0  0  0  0999 V2000
   -2.3379    5.8604   -4.7653 O   0  0  0  0  0  0  0  0  0  0  0  0
   -3.4687    6.2952   -5.6693 P   0  0  1  0  0  0  0  0  0  0  0  0
   -3.6564    7.8184   -5.6658 O   0  0  0  0  0  0  0  0  0  0  0  0
   -3.3256    5.7597   -7.0739 O   0  0  0  0  0  0  0  0  0  0  0  0
   -5.0306    5.7041   -4.9637 C   0  0  0  0  0  0  0  0  0  0  0  0
   -5.1372    4.0046   -4.3167 P   0  0  1  0  0  0  0  0  0  0  0  0
   -6.4698    3.4538   -4.6991 O   0  0  0  0  0  0  0  0  0  0  0  0
   -4.0196    3.2946   -5.0291 O   0  0  0  0  0  0  0  0  0  0  0  0
   -4.9302    4.0077   -2.8421 O   0  0  0  0  0  0  0  0  0  0  0  0
   -5.2818    6.3791   -4.1323 H   0  0  0  0  0  0  0  0  0  0  0  0
   -5.7158    5.6960   -5.8242 H   0  0  0  0  0  0  0  0  0  0  0  0
  2  1  1  1
  2  3  2  0
  2  4  1  0
  2  5  1  0
  5  6  1  0
  6  7  2  0
  6  8  1  6
  6  9  1  0
  5 10  1  0
  5 11  1  0
M  CHG  4   1  -1   4  -1   8  -1   9  -1
M  END
>  <filename_input>  (5) 
7E4L_MDN_docked.sdf

>  <pdb_id>  (5) 
7E4L_MDN

>  <pose_rank>  (5) 
4

>  <num_atoms_heavy>  (5) 
9

>  <num_torsions>  (5) 
2

>  <pose>  (5) 
[-5.0306478885865875, 5.704060263319266, -4.963681165755239, 2.3441643802308962, -1.1652444116616223, 0.9980496508141881, -5.804330749454973, 1.9521605309452301]

>  <energy>  (5) 
-261.42808374961305

>  <inter_energy>  (5) 
-260.6254016673117

>  <intra_energy>  (5) 
3.541338772144082

>  <rmsd>  (5) 
1.04655

>  <sdf_rank>  (5) 
0

$$$$

     RDKit          3D

 11 10  0  0  0  0  0  0  0  0999 V2000
   -5.6987    3.8576   -6.0688 O   0  0  0  0  0  0  0  0  0  0  0  0
   -4.2583    4.2459   -5.8255 P   0  0  1  0  0  0  0  0  0  0  0  0
   -3.4219    3.0659   -5.3126 O   0  0  0  0  0  0  0  0  0  0  0  0
   -3.6208    4.8911   -7.0328 O   0  0  0  0  0  0  0  0  0  0  0  0
   -4.2010    5.4046   -4.4323 C   0  0  0  0  0  0  0  0  0  0  0  0
   -2.9072    6.6859   -4.3828 P   0  0  1  0  0  0  0  0  0  0  0  0
   -2.7231    7.0934   -2.9595 O   0  0  0  0  0  0  0  0  0  0  0  0
   -1.6958    5.9722   -4.9154 O   0  0  0  0  0  0  0  0  0  0  0  0
   -3.2924    7.8318   -5.2523 O   0  0  0  0  0  0  0  0  0  0  0  0
   -5.1691    5.9266   -4.4104 H   0  0  0  0  0  0  0  0  0  0  0  0
   -3.9610    4.7623   -3.5722 H   0  0  0  0  0  0  0  0  0  0  0  0
  2  1  1  6
  2  3  2  0
  2  4  1  0
  2  5  1  0
  5  6  1  0
  6  7  2  0
  6  8  1  6
  6  9  1  0
  5 10  1  0
  5 11  1  0
M  CHG  4   1  -1   4  -1   8  -1   9  -1
M  END
>  <filename_input>  (6) 
7E4L_MDN_docked.sdf

>  <pdb_id>  (6) 
7E4L_MDN

>  <pose_rank>  (6) 
5

>  <num_atoms_heavy>  (6) 
9

>  <num_torsions>  (6) 
2

>  <pose>  (6) 
[-4.201035360169169, 5.404620711437242, -4.432264851705403, 1.2460516367705405, 1.3372564984993212, 0.3307871141566001, 4.933469212158212, -4.613375951775964]

>  <energy>  (6) 
-294.41138108330676

>  <inter_energy>  (6) 
-278.81731984731135

>  <intra_energy>  (6) 
3.4876857580900285

>  <rmsd>  (6) 
1.55445

>  <sdf_rank>  (6) 
0

$$$$

     RDKit          3D

 11 10  0  0  0  0  0  0  0  0999 V2000
   -3.8200    5.9060   -6.8468 O   0  0  0  0  0  0  0  0  0  0  0  0
   -3.4130    6.4876   -5.5123 P   0  0  1  0  0  0  0  0  0  0  0  0
   -1.9712    6.1181   -5.1380 O   0  0  0  0  0  0  0  0  0  0  0  0
   -3.6377    7.9790   -5.4379 O   0  0  0  0  0  0  0  0  0  0  0  0
   -4.3786    5.6750   -4.2107 C   0  0  0  0  0  0  0  0  0  0  0  0
   -4.6697    3.8790   -4.2974 P   0  0  1  0  0  0  0  0  0  0  0  0
   -3.3404    3.2023   -4.3239 O   0  0  0  0  0  0  0  0  0  0  0  0
   -5.4131    3.5890   -3.0232 O   0  0  0  0  0  0  0  0  0  0  0  0
   -5.4919    3.5541   -5.4957 O   0  0  0  0  0  0  0  0  0  0  0  0
   -3.8610    5.8696   -3.2597 H   0  0  0  0  0  0  0  0  0  0  0  0
   -5.3841    6.1053   -4.3286 H   0  0  0  0  0  0  0  0  0  0  0  0
  2  1  1  6
  2  3  2  0
  2  4  1  0
  2  5  1  0
  5  6  1  0
  6  7  2  0
  6  8  1  1
  6  9  1  0
  5 10  1  0
  5 11  1  0
M  CHG  4   1  -1   4  -1   8  -1   9  -1
M  END
>  <filename_input>  (7) 
7E4L_MDN_docked.sdf

>  <pdb_id>  (7) 
7E4L_MDN

>  <pose_rank>  (7) 
6

>  <num_atoms_heavy>  (7) 
9

>  <num_torsions>  (7) 
2

>  <pose>  (7) 
[-4.378616544210725, 5.675038048412028, -4.210669516233823, 2.494827929085122, -1.3826983653460192, -0.21411117675976066, 1.9646116451964268, -7.143047827568651]

>  <energy>  (7) 
-251.73326341356952

>  <inter_energy>  (7) 
-253.0256375673505

>  <intra_energy>  (7) 
1.5501762080353383

>  <rmsd>  (7) 
1.19818

>  <sdf_rank>  (7) 
0

$$$$

     RDKit          3D

 11 10  0  0  0  0  0  0  0  0999 V2000
   -7.3741    3.7875   -4.6774 O   0  0  0  0  0  0  0  0  0  0  0  0
   -6.1526    3.5142   -3.8300 P   0  0  1  0  0  0  0  0  0  0  0  0
   -5.9996    4.5339   -2.6933 O   0  0  0  0  0  0  0  0  0  0  0  0
   -6.1143    2.0972   -3.3095 O   0  0  0  0  0  0  0  0  0  0  0  0
   -4.6743    3.8189   -4.8343 C   0  0  0  0  0  0  0  0  0  0  0  0
   -4.4122    5.4647   -5.5697 P   0  0  1  0  0  0  0  0  0  0  0  0
   -3.0475    5.9257   -5.1814 O   0  0  0  0  0  0  0  0  0  0  0  0
   -4.5079    5.2007   -7.0468 O   0  0  0  0  0  0  0  0  0  0  0  0
   -5.4754    6.4016   -5.1123 O   0  0  0  0  0  0  0  0  0  0  0  0
   -3.8042    3.6127   -4.1936 H   0  0  0  0  0  0  0  0  0  0  0  0
   -4.8166    3.1657   -5.7078 H   0  0  0  0  0  0  0  0  0  0  0  0
  2  1  1  6
  2  3  2  0
  2  4  1  0
  2  5  1  0
  5  6  1  0
  6  7  2  0
  6  8  1  6
  6  9  1  0
  5 10  1  0
  5 11  1  0
M  CHG  4   1  -1   4  -1   8  -1   9  -1
M  END
>  <filename_input>  (8) 
7E4L_MDN_docked.sdf

>  <pdb_id>  (8) 
7E4L_MDN

>  <pose_rank>  (8) 
7

>  <num_atoms_heavy>  (8) 
9

>  <num_torsions>  (8) 
2

>  <pose>  (8) 
[-4.6742642230353475, 3.818931687114689, -4.83430438603724, -1.3890995561908273, -1.4718542493718414, 0.6212159720269234, 8.551828907916759, 6.6281285458657635]

>  <energy>  (8) 
-215.70462364595542

>  <inter_energy>  (8) 
-219.60679096593012

>  <intra_energy>  (8) 
3.2746868671441014

>  <rmsd>  (8) 
2.34873

>  <sdf_rank>  (8) 
0

$$$$

     RDKit          3D

 11 10  0  0  0  0  0  0  0  0999 V2000
   -6.2357    4.3576   -5.8477 O   0  0  0  0  0  0  0  0  0  0  0  0
   -5.2512    3.8943   -4.7984 P   0  0  1  0  0  0  0  0  0  0  0  0
   -5.3046    4.7629   -3.5343 O   0  0  0  0  0  0  0  0  0  0  0  0
   -5.4038    2.4287   -4.4682 O   0  0  0  0  0  0  0  0  0  0  0  0
   -3.5716    4.1939   -5.4117 C   0  0  0  0  0  0  0  0  0  0  0  0
   -3.0162    5.9029   -5.7097 P   0  0  1  0  0  0  0  0  0  0  0  0
   -2.3948    5.9508   -7.0652 O   0  0  0  0  0  0  0  0  0  0  0  0
   -4.2940    6.6937   -5.6584 O   0  0  0  0  0  0  0  0  0  0  0  0
   -2.0698    6.3242   -4.6401 O   0  0  0  0  0  0  0  0  0  0  0  0
   -2.8799    3.7565   -4.6767 H   0  0  0  0  0  0  0  0  0  0  0  0
   -3.5802    3.7465   -6.4166 H   0  0  0  0  0  0  0  0  0  0  0  0
  2  1  1  6
  2  3  2  0
  2  4  1  0
  2  5  1  0
  5  6  1  0
  6  7  2  0
  6  8  1  6
  6  9  1  0
  5 10  1  0
  5 11  1  0
M  CHG  4   1  -1   4  -1   8  -1   9  -1
M  END
>  <filename_input>  (9) 
7E4L_MDN_docked.sdf

>  <pdb_id>  (9) 
7E4L_MDN

>  <pose_rank>  (9) 
8

>  <num_atoms_heavy>  (9) 
9

>  <num_torsions>  (9) 
2

>  <pose>  (9) 
[-3.571569537283598, 4.193906059825623, -5.4117456849864665, 2.7585607059786166, 3.098018619222518, -0.5016645162179342, 8.649789461540077, 8.39466432515004]

>  <energy>  (9) 
-275.7210179458297

>  <inter_energy>  (9) 
-272.92987115783137

>  <intra_energy>  (9) 
7.6269390150414385

>  <rmsd>  (9) 
1.29222

>  <sdf_rank>  (9) 
0

$$$$

     RDKit          3D

 11 10  0  0  0  0  0  0  0  0999 V2000
   -5.0389    4.3468   -6.4327 O   0  0  0  0  0  0  0  0  0  0  0  0
   -4.0258    4.1168   -5.3347 P   0  0  1  0  0  0  0  0  0  0  0  0
   -3.2559    2.8031   -5.5266 O   0  0  0  0  0  0  0  0  0  0  0  0
   -3.0869    5.2864   -5.1590 O   0  0  0  0  0  0  0  0  0  0  0  0
   -4.9148    3.8292   -3.7810 C   0  0  0  0  0  0  0  0  0  0  0  0
   -6.5171    2.9633   -3.8106 P   0  0  1  0  0  0  0  0  0  0  0  0
   -6.7874    2.4570   -2.4336 O   0  0  0  0  0  0  0  0  0  0  0  0
   -7.4854    4.0447   -4.2027 O   0  0  0  0  0  0  0  0  0  0  0  0
   -6.4847    1.8674   -4.8183 O   0  0  0  0  0  0  0  0  0  0  0  0
   -4.2462    3.2426   -3.1338 H   0  0  0  0  0  0  0  0  0  0  0  0
   -5.1754    4.8425   -3.4415 H   0  0  0  0  0  0  0  0  0  0  0  0
  2  1  1  6
  2  3  2  0
  2  4  1  0
  2  5  1  0
  5  6  1  0
  6  7  2  0
  6  8  1  6
  6  9  1  0
  5 10  1  0
  5 11  1  0
M  CHG  4   1  -1   4  -1   8  -1   9  -1
M  END
>  <filename_input>  (10) 
7E4L_MDN_docked.sdf

>  <pdb_id>  (10) 
7E4L_MDN

>  <pose_rank>  (10) 
9

>  <num_atoms_heavy>  (10) 
9

>  <num_torsions>  (10) 
2

>  <pose>  (10) 
[-4.914822778293608, 3.8292188196103893, -3.781027894356346, 1.6651613077190288, -2.2469800801671385, -1.0181385310394688, 1.8358281709672486, 13.496908236810862]

>  <energy>  (10) 
-268.2081249833375

>  <inter_energy>  (10) 
-257.04648823290484

>  <intra_energy>  (10) 
0.516846567239405

>  <rmsd>  (10) 
3.04221

>  <sdf_rank>  (10) 
0

$$$$

     RDKit          3D

 11 10  0  0  0  0  0  0  0  0999 V2000
  -11.0267    5.4854   -5.8054 O   0  0  0  0  0  0  0  0  0  0  0  0
  -11.6644    4.2264   -5.2640 P   0  0  1  0  0  0  0  0  0  0  0  0
  -12.4236    4.4819   -3.9549 O   0  0  0  0  0  0  0  0  0  0  0  0
  -12.5385    3.5356   -6.2833 O   0  0  0  0  0  0  0  0  0  0  0  0
  -10.3495    3.0926   -4.7421 C   0  0  0  0  0  0  0  0  0  0  0  0
   -9.4095    3.4467   -3.2226 P   0  0  1  0  0  0  0  0  0  0  0  0
   -8.6559    4.7161   -3.4378 O   0  0  0  0  0  0  0  0  0  0  0  0
  -10.4840    3.6102   -2.1836 O   0  0  0  0  0  0  0  0  0  0  0  0
   -8.5099    2.3039   -2.9028 O   0  0  0  0  0  0  0  0  0  0  0  0
  -10.8137    2.1045   -4.6081 H   0  0  0  0  0  0  0  0  0  0  0  0
   -9.5968    3.1863   -5.5388 H   0  0  0  0  0  0  0  0  0  0  0  0
  2  1  1  6
  2  3  2  0
  2  4  1  0
  2  5  1  0
  5  6  1  0
  6  7  2  0
  6  8  1  1
  6  9  1  0
  5 10  1  0
  5 11  1  0
M  CHG  4   1  -1   4  -1   8  -1   9  -1
M  END
>  <filename_input>  (11) 
7E4L_MDN_docked.sdf

>  <pdb_id>  (11) 
7E4L_MDN

>  <pose_rank>  (11) 
10

>  <num_atoms_heavy>  (11) 
9

>  <num_torsions>  (11) 
2

>  <pose>  (11) 
[-10.349450413613845, 3.092619151717518, -4.74214744104197, -1.3379966780359966, -1.289629034968699, -1.467659340262612, -3.758025158602774, 3.2808074534950333]

>  <energy>  (11) 
-72.9754856201495

>  <inter_energy>  (11) 
-76.65203464573561

>  <intra_energy>  (11) 
12.000922891697563

>  <rmsd>  (11) 
7.608

>  <sdf_rank>  (11) 
0

$$$$

     RDKit          3D

 11 10  0  0  0  0  0  0  0  0999 V2000
   -5.1964    4.3641   -3.2477 O   0  0  0  0  0  0  0  0  0  0  0  0
   -4.8818    3.9084   -4.6542 P   0  0  1  0  0  0  0  0  0  0  0  0
   -3.5315    3.1839   -4.7370 O   0  0  0  0  0  0  0  0  0  0  0  0
   -5.9911    3.0792   -5.2559 O   0  0  0  0  0  0  0  0  0  0  0  0
   -4.6071    5.3731   -5.6867 C   0  0  0  0  0  0  0  0  0  0  0  0
   -3.4978    6.6920   -5.0969 P   0  0  1  0  0  0  0  0  0  0  0  0
   -2.1467    6.4462   -5.6798 O   0  0  0  0  0  0  0  0  0  0  0  0
   -4.1221    7.9413   -5.6540 O   0  0  0  0  0  0  0  0  0  0  0  0
   -3.4751    6.7099   -3.6081 O   0  0  0  0  0  0  0  0  0  0  0  0
   -4.1999    5.0173   -6.6446 H   0  0  0  0  0  0  0  0  0  0  0  0
   -5.5938    5.8586   -5.7136 H   0  0  0  0  0  0  0  0  0  0  0  0
  2  1  1  1
  2  3  2  0
  2  4  1  0
  2  5  1  0
  5  6  1  0
  6  7  2  0
  6  8  1  6
  6  9  1  0
  5 10  1  0
  5 11  1  0
M  CHG  4   1  -1   4  -1   8  -1   9  -1
M  END
>  <filename_input>  (12) 
7E4L_MDN_docked.sdf

>  <pdb_id>  (12) 
7E4L_MDN

>  <pose_rank>  (12) 
11

>  <num_atoms_heavy>  (12) 
9

>  <num_torsions>  (12) 
2

>  <pose>  (12) 
[-4.607129389776045, 5.373108830720907, -5.686730817497031, 3.008860438196318, 4.806799598177804, -1.848405374685576, 14.654543441316797, 6.0675099123084815]

>  <energy>  (12) 
-257.5966547144909

>  <inter_energy>  (12) 
-259.42379956273743

>  <intra_energy>  (12) 
6.575489242885807

>  <rmsd>  (12) 
0.863372

>  <sdf_rank>  (12) 
0

$$$$

     RDKit          3D

 11 10  0  0  0  0  0  0  0  0999 V2000
   -5.4596    1.1106   -2.1604 O   0  0  0  0  0  0  0  0  0  0  0  0
   -6.4916    1.6855   -3.1034 P   0  0  1  0  0  0  0  0  0  0  0  0
   -7.5855    0.6669   -3.4514 O   0  0  0  0  0  0  0  0  0  0  0  0
   -7.0829    2.9790   -2.5958 O   0  0  0  0  0  0  0  0  0  0  0  0
   -5.7037    1.9816   -4.7092 C   0  0  0  0  0  0  0  0  0  0  0  0
   -4.5764    3.3985   -4.9084 P   0  0  1  0  0  0  0  0  0  0  0  0
   -4.2965    3.9528   -3.5519 O   0  0  0  0  0  0  0  0  0  0  0  0
   -3.3492    2.7788   -5.5171 O   0  0  0  0  0  0  0  0  0  0  0  0
   -5.1855    4.4095   -5.8162 O   0  0  0  0  0  0  0  0  0  0  0  0
   -5.1271    1.0774   -4.9541 H   0  0  0  0  0  0  0  0  0  0  0  0
   -6.5481    2.2289   -5.3693 H   0  0  0  0  0  0  0  0  0  0  0  0
  2  1  1  1
  2  3  2  0
  2  4  1  0
  2  5  1  0
  5  6  1  0
  6  7  2  0
  6  8  1  6
  6  9  1  0
  5 10  1  0
  5 11  1  0
M  CHG  4   1  -1   4  -1   8  -1   9  -1
M  END
>  <filename_input>  (13) 
7E4L_MDN_docked.sdf

>  <pdb_id>  (13) 
7E4L_MDN

>  <pose_rank>  (13) 
12

>  <num_atoms_heavy>  (13) 
9

>  <num_torsions>  (13) 
2

>  <pose>  (13) 
[-5.703668533494597, 1.9815936246469743, -4.709166644476167, -0.9900074479796687, -0.5273107844729401, 0.11354310505669299, -12.627040213306124, -1.6896107388368014]

>  <energy>  (13) 
-251.2447860109188

>  <inter_energy>  (13) 
-242.66102147203455

>  <intra_energy>  (13) 
2.677396653056039

>  <rmsd>  (13) 
3.76672

>  <sdf_rank>  (13) 
0

$$$$

     RDKit          3D

 11 10  0  0  0  0  0  0  0  0999 V2000
   -3.8208    5.0520   -4.5591 O   0  0  0  0  0  0  0  0  0  0  0  0
   -5.1950    4.4742   -4.8097 P   0  0  1  0  0  0  0  0  0  0  0  0
   -5.6261    4.6268   -6.2747 O   0  0  0  0  0  0  0  0  0  0  0  0
   -5.3146    3.0424   -4.3452 O   0  0  0  0  0  0  0  0  0  0  0  0
   -6.4153    5.4880   -3.9322 C   0  0  0  0  0  0  0  0  0  0  0  0
   -8.0636    4.7999   -3.5748 P   0  0  1  0  0  0  0  0  0  0  0  0
   -8.8470    4.8097   -4.8443 O   0  0  0  0  0  0  0  0  0  0  0  0
   -7.7606    3.3985   -3.1220 O   0  0  0  0  0  0  0  0  0  0  0  0
   -8.7228    5.5909   -2.4991 O   0  0  0  0  0  0  0  0  0  0  0  0
   -5.9672    5.7631   -2.9660 H   0  0  0  0  0  0  0  0  0  0  0  0
   -6.6247    6.3068   -4.6363 H   0  0  0  0  0  0  0  0  0  0  0  0
  2  1  1  6
  2  3  2  0
  2  4  1  0
  2  5  1  0
  5  6  1  0
  6  7  2  0
  6  8  1  1
  6  9  1  0
  5 10  1  0
  5 11  1  0
M  CHG  4   1  -1   4  -1   8  -1   9  -1
M  END
>  <filename_input>  (14) 
7E4L_MDN_docked.sdf

>  <pdb_id>  (14) 
7E4L_MDN

>  <pose_rank>  (14) 
13

>  <num_atoms_heavy>  (14) 
9

>  <num_torsions>  (14) 
2

>  <pose>  (14) 
[-6.415319783042617, 5.4879852896220065, -3.932226171030339, -1.8342541044711473, 3.1031390330484325, -0.4504396072218901, -1.5552841221214138, 3.084656908833159]

>  <energy>  (14) 
-145.41476060522828

>  <inter_energy>  (14) 
-159.60855209345348

>  <intra_energy>  (14) 
12.368901081907573

>  <rmsd>  (14) 
3.94685

>  <sdf_rank>  (14) 
0

$$$$

     RDKit          3D

 11 10  0  0  0  0  0  0  0  0999 V2000
   -3.5732    7.8455   -5.1781 O   0  0  0  0  0  0  0  0  0  0  0  0
   -3.7313    6.3422   -5.1828 P   0  0  1  0  0  0  0  0  0  0  0  0
   -4.2360    5.8198   -6.5348 O   0  0  0  0  0  0  0  0  0  0  0  0
   -2.4746    5.6264   -4.7486 O   0  0  0  0  0  0  0  0  0  0  0  0
   -5.0849    5.9015   -4.0600 C   0  0  0  0  0  0  0  0  0  0  0  0
   -5.6189    4.1644   -3.9360 P   0  0  1  0  0  0  0  0  0  0  0  0
   -5.7469    3.8289   -2.4880 O   0  0  0  0  0  0  0  0  0  0  0  0
   -6.9557    4.1655   -4.6242 O   0  0  0  0  0  0  0  0  0  0  0  0
   -4.6451    3.2815   -4.6357 O   0  0  0  0  0  0  0  0  0  0  0  0
   -4.7782    6.2146   -3.0511 H   0  0  0  0  0  0  0  0  0  0  0  0
   -5.9577    6.4093   -4.4963 H   0  0  0  0  0  0  0  0  0  0  0  0
  2  1  1  6
  2  3  2  0
  2  4  1  0
  2  5  1  0
  5  6  1  0
  6  7  2  0
  6  8  1  6
  6  9  1  0
  5 10  1  0
  5 11  1  0
M  CHG  4   1  -1   4  -1   8  -1   9  -1
M  END
>  <filename_input>  (15) 
7E4L_MDN_docked.sdf

>  <pdb_id>  (15) 
7E4L_MDN

>  <pose_rank>  (15) 
14

>  <num_atoms_heavy>  (15) 
9

>  <num_torsions>  (15) 
2

>  <pose>  (15) 
[-5.08486998030314, 5.901500712081412, -4.059986826618307, -2.8437448798652025, 1.9264594610342711, -0.23011902036365298, 16.87180119516652, -5.833362114036593]

>  <energy>  (15) 
-238.53484459596663

>  <inter_energy>  (15) 
-244.2640305492227

>  <intra_energy>  (15) 
2.477310438044725

>  <rmsd>  (15) 
1.63591

>  <sdf_rank>  (15) 
0

$$$$

     RDKit          3D

 11 10  0  0  0  0  0  0  0  0999 V2000
   -3.6659    7.9384   -6.6224 O   0  0  0  0  0  0  0  0  0  0  0  0
   -3.0261    6.7375   -5.9642 P   0  0  1  0  0  0  0  0  0  0  0  0
   -2.4246    5.7692   -6.9918 O   0  0  0  0  0  0  0  0  0  0  0  0
   -2.0145    7.1243   -4.9120 O   0  0  0  0  0  0  0  0  0  0  0  0
   -4.3296    5.7379   -5.1969 C   0  0  0  0  0  0  0  0  0  0  0  0
   -4.3782    3.9421   -5.4977 P   0  0  1  0  0  0  0  0  0  0  0  0
   -4.5939    3.7300   -6.9586 O   0  0  0  0  0  0  0  0  0  0  0  0
   -3.0123    3.4841   -5.0675 O   0  0  0  0  0  0  0  0  0  0  0  0
   -5.4488    3.3168   -4.6729 O   0  0  0  0  0  0  0  0  0  0  0  0
   -4.2415    5.8778   -4.1094 H   0  0  0  0  0  0  0  0  0  0  0  0
   -5.2504    6.1045   -5.6741 H   0  0  0  0  0  0  0  0  0  0  0  0
  2  1  1  6
  2  3  2  0
  2  4  1  0
  2  5  1  0
  5  6  1  0
  6  7  2  0
  6  8  1  1
  6  9  1  0
  5 10  1  0
  5 11  1  0
M  CHG  4   1  -1   4  -1   8  -1   9  -1
M  END
>  <filename_input>  (16) 
7E4L_MDN_docked.sdf

>  <pdb_id>  (16) 
7E4L_MDN

>  <pose_rank>  (16) 
15

>  <num_atoms_heavy>  (16) 
9

>  <num_torsions>  (16) 
2

>  <pose>  (16) 
[-4.32962445723364, 5.737937065198252, -5.196904978519869, -2.804596221085958, 1.4385325117595797, -0.2737579905093249, -2.7469512608890074, 3.314435876718065]

>  <energy>  (16) 
-263.10769212276386

>  <inter_energy>  (16) 
-265.59846260647373

>  <intra_energy>  (16) 
9.145868076994038

>  <rmsd>  (16) 
1.14817

>  <sdf_rank>  (16) 
0

$$$$

     RDKit          3D

 11 10  0  0  0  0  0  0  0  0999 V2000
   -5.2758    8.1006   -5.1452 O   0  0  0  0  0  0  0  0  0  0  0  0
   -4.3643    6.8954   -5.1854 P   0  0  1  0  0  0  0  0  0  0  0  0
   -3.5032    6.8659   -6.4554 O   0  0  0  0  0  0  0  0  0  0  0  0
   -3.5180    6.7679   -3.9413 O   0  0  0  0  0  0  0  0  0  0  0  0
   -5.3841    5.4072   -5.3660 C   0  0  0  0  0  0  0  0  0  0  0  0
   -4.5786    3.7879   -5.5821 P   0  0  1  0  0  0  0  0  0  0  0  0
   -3.4732    3.6916   -4.5849 O   0  0  0  0  0  0  0  0  0  0  0  0
   -5.6820    2.8119   -5.2813 O   0  0  0  0  0  0  0  0  0  0  0  0
   -4.0898    3.6454   -6.9815 O   0  0  0  0  0  0  0  0  0  0  0  0
   -6.0085    5.3359   -4.4632 H   0  0  0  0  0  0  0  0  0  0  0  0
   -5.9050    5.5659   -6.3217 H   0  0  0  0  0  0  0  0  0  0  0  0
  2  1  1  1
  2  3  2  0
  2  4  1  0
  2  5  1  0
  5  6  1  0
  6  7  2  0
  6  8  1  1
  6  9  1  0
  5 10  1  0
  5 11  1  0
M  CHG  4   1  -1   4  -1   8  -1   9  -1
M  END
>  <filename_input>  (17) 
7E4L_MDN_docked.sdf

>  <pdb_id>  (17) 
7E4L_MDN

>  <pose_rank>  (17) 
16

>  <num_atoms_heavy>  (17) 
9

>  <num_torsions>  (17) 
2

>  <pose>  (17) 
[-5.384063460405876, 5.407244168249738, -5.365999139491535, -2.454343885173428, 0.7486508444580241, -0.9751917011033195, -1.9810936837211393, 5.19841495962391]

>  <energy>  (17) 
-221.3575680372849

>  <inter_energy>  (17) 
-213.5594892115161

>  <intra_energy>  (17) 
2.1923535198457564

>  <rmsd>  (17) 
1.39503

>  <sdf_rank>  (17) 
0

$$$$

     RDKit          3D

 11 10  0  0  0  0  0  0  0  0999 V2000
   -6.1102    5.0986   -3.9640 O   0  0  0  0  0  0  0  0  0  0  0  0
   -4.9635    5.1351   -4.9482 P   0  0  1  0  0  0  0  0  0  0  0  0
   -3.8483    4.1506   -4.5709 O   0  0  0  0  0  0  0  0  0  0  0  0
   -5.4179    4.9346   -6.3743 O   0  0  0  0  0  0  0  0  0  0  0  0
   -4.1349    6.7416   -4.8085 C   0  0  0  0  0  0  0  0  0  0  0  0
   -3.0740    7.3259   -6.1690 P   0  0  1  0  0  0  0  0  0  0  0  0
   -2.9910    8.8125   -6.0766 O   0  0  0  0  0  0  0  0  0  0  0  0
   -1.7494    6.6782   -5.8749 O   0  0  0  0  0  0  0  0  0  0  0  0
   -3.6258    6.8719   -7.4755 O   0  0  0  0  0  0  0  0  0  0  0  0
   -4.9226    7.4969   -4.6703 H   0  0  0  0  0  0  0  0  0  0  0  0
   -3.4306    6.5971   -3.9759 H   0  0  0  0  0  0  0  0  0  0  0  0
  2  1  1  1
  2  3  2  0
  2  4  1  0
  2  5  1  0
  5  6  1  0
  6  7  2  0
  6  8  1  1
  6  9  1  0
  5 10  1  0
  5 11  1  0
M  CHG  4   1  -1   4  -1   8  -1   9  -1
M  END
>  <filename_input>  (18) 
7E4L_MDN_docked.sdf

>  <pdb_id>  (18) 
7E4L_MDN

>  <pose_rank>  (18) 
17

>  <num_atoms_heavy>  (18) 
9

>  <num_torsions>  (18) 
2

>  <pose>  (18) 
[-4.134883026194051, 6.741633149062318, -4.808494323532662, 0.9167169662089515, 1.6250081138272023, -0.6213733555508941, -1.5606656783296804, 7.144853658440332]

>  <energy>  (18) 
-229.60175203841155

>  <inter_energy>  (18) 
-232.65707319426699

>  <intra_energy>  (18) 
8.758235045699246

>  <rmsd>  (18) 
1.6656

>  <sdf_rank>  (18) 
0

$$$$

     RDKit          3D

 11 10  0  0  0  0  0  0  0  0999 V2000
   -8.2105   -0.3770   -3.8829 O   0  0  0  0  0  0  0  0  0  0  0  0
   -7.8583    0.8479   -3.0701 P   0  0  1  0  0  0  0  0  0  0  0  0
   -8.9591    1.2076   -2.0630 O   0  0  0  0  0  0  0  0  0  0  0  0
   -6.5118    0.7287   -2.3971 O   0  0  0  0  0  0  0  0  0  0  0  0
   -7.8470    2.2873   -4.1723 C   0  0  0  0  0  0  0  0  0  0  0  0
   -6.4990    3.5057   -4.0439 P   0  0  1  0  0  0  0  0  0  0  0  0
   -6.7294    4.5519   -5.0822 O   0  0  0  0  0  0  0  0  0  0  0  0
   -6.6655    4.0579   -2.6554 O   0  0  0  0  0  0  0  0  0  0  0  0
   -5.1833    2.8281   -4.2081 O   0  0  0  0  0  0  0  0  0  0  0  0
   -7.8321    1.9014   -5.2023 H   0  0  0  0  0  0  0  0  0  0  0  0
   -8.7378    2.8547   -3.8649 H   0  0  0  0  0  0  0  0  0  0  0  0
  2  1  1  6
  2  3  2  0
  2  4  1  0
  2  5  1  0
  5  6  1  0
  6  7  2  0
  6  8  1  1
  6  9  1  0
  5 10  1  0
  5 11  1  0
M  CHG  4   1  -1   4  -1   8  -1   9  -1
M  END
>  <filename_input>  (19) 
7E4L_MDN_docked.sdf

>  <pdb_id>  (19) 
7E4L_MDN

>  <pose_rank>  (19) 
18

>  <num_atoms_heavy>  (19) 
9

>  <num_torsions>  (19) 
2

>  <pose>  (19) 
[-7.846978387743995, 2.287333942168084, -4.17232962065717, 4.940274960975534, -3.288412058353511, -1.3345949088282947, 11.43521300340653, -5.042579073577624]

>  <energy>  (19) 
-188.8088007167695

>  <inter_energy>  (19) 
-190.46169275839202

>  <intra_energy>  (19) 
3.2784365863560043

>  <rmsd>  (19) 
5.08371

>  <sdf_rank>  (19) 
0

$$$$

     RDKit          3D

 11 10  0  0  0  0  0  0  0  0999 V2000
   -5.9314    2.3673   -4.9513 O   0  0  0  0  0  0  0  0  0  0  0  0
   -5.9701    3.3383   -3.7935 P   0  0  1  0  0  0  0  0  0  0  0  0
   -7.1051    3.0191   -2.8111 O   0  0  0  0  0  0  0  0  0  0  0  0
   -4.6411    3.4478   -3.0850 O   0  0  0  0  0  0  0  0  0  0  0  0
   -6.4432    4.9704   -4.4255 C   0  0  0  0  0  0  0  0  0  0  0  0
   -5.3722    6.4062   -4.0949 P   0  0  1  0  0  0  0  0  0  0  0  0
   -4.5870    6.1148   -2.8603 O   0  0  0  0  0  0  0  0  0  0  0  0
   -4.4901    6.4647   -5.3110 O   0  0  0  0  0  0  0  0  0  0  0  0
   -6.1989    7.6374   -3.9600 O   0  0  0  0  0  0  0  0  0  0  0  0
   -6.5263    4.8783   -5.5185 H   0  0  0  0  0  0  0  0  0  0  0  0
   -7.3653    5.2037   -3.8730 H   0  0  0  0  0  0  0  0  0  0  0  0
  2  1  1  6
  2  3  2  0
  2  4  1  0
  2  5  1  0
  5  6  1  0
  6  7  2  0
  6  8  1  6
  6  9  1  0
  5 10  1  0
  5 11  1  0
M  CHG  4   1  -1   4  -1   8  -1   9  -1
M  END
>  <filename_input>  (20) 
7E4L_MDN_docked.sdf

>  <pdb_id>  (20) 
7E4L_MDN

>  <pose_rank>  (20) 
19

>  <num_atoms_heavy>  (20) 
9

>  <num_torsions>  (20) 
2

>  <pose>  (20) 
[-6.443237453054609, 4.970392382112794, -4.425528266196861, 0.10964617797949766, 0.22411525655787168, 0.29969814975915576, -0.9359978470048059, 3.972951955538874]

>  <energy>  (20) 
-197.63630115979882

>  <inter_energy>  (20) 
-205.64673777299825

>  <intra_energy>  (20) 
15.683517837782626

>  <rmsd>  (20) 
2.64692

>  <sdf_rank>  (20) 
0

$$$$

     RDKit          3D

 11 10  0  0  0  0  0  0  0  0999 V2000
   -3.3264    7.5529   -6.5005 O   0  0  0  0  0  0  0  0  0  0  0  0
   -3.2850    6.1159   -6.0336 P   0  0  1  0  0  0  0  0  0  0  0  0
   -3.2903    5.1278   -7.2079 O   0  0  0  0  0  0  0  0  0  0  0  0
   -2.1369    5.8464   -5.0904 O   0  0  0  0  0  0  0  0  0  0  0  0
   -4.8463    5.7376   -5.1932 C   0  0  0  0  0  0  0  0  0  0  0  0
   -5.1415    4.0544   -4.5625 P   0  0  1  0  0  0  0  0  0  0  0  0
   -3.8139    3.4125   -4.3371 O   0  0  0  0  0  0  0  0  0  0  0  0
   -5.8673    4.2945   -3.2679 O   0  0  0  0  0  0  0  0  0  0  0  0
   -5.9813    3.2901   -5.5259 O   0  0  0  0  0  0  0  0  0  0  0  0
   -4.9196    6.4190   -4.3327 H   0  0  0  0  0  0  0  0  0  0  0  0
   -5.6003    5.8521   -5.9859 H   0  0  0  0  0  0  0  0  0  0  0  0
  2  1  1  6
  2  3  2  0
  2  4  1  0
  2  5  1  0
  5  6  1  0
  6  7  2  0
  6  8  1  1
  6  9  1  0
  5 10  1  0
  5 11  1  0
M  CHG  4   1  -1   4  -1   8  -1   9  -1
M  END
>  <filename_input>  (21) 
7E4L_MDN_docked.sdf

>  <pdb_id>  (21) 
7E4L_MDN

>  <pose_rank>  (21) 
20

>  <num_atoms_heavy>  (21) 
9

>  <num_torsions>  (21) 
2

>  <pose>  (21) 
[-4.846328150363884, 5.737617272079206, -5.193200966723694, -2.9391454473978675, 1.6859136734894273, -1.0714527945589183, -1.93534627788652, 4.822594522807108]

>  <energy>  (21) 
-250.73375997014534

>  <inter_energy>  (21) 
-250.9169940411046

>  <intra_energy>  (21) 
3.678515722750081

>  <rmsd>  (21) 
1.22197

>  <sdf_rank>  (21) 
0

$$$$

     RDKit          3D

 11 10  0  0  0  0  0  0  0  0999 V2000
   -7.0551    4.7397   -3.7095 O   0  0  0  0  0  0  0  0  0  0  0  0
   -5.6091    4.6717   -4.1445 P   0  0  1  0  0  0  0  0  0  0  0  0
   -4.6475    5.0523   -3.0106 O   0  0  0  0  0  0  0  0  0  0  0  0
   -5.2486    3.3358   -4.7492 O   0  0  0  0  0  0  0  0  0  0  0  0
   -5.3131    5.9772   -5.3672 C   0  0  0  0  0  0  0  0  0  0  0  0
   -3.6033    6.4065   -5.8261 P   0  0  1  0  0  0  0  0  0  0  0  0
   -3.6373    7.0274   -7.1821 O   0  0  0  0  0  0  0  0  0  0  0  0
   -3.2035    7.4010   -4.7717 O   0  0  0  0  0  0  0  0  0  0  0  0
   -2.7446    5.1906   -5.7837 O   0  0  0  0  0  0  0  0  0  0  0  0
   -5.8252    5.6718   -6.2915 H   0  0  0  0  0  0  0  0  0  0  0  0
   -5.6823    6.8858   -4.8691 H   0  0  0  0  0  0  0  0  0  0  0  0
  2  1  1  1
  2  3  2  0
  2  4  1  0
  2  5  1  0
  5  6  1  0
  6  7  2  0
  6  8  1  1
  6  9  1  0
  5 10  1  0
  5 11  1  0
M  CHG  4   1  -1   4  -1   8  -1   9  -1
M  END
>  <filename_input>  (22) 
7E4L_MDN_docked.sdf

>  <pdb_id>  (22) 
7E4L_MDN

>  <pose_rank>  (22) 
21

>  <num_atoms_heavy>  (22) 
9

>  <num_torsions>  (22) 
2

>  <pose>  (22) 
[-5.313059628273967, 5.977246028655988, -5.367196363744735, 2.993347953221962, -8.711866668017796, 7.521971160441501, -14.692201974582119, -5.4342921929353025]

>  <energy>  (22) 
-208.2015593853701

>  <inter_energy>  (22) 
-210.3046737993295

>  <intra_energy>  (22) 
0.9383716527115249

>  <rmsd>  (22) 
1.71783

>  <sdf_rank>  (22) 
0

$$$$

     RDKit          3D

 11 10  0  0  0  0  0  0  0  0999 V2000
   -5.0088    3.7735   -2.5227 O   0  0  0  0  0  0  0  0  0  0  0  0
   -5.1468    3.7877   -4.0279 P   0  0  1  0  0  0  0  0  0  0  0  0
   -3.8839    3.2672   -4.7275 O   0  0  0  0  0  0  0  0  0  0  0  0
   -6.3812    3.0594   -4.5031 O   0  0  0  0  0  0  0  0  0  0  0  0
   -5.2227    5.5118   -4.5835 C   0  0  0  0  0  0  0  0  0  0  0  0
   -4.4727    6.8187   -3.5600 P   0  0  1  0  0  0  0  0  0  0  0  0
   -3.0058    6.5569   -3.4890 O   0  0  0  0  0  0  0  0  0  0  0  0
   -4.7743    8.0744   -4.3300 O   0  0  0  0  0  0  0  0  0  0  0  0
   -5.1081    6.8379   -2.2134 O   0  0  0  0  0  0  0  0  0  0  0  0
   -4.7303    5.5531   -5.5662 H   0  0  0  0  0  0  0  0  0  0  0  0
   -6.2972    5.7454   -4.5536 H   0  0  0  0  0  0  0  0  0  0  0  0
  2  1  1  1
  2  3  2  0
  2  4  1  0
  2  5  1  0
  5  6  1  0
  6  7  2  0
  6  8  1  6
  6  9  1  0
  5 10  1  0
  5 11  1  0
M  CHG  4   1  -1   4  -1   8  -1   9  -1
M  END
>  <filename_input>  (23) 
7E4L_MDN_docked.sdf

>  <pdb_id>  (23) 
7E4L_MDN

>  <pose_rank>  (23) 
22

>  <num_atoms_heavy>  (23) 
9

>  <num_torsions>  (23) 
2

>  <pose>  (23) 
[-5.2227364486242065, 5.511843331522702, -4.583474175313577, 2.277967383941989, -4.771988101198638, 4.206375331903953, -17.165020952056903, -7.0581638267920175]

>  <energy>  (23) 
-205.0041922180644

>  <inter_energy>  (23) 
-212.25626013133126

>  <intra_energy>  (23) 
3.041307999336878

>  <rmsd>  (23) 
2.16229

>  <sdf_rank>  (23) 
0

$$$$

     RDKit          3D

 11 10  0  0  0  0  0  0  0  0999 V2000
   -5.2368    4.1246   -2.4275 O   0  0  0  0  0  0  0  0  0  0  0  0
   -6.0163    3.6215   -3.6209 P   0  0  1  0  0  0  0  0  0  0  0  0
   -5.4304    2.3200   -4.1850 O   0  0  0  0  0  0  0  0  0  0  0  0
   -7.4920    3.4830   -3.3320 O   0  0  0  0  0  0  0  0  0  0  0  0
   -5.7853    4.7846   -4.9923 C   0  0  0  0  0  0  0  0  0  0  0  0
   -4.1094    5.3702   -5.4001 P   0  0  1  0  0  0  0  0  0  0  0  0
   -4.1922    6.1360   -6.6778 O   0  0  0  0  0  0  0  0  0  0  0  0
   -3.7654    6.2635   -4.2407 O   0  0  0  0  0  0  0  0  0  0  0  0
   -3.1755    4.2143   -5.4948 O   0  0  0  0  0  0  0  0  0  0  0  0
   -6.1824    4.2976   -5.8951 H   0  0  0  0  0  0  0  0  0  0  0  0
   -6.2999    5.6941   -4.6487 H   0  0  0  0  0  0  0  0  0  0  0  0
  2  1  1  1
  2  3  2  0
  2  4  1  0
  2  5  1  0
  5  6  1  0
  6  7  2  0
  6  8  1  1
  6  9  1  0
  5 10  1  0
  5 11  1  0
M  CHG  4   1  -1   4  -1   8  -1   9  -1
M  END
>  <filename_input>  (24) 
7E4L_MDN_docked.sdf

>  <pdb_id>  (24) 
7E4L_MDN

>  <pose_rank>  (24) 
23

>  <num_atoms_heavy>  (24) 
9

>  <num_torsions>  (24) 
2

>  <pose>  (24) 
[-5.785292682611481, 4.7846395096511, -4.992279101409459, 2.96816254504015, -3.620241359862647, 3.221858423508091, -16.780804673763495, -5.168116706003451]

>  <energy>  (24) 
-207.75677336496653

>  <inter_energy>  (24) 
-208.35209641645426

>  <intra_energy>  (24) 
2.572805939997643

>  <rmsd>  (24) 
2.21653

>  <sdf_rank>  (24) 
0

$$$$

     RDKit          3D

 11 10  0  0  0  0  0  0  0  0999 V2000
   -3.3156    3.7094   -4.9491 O   0  0  0  0  0  0  0  0  0  0  0  0
   -4.3935    4.6868   -5.3587 P   0  0  1  0  0  0  0  0  0  0  0  0
   -4.1116    6.1049   -4.8441 O   0  0  0  0  0  0  0  0  0  0  0  0
   -4.6463    4.6796   -6.8474 O   0  0  0  0  0  0  0  0  0  0  0  0
   -5.9259    4.2509   -4.4932 C   0  0  0  0  0  0  0  0  0  0  0  0
   -5.9538    2.7994   -3.3931 P   0  0  1  0  0  0  0  0  0  0  0  0
   -4.6174    2.6980   -2.7378 O   0  0  0  0  0  0  0  0  0  0  0  0
   -7.0320    3.1396   -2.4019 O   0  0  0  0  0  0  0  0  0  0  0  0
   -6.2942    1.5769   -4.1722 O   0  0  0  0  0  0  0  0  0  0  0  0
   -6.2063    5.1212   -3.8816 H   0  0  0  0  0  0  0  0  0  0  0  0
   -6.6112    3.9713   -5.3069 H   0  0  0  0  0  0  0  0  0  0  0  0
  2  1  1  6
  2  3  2  0
  2  4  1  0
  2  5  1  0
  5  6  1  0
  6  7  2  0
  6  8  1  1
  6  9  1  0
  5 10  1  0
  5 11  1  0
M  CHG  4   1  -1   4  -1   8  -1   9  -1
M  END
>  <filename_input>  (25) 
7E4L_MDN_docked.sdf

>  <pdb_id>  (25) 
7E4L_MDN

>  <pose_rank>  (25) 
24

>  <num_atoms_heavy>  (25) 
9

>  <num_torsions>  (25) 
2

>  <pose>  (25) 
[-5.925851043524018, 4.250949100025515, -4.493164281219724, -3.0967550771068004, 1.298436306748748, -1.56740578576195, -17.63221655897459, -7.557152830100881]

>  <energy>  (25) 
-214.22653740239298

>  <inter_energy>  (25) 
-220.8109680287708

>  <intra_energy>  (25) 
12.356633248390944

>  <rmsd>  (25) 
2.70144

>  <sdf_rank>  (25) 
0

$$$$

     RDKit          3D

 11 10  0  0  0  0  0  0  0  0999 V2000
   -3.3230    2.9270   -5.6040 O   0  0  0  0  0  0  0  0  0  0  0  0
   -4.4360    3.8430   -5.1490 P   0  0  1  0  0  0  0  0  0  0  0  0
   -5.8110    3.3650   -5.6350 O   0  0  0  0  0  0  0  0  0  0  0  0
   -4.4260    4.0690   -3.6560 O   0  0  0  0  0  0  0  0  0  0  0  0
   -4.2520    5.4370   -5.9930 C   0  0  0  0  0  0  0  0  0  0  0  0
   -2.8850    6.5470   -5.5270 P   0  0  1  0  0  0  0  0  0  0  0  0
   -1.8840    6.5270   -6.6330 O   0  0  0  0  0  0  0  0  0  0  0  0
   -3.5550    7.8880   -5.4110 O   0  0  0  0  0  0  0  0  0  0  0  0
   -2.2990    6.1150   -4.2280 O   0  0  0  0  0  0  0  0  0  0  0  0
   -4.1363    5.2197   -7.0651 H   0  0  0  0  0  0  0  0  0  0  0  0
   -5.1511    5.9941   -5.6910 H   0  0  0  0  0  0  0  0  0  0  0  0
  2  1  1  1
  2  3  2  0
  2  4  1  0
  2  5  1  0
  5  6  1  0
  6  7  2  0
  6  8  1  1
  6  9  1  0
  5 10  1  0
  5 11  1  0
M  CHG  4   1  -1   4  -1   8  -1   9  -1
M  END
>  <filename_input>  (26) 
7E4L_MDN_docked.sdf

>  <pdb_id>  (26) 
7E4L_MDN

>  <pose_rank>  (26) 
25

>  <num_atoms_heavy>  (26) 
9

>  <num_torsions>  (26) 
2

>  <pose>  (26) 
[-4.252, 5.437, -5.993, 1e-06, 1e-06, 1e-06, 0.0, 0.0]

>  <energy>  (26) 
-261.7270839300096

>  <inter_energy>  (26) 
-274.4280998001471

>  <intra_energy>  (26) 
4.651604553558062

>  <rmsd>  (26) 
0.0

>  <sdf_rank>  (26) 
0

$$$$
