
     RDKit          3D

 28 29  0  0  0  0  0  0  0  0999 V2000
  -14.8987    9.6143   21.8551 C   0  0  0  0  0  0  0  0  0  0  0  0
  -14.9796    8.3466   22.4661 C   0  0  0  0  0  0  0  0  0  0  0  0
  -14.8708    8.2075   23.8471 C   0  0  0  0  0  0  0  0  0  0  0  0
  -14.7043   10.7838   22.5966 C   0  0  0  0  0  0  0  0  0  0  0  0
  -14.5991   10.5996   23.9744 C   0  0  0  0  0  0  0  0  0  0  0  0
  -14.6797    9.3508   24.5957 C   0  0  0  0  0  0  0  0  0  0  0  0
  -14.5253    9.5114   26.0896 C   0  0  1  0  0  0  0  0  0  0  0  0
  -14.3502   11.0391   26.2219 C   0  0  0  0  0  0  0  0  0  0  0  0
  -15.7698    9.0555   26.8520 C   0  0  0  0  0  0  0  0  0  0  0  0
  -13.2665    8.8154   26.6010 C   0  0  0  0  0  0  0  0  0  0  0  0
  -14.0575   12.3226   20.7331 C   0  0  0  0  0  0  0  0  0  0  0  0
  -14.6163   12.0362   22.0319 N   0  0  0  0  0  0  0  0  0  0  0  0
  -14.4068   11.5775   24.9477 N   0  0  0  0  0  0  0  0  0  0  0  0
  -14.1861   11.6813   27.2454 O   0  0  0  0  0  0  0  0  0  0  0  0
  -14.9915    9.6858   20.7614 H   0  0  0  0  0  0  0  0  0  0  0  0
  -15.1309    7.4535   21.8421 H   0  0  0  0  0  0  0  0  0  0  0  0
  -14.9351    7.2191   24.3256 H   0  0  0  0  0  0  0  0  0  0  0  0
  -15.5827    9.1240   27.9338 H   0  0  0  0  0  0  0  0  0  0  0  0
  -16.6200    9.7005   26.5853 H   0  0  0  0  0  0  0  0  0  0  0  0
  -16.0021    8.0139   26.5853 H   0  0  0  0  0  0  0  0  0  0  0  0
  -13.2682    8.8163   27.7010 H   0  0  0  0  0  0  0  0  0  0  0  0
  -13.2468    7.7782   26.2352 H   0  0  0  0  0  0  0  0  0  0  0  0
  -12.3776    9.3501   26.2352 H   0  0  0  0  0  0  0  0  0  0  0  0
  -13.0845   12.8212   20.8544 H   0  0  0  0  0  0  0  0  0  0  0  0
  -13.9213   11.3832   20.1773 H   0  0  0  0  0  0  0  0  0  0  0  0
  -14.7406   12.9818   20.1773 H   0  0  0  0  0  0  0  0  0  0  0  0
  -14.9775   12.8305   22.5792 H   0  0  0  0  0  0  0  0  0  0  0  0
  -14.3172   12.5830   24.7434 H   0  0  0  0  0  0  0  0  0  0  0  0
  1  2  2  0
  1  4  1  0
  2  3  1  0
  3  6  2  0
  4  5  2  0
  4 12  1  0
  5  6  1  0
  5 13  1  0
  6  7  1  0
  7  8  1  0
  7  9  1  1
  7 10  1  0
  8 13  1  0
  8 14  2  0
 11 12  1  0
  1 15  1  0
  2 16  1  0
  3 17  1  0
  9 18  1  0
  9 19  1  0
  9 20  1  0
 10 21  1  0
 10 22  1  0
 10 23  1  0
 11 24  1  0
 11 25  1  0
 11 26  1  0
 12 27  1  0
 13 28  1  0
M  END
>  <filename_input>  (1) 
7EBG_J0L_docked.sdf

>  <pdb_id>  (1) 
7EBG_J0L

>  <pose_rank>  (1) 
0

>  <num_atoms_heavy>  (1) 
14

>  <num_torsions>  (1) 
1

>  <pose>  (1) 
[-14.89873907994034, 9.614267617870503, 21.855120427231135, 3.6140945473963226, -2.4310224213543594, -4.203141887375266, -0.5471239310723598]

>  <energy>  (1) 
-1033.432679567807

>  <inter_energy>  (1) 
-1015.3038299391241

>  <intra_energy>  (1) 
0.0

>  <rmsd>  (1) 
0.455518

>  <sdf_rank>  (1) 
0

$$$$

     RDKit          3D

 28 29  0  0  0  0  0  0  0  0999 V2000
  -15.1783    8.5819   26.3795 C   0  0  0  0  0  0  0  0  0  0  0  0
  -14.8456    7.6894   25.3405 C   0  0  0  0  0  0  0  0  0  0  0  0
  -14.4045    8.1580   24.1059 C   0  0  0  0  0  0  0  0  0  0  0  0
  -15.0861    9.9685   26.2239 C   0  0  0  0  0  0  0  0  0  0  0  0
  -14.6424   10.3948   24.9731 C   0  0  0  0  0  0  0  0  0  0  0  0
  -14.3061    9.5236   23.9339 C   0  0  0  0  0  0  0  0  0  0  0  0
  -13.8678   10.3147   22.7242 C   0  0  1  0  0  0  0  0  0  0  0  0
  -14.0012   11.7647   23.2357 C   0  0  0  0  0  0  0  0  0  0  0  0
  -12.4174   10.0235   22.3373 C   0  0  0  0  0  0  0  0  0  0  0  0
  -14.8161   10.1083   21.5459 C   0  0  0  0  0  0  0  0  0  0  0  0
  -14.6701   11.0466   28.4428 C   0  0  0  0  0  0  0  0  0  0  0  0
  -15.4071   10.8678   27.2156 N   0  0  0  0  0  0  0  0  0  0  0  0
  -14.4548   11.7062   24.5423 N   0  0  0  0  0  0  0  0  0  0  0  0
  -13.7629   12.7922   22.6238 O   0  0  0  0  0  0  0  0  0  0  0  0
  -15.5209    8.1751   27.3424 H   0  0  0  0  0  0  0  0  0  0  0  0
  -14.9359    6.6059   25.5077 H   0  0  0  0  0  0  0  0  0  0  0  0
  -14.1431    7.4627   23.2945 H   0  0  0  0  0  0  0  0  0  0  0  0
  -11.8124    9.9020   23.2479 H   0  0  0  0  0  0  0  0  0  0  0  0
  -12.3751    9.0989   21.7429 H   0  0  0  0  0  0  0  0  0  0  0  0
  -12.0215   10.8601   21.7429 H   0  0  0  0  0  0  0  0  0  0  0  0
  -15.8261    9.8886   21.9221 H   0  0  0  0  0  0  0  0  0  0  0  0
  -14.8437   11.0215   20.9332 H   0  0  0  0  0  0  0  0  0  0  0  0
  -14.4618    9.2663   20.9332 H   0  0  0  0  0  0  0  0  0  0  0  0
  -15.3402   10.8840   29.2999 H   0  0  0  0  0  0  0  0  0  0  0  0
  -13.8423   10.3233   28.4822 H   0  0  0  0  0  0  0  0  0  0  0  0
  -14.2660   12.0689   28.4822 H   0  0  0  0  0  0  0  0  0  0  0  0
  -16.2380   11.4588   27.0701 H   0  0  0  0  0  0  0  0  0  0  0  0
  -14.6328   12.5351   25.1273 H   0  0  0  0  0  0  0  0  0  0  0  0
  1  2  2  0
  1  4  1  0
  2  3  1  0
  3  6  2  0
  4  5  2  0
  4 12  1  0
  5  6  1  0
  5 13  1  0
  6  7  1  0
  7  8  1  0
  7  9  1  6
  7 10  1  0
  8 13  1  0
  8 14  2  0
 11 12  1  0
  1 15  1  0
  2 16  1  0
  3 17  1  0
  9 18  1  0
  9 19  1  0
  9 20  1  0
 10 21  1  0
 10 22  1  0
 10 23  1  0
 11 24  1  0
 11 25  1  0
 11 26  1  0
 12 27  1  0
 13 28  1  0
M  END
>  <filename_input>  (2) 
7EBG_J0L_docked.sdf

>  <pdb_id>  (2) 
7EBG_J0L

>  <pose_rank>  (2) 
1

>  <num_atoms_heavy>  (2) 
14

>  <num_torsions>  (2) 
1

>  <pose>  (2) 
[-15.178258103892553, 8.581869335840123, 26.379515580629104, 0.2613051778263225, 2.7165999209582603, 0.8913596731050314, 1.208712003874182]

>  <energy>  (2) 
-684.2603331480003

>  <inter_energy>  (2) 
-677.698438063076

>  <intra_energy>  (2) 
0.0

>  <rmsd>  (2) 
4.12646

>  <sdf_rank>  (2) 
0

$$$$

     RDKit          3D

 28 29  0  0  0  0  0  0  0  0999 V2000
  -15.0717    9.7446   22.0376 C   0  0  0  0  0  0  0  0  0  0  0  0
  -15.3713    8.4489   22.5045 C   0  0  0  0  0  0  0  0  0  0  0  0
  -15.3447    8.1523   23.8646 C   0  0  0  0  0  0  0  0  0  0  0  0
  -14.7330   10.7862   22.9069 C   0  0  0  0  0  0  0  0  0  0  0  0
  -14.7166   10.4463   24.2588 C   0  0  0  0  0  0  0  0  0  0  0  0
  -15.0136    9.1680   24.7381 C   0  0  0  0  0  0  0  0  0  0  0  0
  -14.9009    9.1469   26.2441 C   0  0  1  0  0  0  0  0  0  0  0  0
  -14.5005   10.6065   26.5466 C   0  0  0  0  0  0  0  0  0  0  0  0
  -16.2321    8.8149   26.9191 C   0  0  0  0  0  0  0  0  0  0  0  0
  -13.7864    8.2134   26.7098 C   0  0  0  0  0  0  0  0  0  0  0  0
  -14.0009   12.4132   21.1532 C   0  0  0  0  0  0  0  0  0  0  0  0
  -14.4306   12.0611   22.4845 N   0  0  0  0  0  0  0  0  0  0  0  0
  -14.4193   11.2760   25.3376 N   0  0  0  0  0  0  0  0  0  0  0  0
  -14.2844   11.1057   27.6379 O   0  0  0  0  0  0  0  0  0  0  0  0
  -15.1053    9.9425   20.9561 H   0  0  0  0  0  0  0  0  0  0  0  0
  -15.6302    7.6598   21.7832 H   0  0  0  0  0  0  0  0  0  0  0  0
  -15.5797    7.1420   24.2307 H   0  0  0  0  0  0  0  0  0  0  0  0
  -16.1072    8.8461   28.0115 H   0  0  0  0  0  0  0  0  0  0  0  0
  -16.9908    9.5513   26.6157 H   0  0  0  0  0  0  0  0  0  0  0  0
  -16.5561    7.8084   26.6157 H   0  0  0  0  0  0  0  0  0  0  0  0
  -13.7612    8.1924   27.8093 H   0  0  0  0  0  0  0  0  0  0  0  0
  -13.9741    7.1991   26.3278 H   0  0  0  0  0  0  0  0  0  0  0  0
  -12.8207    8.5762   26.3278 H   0  0  0  0  0  0  0  0  0  0  0  0
  -13.1514   13.1093   21.2142 H   0  0  0  0  0  0  0  0  0  0  0  0
  -13.6926   11.5047   20.6151 H   0  0  0  0  0  0  0  0  0  0  0  0
  -14.8311   12.8941   20.6151 H   0  0  0  0  0  0  0  0  0  0  0  0
  -14.5180   12.8227   23.1725 H   0  0  0  0  0  0  0  0  0  0  0  0
  -14.1685   12.2708   25.2464 H   0  0  0  0  0  0  0  0  0  0  0  0
  1  2  2  0
  1  4  1  0
  2  3  1  0
  3  6  2  0
  4  5  2  0
  4 12  1  0
  5  6  1  0
  5 13  1  0
  6  7  1  0
  7  8  1  0
  7  9  1  1
  7 10  1  0
  8 13  1  0
  8 14  2  0
 11 12  1  0
  1 15  1  0
  2 16  1  0
  3 17  1  0
  9 18  1  0
  9 19  1  0
  9 20  1  0
 10 21  1  0
 10 22  1  0
 10 23  1  0
 11 24  1  0
 11 25  1  0
 11 26  1  0
 12 27  1  0
 13 28  1  0
M  END
>  <filename_input>  (3) 
7EBG_J0L_docked.sdf

>  <pdb_id>  (3) 
7EBG_J0L

>  <pose_rank>  (3) 
2

>  <num_atoms_heavy>  (3) 
14

>  <num_torsions>  (3) 
1

>  <pose>  (3) 
[-15.071683027478866, 9.744593393238066, 22.03764043118862, 2.4972606704876408, -5.654224942004945, -0.6756541992325962, -0.34418702189128036]

>  <energy>  (3) 
-879.2456446585534

>  <inter_energy>  (3) 
-873.0963219496143

>  <intra_energy>  (3) 
0.0

>  <rmsd>  (3) 
0.39397

>  <sdf_rank>  (3) 
0

$$$$

     RDKit          3D

 28 29  0  0  0  0  0  0  0  0999 V2000
  -16.9303    7.7469   26.8971 C   0  0  0  0  0  0  0  0  0  0  0  0
  -16.5138    6.7271   26.0178 C   0  0  0  0  0  0  0  0  0  0  0  0
  -15.6925    7.0092   24.9295 C   0  0  0  0  0  0  0  0  0  0  0  0
  -16.5466    9.0800   26.7215 C   0  0  0  0  0  0  0  0  0  0  0  0
  -15.7264    9.3189   25.6199 C   0  0  0  0  0  0  0  0  0  0  0  0
  -15.3025    8.3193   24.7406 C   0  0  0  0  0  0  0  0  0  0  0  0
  -14.4305    8.9207   23.6639 C   0  0  1  0  0  0  0  0  0  0  0  0
  -14.4198   10.4102   24.0681 C   0  0  0  0  0  0  0  0  0  0  0  0
  -13.0092    8.3574   23.6891 C   0  0  0  0  0  0  0  0  0  0  0  0
  -15.0667    8.7794   22.2834 C   0  0  0  0  0  0  0  0  0  0  0  0
  -17.6647    9.9279   28.7927 C   0  0  0  0  0  0  0  0  0  0  0  0
  -16.9386   10.1006   27.5581 N   0  0  0  0  0  0  0  0  0  0  0  0
  -15.1955   10.5390   25.2074 N   0  0  0  0  0  0  0  0  0  0  0  0
  -13.8469   11.3277   23.5051 O   0  0  0  0  0  0  0  0  0  0  0  0
  -17.5772    7.4860   27.7477 H   0  0  0  0  0  0  0  0  0  0  0  0
  -16.8427    5.6923   26.1941 H   0  0  0  0  0  0  0  0  0  0  0  0
  -15.3654    6.2143   24.2432 H   0  0  0  0  0  0  0  0  0  0  0  0
  -12.6843    8.2286   24.7321 H   0  0  0  0  0  0  0  0  0  0  0  0
  -12.9914    7.3842   23.1766 H   0  0  0  0  0  0  0  0  0  0  0  0
  -12.3295    9.0541   23.1766 H   0  0  0  0  0  0  0  0  0  0  0  0
  -16.1350    8.5420   22.3946 H   0  0  0  0  0  0  0  0  0  0  0  0
  -14.9565    9.7239   21.7305 H   0  0  0  0  0  0  0  0  0  0  0  0
  -14.5670    7.9703   21.7305 H   0  0  0  0  0  0  0  0  0  0  0  0
  -16.9859   10.0893   29.6430 H   0  0  0  0  0  0  0  0  0  0  0  0
  -18.4888   10.6551   28.8382 H   0  0  0  0  0  0  0  0  0  0  0  0
  -18.0732    8.9075   28.8382 H   0  0  0  0  0  0  0  0  0  0  0  0
  -16.6946   11.0621   27.2811 H   0  0  0  0  0  0  0  0  0  0  0  0
  -15.3608   11.4321   25.6932 H   0  0  0  0  0  0  0  0  0  0  0  0
  1  2  2  0
  1  4  1  0
  2  3  1  0
  3  6  2  0
  4  5  2  0
  4 12  1  0
  5  6  1  0
  5 13  1  0
  6  7  1  0
  7  8  1  0
  7  9  1  6
  7 10  1  0
  8 13  1  0
  8 14  2  0
 11 12  1  0
  1 15  1  0
  2 16  1  0
  3 17  1  0
  9 18  1  0
  9 19  1  0
  9 20  1  0
 10 21  1  0
 10 22  1  0
 10 23  1  0
 11 24  1  0
 11 25  1  0
 11 26  1  0
 12 27  1  0
 13 28  1  0
M  END
>  <filename_input>  (4) 
7EBG_J0L_docked.sdf

>  <pdb_id>  (4) 
7EBG_J0L

>  <pose_rank>  (4) 
3

>  <num_atoms_heavy>  (4) 
14

>  <num_torsions>  (4) 
1

>  <pose>  (4) 
[-16.930320611342996, 7.746897789190184, 26.897140069442568, -0.49852151558898733, -3.53349640661343, -1.068913683408574, 0.1445510828249994]

>  <energy>  (4) 
-458.88656752050997

>  <inter_energy>  (4) 
-465.6633302837952

>  <intra_energy>  (4) 
0.0

>  <rmsd>  (4) 
4.40275

>  <sdf_rank>  (4) 
0

$$$$

     RDKit          3D

 28 29  0  0  0  0  0  0  0  0999 V2000
  -16.1258    8.1446   29.0064 C   0  0  0  0  0  0  0  0  0  0  0  0
  -15.1274    9.1390   28.9716 C   0  0  0  0  0  0  0  0  0  0  0  0
  -14.4922    9.4765   27.7795 C   0  0  0  0  0  0  0  0  0  0  0  0
  -16.5228    7.4518   27.8585 C   0  0  0  0  0  0  0  0  0  0  0  0
  -15.8611    7.8192   26.6878 C   0  0  0  0  0  0  0  0  0  0  0  0
  -14.8715    8.8042   26.6357 C   0  0  0  0  0  0  0  0  0  0  0  0
  -14.3670    8.9486   25.2194 C   0  0  1  0  0  0  0  0  0  0  0  0
  -15.2228    7.9013   24.4759 C   0  0  0  0  0  0  0  0  0  0  0  0
  -14.6301   10.3436   24.6513 C   0  0  0  0  0  0  0  0  0  0  0  0
  -12.8938    8.5647   25.1073 C   0  0  0  0  0  0  0  0  0  0  0  0
  -18.9124    6.7125   27.8142 C   0  0  0  0  0  0  0  0  0  0  0  0
  -17.4905    6.4727   27.8579 N   0  0  0  0  0  0  0  0  0  0  0  0
  -16.0528    7.3027   25.4083 N   0  0  0  0  0  0  0  0  0  0  0  0
  -15.1928    7.6264   23.2883 O   0  0  0  0  0  0  0  0  0  0  0  0
  -16.6075    7.9063   29.9662 H   0  0  0  0  0  0  0  0  0  0  0  0
  -14.8458    9.6563   29.9006 H   0  0  0  0  0  0  0  0  0  0  0  0
  -13.7139   10.2533   27.7504 H   0  0  0  0  0  0  0  0  0  0  0  0
  -14.7645   11.0568   25.4779 H   0  0  0  0  0  0  0  0  0  0  0  0
  -13.7748   10.6553   24.0337 H   0  0  0  0  0  0  0  0  0  0  0  0
  -15.5400   10.3224   24.0337 H   0  0  0  0  0  0  0  0  0  0  0  0
  -12.4662    8.4533   26.1146 H   0  0  0  0  0  0  0  0  0  0  0  0
  -12.8033    7.6130   24.5632 H   0  0  0  0  0  0  0  0  0  0  0  0
  -12.3503    9.3512   24.5632 H   0  0  0  0  0  0  0  0  0  0  0  0
  -19.3048    6.7787   28.8397 H   0  0  0  0  0  0  0  0  0  0  0  0
  -19.1089    7.6564   27.2848 H   0  0  0  0  0  0  0  0  0  0  0  0
  -19.4076    5.8852   27.2848 H   0  0  0  0  0  0  0  0  0  0  0  0
  -17.1749    5.4928   27.8914 H   0  0  0  0  0  0  0  0  0  0  0  0
  -16.7324    6.5624   25.1825 H   0  0  0  0  0  0  0  0  0  0  0  0
  1  2  2  0
  1  4  1  0
  2  3  1  0
  3  6  2  0
  4  5  2  0
  4 12  1  0
  5  6  1  0
  5 13  1  0
  6  7  1  0
  7  8  1  0
  7  9  1  6
  7 10  1  0
  8 13  1  0
  8 14  2  0
 11 12  1  0
  1 15  1  0
  2 16  1  0
  3 17  1  0
  9 18  1  0
  9 19  1  0
  9 20  1  0
 10 21  1  0
 10 22  1  0
 10 23  1  0
 11 24  1  0
 11 25  1  0
 11 26  1  0
 12 27  1  0
 13 28  1  0
M  END
>  <filename_input>  (5) 
7EBG_J0L_docked.sdf

>  <pdb_id>  (5) 
7EBG_J0L

>  <pose_rank>  (5) 
4

>  <num_atoms_heavy>  (5) 
14

>  <num_torsions>  (5) 
1

>  <pose>  (5) 
[-16.12578961807909, 8.144634466949556, 29.00639971537149, 2.9235749020443262, -1.6237105309986606, 0.3671461884067753, 1.4527273898775996]

>  <energy>  (5) 
-353.223426479174

>  <inter_energy>  (5) 
-365.11052184159354

>  <intra_energy>  (5) 
0.0

>  <rmsd>  (5) 
5.66336

>  <sdf_rank>  (5) 
0

$$$$

     RDKit          3D

 28 29  0  0  0  0  0  0  0  0999 V2000
  -17.9418    8.1194   28.8899 C   0  0  0  0  0  0  0  0  0  0  0  0
  -18.3958    8.7360   27.7065 C   0  0  0  0  0  0  0  0  0  0  0  0
  -17.4974    9.2180   26.7583 C   0  0  0  0  0  0  0  0  0  0  0  0
  -16.5806    7.9649   29.1704 C   0  0  0  0  0  0  0  0  0  0  0  0
  -15.7161    8.4623   28.1965 C   0  0  0  0  0  0  0  0  0  0  0  0
  -16.1498    9.0735   27.0172 C   0  0  0  0  0  0  0  0  0  0  0  0
  -14.9578    9.4940   26.1903 C   0  0  1  0  0  0  0  0  0  0  0  0
  -13.7839    9.0249   27.0756 C   0  0  0  0  0  0  0  0  0  0  0  0
  -14.9137    8.7843   24.8367 C   0  0  0  0  0  0  0  0  0  0  0  0
  -14.8927   11.0110   26.0320 C   0  0  0  0  0  0  0  0  0  0  0  0
  -15.3293    8.0399   31.3354 C   0  0  0  0  0  0  0  0  0  0  0  0
  -16.1032    7.3721   30.3175 N   0  0  0  0  0  0  0  0  0  0  0  0
  -14.3233    8.4429   28.2100 N   0  0  0  0  0  0  0  0  0  0  0  0
  -12.5913    9.1363   26.8468 O   0  0  0  0  0  0  0  0  0  0  0  0
  -18.6809    7.7484   29.6151 H   0  0  0  0  0  0  0  0  0  0  0  0
  -19.4767    8.8379   27.5294 H   0  0  0  0  0  0  0  0  0  0  0  0
  -17.8502    9.6981   25.8337 H   0  0  0  0  0  0  0  0  0  0  0  0
  -14.8462    7.6978   24.9944 H   0  0  0  0  0  0  0  0  0  0  0  0
  -15.8280    9.0166   24.2709 H   0  0  0  0  0  0  0  0  0  0  0  0
  -14.0352    9.1280   24.2709 H   0  0  0  0  0  0  0  0  0  0  0  0
  -14.8724   11.4828   27.0255 H   0  0  0  0  0  0  0  0  0  0  0  0
  -13.9820   11.2830   25.4782 H   0  0  0  0  0  0  0  0  0  0  0  0
  -15.7766   11.3602   25.4782 H   0  0  0  0  0  0  0  0  0  0  0  0
  -15.6866    7.7316   32.3290 H   0  0  0  0  0  0  0  0  0  0  0  0
  -14.2688    7.7687   31.2267 H   0  0  0  0  0  0  0  0  0  0  0  0
  -15.4423    9.1287   31.2267 H   0  0  0  0  0  0  0  0  0  0  0  0
  -16.3151    6.3742   30.4600 H   0  0  0  0  0  0  0  0  0  0  0  0
  -13.7608    8.0426   28.9744 H   0  0  0  0  0  0  0  0  0  0  0  0
  1  2  2  0
  1  4  1  0
  2  3  1  0
  3  6  2  0
  4  5  2  0
  4 12  1  0
  5  6  1  0
  5 13  1  0
  6  7  1  0
  7  8  1  0
  7  9  1  6
  7 10  1  0
  8 13  1  0
  8 14  2  0
 11 12  1  0
  1 15  1  0
  2 16  1  0
  3 17  1  0
  9 18  1  0
  9 19  1  0
  9 20  1  0
 10 21  1  0
 10 22  1  0
 10 23  1  0
 11 24  1  0
 11 25  1  0
 11 26  1  0
 12 27  1  0
 13 28  1  0
M  END
>  <filename_input>  (6) 
7EBG_J0L_docked.sdf

>  <pdb_id>  (6) 
7EBG_J0L

>  <pose_rank>  (6) 
5

>  <num_atoms_heavy>  (6) 
14

>  <num_torsions>  (6) 
1

>  <pose>  (6) 
[-17.941761484968563, 8.119441971643989, 28.889894907929577, -31.34401348271463, -18.079421720761655, -19.412365649379296, -1.996649597309266]

>  <energy>  (6) 
-352.06850263485194

>  <inter_energy>  (6) 
-346.36108702560415

>  <intra_energy>  (6) 
4.610283806423656

>  <rmsd>  (6) 
5.84251

>  <sdf_rank>  (6) 
0

$$$$

     RDKit          3D

 28 29  0  0  0  0  0  0  0  0999 V2000
  -15.4915    9.6713   23.2726 C   0  0  0  0  0  0  0  0  0  0  0  0
  -15.5656    8.4198   23.9167 C   0  0  0  0  0  0  0  0  0  0  0  0
  -15.1270    8.2609   25.2286 C   0  0  0  0  0  0  0  0  0  0  0  0
  -14.9766   10.8042   23.9103 C   0  0  0  0  0  0  0  0  0  0  0  0
  -14.5477   10.6011   25.2211 C   0  0  0  0  0  0  0  0  0  0  0  0
  -14.6166    9.3681   25.8747 C   0  0  0  0  0  0  0  0  0  0  0  0
  -14.0696    9.5005   27.2764 C   0  0  1  0  0  0  0  0  0  0  0  0
  -13.6852   10.9946   27.3205 C   0  0  0  0  0  0  0  0  0  0  0  0
  -15.1250    9.1961   28.3401 C   0  0  0  0  0  0  0  0  0  0  0  0
  -12.8149    8.6529   27.4707 C   0  0  0  0  0  0  0  0  0  0  0  0
  -15.3729   12.3571   21.9894 C   0  0  0  0  0  0  0  0  0  0  0  0
  -14.8857   12.0395   23.3095 N   0  0  0  0  0  0  0  0  0  0  0  0
  -13.9988   11.5427   26.0886 N   0  0  0  0  0  0  0  0  0  0  0  0
  -13.1908   11.6063   28.2523 O   0  0  0  0  0  0  0  0  0  0  0  0
  -15.8498    9.7595   22.2364 H   0  0  0  0  0  0  0  0  0  0  0  0
  -15.9762    7.5552   23.3746 H   0  0  0  0  0  0  0  0  0  0  0  0
  -15.1855    7.2851   25.7331 H   0  0  0  0  0  0  0  0  0  0  0  0
  -14.6848    9.3230   29.3402 H   0  0  0  0  0  0  0  0  0  0  0  0
  -15.9736    9.8861   28.2227 H   0  0  0  0  0  0  0  0  0  0  0  0
  -15.4758    8.1601   28.2227 H   0  0  0  0  0  0  0  0  0  0  0  0
  -12.6230    8.5233   28.5461 H   0  0  0  0  0  0  0  0  0  0  0  0
  -12.9616    7.6682   27.0031 H   0  0  0  0  0  0  0  0  0  0  0  0
  -11.9561    9.1567   27.0031 H   0  0  0  0  0  0  0  0  0  0  0  0
  -16.2918   12.9562   22.0719 H   0  0  0  0  0  0  0  0  0  0  0  0
  -14.6087   12.9311   21.4448 H   0  0  0  0  0  0  0  0  0  0  0  0
  -15.5898   11.4263   21.4448 H   0  0  0  0  0  0  0  0  0  0  0  0
  -14.4349   12.7957   23.8441 H   0  0  0  0  0  0  0  0  0  0  0  0
  -13.8443   12.5308   25.8423 H   0  0  0  0  0  0  0  0  0  0  0  0
  1  2  2  0
  1  4  1  0
  2  3  1  0
  3  6  2  0
  4  5  2  0
  4 12  1  0
  5  6  1  0
  5 13  1  0
  6  7  1  0
  7  8  1  0
  7  9  1  1
  7 10  1  0
  8 13  1  0
  8 14  2  0
 11 12  1  0
  1 15  1  0
  2 16  1  0
  3 17  1  0
  9 18  1  0
  9 19  1  0
  9 20  1  0
 10 21  1  0
 10 22  1  0
 10 23  1  0
 11 24  1  0
 11 25  1  0
 11 26  1  0
 12 27  1  0
 13 28  1  0
M  END
>  <filename_input>  (7) 
7EBG_J0L_docked.sdf

>  <pdb_id>  (7) 
7EBG_J0L

>  <pose_rank>  (7) 
6

>  <num_atoms_heavy>  (7) 
14

>  <num_torsions>  (7) 
1

>  <pose>  (7) 
[-15.491530848305118, 9.67127088713701, 23.272610631599974, -2.112819320379608, 6.249235962280538, 0.9436079565148658, 0.08937000719913957]

>  <energy>  (7) 
-614.3304466539576

>  <inter_energy>  (7) 
-596.9859419566417

>  <intra_energy>  (7) 
0.0

>  <rmsd>  (7) 
1.56755

>  <sdf_rank>  (7) 
0

$$$$

     RDKit          3D

 28 29  0  0  0  0  0  0  0  0999 V2000
  -14.4375    9.6332   22.0341 C   0  0  0  0  0  0  0  0  0  0  0  0
  -14.4614    8.3446   22.6048 C   0  0  0  0  0  0  0  0  0  0  0  0
  -14.4902    8.1721   23.9861 C   0  0  0  0  0  0  0  0  0  0  0  0
  -14.4384   10.7914   22.8176 C   0  0  0  0  0  0  0  0  0  0  0  0
  -14.4661   10.5738   24.1943 C   0  0  0  0  0  0  0  0  0  0  0  0
  -14.4927    9.3036   24.7757 C   0  0  0  0  0  0  0  0  0  0  0  0
  -14.5174    9.4300   26.2807 C   0  0  1  0  0  0  0  0  0  0  0  0
  -14.5060   10.9623   26.4645 C   0  0  0  0  0  0  0  0  0  0  0  0
  -15.7875    8.8354   26.8901 C   0  0  0  0  0  0  0  0  0  0  0  0
  -13.2603    8.8387   26.9135 C   0  0  0  0  0  0  0  0  0  0  0  0
  -13.2636   12.6806   21.6733 C   0  0  0  0  0  0  0  0  0  0  0  0
  -14.4110   12.0640   22.2934 N   0  0  0  0  0  0  0  0  0  0  0  0
  -14.4757   11.5336   25.2038 N   0  0  0  0  0  0  0  0  0  0  0  0
  -14.5167   11.5839   27.5135 O   0  0  0  0  0  0  0  0  0  0  0  0
  -14.4175    9.7308   20.9386 H   0  0  0  0  0  0  0  0  0  0  0  0
  -14.4572    7.4617   21.9487 H   0  0  0  0  0  0  0  0  0  0  0  0
  -14.5103    7.1671   24.4329 H   0  0  0  0  0  0  0  0  0  0  0  0
  -15.7177    8.8680   27.9874 H   0  0  0  0  0  0  0  0  0  0  0  0
  -16.6600    9.4186   26.5606 H   0  0  0  0  0  0  0  0  0  0  0  0
  -15.8984    7.7917   26.5606 H   0  0  0  0  0  0  0  0  0  0  0  0
  -13.3474    8.8797   28.0093 H   0  0  0  0  0  0  0  0  0  0  0  0
  -13.1461    7.7924   26.5936 H   0  0  0  0  0  0  0  0  0  0  0  0
  -12.3816    9.4179   26.5936 H   0  0  0  0  0  0  0  0  0  0  0  0
  -12.5793   13.0484   22.4521 H   0  0  0  0  0  0  0  0  0  0  0  0
  -12.7431   11.9407   21.0475 H   0  0  0  0  0  0  0  0  0  0  0  0
  -13.5934   13.5230   21.0475 H   0  0  0  0  0  0  0  0  0  0  0  0
  -15.2769   12.6191   22.3481 H   0  0  0  0  0  0  0  0  0  0  0  0
  -14.4620   12.5491   25.0325 H   0  0  0  0  0  0  0  0  0  0  0  0
  1  2  2  0
  1  4  1  0
  2  3  1  0
  3  6  2  0
  4  5  2  0
  4 12  1  0
  5  6  1  0
  5 13  1  0
  6  7  1  0
  7  8  1  0
  7  9  1  1
  7 10  1  0
  8 13  1  0
  8 14  2  0
 11 12  1  0
  1 15  1  0
  2 16  1  0
  3 17  1  0
  9 18  1  0
  9 19  1  0
  9 20  1  0
 10 21  1  0
 10 22  1  0
 10 23  1  0
 11 24  1  0
 11 25  1  0
 11 26  1  0
 12 27  1  0
 13 28  1  0
M  END
>  <filename_input>  (8) 
7EBG_J0L_docked.sdf

>  <pdb_id>  (8) 
7EBG_J0L

>  <pose_rank>  (8) 
7

>  <num_atoms_heavy>  (8) 
14

>  <num_torsions>  (8) 
1

>  <pose>  (8) 
[-14.437464194949785, 9.633208589077285, 22.03409703520636, 2.6652222619847366, 0.5625003848401239, -5.351221502735658, -1.2444016041263488]

>  <energy>  (8) 
-917.7044510599259

>  <inter_energy>  (8) 
-912.3550722786227

>  <intra_energy>  (8) 
0.0

>  <rmsd>  (8) 
0.615874

>  <sdf_rank>  (8) 
0

$$$$

     RDKit          3D

 28 29  0  0  0  0  0  0  0  0999 V2000
  -14.0841    8.5936   27.6607 C   0  0  0  0  0  0  0  0  0  0  0  0
  -13.5487    7.6972   26.7139 C   0  0  0  0  0  0  0  0  0  0  0  0
  -13.6022    7.9766   25.3509 C   0  0  0  0  0  0  0  0  0  0  0  0
  -14.6926    9.7948   27.2834 C   0  0  0  0  0  0  0  0  0  0  0  0
  -14.7264   10.0346   25.9106 C   0  0  0  0  0  0  0  0  0  0  0  0
  -14.1980    9.1581   24.9594 C   0  0  0  0  0  0  0  0  0  0  0  0
  -14.4036    9.7221   23.5734 C   0  0  1  0  0  0  0  0  0  0  0  0
  -15.1231   11.0521   23.8823 C   0  0  0  0  0  0  0  0  0  0  0  0
  -13.0801    9.9928   22.8571 C   0  0  0  0  0  0  0  0  0  0  0  0
  -15.3236    8.8354   22.7382 C   0  0  0  0  0  0  0  0  0  0  0  0
  -15.8916   10.3334   29.4120 C   0  0  0  0  0  0  0  0  0  0  0  0
  -15.2293   10.6900   28.1810 N   0  0  0  0  0  0  0  0  0  0  0  0
  -15.2637   11.1411   25.2567 N   0  0  0  0  0  0  0  0  0  0  0  0
  -15.5119   11.8882   23.0843 O   0  0  0  0  0  0  0  0  0  0  0  0
  -14.0215    8.3405   28.7293 H   0  0  0  0  0  0  0  0  0  0  0  0
  -13.0813    6.7625   27.0570 H   0  0  0  0  0  0  0  0  0  0  0  0
  -13.1835    7.2788   24.6108 H   0  0  0  0  0  0  0  0  0  0  0  0
  -12.2867   10.1550   23.6016 H   0  0  0  0  0  0  0  0  0  0  0  0
  -12.8207    9.1291   22.2273 H   0  0  0  0  0  0  0  0  0  0  0  0
  -13.1806   10.8889   22.2273 H   0  0  0  0  0  0  0  0  0  0  0  0
  -15.9532    8.2287   23.4057 H   0  0  0  0  0  0  0  0  0  0  0  0
  -15.9636    9.4660   22.1035 H   0  0  0  0  0  0  0  0  0  0  0  0
  -14.7171    8.1726   22.1035 H   0  0  0  0  0  0  0  0  0  0  0  0
  -15.2807   10.6623   30.2656 H   0  0  0  0  0  0  0  0  0  0  0  0
  -16.8753   10.8238   29.4546 H   0  0  0  0  0  0  0  0  0  0  0  0
  -16.0237    9.2422   29.4546 H   0  0  0  0  0  0  0  0  0  0  0  0
  -15.1520   11.6922   27.9562 H   0  0  0  0  0  0  0  0  0  0  0  0
  -15.7127   11.9326   25.7391 H   0  0  0  0  0  0  0  0  0  0  0  0
  1  2  2  0
  1  4  1  0
  2  3  1  0
  3  6  2  0
  4  5  2  0
  4 12  1  0
  5  6  1  0
  5 13  1  0
  6  7  1  0
  7  8  1  0
  7  9  1  6
  7 10  1  0
  8 13  1  0
  8 14  2  0
 11 12  1  0
  1 15  1  0
  2 16  1  0
  3 17  1  0
  9 18  1  0
  9 19  1  0
  9 20  1  0
 10 21  1  0
 10 22  1  0
 10 23  1  0
 11 24  1  0
 11 25  1  0
 11 26  1  0
 12 27  1  0
 13 28  1  0
M  END
>  <filename_input>  (9) 
7EBG_J0L_docked.sdf

>  <pdb_id>  (9) 
7EBG_J0L

>  <pose_rank>  (9) 
8

>  <num_atoms_heavy>  (9) 
14

>  <num_torsions>  (9) 
1

>  <pose>  (9) 
[-14.084147244013835, 8.593607145963354, 27.6606666120885, 0.3481336296174608, -2.9648690703404754, -0.66761976168913, -0.5859195118732218]

>  <energy>  (9) 
-473.3934846613056

>  <inter_energy>  (9) 
-472.3195501673958

>  <intra_energy>  (9) 
0.0

>  <rmsd>  (9) 
4.47996

>  <sdf_rank>  (9) 
0

$$$$

     RDKit          3D

 28 29  0  0  0  0  0  0  0  0999 V2000
  -18.1921    6.3758   28.5197 C   0  0  0  0  0  0  0  0  0  0  0  0
  -16.9064    5.8515   28.7616 C   0  0  0  0  0  0  0  0  0  0  0  0
  -15.7652    6.5210   28.3280 C   0  0  0  0  0  0  0  0  0  0  0  0
  -18.3853    7.5806   27.8367 C   0  0  0  0  0  0  0  0  0  0  0  0
  -17.2175    8.2171   27.4190 C   0  0  0  0  0  0  0  0  0  0  0  0
  -15.9359    7.7123   27.6529 C   0  0  0  0  0  0  0  0  0  0  0  0
  -14.9031    8.6469   27.0687 C   0  0  1  0  0  0  0  0  0  0  0  0
  -15.7917    9.7594   26.4731 C   0  0  0  0  0  0  0  0  0  0  0  0
  -13.9776    9.2275   28.1384 C   0  0  0  0  0  0  0  0  0  0  0  0
  -14.1142    7.9787   25.9455 C   0  0  0  0  0  0  0  0  0  0  0  0
  -20.7809    7.3696   27.1471 C   0  0  0  0  0  0  0  0  0  0  0  0
  -19.6262    8.1184   27.5798 N   0  0  0  0  0  0  0  0  0  0  0  0
  -17.1100    9.4206   26.7258 N   0  0  0  0  0  0  0  0  0  0  0  0
  -15.4288   10.7612   25.8801 O   0  0  0  0  0  0  0  0  0  0  0  0
  -19.0707    5.8201   28.8794 H   0  0  0  0  0  0  0  0  0  0  0  0
  -16.8029    4.8986   29.3013 H   0  0  0  0  0  0  0  0  0  0  0  0
  -14.7610    6.1139   28.5172 H   0  0  0  0  0  0  0  0  0  0  0  0
  -14.3703    8.9811   29.1360 H   0  0  0  0  0  0  0  0  0  0  0  0
  -12.9711    8.7987   28.0245 H   0  0  0  0  0  0  0  0  0  0  0  0
  -13.9257   10.3203   28.0245 H   0  0  0  0  0  0  0  0  0  0  0  0
  -13.3425    7.3251   26.3780 H   0  0  0  0  0  0  0  0  0  0  0  0
  -14.7964    7.3795   25.3245 H   0  0  0  0  0  0  0  0  0  0  0  0
  -13.6354    8.7502   25.3245 H   0  0  0  0  0  0  0  0  0  0  0  0
  -21.3353    7.0100   28.0265 H   0  0  0  0  0  0  0  0  0  0  0  0
  -21.4325    8.0174   26.5424 H   0  0  0  0  0  0  0  0  0  0  0  0
  -20.4552    6.5103   26.5424 H   0  0  0  0  0  0  0  0  0  0  0  0
  -19.7390    9.1343   27.7063 H   0  0  0  0  0  0  0  0  0  0  0  0
  -17.9166    9.9915   26.4354 H   0  0  0  0  0  0  0  0  0  0  0  0
  1  2  2  0
  1  4  1  0
  2  3  1  0
  3  6  2  0
  4  5  2  0
  4 12  1  0
  5  6  1  0
  5 13  1  0
  6  7  1  0
  7  8  1  0
  7  9  1  1
  7 10  1  0
  8 13  1  0
  8 14  2  0
 11 12  1  0
  1 15  1  0
  2 16  1  0
  3 17  1  0
  9 18  1  0
  9 19  1  0
  9 20  1  0
 10 21  1  0
 10 22  1  0
 10 23  1  0
 11 24  1  0
 11 25  1  0
 11 26  1  0
 12 27  1  0
 13 28  1  0
M  END
>  <filename_input>  (10) 
7EBG_J0L_docked.sdf

>  <pdb_id>  (10) 
7EBG_J0L

>  <pose_rank>  (10) 
9

>  <num_atoms_heavy>  (10) 
14

>  <num_torsions>  (10) 
1

>  <pose>  (10) 
[-18.19213203632013, 6.375787488882248, 28.51973104812009, 1.7102012327227412, -3.763308664686243, -0.9648003700135068, -0.7103106641857954]

>  <energy>  (10) 
-339.22820885734853

>  <inter_energy>  (10) 
-348.1689862440515

>  <intra_energy>  (10) 
0.0

>  <rmsd>  (10) 
5.7684

>  <sdf_rank>  (10) 
0

$$$$

     RDKit          3D

 28 29  0  0  0  0  0  0  0  0999 V2000
  -14.8932    9.8476   21.7229 C   0  0  0  0  0  0  0  0  0  0  0  0
  -14.9380    8.5317   22.2260 C   0  0  0  0  0  0  0  0  0  0  0  0
  -14.8623    8.2836   23.5939 C   0  0  0  0  0  0  0  0  0  0  0  0
  -14.7688   10.9587   22.5626 C   0  0  0  0  0  0  0  0  0  0  0  0
  -14.6947   10.6659   23.9235 C   0  0  0  0  0  0  0  0  0  0  0  0
  -14.7403    9.3679   24.4385 C   0  0  0  0  0  0  0  0  0  0  0  0
  -14.6347    9.4108   25.9446 C   0  0  1  0  0  0  0  0  0  0  0  0
  -14.5275   10.9281   26.2060 C   0  0  0  0  0  0  0  0  0  0  0  0
  -15.8799    8.8448   26.6280 C   0  0  0  0  0  0  0  0  0  0  0  0
  -13.3627    8.7252   26.4370 C   0  0  0  0  0  0  0  0  0  0  0  0
  -14.1047   12.6747   20.8676 C   0  0  0  0  0  0  0  0  0  0  0  0
  -14.7176   12.2559   22.1046 N   0  0  0  0  0  0  0  0  0  0  0  0
  -14.5709   11.5670   24.9786 N   0  0  0  0  0  0  0  0  0  0  0  0
  -14.4192   11.4897   27.2829 O   0  0  0  0  0  0  0  0  0  0  0  0
  -14.9582   10.0053   20.6362 H   0  0  0  0  0  0  0  0  0  0  0  0
  -15.0341    7.6877   21.5271 H   0  0  0  0  0  0  0  0  0  0  0  0
  -14.8985    7.2573   23.9882 H   0  0  0  0  0  0  0  0  0  0  0  0
  -15.7565    8.9008   27.7196 H   0  0  0  0  0  0  0  0  0  0  0  0
  -16.7611    9.4308   26.3280 H   0  0  0  0  0  0  0  0  0  0  0  0
  -16.0178    7.7955   26.3280 H   0  0  0  0  0  0  0  0  0  0  0  0
  -13.3516    8.7192   27.5369 H   0  0  0  0  0  0  0  0  0  0  0  0
  -13.3361    7.6905   26.0644 H   0  0  0  0  0  0  0  0  0  0  0  0
  -12.4838    9.2717   26.0644 H   0  0  0  0  0  0  0  0  0  0  0  0
  -13.2147   13.2829   21.0868 H   0  0  0  0  0  0  0  0  0  0  0  0
  -13.8094   11.7888   20.2863 H   0  0  0  0  0  0  0  0  0  0  0  0
  -14.8228   13.2719   20.2863 H   0  0  0  0  0  0  0  0  0  0  0  0
  -15.1505   12.9840   22.6906 H   0  0  0  0  0  0  0  0  0  0  0  0
  -14.5178   12.5887   24.8595 H   0  0  0  0  0  0  0  0  0  0  0  0
  1  2  2  0
  1  4  1  0
  2  3  1  0
  3  6  2  0
  4  5  2  0
  4 12  1  0
  5  6  1  0
  5 13  1  0
  6  7  1  0
  7  8  1  0
  7  9  1  1
  7 10  1  0
  8 13  1  0
  8 14  2  0
 11 12  1  0
  1 15  1  0
  2 16  1  0
  3 17  1  0
  9 18  1  0
  9 19  1  0
  9 20  1  0
 10 21  1  0
 10 22  1  0
 10 23  1  0
 11 24  1  0
 11 25  1  0
 11 26  1  0
 12 27  1  0
 13 28  1  0
M  END
>  <filename_input>  (11) 
7EBG_J0L_docked.sdf

>  <pdb_id>  (11) 
7EBG_J0L

>  <pose_rank>  (11) 
10

>  <num_atoms_heavy>  (11) 
14

>  <num_torsions>  (11) 
1

>  <pose>  (11) 
[-14.893224135958942, 9.847562307945898, 21.722863694410602, -12.201496757757399, 10.858768133803832, 41.07089139170983, -0.5764530987777328]

>  <energy>  (11) 
-912.8746815255572

>  <inter_energy>  (11) 
-931.2382970003339

>  <intra_energy>  (11) 
0.0

>  <rmsd>  (11) 
0.330277

>  <sdf_rank>  (11) 
0

$$$$

     RDKit          3D

 28 29  0  0  0  0  0  0  0  0999 V2000
  -17.7064    4.4680   28.1232 C   0  0  0  0  0  0  0  0  0  0  0  0
  -16.5979    4.3412   28.9844 C   0  0  0  0  0  0  0  0  0  0  0  0
  -15.7786    5.4315   29.2646 C   0  0  0  0  0  0  0  0  0  0  0  0
  -18.0344    5.6813   27.5104 C   0  0  0  0  0  0  0  0  0  0  0  0
  -17.1881    6.7460   27.8164 C   0  0  0  0  0  0  0  0  0  0  0  0
  -16.0873    6.6377   28.6699 C   0  0  0  0  0  0  0  0  0  0  0  0
  -15.3914    7.9738   28.7798 C   0  0  1  0  0  0  0  0  0  0  0  0
  -16.2662    8.8564   27.8646 C   0  0  0  0  0  0  0  0  0  0  0  0
  -15.4070    8.5181   30.2086 C   0  0  0  0  0  0  0  0  0  0  0  0
  -13.9740    7.9155   28.2160 C   0  0  0  0  0  0  0  0  0  0  0  0
  -19.3763    5.0180   25.5058 C   0  0  0  0  0  0  0  0  0  0  0  0
  -19.1064    5.8388   26.6611 N   0  0  0  0  0  0  0  0  0  0  0  0
  -17.2758    8.0576   27.3555 N   0  0  0  0  0  0  0  0  0  0  0  0
  -16.1179   10.0404   27.6134 O   0  0  0  0  0  0  0  0  0  0  0  0
  -18.3327    3.5852   27.9270 H   0  0  0  0  0  0  0  0  0  0  0  0
  -16.3767    3.3658   29.4423 H   0  0  0  0  0  0  0  0  0  0  0  0
  -14.9140    5.3345   29.9377 H   0  0  0  0  0  0  0  0  0  0  0  0
  -15.3830    7.6799   30.9206 H   0  0  0  0  0  0  0  0  0  0  0  0
  -14.5269    9.1587   30.3666 H   0  0  0  0  0  0  0  0  0  0  0  0
  -16.3224    9.1072   30.3666 H   0  0  0  0  0  0  0  0  0  0  0  0
  -13.2508    7.8858   29.0444 H   0  0  0  0  0  0  0  0  0  0  0  0
  -13.8617    7.0120   27.5987 H   0  0  0  0  0  0  0  0  0  0  0  0
  -13.7880    8.8068   27.5987 H   0  0  0  0  0  0  0  0  0  0  0  0
  -19.7044    4.0205   25.8333 H   0  0  0  0  0  0  0  0  0  0  0  0
  -20.1684    5.4845   24.9016 H   0  0  0  0  0  0  0  0  0  0  0  0
  -18.4620    4.9233   24.9016 H   0  0  0  0  0  0  0  0  0  0  0  0
  -19.7670    6.6019   26.8664 H   0  0  0  0  0  0  0  0  0  0  0  0
  -18.0061    8.3937   26.7116 H   0  0  0  0  0  0  0  0  0  0  0  0
  1  2  2  0
  1  4  1  0
  2  3  1  0
  3  6  2  0
  4  5  2  0
  4 12  1  0
  5  6  1  0
  5 13  1  0
  6  7  1  0
  7  8  1  0
  7  9  1  1
  7 10  1  0
  8 13  1  0
  8 14  2  0
 11 12  1  0
  1 15  1  0
  2 16  1  0
  3 17  1  0
  9 18  1  0
  9 19  1  0
  9 20  1  0
 10 21  1  0
 10 22  1  0
 10 23  1  0
 11 24  1  0
 11 25  1  0
 11 26  1  0
 12 27  1  0
 13 28  1  0
M  END
>  <filename_input>  (12) 
7EBG_J0L_docked.sdf

>  <pdb_id>  (12) 
7EBG_J0L

>  <pose_rank>  (12) 
11

>  <num_atoms_heavy>  (12) 
14

>  <num_torsions>  (12) 
1

>  <pose>  (12) 
[-17.70640381495862, 4.467961843973733, 28.123155745332305, 3.04567355114706, -3.108950893473032, -1.639728222946108, -0.8929948823276951]

>  <energy>  (12) 
-264.32560928026265

>  <inter_energy>  (12) 
-258.01235753294355

>  <intra_energy>  (12) 
0.0

>  <rmsd>  (12) 
6.43764

>  <sdf_rank>  (12) 
0

$$$$

     RDKit          3D

 28 29  0  0  0  0  0  0  0  0999 V2000
  -14.5776   10.3269   21.2077 C   0  0  0  0  0  0  0  0  0  0  0  0
  -14.8772    9.0061   21.5981 C   0  0  0  0  0  0  0  0  0  0  0  0
  -14.9101    8.6452   22.9424 C   0  0  0  0  0  0  0  0  0  0  0  0
  -14.2982   11.3305   22.1404 C   0  0  0  0  0  0  0  0  0  0  0  0
  -14.3402   10.9266   23.4739 C   0  0  0  0  0  0  0  0  0  0  0  0
  -14.6381    9.6226   23.8776 C   0  0  0  0  0  0  0  0  0  0  0  0
  -14.5966    9.5312   25.3847 C   0  0  1  0  0  0  0  0  0  0  0  0
  -14.2356   10.9803   25.7745 C   0  0  0  0  0  0  0  0  0  0  0  0
  -15.9526    9.1479   25.9783 C   0  0  0  0  0  0  0  0  0  0  0  0
  -13.4899    8.5929   25.8591 C   0  0  0  0  0  0  0  0  0  0  0  0
  -14.2701   13.2278   20.5099 C   0  0  0  0  0  0  0  0  0  0  0  0
  -13.9976   12.6284   21.7935 N   0  0  0  0  0  0  0  0  0  0  0  0
  -14.1084   11.7080   24.6036 N   0  0  0  0  0  0  0  0  0  0  0  0
  -14.0800   11.4299   26.8972 O   0  0  0  0  0  0  0  0  0  0  0  0
  -14.5631   10.5758   20.1363 H   0  0  0  0  0  0  0  0  0  0  0  0
  -15.0882    8.2487   20.8288 H   0  0  0  0  0  0  0  0  0  0  0  0
  -15.1452    7.6152   23.2487 H   0  0  0  0  0  0  0  0  0  0  0  0
  -15.8903    9.1655   27.0764 H   0  0  0  0  0  0  0  0  0  0  0  0
  -16.7158    9.8655   25.6428 H   0  0  0  0  0  0  0  0  0  0  0  0
  -16.2271    8.1369   25.6428 H   0  0  0  0  0  0  0  0  0  0  0  0
  -13.4698    8.5759   26.9588 H   0  0  0  0  0  0  0  0  0  0  0  0
  -13.6820    7.5782   25.4801 H   0  0  0  0  0  0  0  0  0  0  0  0
  -12.5203    8.9484   25.4801 H   0  0  0  0  0  0  0  0  0  0  0  0
  -14.7212   14.2202   20.6570 H   0  0  0  0  0  0  0  0  0  0  0  0
  -13.3308   13.3319   19.9470 H   0  0  0  0  0  0  0  0  0  0  0  0
  -14.9660   12.5885   19.9470 H   0  0  0  0  0  0  0  0  0  0  0  0
  -13.5428   13.2173   22.5058 H   0  0  0  0  0  0  0  0  0  0  0  0
  -13.8704   12.7096   24.5716 H   0  0  0  0  0  0  0  0  0  0  0  0
  1  2  2  0
  1  4  1  0
  2  3  1  0
  3  6  2  0
  4  5  2  0
  4 12  1  0
  5  6  1  0
  5 13  1  0
  6  7  1  0
  7  8  1  0
  7  9  1  1
  7 10  1  0
  8 13  1  0
  8 14  2  0
 11 12  1  0
  1 15  1  0
  2 16  1  0
  3 17  1  0
  9 18  1  0
  9 19  1  0
  9 20  1  0
 10 21  1  0
 10 22  1  0
 10 23  1  0
 11 24  1  0
 11 25  1  0
 11 26  1  0
 12 27  1  0
 13 28  1  0
M  END
>  <filename_input>  (13) 
7EBG_J0L_docked.sdf

>  <pdb_id>  (13) 
7EBG_J0L

>  <pose_rank>  (13) 
12

>  <num_atoms_heavy>  (13) 
14

>  <num_torsions>  (13) 
1

>  <pose>  (13) 
[-14.57759754972696, 10.326875850426408, 21.20767215775509, 19.541216633784607, 10.461230554569743, 22.31039190618841, 0.3286764179043736]

>  <energy>  (13) 
-820.72202433082

>  <inter_energy>  (13) 
-830.3026545932029

>  <intra_energy>  (13) 
0.0

>  <rmsd>  (13) 
0.641243

>  <sdf_rank>  (13) 
0

$$$$

     RDKit          3D

 28 29  0  0  0  0  0  0  0  0999 V2000
  -20.9640    2.2267   25.4711 C   0  0  0  0  0  0  0  0  0  0  0  0
  -21.7905    2.7742   26.4729 C   0  0  0  0  0  0  0  0  0  0  0  0
  -22.4933    3.9564   26.2565 C   0  0  0  0  0  0  0  0  0  0  0  0
  -20.8070    2.8379   24.2232 C   0  0  0  0  0  0  0  0  0  0  0  0
  -21.5263    4.0192   24.0489 C   0  0  0  0  0  0  0  0  0  0  0  0
  -22.3518    4.5736   25.0305 C   0  0  0  0  0  0  0  0  0  0  0  0
  -22.9763    5.8482   24.5141 C   0  0  1  0  0  0  0  0  0  0  0  0
  -22.3848    5.9301   23.0909 C   0  0  0  0  0  0  0  0  0  0  0  0
  -24.5012    5.7591   24.4468 C   0  0  0  0  0  0  0  0  0  0  0  0
  -22.5191    7.0623   25.3187 C   0  0  0  0  0  0  0  0  0  0  0  0
  -20.4032    1.3272   22.2704 C   0  0  0  0  0  0  0  0  0  0  0  0
  -20.0049    2.3330   23.2248 N   0  0  0  0  0  0  0  0  0  0  0  0
  -21.5611    4.8310   22.9174 N   0  0  0  0  0  0  0  0  0  0  0  0
  -22.5840    6.7934   22.2531 O   0  0  0  0  0  0  0  0  0  0  0  0
  -20.4258    1.2897   25.6771 H   0  0  0  0  0  0  0  0  0  0  0  0
  -21.8817    2.2595   27.4408 H   0  0  0  0  0  0  0  0  0  0  0  0
  -23.1399    4.3842   27.0368 H   0  0  0  0  0  0  0  0  0  0  0  0
  -24.9124    5.7351   25.4668 H   0  0  0  0  0  0  0  0  0  0  0  0
  -24.8965    6.6357   23.9127 H   0  0  0  0  0  0  0  0  0  0  0  0
  -24.7918    4.8425   23.9127 H   0  0  0  0  0  0  0  0  0  0  0  0
  -22.6019    6.8424   26.3933 H   0  0  0  0  0  0  0  0  0  0  0  0
  -21.4725    7.2933   25.0713 H   0  0  0  0  0  0  0  0  0  0  0  0
  -23.1536    7.9262   25.0713 H   0  0  0  0  0  0  0  0  0  0  0  0
  -20.7571    0.4336   22.8055 H   0  0  0  0  0  0  0  0  0  0  0  0
  -21.2132    1.7212   21.6390 H   0  0  0  0  0  0  0  0  0  0  0  0
  -19.5431    1.0598   21.6390 H   0  0  0  0  0  0  0  0  0  0  0  0
  -19.0459    2.7020   23.1537 H   0  0  0  0  0  0  0  0  0  0  0  0
  -21.0358    4.6363   22.0532 H   0  0  0  0  0  0  0  0  0  0  0  0
  1  2  2  0
  1  4  1  0
  2  3  1  0
  3  6  2  0
  4  5  2  0
  4 12  1  0
  5  6  1  0
  5 13  1  0
  6  7  1  0
  7  8  1  0
  7  9  1  6
  7 10  1  0
  8 13  1  0
  8 14  2  0
 11 12  1  0
  1 15  1  0
  2 16  1  0
  3 17  1  0
  9 18  1  0
  9 19  1  0
  9 20  1  0
 10 21  1  0
 10 22  1  0
 10 23  1  0
 11 24  1  0
 11 25  1  0
 11 26  1  0
 12 27  1  0
 13 28  1  0
M  END
>  <filename_input>  (14) 
7EBG_J0L_docked.sdf

>  <pdb_id>  (14) 
7EBG_J0L

>  <pose_rank>  (14) 
13

>  <num_atoms_heavy>  (14) 
14

>  <num_torsions>  (14) 
1

>  <pose>  (14) 
[-20.963950099804332, 2.2266708827797252, 25.47106522366066, -1.883770839223675, -0.5713625124542744, 0.22540770289979775, 1.500287284703647]

>  <energy>  (14) 
-173.43156455646107

>  <inter_energy>  (14) 
-136.384193982282

>  <intra_energy>  (14) 
0.0

>  <rmsd>  (14) 
10.1073

>  <sdf_rank>  (14) 
0

$$$$

     RDKit          3D

 28 29  0  0  0  0  0  0  0  0999 V2000
   -8.7500   19.0499   24.3891 C   0  0  0  0  0  0  0  0  0  0  0  0
   -8.4394   18.4989   23.1295 C   0  0  0  0  0  0  0  0  0  0  0  0
   -7.5106   17.4690   23.0062 C   0  0  0  0  0  0  0  0  0  0  0  0
   -8.1454   18.5973   25.5660 C   0  0  0  0  0  0  0  0  0  0  0  0
   -7.2214   17.5673   25.3977 C   0  0  0  0  0  0  0  0  0  0  0  0
   -6.9043   17.0083   24.1570 C   0  0  0  0  0  0  0  0  0  0  0  0
   -5.8709   15.9212   24.3344 C   0  0  1  0  0  0  0  0  0  0  0  0
   -5.6539   15.9445   25.8623 C   0  0  0  0  0  0  0  0  0  0  0  0
   -6.3914   14.5517   23.8967 C   0  0  0  0  0  0  0  0  0  0  0  0
   -4.5604   16.2740   23.6354 C   0  0  0  0  0  0  0  0  0  0  0  0
   -7.4360   19.4308   27.8156 C   0  0  0  0  0  0  0  0  0  0  0  0
   -8.4221   19.1159   26.8109 N   0  0  0  0  0  0  0  0  0  0  0  0
   -6.4768   16.9270   26.3857 N   0  0  0  0  0  0  0  0  0  0  0  0
   -4.9005   15.2426   26.5155 O   0  0  0  0  0  0  0  0  0  0  0  0
   -9.4907   19.8609   24.4481 H   0  0  0  0  0  0  0  0  0  0  0  0
   -8.9385   18.8885   22.2301 H   0  0  0  0  0  0  0  0  0  0  0  0
   -7.2681   17.0369   22.0241 H   0  0  0  0  0  0  0  0  0  0  0  0
   -6.6216   13.9458   24.7855 H   0  0  0  0  0  0  0  0  0  0  0  0
   -7.3030   14.6811   23.2949 H   0  0  0  0  0  0  0  0  0  0  0  0
   -5.6239   14.0429   23.2949 H   0  0  0  0  0  0  0  0  0  0  0  0
   -3.7872   16.4823   24.3895 H   0  0  0  0  0  0  0  0  0  0  0  0
   -4.2414   15.4298   23.0065 H   0  0  0  0  0  0  0  0  0  0  0  0
   -4.7085   17.1643   23.0065 H   0  0  0  0  0  0  0  0  0  0  0  0
   -7.8734   19.2911   28.8152 H   0  0  0  0  0  0  0  0  0  0  0  0
   -6.5681   18.7652   27.6989 H   0  0  0  0  0  0  0  0  0  0  0  0
   -7.1145   20.4763   27.6989 H   0  0  0  0  0  0  0  0  0  0  0  0
   -9.4099   19.2928   27.0429 H   0  0  0  0  0  0  0  0  0  0  0  0
   -6.5320   17.1576   27.3880 H   0  0  0  0  0  0  0  0  0  0  0  0
  1  2  2  0
  1  4  1  0
  2  3  1  0
  3  6  2  0
  4  5  2  0
  4 12  1  0
  5  6  1  0
  5 13  1  0
  6  7  1  0
  7  8  1  0
  7  9  1  6
  7 10  1  0
  8 13  1  0
  8 14  2  0
 11 12  1  0
  1 15  1  0
  2 16  1  0
  3 17  1  0
  9 18  1  0
  9 19  1  0
  9 20  1  0
 10 21  1  0
 10 22  1  0
 10 23  1  0
 11 24  1  0
 11 25  1  0
 11 26  1  0
 12 27  1  0
 13 28  1  0
M  END
>  <filename_input>  (15) 
7EBG_J0L_docked.sdf

>  <pdb_id>  (15) 
7EBG_J0L

>  <pose_rank>  (15) 
14

>  <num_atoms_heavy>  (15) 
14

>  <num_torsions>  (15) 
1

>  <pose>  (15) 
[-8.749958632907466, 19.04990338016698, 24.389104743558395, 1.3920399676489703, 0.4252159143451533, 0.7285561778451619, -2.3581758693800916]

>  <energy>  (15) 
-117.61280682580788

>  <inter_energy>  (15) 
-126.91249820520903

>  <intra_energy>  (15) 
13.118141032047008

>  <rmsd>  (15) 
11.0273

>  <sdf_rank>  (15) 
0

$$$$

     RDKit          3D

 28 29  0  0  0  0  0  0  0  0999 V2000
  -22.8898    8.9852   23.1647 C   0  0  0  0  0  0  0  0  0  0  0  0
  -22.6500    8.3408   21.9343 C   0  0  0  0  0  0  0  0  0  0  0  0
  -22.8134    6.9645   21.8013 C   0  0  0  0  0  0  0  0  0  0  0  0
  -23.2966    8.2823   24.3030 C   0  0  0  0  0  0  0  0  0  0  0  0
  -23.4465    6.9076   24.1268 C   0  0  0  0  0  0  0  0  0  0  0  0
  -23.2156    6.2540   22.9137 C   0  0  0  0  0  0  0  0  0  0  0  0
  -23.4695    4.7737   23.0734 C   0  0  1  0  0  0  0  0  0  0  0  0
  -23.8839    4.6874   24.5576 C   0  0  0  0  0  0  0  0  0  0  0  0
  -24.6080    4.2825   22.1787 C   0  0  0  0  0  0  0  0  0  0  0  0
  -22.1956    3.9602   22.8593 C   0  0  0  0  0  0  0  0  0  0  0  0
  -24.4296    9.9899   25.7382 C   0  0  0  0  0  0  0  0  0  0  0  0
  -23.5349    8.8793   25.5204 N   0  0  0  0  0  0  0  0  0  0  0  0
  -23.8393    5.9693   25.0785 N   0  0  0  0  0  0  0  0  0  0  0  0
  -24.1943    3.6886   25.1844 O   0  0  0  0  0  0  0  0  0  0  0  0
  -22.7527   10.0746   23.2315 H   0  0  0  0  0  0  0  0  0  0  0  0
  -22.3289    8.9344   21.0656 H   0  0  0  0  0  0  0  0  0  0  0  0
  -22.6281    6.4603   20.8413 H   0  0  0  0  0  0  0  0  0  0  0  0
  -25.4382    3.9244   22.8053 H   0  0  0  0  0  0  0  0  0  0  0  0
  -24.9583    5.1096   21.5437 H   0  0  0  0  0  0  0  0  0  0  0  0
  -24.2467    3.4602   21.5437 H   0  0  0  0  0  0  0  0  0  0  0  0
  -21.7670    3.6866   23.8348 H   0  0  0  0  0  0  0  0  0  0  0  0
  -22.4342    3.0470   22.2945 H   0  0  0  0  0  0  0  0  0  0  0  0
  -21.4675    4.5610   22.2945 H   0  0  0  0  0  0  0  0  0  0  0  0
  -24.5587   10.1502   26.8187 H   0  0  0  0  0  0  0  0  0  0  0  0
  -24.0066   10.8966   25.2809 H   0  0  0  0  0  0  0  0  0  0  0  0
  -25.4055    9.7697   25.2809 H   0  0  0  0  0  0  0  0  0  0  0  0
  -23.0357    8.5039   26.3393 H   0  0  0  0  0  0  0  0  0  0  0  0
  -24.0696    6.2019   26.0551 H   0  0  0  0  0  0  0  0  0  0  0  0
  1  2  2  0
  1  4  1  0
  2  3  1  0
  3  6  2  0
  4  5  2  0
  4 12  1  0
  5  6  1  0
  5 13  1  0
  6  7  1  0
  7  8  1  0
  7  9  1  6
  7 10  1  0
  8 13  1  0
  8 14  2  0
 11 12  1  0
  1 15  1  0
  2 16  1  0
  3 17  1  0
  9 18  1  0
  9 19  1  0
  9 20  1  0
 10 21  1  0
 10 22  1  0
 10 23  1  0
 11 24  1  0
 11 25  1  0
 11 26  1  0
 12 27  1  0
 13 28  1  0
M  END
>  <filename_input>  (16) 
7EBG_J0L_docked.sdf

>  <pdb_id>  (16) 
7EBG_J0L

>  <pose_rank>  (16) 
15

>  <num_atoms_heavy>  (16) 
14

>  <num_torsions>  (16) 
1

>  <pose>  (16) 
[-22.889814989108448, 8.985212512303326, 23.16465923566884, 1.3480052656200476, -0.5144625558256619, 0.26449569240860754, 0.9641407932712046]

>  <energy>  (16) 
-126.62151958220528

>  <inter_energy>  (16) 
-133.48574687758884

>  <intra_energy>  (16) 
0.0

>  <rmsd>  (16) 
10.0815

>  <sdf_rank>  (16) 
0

$$$$

     RDKit          3D

 28 29  0  0  0  0  0  0  0  0999 V2000
  -14.3647    7.1050   29.0399 C   0  0  0  0  0  0  0  0  0  0  0  0
  -15.1055    6.2185   29.8474 C   0  0  0  0  0  0  0  0  0  0  0  0
  -16.4965    6.2693   29.8795 C   0  0  0  0  0  0  0  0  0  0  0  0
  -14.9822    8.0722   28.2408 C   0  0  0  0  0  0  0  0  0  0  0  0
  -16.3747    8.0898   28.3037 C   0  0  0  0  0  0  0  0  0  0  0  0
  -17.1238    7.2166   29.0966 C   0  0  0  0  0  0  0  0  0  0  0  0
  -18.5962    7.5087   28.9291 C   0  0  1  0  0  0  0  0  0  0  0  0
  -18.5692    8.6749   27.9186 C   0  0  0  0  0  0  0  0  0  0  0  0
  -19.3584    6.3201   28.3423 C   0  0  0  0  0  0  0  0  0  0  0  0
  -19.2242    7.9898   30.2347 C   0  0  0  0  0  0  0  0  0  0  0  0
  -13.6080    8.6103   26.2207 C   0  0  0  0  0  0  0  0  0  0  0  0
  -14.2893    8.9558   27.4444 N   0  0  0  0  0  0  0  0  0  0  0  0
  -17.2432    8.9369   27.6192 N   0  0  0  0  0  0  0  0  0  0  0  0
  -19.5227    9.2770   27.4547 O   0  0  0  0  0  0  0  0  0  0  0  0
  -13.2670    7.0338   29.0382 H   0  0  0  0  0  0  0  0  0  0  0  0
  -14.5764    5.4751   30.4617 H   0  0  0  0  0  0  0  0  0  0  0  0
  -17.0761    5.5772   30.5081 H   0  0  0  0  0  0  0  0  0  0  0  0
  -19.7560    5.7000   29.1592 H   0  0  0  0  0  0  0  0  0  0  0  0
  -20.1898    6.6875   27.7227 H   0  0  0  0  0  0  0  0  0  0  0  0
  -18.6777    5.7178   27.7227 H   0  0  0  0  0  0  0  0  0  0  0  0
  -18.6710    7.5659   31.0858 H   0  0  0  0  0  0  0  0  0  0  0  0
  -19.1809    9.0880   30.2796 H   0  0  0  0  0  0  0  0  0  0  0  0
  -20.2733    7.6620   30.2796 H   0  0  0  0  0  0  0  0  0  0  0  0
  -12.6502    8.1245   26.4589 H   0  0  0  0  0  0  0  0  0  0  0  0
  -14.2334    7.9204   25.6351 H   0  0  0  0  0  0  0  0  0  0  0  0
  -13.4208    9.5224   25.6351 H   0  0  0  0  0  0  0  0  0  0  0  0
  -14.2546    9.9402   27.7457 H   0  0  0  0  0  0  0  0  0  0  0  0
  -16.9350    9.6720   26.9668 H   0  0  0  0  0  0  0  0  0  0  0  0
  1  2  2  0
  1  4  1  0
  2  3  1  0
  3  6  2  0
  4  5  2  0
  4 12  1  0
  5  6  1  0
  5 13  1  0
  6  7  1  0
  7  8  1  0
  7  9  1  6
  7 10  1  0
  8 13  1  0
  8 14  2  0
 11 12  1  0
  1 15  1  0
  2 16  1  0
  3 17  1  0
  9 18  1  0
  9 19  1  0
  9 20  1  0
 10 21  1  0
 10 22  1  0
 10 23  1  0
 11 24  1  0
 11 25  1  0
 11 26  1  0
 12 27  1  0
 13 28  1  0
M  END
>  <filename_input>  (17) 
7EBG_J0L_docked.sdf

>  <pdb_id>  (17) 
7EBG_J0L

>  <pose_rank>  (17) 
16

>  <num_atoms_heavy>  (17) 
14

>  <num_torsions>  (17) 
1

>  <pose>  (17) 
[-14.364710827313509, 7.104963833665873, 29.039883889012827, 15.569559219392298, 23.500278665772186, -8.939807573023334, 1.2843570337048003]

>  <energy>  (17) 
-226.31385687469293

>  <inter_energy>  (17) 
-232.00369292275286

>  <intra_energy>  (17) 
0.0

>  <rmsd>  (17) 
6.10754

>  <sdf_rank>  (17) 
0

$$$$

     RDKit          3D

 28 29  0  0  0  0  0  0  0  0999 V2000
  -23.7969   16.8167   27.5801 C   0  0  0  0  0  0  0  0  0  0  0  0
  -23.3368   18.1268   27.8219 C   0  0  0  0  0  0  0  0  0  0  0  0
  -22.9285   18.9486   26.7748 C   0  0  0  0  0  0  0  0  0  0  0  0
  -23.8632   16.2802   26.2905 C   0  0  0  0  0  0  0  0  0  0  0  0
  -23.4439   17.1350   25.2723 C   0  0  0  0  0  0  0  0  0  0  0  0
  -22.9878   18.4368   25.4947 C   0  0  0  0  0  0  0  0  0  0  0  0
  -22.6149   19.0802   24.1801 C   0  0  1  0  0  0  0  0  0  0  0  0
  -22.9329   17.9493   23.1790 C   0  0  0  0  0  0  0  0  0  0  0  0
  -23.4703   20.3103   23.8750 C   0  0  0  0  0  0  0  0  0  0  0  0
  -21.1241   19.4026   24.1168 C   0  0  0  0  0  0  0  0  0  0  0  0
  -24.2484   13.8954   26.9411 C   0  0  0  0  0  0  0  0  0  0  0  0
  -24.3028   15.0040   26.0197 N   0  0  0  0  0  0  0  0  0  0  0  0
  -23.4047   16.8694   23.9054 N   0  0  0  0  0  0  0  0  0  0  0  0
  -22.7994   17.9719   21.9671 O   0  0  0  0  0  0  0  0  0  0  0  0
  -24.1136   16.1972   28.4321 H   0  0  0  0  0  0  0  0  0  0  0  0
  -23.2998   18.5059   28.8539 H   0  0  0  0  0  0  0  0  0  0  0  0
  -22.5706   19.9718   26.9617 H   0  0  0  0  0  0  0  0  0  0  0  0
  -23.7936   20.7751   24.8181 H   0  0  0  0  0  0  0  0  0  0  0  0
  -22.8790   21.0331   23.2937 H   0  0  0  0  0  0  0  0  0  0  0  0
  -24.3538   20.0075   23.2937 H   0  0  0  0  0  0  0  0  0  0  0  0
  -20.7240   19.4891   25.1378 H   0  0  0  0  0  0  0  0  0  0  0  0
  -20.5972   18.5976   23.5835 H   0  0  0  0  0  0  0  0  0  0  0  0
  -20.9769   20.3533   23.5835 H   0  0  0  0  0  0  0  0  0  0  0  0
  -24.2671   14.2752   27.9733 H   0  0  0  0  0  0  0  0  0  0  0  0
  -25.1154   13.2387   26.7763 H   0  0  0  0  0  0  0  0  0  0  0  0
  -23.3213   13.3268   26.7763 H   0  0  0  0  0  0  0  0  0  0  0  0
  -24.7016   14.8271   25.0866 H   0  0  0  0  0  0  0  0  0  0  0  0
  -23.6930   15.9746   23.4846 H   0  0  0  0  0  0  0  0  0  0  0  0
  1  2  2  0
  1  4  1  0
  2  3  1  0
  3  6  2  0
  4  5  2  0
  4 12  1  0
  5  6  1  0
  5 13  1  0
  6  7  1  0
  7  8  1  0
  7  9  1  6
  7 10  1  0
  8 13  1  0
  8 14  2  0
 11 12  1  0
  1 15  1  0
  2 16  1  0
  3 17  1  0
  9 18  1  0
  9 19  1  0
  9 20  1  0
 10 21  1  0
 10 22  1  0
 10 23  1  0
 11 24  1  0
 11 25  1  0
 11 26  1  0
 12 27  1  0
 13 28  1  0
M  END
>  <filename_input>  (18) 
7EBG_J0L_docked.sdf

>  <pdb_id>  (18) 
7EBG_J0L

>  <pose_rank>  (18) 
17

>  <num_atoms_heavy>  (18) 
14

>  <num_torsions>  (18) 
1

>  <pose>  (18) 
[-23.79692345295901, 16.816694776072495, 27.580132584010986, 3.4514814633820565, -1.0382592865908666, 0.16874375619285356, -0.4317047643490179]

>  <energy>  (18) 
-157.11381177340652

>  <inter_energy>  (18) 
-131.7940541178104

>  <intra_energy>  (18) 
0.0

>  <rmsd>  (18) 
12.334

>  <sdf_rank>  (18) 
0

$$$$

     RDKit          3D

 28 29  0  0  0  0  0  0  0  0999 V2000
  -20.0263    3.4593   28.3513 C   0  0  0  0  0  0  0  0  0  0  0  0
  -18.9193    3.4368   29.2236 C   0  0  0  0  0  0  0  0  0  0  0  0
  -18.1619    4.5826   29.4514 C   0  0  0  0  0  0  0  0  0  0  0  0
  -20.4142    4.6203   27.6753 C   0  0  0  0  0  0  0  0  0  0  0  0
  -19.6286    5.7433   27.9304 C   0  0  0  0  0  0  0  0  0  0  0  0
  -18.5302    5.7384   28.7938 C   0  0  0  0  0  0  0  0  0  0  0  0
  -17.9079    7.1140   28.8384 C   0  0  1  0  0  0  0  0  0  0  0  0
  -18.8216    7.9002   27.8745 C   0  0  0  0  0  0  0  0  0  0  0  0
  -17.9638    7.7290   30.2372 C   0  0  0  0  0  0  0  0  0  0  0  0
  -16.4850    7.1036   28.2855 C   0  0  0  0  0  0  0  0  0  0  0  0
  -21.7108    3.7744   25.7101 C   0  0  0  0  0  0  0  0  0  0  0  0
  -21.4863    4.6761   26.8136 N   0  0  0  0  0  0  0  0  0  0  0  0
  -19.7829    7.0231   27.4022 N   0  0  0  0  0  0  0  0  0  0  0  0
  -18.7351    9.0761   27.5635 O   0  0  0  0  0  0  0  0  0  0  0  0
  -20.6028    2.5352   28.1977 H   0  0  0  0  0  0  0  0  0  0  0  0
  -18.6497    2.4994   29.7322 H   0  0  0  0  0  0  0  0  0  0  0  0
  -17.2986    4.5670   30.1330 H   0  0  0  0  0  0  0  0  0  0  0  0
  -17.8913    6.9316   30.9914 H   0  0  0  0  0  0  0  0  0  0  0  0
  -17.1258    8.4302   30.3632 H   0  0  0  0  0  0  0  0  0  0  0  0
  -18.9147    8.2675   30.3632 H   0  0  0  0  0  0  0  0  0  0  0  0
  -15.7677    7.0984   29.1193 H   0  0  0  0  0  0  0  0  0  0  0  0
  -16.3376    6.2044   27.6693 H   0  0  0  0  0  0  0  0  0  0  0  0
  -16.3245    8.0006   27.6693 H   0  0  0  0  0  0  0  0  0  0  0  0
  -21.9596    2.7754   26.0977 H   0  0  0  0  0  0  0  0  0  0  0  0
  -22.5436    4.1471   25.0957 H   0  0  0  0  0  0  0  0  0  0  0  0
  -20.8005    3.7131   25.0957 H   0  0  0  0  0  0  0  0  0  0  0  0
  -22.1823    5.4193   26.9689 H   0  0  0  0  0  0  0  0  0  0  0  0
  -20.5251    7.2859   26.7381 H   0  0  0  0  0  0  0  0  0  0  0  0
  1  2  2  0
  1  4  1  0
  2  3  1  0
  3  6  2  0
  4  5  2  0
  4 12  1  0
  5  6  1  0
  5 13  1  0
  6  7  1  0
  7  8  1  0
  7  9  1  1
  7 10  1  0
  8 13  1  0
  8 14  2  0
 11 12  1  0
  1 15  1  0
  2 16  1  0
  3 17  1  0
  9 18  1  0
  9 19  1  0
  9 20  1  0
 10 21  1  0
 10 22  1  0
 10 23  1  0
 11 24  1  0
 11 25  1  0
 11 26  1  0
 12 27  1  0
 13 28  1  0
M  END
>  <filename_input>  (19) 
7EBG_J0L_docked.sdf

>  <pdb_id>  (19) 
7EBG_J0L

>  <pose_rank>  (19) 
18

>  <num_atoms_heavy>  (19) 
14

>  <num_torsions>  (19) 
1

>  <pose>  (19) 
[-20.026278819561245, 3.459349872330925, 28.351342880904152, 3.1391045131820094, -2.9533822978970856, -1.6124774691577537, -0.8797767443274913]

>  <energy>  (19) 
-159.44132261394006

>  <inter_energy>  (19) 
-152.860234883495

>  <intra_energy>  (19) 
0.0

>  <rmsd>  (19) 
8.16245

>  <sdf_rank>  (19) 
0

$$$$

     RDKit          3D

 28 29  0  0  0  0  0  0  0  0999 V2000
  -20.3941    4.3403   26.3273 C   0  0  0  0  0  0  0  0  0  0  0  0
  -20.5502    3.6422   25.1128 C   0  0  0  0  0  0  0  0  0  0  0  0
  -21.4050    4.1125   24.1195 C   0  0  0  0  0  0  0  0  0  0  0  0
  -21.0847    5.5264   26.5948 C   0  0  0  0  0  0  0  0  0  0  0  0
  -21.9304    5.9610   25.5754 C   0  0  0  0  0  0  0  0  0  0  0  0
  -22.0944    5.2824   24.3651 C   0  0  0  0  0  0  0  0  0  0  0  0
  -23.0793    6.0234   23.4921 C   0  0  1  0  0  0  0  0  0  0  0  0
  -23.4449    7.2263   24.3873 C   0  0  0  0  0  0  0  0  0  0  0  0
  -22.4448    6.5098   22.1887 C   0  0  0  0  0  0  0  0  0  0  0  0
  -24.3328    5.1922   23.2310 C   0  0  0  0  0  0  0  0  0  0  0  0
  -19.8821    7.1381   28.0832 C   0  0  0  0  0  0  0  0  0  0  0  0
  -20.9592    6.2305   27.7712 N   0  0  0  0  0  0  0  0  0  0  0  0
  -22.7316    7.1005   25.5671 N   0  0  0  0  0  0  0  0  0  0  0  0
  -24.2188    8.1333   24.1317 O   0  0  0  0  0  0  0  0  0  0  0  0
  -19.7080    3.9398   27.0880 H   0  0  0  0  0  0  0  0  0  0  0  0
  -19.9879    2.7114   24.9472 H   0  0  0  0  0  0  0  0  0  0  0  0
  -21.5268    3.5696   23.1706 H   0  0  0  0  0  0  0  0  0  0  0  0
  -21.5910    7.1643   22.4184 H   0  0  0  0  0  0  0  0  0  0  0  0
  -22.0970    5.6448   21.6050 H   0  0  0  0  0  0  0  0  0  0  0  0
  -23.1898    7.0703   21.6050 H   0  0  0  0  0  0  0  0  0  0  0  0
  -24.7817    4.8945   24.1901 H   0  0  0  0  0  0  0  0  0  0  0  0
  -25.0563    5.7901   22.6574 H   0  0  0  0  0  0  0  0  0  0  0  0
  -24.0636    4.2930   22.6574 H   0  0  0  0  0  0  0  0  0  0  0  0
  -19.7799    7.2242   29.1750 H   0  0  0  0  0  0  0  0  0  0  0  0
  -18.9438    6.7542   27.6562 H   0  0  0  0  0  0  0  0  0  0  0  0
  -20.1013    8.1279   27.6562 H   0  0  0  0  0  0  0  0  0  0  0  0
  -21.6911    6.0991   28.4838 H   0  0  0  0  0  0  0  0  0  0  0  0
  -22.7869    7.7708   26.3472 H   0  0  0  0  0  0  0  0  0  0  0  0
  1  2  2  0
  1  4  1  0
  2  3  1  0
  3  6  2  0
  4  5  2  0
  4 12  1  0
  5  6  1  0
  5 13  1  0
  6  7  1  0
  7  8  1  0
  7  9  1  6
  7 10  1  0
  8 13  1  0
  8 14  2  0
 11 12  1  0
  1 15  1  0
  2 16  1  0
  3 17  1  0
  9 18  1  0
  9 19  1  0
  9 20  1  0
 10 21  1  0
 10 22  1  0
 10 23  1  0
 11 24  1  0
 11 25  1  0
 11 26  1  0
 12 27  1  0
 13 28  1  0
M  END
>  <filename_input>  (20) 
7EBG_J0L_docked.sdf

>  <pdb_id>  (20) 
7EBG_J0L

>  <pose_rank>  (20) 
19

>  <num_atoms_heavy>  (20) 
14

>  <num_torsions>  (20) 
1

>  <pose>  (20) 
[-20.394147596462734, 4.340329252522933, 26.327289446209832, -0.24250690086536242, 3.5936782075625566, 1.312584375655927, 1.428922610268479]

>  <energy>  (20) 
-151.20071384021486

>  <inter_energy>  (20) 
-129.38381896906225

>  <intra_energy>  (20) 
0.0

>  <rmsd>  (20) 
9.4376

>  <sdf_rank>  (20) 
0

$$$$

     RDKit          3D

 28 29  0  0  0  0  0  0  0  0999 V2000
  -21.5177   19.3740   16.4501 C   0  0  0  0  0  0  0  0  0  0  0  0
  -22.7673   18.7231   16.4898 C   0  0  0  0  0  0  0  0  0  0  0  0
  -23.4003   18.4585   17.7013 C   0  0  0  0  0  0  0  0  0  0  0  0
  -20.8559   19.7801   17.6130 C   0  0  0  0  0  0  0  0  0  0  0  0
  -21.5231   19.4947   18.8033 C   0  0  0  0  0  0  0  0  0  0  0  0
  -22.7628   18.8529   18.8598 C   0  0  0  0  0  0  0  0  0  0  0  0
  -23.1957   18.7013   20.2989 C   0  0  1  0  0  0  0  0  0  0  0  0
  -22.0175   19.3581   21.0490 C   0  0  0  0  0  0  0  0  0  0  0  0
  -24.4938   19.4533   20.5946 C   0  0  0  0  0  0  0  0  0  0  0  0
  -23.2924   17.2325   20.7033 C   0  0  0  0  0  0  0  0  0  0  0  0
  -18.6441   20.3016   16.5666 C   0  0  0  0  0  0  0  0  0  0  0  0
  -19.6336   20.4135   17.6104 N   0  0  0  0  0  0  0  0  0  0  0  0
  -21.1040   19.7838   20.0999 N   0  0  0  0  0  0  0  0  0  0  0  0
  -21.8856   19.4886   22.2542 O   0  0  0  0  0  0  0  0  0  0  0  0
  -21.0488   19.5686   15.4743 H   0  0  0  0  0  0  0  0  0  0  0  0
  -23.2498   18.4195   15.5490 H   0  0  0  0  0  0  0  0  0  0  0  0
  -24.3762   17.9519   17.7339 H   0  0  0  0  0  0  0  0  0  0  0  0
  -24.6315   19.5331   21.6830 H   0  0  0  0  0  0  0  0  0  0  0  0
  -24.4416   20.4611   20.1567 H   0  0  0  0  0  0  0  0  0  0  0  0
  -25.3420   18.9068   20.1567 H   0  0  0  0  0  0  0  0  0  0  0  0
  -23.2976   17.1538   21.8005 H   0  0  0  0  0  0  0  0  0  0  0  0
  -24.2209   16.8016   20.3004 H   0  0  0  0  0  0  0  0  0  0  0  0
  -22.4285   16.6836   20.3004 H   0  0  0  0  0  0  0  0  0  0  0  0
  -17.6470   20.1888   17.0171 H   0  0  0  0  0  0  0  0  0  0  0  0
  -18.8664   19.4229   15.9433 H   0  0  0  0  0  0  0  0  0  0  0  0
  -18.6645   21.2078   15.9433 H   0  0  0  0  0  0  0  0  0  0  0  0
  -19.4080   21.0140   18.4163 H   0  0  0  0  0  0  0  0  0  0  0  0
  -20.2183   20.2586   20.3260 H   0  0  0  0  0  0  0  0  0  0  0  0
  1  2  2  0
  1  4  1  0
  2  3  1  0
  3  6  2  0
  4  5  2  0
  4 12  1  0
  5  6  1  0
  5 13  1  0
  6  7  1  0
  7  8  1  0
  7  9  1  6
  7 10  1  0
  8 13  1  0
  8 14  2  0
 11 12  1  0
  1 15  1  0
  2 16  1  0
  3 17  1  0
  9 18  1  0
  9 19  1  0
  9 20  1  0
 10 21  1  0
 10 22  1  0
 10 23  1  0
 11 24  1  0
 11 25  1  0
 11 26  1  0
 12 27  1  0
 13 28  1  0
M  END
>  <filename_input>  (21) 
7EBG_J0L_docked.sdf

>  <pdb_id>  (21) 
7EBG_J0L

>  <pose_rank>  (21) 
20

>  <num_atoms_heavy>  (21) 
14

>  <num_torsions>  (21) 
1

>  <pose>  (21) 
[-21.517724777811306, 19.37402172235067, 16.450121737518504, -1.0679348480308184, 1.430947043799707, 5.109495921164026, -0.419376006771496]

>  <energy>  (21) 
-148.01754365297063

>  <inter_energy>  (21) 
-117.28731479238222

>  <intra_energy>  (21) 
0.0

>  <rmsd>  (21) 
12.8506

>  <sdf_rank>  (21) 
0

$$$$

     RDKit          3D

 28 29  0  0  0  0  0  0  0  0999 V2000
   -4.7371   16.0580   16.1262 C   0  0  0  0  0  0  0  0  0  0  0  0
   -4.9934   17.3092   15.5300 C   0  0  0  0  0  0  0  0  0  0  0  0
   -5.3273   18.4177   16.3036 C   0  0  0  0  0  0  0  0  0  0  0  0
   -4.8072   15.8674   17.5097 C   0  0  0  0  0  0  0  0  0  0  0  0
   -5.1458   17.0015   18.2463 C   0  0  0  0  0  0  0  0  0  0  0  0
   -5.4003   18.2492   17.6712 C   0  0  0  0  0  0  0  0  0  0  0  0
   -5.7369   19.2511   18.7502 C   0  0  1  0  0  0  0  0  0  0  0  0
   -5.6300   18.3851   20.0233 C   0  0  0  0  0  0  0  0  0  0  0  0
   -4.7291   20.3995   18.8077 C   0  0  0  0  0  0  0  0  0  0  0  0
   -7.1675   19.7652   18.6111 C   0  0  0  0  0  0  0  0  0  0  0  0
   -5.2768   13.4335   17.8476 C   0  0  0  0  0  0  0  0  0  0  0  0
   -4.5675   14.6589   18.1238 N   0  0  0  0  0  0  0  0  0  0  0  0
   -5.2849   17.1038   19.6285 N   0  0  0  0  0  0  0  0  0  0  0  0
   -5.8140   18.7354   21.1766 O   0  0  0  0  0  0  0  0  0  0  0  0
   -4.4737   15.2052   15.4833 H   0  0  0  0  0  0  0  0  0  0  0  0
   -4.9287   17.4115   14.4367 H   0  0  0  0  0  0  0  0  0  0  0  0
   -5.5263   19.3951   15.8400 H   0  0  0  0  0  0  0  0  0  0  0  0
   -4.5131   20.6456   19.8579 H   0  0  0  0  0  0  0  0  0  0  0  0
   -3.7995   20.0972   18.3033 H   0  0  0  0  0  0  0  0  0  0  0  0
   -5.1496   21.2820   18.3033 H   0  0  0  0  0  0  0  0  0  0  0  0
   -7.6001   19.9207   19.6105 H   0  0  0  0  0  0  0  0  0  0  0  0
   -7.1629   20.7180   18.0613 H   0  0  0  0  0  0  0  0  0  0  0  0
   -7.7704   19.0275   18.0613 H   0  0  0  0  0  0  0  0  0  0  0  0
   -5.5566   12.9501   18.7953 H   0  0  0  0  0  0  0  0  0  0  0  0
   -6.1847   13.6579   17.2684 H   0  0  0  0  0  0  0  0  0  0  0  0
   -4.6300   12.7580   17.2684 H   0  0  0  0  0  0  0  0  0  0  0  0
   -3.8239   14.6271   18.8359 H   0  0  0  0  0  0  0  0  0  0  0  0
   -5.1471   16.3183   20.2804 H   0  0  0  0  0  0  0  0  0  0  0  0
  1  2  2  0
  1  4  1  0
  2  3  1  0
  3  6  2  0
  4  5  2  0
  4 12  1  0
  5  6  1  0
  5 13  1  0
  6  7  1  0
  7  8  1  0
  7  9  1  1
  7 10  1  0
  8 13  1  0
  8 14  2  0
 11 12  1  0
  1 15  1  0
  2 16  1  0
  3 17  1  0
  9 18  1  0
  9 19  1  0
  9 20  1  0
 10 21  1  0
 10 22  1  0
 10 23  1  0
 11 24  1  0
 11 25  1  0
 11 26  1  0
 12 27  1  0
 13 28  1  0
M  END
>  <filename_input>  (22) 
7EBG_J0L_docked.sdf

>  <pdb_id>  (22) 
7EBG_J0L

>  <pose_rank>  (22) 
21

>  <num_atoms_heavy>  (22) 
14

>  <num_torsions>  (22) 
1

>  <pose>  (22) 
[-4.737066787406698, 16.05799766609364, 16.126198048744918, 0.0641449232221953, -0.9991528687050379, -2.5233793232918513, -0.9821971498744397]

>  <energy>  (22) 
-147.27583338630888

>  <inter_energy>  (22) 
-130.4933030513933

>  <intra_energy>  (22) 
0.0

>  <rmsd>  (22) 
13.7072

>  <sdf_rank>  (22) 
0

$$$$

     RDKit          3D

 28 29  0  0  0  0  0  0  0  0999 V2000
  -22.1398   16.9232   17.9005 C   0  0  0  0  0  0  0  0  0  0  0  0
  -23.2291   16.2909   18.5333 C   0  0  0  0  0  0  0  0  0  0  0  0
  -23.5604   16.5836   19.8536 C   0  0  0  0  0  0  0  0  0  0  0  0
  -21.3432   17.8642   18.5602 C   0  0  0  0  0  0  0  0  0  0  0  0
  -21.7082   18.1266   19.8798 C   0  0  0  0  0  0  0  0  0  0  0  0
  -22.7862   17.5107   20.5207 C   0  0  0  0  0  0  0  0  0  0  0  0
  -22.8991   18.0215   21.9377 C   0  0  1  0  0  0  0  0  0  0  0  0
  -21.7264   19.0228   22.0018 C   0  0  0  0  0  0  0  0  0  0  0  0
  -24.2233   18.7437   22.1883 C   0  0  0  0  0  0  0  0  0  0  0  0
  -22.6649   16.9078   22.9552 C   0  0  0  0  0  0  0  0  0  0  0  0
  -19.8578   18.3293   16.6016 C   0  0  0  0  0  0  0  0  0  0  0  0
  -20.2702   18.4967   17.9739 N   0  0  0  0  0  0  0  0  0  0  0  0
  -21.1003   19.0119   20.7671 N   0  0  0  0  0  0  0  0  0  0  0  0
  -21.3868   19.7080   22.9516 O   0  0  0  0  0  0  0  0  0  0  0  0
  -21.9093   16.6686   16.8555 H   0  0  0  0  0  0  0  0  0  0  0  0
  -23.8266   15.5548   17.9755 H   0  0  0  0  0  0  0  0  0  0  0  0
  -24.4110   16.0920   20.3484 H   0  0  0  0  0  0  0  0  0  0  0  0
  -24.3916   18.8355   23.2714 H   0  0  0  0  0  0  0  0  0  0  0  0
  -24.1854   19.7461   21.7368 H   0  0  0  0  0  0  0  0  0  0  0  0
  -25.0455   18.1691   21.7368 H   0  0  0  0  0  0  0  0  0  0  0  0
  -22.7509   17.3168   23.9727 H   0  0  0  0  0  0  0  0  0  0  0  0
  -23.4165   16.1173   22.8130 H   0  0  0  0  0  0  0  0  0  0  0  0
  -21.6586   16.4869   22.8130 H   0  0  0  0  0  0  0  0  0  0  0  0
  -18.8389   17.9158   16.5728 H   0  0  0  0  0  0  0  0  0  0  0  0
  -20.5478   17.6401   16.0929 H   0  0  0  0  0  0  0  0  0  0  0  0
  -19.8723   19.3045   16.0929 H   0  0  0  0  0  0  0  0  0  0  0  0
  -19.7191   19.1394   18.5605 H   0  0  0  0  0  0  0  0  0  0  0  0
  -20.2812   19.5904   20.5321 H   0  0  0  0  0  0  0  0  0  0  0  0
  1  2  2  0
  1  4  1  0
  2  3  1  0
  3  6  2  0
  4  5  2  0
  4 12  1  0
  5  6  1  0
  5 13  1  0
  6  7  1  0
  7  8  1  0
  7  9  1  6
  7 10  1  0
  8 13  1  0
  8 14  2  0
 11 12  1  0
  1 15  1  0
  2 16  1  0
  3 17  1  0
  9 18  1  0
  9 19  1  0
  9 20  1  0
 10 21  1  0
 10 22  1  0
 10 23  1  0
 11 24  1  0
 11 25  1  0
 11 26  1  0
 12 27  1  0
 13 28  1  0
M  END
>  <filename_input>  (23) 
7EBG_J0L_docked.sdf

>  <pdb_id>  (23) 
7EBG_J0L

>  <pose_rank>  (23) 
22

>  <num_atoms_heavy>  (23) 
14

>  <num_torsions>  (23) 
1

>  <pose>  (23) 
[-22.13984499496353, 16.9232063819387, 17.900530802328483, -0.3524272918293973, -0.18684784107007862, -0.6403769049090284, 0.07330360831327676]

>  <energy>  (23) 
-143.20185008758116

>  <inter_energy>  (23) 
-126.42504331151467

>  <intra_energy>  (23) 
0.0

>  <rmsd>  (23) 
11.5543

>  <sdf_rank>  (23) 
0

$$$$

     RDKit          3D

 28 29  0  0  0  0  0  0  0  0999 V2000
  -24.0688   13.5748   18.2480 C   0  0  0  0  0  0  0  0  0  0  0  0
  -24.3741   13.7191   19.6165 C   0  0  0  0  0  0  0  0  0  0  0  0
  -24.1464   14.9221   20.2795 C   0  0  0  0  0  0  0  0  0  0  0  0
  -23.5248   14.6202   17.4953 C   0  0  0  0  0  0  0  0  0  0  0  0
  -23.3115   15.8055   18.1974 C   0  0  0  0  0  0  0  0  0  0  0  0
  -23.6110   15.9658   19.5527 C   0  0  0  0  0  0  0  0  0  0  0  0
  -23.2565   17.3664   19.9932 C   0  0  1  0  0  0  0  0  0  0  0  0
  -22.7160   17.9772   18.6829 C   0  0  0  0  0  0  0  0  0  0  0  0
  -24.4794   18.1482   20.4742 C   0  0  0  0  0  0  0  0  0  0  0  0
  -22.1457   17.3604   21.0403 C   0  0  0  0  0  0  0  0  0  0  0  0
  -23.6660   13.4598   15.2835 C   0  0  0  0  0  0  0  0  0  0  0  0
  -23.2110   14.5120   16.1593 N   0  0  0  0  0  0  0  0  0  0  0  0
  -22.7882   16.9992   17.7057 N   0  0  0  0  0  0  0  0  0  0  0  0
  -22.2927   19.1076   18.5105 O   0  0  0  0  0  0  0  0  0  0  0  0
  -24.2646   12.6102   17.7570 H   0  0  0  0  0  0  0  0  0  0  0  0
  -24.7987   12.8681   20.1692 H   0  0  0  0  0  0  0  0  0  0  0  0
  -24.3854   15.0367   21.3470 H   0  0  0  0  0  0  0  0  0  0  0  0
  -24.4977   18.1599   21.5739 H   0  0  0  0  0  0  0  0  0  0  0  0
  -24.4262   19.1802   20.0973 H   0  0  0  0  0  0  0  0  0  0  0  0
  -25.3938   17.6668   20.0973 H   0  0  0  0  0  0  0  0  0  0  0  0
  -22.5903   17.3628   22.0465 H   0  0  0  0  0  0  0  0  0  0  0  0
  -21.5280   16.4589   20.9145 H   0  0  0  0  0  0  0  0  0  0  0  0
  -21.5184   18.2552   20.9145 H   0  0  0  0  0  0  0  0  0  0  0  0
  -24.0316   12.6145   15.8850 H   0  0  0  0  0  0  0  0  0  0  0  0
  -24.4811   13.8379   14.6488 H   0  0  0  0  0  0  0  0  0  0  0  0
  -22.8323   13.1248   14.6488 H   0  0  0  0  0  0  0  0  0  0  0  0
  -22.6042   15.2386   15.7535 H   0  0  0  0  0  0  0  0  0  0  0  0
  -22.4899   17.1379   16.7297 H   0  0  0  0  0  0  0  0  0  0  0  0
  1  2  2  0
  1  4  1  0
  2  3  1  0
  3  6  2  0
  4  5  2  0
  4 12  1  0
  5  6  1  0
  5 13  1  0
  6  7  1  0
  7  8  1  0
  7  9  1  1
  7 10  1  0
  8 13  1  0
  8 14  2  0
 11 12  1  0
  1 15  1  0
  2 16  1  0
  3 17  1  0
  9 18  1  0
  9 19  1  0
  9 20  1  0
 10 21  1  0
 10 22  1  0
 10 23  1  0
 11 24  1  0
 11 25  1  0
 11 26  1  0
 12 27  1  0
 13 28  1  0
M  END
>  <filename_input>  (24) 
7EBG_J0L_docked.sdf

>  <pdb_id>  (24) 
7EBG_J0L

>  <pose_rank>  (24) 
23

>  <num_atoms_heavy>  (24) 
14

>  <num_torsions>  (24) 
1

>  <pose>  (24) 
[-24.068815586957925, 13.574837874548331, 18.248028169221225, -1.3085767808920024, 0.15476446335482089, -0.19422066379479724, 0.28616907813406073]

>  <energy>  (24) 
-143.10620773734948

>  <inter_energy>  (24) 
-116.45970658047102

>  <intra_energy>  (24) 
0.0

>  <rmsd>  (24) 
12.2397

>  <sdf_rank>  (24) 
0

$$$$

     RDKit          3D

 28 29  0  0  0  0  0  0  0  0999 V2000
  -19.5527   19.1046   17.9095 C   0  0  0  0  0  0  0  0  0  0  0  0
  -19.5206   19.0886   19.3186 C   0  0  0  0  0  0  0  0  0  0  0  0
  -20.5528   18.5114   20.0533 C   0  0  0  0  0  0  0  0  0  0  0  0
  -20.6129   18.5503   17.1856 C   0  0  0  0  0  0  0  0  0  0  0  0
  -21.6253   17.9848   17.9593 C   0  0  0  0  0  0  0  0  0  0  0  0
  -21.6074   17.9582   19.3562 C   0  0  0  0  0  0  0  0  0  0  0  0
  -22.8521   17.2751   19.8712 C   0  0  1  0  0  0  0  0  0  0  0  0
  -23.5755   16.9140   18.5565 C   0  0  0  0  0  0  0  0  0  0  0  0
  -22.5304   16.0063   20.6616 C   0  0  0  0  0  0  0  0  0  0  0  0
  -23.7246   18.2336   20.6777 C   0  0  0  0  0  0  0  0  0  0  0  0
  -20.1312   19.5789   14.9566 C   0  0  0  0  0  0  0  0  0  0  0  0
  -20.6781   18.5529   15.8105 N   0  0  0  0  0  0  0  0  0  0  0  0
  -22.7892   17.3651   17.5102 N   0  0  0  0  0  0  0  0  0  0  0  0
  -24.6447   16.3415   18.4310 O   0  0  0  0  0  0  0  0  0  0  0  0
  -18.7181   19.5674   17.3625 H   0  0  0  0  0  0  0  0  0  0  0  0
  -18.6668   19.5391   19.8459 H   0  0  0  0  0  0  0  0  0  0  0  0
  -20.5285   18.4968   21.1530 H   0  0  0  0  0  0  0  0  0  0  0  0
  -22.5850   16.2217   21.7389 H   0  0  0  0  0  0  0  0  0  0  0  0
  -23.2580   15.2215   20.4072 H   0  0  0  0  0  0  0  0  0  0  0  0
  -21.5168   15.6630   20.4072 H   0  0  0  0  0  0  0  0  0  0  0  0
  -23.5653   18.0587   21.7519 H   0  0  0  0  0  0  0  0  0  0  0  0
  -23.4543   19.2710   20.4311 H   0  0  0  0  0  0  0  0  0  0  0  0
  -24.7827   18.0619   20.4311 H   0  0  0  0  0  0  0  0  0  0  0  0
  -19.7034   20.3815   15.5754 H   0  0  0  0  0  0  0  0  0  0  0  0
  -19.3440   19.1464   14.3216 H   0  0  0  0  0  0  0  0  0  0  0  0
  -20.9291   19.9913   14.3216 H   0  0  0  0  0  0  0  0  0  0  0  0
  -21.1543   17.7606   15.3561 H   0  0  0  0  0  0  0  0  0  0  0  0
  -23.0359   17.2553   16.5162 H   0  0  0  0  0  0  0  0  0  0  0  0
  1  2  2  0
  1  4  1  0
  2  3  1  0
  3  6  2  0
  4  5  2  0
  4 12  1  0
  5  6  1  0
  5 13  1  0
  6  7  1  0
  7  8  1  0
  7  9  1  1
  7 10  1  0
  8 13  1  0
  8 14  2  0
 11 12  1  0
  1 15  1  0
  2 16  1  0
  3 17  1  0
  9 18  1  0
  9 19  1  0
  9 20  1  0
 10 21  1  0
 10 22  1  0
 10 23  1  0
 11 24  1  0
 11 25  1  0
 11 26  1  0
 12 27  1  0
 13 28  1  0
M  END
>  <filename_input>  (25) 
7EBG_J0L_docked.sdf

>  <pdb_id>  (25) 
7EBG_J0L

>  <pose_rank>  (25) 
24

>  <num_atoms_heavy>  (25) 
14

>  <num_torsions>  (25) 
1

>  <pose>  (25) 
[-19.552730575396055, 19.104599793858522, 17.909549348084912, 1.4001855921670505, 1.8957053462945652, -2.9724247930578063, -0.5321866351404484]

>  <energy>  (25) 
-138.70435766564873

>  <inter_energy>  (25) 
-120.51893670255271

>  <intra_energy>  (25) 
0.0

>  <rmsd>  (25) 
12.315

>  <sdf_rank>  (25) 
0

$$$$

     RDKit          3D

 28 29  0  0  0  0  0  0  0  0999 V2000
  -14.7760    9.9780   21.7220 C   0  0  0  0  0  0  0  0  0  0  0  0
  -15.1110    8.6730   22.1360 C   0  0  0  0  0  0  0  0  0  0  0  0
  -15.1670    8.3410   23.4870 C   0  0  0  0  0  0  0  0  0  0  0  0
  -14.4830   10.9940   22.6370 C   0  0  0  0  0  0  0  0  0  0  0  0
  -14.5490   10.6190   23.9780 C   0  0  0  0  0  0  0  0  0  0  0  0
  -14.8820    9.3310   24.4050 C   0  0  0  0  0  0  0  0  0  0  0  0
  -14.8590    9.2700   25.9140 C   0  0  1  0  0  0  0  0  0  0  0  0
  -14.4680   10.7180   26.2780 C   0  0  0  0  0  0  0  0  0  0  0  0
  -16.2300    8.9310   26.5000 C   0  0  0  0  0  0  0  0  0  0  0  0
  -13.7800    8.3160   26.4200 C   0  0  0  0  0  0  0  0  0  0  0  0
  -14.0280   12.7430   20.9070 C   0  0  0  0  0  0  0  0  0  0  0  0
  -14.1480   12.2770   22.2670 N   0  0  0  0  0  0  0  0  0  0  0  0
  -14.3110   11.4180   25.0940 N   0  0  0  0  0  0  0  0  0  0  0  0
  -14.3140   11.1870   27.3930 O   0  0  0  0  0  0  0  0  0  0  0  0
  -14.7441   10.2042   20.6460 H   0  0  0  0  0  0  0  0  0  0  0  0
  -15.3316    7.9050   21.3801 H   0  0  0  0  0  0  0  0  0  0  0  0
  -15.4297    7.3234   23.8117 H   0  0  0  0  0  0  0  0  0  0  0  0
  -16.1729    8.9451   27.5984 H   0  0  0  0  0  0  0  0  0  0  0  0
  -16.9673    9.6739   26.1616 H   0  0  0  0  0  0  0  0  0  0  0  0
  -16.5361    7.9301   26.1616 H   0  0  0  0  0  0  0  0  0  0  0  0
  -13.7784    8.3146   27.5200 H   0  0  0  0  0  0  0  0  0  0  0  0
  -13.9870    7.3001   26.0523 H   0  0  0  0  0  0  0  0  0  0  0  0
  -12.7971    8.6459   26.0523 H   0  0  0  0  0  0  0  0  0  0  0  0
  -13.7537   13.8083   20.9073 H   0  0  0  0  0  0  0  0  0  0  0  0
  -13.2496   12.1641   20.3884 H   0  0  0  0  0  0  0  0  0  0  0  0
  -14.9892   12.6120   20.3884 H   0  0  0  0  0  0  0  0  0  0  0  0
  -13.9691   12.9570   23.0196 H   0  0  0  0  0  0  0  0  0  0  0  0
  -14.0490   12.4129   25.0441 H   0  0  0  0  0  0  0  0  0  0  0  0
  1  2  2  0
  1  4  1  0
  2  3  1  0
  3  6  2  0
  4  5  2  0
  4 12  1  0
  5  6  1  0
  5 13  1  0
  6  7  1  0
  7  8  1  0
  7  9  1  1
  7 10  1  0
  8 13  1  0
  8 14  2  0
 11 12  1  0
  1 15  1  0
  2 16  1  0
  3 17  1  0
  9 18  1  0
  9 19  1  0
  9 20  1  0
 10 21  1  0
 10 22  1  0
 10 23  1  0
 11 24  1  0
 11 25  1  0
 11 26  1  0
 12 27  1  0
 13 28  1  0
M  END
>  <filename_input>  (26) 
7EBG_J0L_docked.sdf

>  <pdb_id>  (26) 
7EBG_J0L

>  <pose_rank>  (26) 
25

>  <num_atoms_heavy>  (26) 
14

>  <num_torsions>  (26) 
1

>  <pose>  (26) 
[-14.776, 9.978, 21.722, 1e-06, 1e-06, 1e-06, 0.0]

>  <energy>  (26) 
-902.4450158547827

>  <inter_energy>  (26) 
-895.7718081740094

>  <intra_energy>  (26) 
0.0

>  <rmsd>  (26) 
0.0

>  <sdf_rank>  (26) 
0

$$$$
