
     RDKit          3D

 12 11  0  0  0  0  0  0  0  0999 V2000
  -57.2341  -26.8729  -42.5698 C   0  0  0  0  0  0  0  0  0  0  0  0
  -57.9787  -25.9756  -42.9420 O   0  0  0  0  0  0  0  0  0  0  0  0
  -56.0175  -26.6839  -42.4978 O   0  0  0  0  0  0  0  0  0  0  0  0
  -57.8233  -28.1913  -42.0533 C   0  0  0  0  0  0  0  0  0  0  0  0
  -58.5229  -27.8621  -40.8016 C   0  0  0  0  0  0  0  0  0  0  0  0
  -59.6221  -28.7859  -40.3397 C   0  0  0  0  0  0  0  0  0  0  0  0
  -60.8310  -28.4178  -40.4859 O   0  0  0  0  0  0  0  0  0  0  0  0
  -59.1861  -29.8095  -39.7254 O   0  0  0  0  0  0  0  0  0  0  0  0
  -58.5292  -28.6076  -42.7872 H   0  0  0  0  0  0  0  0  0  0  0  0
  -57.0394  -28.9453  -41.8896 H   0  0  0  0  0  0  0  0  0  0  0  0
  -57.7667  -27.8291  -40.0034 H   0  0  0  0  0  0  0  0  0  0  0  0
  -59.0345  -26.9120  -41.0149 H   0  0  0  0  0  0  0  0  0  0  0  0
  1  2  2  0
  1  3  1  0
  1  4  1  0
  4  5  1  0
  5  6  1  0
  6  7  2  0
  6  8  1  0
  4  9  1  0
  4 10  1  0
  5 11  1  0
  5 12  1  0
M  CHG  2   3  -1   8  -1
M  END
>  <filename_input>  (1) 
7ECR_SIN_docked.sdf

>  <pdb_id>  (1) 
7ECR_SIN

>  <pose_rank>  (1) 
0

>  <num_atoms_heavy>  (1) 
8

>  <num_torsions>  (1) 
3

>  <pose>  (1) 
[-57.823332568209466, -28.191288853626936, -42.05334058987379, -0.6928207865845372, -0.7617773954837391, 0.9606438969190751, 3.4407411943994624, -0.18333460509703967, -1.1680059636657871]

>  <energy>  (1) 
-423.28711313425356

>  <inter_energy>  (1) 
-420.25721662234855

>  <intra_energy>  (1) 
0.0

>  <rmsd>  (1) 
0.838907

>  <sdf_rank>  (1) 
0

$$$$

     RDKit          3D

 12 11  0  0  0  0  0  0  0  0999 V2000
  -59.3225  -29.0909  -39.9702 C   0  0  0  0  0  0  0  0  0  0  0  0
  -59.1259  -29.8642  -39.0420 O   0  0  0  0  0  0  0  0  0  0  0  0
  -60.1844  -28.2134  -39.8786 O   0  0  0  0  0  0  0  0  0  0  0  0
  -58.4008  -29.1163  -41.1956 C   0  0  0  0  0  0  0  0  0  0  0  0
  -57.7094  -27.8178  -41.2122 C   0  0  0  0  0  0  0  0  0  0  0  0
  -57.3665  -27.2143  -42.5514 C   0  0  0  0  0  0  0  0  0  0  0  0
  -57.3337  -25.9473  -42.6600 O   0  0  0  0  0  0  0  0  0  0  0  0
  -57.2661  -28.0804  -43.4761 O   0  0  0  0  0  0  0  0  0  0  0  0
  -57.6722  -29.9358  -41.1085 H   0  0  0  0  0  0  0  0  0  0  0  0
  -58.9691  -29.2812  -42.1229 H   0  0  0  0  0  0  0  0  0  0  0  0
  -58.3524  -27.0982  -40.6844 H   0  0  0  0  0  0  0  0  0  0  0  0
  -56.7344  -28.0200  -40.7447 H   0  0  0  0  0  0  0  0  0  0  0  0
  1  2  2  0
  1  3  1  0
  1  4  1  0
  4  5  1  0
  5  6  1  0
  6  7  2  0
  6  8  1  0
  4  9  1  0
  4 10  1  0
  5 11  1  0
  5 12  1  0
M  CHG  2   3  -1   8  -1
M  END
>  <filename_input>  (2) 
7ECR_SIN_docked.sdf

>  <pdb_id>  (2) 
7ECR_SIN

>  <pose_rank>  (2) 
1

>  <num_atoms_heavy>  (2) 
8

>  <num_torsions>  (2) 
3

>  <pose>  (2) 
[-58.40079415654434, -29.11631593442467, -41.195593108248985, -1.5609199271481828, -1.538212590859246, -2.5163493591748183, 2.5925823717300394, 0.8021753750675511, 3.26259495774339]

>  <energy>  (2) 
-440.90350821512624

>  <inter_energy>  (2) 
-416.36003977331643

>  <intra_energy>  (2) 
0.0

>  <rmsd>  (2) 
0.699179

>  <sdf_rank>  (2) 
0

$$$$

     RDKit          3D

 12 11  0  0  0  0  0  0  0  0999 V2000
  -59.1907  -30.6142  -41.9359 C   0  0  0  0  0  0  0  0  0  0  0  0
  -59.9181  -30.6637  -42.9190 O   0  0  0  0  0  0  0  0  0  0  0  0
  -59.4246  -31.3190  -40.9511 O   0  0  0  0  0  0  0  0  0  0  0  0
  -57.9025  -29.7831  -41.9782 C   0  0  0  0  0  0  0  0  0  0  0  0
  -58.2859  -28.4174  -41.5874 C   0  0  0  0  0  0  0  0  0  0  0  0
  -57.6912  -27.2659  -42.3592 C   0  0  0  0  0  0  0  0  0  0  0  0
  -57.1366  -27.5030  -43.4792 O   0  0  0  0  0  0  0  0  0  0  0  0
  -57.7110  -26.1715  -41.7134 O   0  0  0  0  0  0  0  0  0  0  0  0
  -57.1628  -30.1888  -41.2724 H   0  0  0  0  0  0  0  0  0  0  0  0
  -57.4446  -29.8016  -42.9782 H   0  0  0  0  0  0  0  0  0  0  0  0
  -59.3793  -28.3449  -41.6827 H   0  0  0  0  0  0  0  0  0  0  0  0
  -57.8860  -28.3009  -40.5693 H   0  0  0  0  0  0  0  0  0  0  0  0
  1  2  2  0
  1  3  1  0
  1  4  1  0
  4  5  1  0
  5  6  1  0
  6  7  2  0
  6  8  1  0
  4  9  1  0
  4 10  1  0
  5 11  1  0
  5 12  1  0
M  CHG  2   3  -1   8  -1
M  END
>  <filename_input>  (3) 
7ECR_SIN_docked.sdf

>  <pdb_id>  (3) 
7ECR_SIN

>  <pose_rank>  (3) 
2

>  <num_atoms_heavy>  (3) 
8

>  <num_torsions>  (3) 
3

>  <pose>  (3) 
[-57.90250618083404, -29.783053441858055, -41.97822227309248, -0.14182558553066474, 1.3016569499237407, 2.7936644970034665, -6.445712274654784, 0.9574090211049733, -5.3573965188080654]

>  <energy>  (3) 
-341.8196513974697

>  <inter_energy>  (3) 
-342.9478730234239

>  <intra_energy>  (3) 
0.0

>  <rmsd>  (3) 
2.03129

>  <sdf_rank>  (3) 
0

$$$$

     RDKit          3D

 12 11  0  0  0  0  0  0  0  0999 V2000
  -57.4110  -26.8852  -42.3336 C   0  0  0  0  0  0  0  0  0  0  0  0
  -56.5975  -27.1867  -43.1971 O   0  0  0  0  0  0  0  0  0  0  0  0
  -57.4676  -25.7295  -41.9067 O   0  0  0  0  0  0  0  0  0  0  0  0
  -58.4608  -27.9075  -41.8811 C   0  0  0  0  0  0  0  0  0  0  0  0
  -57.8762  -28.6082  -40.7271 C   0  0  0  0  0  0  0  0  0  0  0  0
  -58.6135  -29.8028  -40.1752 C   0  0  0  0  0  0  0  0  0  0  0  0
  -58.2955  -30.9622  -40.5908 O   0  0  0  0  0  0  0  0  0  0  0  0
  -59.5847  -29.4826  -39.4205 O   0  0  0  0  0  0  0  0  0  0  0  0
  -59.3896  -27.3965  -41.5872 H   0  0  0  0  0  0  0  0  0  0  0  0
  -58.7151  -28.6079  -42.6903 H   0  0  0  0  0  0  0  0  0  0  0  0
  -56.8748  -28.9516  -41.0261 H   0  0  0  0  0  0  0  0  0  0  0  0
  -57.9046  -27.8683  -39.9136 H   0  0  0  0  0  0  0  0  0  0  0  0
  1  2  2  0
  1  3  1  0
  1  4  1  0
  4  5  1  0
  5  6  1  0
  6  7  2  0
  6  8  1  0
  4  9  1  0
  4 10  1  0
  5 11  1  0
  5 12  1  0
M  CHG  2   3  -1   8  -1
M  END
>  <filename_input>  (4) 
7ECR_SIN_docked.sdf

>  <pdb_id>  (4) 
7ECR_SIN

>  <pose_rank>  (4) 
3

>  <num_atoms_heavy>  (4) 
8

>  <num_torsions>  (4) 
3

>  <pose>  (4) 
[-58.46084877990783, -27.907479410396373, -41.881133215681345, 4.450886112379202, 1.7575169833325879, 4.519971180541672, -0.0712491422415512, -12.208546518734279, -3.990860023685433]

>  <energy>  (4) 
-404.4116261853839

>  <inter_energy>  (4) 
-394.73005096254457

>  <intra_energy>  (4) 
0.0

>  <rmsd>  (4) 
1.17575

>  <sdf_rank>  (4) 
0

$$$$

     RDKit          3D

 12 11  0  0  0  0  0  0  0  0999 V2000
  -58.2446  -28.2155  -42.6188 C   0  0  0  0  0  0  0  0  0  0  0  0
  -59.2016  -28.7279  -43.1844 O   0  0  0  0  0  0  0  0  0  0  0  0
  -57.2361  -27.9053  -43.2573 O   0  0  0  0  0  0  0  0  0  0  0  0
  -58.3496  -27.8243  -41.1397 C   0  0  0  0  0  0  0  0  0  0  0  0
  -58.7006  -29.0564  -40.4163 C   0  0  0  0  0  0  0  0  0  0  0  0
  -60.1124  -29.2007  -39.9053 C   0  0  0  0  0  0  0  0  0  0  0  0
  -60.4712  -30.3155  -39.4086 O   0  0  0  0  0  0  0  0  0  0  0  0
  -60.8372  -28.1866  -40.1536 O   0  0  0  0  0  0  0  0  0  0  0  0
  -57.3876  -27.4309  -40.7795 H   0  0  0  0  0  0  0  0  0  0  0  0
  -59.1031  -27.0381  -40.9842 H   0  0  0  0  0  0  0  0  0  0  0  0
  -58.5113  -29.9000  -41.0964 H   0  0  0  0  0  0  0  0  0  0  0  0
  -58.0815  -29.0269  -39.5076 H   0  0  0  0  0  0  0  0  0  0  0  0
  1  2  2  0
  1  3  1  0
  1  4  1  0
  4  5  1  0
  5  6  1  0
  6  7  2  0
  6  8  1  0
  4  9  1  0
  4 10  1  0
  5 11  1  0
  5 12  1  0
M  CHG  2   3  -1   8  -1
M  END
>  <filename_input>  (5) 
7ECR_SIN_docked.sdf

>  <pdb_id>  (5) 
7ECR_SIN

>  <pose_rank>  (5) 
4

>  <num_atoms_heavy>  (5) 
8

>  <num_torsions>  (5) 
3

>  <pose>  (5) 
[-58.34960364214872, -27.824279016933197, -41.13968613143341, -0.9439364056294169, -2.15729628204712, 3.6054759260979745, -0.6799201501725723, 20.359827129703064, 9.947454001084607]

>  <energy>  (5) 
-354.2678129343244

>  <inter_energy>  (5) 
-350.3651784978679

>  <intra_energy>  (5) 
0.8221853118318663

>  <rmsd>  (5) 
1.48172

>  <sdf_rank>  (5) 
0

$$$$

     RDKit          3D

 12 11  0  0  0  0  0  0  0  0999 V2000
  -58.7197  -31.2220  -42.3322 C   0  0  0  0  0  0  0  0  0  0  0  0
  -59.0281  -31.7405  -43.3972 O   0  0  0  0  0  0  0  0  0  0  0  0
  -58.2399  -31.9034  -41.4229 O   0  0  0  0  0  0  0  0  0  0  0  0
  -58.7935  -29.6985  -42.1731 C   0  0  0  0  0  0  0  0  0  0  0  0
  -58.6153  -29.4297  -40.7376 C   0  0  0  0  0  0  0  0  0  0  0  0
  -59.8400  -29.1014  -39.9205 C   0  0  0  0  0  0  0  0  0  0  0  0
  -60.7845  -28.4505  -40.4704 O   0  0  0  0  0  0  0  0  0  0  0  0
  -59.7224  -29.4237  -38.6968 O   0  0  0  0  0  0  0  0  0  0  0  0
  -57.9946  -29.2147  -42.7542 H   0  0  0  0  0  0  0  0  0  0  0  0
  -59.7513  -29.3017  -42.5407 H   0  0  0  0  0  0  0  0  0  0  0  0
  -58.1552  -30.3241  -40.2922 H   0  0  0  0  0  0  0  0  0  0  0  0
  -58.0087  -28.5127  -40.7034 H   0  0  0  0  0  0  0  0  0  0  0  0
  1  2  2  0
  1  3  1  0
  1  4  1  0
  4  5  1  0
  5  6  1  0
  6  7  2  0
  6  8  1  0
  4  9  1  0
  4 10  1  0
  5 11  1  0
  5 12  1  0
M  CHG  2   3  -1   8  -1
M  END
>  <filename_input>  (6) 
7ECR_SIN_docked.sdf

>  <pdb_id>  (6) 
7ECR_SIN

>  <pose_rank>  (6) 
5

>  <num_atoms_heavy>  (6) 
8

>  <num_torsions>  (6) 
3

>  <pose>  (6) 
[-58.793464063745574, -29.69847961262185, -42.17308712964933, -0.7404312107230374, 0.09542687544105916, -1.7978896393774402, -11.291414067805343, -4.706019010886802, -12.500509016495057]

>  <energy>  (6) 
-336.37086322853776

>  <inter_energy>  (6) 
-335.8545129107315

>  <intra_energy>  (6) 
0.04966747382264891

>  <rmsd>  (6) 
3.22204

>  <sdf_rank>  (6) 
0

$$$$

     RDKit          3D

 12 11  0  0  0  0  0  0  0  0999 V2000
  -59.6767  -30.2041  -43.5984 C   0  0  0  0  0  0  0  0  0  0  0  0
  -59.6238  -30.6227  -44.7474 O   0  0  0  0  0  0  0  0  0  0  0  0
  -59.3119  -29.0555  -43.3360 O   0  0  0  0  0  0  0  0  0  0  0  0
  -60.3314  -31.0551  -42.5034 C   0  0  0  0  0  0  0  0  0  0  0  0
  -59.3373  -31.1654  -41.4243 C   0  0  0  0  0  0  0  0  0  0  0  0
  -59.5323  -30.3183  -40.1916 C   0  0  0  0  0  0  0  0  0  0  0  0
  -60.4952  -30.5938  -39.4073 O   0  0  0  0  0  0  0  0  0  0  0  0
  -58.7515  -29.3165  -40.1479 O   0  0  0  0  0  0  0  0  0  0  0  0
  -61.2440  -30.5650  -42.1333 H   0  0  0  0  0  0  0  0  0  0  0  0
  -60.6232  -32.0450  -42.8840 H   0  0  0  0  0  0  0  0  0  0  0  0
  -59.3223  -32.2163  -41.0998 H   0  0  0  0  0  0  0  0  0  0  0  0
  -58.4049  -30.7896  -41.8708 H   0  0  0  0  0  0  0  0  0  0  0  0
  1  2  2  0
  1  3  1  0
  1  4  1  0
  4  5  1  0
  5  6  1  0
  6  7  2  0
  6  8  1  0
  4  9  1  0
  4 10  1  0
  5 11  1  0
  5 12  1  0
M  CHG  2   3  -1   8  -1
M  END
>  <filename_input>  (7) 
7ECR_SIN_docked.sdf

>  <pdb_id>  (7) 
7ECR_SIN

>  <pose_rank>  (7) 
6

>  <num_atoms_heavy>  (7) 
8

>  <num_torsions>  (7) 
3

>  <pose>  (7) 
[-60.33136260139175, -31.055101482191155, -42.50336826562422, 1.7680645131727153, -4.371347015094178, -3.2372799388050213, 0.5254469660814836, -1.1145321948814002, -4.411697729572334]

>  <energy>  (7) 
-230.12122555385486

>  <inter_energy>  (7) 
-227.50437319250395

>  <intra_energy>  (7) 
1.950342961601347

>  <rmsd>  (7) 
3.12101

>  <sdf_rank>  (7) 
0

$$$$

     RDKit          3D

 12 11  0  0  0  0  0  0  0  0999 V2000
  -58.5185  -29.0523  -40.2136 C   0  0  0  0  0  0  0  0  0  0  0  0
  -58.5860  -27.9106  -39.7777 O   0  0  0  0  0  0  0  0  0  0  0  0
  -58.0026  -29.9474  -39.5399 O   0  0  0  0  0  0  0  0  0  0  0  0
  -59.2038  -29.4071  -41.5389 C   0  0  0  0  0  0  0  0  0  0  0  0
  -58.8828  -28.3133  -42.4691 C   0  0  0  0  0  0  0  0  0  0  0  0
  -58.5742  -28.6690  -43.9020 C   0  0  0  0  0  0  0  0  0  0  0  0
  -57.4209  -28.3960  -44.3642 O   0  0  0  0  0  0  0  0  0  0  0  0
  -59.5858  -29.1067  -44.5347 O   0  0  0  0  0  0  0  0  0  0  0  0
  -58.8178  -30.3622  -41.9247 H   0  0  0  0  0  0  0  0  0  0  0  0
  -60.2905  -29.5211  -41.4118 H   0  0  0  0  0  0  0  0  0  0  0  0
  -59.7448  -27.6301  -42.4802 H   0  0  0  0  0  0  0  0  0  0  0  0
  -57.9434  -27.8914  -42.0826 H   0  0  0  0  0  0  0  0  0  0  0  0
  1  2  2  0
  1  3  1  0
  1  4  1  0
  4  5  1  0
  5  6  1  0
  6  7  2  0
  6  8  1  0
  4  9  1  0
  4 10  1  0
  5 11  1  0
  5 12  1  0
M  CHG  2   3  -1   8  -1
M  END
>  <filename_input>  (8) 
7ECR_SIN_docked.sdf

>  <pdb_id>  (8) 
7ECR_SIN

>  <pose_rank>  (8) 
7

>  <num_atoms_heavy>  (8) 
8

>  <num_torsions>  (8) 
3

>  <pose>  (8) 
[-59.20381341310853, -29.40711981927072, -41.53888040829895, -2.4582431778660334, -1.4582981645719477, -1.0249118075842458, 5.376420010909511, -0.46849177192844693, 4.881694317988394]

>  <energy>  (8) 
-250.51542761149364

>  <inter_energy>  (8) 
-241.35548199868384

>  <intra_energy>  (8) 
0.0

>  <rmsd>  (8) 
2.07011

>  <sdf_rank>  (8) 
0

$$$$

     RDKit          3D

 12 11  0  0  0  0  0  0  0  0999 V2000
  -59.4109  -29.5707  -41.7921 C   0  0  0  0  0  0  0  0  0  0  0  0
  -59.4746  -29.4258  -43.0058 O   0  0  0  0  0  0  0  0  0  0  0  0
  -60.3737  -30.0211  -41.1666 O   0  0  0  0  0  0  0  0  0  0  0  0
  -58.0844  -29.3290  -41.0613 C   0  0  0  0  0  0  0  0  0  0  0  0
  -57.2466  -28.5487  -41.9853 C   0  0  0  0  0  0  0  0  0  0  0  0
  -57.6844  -27.1463  -42.3269 C   0  0  0  0  0  0  0  0  0  0  0  0
  -58.7352  -26.6840  -41.7789 O   0  0  0  0  0  0  0  0  0  0  0  0
  -56.9885  -26.6192  -43.2505 O   0  0  0  0  0  0  0  0  0  0  0  0
  -58.2572  -28.7644  -40.1332 H   0  0  0  0  0  0  0  0  0  0  0  0
  -57.6005  -30.2766  -40.7823 H   0  0  0  0  0  0  0  0  0  0  0  0
  -56.2442  -28.4785  -41.5376 H   0  0  0  0  0  0  0  0  0  0  0  0
  -57.3072  -29.0949  -42.9383 H   0  0  0  0  0  0  0  0  0  0  0  0
  1  2  2  0
  1  3  1  0
  1  4  1  0
  4  5  1  0
  5  6  1  0
  6  7  2  0
  6  8  1  0
  4  9  1  0
  4 10  1  0
  5 11  1  0
  5 12  1  0
M  CHG  2   3  -1   8  -1
M  END
>  <filename_input>  (9) 
7ECR_SIN_docked.sdf

>  <pdb_id>  (9) 
7ECR_SIN

>  <pose_rank>  (9) 
8

>  <num_atoms_heavy>  (9) 
8

>  <num_torsions>  (9) 
3

>  <pose>  (9) 
[-58.084442270628294, -29.32895048188207, -41.06128714056583, 1.3428723018995126, -3.400025126475748, -1.7217808914187074, -1.3764341472343744, -1.7646429117677533, -5.596841886978296]

>  <energy>  (9) 
-325.3801632502723

>  <inter_energy>  (9) 
-346.6300812669113

>  <intra_energy>  (9) 
26.57394832341787

>  <rmsd>  (9) 
1.91154

>  <sdf_rank>  (9) 
0

$$$$

     RDKit          3D

 12 11  0  0  0  0  0  0  0  0999 V2000
  -59.2460  -29.5599  -40.8552 C   0  0  0  0  0  0  0  0  0  0  0  0
  -60.3454  -29.0539  -40.6721 O   0  0  0  0  0  0  0  0  0  0  0  0
  -58.9566  -30.6328  -40.3201 O   0  0  0  0  0  0  0  0  0  0  0  0
  -58.2753  -28.9361  -41.8654 C   0  0  0  0  0  0  0  0  0  0  0  0
  -57.8653  -27.6445  -41.2923 C   0  0  0  0  0  0  0  0  0  0  0  0
  -57.6985  -26.4742  -42.2291 C   0  0  0  0  0  0  0  0  0  0  0  0
  -58.6604  -26.1705  -43.0043 O   0  0  0  0  0  0  0  0  0  0  0  0
  -56.5241  -25.9888  -42.2143 O   0  0  0  0  0  0  0  0  0  0  0  0
  -57.3996  -29.5869  -42.0055 H   0  0  0  0  0  0  0  0  0  0  0  0
  -58.7477  -28.8071  -42.8503 H   0  0  0  0  0  0  0  0  0  0  0  0
  -58.6239  -27.3617  -40.5476 H   0  0  0  0  0  0  0  0  0  0  0  0
  -56.8544  -27.8274  -40.8990 H   0  0  0  0  0  0  0  0  0  0  0  0
  1  2  2  0
  1  3  1  0
  1  4  1  0
  4  5  1  0
  5  6  1  0
  6  7  2  0
  6  8  1  0
  4  9  1  0
  4 10  1  0
  5 11  1  0
  5 12  1  0
M  CHG  2   3  -1   8  -1
M  END
>  <filename_input>  (10) 
7ECR_SIN_docked.sdf

>  <pdb_id>  (10) 
7ECR_SIN

>  <pose_rank>  (10) 
9

>  <num_atoms_heavy>  (10) 
8

>  <num_torsions>  (10) 
3

>  <pose>  (10) 
[-58.27525599870059, -28.936059085358906, -41.86538838511369, 1.277475547472735, 1.0876669267253176, 2.772025629949108, -6.775269738199566, 0.8923131532025123, -4.700284057802889]

>  <energy>  (10) 
-347.80864789264393

>  <inter_energy>  (10) 
-343.7515484325718

>  <intra_energy>  (10) 
0.0

>  <rmsd>  (10) 
1.37872

>  <sdf_rank>  (10) 
0

$$$$

     RDKit          3D

 12 11  0  0  0  0  0  0  0  0999 V2000
  -58.9571  -27.4504  -40.4161 C   0  0  0  0  0  0  0  0  0  0  0  0
  -57.9099  -26.8166  -40.4137 O   0  0  0  0  0  0  0  0  0  0  0  0
  -59.8339  -27.2088  -39.5830 O   0  0  0  0  0  0  0  0  0  0  0  0
  -59.2443  -28.4492  -41.5438 C   0  0  0  0  0  0  0  0  0  0  0  0
  -60.2041  -29.4194  -40.9940 C   0  0  0  0  0  0  0  0  0  0  0  0
  -59.7796  -30.2380  -39.8004 C   0  0  0  0  0  0  0  0  0  0  0  0
  -60.5645  -31.1413  -39.3690 O   0  0  0  0  0  0  0  0  0  0  0  0
  -58.6974  -29.8276  -39.2754 O   0  0  0  0  0  0  0  0  0  0  0  0
  -59.6794  -27.9312  -42.4112 H   0  0  0  0  0  0  0  0  0  0  0  0
  -58.3238  -28.9444  -41.8866 H   0  0  0  0  0  0  0  0  0  0  0  0
  -61.1047  -28.8590  -40.7025 H   0  0  0  0  0  0  0  0  0  0  0  0
  -60.3398  -30.1572  -41.7985 H   0  0  0  0  0  0  0  0  0  0  0  0
  1  2  2  0
  1  3  1  0
  1  4  1  0
  4  5  1  0
  5  6  1  0
  6  7  2  0
  6  8  1  0
  4  9  1  0
  4 10  1  0
  5 11  1  0
  5 12  1  0
M  CHG  2   3  -1   8  -1
M  END
>  <filename_input>  (11) 
7ECR_SIN_docked.sdf

>  <pdb_id>  (11) 
7ECR_SIN

>  <pose_rank>  (11) 
10

>  <num_atoms_heavy>  (11) 
8

>  <num_torsions>  (11) 
3

>  <pose>  (11) 
[-59.24429647487147, -28.449241694577292, -41.54377964563395, 1.1654524348636661, -7.434240166802528, 2.1054154798323874, 7.322871701865139, 2.2987920177635077, 3.8759143132545826]

>  <energy>  (11) 
-261.94076510160494

>  <inter_energy>  (11) 
-290.29687003412334

>  <intra_energy>  (11) 
45.201766240630306

>  <rmsd>  (11) 
2.57428

>  <sdf_rank>  (11) 
0

$$$$

     RDKit          3D

 12 11  0  0  0  0  0  0  0  0999 V2000
  -58.5776  -32.9136  -49.0761 C   0  0  0  0  0  0  0  0  0  0  0  0
  -58.1279  -34.0444  -49.2075 O   0  0  0  0  0  0  0  0  0  0  0  0
  -58.8375  -32.2270  -50.0672 O   0  0  0  0  0  0  0  0  0  0  0  0
  -58.9562  -32.3979  -47.6823 C   0  0  0  0  0  0  0  0  0  0  0  0
  -59.5587  -33.5390  -46.9755 C   0  0  0  0  0  0  0  0  0  0  0  0
  -59.0042  -33.9074  -45.6220 C   0  0  0  0  0  0  0  0  0  0  0  0
  -58.0083  -33.2563  -45.1722 O   0  0  0  0  0  0  0  0  0  0  0  0
  -59.5461  -34.9457  -45.1285 O   0  0  0  0  0  0  0  0  0  0  0  0
  -58.0604  -32.0478  -47.1484 H   0  0  0  0  0  0  0  0  0  0  0  0
  -59.6531  -31.5491  -47.7432 H   0  0  0  0  0  0  0  0  0  0  0  0
  -60.6268  -33.3131  -46.8408 H   0  0  0  0  0  0  0  0  0  0  0  0
  -59.3302  -34.4071  -47.6112 H   0  0  0  0  0  0  0  0  0  0  0  0
  1  2  2  0
  1  3  1  0
  1  4  1  0
  4  5  1  0
  5  6  1  0
  6  7  2  0
  6  8  1  0
  4  9  1  0
  4 10  1  0
  5 11  1  0
  5 12  1  0
M  CHG  2   3  -1   8  -1
M  END
>  <filename_input>  (12) 
7ECR_SIN_docked.sdf

>  <pdb_id>  (12) 
7ECR_SIN

>  <pose_rank>  (12) 
11

>  <num_atoms_heavy>  (12) 
8

>  <num_torsions>  (12) 
3

>  <pose>  (12) 
[-58.95615601936283, -32.39789103451221, -47.682297526127996, 10.294972848891822, 13.124436643330919, -28.874768344892633, -8.636215486113972, 11.86629735021208, 13.171790647185404]

>  <energy>  (12) 
-100.44894670111125

>  <inter_energy>  (12) 
-101.27975475082211

>  <intra_energy>  (12) 
0.0

>  <rmsd>  (12) 
8.2073

>  <sdf_rank>  (12) 
0

$$$$

     RDKit          3D

 12 11  0  0  0  0  0  0  0  0999 V2000
  -58.1512  -27.0968  -42.1097 C   0  0  0  0  0  0  0  0  0  0  0  0
  -57.0709  -27.1512  -41.5369 O   0  0  0  0  0  0  0  0  0  0  0  0
  -58.4460  -26.1128  -42.7922 O   0  0  0  0  0  0  0  0  0  0  0  0
  -59.0846  -28.3136  -42.0999 C   0  0  0  0  0  0  0  0  0  0  0  0
  -58.5459  -29.2321  -41.0846 C   0  0  0  0  0  0  0  0  0  0  0  0
  -59.0596  -30.6502  -41.0676 C   0  0  0  0  0  0  0  0  0  0  0  0
  -58.2423  -31.5985  -41.2931 O   0  0  0  0  0  0  0  0  0  0  0  0
  -60.3226  -30.7201  -40.9441 O   0  0  0  0  0  0  0  0  0  0  0  0
  -60.1074  -28.0082  -41.8343 H   0  0  0  0  0  0  0  0  0  0  0  0
  -59.1326  -28.7916  -43.0895 H   0  0  0  0  0  0  0  0  0  0  0  0
  -57.4570  -29.2806  -41.2324 H   0  0  0  0  0  0  0  0  0  0  0  0
  -58.8797  -28.8078  -40.1261 H   0  0  0  0  0  0  0  0  0  0  0  0
  1  2  2  0
  1  3  1  0
  1  4  1  0
  4  5  1  0
  5  6  1  0
  6  7  2  0
  6  8  1  0
  4  9  1  0
  4 10  1  0
  5 11  1  0
  5 12  1  0
M  CHG  2   3  -1   8  -1
M  END
>  <filename_input>  (13) 
7ECR_SIN_docked.sdf

>  <pdb_id>  (13) 
7ECR_SIN

>  <pose_rank>  (13) 
12

>  <num_atoms_heavy>  (13) 
8

>  <num_torsions>  (13) 
3

>  <pose>  (13) 
[-59.08458971808281, -28.31364273218025, -42.09989853498523, 0.4487352827650437, -0.07488699210200739, 0.3618093749391574, -1.4589603226645396, 19.314792127844694, 8.981768687633904]

>  <energy>  (13) 
-317.9871006307972

>  <inter_energy>  (13) 
-306.40054685786043

>  <intra_energy>  (13) 
0.0

>  <rmsd>  (13) 
1.87491

>  <sdf_rank>  (13) 
0

$$$$

     RDKit          3D

 12 11  0  0  0  0  0  0  0  0999 V2000
  -59.8386  -30.8529  -45.4598 C   0  0  0  0  0  0  0  0  0  0  0  0
  -59.5369  -29.6750  -45.5998 O   0  0  0  0  0  0  0  0  0  0  0  0
  -59.5462  -31.4523  -44.4223 O   0  0  0  0  0  0  0  0  0  0  0  0
  -60.7085  -31.5504  -46.5128 C   0  0  0  0  0  0  0  0  0  0  0  0
  -59.9973  -32.7864  -46.8748 C   0  0  0  0  0  0  0  0  0  0  0  0
  -60.7056  -33.7771  -47.7648 C   0  0  0  0  0  0  0  0  0  0  0  0
  -61.1014  -33.3939  -48.9114 O   0  0  0  0  0  0  0  0  0  0  0  0
  -60.9371  -34.8861  -47.1889 O   0  0  0  0  0  0  0  0  0  0  0  0
  -61.6978  -31.7875  -46.0946 H   0  0  0  0  0  0  0  0  0  0  0  0
  -60.8701  -30.9076  -47.3907 H   0  0  0  0  0  0  0  0  0  0  0  0
  -59.0696  -32.4917  -47.3871 H   0  0  0  0  0  0  0  0  0  0  0  0
  -59.8682  -33.3182  -45.9206 H   0  0  0  0  0  0  0  0  0  0  0  0
  1  2  2  0
  1  3  1  0
  1  4  1  0
  4  5  1  0
  5  6  1  0
  6  7  2  0
  6  8  1  0
  4  9  1  0
  4 10  1  0
  5 11  1  0
  5 12  1  0
M  CHG  2   3  -1   8  -1
M  END
>  <filename_input>  (14) 
7ECR_SIN_docked.sdf

>  <pdb_id>  (14) 
7ECR_SIN

>  <pose_rank>  (14) 
13

>  <num_atoms_heavy>  (14) 
8

>  <num_torsions>  (14) 
3

>  <pose>  (14) 
[-60.708471361176755, -31.55036046103422, -46.5127907205085, -4.516756146686229, 0.43387834417083243, -1.1323783306343413, -11.999114468627974, -6.199862426152366, -10.894560144757987]

>  <energy>  (14) 
-142.33656091972287

>  <inter_energy>  (14) 
-130.2743255869514

>  <intra_energy>  (14) 
0.0

>  <rmsd>  (14) 
7.52186

>  <sdf_rank>  (14) 
0

$$$$

     RDKit          3D

 12 11  0  0  0  0  0  0  0  0999 V2000
  -59.0163  -31.3609  -41.7610 C   0  0  0  0  0  0  0  0  0  0  0  0
  -58.5210  -30.9252  -42.7920 O   0  0  0  0  0  0  0  0  0  0  0  0
  -59.3790  -32.5377  -41.6925 O   0  0  0  0  0  0  0  0  0  0  0  0
  -59.0562  -30.4861  -40.5020 C   0  0  0  0  0  0  0  0  0  0  0  0
  -59.7126  -29.2306  -40.8990 C   0  0  0  0  0  0  0  0  0  0  0  0
  -58.8610  -27.9910  -41.0142 C   0  0  0  0  0  0  0  0  0  0  0  0
  -59.0883  -27.0185  -40.2263 O   0  0  0  0  0  0  0  0  0  0  0  0
  -58.0663  -28.0240  -42.0055 O   0  0  0  0  0  0  0  0  0  0  0  0
  -59.6329  -30.9843  -39.7088 H   0  0  0  0  0  0  0  0  0  0  0  0
  -58.0460  -30.3041  -40.1066 H   0  0  0  0  0  0  0  0  0  0  0  0
  -60.1767  -29.4009  -41.8817 H   0  0  0  0  0  0  0  0  0  0  0  0
  -60.4065  -29.0111  -40.0743 H   0  0  0  0  0  0  0  0  0  0  0  0
  1  2  2  0
  1  3  1  0
  1  4  1  0
  4  5  1  0
  5  6  1  0
  6  7  2  0
  6  8  1  0
  4  9  1  0
  4 10  1  0
  5 11  1  0
  5 12  1  0
M  CHG  2   3  -1   8  -1
M  END
>  <filename_input>  (15) 
7ECR_SIN_docked.sdf

>  <pdb_id>  (15) 
7ECR_SIN

>  <pose_rank>  (15) 
14

>  <num_atoms_heavy>  (15) 
8

>  <num_torsions>  (15) 
3

>  <pose>  (15) 
[-59.05616926786227, -30.486050575261306, -40.50200261179673, -10.701605622653856, 3.681718301571728, 10.178650937003981, -0.7390186621234647, 1.479433796658274, -1.3694917383772245]

>  <energy>  (15) 
-240.0484823222078

>  <inter_energy>  (15) 
-240.73120473907082

>  <intra_energy>  (15) 
5.02730094202525

>  <rmsd>  (15) 
2.99684

>  <sdf_rank>  (15) 
0

$$$$

     RDKit          3D

 12 11  0  0  0  0  0  0  0  0999 V2000
  -49.1150  -27.1998  -37.1432 C   0  0  0  0  0  0  0  0  0  0  0  0
  -48.3670  -28.1370  -36.8978 O   0  0  0  0  0  0  0  0  0  0  0  0
  -49.4326  -26.9439  -38.3072 O   0  0  0  0  0  0  0  0  0  0  0  0
  -49.7764  -26.4277  -35.9950 C   0  0  0  0  0  0  0  0  0  0  0  0
  -50.7735  -27.3392  -35.4123 C   0  0  0  0  0  0  0  0  0  0  0  0
  -50.4295  -28.0319  -34.1173 C   0  0  0  0  0  0  0  0  0  0  0  0
  -50.3942  -27.3444  -33.0476 O   0  0  0  0  0  0  0  0  0  0  0  0
  -50.0845  -29.2444  -34.2783 O   0  0  0  0  0  0  0  0  0  0  0  0
  -49.0263  -26.1493  -35.2401 H   0  0  0  0  0  0  0  0  0  0  0  0
  -50.2421  -25.4972  -36.3518 H   0  0  0  0  0  0  0  0  0  0  0  0
  -51.6884  -26.7542  -35.2371 H   0  0  0  0  0  0  0  0  0  0  0  0
  -50.8607  -28.1550  -36.1450 H   0  0  0  0  0  0  0  0  0  0  0  0
  1  2  2  0
  1  3  1  0
  1  4  1  0
  4  5  1  0
  5  6  1  0
  6  7  2  0
  6  8  1  0
  4  9  1  0
  4 10  1  0
  5 11  1  0
  5 12  1  0
M  CHG  2   3  -1   8  -1
M  END
>  <filename_input>  (16) 
7ECR_SIN_docked.sdf

>  <pdb_id>  (16) 
7ECR_SIN

>  <pose_rank>  (16) 
15

>  <num_atoms_heavy>  (16) 
8

>  <num_torsions>  (16) 
3

>  <pose>  (16) 
[-49.77638667708237, -26.427684353895582, -35.99497917472822, 0.8348204588627094, 0.38225153456797895, -1.723879078651694, 3.369838956919562, -1.1312868669804592, 1.902119834885934]

>  <energy>  (16) 
-133.53743034552403

>  <inter_energy>  (16) 
-117.81296074273729

>  <intra_energy>  (16) 
0.7396356943017683

>  <rmsd>  (16) 
10.5928

>  <sdf_rank>  (16) 
0

$$$$

     RDKit          3D

 12 11  0  0  0  0  0  0  0  0999 V2000
  -60.2241  -32.3487  -44.1439 C   0  0  0  0  0  0  0  0  0  0  0  0
  -60.4502  -31.5185  -43.2734 O   0  0  0  0  0  0  0  0  0  0  0  0
  -59.6162  -33.3869  -43.8725 O   0  0  0  0  0  0  0  0  0  0  0  0
  -60.8210  -32.1699  -45.5452 C   0  0  0  0  0  0  0  0  0  0  0  0
  -59.7579  -32.5428  -46.4915 C   0  0  0  0  0  0  0  0  0  0  0  0
  -59.9336  -32.1633  -47.9407 C   0  0  0  0  0  0  0  0  0  0  0  0
  -60.2752  -30.9708  -48.2227 O   0  0  0  0  0  0  0  0  0  0  0  0
  -59.8322  -33.1541  -48.7301 O   0  0  0  0  0  0  0  0  0  0  0  0
  -61.6947  -32.8256  -45.6747 H   0  0  0  0  0  0  0  0  0  0  0  0
  -61.1607  -31.1365  -45.7088 H   0  0  0  0  0  0  0  0  0  0  0  0
  -58.8279  -32.0716  -46.1406 H   0  0  0  0  0  0  0  0  0  0  0  0
  -59.7654  -33.6427  -46.4930 H   0  0  0  0  0  0  0  0  0  0  0  0
  1  2  2  0
  1  3  1  0
  1  4  1  0
  4  5  1  0
  5  6  1  0
  6  7  2  0
  6  8  1  0
  4  9  1  0
  4 10  1  0
  5 11  1  0
  5 12  1  0
M  CHG  2   3  -1   8  -1
M  END
>  <filename_input>  (17) 
7ECR_SIN_docked.sdf

>  <pdb_id>  (17) 
7ECR_SIN

>  <pose_rank>  (17) 
16

>  <num_atoms_heavy>  (17) 
8

>  <num_torsions>  (17) 
3

>  <pose>  (17) 
[-60.82103356362935, -32.16987965086586, -45.54524695706767, -3.603945997129087, 0.3299407197146652, -1.0997957575561297, -11.830071613319896, -5.814542730759932, -11.06776823691446]

>  <energy>  (17) 
-116.18570960798782

>  <inter_energy>  (17) 
-108.88158597409526

>  <intra_energy>  (17) 
0.0

>  <rmsd>  (17) 
6.68414

>  <sdf_rank>  (17) 
0

$$$$

     RDKit          3D

 12 11  0  0  0  0  0  0  0  0999 V2000
  -59.9358  -33.1098  -46.8788 C   0  0  0  0  0  0  0  0  0  0  0  0
  -60.7675  -33.7678  -46.2677 O   0  0  0  0  0  0  0  0  0  0  0  0
  -59.1162  -33.6676  -47.6125 O   0  0  0  0  0  0  0  0  0  0  0  0
  -59.9997  -31.5778  -46.8488 C   0  0  0  0  0  0  0  0  0  0  0  0
  -58.7354  -31.1059  -47.4350 C   0  0  0  0  0  0  0  0  0  0  0  0
  -58.4876  -29.6188  -47.4825 C   0  0  0  0  0  0  0  0  0  0  0  0
  -57.8667  -29.0719  -46.5163 O   0  0  0  0  0  0  0  0  0  0  0  0
  -59.0588  -29.0506  -48.4654 O   0  0  0  0  0  0  0  0  0  0  0  0
  -60.8533  -31.2195  -47.4429 H   0  0  0  0  0  0  0  0  0  0  0  0
  -60.1332  -31.2009  -45.8241 H   0  0  0  0  0  0  0  0  0  0  0  0
  -57.9173  -31.5552  -46.8529 H   0  0  0  0  0  0  0  0  0  0  0  0
  -58.7929  -31.4084  -48.4910 H   0  0  0  0  0  0  0  0  0  0  0  0
  1  2  2  0
  1  3  1  0
  1  4  1  0
  4  5  1  0
  5  6  1  0
  6  7  2  0
  6  8  1  0
  4  9  1  0
  4 10  1  0
  5 11  1  0
  5 12  1  0
M  CHG  2   3  -1   8  -1
M  END
>  <filename_input>  (18) 
7ECR_SIN_docked.sdf

>  <pdb_id>  (18) 
7ECR_SIN

>  <pose_rank>  (18) 
17

>  <num_atoms_heavy>  (18) 
8

>  <num_torsions>  (18) 
3

>  <pose>  (18) 
[-59.99965842916252, -31.577826924426493, -46.848814759149455, -2.1949789178769157, 1.0859154125773922, -0.4661752669552916, -11.301595050410503, -6.015667175010395, -10.303031993936388]

>  <energy>  (18) 
-113.5864199100131

>  <inter_energy>  (18) 
-115.69449043356491

>  <intra_energy>  (18) 
0.0

>  <rmsd>  (18) 
6.99376

>  <sdf_rank>  (18) 
0

$$$$

     RDKit          3D

 12 11  0  0  0  0  0  0  0  0999 V2000
  -58.5350  -28.5696  -41.6099 C   0  0  0  0  0  0  0  0  0  0  0  0
  -58.4458  -27.5888  -40.8830 O   0  0  0  0  0  0  0  0  0  0  0  0
  -57.5530  -29.2882  -41.8106 O   0  0  0  0  0  0  0  0  0  0  0  0
  -59.9028  -28.9925  -42.1598 C   0  0  0  0  0  0  0  0  0  0  0  0
  -60.1327  -30.3611  -41.6713 C   0  0  0  0  0  0  0  0  0  0  0  0
  -60.1368  -31.4825  -42.6800 C   0  0  0  0  0  0  0  0  0  0  0  0
  -61.0787  -31.5327  -43.5336 O   0  0  0  0  0  0  0  0  0  0  0  0
  -59.2271  -32.3445  -42.4690 O   0  0  0  0  0  0  0  0  0  0  0  0
  -60.6886  -28.3177  -41.7893 H   0  0  0  0  0  0  0  0  0  0  0  0
  -59.9255  -28.9486  -43.2586 H   0  0  0  0  0  0  0  0  0  0  0  0
  -59.3433  -30.5836  -40.9383 H   0  0  0  0  0  0  0  0  0  0  0  0
  -61.1595  -30.3428  -41.2771 H   0  0  0  0  0  0  0  0  0  0  0  0
  1  2  2  0
  1  3  1  0
  1  4  1  0
  4  5  1  0
  5  6  1  0
  6  7  2  0
  6  8  1  0
  4  9  1  0
  4 10  1  0
  5 11  1  0
  5 12  1  0
M  CHG  2   3  -1   8  -1
M  END
>  <filename_input>  (19) 
7ECR_SIN_docked.sdf

>  <pdb_id>  (19) 
7ECR_SIN

>  <pose_rank>  (19) 
18

>  <num_atoms_heavy>  (19) 
8

>  <num_torsions>  (19) 
3

>  <pose>  (19) 
[-59.90278942513745, -28.99247558295006, -42.15975267106439, 0.8294303192904122, -0.41247497567813873, -0.17663004906529828, 8.782306768773621, 1.4094596604312462, 5.759673301300846]

>  <energy>  (19) 
-196.89021162566397

>  <inter_energy>  (19) 
-198.93025965641058

>  <intra_energy>  (19) 
0.30264745935271353

>  <rmsd>  (19) 
3.19796

>  <sdf_rank>  (19) 
0

$$$$

     RDKit          3D

 12 11  0  0  0  0  0  0  0  0999 V2000
  -65.0482  -23.9702  -49.9193 C   0  0  0  0  0  0  0  0  0  0  0  0
  -66.2377  -23.9846  -49.6312 O   0  0  0  0  0  0  0  0  0  0  0  0
  -64.6628  -24.4244  -50.9993 O   0  0  0  0  0  0  0  0  0  0  0  0
  -64.0473  -23.2568  -49.0021 C   0  0  0  0  0  0  0  0  0  0  0  0
  -64.3968  -21.8285  -49.0505 C   0  0  0  0  0  0  0  0  0  0  0  0
  -63.2949  -20.8383  -49.3345 C   0  0  0  0  0  0  0  0  0  0  0  0
  -62.2188  -20.9120  -48.6602 O   0  0  0  0  0  0  0  0  0  0  0  0
  -63.6369  -19.9382  -50.1640 O   0  0  0  0  0  0  0  0  0  0  0  0
  -64.1342  -23.6366  -47.9734 H   0  0  0  0  0  0  0  0  0  0  0  0
  -63.0106  -23.4284  -49.3275 H   0  0  0  0  0  0  0  0  0  0  0  0
  -65.1579  -21.7046  -49.8349 H   0  0  0  0  0  0  0  0  0  0  0  0
  -64.7221  -21.5908  -48.0269 H   0  0  0  0  0  0  0  0  0  0  0  0
  1  2  2  0
  1  3  1  0
  1  4  1  0
  4  5  1  0
  5  6  1  0
  6  7  2  0
  6  8  1  0
  4  9  1  0
  4 10  1  0
  5 11  1  0
  5 12  1  0
M  CHG  2   3  -1   8  -1
M  END
>  <filename_input>  (20) 
7ECR_SIN_docked.sdf

>  <pdb_id>  (20) 
7ECR_SIN

>  <pose_rank>  (20) 
19

>  <num_atoms_heavy>  (20) 
8

>  <num_torsions>  (20) 
3

>  <pose>  (20) 
[-64.04727333844951, -23.256833875412333, -49.002084421847755, 1.4513313199736768, -1.539560934776912, -2.9716791446900337, -2.819957928681297, 1.103469907158548, -0.21340537174183366]

>  <energy>  (20) 
-106.46800492270766

>  <inter_energy>  (20) 
-83.8096062572307

>  <intra_energy>  (20) 
0.0

>  <rmsd>  (20) 
11.5819

>  <sdf_rank>  (20) 
0

$$$$

     RDKit          3D

 12 11  0  0  0  0  0  0  0  0999 V2000
  -50.5828  -36.3773  -42.4182 C   0  0  0  0  0  0  0  0  0  0  0  0
  -50.2293  -35.7030  -43.3766 O   0  0  0  0  0  0  0  0  0  0  0  0
  -51.7261  -36.8370  -42.3671 O   0  0  0  0  0  0  0  0  0  0  0  0
  -49.5625  -36.7750  -41.3445 C   0  0  0  0  0  0  0  0  0  0  0  0
  -49.8354  -35.9128  -40.1840 C   0  0  0  0  0  0  0  0  0  0  0  0
  -49.0338  -36.1415  -38.9269 C   0  0  0  0  0  0  0  0  0  0  0  0
  -48.4426  -35.1509  -38.3909 O   0  0  0  0  0  0  0  0  0  0  0  0
  -48.9441  -37.3692  -38.6108 O   0  0  0  0  0  0  0  0  0  0  0  0
  -49.6879  -37.8333  -41.0719 H   0  0  0  0  0  0  0  0  0  0  0  0
  -48.5306  -36.6502  -41.7045 H   0  0  0  0  0  0  0  0  0  0  0  0
  -49.6589  -34.8740  -40.4998 H   0  0  0  0  0  0  0  0  0  0  0  0
  -50.8693  -36.1565  -39.8982 H   0  0  0  0  0  0  0  0  0  0  0  0
  1  2  2  0
  1  3  1  0
  1  4  1  0
  4  5  1  0
  5  6  1  0
  6  7  2  0
  6  8  1  0
  4  9  1  0
  4 10  1  0
  5 11  1  0
  5 12  1  0
M  CHG  2   3  -1   8  -1
M  END
>  <filename_input>  (21) 
7ECR_SIN_docked.sdf

>  <pdb_id>  (21) 
7ECR_SIN

>  <pose_rank>  (21) 
20

>  <num_atoms_heavy>  (21) 
8

>  <num_torsions>  (21) 
3

>  <pose>  (21) 
[-49.56253937856035, -36.77500932787563, -41.34450718656107, 0.9259419800828518, -0.025658813227375347, -3.9019947330055467, 0.14338199632732104, 0.15417230931454975, -3.3939150323170075]

>  <energy>  (21) 
-105.43320152896503

>  <inter_energy>  (21) 
-99.09127209596062

>  <intra_energy>  (21) 
0.0

>  <rmsd>  (21) 
12.3561

>  <sdf_rank>  (21) 
0

$$$$

     RDKit          3D

 12 11  0  0  0  0  0  0  0  0999 V2000
  -59.4271  -31.6351  -44.2338 C   0  0  0  0  0  0  0  0  0  0  0  0
  -59.0558  -30.5844  -43.7274 O   0  0  0  0  0  0  0  0  0  0  0  0
  -59.5184  -32.6581  -43.5510 O   0  0  0  0  0  0  0  0  0  0  0  0
  -59.9190  -31.6527  -45.6863 C   0  0  0  0  0  0  0  0  0  0  0  0
  -58.7380  -31.9472  -46.5127 C   0  0  0  0  0  0  0  0  0  0  0  0
  -58.9594  -32.3285  -47.9552 C   0  0  0  0  0  0  0  0  0  0  0  0
  -60.0646  -32.0218  -48.5052 O   0  0  0  0  0  0  0  0  0  0  0  0
  -58.0234  -33.0458  -48.4292 O   0  0  0  0  0  0  0  0  0  0  0  0
  -60.6834  -32.4320  -45.8211 H   0  0  0  0  0  0  0  0  0  0  0  0
  -60.3773  -30.6930  -45.9673 H   0  0  0  0  0  0  0  0  0  0  0  0
  -58.1020  -31.0497  -46.5057 H   0  0  0  0  0  0  0  0  0  0  0  0
  -58.3003  -32.8467  -46.0552 H   0  0  0  0  0  0  0  0  0  0  0  0
  1  2  2  0
  1  3  1  0
  1  4  1  0
  4  5  1  0
  5  6  1  0
  6  7  2  0
  6  8  1  0
  4  9  1  0
  4 10  1  0
  5 11  1  0
  5 12  1  0
M  CHG  2   3  -1   8  -1
M  END
>  <filename_input>  (22) 
7ECR_SIN_docked.sdf

>  <pdb_id>  (22) 
7ECR_SIN

>  <pose_rank>  (22) 
21

>  <num_atoms_heavy>  (22) 
8

>  <num_torsions>  (22) 
3

>  <pose>  (22) 
[-59.91899183946254, -31.65267867102552, -45.6862505193839, -3.5623021501880996, 0.08761600557495006, -1.3595921759751441, -12.651198134810523, -6.292645428997084, -11.565576523824998]

>  <energy>  (22) 
-117.9965167537651

>  <inter_energy>  (22) 
-112.26569954480864

>  <intra_energy>  (22) 
0.0

>  <rmsd>  (22) 
6.46428

>  <sdf_rank>  (22) 
0

$$$$

     RDKit          3D

 12 11  0  0  0  0  0  0  0  0999 V2000
  -50.4159  -28.7039  -33.9390 C   0  0  0  0  0  0  0  0  0  0  0  0
  -51.3349  -27.8965  -33.9807 O   0  0  0  0  0  0  0  0  0  0  0  0
  -49.6768  -28.7568  -32.9531 O   0  0  0  0  0  0  0  0  0  0  0  0
  -50.2669  -29.7516  -35.0490 C   0  0  0  0  0  0  0  0  0  0  0  0
  -50.5727  -29.0563  -36.3091 C   0  0  0  0  0  0  0  0  0  0  0  0
  -49.5107  -28.1645  -36.9025 C   0  0  0  0  0  0  0  0  0  0  0  0
  -48.3415  -28.6364  -37.0717 O   0  0  0  0  0  0  0  0  0  0  0  0
  -49.8981  -26.9638  -37.0555 O   0  0  0  0  0  0  0  0  0  0  0  0
  -49.2392  -30.1435  -35.0688 H   0  0  0  0  0  0  0  0  0  0  0  0
  -50.9399  -30.6066  -34.8880 H   0  0  0  0  0  0  0  0  0  0  0  0
  -50.8091  -29.8262  -37.0583 H   0  0  0  0  0  0  0  0  0  0  0  0
  -51.3940  -28.3712  -36.0521 H   0  0  0  0  0  0  0  0  0  0  0  0
  1  2  2  0
  1  3  1  0
  1  4  1  0
  4  5  1  0
  5  6  1  0
  6  7  2  0
  6  8  1  0
  4  9  1  0
  4 10  1  0
  5 11  1  0
  5 12  1  0
M  CHG  2   3  -1   8  -1
M  END
>  <filename_input>  (23) 
7ECR_SIN_docked.sdf

>  <pdb_id>  (23) 
7ECR_SIN

>  <pose_rank>  (23) 
22

>  <num_atoms_heavy>  (23) 
8

>  <num_torsions>  (23) 
3

>  <pose>  (23) 
[-50.26687149059382, -29.75156750671035, -35.04903878077398, 1.6300755629691577, 2.588889017055658, 0.8277562231680752, -0.9792647791404946, -1.5637580780542824, 1.5603336333990194]

>  <energy>  (23) 
-81.40274044332752

>  <inter_energy>  (23) 
-77.47054320921987

>  <intra_energy>  (23) 
0.6315023839371287

>  <rmsd>  (23) 
10.5358

>  <sdf_rank>  (23) 
0

$$$$

     RDKit          3D

 12 11  0  0  0  0  0  0  0  0999 V2000
  -62.2703  -20.7701  -48.6855 C   0  0  0  0  0  0  0  0  0  0  0  0
  -62.2599  -21.3353  -49.7712 O   0  0  0  0  0  0  0  0  0  0  0  0
  -61.2484  -20.2319  -48.2530 O   0  0  0  0  0  0  0  0  0  0  0  0
  -63.5901  -20.6030  -47.9225 C   0  0  0  0  0  0  0  0  0  0  0  0
  -64.1704  -21.9505  -47.8122 C   0  0  0  0  0  0  0  0  0  0  0  0
  -65.6031  -22.1428  -48.2429 C   0  0  0  0  0  0  0  0  0  0  0  0
  -66.4593  -21.2556  -47.9296 O   0  0  0  0  0  0  0  0  0  0  0  0
  -65.8122  -23.2733  -48.7844 O   0  0  0  0  0  0  0  0  0  0  0  0
  -63.4028  -20.1848  -46.9225 H   0  0  0  0  0  0  0  0  0  0  0  0
  -64.2709  -19.9133  -48.4430 H   0  0  0  0  0  0  0  0  0  0  0  0
  -63.5520  -22.6238  -48.4239 H   0  0  0  0  0  0  0  0  0  0  0  0
  -64.1783  -22.1582  -46.7321 H   0  0  0  0  0  0  0  0  0  0  0  0
  1  2  2  0
  1  3  1  0
  1  4  1  0
  4  5  1  0
  5  6  1  0
  6  7  2  0
  6  8  1  0
  4  9  1  0
  4 10  1  0
  5 11  1  0
  5 12  1  0
M  CHG  2   3  -1   8  -1
M  END
>  <filename_input>  (24) 
7ECR_SIN_docked.sdf

>  <pdb_id>  (24) 
7ECR_SIN

>  <pose_rank>  (24) 
23

>  <num_atoms_heavy>  (24) 
8

>  <num_torsions>  (24) 
3

>  <pose>  (24) 
[-63.59013725728413, -20.602969118173593, -47.92250459939094, 1.0578316613723275, 0.35218080372090965, -1.0529019401669395, -0.7426834499739853, 1.1155691272682788, -0.06825521122660659]

>  <energy>  (24) 
-102.60307035845894

>  <inter_energy>  (24) 
-72.09824309092056

>  <intra_energy>  (24) 
0.0

>  <rmsd>  (24) 
11.0817

>  <sdf_rank>  (24) 
0

$$$$

     RDKit          3D

 12 11  0  0  0  0  0  0  0  0999 V2000
  -57.9724  -19.1441  -32.8559 C   0  0  0  0  0  0  0  0  0  0  0  0
  -58.9399  -18.9508  -33.5803 O   0  0  0  0  0  0  0  0  0  0  0  0
  -57.1159  -18.2684  -32.7129 O   0  0  0  0  0  0  0  0  0  0  0  0
  -57.8933  -20.4204  -32.0092 C   0  0  0  0  0  0  0  0  0  0  0  0
  -57.0353  -21.3527  -32.7569 C   0  0  0  0  0  0  0  0  0  0  0  0
  -56.8047  -22.7254  -32.1756 C   0  0  0  0  0  0  0  0  0  0  0  0
  -57.8135  -23.4234  -31.8390 O   0  0  0  0  0  0  0  0  0  0  0  0
  -55.5761  -22.9796  -31.9728 O   0  0  0  0  0  0  0  0  0  0  0  0
  -57.4518  -20.1998  -31.0262 H   0  0  0  0  0  0  0  0  0  0  0  0
  -58.8914  -20.8472  -31.8310 H   0  0  0  0  0  0  0  0  0  0  0  0
  -57.4889  -21.4901  -33.7496 H   0  0  0  0  0  0  0  0  0  0  0  0
  -56.0421  -20.8800  -32.7465 H   0  0  0  0  0  0  0  0  0  0  0  0
  1  2  2  0
  1  3  1  0
  1  4  1  0
  4  5  1  0
  5  6  1  0
  6  7  2  0
  6  8  1  0
  4  9  1  0
  4 10  1  0
  5 11  1  0
  5 12  1  0
M  CHG  2   3  -1   8  -1
M  END
>  <filename_input>  (25) 
7ECR_SIN_docked.sdf

>  <pdb_id>  (25) 
7ECR_SIN

>  <pose_rank>  (25) 
24

>  <num_atoms_heavy>  (25) 
8

>  <num_torsions>  (25) 
3

>  <pose>  (25) 
[-57.89334775345348, -20.42040070908152, -32.009242159070624, 0.7310996290361506, 1.5914981881167172, -0.11989452218049393, 0.03535875207448873, 0.2504759354792752, 1.5654150284281687]

>  <energy>  (25) 
-99.39043516015192

>  <inter_energy>  (25) 
-78.40385482622995

>  <intra_energy>  (25) 
0.0

>  <rmsd>  (25) 
11.6994

>  <sdf_rank>  (25) 
0

$$$$

     RDKit          3D

 12 11  0  0  0  0  0  0  0  0999 V2000
  -57.5530  -27.1240  -42.7890 C   0  0  0  0  0  0  0  0  0  0  0  0
  -56.8110  -27.7260  -43.5540 O   0  0  0  0  0  0  0  0  0  0  0  0
  -57.3530  -25.9340  -42.5340 O   0  0  0  0  0  0  0  0  0  0  0  0
  -58.8190  -27.8060  -42.2560 C   0  0  0  0  0  0  0  0  0  0  0  0
  -58.4630  -28.3520  -40.9370 C   0  0  0  0  0  0  0  0  0  0  0  0
  -59.5800  -28.8260  -40.0410 C   0  0  0  0  0  0  0  0  0  0  0  0
  -60.6710  -28.1720  -40.0270 O   0  0  0  0  0  0  0  0  0  0  0  0
  -59.2380  -29.7910  -39.2880 O   0  0  0  0  0  0  0  0  0  0  0  0
  -59.6348  -27.0745  -42.1590 H   0  0  0  0  0  0  0  0  0  0  0  0
  -59.1675  -28.5960  -42.9375 H   0  0  0  0  0  0  0  0  0  0  0  0
  -57.7946  -29.2089  -41.1074 H   0  0  0  0  0  0  0  0  0  0  0  0
  -58.0212  -27.5010  -40.3979 H   0  0  0  0  0  0  0  0  0  0  0  0
  1  2  2  0
  1  3  1  0
  1  4  1  0
  4  5  1  0
  5  6  1  0
  6  7  2  0
  6  8  1  0
  4  9  1  0
  4 10  1  0
  5 11  1  0
  5 12  1  0
M  CHG  2   3  -1   8  -1
M  END
>  <filename_input>  (26) 
7ECR_SIN_docked.sdf

>  <pdb_id>  (26) 
7ECR_SIN

>  <pose_rank>  (26) 
25

>  <num_atoms_heavy>  (26) 
8

>  <num_torsions>  (26) 
3

>  <pose>  (26) 
[-58.819, -27.806, -42.256, 1e-06, 1e-06, 1e-06, 0.0, 0.0, 0.0]

>  <energy>  (26) 
-421.0330514277437

>  <inter_energy>  (26) 
-428.57040748813125

>  <intra_energy>  (26) 
0.0

>  <rmsd>  (26) 
0.0

>  <sdf_rank>  (26) 
0

$$$$
