
     RDKit          3D

 38 40  0  0  0  0  0  0  0  0999 V2000
  -21.8041  -18.4638    8.9139 P   0  0  1  0  0  0  0  0  0  0  0  0
  -22.2088  -18.8062    7.4591 O   0  0  0  0  0  0  0  0  0  0  0  0
  -20.2754  -18.4933    9.1599 O   0  0  0  0  0  0  0  0  0  0  0  0
  -22.4119  -17.2290    9.4593 O   0  0  0  0  0  0  0  0  0  0  0  0
  -18.6607  -22.3826   12.1494 P   0  0  2  0  0  0  0  0  0  0  0  0
  -18.6930  -23.6377   11.2146 O   0  0  0  0  0  0  0  0  0  0  0  0
  -17.9404  -21.2276   11.5436 O   0  0  0  0  0  0  0  0  0  0  0  0
  -18.1819  -22.7269   13.5150 O   0  0  0  0  0  0  0  0  0  0  0  0
  -20.1780  -21.9390   12.3932 O   0  0  0  0  0  0  0  0  0  0  0  0
  -21.0241  -21.8632   11.2070 C   0  0  0  0  0  0  0  0  0  0  0  0
  -22.2882  -21.1321   11.5536 C   0  0  1  0  0  0  0  0  0  0  0  0
  -22.5035  -21.1249   12.9770 O   0  0  0  0  0  0  0  0  0  0  0  0
  -22.2591  -19.6519   11.2001 C   0  0  1  0  0  0  0  0  0  0  0  0
  -22.4015  -19.6937    9.8141 O   0  0  0  0  0  0  0  0  0  0  0  0
  -23.3745  -19.1158   12.0788 C   0  0  1  0  0  0  0  0  0  0  0  0
  -24.6211  -19.1063   11.4320 O   0  0  0  0  0  0  0  0  0  0  0  0
  -23.3643  -20.0639   13.2828 C   0  0  2  0  0  0  0  0  0  0  0  0
  -22.8578  -19.4156   14.4691 N   0  0  0  0  0  0  0  0  0  0  0  0
  -21.5162  -19.0441   14.7382 C   0  0  0  0  0  0  0  0  0  0  0  0
  -21.4051  -18.3691   15.8684 N   0  0  0  0  0  0  0  0  0  0  0  0
  -22.7050  -18.3217   16.3711 C   0  0  0  0  0  0  0  0  0  0  0  0
  -23.2316  -17.7436   17.5385 C   0  0  0  0  0  0  0  0  0  0  0  0
  -22.4887  -17.0646   18.4089 N   0  0  0  0  0  0  0  0  0  0  0  0
  -24.5681  -17.8295   17.7352 N   0  0  0  0  0  0  0  0  0  0  0  0
  -25.2988  -18.4981   16.8281 C   0  0  0  0  0  0  0  0  0  0  0  0
  -24.9185  -19.0742   15.6858 N   0  0  0  0  0  0  0  0  0  0  0  0
  -23.5964  -18.9627   15.5273 C   0  0  0  0  0  0  0  0  0  0  0  0
  -20.4930  -21.3234   10.4092 H   0  0  0  0  0  0  0  0  0  0  0  0
  -21.2658  -22.8779   10.8578 H   0  0  0  0  0  0  0  0  0  0  0  0
  -23.0623  -21.6653   10.9821 H   0  0  0  0  0  0  0  0  0  0  0  0
  -21.3950  -18.9967   11.3849 H   0  0  0  0  0  0  0  0  0  0  0  0
  -23.2152  -18.0632   12.3557 H   0  0  0  0  0  0  0  0  0  0  0  0
  -25.3439  -19.1009   12.1085 H   0  0  0  0  0  0  0  0  0  0  0  0
  -24.3943  -20.3967   13.4786 H   0  0  0  0  0  0  0  0  0  0  0  0
  -20.6674  -19.2892   14.0828 H   0  0  0  0  0  0  0  0  0  0  0  0
  -22.9227  -16.6596   19.2507 H   0  0  0  0  0  0  0  0  0  0  0  0
  -21.4797  -16.9439   18.2409 H   0  0  0  0  0  0  0  0  0  0  0  0
  -26.3703  -18.5837   17.0614 H   0  0  0  0  0  0  0  0  0  0  0  0
  1  2  2  0
  1  3  1  6
  1  4  1  0
  1 14  1  0
  5  6  2  0
  5  7  1  6
  5  8  1  0
  5  9  1  0
  9 10  1  0
 11 10  1  0
 11 12  1  0
 11 13  1  0
 12 17  1  0
 13 14  1  0
 13 15  1  0
 15 16  1  0
 15 17  1  0
 17 18  1  0
 18 19  1  0
 18 27  1  0
 19 20  2  0
 20 21  1  0
 21 22  2  0
 21 27  1  0
 22 23  1  0
 22 24  1  0
 24 25  2  0
 25 26  1  0
 26 27  2  0
 10 28  1  0
 10 29  1  0
 11 30  1  6
 13 31  1  6
 15 32  1  1
 16 33  1  0
 17 34  1  1
 19 35  1  0
 23 36  1  0
 23 37  1  0
 25 38  1  0
M  CHG  4   3  -1   4  -1   7  -1   8  -1
M  END
>  <filename_input>  (1) 
7ED2_A3P_docked.sdf

>  <pdb_id>  (1) 
7ED2_A3P

>  <pose_rank>  (1) 
0

>  <num_atoms_heavy>  (1) 
27

>  <num_torsions>  (1) 
6

>  <pose>  (1) 
[-22.288223192094133, -21.13209070427452, 11.553607828203056, -0.6306901029856253, -2.2984470368115617, -5.610325746586575, -0.37763581109289224, -1.3348056724332777, 0.14824870475219154, 0.3487655446621004, 0.33787265936156446, 0.20665630962901543]

>  <energy>  (1) 
-798.4565398716171

>  <inter_energy>  (1) 
-788.9450401899112

>  <intra_energy>  (1) 
2.143653461168343

>  <rmsd>  (1) 
1.28088

>  <sdf_rank>  (1) 
0

$$$$

     RDKit          3D

 38 40  0  0  0  0  0  0  0  0999 V2000
  -22.4158  -18.6602    9.1229 P   0  0  1  0  0  0  0  0  0  0  0  0
  -23.2217  -17.7203   10.0528 O   0  0  0  0  0  0  0  0  0  0  0  0
  -23.2571  -19.2778    7.9787 O   0  0  0  0  0  0  0  0  0  0  0  0
  -21.1454  -18.0977    8.6118 O   0  0  0  0  0  0  0  0  0  0  0  0
  -18.4523  -19.9452   12.2005 P   0  0  2  0  0  0  0  0  0  0  0  0
  -17.2641  -20.9513   12.3618 O   0  0  0  0  0  0  0  0  0  0  0  0
  -18.0259  -18.6293   11.6471 O   0  0  0  0  0  0  0  0  0  0  0  0
  -19.2481  -19.8297   13.4519 O   0  0  0  0  0  0  0  0  0  0  0  0
  -19.4845  -20.5984   11.1679 O   0  0  0  0  0  0  0  0  0  0  0  0
  -20.3087  -21.6860   11.6841 C   0  0  0  0  0  0  0  0  0  0  0  0
  -21.6967  -21.1722   11.9333 C   0  0  1  0  0  0  0  0  0  0  0  0
  -21.9672  -21.0872   13.3447 O   0  0  0  0  0  0  0  0  0  0  0  0
  -21.9201  -19.7458   11.4512 C   0  0  1  0  0  0  0  0  0  0  0  0
  -21.9965  -19.9270   10.0712 O   0  0  0  0  0  0  0  0  0  0  0  0
  -23.1484  -19.3521   12.2512 C   0  0  1  0  0  0  0  0  0  0  0  0
  -24.3492  -19.6239   11.5753 O   0  0  0  0  0  0  0  0  0  0  0  0
  -23.0165  -20.1798   13.5341 C   0  0  2  0  0  0  0  0  0  0  0  0
  -22.6833  -19.3545   14.6706 N   0  0  0  0  0  0  0  0  0  0  0  0
  -21.4277  -18.7655   14.9655 C   0  0  0  0  0  0  0  0  0  0  0  0
  -21.4854  -17.9774   16.0242 N   0  0  0  0  0  0  0  0  0  0  0  0
  -22.8082  -18.0745   16.4550 C   0  0  0  0  0  0  0  0  0  0  0  0
  -23.4844  -17.4722   17.5293 C   0  0  0  0  0  0  0  0  0  0  0  0
  -22.9020  -16.6116   18.3605 N   0  0  0  0  0  0  0  0  0  0  0  0
  -24.8049  -17.7349   17.6680 N   0  0  0  0  0  0  0  0  0  0  0  0
  -25.3745  -18.5869   16.7999 C   0  0  0  0  0  0  0  0  0  0  0  0
  -24.8446  -19.2064   15.7431 N   0  0  0  0  0  0  0  0  0  0  0  0
  -23.5444  -18.9169   15.6390 C   0  0  0  0  0  0  0  0  0  0  0  0
  -20.3445  -22.5027   10.9481 H   0  0  0  0  0  0  0  0  0  0  0  0
  -19.8787  -22.0644   12.6232 H   0  0  0  0  0  0  0  0  0  0  0  0
  -22.3385  -21.8831   11.3921 H   0  0  0  0  0  0  0  0  0  0  0  0
  -21.1963  -18.9308   11.5987 H   0  0  0  0  0  0  0  0  0  0  0  0
  -23.1924  -18.2689   12.4378 H   0  0  0  0  0  0  0  0  0  0  0  0
  -25.0694  -19.7870   12.2347 H   0  0  0  0  0  0  0  0  0  0  0  0
  -23.9769  -20.6780   13.7329 H   0  0  0  0  0  0  0  0  0  0  0  0
  -20.5129  -18.9439   14.3813 H   0  0  0  0  0  0  0  0  0  0  0  0
  -23.4415  -16.1970   19.1337 H   0  0  0  0  0  0  0  0  0  0  0  0
  -21.9116  -16.3601   18.2306 H   0  0  0  0  0  0  0  0  0  0  0  0
  -26.4357  -18.8069   16.9879 H   0  0  0  0  0  0  0  0  0  0  0  0
  1  2  2  0
  1  3  1  6
  1  4  1  0
  1 14  1  0
  5  6  2  0
  5  7  1  6
  5  8  1  0
  5  9  1  0
  9 10  1  0
 11 10  1  0
 11 12  1  0
 11 13  1  0
 12 17  1  0
 13 14  1  0
 13 15  1  0
 15 16  1  0
 15 17  1  0
 17 18  1  0
 18 19  1  0
 18 27  1  0
 19 20  2  0
 20 21  1  0
 21 22  2  0
 21 27  1  0
 22 23  1  0
 22 24  1  0
 24 25  2  0
 25 26  1  0
 26 27  2  0
 10 28  1  0
 10 29  1  0
 11 30  1  6
 13 31  1  6
 15 32  1  1
 16 33  1  0
 17 34  1  1
 19 35  1  0
 23 36  1  0
 23 37  1  0
 25 38  1  0
M  CHG  4   3  -1   4  -1   7  -1   8  -1
M  END
>  <filename_input>  (2) 
7ED2_A3P_docked.sdf

>  <pdb_id>  (2) 
7ED2_A3P

>  <pose_rank>  (2) 
1

>  <num_atoms_heavy>  (2) 
27

>  <num_torsions>  (2) 
6

>  <pose>  (2) 
[-21.696740909418708, -21.172199432101014, 11.933259233156189, -0.07584644063860625, 0.04703143033411405, 0.35221147122410656, -0.4238177717950497, 3.377920267604917, -1.4106849434418482, 2.484960017164029, -0.24599394747570894, -3.413986755736928]

>  <energy>  (2) 
-673.1535562642424

>  <inter_energy>  (2) 
-762.6764801924764

>  <intra_energy>  (2) 
91.15783595010774

>  <rmsd>  (2) 
2.25681

>  <sdf_rank>  (2) 
0

$$$$

     RDKit          3D

 38 40  0  0  0  0  0  0  0  0999 V2000
  -19.3026  -19.5249   10.4398 P   0  0  1  0  0  0  0  0  0  0  0  0
  -18.2727  -20.6717   10.5870 O   0  0  0  0  0  0  0  0  0  0  0  0
  -19.1350  -18.3973   11.4880 O   0  0  0  0  0  0  0  0  0  0  0  0
  -19.4338  -18.9721    9.0729 O   0  0  0  0  0  0  0  0  0  0  0  0
  -19.1051  -24.2498   11.9472 P   0  0  2  0  0  0  0  0  0  0  0  0
  -19.5643  -25.6682   11.4703 O   0  0  0  0  0  0  0  0  0  0  0  0
  -17.9558  -23.7187   11.1618 O   0  0  0  0  0  0  0  0  0  0  0  0
  -18.8846  -24.2094   13.4177 O   0  0  0  0  0  0  0  0  0  0  0  0
  -20.3423  -23.2589   11.7340 O   0  0  0  0  0  0  0  0  0  0  0  0
  -20.6023  -22.3135   12.8144 C   0  0  0  0  0  0  0  0  0  0  0  0
  -21.7411  -21.4194   12.4187 C   0  0  1  0  0  0  0  0  0  0  0  0
  -22.6358  -21.2068   13.5263 O   0  0  0  0  0  0  0  0  0  0  0  0
  -21.3127  -20.0078   12.0434 C   0  0  1  0  0  0  0  0  0  0  0  0
  -20.7468  -20.2134   10.7863 O   0  0  0  0  0  0  0  0  0  0  0  0
  -22.6209  -19.2525   12.1913 C   0  0  1  0  0  0  0  0  0  0  0  0
  -23.3580  -19.2002   10.9968 O   0  0  0  0  0  0  0  0  0  0  0  0
  -23.3599  -20.0333   13.2833 C   0  0  2  0  0  0  0  0  0  0  0  0
  -23.4227  -19.2922   14.5206 N   0  0  0  0  0  0  0  0  0  0  0  0
  -24.5868  -18.9048   15.2312 C   0  0  0  0  0  0  0  0  0  0  0  0
  -24.2961  -18.3321   16.3857 N   0  0  0  0  0  0  0  0  0  0  0  0
  -22.9021  -18.3154   16.4212 C   0  0  0  0  0  0  0  0  0  0  0  0
  -22.0008  -17.8375   17.3874 C   0  0  0  0  0  0  0  0  0  0  0  0
  -22.3923  -17.2998   18.5398 N   0  0  0  0  0  0  0  0  0  0  0  0
  -20.6785  -18.0042   17.1509 N   0  0  0  0  0  0  0  0  0  0  0  0
  -20.3106  -18.5735   15.9914 C   0  0  0  0  0  0  0  0  0  0  0  0
  -21.0658  -19.0728   15.0108 N   0  0  0  0  0  0  0  0  0  0  0  0
  -22.3611  -18.8934   15.2851 C   0  0  0  0  0  0  0  0  0  0  0  0
  -20.8662  -22.8633   13.7298 H   0  0  0  0  0  0  0  0  0  0  0  0
  -19.7032  -21.7084   13.0027 H   0  0  0  0  0  0  0  0  0  0  0  0
  -22.1962  -21.9405   11.5636 H   0  0  0  0  0  0  0  0  0  0  0  0
  -20.5686  -19.4252   12.6065 H   0  0  0  0  0  0  0  0  0  0  0  0
  -22.4626  -18.1946   12.4478 H   0  0  0  0  0  0  0  0  0  0  0  0
  -24.3229  -19.1318   11.2073 H   0  0  0  0  0  0  0  0  0  0  0  0
  -24.3865  -20.2319   12.9418 H   0  0  0  0  0  0  0  0  0  0  0  0
  -25.6118  -19.0626   14.8643 H   0  0  0  0  0  0  0  0  0  0  0  0
  -21.6915  -16.9639   19.2158 H   0  0  0  0  0  0  0  0  0  0  0  0
  -23.3962  -17.2194   18.7559 H   0  0  0  0  0  0  0  0  0  0  0  0
  -19.2251  -18.6378   15.8253 H   0  0  0  0  0  0  0  0  0  0  0  0
  1  2  2  0
  1  3  1  1
  1  4  1  0
  1 14  1  0
  5  6  2  0
  5  7  1  6
  5  8  1  0
  5  9  1  0
  9 10  1  0
 11 10  1  0
 11 12  1  0
 11 13  1  0
 12 17  1  0
 13 14  1  0
 13 15  1  0
 15 16  1  0
 15 17  1  0
 17 18  1  0
 18 19  1  0
 18 27  1  0
 19 20  2  0
 20 21  1  0
 21 22  2  0
 21 27  1  0
 22 23  1  0
 22 24  1  0
 24 25  2  0
 25 26  1  0
 26 27  2  0
 10 28  1  0
 10 29  1  0
 11 30  1  6
 13 31  1  1
 15 32  1  1
 16 33  1  0
 17 34  1  6
 19 35  1  0
 23 36  1  0
 23 37  1  0
 25 38  1  0
M  CHG  4   3  -1   4  -1   7  -1   8  -1
M  END
>  <filename_input>  (3) 
7ED2_A3P_docked.sdf

>  <pdb_id>  (3) 
7ED2_A3P

>  <pose_rank>  (3) 
2

>  <num_atoms_heavy>  (3) 
27

>  <num_torsions>  (3) 
6

>  <pose>  (3) 
[-21.741052025862555, -21.419360811842438, 12.418719201527805, 1.4888862181391664, 5.600337958155408, -0.4419037093949731, -3.2815659825016947, 1.417932493818752, -0.13806158299769522, -2.717232125125128, 0.6858991229579818, -1.2156378364924125]

>  <energy>  (3) 
-641.1069431959704

>  <inter_energy>  (3) 
-655.902288648633

>  <intra_energy>  (3) 
29.057336738763478

>  <rmsd>  (3) 
2.42633

>  <sdf_rank>  (3) 
0

$$$$

     RDKit          3D

 38 40  0  0  0  0  0  0  0  0999 V2000
  -22.4807  -18.4203    8.8113 P   0  0  1  0  0  0  0  0  0  0  0  0
  -22.6150  -19.0578    7.4066 O   0  0  0  0  0  0  0  0  0  0  0  0
  -21.0168  -18.1437    9.2338 O   0  0  0  0  0  0  0  0  0  0  0  0
  -23.3403  -17.2385    9.0479 O   0  0  0  0  0  0  0  0  0  0  0  0
  -20.4035  -23.9756   11.7015 P   0  0  2  0  0  0  0  0  0  0  0  0
  -19.0598  -23.1754   11.6345 O   0  0  0  0  0  0  0  0  0  0  0  0
  -20.8527  -24.2373   13.0977 O   0  0  0  0  0  0  0  0  0  0  0  0
  -20.3569  -25.1993   10.8569 O   0  0  0  0  0  0  0  0  0  0  0  0
  -21.5202  -23.0796   10.9885 O   0  0  0  0  0  0  0  0  0  0  0  0
  -21.3039  -21.6371   11.0205 C   0  0  0  0  0  0  0  0  0  0  0  0
  -22.5355  -20.9695   11.5591 C   0  0  1  0  0  0  0  0  0  0  0  0
  -22.5190  -20.9461   12.9985 O   0  0  0  0  0  0  0  0  0  0  0  0
  -22.6481  -19.4971   11.1899 C   0  0  1  0  0  0  0  0  0  0  0  0
  -23.0090  -19.5739    9.8457 O   0  0  0  0  0  0  0  0  0  0  0  0
  -23.6364  -19.0056   12.2317 C   0  0  1  0  0  0  0  0  0  0  0  0
  -24.9693  -19.0770   11.7949 O   0  0  0  0  0  0  0  0  0  0  0  0
  -23.3785  -19.9278   13.4282 C   0  0  2  0  0  0  0  0  0  0  0  0
  -22.7256  -19.2297   14.5100 N   0  0  0  0  0  0  0  0  0  0  0  0
  -23.1672  -18.0502   15.1611 C   0  0  0  0  0  0  0  0  0  0  0  0
  -22.3965  -17.7302   16.1853 N   0  0  0  0  0  0  0  0  0  0  0  0
  -21.4035  -18.7094   16.1890 C   0  0  0  0  0  0  0  0  0  0  0  0
  -20.2987  -18.9122   17.0331 C   0  0  0  0  0  0  0  0  0  0  0  0
  -20.0304  -18.1298   18.0754 N   0  0  0  0  0  0  0  0  0  0  0  0
  -19.5235  -19.9980   16.8044 N   0  0  0  0  0  0  0  0  0  0  0  0
  -19.8314  -20.7862   15.7615 C   0  0  0  0  0  0  0  0  0  0  0  0
  -20.8510  -20.7041   14.9041 N   0  0  0  0  0  0  0  0  0  0  0  0
  -21.5930  -19.6245   15.1671 C   0  0  0  0  0  0  0  0  0  0  0  0
  -20.4461  -21.4072   11.6695 H   0  0  0  0  0  0  0  0  0  0  0  0
  -21.0968  -21.2701   10.0044 H   0  0  0  0  0  0  0  0  0  0  0  0
  -23.3596  -21.5553   11.1260 H   0  0  0  0  0  0  0  0  0  0  0  0
  -21.8044  -18.7922   11.2256 H   0  0  0  0  0  0  0  0  0  0  0  0
  -23.4950  -17.9406   12.4680 H   0  0  0  0  0  0  0  0  0  0  0  0
  -25.5724  -19.1093   12.5794 H   0  0  0  0  0  0  0  0  0  0  0  0
  -24.3429  -20.3125   13.7915 H   0  0  0  0  0  0  0  0  0  0  0  0
  -24.0482  -17.4696   14.8501 H   0  0  0  0  0  0  0  0  0  0  0  0
  -19.2072  -18.3207   18.6643 H   0  0  0  0  0  0  0  0  0  0  0  0
  -20.6459  -17.3332   18.2933 H   0  0  0  0  0  0  0  0  0  0  0  0
  -19.1403  -21.6242   15.5880 H   0  0  0  0  0  0  0  0  0  0  0  0
  1  2  2  0
  1  3  1  1
  1  4  1  0
  1 14  1  0
  5  6  2  0
  5  7  1  1
  5  8  1  0
  5  9  1  0
  9 10  1  0
 11 10  1  0
 11 12  1  0
 11 13  1  0
 12 17  1  0
 13 14  1  0
 13 15  1  0
 15 16  1  0
 15 17  1  0
 17 18  1  0
 18 19  1  0
 18 27  1  0
 19 20  2  0
 20 21  1  0
 21 22  2  0
 21 27  1  0
 22 23  1  0
 22 24  1  0
 24 25  2  0
 25 26  1  0
 26 27  2  0
 10 28  1  0
 10 29  1  0
 11 30  1  1
 13 31  1  6
 15 32  1  1
 16 33  1  0
 17 34  1  1
 19 35  1  0
 23 36  1  0
 23 37  1  0
 25 38  1  0
M  CHG  4   3  -1   4  -1   7  -1   8  -1
M  END
>  <filename_input>  (4) 
7ED2_A3P_docked.sdf

>  <pdb_id>  (4) 
7ED2_A3P

>  <pose_rank>  (4) 
3

>  <num_atoms_heavy>  (4) 
27

>  <num_torsions>  (4) 
6

>  <pose>  (4) 
[-22.535461293208034, -20.96949926998356, 11.559138783538893, -0.2961298601137379, -4.278986399370906, -4.133558631645373, 1.8443405239169617, 6.770449069451812, 7.111488117337643, 13.255594261814226, 0.465373589026276, 6.094862625508015]

>  <energy>  (4) 
-711.8809924137186

>  <inter_energy>  (4) 
-719.3050593798466

>  <intra_energy>  (4) 
27.415378838472595

>  <rmsd>  (4) 
2.10807

>  <sdf_rank>  (4) 
0

$$$$

     RDKit          3D

 38 40  0  0  0  0  0  0  0  0999 V2000
  -20.7078  -20.8732   15.5926 P   0  0  1  0  0  0  0  0  0  0  0  0
  -20.6690  -21.9201   16.7328 O   0  0  0  0  0  0  0  0  0  0  0  0
  -20.0411  -19.5248   15.9604 O   0  0  0  0  0  0  0  0  0  0  0  0
  -20.2391  -21.3626   14.2764 O   0  0  0  0  0  0  0  0  0  0  0  0
  -23.8573  -17.9121   17.6710 P   0  0  2  0  0  0  0  0  0  0  0  0
  -22.8485  -16.7655   18.0142 O   0  0  0  0  0  0  0  0  0  0  0  0
  -25.2764  -17.5255   17.9088 O   0  0  0  0  0  0  0  0  0  0  0  0
  -23.4766  -19.1928   18.3249 O   0  0  0  0  0  0  0  0  0  0  0  0
  -23.6925  -18.2323   16.1126 O   0  0  0  0  0  0  0  0  0  0  0  0
  -24.7787  -18.9832   15.4922 C   0  0  0  0  0  0  0  0  0  0  0  0
  -24.2141  -19.8567   14.4102 C   0  0  1  0  0  0  0  0  0  0  0  0
  -24.6668  -19.4253   13.1135 O   0  0  0  0  0  0  0  0  0  0  0  0
  -22.6985  -19.7845   14.2899 C   0  0  1  0  0  0  0  0  0  0  0  0
  -22.2953  -20.5223   15.4017 O   0  0  0  0  0  0  0  0  0  0  0  0
  -22.4873  -20.3197   12.8854 C   0  0  1  0  0  0  0  0  0  0  0  0
  -22.2873  -21.7096   12.8561 O   0  0  0  0  0  0  0  0  0  0  0  0
  -23.7713  -19.9132   12.1541 C   0  0  2  0  0  0  0  0  0  0  0  0
  -23.5313  -18.8566   11.2002 N   0  0  0  0  0  0  0  0  0  0  0  0
  -24.1802  -17.5979   11.1317 C   0  0  0  0  0  0  0  0  0  0  0  0
  -23.6504  -16.8158   10.2082 N   0  0  0  0  0  0  0  0  0  0  0  0
  -22.6452  -17.5928    9.6332 C   0  0  0  0  0  0  0  0  0  0  0  0
  -21.7315  -17.3189    8.6015 C   0  0  0  0  0  0  0  0  0  0  0  0
  -21.6731  -16.1444    7.9788 N   0  0  0  0  0  0  0  0  0  0  0  0
  -20.8304  -18.2791    8.2881 N   0  0  0  0  0  0  0  0  0  0  0  0
  -20.8943  -19.4461    8.9497 C   0  0  0  0  0  0  0  0  0  0  0  0
  -21.7010  -19.8167    9.9464 N   0  0  0  0  0  0  0  0  0  0  0  0
  -22.5694  -18.8410   10.2280 C   0  0  0  0  0  0  0  0  0  0  0  0
  -25.2744  -19.6083   16.2496 H   0  0  0  0  0  0  0  0  0  0  0  0
  -25.5132  -18.2866   15.0618 H   0  0  0  0  0  0  0  0  0  0  0  0
  -24.5459  -20.8670   14.6916 H   0  0  0  0  0  0  0  0  0  0  0  0
  -22.1259  -18.8465   14.3390 H   0  0  0  0  0  0  0  0  0  0  0  0
  -21.5772  -19.9143   12.4192 H   0  0  0  0  0  0  0  0  0  0  0  0
  -22.2375  -22.0554   13.7825 H   0  0  0  0  0  0  0  0  0  0  0  0
  -24.1628  -20.7887   11.6154 H   0  0  0  0  0  0  0  0  0  0  0  0
  -25.0256  -17.3067   11.7724 H   0  0  0  0  0  0  0  0  0  0  0  0
  -20.9844  -15.9933    7.2279 H   0  0  0  0  0  0  0  0  0  0  0  0
  -22.3165  -15.3864    8.2477 H   0  0  0  0  0  0  0  0  0  0  0  0
  -20.1747  -20.2104    8.6213 H   0  0  0  0  0  0  0  0  0  0  0  0
  1  2  2  0
  1  3  1  1
  1  4  1  0
  1 14  1  0
  5  6  2  0
  5  7  1  6
  5  8  1  0
  5  9  1  0
  9 10  1  0
 11 10  1  0
 11 12  1  0
 11 13  1  0
 12 17  1  0
 13 14  1  0
 13 15  1  0
 15 16  1  0
 15 17  1  0
 17 18  1  0
 18 19  1  0
 18 27  1  0
 19 20  2  0
 20 21  1  0
 21 22  2  0
 21 27  1  0
 22 23  1  0
 22 24  1  0
 24 25  2  0
 25 26  1  0
 26 27  2  0
 10 28  1  0
 10 29  1  0
 11 30  1  1
 13 31  1  6
 15 32  1  6
 16 33  1  0
 17 34  1  6
 19 35  1  0
 23 36  1  0
 23 37  1  0
 25 38  1  0
M  CHG  4   3  -1   4  -1   7  -1   8  -1
M  END
>  <filename_input>  (5) 
7ED2_A3P_docked.sdf

>  <pdb_id>  (5) 
7ED2_A3P

>  <pose_rank>  (5) 
4

>  <num_atoms_heavy>  (5) 
27

>  <num_torsions>  (5) 
6

>  <pose>  (5) 
[-24.214140555238547, -19.856742485119643, 14.410186371448777, -1.8690009974689317, -1.666706714985331, -0.11679340095205432, -1.2959911037280012, 3.3124990046254017, 0.48565203667302415, -1.6760373332049754, -0.24585759983379635, 0.34996163196751884]

>  <energy>  (5) 
-545.9199837529338

>  <inter_energy>  (5) 
-620.3742545672726

>  <intra_energy>  (5) 
72.24189655052899

>  <rmsd>  (5) 
7.13312

>  <sdf_rank>  (5) 
0

$$$$

     RDKit          3D

 38 40  0  0  0  0  0  0  0  0999 V2000
  -21.3770  -18.1805    8.6796 P   0  0  1  0  0  0  0  0  0  0  0  0
  -21.8857  -16.7306    8.8703 O   0  0  0  0  0  0  0  0  0  0  0  0
  -21.4981  -18.6982    7.2251 O   0  0  0  0  0  0  0  0  0  0  0  0
  -20.0319  -18.4509    9.2355 O   0  0  0  0  0  0  0  0  0  0  0  0
  -18.6481  -21.5983   11.3961 P   0  0  2  0  0  0  0  0  0  0  0  0
  -18.9708  -23.0956   11.0732 O   0  0  0  0  0  0  0  0  0  0  0  0
  -17.9193  -20.9120   10.2927 O   0  0  0  0  0  0  0  0  0  0  0  0
  -17.9876  -21.4521   12.7209 O   0  0  0  0  0  0  0  0  0  0  0  0
  -20.0466  -20.8491   11.5983 O   0  0  0  0  0  0  0  0  0  0  0  0
  -21.1831  -21.4014   10.8689 C   0  0  0  0  0  0  0  0  0  0  0  0
  -22.4162  -20.6213   11.2208 C   0  0  1  0  0  0  0  0  0  0  0  0
  -22.6644  -20.6649   12.6381 O   0  0  0  0  0  0  0  0  0  0  0  0
  -22.3031  -19.1306   10.9346 C   0  0  1  0  0  0  0  0  0  0  0  0
  -22.4146  -19.1044    9.5453 O   0  0  0  0  0  0  0  0  0  0  0  0
  -23.4102  -18.5760   11.8123 C   0  0  1  0  0  0  0  0  0  0  0  0
  -24.6391  -18.4735   11.1400 O   0  0  0  0  0  0  0  0  0  0  0  0
  -23.4769  -19.5749   12.9726 C   0  0  2  0  0  0  0  0  0  0  0  0
  -22.9662  -19.0062   14.1973 N   0  0  0  0  0  0  0  0  0  0  0  0
  -23.7051  -18.3441   15.2101 C   0  0  0  0  0  0  0  0  0  0  0  0
  -22.9545  -18.0399   16.2539 N   0  0  0  0  0  0  0  0  0  0  0  0
  -21.6806  -18.4874   15.9048 C   0  0  0  0  0  0  0  0  0  0  0  0
  -20.4585  -18.4507   16.5972 C   0  0  0  0  0  0  0  0  0  0  0  0
  -20.3368  -17.9544   17.8258 N   0  0  0  0  0  0  0  0  0  0  0  0
  -19.3813  -19.0142   16.0019 N   0  0  0  0  0  0  0  0  0  0  0  0
  -19.5371  -19.5315   14.7723 C   0  0  0  0  0  0  0  0  0  0  0  0
  -20.6383  -19.6346   14.0253 N   0  0  0  0  0  0  0  0  0  0  0  0
  -21.6773  -19.0725   14.6498 C   0  0  0  0  0  0  0  0  0  0  0  0
  -20.9973  -21.3290    9.7872 H   0  0  0  0  0  0  0  0  0  0  0  0
  -21.3217  -22.4579   11.1419 H   0  0  0  0  0  0  0  0  0  0  0  0
  -23.2027  -21.0880   10.6096 H   0  0  0  0  0  0  0  0  0  0  0  0
  -21.4114  -18.5299   11.1670 H   0  0  0  0  0  0  0  0  0  0  0  0
  -23.2040  -17.5462   12.1394 H   0  0  0  0  0  0  0  0  0  0  0  0
  -25.3731  -18.4123   11.8016 H   0  0  0  0  0  0  0  0  0  0  0  0
  -24.5269  -19.8618   13.1313 H   0  0  0  0  0  0  0  0  0  0  0  0
  -24.7775  -18.1111   15.1357 H   0  0  0  0  0  0  0  0  0  0  0  0
  -19.4178  -17.9504   18.2909 H   0  0  0  0  0  0  0  0  0  0  0  0
  -21.1616  -17.5741   18.3116 H   0  0  0  0  0  0  0  0  0  0  0  0
  -18.6205  -19.9294   14.3124 H   0  0  0  0  0  0  0  0  0  0  0  0
  1  2  2  0
  1  3  1  6
  1  4  1  0
  1 14  1  0
  5  6  2  0
  5  7  1  6
  5  8  1  0
  5  9  1  0
  9 10  1  0
 11 10  1  0
 11 12  1  0
 11 13  1  0
 12 17  1  0
 13 14  1  0
 13 15  1  0
 15 16  1  0
 15 17  1  0
 17 18  1  0
 18 19  1  0
 18 27  1  0
 19 20  2  0
 20 21  1  0
 21 22  2  0
 21 27  1  0
 22 23  1  0
 22 24  1  0
 24 25  2  0
 25 26  1  0
 26 27  2  0
 10 28  1  0
 10 29  1  0
 11 30  1  6
 13 31  1  6
 15 32  1  1
 16 33  1  0
 17 34  1  1
 19 35  1  0
 23 36  1  0
 23 37  1  0
 25 38  1  0
M  CHG  4   3  -1   4  -1   7  -1   8  -1
M  END
>  <filename_input>  (6) 
7ED2_A3P_docked.sdf

>  <pdb_id>  (6) 
7ED2_A3P

>  <pose_rank>  (6) 
5

>  <num_atoms_heavy>  (6) 
27

>  <num_torsions>  (6) 
6

>  <pose>  (6) 
[-22.41615993950705, -20.62126291448697, 11.220769655810313, -2.6803659395858337, -1.8570486860862208, -5.200450244828268, -3.7894665203103703, -2.0160668851274823, -0.12981536803801896, 0.6744065097344153, 0.6716260106385461, 1.9670175467696476]

>  <energy>  (6) 
-616.6341579382156

>  <inter_energy>  (6) 
-651.5333358053518

>  <intra_energy>  (6) 
44.717120052666985

>  <rmsd>  (6) 
2.46829

>  <sdf_rank>  (6) 
0

$$$$

     RDKit          3D

 38 40  0  0  0  0  0  0  0  0999 V2000
  -19.3872  -22.9875   13.3057 P   0  0  1  0  0  0  0  0  0  0  0  0
  -18.2187  -23.1065   14.3146 O   0  0  0  0  0  0  0  0  0  0  0  0
  -19.1525  -23.7608   11.9847 O   0  0  0  0  0  0  0  0  0  0  0  0
  -20.7284  -23.2726   13.8638 O   0  0  0  0  0  0  0  0  0  0  0  0
  -21.0222  -17.9348    9.2317 P   0  0  2  0  0  0  0  0  0  0  0  0
  -21.5026  -16.4588    9.0298 O   0  0  0  0  0  0  0  0  0  0  0  0
  -19.9372  -18.3249    8.2881 O   0  0  0  0  0  0  0  0  0  0  0  0
  -22.1646  -18.8874    9.2446 O   0  0  0  0  0  0  0  0  0  0  0  0
  -20.4392  -18.0403   10.7174 O   0  0  0  0  0  0  0  0  0  0  0  0
  -20.7789  -19.2513   11.4567 C   0  0  0  0  0  0  0  0  0  0  0  0
  -20.0498  -19.2444   12.7686 C   0  0  1  0  0  0  0  0  0  0  0  0
  -20.5772  -18.2303   13.6438 O   0  0  0  0  0  0  0  0  0  0  0  0
  -20.2239  -20.5232   13.5755 C   0  0  1  0  0  0  0  0  0  0  0  0
  -19.4071  -21.4085   12.8740 O   0  0  0  0  0  0  0  0  0  0  0  0
  -19.8411  -20.0502   14.9660 C   0  0  1  0  0  0  0  0  0  0  0  0
  -18.4750  -20.2224   15.2433 O   0  0  0  0  0  0  0  0  0  0  0  0
  -20.2391  -18.5703   14.9593 C   0  0  2  0  0  0  0  0  0  0  0  0
  -21.3957  -18.3243   15.7873 N   0  0  0  0  0  0  0  0  0  0  0  0
  -21.4954  -17.4230   16.8773 C   0  0  0  0  0  0  0  0  0  0  0  0
  -22.7255  -17.3551   17.3545 N   0  0  0  0  0  0  0  0  0  0  0  0
  -23.4478  -18.2592   16.5762 C   0  0  0  0  0  0  0  0  0  0  0  0
  -24.8023  -18.6324   16.5981 C   0  0  0  0  0  0  0  0  0  0  0  0
  -25.6869  -18.0993   17.4370 N   0  0  0  0  0  0  0  0  0  0  0  0
  -25.2243  -19.5230   15.6702 N   0  0  0  0  0  0  0  0  0  0  0  0
  -24.3162  -20.0265   14.8184 C   0  0  0  0  0  0  0  0  0  0  0  0
  -23.0177  -19.7442   14.6934 N   0  0  0  0  0  0  0  0  0  0  0  0
  -22.6435  -18.8593   15.6220 C   0  0  0  0  0  0  0  0  0  0  0  0
  -21.8635  -19.2806   11.6379 H   0  0  0  0  0  0  0  0  0  0  0  0
  -20.4859  -20.1368   10.8737 H   0  0  0  0  0  0  0  0  0  0  0  0
  -18.9990  -19.0917   12.4816 H   0  0  0  0  0  0  0  0  0  0  0  0
  -21.1852  -21.0447   13.6939 H   0  0  0  0  0  0  0  0  0  0  0  0
  -20.3434  -20.6297   15.7545 H   0  0  0  0  0  0  0  0  0  0  0  0
  -18.3369  -20.2398   16.2235 H   0  0  0  0  0  0  0  0  0  0  0  0
  -19.3982  -17.9769   15.3476 H   0  0  0  0  0  0  0  0  0  0  0  0
  -20.6480  -16.8478   17.2785 H   0  0  0  0  0  0  0  0  0  0  0  0
  -26.6695  -18.4071   17.4134 H   0  0  0  0  0  0  0  0  0  0  0  0
  -25.3890  -17.3787   18.1100 H   0  0  0  0  0  0  0  0  0  0  0  0
  -24.6998  -20.7844   14.1195 H   0  0  0  0  0  0  0  0  0  0  0  0
  1  2  2  0
  1  3  1  6
  1  4  1  0
  1 14  1  0
  5  6  2  0
  5  7  1  6
  5  8  1  0
  5  9  1  0
  9 10  1  0
 11 10  1  0
 11 12  1  0
 11 13  1  0
 12 17  1  0
 13 14  1  0
 13 15  1  0
 15 16  1  0
 15 17  1  0
 17 18  1  0
 18 19  1  0
 18 27  1  0
 19 20  2  0
 20 21  1  0
 21 22  2  0
 21 27  1  0
 22 23  1  0
 22 24  1  0
 24 25  2  0
 25 26  1  0
 26 27  2  0
 10 28  1  0
 10 29  1  0
 11 30  1  6
 13 31  1  1
 15 32  1  1
 16 33  1  0
 17 34  1  1
 19 35  1  0
 23 36  1  0
 23 37  1  0
 25 38  1  0
M  CHG  4   3  -1   4  -1   7  -1   8  -1
M  END
>  <filename_input>  (7) 
7ED2_A3P_docked.sdf

>  <pdb_id>  (7) 
7ED2_A3P

>  <pose_rank>  (7) 
6

>  <num_atoms_heavy>  (7) 
27

>  <num_torsions>  (7) 
6

>  <pose>  (7) 
[-20.049838295658724, -19.244360767514355, 12.768612064478914, 0.8313727337400588, -1.2528998225194052, -2.5581225819398665, -3.257690572432094, 0.21840454127705494, 12.388370674091005, -2.6891240517071116, 6.264682816262325, -4.605197529091286]

>  <energy>  (7) 
-611.2948376461216

>  <inter_energy>  (7) 
-632.2345998937348

>  <intra_energy>  (7) 
32.73016147041245

>  <rmsd>  (7) 
4.98784

>  <sdf_rank>  (7) 
0

$$$$

     RDKit          3D

 38 40  0  0  0  0  0  0  0  0999 V2000
  -23.3574  -18.9411   16.8505 P   0  0  1  0  0  0  0  0  0  0  0  0
  -23.4247  -20.0572   17.9216 O   0  0  0  0  0  0  0  0  0  0  0  0
  -24.3728  -19.1226   15.6954 O   0  0  0  0  0  0  0  0  0  0  0  0
  -23.3899  -17.5598   17.3819 O   0  0  0  0  0  0  0  0  0  0  0  0
  -18.7839  -23.3145   14.3746 P   0  0  2  0  0  0  0  0  0  0  0  0
  -18.4573  -23.5043   15.8937 O   0  0  0  0  0  0  0  0  0  0  0  0
  -19.1153  -24.5950   13.6890 O   0  0  0  0  0  0  0  0  0  0  0  0
  -17.7292  -22.5283   13.6801 O   0  0  0  0  0  0  0  0  0  0  0  0
  -20.0682  -22.3655   14.2850 O   0  0  0  0  0  0  0  0  0  0  0  0
  -20.2063  -21.3691   15.3418 C   0  0  0  0  0  0  0  0  0  0  0  0
  -20.3893  -20.0163   14.7180 C   0  0  1  0  0  0  0  0  0  0  0  0
  -20.1500  -20.0684   13.2994 O   0  0  0  0  0  0  0  0  0  0  0  0
  -21.8124  -19.4842   14.8101 C   0  0  1  0  0  0  0  0  0  0  0  0
  -21.8870  -19.1194   16.1534 O   0  0  0  0  0  0  0  0  0  0  0  0
  -21.8049  -18.4291   13.7189 C   0  0  1  0  0  0  0  0  0  0  0  0
  -21.4437  -17.1574   14.1930 O   0  0  0  0  0  0  0  0  0  0  0  0
  -20.7879  -18.9709   12.7087 C   0  0  2  0  0  0  0  0  0  0  0  0
  -21.4290  -19.4336   11.5009 N   0  0  0  0  0  0  0  0  0  0  0  0
  -22.0831  -20.6750   11.2974 C   0  0  0  0  0  0  0  0  0  0  0  0
  -22.6611  -20.7430   10.1114 N   0  0  0  0  0  0  0  0  0  0  0  0
  -22.3530  -19.5246    9.5070 C   0  0  0  0  0  0  0  0  0  0  0  0
  -22.6824  -19.0012    8.2453 C   0  0  0  0  0  0  0  0  0  0  0  0
  -23.4378  -19.6536    7.3654 N   0  0  0  0  0  0  0  0  0  0  0  0
  -22.2642  -17.7467    7.9561 N   0  0  0  0  0  0  0  0  0  0  0  0
  -21.5250  -17.1000    8.8721 C   0  0  0  0  0  0  0  0  0  0  0  0
  -21.1605  -17.4839   10.0973 N   0  0  0  0  0  0  0  0  0  0  0  0
  -21.5968  -18.7223   10.3448 C   0  0  0  0  0  0  0  0  0  0  0  0
  -21.0813  -21.6098   15.9634 H   0  0  0  0  0  0  0  0  0  0  0  0
  -19.3046  -21.3686   15.9718 H   0  0  0  0  0  0  0  0  0  0  0  0
  -19.6859  -19.3771   15.2718 H   0  0  0  0  0  0  0  0  0  0  0  0
  -22.7068  -20.0969   14.6241 H   0  0  0  0  0  0  0  0  0  0  0  0
  -22.8039  -18.2731   13.2857 H   0  0  0  0  0  0  0  0  0  0  0  0
  -21.4449  -17.1616   15.1830 H   0  0  0  0  0  0  0  0  0  0  0  0
  -20.0874  -18.1644   12.4462 H   0  0  0  0  0  0  0  0  0  0  0  0
  -22.1065  -21.4862   12.0398 H   0  0  0  0  0  0  0  0  0  0  0  0
  -23.6510  -19.2263    6.4528 H   0  0  0  0  0  0  0  0  0  0  0  0
  -23.8094  -20.5860    7.5969 H   0  0  0  0  0  0  0  0  0  0  0  0
  -21.1667  -16.1057    8.5672 H   0  0  0  0  0  0  0  0  0  0  0  0
  1  2  2  0
  1  3  1  6
  1  4  1  0
  1 14  1  0
  5  6  2  0
  5  7  1  6
  5  8  1  0
  5  9  1  0
  9 10  1  0
 11 10  1  0
 11 12  1  0
 11 13  1  0
 12 17  1  0
 13 14  1  0
 13 15  1  0
 15 16  1  0
 15 17  1  0
 17 18  1  0
 18 19  1  0
 18 27  1  0
 19 20  2  0
 20 21  1  0
 21 22  2  0
 21 27  1  0
 22 23  1  0
 22 24  1  0
 24 25  2  0
 25 26  1  0
 26 27  2  0
 10 28  1  0
 10 29  1  0
 11 30  1  1
 13 31  1  6
 15 32  1  6
 16 33  1  0
 17 34  1  6
 19 35  1  0
 23 36  1  0
 23 37  1  0
 25 38  1  0
M  CHG  4   3  -1   4  -1   7  -1   8  -1
M  END
>  <filename_input>  (8) 
7ED2_A3P_docked.sdf

>  <pdb_id>  (8) 
7ED2_A3P

>  <pose_rank>  (8) 
7

>  <num_atoms_heavy>  (8) 
27

>  <num_torsions>  (8) 
6

>  <pose>  (8) 
[-20.389265418163024, -20.016305403123887, 14.71801582667235, -1.5545033348682418, 2.733586619511022, -0.42931345985590824, -0.5237055513773681, 5.116961128056497, -1.0079389550162872, 1.7226129861555524, 6.505864946378946, -0.9821756271878062]

>  <energy>  (8) 
-571.5181685429262

>  <inter_energy>  (8) 
-555.2300033386671

>  <intra_energy>  (8) 
3.2213676168344643

>  <rmsd>  (8) 
6.33893

>  <sdf_rank>  (8) 
0

$$$$

     RDKit          3D

 38 40  0  0  0  0  0  0  0  0999 V2000
  -22.4859  -17.7974   16.3742 P   0  0  1  0  0  0  0  0  0  0  0  0
  -21.0108  -17.3276   16.3996 O   0  0  0  0  0  0  0  0  0  0  0  0
  -22.8209  -18.8607   17.4490 O   0  0  0  0  0  0  0  0  0  0  0  0
  -23.4900  -16.7097   16.3637 O   0  0  0  0  0  0  0  0  0  0  0  0
  -21.9892  -18.1215    9.6579 P   0  0  2  0  0  0  0  0  0  0  0  0
  -20.9435  -17.6568    8.5900 O   0  0  0  0  0  0  0  0  0  0  0  0
  -22.8915  -19.1956    9.1558 O   0  0  0  0  0  0  0  0  0  0  0  0
  -22.7173  -16.9684   10.2520 O   0  0  0  0  0  0  0  0  0  0  0  0
  -21.1663  -18.7132   10.8952 O   0  0  0  0  0  0  0  0  0  0  0  0
  -21.6200  -18.3084   12.2215 C   0  0  0  0  0  0  0  0  0  0  0  0
  -21.9527  -19.5348   13.0202 C   0  0  1  0  0  0  0  0  0  0  0  0
  -21.1501  -20.6540   12.6010 O   0  0  0  0  0  0  0  0  0  0  0  0
  -21.6269  -19.4105   14.5019 C   0  0  1  0  0  0  0  0  0  0  0  0
  -22.6519  -18.5752   14.9433 O   0  0  0  0  0  0  0  0  0  0  0  0
  -21.5815  -20.8694   14.9182 C   0  0  1  0  0  0  0  0  0  0  0  0
  -22.8229  -21.3461   15.3703 O   0  0  0  0  0  0  0  0  0  0  0  0
  -21.1249  -21.5878   13.6439 C   0  0  2  0  0  0  0  0  0  0  0  0
  -19.7720  -22.0774   13.7621 N   0  0  0  0  0  0  0  0  0  0  0  0
  -18.7554  -21.5921   14.6229 C   0  0  0  0  0  0  0  0  0  0  0  0
  -17.6618  -22.3312   14.5658 N   0  0  0  0  0  0  0  0  0  0  0  0
  -17.9571  -23.3117   13.6191 C   0  0  0  0  0  0  0  0  0  0  0  0
  -17.1989  -24.3856   13.1231 C   0  0  0  0  0  0  0  0  0  0  0  0
  -15.9703  -24.6638   13.5518 N   0  0  0  0  0  0  0  0  0  0  0  0
  -17.7862  -25.2064   12.2210 N   0  0  0  0  0  0  0  0  0  0  0  0
  -19.0365  -24.9182   11.8243 C   0  0  0  0  0  0  0  0  0  0  0  0
  -19.8543  -23.9434   12.2274 N   0  0  0  0  0  0  0  0  0  0  0  0
  -19.2397  -23.1610   13.1193 C   0  0  0  0  0  0  0  0  0  0  0  0
  -20.8229  -17.7439   12.7274 H   0  0  0  0  0  0  0  0  0  0  0  0
  -22.5120  -17.6713   12.1304 H   0  0  0  0  0  0  0  0  0  0  0  0
  -23.0325  -19.6666   12.8571 H   0  0  0  0  0  0  0  0  0  0  0  0
  -20.6992  -18.9629   14.8879 H   0  0  0  0  0  0  0  0  0  0  0  0
  -20.9098  -21.0363   15.7732 H   0  0  0  0  0  0  0  0  0  0  0  0
  -22.8341  -21.3504   16.3602 H   0  0  0  0  0  0  0  0  0  0  0  0
  -21.7921  -22.4434   13.4628 H   0  0  0  0  0  0  0  0  0  0  0  0
  -18.8643  -20.7042   15.2631 H   0  0  0  0  0  0  0  0  0  0  0  0
  -15.4554  -25.4631   13.1559 H   0  0  0  0  0  0  0  0  0  0  0  0
  -15.5343  -24.0797   14.2795 H   0  0  0  0  0  0  0  0  0  0  0  0
  -19.4480  -25.5848   11.0522 H   0  0  0  0  0  0  0  0  0  0  0  0
  1  2  2  0
  1  3  1  1
  1  4  1  0
  1 14  1  0
  5  6  2  0
  5  7  1  6
  5  8  1  0
  5  9  1  0
  9 10  1  0
 11 10  1  0
 11 12  1  0
 11 13  1  0
 12 17  1  0
 13 14  1  0
 13 15  1  0
 15 16  1  0
 15 17  1  0
 17 18  1  0
 18 19  1  0
 18 27  1  0
 19 20  2  0
 20 21  1  0
 21 22  2  0
 21 27  1  0
 22 23  1  0
 22 24  1  0
 24 25  2  0
 25 26  1  0
 26 27  2  0
 10 28  1  0
 10 29  1  0
 11 30  1  1
 13 31  1  6
 15 32  1  1
 16 33  1  0
 17 34  1  6
 19 35  1  0
 23 36  1  0
 23 37  1  0
 25 38  1  0
M  CHG  4   3  -1   4  -1   7  -1   8  -1
M  END
>  <filename_input>  (9) 
7ED2_A3P_docked.sdf

>  <pdb_id>  (9) 
7ED2_A3P

>  <pose_rank>  (9) 
8

>  <num_atoms_heavy>  (9) 
27

>  <num_torsions>  (9) 
6

>  <pose>  (9) 
[-21.95265615331437, -19.53476653231994, 13.02023599272644, -3.7105575760963294, -1.6750332978468938, -1.158377566826013, 0.4583908659334127, -0.48495591168006996, -1.0884432233730323, 3.540620644147252, 0.1948274535084781, -2.273288602158701]

>  <energy>  (9) 
-507.8299662769577

>  <inter_energy>  (9) 
-500.935588278202

>  <intra_energy>  (9) 
2.732597436161373

>  <rmsd>  (9) 
6.91949

>  <sdf_rank>  (9) 
0

$$$$

     RDKit          3D

 38 40  0  0  0  0  0  0  0  0999 V2000
  -22.6456  -18.7024   10.1574 P   0  0  1  0  0  0  0  0  0  0  0  0
  -22.1355  -18.3354    8.7423 O   0  0  0  0  0  0  0  0  0  0  0  0
  -23.7562  -17.7606   10.6843 O   0  0  0  0  0  0  0  0  0  0  0  0
  -23.0153  -20.1240   10.3411 O   0  0  0  0  0  0  0  0  0  0  0  0
  -21.4934  -19.7806   16.0925 P   0  0  2  0  0  0  0  0  0  0  0  0
  -21.2794  -21.2395   16.6177 O   0  0  0  0  0  0  0  0  0  0  0  0
  -20.5796  -18.7942   16.7342 O   0  0  0  0  0  0  0  0  0  0  0  0
  -22.9254  -19.3816   16.1471 O   0  0  0  0  0  0  0  0  0  0  0  0
  -21.1754  -19.7939   14.5251 O   0  0  0  0  0  0  0  0  0  0  0  0
  -20.6283  -18.5607   13.9697 C   0  0  0  0  0  0  0  0  0  0  0  0
  -19.8310  -18.8889   12.7411 C   0  0  1  0  0  0  0  0  0  0  0  0
  -18.8300  -19.8827   13.0289 O   0  0  0  0  0  0  0  0  0  0  0  0
  -20.6493  -19.5326   11.6308 C   0  0  1  0  0  0  0  0  0  0  0  0
  -21.3655  -18.4405   11.1436 O   0  0  0  0  0  0  0  0  0  0  0  0
  -19.5588  -20.1798   10.7968 C   0  0  1  0  0  0  0  0  0  0  0  0
  -19.0842  -19.3413    9.7749 O   0  0  0  0  0  0  0  0  0  0  0  0
  -18.4681  -20.4989   11.8249 C   0  0  2  0  0  0  0  0  0  0  0  0
  -18.3649  -21.9176   12.0716 N   0  0  0  0  0  0  0  0  0  0  0  0
  -19.2294  -22.7168   12.8616 C   0  0  0  0  0  0  0  0  0  0  0  0
  -18.9204  -23.9995   12.7930 N   0  0  0  0  0  0  0  0  0  0  0  0
  -17.8036  -24.0412   11.9589 C   0  0  0  0  0  0  0  0  0  0  0  0
  -17.0195  -25.1154   11.5054 C   0  0  0  0  0  0  0  0  0  0  0  0
  -17.2754  -26.3825   11.8207 N   0  0  0  0  0  0  0  0  0  0  0  0
  -16.0052  -24.8379   10.6531 N   0  0  0  0  0  0  0  0  0  0  0  0
  -15.7844  -23.5530   10.3304 C   0  0  0  0  0  0  0  0  0  0  0  0
  -16.4607  -22.4580   10.6841 N   0  0  0  0  0  0  0  0  0  0  0  0
  -17.4542  -22.7755   11.5192 C   0  0  0  0  0  0  0  0  0  0  0  0
  -21.4501  -17.8792   13.7047 H   0  0  0  0  0  0  0  0  0  0  0  0
  -19.9807  -18.0737   14.7135 H   0  0  0  0  0  0  0  0  0  0  0  0
  -19.4248  -17.9161   12.4269 H   0  0  0  0  0  0  0  0  0  0  0  0
  -21.3984  -20.3198   11.8020 H   0  0  0  0  0  0  0  0  0  0  0  0
  -19.9201  -21.0690   10.2592 H   0  0  0  0  0  0  0  0  0  0  0  0
  -18.6381  -18.5533   10.1752 H   0  0  0  0  0  0  0  0  0  0  0  0
  -17.5029  -20.1398   11.4384 H   0  0  0  0  0  0  0  0  0  0  0  0
  -20.0599  -22.3160   13.4613 H   0  0  0  0  0  0  0  0  0  0  0  0
  -16.6698  -27.1348   11.4625 H   0  0  0  0  0  0  0  0  0  0  0  0
  -18.0790  -26.6112   12.4230 H   0  0  0  0  0  0  0  0  0  0  0  0
  -14.9171  -23.3769    9.6772 H   0  0  0  0  0  0  0  0  0  0  0  0
  1  2  2  0
  1  3  1  1
  1  4  1  0
  1 14  1  0
  5  6  2  0
  5  7  1  1
  5  8  1  0
  5  9  1  0
  9 10  1  0
 11 10  1  0
 11 12  1  0
 11 13  1  0
 12 17  1  0
 13 14  1  0
 13 15  1  0
 15 16  1  0
 15 17  1  0
 17 18  1  0
 18 19  1  0
 18 27  1  0
 19 20  2  0
 20 21  1  0
 21 22  2  0
 21 27  1  0
 22 23  1  0
 22 24  1  0
 24 25  2  0
 25 26  1  0
 26 27  2  0
 10 28  1  0
 10 29  1  0
 11 30  1  6
 13 31  1  1
 15 32  1  6
 16 33  1  0
 17 34  1  6
 19 35  1  0
 23 36  1  0
 23 37  1  0
 25 38  1  0
M  CHG  4   3  -1   4  -1   7  -1   8  -1
M  END
>  <filename_input>  (10) 
7ED2_A3P_docked.sdf

>  <pdb_id>  (10) 
7ED2_A3P

>  <pose_rank>  (10) 
9

>  <num_atoms_heavy>  (10) 
27

>  <num_torsions>  (10) 
6

>  <pose>  (10) 
[-19.830963506974804, -18.88885018412364, 12.741133326860474, -0.9922102602685829, 1.4385966884009869, -2.5474947952985563, -0.4675477460530798, -8.22786271664192, -0.5303893648172785, -1.430052964711813, 0.12607764243483832, 1.4707398335482824]

>  <energy>  (10) 
-512.3035648055737

>  <inter_energy>  (10) 
-503.73822984424606

>  <intra_energy>  (10) 
1.5026833561457538

>  <rmsd>  (10) 
6.99677

>  <sdf_rank>  (10) 
0

$$$$

     RDKit          3D

 38 40  0  0  0  0  0  0  0  0999 V2000
  -18.2792  -19.1827   17.0728 P   0  0  1  0  0  0  0  0  0  0  0  0
  -18.5344  -18.3909   18.3787 O   0  0  0  0  0  0  0  0  0  0  0  0
  -18.1149  -18.2859   15.8211 O   0  0  0  0  0  0  0  0  0  0  0  0
  -17.2014  -20.1943   17.1538 O   0  0  0  0  0  0  0  0  0  0  0  0
  -24.6131  -18.2098   17.7392 P   0  0  2  0  0  0  0  0  0  0  0  0
  -25.4603  -16.9431   18.0969 O   0  0  0  0  0  0  0  0  0  0  0  0
  -25.2111  -19.0141   16.6368 O   0  0  0  0  0  0  0  0  0  0  0  0
  -24.2894  -19.0135   18.9483 O   0  0  0  0  0  0  0  0  0  0  0  0
  -23.1814  -17.6940   17.2470 O   0  0  0  0  0  0  0  0  0  0  0  0
  -22.0376  -18.5190   17.6206 C   0  0  0  0  0  0  0  0  0  0  0  0
  -21.8770  -19.6186   16.6118 C   0  0  1  0  0  0  0  0  0  0  0  0
  -22.8633  -19.5069   15.5691 O   0  0  0  0  0  0  0  0  0  0  0  0
  -20.5602  -19.5667   15.8500 C   0  0  1  0  0  0  0  0  0  0  0  0
  -19.6622  -20.0199   16.8150 O   0  0  0  0  0  0  0  0  0  0  0  0
  -20.8875  -20.4155   14.6351 C   0  0  1  0  0  0  0  0  0  0  0  0
  -20.5720  -21.7720   14.8171 O   0  0  0  0  0  0  0  0  0  0  0  0
  -22.3932  -20.2007   14.4475 C   0  0  2  0  0  0  0  0  0  0  0  0
  -22.6772  -19.3963   13.2830 N   0  0  0  0  0  0  0  0  0  0  0  0
  -22.9120  -17.9987   13.2413 C   0  0  0  0  0  0  0  0  0  0  0  0
  -23.0322  -17.5521   12.0037 N   0  0  0  0  0  0  0  0  0  0  0  0
  -22.9029  -18.6925   11.2114 C   0  0  0  0  0  0  0  0  0  0  0  0
  -22.9394  -18.8672    9.8177 C   0  0  0  0  0  0  0  0  0  0  0  0
  -23.0928  -17.8572    8.9650 N   0  0  0  0  0  0  0  0  0  0  0  0
  -22.7367  -20.1153    9.3348 N   0  0  0  0  0  0  0  0  0  0  0  0
  -22.5585  -21.1129   10.2163 C   0  0  0  0  0  0  0  0  0  0  0  0
  -22.4928  -21.0701   11.5487 N   0  0  0  0  0  0  0  0  0  0  0  0
  -22.6921  -19.8225   11.9835 C   0  0  0  0  0  0  0  0  0  0  0  0
  -21.1279  -17.9009   17.6402 H   0  0  0  0  0  0  0  0  0  0  0  0
  -22.2020  -18.9517   18.6185 H   0  0  0  0  0  0  0  0  0  0  0  0
  -21.9563  -20.5367   17.2125 H   0  0  0  0  0  0  0  0  0  0  0  0
  -20.1197  -18.6397   15.4542 H   0  0  0  0  0  0  0  0  0  0  0  0
  -20.2960  -20.1250   13.7543 H   0  0  0  0  0  0  0  0  0  0  0  0
  -20.5253  -21.9730   15.7854 H   0  0  0  0  0  0  0  0  0  0  0  0
  -22.8765  -21.1808   14.3222 H   0  0  0  0  0  0  0  0  0  0  0  0
  -22.9855  -17.3610   14.1345 H   0  0  0  0  0  0  0  0  0  0  0  0
  -23.1130  -18.0378    7.9512 H   0  0  0  0  0  0  0  0  0  0  0  0
  -23.1912  -16.8949    9.3188 H   0  0  0  0  0  0  0  0  0  0  0  0
  -22.4506  -22.1143    9.7742 H   0  0  0  0  0  0  0  0  0  0  0  0
  1  2  2  0
  1  3  1  6
  1  4  1  0
  1 14  1  0
  5  6  2  0
  5  7  1  6
  5  8  1  0
  5  9  1  0
  9 10  1  0
 11 10  1  0
 11 12  1  0
 11 13  1  0
 12 17  1  0
 13 14  1  0
 13 15  1  0
 15 16  1  0
 15 17  1  0
 17 18  1  0
 18 19  1  0
 18 27  1  0
 19 20  2  0
 20 21  1  0
 21 22  2  0
 21 27  1  0
 22 23  1  0
 22 24  1  0
 24 25  2  0
 25 26  1  0
 26 27  2  0
 10 28  1  0
 10 29  1  0
 11 30  1  1
 13 31  1  6
 15 32  1  6
 16 33  1  0
 17 34  1  6
 19 35  1  0
 23 36  1  0
 23 37  1  0
 25 38  1  0
M  CHG  4   3  -1   4  -1   7  -1   8  -1
M  END
>  <filename_input>  (11) 
7ED2_A3P_docked.sdf

>  <pdb_id>  (11) 
7ED2_A3P

>  <pose_rank>  (11) 
10

>  <num_atoms_heavy>  (11) 
27

>  <num_torsions>  (11) 
6

>  <pose>  (11) 
[-21.876984651152245, -19.618610342473517, 16.61176780786143, -1.8420266471760631, -1.4732533413397293, 0.49165020106306445, -0.8042041650921733, -0.9670240129878545, -1.7471851647072196, -2.601548162070921, 0.7194556817493734, -1.1940726196949756]

>  <energy>  (11) 
-534.7877747456733

>  <inter_energy>  (11) 
-568.7456832997352

>  <intra_energy>  (11) 
37.55815238807515

>  <rmsd>  (11) 
7.26653

>  <sdf_rank>  (11) 
0

$$$$

     RDKit          3D

 38 40  0  0  0  0  0  0  0  0999 V2000
  -19.4624  -21.9118   16.4438 P   0  0  1  0  0  0  0  0  0  0  0  0
  -20.7980  -22.6936   16.3940 O   0  0  0  0  0  0  0  0  0  0  0  0
  -18.7933  -21.9080   17.8404 O   0  0  0  0  0  0  0  0  0  0  0  0
  -18.4907  -22.2631   15.3838 O   0  0  0  0  0  0  0  0  0  0  0  0
  -17.0772  -19.8946   11.7972 P   0  0  2  0  0  0  0  0  0  0  0  0
  -18.0544  -20.9253   11.1395 O   0  0  0  0  0  0  0  0  0  0  0  0
  -16.3391  -19.0755   10.7953 O   0  0  0  0  0  0  0  0  0  0  0  0
  -16.1897  -20.5418   12.8003 O   0  0  0  0  0  0  0  0  0  0  0  0
  -17.9667  -18.9013   12.6807 O   0  0  0  0  0  0  0  0  0  0  0  0
  -18.1467  -19.2721   14.0802 C   0  0  0  0  0  0  0  0  0  0  0  0
  -19.5142  -18.8448   14.5276 C   0  0  1  0  0  0  0  0  0  0  0  0
  -20.2381  -18.2268   13.4476 O   0  0  0  0  0  0  0  0  0  0  0  0
  -20.4175  -20.0009   14.9333 C   0  0  1  0  0  0  0  0  0  0  0  0
  -19.8806  -20.3528   16.1706 O   0  0  0  0  0  0  0  0  0  0  0  0
  -21.7871  -19.3539   14.8376 C   0  0  1  0  0  0  0  0  0  0  0  0
  -22.2049  -18.7804   16.0497 O   0  0  0  0  0  0  0  0  0  0  0  0
  -21.6052  -18.2990   13.7409 C   0  0  2  0  0  0  0  0  0  0  0  0
  -22.2958  -18.6654   12.5273 N   0  0  0  0  0  0  0  0  0  0  0  0
  -23.6585  -19.0324   12.3922 C   0  0  0  0  0  0  0  0  0  0  0  0
  -24.0041  -19.2023   11.1284 N   0  0  0  0  0  0  0  0  0  0  0  0
  -22.8284  -18.9699   10.4151 C   0  0  0  0  0  0  0  0  0  0  0  0
  -22.5540  -18.9982    9.0374 C   0  0  0  0  0  0  0  0  0  0  0  0
  -23.4828  -19.2522    8.1190 N   0  0  0  0  0  0  0  0  0  0  0  0
  -21.2999  -18.6805    8.6393 N   0  0  0  0  0  0  0  0  0  0  0  0
  -20.3878  -18.4028    9.5852 C   0  0  0  0  0  0  0  0  0  0  0  0
  -20.5297  -18.3333   10.9105 N   0  0  0  0  0  0  0  0  0  0  0  0
  -21.7802  -18.6478   11.2606 C   0  0  0  0  0  0  0  0  0  0  0  0
  -18.0472  -20.3622   14.1885 H   0  0  0  0  0  0  0  0  0  0  0  0
  -17.3825  -18.7764   14.6969 H   0  0  0  0  0  0  0  0  0  0  0  0
  -19.3129  -18.1764   15.3777 H   0  0  0  0  0  0  0  0  0  0  0  0
  -20.4943  -20.9427   14.3702 H   0  0  0  0  0  0  0  0  0  0  0  0
  -22.5763  -20.0849   14.6080 H   0  0  0  0  0  0  0  0  0  0  0  0
  -21.8287  -19.2968   16.8060 H   0  0  0  0  0  0  0  0  0  0  0  0
  -22.0127  -17.3425   14.1003 H   0  0  0  0  0  0  0  0  0  0  0  0
  -24.3474  -19.1608   13.2401 H   0  0  0  0  0  0  0  0  0  0  0  0
  -23.2307  -19.2614    7.1204 H   0  0  0  0  0  0  0  0  0  0  0  0
  -24.4539  -19.4395    8.4068 H   0  0  0  0  0  0  0  0  0  0  0  0
  -19.3725  -18.2028    9.2120 H   0  0  0  0  0  0  0  0  0  0  0  0
  1  2  2  0
  1  3  1  1
  1  4  1  0
  1 14  1  0
  5  6  2  0
  5  7  1  6
  5  8  1  0
  5  9  1  0
  9 10  1  0
 11 10  1  0
 11 12  1  0
 11 13  1  0
 12 17  1  0
 13 14  1  0
 13 15  1  0
 15 16  1  0
 15 17  1  0
 17 18  1  0
 18 19  1  0
 18 27  1  0
 19 20  2  0
 20 21  1  0
 21 22  2  0
 21 27  1  0
 22 23  1  0
 22 24  1  0
 24 25  2  0
 25 26  1  0
 26 27  2  0
 10 28  1  0
 10 29  1  0
 11 30  1  1
 13 31  1  6
 15 32  1  6
 16 33  1  0
 17 34  1  1
 19 35  1  0
 23 36  1  0
 23 37  1  0
 25 38  1  0
M  CHG  4   3  -1   4  -1   7  -1   8  -1
M  END
>  <filename_input>  (12) 
7ED2_A3P_docked.sdf

>  <pdb_id>  (12) 
7ED2_A3P

>  <pose_rank>  (12) 
11

>  <num_atoms_heavy>  (12) 
27

>  <num_torsions>  (12) 
6

>  <pose>  (12) 
[-19.514188422235534, -18.84483907907263, 14.527620500701936, 2.7430117393434448, -1.5126503328938812, -0.7868934172009224, -4.488331247437093, -0.9785229300222186, 0.5062327558556753, 2.7737762427444648, 0.8003948962455917, 2.1612434114460086]

>  <energy>  (12) 
-528.6187297816707

>  <inter_energy>  (12) 
-564.7987849535624

>  <intra_energy>  (12) 
34.588857914430065

>  <rmsd>  (12) 
6.5617

>  <sdf_rank>  (12) 
0

$$$$

     RDKit          3D

 38 40  0  0  0  0  0  0  0  0999 V2000
  -21.2509  -18.2878   16.9661 P   0  0  1  0  0  0  0  0  0  0  0  0
  -21.9608  -17.2904   17.9142 O   0  0  0  0  0  0  0  0  0  0  0  0
  -20.6338  -17.6238   15.7105 O   0  0  0  0  0  0  0  0  0  0  0  0
  -20.2844  -19.1968   17.6226 O   0  0  0  0  0  0  0  0  0  0  0  0
  -27.8420  -19.0715   15.6307 P   0  0  2  0  0  0  0  0  0  0  0  0
  -28.0586  -19.2386   14.0895 O   0  0  0  0  0  0  0  0  0  0  0  0
  -28.8676  -19.7870   16.4406 O   0  0  0  0  0  0  0  0  0  0  0  0
  -27.6804  -17.6426   16.0111 O   0  0  0  0  0  0  0  0  0  0  0  0
  -26.4155  -19.7071   15.9764 O   0  0  0  0  0  0  0  0  0  0  0  0
  -25.2511  -18.8964   15.6365 C   0  0  0  0  0  0  0  0  0  0  0  0
  -24.1894  -19.7842   15.0558 C   0  0  1  0  0  0  0  0  0  0  0  0
  -24.4412  -20.0419   13.6620 O   0  0  0  0  0  0  0  0  0  0  0  0
  -22.8018  -19.1586   15.0473 C   0  0  1  0  0  0  0  0  0  0  0  0
  -22.4492  -19.2446   16.3932 O   0  0  0  0  0  0  0  0  0  0  0  0
  -22.0996  -20.0102   14.0055 C   0  0  1  0  0  0  0  0  0  0  0  0
  -21.4461  -21.1224   14.5610 O   0  0  0  0  0  0  0  0  0  0  0  0
  -23.2351  -20.4276   13.0647 C   0  0  2  0  0  0  0  0  0  0  0  0
  -23.1441  -19.7596   11.7882 N   0  0  0  0  0  0  0  0  0  0  0  0
  -24.2103  -19.2293   11.0186 C   0  0  0  0  0  0  0  0  0  0  0  0
  -23.7782  -18.5833    9.9503 N   0  0  0  0  0  0  0  0  0  0  0  0
  -22.3912  -18.7184   10.0030 C   0  0  0  0  0  0  0  0  0  0  0  0
  -21.3769  -18.2508    9.1505 C   0  0  0  0  0  0  0  0  0  0  0  0
  -21.6214  -17.5118    8.0713 N   0  0  0  0  0  0  0  0  0  0  0  0
  -20.0946  -18.5125    9.4960 N   0  0  0  0  0  0  0  0  0  0  0  0
  -19.8742  -19.2385   10.6043 C   0  0  0  0  0  0  0  0  0  0  0  0
  -20.7453  -19.7235   11.4916 N   0  0  0  0  0  0  0  0  0  0  0  0
  -21.9961  -19.4394   11.1172 C   0  0  0  0  0  0  0  0  0  0  0  0
  -25.5367  -18.1321   14.8987 H   0  0  0  0  0  0  0  0  0  0  0  0
  -24.8672  -18.4006   16.5402 H   0  0  0  0  0  0  0  0  0  0  0  0
  -24.2212  -20.6796   15.6939 H   0  0  0  0  0  0  0  0  0  0  0  0
  -22.6038  -18.1154   14.7601 H   0  0  0  0  0  0  0  0  0  0  0  0
  -21.2945  -19.4615   13.4950 H   0  0  0  0  0  0  0  0  0  0  0  0
  -21.4796  -21.0654   15.5488 H   0  0  0  0  0  0  0  0  0  0  0  0
  -23.1733  -21.5129   12.8969 H   0  0  0  0  0  0  0  0  0  0  0  0
  -25.2727  -19.3426   11.2804 H   0  0  0  0  0  0  0  0  0  0  0  0
  -20.8422  -17.1933    7.4778 H   0  0  0  0  0  0  0  0  0  0  0  0
  -22.5900  -17.2581    7.8295 H   0  0  0  0  0  0  0  0  0  0  0  0
  -18.8184  -19.4675   10.8116 H   0  0  0  0  0  0  0  0  0  0  0  0
  1  2  2  0
  1  3  1  6
  1  4  1  0
  1 14  1  0
  5  6  2  0
  5  7  1  1
  5  8  1  0
  5  9  1  0
  9 10  1  0
 11 10  1  0
 11 12  1  0
 11 13  1  0
 12 17  1  0
 13 14  1  0
 13 15  1  0
 15 16  1  0
 15 17  1  0
 17 18  1  0
 18 19  1  0
 18 27  1  0
 19 20  2  0
 20 21  1  0
 21 22  2  0
 21 27  1  0
 22 23  1  0
 22 24  1  0
 24 25  2  0
 25 26  1  0
 26 27  2  0
 10 28  1  0
 10 29  1  0
 11 30  1  1
 13 31  1  6
 15 32  1  6
 16 33  1  0
 17 34  1  6
 19 35  1  0
 23 36  1  0
 23 37  1  0
 25 38  1  0
M  CHG  4   3  -1   4  -1   7  -1   8  -1
M  END
>  <filename_input>  (13) 
7ED2_A3P_docked.sdf

>  <pdb_id>  (13) 
7ED2_A3P

>  <pose_rank>  (13) 
12

>  <num_atoms_heavy>  (13) 
27

>  <num_torsions>  (13) 
6

>  <pose>  (13) 
[-24.189369714132464, -19.784189904255946, 15.05581136725209, -1.801523327875394, -2.271360087462061, 0.2379695104349679, -1.5639217661973448, 0.42664646658186234, 0.6335811247633939, 2.5174417568826524, 0.21563862649280907, -1.0400054798127067]

>  <energy>  (13) 
-585.308346264955

>  <inter_energy>  (13) 
-619.2130902664145

>  <intra_energy>  (13) 
24.03893122790303

>  <rmsd>  (13) 
7.3093

>  <sdf_rank>  (13) 
0

$$$$

     RDKit          3D

 38 40  0  0  0  0  0  0  0  0999 V2000
  -22.9084  -18.9428   10.4705 P   0  0  1  0  0  0  0  0  0  0  0  0
  -22.5904  -18.5292    9.0127 O   0  0  0  0  0  0  0  0  0  0  0  0
  -24.0543  -18.1248   11.1155 O   0  0  0  0  0  0  0  0  0  0  0  0
  -23.1005  -20.3953   10.6821 O   0  0  0  0  0  0  0  0  0  0  0  0
  -21.6319  -19.1425   16.4177 P   0  0  2  0  0  0  0  0  0  0  0  0
  -20.8116  -20.4113   16.8271 O   0  0  0  0  0  0  0  0  0  0  0  0
  -21.4827  -18.0194   17.3852 O   0  0  0  0  0  0  0  0  0  0  0  0
  -23.0493  -19.4784   16.1166 O   0  0  0  0  0  0  0  0  0  0  0  0
  -21.0632  -18.6504   15.0061 O   0  0  0  0  0  0  0  0  0  0  0  0
  -20.9867  -19.6608   13.9563 C   0  0  0  0  0  0  0  0  0  0  0  0
  -20.0611  -19.1772   12.8783 C   0  0  1  0  0  0  0  0  0  0  0  0
  -18.7973  -19.8638   12.9405 O   0  0  0  0  0  0  0  0  0  0  0  0
  -20.5496  -19.4774   11.4683 C   0  0  1  0  0  0  0  0  0  0  0  0
  -21.5693  -18.5385   11.3209 O   0  0  0  0  0  0  0  0  0  0  0  0
  -19.2608  -19.3540   10.6762 C   0  0  1  0  0  0  0  0  0  0  0  0
  -19.0481  -18.0573   10.1801 O   0  0  0  0  0  0  0  0  0  0  0  0
  -18.1830  -19.7615   11.6865 C   0  0  2  0  0  0  0  0  0  0  0  0
  -17.6139  -21.0500   11.3701 N   0  0  0  0  0  0  0  0  0  0  0  0
  -16.3181  -21.3142   10.8591 C   0  0  0  0  0  0  0  0  0  0  0  0
  -16.0688  -22.6093   10.7833 N   0  0  0  0  0  0  0  0  0  0  0  0
  -17.2442  -23.2135   11.2285 C   0  0  0  0  0  0  0  0  0  0  0  0
  -17.5976  -24.5652   11.3786 C   0  0  0  0  0  0  0  0  0  0  0  0
  -16.7617  -25.5659   11.1135 N   0  0  0  0  0  0  0  0  0  0  0  0
  -18.8222  -24.8427   11.8840 N   0  0  0  0  0  0  0  0  0  0  0  0
  -19.6370  -23.8134   12.1676 C   0  0  0  0  0  0  0  0  0  0  0  0
  -19.4127  -22.5006   12.0796 N   0  0  0  0  0  0  0  0  0  0  0  0
  -18.1940  -22.2702   11.5827 C   0  0  0  0  0  0  0  0  0  0  0  0
  -20.6026  -20.6016   14.3774 H   0  0  0  0  0  0  0  0  0  0  0  0
  -21.9879  -19.8355   13.5354 H   0  0  0  0  0  0  0  0  0  0  0  0
  -19.9963  -18.0939   13.0576 H   0  0  0  0  0  0  0  0  0  0  0  0
  -20.9921  -20.4383   11.1668 H   0  0  0  0  0  0  0  0  0  0  0  0
  -19.2669  -19.9820    9.7731 H   0  0  0  0  0  0  0  0  0  0  0  0
  -18.9448  -17.4273   10.9368 H   0  0  0  0  0  0  0  0  0  0  0  0
  -17.3798  -19.0102   11.6681 H   0  0  0  0  0  0  0  0  0  0  0  0
  -15.6040  -20.5324   10.5607 H   0  0  0  0  0  0  0  0  0  0  0  0
  -17.0690  -26.5408   11.2398 H   0  0  0  0  0  0  0  0  0  0  0  0
  -15.8072  -25.3657   10.7821 H   0  0  0  0  0  0  0  0  0  0  0  0
  -20.6385  -24.0941   12.5257 H   0  0  0  0  0  0  0  0  0  0  0  0
  1  2  2  0
  1  3  1  1
  1  4  1  0
  1 14  1  0
  5  6  2  0
  5  7  1  1
  5  8  1  0
  5  9  1  0
  9 10  1  0
 11 10  1  0
 11 12  1  0
 11 13  1  0
 12 17  1  0
 13 14  1  0
 13 15  1  0
 15 16  1  0
 15 17  1  0
 17 18  1  0
 18 19  1  0
 18 27  1  0
 19 20  2  0
 20 21  1  0
 21 22  2  0
 21 27  1  0
 22 23  1  0
 22 24  1  0
 24 25  2  0
 25 26  1  0
 26 27  2  0
 10 28  1  0
 10 29  1  0
 11 30  1  6
 13 31  1  1
 15 32  1  6
 16 33  1  0
 17 34  1  1
 19 35  1  0
 23 36  1  0
 23 37  1  0
 25 38  1  0
M  CHG  4   3  -1   4  -1   7  -1   8  -1
M  END
>  <filename_input>  (14) 
7ED2_A3P_docked.sdf

>  <pdb_id>  (14) 
7ED2_A3P

>  <pose_rank>  (14) 
13

>  <num_atoms_heavy>  (14) 
27

>  <num_torsions>  (14) 
6

>  <pose>  (14) 
[-20.061146647977974, -19.177213575543636, 12.878308139701238, 1.236725954027455, -2.1665659684279053, 2.6864720745263564, 2.7634791977897035, 7.119516041009943, -18.62657217780468, -10.492579309758176, 13.070157509436603, -10.848197098731083]

>  <energy>  (14) 
-494.82469872187386

>  <inter_energy>  (14) 
-518.9532943007578

>  <intra_energy>  (14) 
22.117215171833134

>  <rmsd>  (14) 
6.71997

>  <sdf_rank>  (14) 
0

$$$$

     RDKit          3D

 38 40  0  0  0  0  0  0  0  0999 V2000
  -23.3034  -18.8997   16.2487 P   0  0  1  0  0  0  0  0  0  0  0  0
  -22.1932  -19.9269   16.5801 O   0  0  0  0  0  0  0  0  0  0  0  0
  -24.7070  -19.5311   16.0774 O   0  0  0  0  0  0  0  0  0  0  0  0
  -23.3510  -17.7189   17.1403 O   0  0  0  0  0  0  0  0  0  0  0  0
  -17.9335  -18.8263   14.1089 P   0  0  2  0  0  0  0  0  0  0  0  0
  -17.5542  -19.5971   15.4174 O   0  0  0  0  0  0  0  0  0  0  0  0
  -17.2054  -19.3279   12.9097 O   0  0  0  0  0  0  0  0  0  0  0  0
  -17.8302  -17.3534   14.2894 O   0  0  0  0  0  0  0  0  0  0  0  0
  -19.4970  -19.0575   13.8637 O   0  0  0  0  0  0  0  0  0  0  0  0
  -20.2852  -17.8649   13.5721 C   0  0  0  0  0  0  0  0  0  0  0  0
  -21.5822  -18.2781   12.9397 C   0  0  1  0  0  0  0  0  0  0  0  0
  -21.3490  -19.0571   11.7518 O   0  0  0  0  0  0  0  0  0  0  0  0
  -22.4194  -19.2088   13.8057 C   0  0  1  0  0  0  0  0  0  0  0  0
  -22.9132  -18.3269   14.7656 O   0  0  0  0  0  0  0  0  0  0  0  0
  -23.3425  -19.8253   12.7706 C   0  0  1  0  0  0  0  0  0  0  0  0
  -24.5422  -19.1114   12.6161 O   0  0  0  0  0  0  0  0  0  0  0  0
  -22.5007  -19.8090   11.4901 C   0  0  2  0  0  0  0  0  0  0  0  0
  -22.0810  -21.1369   11.1097 N   0  0  0  0  0  0  0  0  0  0  0  0
  -22.2511  -21.7630    9.8490 C   0  0  0  0  0  0  0  0  0  0  0  0
  -21.6551  -22.9408    9.7952 N   0  0  0  0  0  0  0  0  0  0  0  0
  -21.1037  -23.1068   11.0654 C   0  0  0  0  0  0  0  0  0  0  0  0
  -20.3510  -24.1533   11.6244 C   0  0  0  0  0  0  0  0  0  0  0  0
  -19.9983  -25.2380   10.9391 N   0  0  0  0  0  0  0  0  0  0  0  0
  -19.9127  -24.0031   12.8962 N   0  0  0  0  0  0  0  0  0  0  0  0
  -20.2610  -22.8870   13.5571 C   0  0  0  0  0  0  0  0  0  0  0  0
  -20.9551  -21.8285   13.1339 N   0  0  0  0  0  0  0  0  0  0  0  0
  -21.3636  -22.0142   11.8754 C   0  0  0  0  0  0  0  0  0  0  0  0
  -20.4875  -17.3194   14.5056 H   0  0  0  0  0  0  0  0  0  0  0  0
  -19.7287  -17.2109   12.8847 H   0  0  0  0  0  0  0  0  0  0  0  0
  -22.0998  -17.3242   12.7603 H   0  0  0  0  0  0  0  0  0  0  0  0
  -22.0032  -20.0543   14.3730 H   0  0  0  0  0  0  0  0  0  0  0  0
  -23.6733  -20.8342   13.0580 H   0  0  0  0  0  0  0  0  0  0  0  0
  -24.9122  -18.8912   13.5076 H   0  0  0  0  0  0  0  0  0  0  0  0
  -23.1065  -19.3866   10.6749 H   0  0  0  0  0  0  0  0  0  0  0  0
  -22.8133  -21.3200    9.0138 H   0  0  0  0  0  0  0  0  0  0  0  0
  -19.4456  -25.9781   11.3949 H   0  0  0  0  0  0  0  0  0  0  0  0
  -20.2779  -25.3376    9.9528 H   0  0  0  0  0  0  0  0  0  0  0  0
  -19.9240  -22.8380   14.6031 H   0  0  0  0  0  0  0  0  0  0  0  0
  1  2  2  0
  1  3  1  6
  1  4  1  0
  1 14  1  0
  5  6  2  0
  5  7  1  6
  5  8  1  0
  5  9  1  0
  9 10  1  0
 11 10  1  0
 11 12  1  0
 11 13  1  0
 12 17  1  0
 13 14  1  0
 13 15  1  0
 15 16  1  0
 15 17  1  0
 17 18  1  0
 18 19  1  0
 18 27  1  0
 19 20  2  0
 20 21  1  0
 21 22  2  0
 21 27  1  0
 22 23  1  0
 22 24  1  0
 24 25  2  0
 25 26  1  0
 26 27  2  0
 10 28  1  0
 10 29  1  0
 11 30  1  6
 13 31  1  1
 15 32  1  1
 16 33  1  0
 17 34  1  6
 19 35  1  0
 23 36  1  0
 23 37  1  0
 25 38  1  0
M  CHG  4   3  -1   4  -1   7  -1   8  -1
M  END
>  <filename_input>  (15) 
7ED2_A3P_docked.sdf

>  <pdb_id>  (15) 
7ED2_A3P

>  <pose_rank>  (15) 
14

>  <num_atoms_heavy>  (15) 
27

>  <num_torsions>  (15) 
6

>  <pose>  (15) 
[-21.582151712287136, -18.27808195967784, 12.939747915605853, 2.4124056129185942, -0.76869588189964, 0.7584033314599127, -3.1854454298838424, -1.9912497855405988, -0.4056511805936278, -2.8154151650885795, 6.63385333015653, 3.9862970765091106]

>  <energy>  (15) 
-593.8005891579456

>  <inter_energy>  (15) 
-604.7374285407246

>  <intra_energy>  (15) 
29.812351977443306

>  <rmsd>  (15) 
6.46842

>  <sdf_rank>  (15) 
0

$$$$

     RDKit          3D

 38 40  0  0  0  0  0  0  0  0999 V2000
  -15.1414  -18.7032   11.7468 P   0  0  1  0  0  0  0  0  0  0  0  0
  -15.6770  -18.4104   13.1698 O   0  0  0  0  0  0  0  0  0  0  0  0
  -15.0900  -17.4558   10.8305 O   0  0  0  0  0  0  0  0  0  0  0  0
  -13.8684  -19.4572   11.6992 O   0  0  0  0  0  0  0  0  0  0  0  0
  -17.1055  -20.2874   14.7298 P   0  0  2  0  0  0  0  0  0  0  0  0
  -17.2230  -21.6119   15.5558 O   0  0  0  0  0  0  0  0  0  0  0  0
  -16.9883  -19.0768   15.5902 O   0  0  0  0  0  0  0  0  0  0  0  0
  -18.1785  -20.1821   13.7050 O   0  0  0  0  0  0  0  0  0  0  0  0
  -15.7712  -20.3961   13.8546 O   0  0  0  0  0  0  0  0  0  0  0  0
  -15.5822  -21.6441   13.1229 C   0  0  0  0  0  0  0  0  0  0  0  0
  -14.9280  -21.3448   11.8057 C   0  0  1  0  0  0  0  0  0  0  0  0
  -14.2698  -22.5131   11.2820 O   0  0  0  0  0  0  0  0  0  0  0  0
  -15.9089  -20.9757   10.7018 C   0  0  1  0  0  0  0  0  0  0  0  0
  -16.2672  -19.6797   11.0696 O   0  0  0  0  0  0  0  0  0  0  0  0
  -15.0684  -21.2263    9.4631 C   0  0  1  0  0  0  0  0  0  0  0  0
  -14.3704  -20.0841    9.0379 O   0  0  0  0  0  0  0  0  0  0  0  0
  -14.1173  -22.3456    9.9003 C   0  0  2  0  0  0  0  0  0  0  0  0
  -14.4433  -23.6014    9.2673 N   0  0  0  0  0  0  0  0  0  0  0  0
  -15.5410  -23.8723    8.4119 C   0  0  0  0  0  0  0  0  0  0  0  0
  -15.4909  -25.0940    7.9115 N   0  0  0  0  0  0  0  0  0  0  0  0
  -14.3447  -25.6517    8.4773 C   0  0  0  0  0  0  0  0  0  0  0  0
  -13.7584  -26.9206    8.3342 C   0  0  0  0  0  0  0  0  0  0  0  0
  -14.2527  -27.8605    7.5324 N   0  0  0  0  0  0  0  0  0  0  0  0
  -12.6000  -27.1561    8.9936 N   0  0  0  0  0  0  0  0  0  0  0  0
  -12.1086  -26.1813    9.7759 C   0  0  0  0  0  0  0  0  0  0  0  0
  -12.5639  -24.9436    9.9814 N   0  0  0  0  0  0  0  0  0  0  0  0
  -13.7030  -24.7506    9.3101 C   0  0  0  0  0  0  0  0  0  0  0  0
  -14.9415  -22.3208   13.7074 H   0  0  0  0  0  0  0  0  0  0  0  0
  -16.5562  -22.1260   12.9528 H   0  0  0  0  0  0  0  0  0  0  0  0
  -14.2505  -20.5092   12.0354 H   0  0  0  0  0  0  0  0  0  0  0  0
  -16.8587  -21.5025   10.5274 H   0  0  0  0  0  0  0  0  0  0  0  0
  -15.6833  -21.4967    8.5921 H   0  0  0  0  0  0  0  0  0  0  0  0
  -14.0590  -19.5746    9.8275 H   0  0  0  0  0  0  0  0  0  0  0  0
  -13.0913  -22.0672    9.6178 H   0  0  0  0  0  0  0  0  0  0  0  0
  -16.3407  -23.1500    8.1908 H   0  0  0  0  0  0  0  0  0  0  0  0
  -13.7854  -28.7757    7.4625 H   0  0  0  0  0  0  0  0  0  0  0  0
  -15.1027  -27.6729    6.9818 H   0  0  0  0  0  0  0  0  0  0  0  0
  -11.1946  -26.4418   10.3299 H   0  0  0  0  0  0  0  0  0  0  0  0
  1  2  2  0
  1  3  1  6
  1  4  1  0
  1 14  1  0
  5  6  2  0
  5  7  1  1
  5  8  1  0
  5  9  1  0
  9 10  1  0
 11 10  1  0
 11 12  1  0
 11 13  1  0
 12 17  1  0
 13 14  1  0
 13 15  1  0
 15 16  1  0
 15 17  1  0
 17 18  1  0
 18 19  1  0
 18 27  1  0
 19 20  2  0
 20 21  1  0
 21 22  2  0
 21 27  1  0
 22 23  1  0
 22 24  1  0
 24 25  2  0
 25 26  1  0
 26 27  2  0
 10 28  1  0
 10 29  1  0
 11 30  1  1
 13 31  1  6
 15 32  1  6
 16 33  1  0
 17 34  1  1
 19 35  1  0
 23 36  1  0
 23 37  1  0
 25 38  1  0
M  CHG  4   3  -1   4  -1   7  -1   8  -1
M  END
>  <filename_input>  (16) 
7ED2_A3P_docked.sdf

>  <pdb_id>  (16) 
7ED2_A3P

>  <pose_rank>  (16) 
15

>  <num_atoms_heavy>  (16) 
27

>  <num_torsions>  (16) 
6

>  <pose>  (16) 
[-14.927992047428384, -21.344792274302517, 11.80567113623591, -0.8523193418559106, 2.3547789830513013, -1.9521046653341716, 0.8015801977532798, 1.7631331270116513, -0.7134033734494288, -4.284013742243293, 3.6439094328968005, 1.2535195286995264]

>  <energy>  (16) 
89.97245162407617

>  <inter_energy>  (16) 
-183.42279425310335

>  <intra_energy>  (16) 
265.84476648395486

>  <rmsd>  (16) 
10.539

>  <sdf_rank>  (16) 
0

$$$$

     RDKit          3D

 38 40  0  0  0  0  0  0  0  0999 V2000
  -31.3327  -17.9069   16.1611 P   0  0  1  0  0  0  0  0  0  0  0  0
  -30.4695  -17.4150   14.9735 O   0  0  0  0  0  0  0  0  0  0  0  0
  -32.1071  -16.7752   16.8807 O   0  0  0  0  0  0  0  0  0  0  0  0
  -32.2171  -19.0551   15.8598 O   0  0  0  0  0  0  0  0  0  0  0  0
  -30.5621  -13.6993   16.0745 P   0  0  2  0  0  0  0  0  0  0  0  0
  -29.9951  -12.2678   15.7927 O   0  0  0  0  0  0  0  0  0  0  0  0
  -31.7104  -14.0513   15.1929 O   0  0  0  0  0  0  0  0  0  0  0  0
  -30.8434  -13.9039   17.5208 O   0  0  0  0  0  0  0  0  0  0  0  0
  -29.3826  -14.7385   15.7792 O   0  0  0  0  0  0  0  0  0  0  0  0
  -29.1737  -15.7761   16.7833 C   0  0  0  0  0  0  0  0  0  0  0  0
  -28.8941  -17.0780   16.0908 C   0  0  1  0  0  0  0  0  0  0  0  0
  -27.5658  -17.0895   15.5358 O   0  0  0  0  0  0  0  0  0  0  0  0
  -28.8908  -18.2817   17.0225 C   0  0  1  0  0  0  0  0  0  0  0  0
  -30.2531  -18.4494   17.2656 O   0  0  0  0  0  0  0  0  0  0  0  0
  -28.1199  -19.2941   16.1951 C   0  0  1  0  0  0  0  0  0  0  0  0
  -28.9535  -20.0894   15.3919 O   0  0  0  0  0  0  0  0  0  0  0  0
  -27.1803  -18.4232   15.3542 C   0  0  2  0  0  0  0  0  0  0  0  0
  -25.8083  -18.5462   15.7860 N   0  0  0  0  0  0  0  0  0  0  0  0
  -25.2853  -18.2677   17.0741 C   0  0  0  0  0  0  0  0  0  0  0  0
  -24.0075  -18.5891   17.1712 N   0  0  0  0  0  0  0  0  0  0  0  0
  -23.6738  -19.0637   15.9031 C   0  0  0  0  0  0  0  0  0  0  0  0
  -22.4652  -19.5543   15.3806 C   0  0  0  0  0  0  0  0  0  0  0  0
  -21.3569  -19.6721   16.1075 N   0  0  0  0  0  0  0  0  0  0  0  0
  -22.4646  -19.9886   14.0986 N   0  0  0  0  0  0  0  0  0  0  0  0
  -23.6035  -19.8825   13.3948 C   0  0  0  0  0  0  0  0  0  0  0  0
  -24.8054  -19.4489   13.7804 N   0  0  0  0  0  0  0  0  0  0  0  0
  -24.7644  -19.0355   15.0503 C   0  0  0  0  0  0  0  0  0  0  0  0
  -28.3183  -15.5061   17.4201 H   0  0  0  0  0  0  0  0  0  0  0  0
  -30.0732  -15.8739   17.4089 H   0  0  0  0  0  0  0  0  0  0  0  0
  -29.6971  -17.1526   15.3428 H   0  0  0  0  0  0  0  0  0  0  0  0
  -28.4149  -18.2852   18.0142 H   0  0  0  0  0  0  0  0  0  0  0  0
  -27.5874  -20.0237   16.8228 H   0  0  0  0  0  0  0  0  0  0  0  0
  -29.5356  -20.6448   15.9688 H   0  0  0  0  0  0  0  0  0  0  0  0
  -27.2468  -18.7443   14.3042 H   0  0  0  0  0  0  0  0  0  0  0  0
  -25.8743  -17.8349   17.8961 H   0  0  0  0  0  0  0  0  0  0  0  0
  -20.4953  -20.0376   15.6773 H   0  0  0  0  0  0  0  0  0  0  0  0
  -21.3605  -19.3977   17.1003 H   0  0  0  0  0  0  0  0  0  0  0  0
  -23.5355  -20.2004   12.3439 H   0  0  0  0  0  0  0  0  0  0  0  0
  1  2  2  0
  1  3  1  1
  1  4  1  0
  1 14  1  0
  5  6  2  0
  5  7  1  6
  5  8  1  0
  5  9  1  0
  9 10  1  0
 11 10  1  0
 11 12  1  0
 11 13  1  0
 12 17  1  0
 13 14  1  0
 13 15  1  0
 15 16  1  0
 15 17  1  0
 17 18  1  0
 18 19  1  0
 18 27  1  0
 19 20  2  0
 20 21  1  0
 21 22  2  0
 21 27  1  0
 22 23  1  0
 22 24  1  0
 24 25  2  0
 25 26  1  0
 26 27  2  0
 10 28  1  0
 10 29  1  0
 11 30  1  6
 13 31  1  1
 15 32  1  1
 16 33  1  0
 17 34  1  6
 19 35  1  0
 23 36  1  0
 23 37  1  0
 25 38  1  0
M  CHG  4   3  -1   4  -1   7  -1   8  -1
M  END
>  <filename_input>  (17) 
7ED2_A3P_docked.sdf

>  <pdb_id>  (17) 
7ED2_A3P

>  <pose_rank>  (17) 
16

>  <num_atoms_heavy>  (17) 
27

>  <num_torsions>  (17) 
6

>  <pose>  (17) 
[-28.894091214866567, -17.077978146623206, 16.090810561912477, -2.4998868748899636, -0.7222754027657211, -2.054370755253, -0.14767163137339945, -24.838295686526365, -19.64679306786005, -2.7805451261964866, -9.10242358869291, -2.8977612784384377]

>  <energy>  (17) 
-147.94392498556385

>  <inter_energy>  (17) 
-317.70871574205955

>  <intra_energy>  (17) 
165.40750755893237

>  <rmsd>  (17) 
9.59352

>  <sdf_rank>  (17) 
0

$$$$

     RDKit          3D

 38 40  0  0  0  0  0  0  0  0999 V2000
  -22.5341  -10.8923    5.7260 P   0  0  1  0  0  0  0  0  0  0  0  0
  -23.6110  -11.6684    4.9288 O   0  0  0  0  0  0  0  0  0  0  0  0
  -21.3918  -10.3279    4.8457 O   0  0  0  0  0  0  0  0  0  0  0  0
  -23.0595   -9.8617    6.6496 O   0  0  0  0  0  0  0  0  0  0  0  0
  -21.3256  -17.2035    8.2699 P   0  0  2  0  0  0  0  0  0  0  0  0
  -21.7461  -18.0310    7.0096 O   0  0  0  0  0  0  0  0  0  0  0  0
  -20.4870  -17.9843    9.2222 O   0  0  0  0  0  0  0  0  0  0  0  0
  -22.4965  -16.5493    8.9133 O   0  0  0  0  0  0  0  0  0  0  0  0
  -20.4535  -15.9672    7.7510 O   0  0  0  0  0  0  0  0  0  0  0  0
  -21.2008  -14.8195    7.2479 C   0  0  0  0  0  0  0  0  0  0  0  0
  -20.3517  -13.5885    7.3757 C   0  0  1  0  0  0  0  0  0  0  0  0
  -18.9567  -13.9086    7.2204 O   0  0  0  0  0  0  0  0  0  0  0  0
  -20.5945  -12.5579    6.2822 C   0  0  1  0  0  0  0  0  0  0  0  0
  -21.8206  -12.0215    6.6724 O   0  0  0  0  0  0  0  0  0  0  0  0
  -19.3241  -11.7318    6.3669 C   0  0  1  0  0  0  0  0  0  0  0  0
  -19.4434  -10.6361    7.2375 O   0  0  0  0  0  0  0  0  0  0  0  0
  -18.2783  -12.7387    6.8580 C   0  0  2  0  0  0  0  0  0  0  0  0
  -17.3370  -13.0812    5.8185 N   0  0  0  0  0  0  0  0  0  0  0  0
  -17.4580  -14.1168    4.8577 C   0  0  0  0  0  0  0  0  0  0  0  0
  -16.4736  -14.0945    3.9769 N   0  0  0  0  0  0  0  0  0  0  0  0
  -15.6671  -13.0336    4.3878 C   0  0  0  0  0  0  0  0  0  0  0  0
  -14.4752  -12.5105    3.8586 C   0  0  0  0  0  0  0  0  0  0  0  0
  -13.9006  -12.9884    2.7577 N   0  0  0  0  0  0  0  0  0  0  0  0
  -13.9391  -11.4269    4.4673 N   0  0  0  0  0  0  0  0  0  0  0  0
  -14.5531  -10.9483    5.5617 C   0  0  0  0  0  0  0  0  0  0  0  0
  -15.6841  -11.3481    6.1468 N   0  0  0  0  0  0  0  0  0  0  0  0
  -16.1828  -12.4138    5.5136 C   0  0  0  0  0  0  0  0  0  0  0  0
  -21.4581  -14.9818    6.1908 H   0  0  0  0  0  0  0  0  0  0  0  0
  -22.1258  -14.6946    7.8299 H   0  0  0  0  0  0  0  0  0  0  0  0
  -20.6167  -13.1913    8.3666 H   0  0  0  0  0  0  0  0  0  0  0  0
  -20.7126  -12.8121    5.2186 H   0  0  0  0  0  0  0  0  0  0  0  0
  -19.0627  -11.2724    5.4022 H   0  0  0  0  0  0  0  0  0  0  0  0
  -19.4088  -10.9538    8.1745 H   0  0  0  0  0  0  0  0  0  0  0  0
  -17.7254  -12.2920    7.6975 H   0  0  0  0  0  0  0  0  0  0  0  0
  -18.2756  -14.8526    4.8470 H   0  0  0  0  0  0  0  0  0  0  0  0
  -13.0262  -12.5697    2.4099 H   0  0  0  0  0  0  0  0  0  0  0  0
  -14.3303  -13.7770    2.2533 H   0  0  0  0  0  0  0  0  0  0  0  0
  -14.0487  -10.1005    6.0483 H   0  0  0  0  0  0  0  0  0  0  0  0
  1  2  2  0
  1  3  1  6
  1  4  1  0
  1 14  1  0
  5  6  2  0
  5  7  1  1
  5  8  1  0
  5  9  1  0
  9 10  1  0
 11 10  1  0
 11 12  1  0
 11 13  1  0
 12 17  1  0
 13 14  1  0
 13 15  1  0
 15 16  1  0
 15 17  1  0
 17 18  1  0
 18 19  1  0
 18 27  1  0
 19 20  2  0
 20 21  1  0
 21 22  2  0
 21 27  1  0
 22 23  1  0
 22 24  1  0
 24 25  2  0
 25 26  1  0
 26 27  2  0
 10 28  1  0
 10 29  1  0
 11 30  1  1
 13 31  1  6
 15 32  1  6
 16 33  1  0
 17 34  1  1
 19 35  1  0
 23 36  1  0
 23 37  1  0
 25 38  1  0
M  CHG  4   3  -1   4  -1   7  -1   8  -1
M  END
>  <filename_input>  (18) 
7ED2_A3P_docked.sdf

>  <pdb_id>  (18) 
7ED2_A3P

>  <pose_rank>  (18) 
17

>  <num_atoms_heavy>  (18) 
27

>  <num_torsions>  (18) 
6

>  <pose>  (18) 
[-20.3516943177211, -13.588545578028809, 7.375693250226124, -0.3148433239740629, 1.8539993402386739, -0.8195115866606261, -0.6686984169832993, -0.4409490536199309, -0.5159634981554594, 2.588950300994987, -0.06607338805627617, -1.2383235584603676]

>  <energy>  (18) 
6.552799485407117

>  <inter_energy>  (18) 
-6.594129221620708

>  <intra_energy>  (18) 
20.047391327376147

>  <rmsd>  (18) 
11.4025

>  <sdf_rank>  (18) 
0

$$$$

     RDKit          3D

 38 40  0  0  0  0  0  0  0  0999 V2000
  -30.9114  -13.5858   15.6301 P   0  0  1  0  0  0  0  0  0  0  0  0
  -30.5361  -14.2558   16.9747 O   0  0  0  0  0  0  0  0  0  0  0  0
  -30.7117  -14.5031   14.3986 O   0  0  0  0  0  0  0  0  0  0  0  0
  -32.2402  -12.9339   15.6042 O   0  0  0  0  0  0  0  0  0  0  0  0
  -26.3126  -10.1057   16.5449 P   0  0  2  0  0  0  0  0  0  0  0  0
  -25.2503  -10.0982   17.6945 O   0  0  0  0  0  0  0  0  0  0  0  0
  -25.8101   -9.4832   15.2880 O   0  0  0  0  0  0  0  0  0  0  0  0
  -27.6165   -9.5517   16.9981 O   0  0  0  0  0  0  0  0  0  0  0  0
  -26.6535  -11.6364   16.2299 O   0  0  0  0  0  0  0  0  0  0  0  0
  -26.9893  -11.9482   14.8448 C   0  0  0  0  0  0  0  0  0  0  0  0
  -28.2011  -11.1579   14.4452 C   0  0  1  0  0  0  0  0  0  0  0  0
  -27.9794  -10.4731   13.1985 O   0  0  0  0  0  0  0  0  0  0  0  0
  -29.4261  -12.0143   14.1571 C   0  0  1  0  0  0  0  0  0  0  0  0
  -29.8173  -12.3825   15.4434 O   0  0  0  0  0  0  0  0  0  0  0  0
  -30.2690  -11.0574   13.3339 C   0  0  1  0  0  0  0  0  0  0  0  0
  -31.1529  -10.2975   14.1174 O   0  0  0  0  0  0  0  0  0  0  0  0
  -29.2267  -10.1779   12.6350 C   0  0  2  0  0  0  0  0  0  0  0  0
  -29.1484  -10.4626   11.2219 N   0  0  0  0  0  0  0  0  0  0  0  0
  -27.9892  -10.7929   10.4755 C   0  0  0  0  0  0  0  0  0  0  0  0
  -28.2763  -11.1032    9.2238 N   0  0  0  0  0  0  0  0  0  0  0  0
  -29.6589  -10.9432    9.1372 C   0  0  0  0  0  0  0  0  0  0  0  0
  -30.5520  -11.1230    8.0675 C   0  0  0  0  0  0  0  0  0  0  0  0
  -30.1664  -11.5415    6.8647 N   0  0  0  0  0  0  0  0  0  0  0  0
  -31.8694  -10.9260    8.3081 N   0  0  0  0  0  0  0  0  0  0  0  0
  -32.2348  -10.5289    9.5380 C   0  0  0  0  0  0  0  0  0  0  0  0
  -31.4882  -10.3373   10.6277 N   0  0  0  0  0  0  0  0  0  0  0  0
  -30.1983  -10.5468   10.3494 C   0  0  0  0  0  0  0  0  0  0  0  0
  -26.1446  -11.6832   14.1919 H   0  0  0  0  0  0  0  0  0  0  0  0
  -27.1984  -13.0237   14.7465 H   0  0  0  0  0  0  0  0  0  0  0  0
  -28.3714  -10.4910   15.3032 H   0  0  0  0  0  0  0  0  0  0  0  0
  -29.3947  -12.9516   13.5823 H   0  0  0  0  0  0  0  0  0  0  0  0
  -30.9301  -11.5860   12.6314 H   0  0  0  0  0  0  0  0  0  0  0  0
  -30.9658  -10.4584   15.0762 H   0  0  0  0  0  0  0  0  0  0  0  0
  -29.5112   -9.1232   12.7643 H   0  0  0  0  0  0  0  0  0  0  0  0
  -26.9702  -10.7911   10.8899 H   0  0  0  0  0  0  0  0  0  0  0  0
  -30.8607  -11.6576    6.1127 H   0  0  0  0  0  0  0  0  0  0  0  0
  -29.1736  -11.7493    6.6855 H   0  0  0  0  0  0  0  0  0  0  0  0
  -33.3094  -10.3323    9.6664 H   0  0  0  0  0  0  0  0  0  0  0  0
  1  2  2  0
  1  3  1  6
  1  4  1  0
  1 14  1  0
  5  6  2  0
  5  7  1  6
  5  8  1  0
  5  9  1  0
  9 10  1  0
 11 10  1  0
 11 12  1  0
 11 13  1  0
 12 17  1  0
 13 14  1  0
 13 15  1  0
 15 16  1  0
 15 17  1  0
 17 18  1  0
 18 19  1  0
 18 27  1  0
 19 20  2  0
 20 21  1  0
 21 22  2  0
 21 27  1  0
 22 23  1  0
 22 24  1  0
 24 25  2  0
 25 26  1  0
 26 27  2  0
 10 28  1  0
 10 29  1  0
 11 30  1  1
 13 31  1  6
 15 32  1  6
 16 33  1  0
 17 34  1  6
 19 35  1  0
 23 36  1  0
 23 37  1  0
 25 38  1  0
M  CHG  4   3  -1   4  -1   7  -1   8  -1
M  END
>  <filename_input>  (19) 
7ED2_A3P_docked.sdf

>  <pdb_id>  (19) 
7ED2_A3P

>  <pose_rank>  (19) 
18

>  <num_atoms_heavy>  (19) 
27

>  <num_torsions>  (19) 
6

>  <pose>  (19) 
[-28.201114891991395, -11.157947221044386, 14.44522037897856, 2.9779082524669924, -1.979474479130375, 0.14340154405251407, -1.3299823785230143, 1.2738327490046653, 2.0073695749789393, -1.4084277526717242, 0.11480598699975501, -0.3890750647900096]

>  <energy>  (19) 
-37.732650306316636

>  <inter_energy>  (19) 
-64.2951978299032

>  <intra_energy>  (19) 
34.05224138176241

>  <rmsd>  (19) 
12.9516

>  <sdf_rank>  (19) 
0

$$$$

     RDKit          3D

 38 40  0  0  0  0  0  0  0  0999 V2000
  -30.9602  -10.9331    9.0294 P   0  0  1  0  0  0  0  0  0  0  0  0
  -30.8904   -9.5599    8.3174 O   0  0  0  0  0  0  0  0  0  0  0  0
  -30.5226  -10.8892   10.5142 O   0  0  0  0  0  0  0  0  0  0  0  0
  -32.2406  -11.6582    8.8683 O   0  0  0  0  0  0  0  0  0  0  0  0
  -29.4532  -10.6761    4.2481 P   0  0  2  0  0  0  0  0  0  0  0  0
  -29.1843  -11.6546    3.0563 O   0  0  0  0  0  0  0  0  0  0  0  0
  -30.5667   -9.7244    3.9760 O   0  0  0  0  0  0  0  0  0  0  0  0
  -28.2042  -10.0092    4.7039 O   0  0  0  0  0  0  0  0  0  0  0  0
  -29.8716  -11.5712    5.5059 O   0  0  0  0  0  0  0  0  0  0  0  0
  -31.3029  -11.6899    5.7628 C   0  0  0  0  0  0  0  0  0  0  0  0
  -31.5138  -12.5703    6.9599 C   0  0  1  0  0  0  0  0  0  0  0  0
  -32.1330  -13.8133    6.5804 O   0  0  0  0  0  0  0  0  0  0  0  0
  -30.2221  -13.0169    7.6299 C   0  0  1  0  0  0  0  0  0  0  0  0
  -29.8282  -11.8493    8.2816 O   0  0  0  0  0  0  0  0  0  0  0  0
  -30.6995  -14.2224    8.4189 C   0  0  1  0  0  0  0  0  0  0  0  0
  -31.1033  -13.8948    9.7236 O   0  0  0  0  0  0  0  0  0  0  0  0
  -31.8645  -14.7572    7.5791 C   0  0  2  0  0  0  0  0  0  0  0  0
  -31.5273  -16.0010    6.9283 N   0  0  0  0  0  0  0  0  0  0  0  0
  -31.5756  -17.3031    7.4872 C   0  0  0  0  0  0  0  0  0  0  0  0
  -31.3092  -18.2377    6.5922 N   0  0  0  0  0  0  0  0  0  0  0  0
  -31.0491  -17.5285    5.4199 C   0  0  0  0  0  0  0  0  0  0  0  0
  -30.7074  -17.9598    4.1270 C   0  0  0  0  0  0  0  0  0  0  0  0
  -30.5978  -19.2442    3.7973 N   0  0  0  0  0  0  0  0  0  0  0  0
  -30.5562  -17.0159    3.1686 N   0  0  0  0  0  0  0  0  0  0  0  0
  -30.6978  -15.7279    3.5220 C   0  0  0  0  0  0  0  0  0  0  0  0
  -31.0290  -15.2004    4.7025 N   0  0  0  0  0  0  0  0  0  0  0  0
  -31.1739  -16.1636    5.6171 C   0  0  0  0  0  0  0  0  0  0  0  0
  -31.7262  -10.6937    5.9586 H   0  0  0  0  0  0  0  0  0  0  0  0
  -31.8023  -12.1288    4.8864 H   0  0  0  0  0  0  0  0  0  0  0  0
  -32.1217  -11.9502    7.6351 H   0  0  0  0  0  0  0  0  0  0  0  0
  -29.3335  -13.3567    7.0778 H   0  0  0  0  0  0  0  0  0  0  0  0
  -29.8999  -14.9625    8.5703 H   0  0  0  0  0  0  0  0  0  0  0  0
  -30.5249  -14.3641   10.3757 H   0  0  0  0  0  0  0  0  0  0  0  0
  -32.7259  -14.9308    8.2408 H   0  0  0  0  0  0  0  0  0  0  0  0
  -31.8076  -17.5108    8.5421 H   0  0  0  0  0  0  0  0  0  0  0  0
  -30.3444  -19.5091    2.8348 H   0  0  0  0  0  0  0  0  0  0  0  0
  -30.7663  -19.9737    4.5048 H   0  0  0  0  0  0  0  0  0  0  0  0
  -30.5134  -14.9992    2.7190 H   0  0  0  0  0  0  0  0  0  0  0  0
  1  2  2  0
  1  3  1  1
  1  4  1  0
  1 14  1  0
  5  6  2  0
  5  7  1  6
  5  8  1  0
  5  9  1  0
  9 10  1  0
 11 10  1  0
 11 12  1  0
 11 13  1  0
 12 17  1  0
 13 14  1  0
 13 15  1  0
 15 16  1  0
 15 17  1  0
 17 18  1  0
 18 19  1  0
 18 27  1  0
 19 20  2  0
 20 21  1  0
 21 22  2  0
 21 27  1  0
 22 23  1  0
 22 24  1  0
 24 25  2  0
 25 26  1  0
 26 27  2  0
 10 28  1  0
 10 29  1  0
 11 30  1  1
 13 31  1  6
 15 32  1  1
 16 33  1  0
 17 34  1  1
 19 35  1  0
 23 36  1  0
 23 37  1  0
 25 38  1  0
M  CHG  4   3  -1   4  -1   7  -1   8  -1
M  END
>  <filename_input>  (20) 
7ED2_A3P_docked.sdf

>  <pdb_id>  (20) 
7ED2_A3P

>  <pose_rank>  (20) 
19

>  <num_atoms_heavy>  (20) 
27

>  <num_torsions>  (20) 
6

>  <pose>  (20) 
[-31.513836647791532, -12.570288857135095, 6.959894320820652, 2.0641201681193975, 0.6220607399183042, -0.8215704725668009, 2.31917801751174, 3.3334488374434943, -0.09640554178641532, -0.5449077362665312, -2.547373962360784, 1.2085098167325026]

>  <energy>  (20) 
-2.4439568850600324

>  <inter_energy>  (20) 
-157.46008588441785

>  <intra_energy>  (20) 
161.7376931945482

>  <rmsd>  (20) 
13.9099

>  <sdf_rank>  (20) 
0

$$$$

     RDKit          3D

 38 40  0  0  0  0  0  0  0  0999 V2000
  -27.9296  -27.4405   18.2262 P   0  0  1  0  0  0  0  0  0  0  0  0
  -27.2056  -28.7666   18.5651 O   0  0  0  0  0  0  0  0  0  0  0  0
  -29.4434  -27.6095   17.9472 O   0  0  0  0  0  0  0  0  0  0  0  0
  -27.6787  -26.3301   19.1725 O   0  0  0  0  0  0  0  0  0  0  0  0
  -31.5693  -25.8500   14.7115 P   0  0  2  0  0  0  0  0  0  0  0  0
  -32.2210  -25.9574   16.1306 O   0  0  0  0  0  0  0  0  0  0  0  0
  -32.2271  -24.8297   13.8478 O   0  0  0  0  0  0  0  0  0  0  0  0
  -31.4449  -27.1823   14.0618 O   0  0  0  0  0  0  0  0  0  0  0  0
  -30.0487  -25.4023   14.9253 O   0  0  0  0  0  0  0  0  0  0  0  0
  -29.0318  -26.3709   14.5298 C   0  0  0  0  0  0  0  0  0  0  0  0
  -27.6771  -25.8301   14.8836 C   0  0  1  0  0  0  0  0  0  0  0  0
  -27.5036  -24.4991   14.3630 O   0  0  0  0  0  0  0  0  0  0  0  0
  -27.4589  -25.6484   16.3790 C   0  0  1  0  0  0  0  0  0  0  0  0
  -27.2862  -26.9668   16.7974 O   0  0  0  0  0  0  0  0  0  0  0  0
  -26.2972  -24.6717   16.3920 C   0  0  1  0  0  0  0  0  0  0  0  0
  -25.0475  -25.3117   16.4253 O   0  0  0  0  0  0  0  0  0  0  0  0
  -26.4930  -23.8705   15.1004 C   0  0  2  0  0  0  0  0  0  0  0  0
  -26.9223  -22.5188   15.3699 N   0  0  0  0  0  0  0  0  0  0  0  0
  -28.1108  -22.1101   16.0261 C   0  0  0  0  0  0  0  0  0  0  0  0
  -28.1514  -20.8026   16.2110 N   0  0  0  0  0  0  0  0  0  0  0  0
  -26.9710  -20.3358   15.6336 C   0  0  0  0  0  0  0  0  0  0  0  0
  -26.4430  -19.0393   15.5119 C   0  0  0  0  0  0  0  0  0  0  0  0
  -27.0472  -17.9620   16.0068 N   0  0  0  0  0  0  0  0  0  0  0  0
  -25.2305  -18.9066   14.9251 N   0  0  0  0  0  0  0  0  0  0  0  0
  -24.6301  -20.0131   14.4574 C   0  0  0  0  0  0  0  0  0  0  0  0
  -25.0224  -21.2872   14.5233 N   0  0  0  0  0  0  0  0  0  0  0  0
  -26.2182  -21.3748   15.1129 C   0  0  0  0  0  0  0  0  0  0  0  0
  -29.2001  -27.3196   15.0605 H   0  0  0  0  0  0  0  0  0  0  0  0
  -29.0894  -26.5480   13.4457 H   0  0  0  0  0  0  0  0  0  0  0  0
  -26.9827  -26.5733   14.4648 H   0  0  0  0  0  0  0  0  0  0  0  0
  -28.2118  -25.2229   17.0589 H   0  0  0  0  0  0  0  0  0  0  0  0
  -26.2936  -24.0431   17.2947 H   0  0  0  0  0  0  0  0  0  0  0  0
  -24.7735  -25.4520   17.3663 H   0  0  0  0  0  0  0  0  0  0  0  0
  -25.5355  -23.8324   14.5602 H   0  0  0  0  0  0  0  0  0  0  0  0
  -28.9059  -22.8007   16.3439 H   0  0  0  0  0  0  0  0  0  0  0  0
  -26.6188  -17.0325   15.8910 H   0  0  0  0  0  0  0  0  0  0  0  0
  -27.9433  -18.0575   16.5055 H   0  0  0  0  0  0  0  0  0  0  0  0
  -23.6723  -19.8443   13.9434 H   0  0  0  0  0  0  0  0  0  0  0  0
  1  2  2  0
  1  3  1  6
  1  4  1  0
  1 14  1  0
  5  6  2  0
  5  7  1  6
  5  8  1  0
  5  9  1  0
  9 10  1  0
 11 10  1  0
 11 12  1  0
 11 13  1  0
 12 17  1  0
 13 14  1  0
 13 15  1  0
 15 16  1  0
 15 17  1  0
 17 18  1  0
 18 19  1  0
 18 27  1  0
 19 20  2  0
 20 21  1  0
 21 22  2  0
 21 27  1  0
 22 23  1  0
 22 24  1  0
 24 25  2  0
 25 26  1  0
 26 27  2  0
 10 28  1  0
 10 29  1  0
 11 30  1  6
 13 31  1  1
 15 32  1  1
 16 33  1  0
 17 34  1  6
 19 35  1  0
 23 36  1  0
 23 37  1  0
 25 38  1  0
M  CHG  4   3  -1   4  -1   7  -1   8  -1
M  END
>  <filename_input>  (21) 
7ED2_A3P_docked.sdf

>  <pdb_id>  (21) 
7ED2_A3P

>  <pose_rank>  (21) 
20

>  <num_atoms_heavy>  (21) 
27

>  <num_torsions>  (21) 
6

>  <pose>  (21) 
[-27.677147608748616, -25.830055078623932, 14.883567864259222, -0.3115103027534931, -2.355388509000066, -1.6089025249862041, -0.19212366188640956, -1.898150456876247, -0.0184394792987707, 3.173856045927721, 0.5537469726845667, 0.44248301061054546]

>  <energy>  (21) 
39.51615508113243

>  <inter_energy>  (21) 
50.86499426267059

>  <intra_energy>  (21) 
1.218530276574723

>  <rmsd>  (21) 
9.66027

>  <sdf_rank>  (21) 
0

$$$$

     RDKit          3D

 38 40  0  0  0  0  0  0  0  0999 V2000
  -27.3447  -23.7795   15.2727 P   0  0  1  0  0  0  0  0  0  0  0  0
  -26.6773  -24.4510   16.4979 O   0  0  0  0  0  0  0  0  0  0  0  0
  -27.8372  -22.3364   15.5431 O   0  0  0  0  0  0  0  0  0  0  0  0
  -26.5664  -23.8545   14.0157 O   0  0  0  0  0  0  0  0  0  0  0  0
  -29.4395  -28.7821   13.0162 P   0  0  2  0  0  0  0  0  0  0  0  0
  -30.1041  -29.7270   14.0724 O   0  0  0  0  0  0  0  0  0  0  0  0
  -30.4324  -28.1269   12.1192 O   0  0  0  0  0  0  0  0  0  0  0  0
  -28.3409  -29.4654   12.2821 O   0  0  0  0  0  0  0  0  0  0  0  0
  -28.6795  -27.6318   13.8270 O   0  0  0  0  0  0  0  0  0  0  0  0
  -28.9728  -27.5499   15.2538 C   0  0  0  0  0  0  0  0  0  0  0  0
  -29.9759  -26.4577   15.4852 C   0  0  1  0  0  0  0  0  0  0  0  0
  -30.9605  -26.8618   16.4546 O   0  0  0  0  0  0  0  0  0  0  0  0
  -29.3823  -25.1976   16.0989 C   0  0  1  0  0  0  0  0  0  0  0  0
  -28.7065  -24.6492   15.0100 O   0  0  0  0  0  0  0  0  0  0  0  0
  -30.6239  -24.5279   16.6588 C   0  0  1  0  0  0  0  0  0  0  0  0
  -31.2213  -23.6399   15.7493 O   0  0  0  0  0  0  0  0  0  0  0  0
  -31.5439  -25.7077   16.9912 C   0  0  2  0  0  0  0  0  0  0  0  0
  -31.6703  -25.9017   18.4162 N   0  0  0  0  0  0  0  0  0  0  0  0
  -31.5218  -27.1153   19.1340 C   0  0  0  0  0  0  0  0  0  0  0  0
  -31.5918  -26.9311   20.4404 N   0  0  0  0  0  0  0  0  0  0  0  0
  -31.8228  -25.5633   20.5841 C   0  0  0  0  0  0  0  0  0  0  0  0
  -31.9892  -24.7619   21.7262 C   0  0  0  0  0  0  0  0  0  0  0  0
  -31.9159  -25.2423   22.9649 N   0  0  0  0  0  0  0  0  0  0  0  0
  -32.1600  -23.4319   21.5417 N   0  0  0  0  0  0  0  0  0  0  0  0
  -32.2043  -22.9691   20.2817 C   0  0  0  0  0  0  0  0  0  0  0  0
  -32.0491  -23.6230   19.1285 N   0  0  0  0  0  0  0  0  0  0  0  0
  -31.8782  -24.9287   19.3546 C   0  0  0  0  0  0  0  0  0  0  0  0
  -29.3850  -28.5087   15.6011 H   0  0  0  0  0  0  0  0  0  0  0  0
  -28.0498  -27.3305   15.8106 H   0  0  0  0  0  0  0  0  0  0  0  0
  -30.3830  -26.2614   14.4824 H   0  0  0  0  0  0  0  0  0  0  0  0
  -28.6523  -25.2044   16.9218 H   0  0  0  0  0  0  0  0  0  0  0  0
  -30.3976  -23.8968   17.5309 H   0  0  0  0  0  0  0  0  0  0  0  0
  -31.6990  -22.9297   16.2469 H   0  0  0  0  0  0  0  0  0  0  0  0
  -32.5420  -25.5048   16.5758 H   0  0  0  0  0  0  0  0  0  0  0  0
  -31.3666  -28.0952   18.6590 H   0  0  0  0  0  0  0  0  0  0  0  0
  -32.0453  -24.6128   23.7698 H   0  0  0  0  0  0  0  0  0  0  0  0
  -31.7297  -26.2435   23.1188 H   0  0  0  0  0  0  0  0  0  0  0  0
  -32.3972  -21.8904   20.1858 H   0  0  0  0  0  0  0  0  0  0  0  0
  1  2  2  0
  1  3  1  1
  1  4  1  0
  1 14  1  0
  5  6  2  0
  5  7  1  6
  5  8  1  0
  5  9  1  0
  9 10  1  0
 11 10  1  0
 11 12  1  0
 11 13  1  0
 12 17  1  0
 13 14  1  0
 13 15  1  0
 15 16  1  0
 15 17  1  0
 17 18  1  0
 18 19  1  0
 18 27  1  0
 19 20  2  0
 20 21  1  0
 21 22  2  0
 21 27  1  0
 22 23  1  0
 22 24  1  0
 24 25  2  0
 25 26  1  0
 26 27  2  0
 10 28  1  0
 10 29  1  0
 11 30  1  6
 13 31  1  1
 15 32  1  1
 16 33  1  0
 17 34  1  6
 19 35  1  0
 23 36  1  0
 23 37  1  0
 25 38  1  0
M  CHG  4   3  -1   4  -1   7  -1   8  -1
M  END
>  <filename_input>  (22) 
7ED2_A3P_docked.sdf

>  <pdb_id>  (22) 
7ED2_A3P

>  <pose_rank>  (22) 
21

>  <num_atoms_heavy>  (22) 
27

>  <num_torsions>  (22) 
6

>  <pose>  (22) 
[-29.9758881397096, -26.457690430754504, 15.48523072556251, -3.742368871086852, 3.6435939164562248, 1.7677417850010915, -7.688222123504293, 1.4248947257958218, 1.3194627250091309, 0.968221876938288, 6.709615347576768, -2.4031464000213423]

>  <energy>  (22) 
102.98486036145411

>  <inter_energy>  (22) 
91.71503923198712

>  <intra_energy>  (22) 
16.205242794296705

>  <rmsd>  (22) 
11.0873

>  <sdf_rank>  (22) 
0

$$$$

     RDKit          3D

 38 40  0  0  0  0  0  0  0  0999 V2000
  -30.6007  -10.8039   16.5797 P   0  0  1  0  0  0  0  0  0  0  0  0
  -29.4038   -9.8278   16.4693 O   0  0  0  0  0  0  0  0  0  0  0  0
  -31.2932  -10.7880   17.9648 O   0  0  0  0  0  0  0  0  0  0  0  0
  -31.5907  -10.7080   15.4834 O   0  0  0  0  0  0  0  0  0  0  0  0
  -30.6329  -17.5610   16.1766 P   0  0  2  0  0  0  0  0  0  0  0  0
  -31.9629  -17.9638   15.4562 O   0  0  0  0  0  0  0  0  0  0  0  0
  -29.5800  -18.6105   16.0780 O   0  0  0  0  0  0  0  0  0  0  0  0
  -30.8801  -17.1014   17.5696 O   0  0  0  0  0  0  0  0  0  0  0  0
  -30.0833  -16.2472   15.4485 O   0  0  0  0  0  0  0  0  0  0  0  0
  -29.5775  -15.1927   16.3208 C   0  0  0  0  0  0  0  0  0  0  0  0
  -28.9906  -14.0991   15.4769 C   0  0  1  0  0  0  0  0  0  0  0  0
  -28.6919  -14.5770   14.1522 O   0  0  0  0  0  0  0  0  0  0  0  0
  -29.9446  -12.9411   15.2206 C   0  0  1  0  0  0  0  0  0  0  0  0
  -29.9365  -12.2949   16.4557 O   0  0  0  0  0  0  0  0  0  0  0  0
  -29.3070  -12.2963   14.0035 C   0  0  1  0  0  0  0  0  0  0  0  0
  -28.3890  -11.2877   14.3391 O   0  0  0  0  0  0  0  0  0  0  0  0
  -28.6273  -13.4725   13.2941 C   0  0  2  0  0  0  0  0  0  0  0  0
  -29.3094  -13.8257   12.0719 N   0  0  0  0  0  0  0  0  0  0  0  0
  -29.2135  -15.0463   11.3569 C   0  0  0  0  0  0  0  0  0  0  0  0
  -30.0519  -15.0915   10.3369 N   0  0  0  0  0  0  0  0  0  0  0  0
  -30.6952  -13.8545   10.3641 C   0  0  0  0  0  0  0  0  0  0  0  0
  -31.6906  -13.3041    9.5391 C   0  0  0  0  0  0  0  0  0  0  0  0
  -32.2369  -13.9668    8.5228 N   0  0  0  0  0  0  0  0  0  0  0  0
  -32.1538  -12.0707    9.8497 N   0  0  0  0  0  0  0  0  0  0  0  0
  -31.6036  -11.4340   10.8964 C   0  0  0  0  0  0  0  0  0  0  0  0
  -30.6699  -11.8532   11.7531 N   0  0  0  0  0  0  0  0  0  0  0  0
  -30.2443  -13.0738   11.4152 C   0  0  0  0  0  0  0  0  0  0  0  0
  -30.4018  -14.7887   16.9268 H   0  0  0  0  0  0  0  0  0  0  0  0
  -28.8050  -15.6018   16.9885 H   0  0  0  0  0  0  0  0  0  0  0  0
  -28.1095  -13.7732   16.0492 H   0  0  0  0  0  0  0  0  0  0  0  0
  -31.0069  -13.0698   14.9657 H   0  0  0  0  0  0  0  0  0  0  0  0
  -30.0453  -11.7791   13.3731 H   0  0  0  0  0  0  0  0  0  0  0  0
  -28.3234  -11.2156   15.3243 H   0  0  0  0  0  0  0  0  0  0  0  0
  -27.5939  -13.1867   13.0481 H   0  0  0  0  0  0  0  0  0  0  0  0
  -28.5221  -15.8602   11.6206 H   0  0  0  0  0  0  0  0  0  0  0  0
  -32.9640  -13.5186    7.9471 H   0  0  0  0  0  0  0  0  0  0  0  0
  -31.9326  -14.9279    8.3116 H   0  0  0  0  0  0  0  0  0  0  0  0
  -31.9782  -10.4151   11.0740 H   0  0  0  0  0  0  0  0  0  0  0  0
  1  2  2  0
  1  3  1  1
  1  4  1  0
  1 14  1  0
  5  6  2  0
  5  7  1  1
  5  8  1  0
  5  9  1  0
  9 10  1  0
 11 10  1  0
 11 12  1  0
 11 13  1  0
 12 17  1  0
 13 14  1  0
 13 15  1  0
 15 16  1  0
 15 17  1  0
 17 18  1  0
 18 19  1  0
 18 27  1  0
 19 20  2  0
 20 21  1  0
 21 22  2  0
 21 27  1  0
 22 23  1  0
 22 24  1  0
 24 25  2  0
 25 26  1  0
 26 27  2  0
 10 28  1  0
 10 29  1  0
 11 30  1  1
 13 31  1  6
 15 32  1  6
 16 33  1  0
 17 34  1  6
 19 35  1  0
 23 36  1  0
 23 37  1  0
 25 38  1  0
M  CHG  4   3  -1   4  -1   7  -1   8  -1
M  END
>  <filename_input>  (23) 
7ED2_A3P_docked.sdf

>  <pdb_id>  (23) 
7ED2_A3P

>  <pose_rank>  (23) 
22

>  <num_atoms_heavy>  (23) 
27

>  <num_torsions>  (23) 
6

>  <pose>  (23) 
[-28.9905975888933, -14.099132474657376, 15.476899097094945, -0.7564399465712647, 3.025691833525186, -0.7867403891492983, -1.9387605246882023, -1.33046113867718, -0.17551370271189343, -2.725445121712217, -0.327841625443216, 1.594342152871807]

>  <energy>  (23) 
169.25031312159555

>  <inter_energy>  (23) 
113.21406013864522

>  <intra_energy>  (23) 
61.43035405233813

>  <rmsd>  (23) 
11.7526

>  <sdf_rank>  (23) 
0

$$$$

     RDKit          3D

 38 40  0  0  0  0  0  0  0  0999 V2000
  -31.3100  -10.4918   13.8217 P   0  0  1  0  0  0  0  0  0  0  0  0
  -29.9611   -9.7619   13.6096 O   0  0  0  0  0  0  0  0  0  0  0  0
  -32.1270   -9.9567   15.0235 O   0  0  0  0  0  0  0  0  0  0  0  0
  -32.1533  -10.6144   12.6112 O   0  0  0  0  0  0  0  0  0  0  0  0
  -31.2162  -17.2172   15.3738 P   0  0  2  0  0  0  0  0  0  0  0  0
  -32.1120  -18.1553   14.4976 O   0  0  0  0  0  0  0  0  0  0  0  0
  -30.1070  -17.9442   16.0527 O   0  0  0  0  0  0  0  0  0  0  0  0
  -32.0319  -16.3865   16.2997 O   0  0  0  0  0  0  0  0  0  0  0  0
  -30.5634  -16.1378   14.3904 O   0  0  0  0  0  0  0  0  0  0  0  0
  -30.3570  -14.8044   14.9455 C   0  0  0  0  0  0  0  0  0  0  0  0
  -29.7354  -13.9288   13.8969 C   0  0  1  0  0  0  0  0  0  0  0  0
  -29.2495  -14.7151   12.7933 O   0  0  0  0  0  0  0  0  0  0  0  0
  -30.7163  -12.9714   13.2349 C   0  0  1  0  0  0  0  0  0  0  0  0
  -30.8970  -12.0202   14.2377 O   0  0  0  0  0  0  0  0  0  0  0  0
  -29.9728  -12.6217   11.9587 C   0  0  1  0  0  0  0  0  0  0  0  0
  -29.1628  -11.4824   12.0946 O   0  0  0  0  0  0  0  0  0  0  0  0
  -29.1444  -13.8794   11.6749 C   0  0  2  0  0  0  0  0  0  0  0  0
  -29.6501  -14.6062   10.5347 N   0  0  0  0  0  0  0  0  0  0  0  0
  -29.4468  -15.9760   10.2307 C   0  0  0  0  0  0  0  0  0  0  0  0
  -30.1376  -16.3572    9.1710 N   0  0  0  0  0  0  0  0  0  0  0  0
  -30.7892  -15.1987    8.7489 C   0  0  0  0  0  0  0  0  0  0  0  0
  -31.6672  -14.9617    7.6779 C   0  0  0  0  0  0  0  0  0  0  0  0
  -32.0638  -15.9176    6.8414 N   0  0  0  0  0  0  0  0  0  0  0  0
  -32.1791  -13.7154    7.5483 N   0  0  0  0  0  0  0  0  0  0  0  0
  -31.7825  -12.7752    8.4215 C   0  0  0  0  0  0  0  0  0  0  0  0
  -30.9711  -12.8807    9.4760 N   0  0  0  0  0  0  0  0  0  0  0  0
  -30.4929  -14.1247    9.5712 C   0  0  0  0  0  0  0  0  0  0  0  0
  -31.3236  -14.3801   15.2546 H   0  0  0  0  0  0  0  0  0  0  0  0
  -29.6927  -14.8651   15.8201 H   0  0  0  0  0  0  0  0  0  0  0  0
  -28.9515  -13.3843   14.4437 H   0  0  0  0  0  0  0  0  0  0  0  0
  -31.7301  -13.2578   12.9185 H   0  0  0  0  0  0  0  0  0  0  0  0
  -30.6571  -12.3601   11.1382 H   0  0  0  0  0  0  0  0  0  0  0  0
  -29.0249  -11.2883   13.0556 H   0  0  0  0  0  0  0  0  0  0  0  0
  -28.1070  -13.5789   11.4663 H   0  0  0  0  0  0  0  0  0  0  0  0
  -28.7910  -16.6432   10.8093 H   0  0  0  0  0  0  0  0  0  0  0  0
  -32.7092  -15.6925    6.0710 H   0  0  0  0  0  0  0  0  0  0  0  0
  -31.7252  -16.8825    6.9644 H   0  0  0  0  0  0  0  0  0  0  0  0
  -32.1867  -11.7682    8.2408 H   0  0  0  0  0  0  0  0  0  0  0  0
  1  2  2  0
  1  3  1  1
  1  4  1  0
  1 14  1  0
  5  6  2  0
  5  7  1  1
  5  8  1  0
  5  9  1  0
  9 10  1  0
 11 10  1  0
 11 12  1  0
 11 13  1  0
 12 17  1  0
 13 14  1  0
 13 15  1  0
 15 16  1  0
 15 17  1  0
 17 18  1  0
 18 19  1  0
 18 27  1  0
 19 20  2  0
 20 21  1  0
 21 22  2  0
 21 27  1  0
 22 23  1  0
 22 24  1  0
 24 25  2  0
 25 26  1  0
 26 27  2  0
 10 28  1  0
 10 29  1  0
 11 30  1  1
 13 31  1  6
 15 32  1  6
 16 33  1  0
 17 34  1  6
 19 35  1  0
 23 36  1  0
 23 37  1  0
 25 38  1  0
M  CHG  4   3  -1   4  -1   7  -1   8  -1
M  END
>  <filename_input>  (24) 
7ED2_A3P_docked.sdf

>  <pdb_id>  (24) 
7ED2_A3P

>  <pose_rank>  (24) 
23

>  <num_atoms_heavy>  (24) 
27

>  <num_torsions>  (24) 
6

>  <pose>  (24) 
[-29.735407997339227, -13.92876199141546, 13.896906583325118, -0.7830859409944076, 2.8039970622592993, -1.2166527421629216, -1.8839576383318748, -1.2293159378425325, -0.08970683889963205, -2.5644773074912095, -0.5888763422690809, 1.7406739394701405]

>  <energy>  (24) 
196.39343048489832

>  <inter_energy>  (24) 
112.60616120497497

>  <intra_energy>  (24) 
95.92136574957483

>  <rmsd>  (24) 
11.9306

>  <sdf_rank>  (24) 
0

$$$$

     RDKit          3D

 38 40  0  0  0  0  0  0  0  0999 V2000
  -31.2387  -10.5756   10.7115 P   0  0  1  0  0  0  0  0  0  0  0  0
  -29.7746  -10.2463   10.3302 O   0  0  0  0  0  0  0  0  0  0  0  0
  -31.9072   -9.5027   11.6060 O   0  0  0  0  0  0  0  0  0  0  0  0
  -32.1129  -10.9492    9.5768 O   0  0  0  0  0  0  0  0  0  0  0  0
  -30.7896  -16.2260   14.5114 P   0  0  2  0  0  0  0  0  0  0  0  0
  -31.6324  -17.4181   13.9469 O   0  0  0  0  0  0  0  0  0  0  0  0
  -29.7444  -16.6626   15.4791 O   0  0  0  0  0  0  0  0  0  0  0  0
  -31.6587  -15.1368   15.0321 O   0  0  0  0  0  0  0  0  0  0  0  0
  -30.0501  -15.5430   13.2683 O   0  0  0  0  0  0  0  0  0  0  0  0
  -30.0215  -14.0844   13.2596 C   0  0  0  0  0  0  0  0  0  0  0  0
  -29.6641  -13.6102   11.8812 C   0  0  1  0  0  0  0  0  0  0  0  0
  -29.1291  -14.6876   11.0902 O   0  0  0  0  0  0  0  0  0  0  0  0
  -30.8589  -13.1402   11.0636 C   0  0  1  0  0  0  0  0  0  0  0  0
  -31.1345  -11.9088   11.6558 O   0  0  0  0  0  0  0  0  0  0  0  0
  -30.3011  -13.2158    9.6541 C   0  0  1  0  0  0  0  0  0  0  0  0
  -29.7132  -12.0109    9.2353 O   0  0  0  0  0  0  0  0  0  0  0  0
  -29.2752  -14.3511    9.7390 C   0  0  2  0  0  0  0  0  0  0  0  0
  -29.7249  -15.5309    9.0390 N   0  0  0  0  0  0  0  0  0  0  0  0
  -29.4533  -16.8822    9.3714 C   0  0  0  0  0  0  0  0  0  0  0  0
  -30.1051  -17.7260    8.5913 N   0  0  0  0  0  0  0  0  0  0  0  0
  -30.8007  -16.9070    7.7023 C   0  0  0  0  0  0  0  0  0  0  0  0
  -31.6676  -17.2113    6.6393 C   0  0  0  0  0  0  0  0  0  0  0  0
  -32.0037  -18.4567    6.3127 N   0  0  0  0  0  0  0  0  0  0  0  0
  -32.2333  -16.1775    5.9734 N   0  0  0  0  0  0  0  0  0  0  0  0
  -31.8972  -14.9299    6.3400 C   0  0  0  0  0  0  0  0  0  0  0  0
  -31.1025  -14.5184    7.3302 N   0  0  0  0  0  0  0  0  0  0  0  0
  -30.5699  -15.5670    7.9642 C   0  0  0  0  0  0  0  0  0  0  0  0
  -31.0115  -13.6945   13.5385 H   0  0  0  0  0  0  0  0  0  0  0  0
  -29.2744  -13.7233   13.9818 H   0  0  0  0  0  0  0  0  0  0  0  0
  -28.9557  -12.7888   12.0640 H   0  0  0  0  0  0  0  0  0  0  0  0
  -31.8224  -13.6699   11.0301 H   0  0  0  0  0  0  0  0  0  0  0  0
  -31.0868  -13.3977    8.9060 H   0  0  0  0  0  0  0  0  0  0  0  0
  -29.4531  -11.4777   10.0278 H   0  0  0  0  0  0  0  0  0  0  0  0
  -28.3339  -14.0110    9.2827 H   0  0  0  0  0  0  0  0  0  0  0  0
  -28.7791  -17.1918   10.1835 H   0  0  0  0  0  0  0  0  0  0  0  0
  -32.6436  -18.6274    5.5239 H   0  0  0  0  0  0  0  0  0  0  0  0
  -31.6238  -19.2500    6.8487 H   0  0  0  0  0  0  0  0  0  0  0  0
  -32.3434  -14.1277    5.7338 H   0  0  0  0  0  0  0  0  0  0  0  0
  1  2  2  0
  1  3  1  1
  1  4  1  0
  1 14  1  0
  5  6  2  0
  5  7  1  1
  5  8  1  0
  5  9  1  0
  9 10  1  0
 11 10  1  0
 11 12  1  0
 11 13  1  0
 12 17  1  0
 13 14  1  0
 13 15  1  0
 15 16  1  0
 15 17  1  0
 17 18  1  0
 18 19  1  0
 18 27  1  0
 19 20  2  0
 20 21  1  0
 21 22  2  0
 21 27  1  0
 22 23  1  0
 22 24  1  0
 24 25  2  0
 25 26  1  0
 26 27  2  0
 10 28  1  0
 10 29  1  0
 11 30  1  1
 13 31  1  6
 15 32  1  6
 16 33  1  0
 17 34  1  6
 19 35  1  0
 23 36  1  0
 23 37  1  0
 25 38  1  0
M  CHG  4   3  -1   4  -1   7  -1   8  -1
M  END
>  <filename_input>  (25) 
7ED2_A3P_docked.sdf

>  <pdb_id>  (25) 
7ED2_A3P

>  <pose_rank>  (25) 
24

>  <num_atoms_heavy>  (25) 
27

>  <num_torsions>  (25) 
6

>  <pose>  (25) 
[-29.664080673456798, -13.61022680490088, 11.881185190265864, -1.119096681688463, 2.539398056019646, -1.768689907078251, -1.697922488180069, -1.2549354931313943, 0.19698616217502907, -2.7009191231793643, -1.0456773460402238, 1.9973293606590148]

>  <energy>  (25) 
295.1628445749432

>  <inter_energy>  (25) 
142.49412210296674

>  <intra_energy>  (25) 
163.19722006860968

>  <rmsd>  (25) 
11.9175

>  <sdf_rank>  (25) 
0

$$$$

     RDKit          3D

 38 40  0  0  0  0  0  0  0  0999 V2000
  -21.6270  -18.0840    8.6760 P   0  0  1  0  0  0  0  0  0  0  0  0
  -21.5900  -18.5690    7.2060 O   0  0  0  0  0  0  0  0  0  0  0  0
  -20.2400  -17.6830    9.2360 O   0  0  0  0  0  0  0  0  0  0  0  0
  -22.6440  -17.0490    8.9690 O   0  0  0  0  0  0  0  0  0  0  0  0
  -20.3770  -24.1610   11.5390 P   0  0  2  0  0  0  0  0  0  0  0  0
  -20.1360  -24.4910   10.0280 O   0  0  0  0  0  0  0  0  0  0  0  0
  -19.1690  -23.6040   12.2100 O   0  0  0  0  0  0  0  0  0  0  0  0
  -20.9770  -25.3130   12.2640 O   0  0  0  0  0  0  0  0  0  0  0  0
  -21.5260  -23.0500   11.6000 O   0  0  0  0  0  0  0  0  0  0  0  0
  -21.1830  -21.7400   11.0570 C   0  0  0  0  0  0  0  0  0  0  0  0
  -22.3230  -20.7950   11.3020 C   0  0  1  0  0  0  0  0  0  0  0  0
  -22.6310  -20.7150   12.7060 O   0  0  0  0  0  0  0  0  0  0  0  0
  -22.0150  -19.3510   10.9320 C   0  0  1  0  0  0  0  0  0  0  0  0
  -22.0670  -19.4030    9.5400 O   0  0  0  0  0  0  0  0  0  0  0  0
  -23.0790  -18.6100   11.7210 C   0  0  1  0  0  0  0  0  0  0  0  0
  -24.2580  -18.4040   10.9860 O   0  0  0  0  0  0  0  0  0  0  0  0
  -23.3150  -19.5150   12.9350 C   0  0  2  0  0  0  0  0  0  0  0  0
  -22.7870  -18.9330   14.1460 N   0  0  0  0  0  0  0  0  0  0  0  0
  -21.4880  -18.4020   14.3480 C   0  0  0  0  0  0  0  0  0  0  0  0
  -21.3590  -17.8450   15.5390 N   0  0  0  0  0  0  0  0  0  0  0  0
  -22.5980  -18.0420   16.1480 C   0  0  0  0  0  0  0  0  0  0  0  0
  -23.0810  -17.6770   17.4160 C   0  0  0  0  0  0  0  0  0  0  0  0
  -22.3550  -16.9960   18.2990 N   0  0  0  0  0  0  0  0  0  0  0  0
  -24.3680  -17.9770   17.7090 N   0  0  0  0  0  0  0  0  0  0  0  0
  -25.0870  -18.6420   16.7900 C   0  0  0  0  0  0  0  0  0  0  0  0
  -24.7460  -19.0290   15.5590 N   0  0  0  0  0  0  0  0  0  0  0  0
  -23.4730  -18.7100   15.3080 C   0  0  0  0  0  0  0  0  0  0  0  0
  -20.2770  -21.3611   11.5527 H   0  0  0  0  0  0  0  0  0  0  0  0
  -20.9955  -21.8235    9.9763 H   0  0  0  0  0  0  0  0  0  0  0  0
  -23.1363  -21.2023   10.6834 H   0  0  0  0  0  0  0  0  0  0  0  0
  -21.0657  -18.8487   11.1698 H   0  0  0  0  0  0  0  0  0  0  0  0
  -22.7601  -17.5934   11.9947 H   0  0  0  0  0  0  0  0  0  0  0  0
  -25.0162  -18.2715   11.6087 H   0  0  0  0  0  0  0  0  0  0  0  0
  -24.3979  -19.6617   13.0605 H   0  0  0  0  0  0  0  0  0  0  0  0
  -20.6821  -18.4484   13.6007 H   0  0  0  0  0  0  0  0  0  0  0  0
  -22.7552  -16.7524   19.2163 H   0  0  0  0  0  0  0  0  0  0  0  0
  -21.3928  -16.7125   18.0653 H   0  0  0  0  0  0  0  0  0  0  0  0
  -26.1092  -18.9072   17.0977 H   0  0  0  0  0  0  0  0  0  0  0  0
  1  2  2  0
  1  3  1  1
  1  4  1  0
  1 14  1  0
  5  6  2  0
  5  7  1  1
  5  8  1  0
  5  9  1  0
  9 10  1  0
 11 10  1  0
 11 12  1  0
 11 13  1  0
 12 17  1  0
 13 14  1  0
 13 15  1  0
 15 16  1  0
 15 17  1  0
 17 18  1  0
 18 19  1  0
 18 27  1  0
 19 20  2  0
 20 21  1  0
 21 22  2  0
 21 27  1  0
 22 23  1  0
 22 24  1  0
 24 25  2  0
 25 26  1  0
 26 27  2  0
 10 28  1  0
 10 29  1  0
 11 30  1  6
 13 31  1  6
 15 32  1  1
 16 33  1  0
 17 34  1  1
 19 35  1  0
 23 36  1  0
 23 37  1  0
 25 38  1  0
M  CHG  4   3  -1   4  -1   7  -1   8  -1
M  END
>  <filename_input>  (26) 
7ED2_A3P_docked.sdf

>  <pdb_id>  (26) 
7ED2_A3P

>  <pose_rank>  (26) 
25

>  <num_atoms_heavy>  (26) 
27

>  <num_torsions>  (26) 
6

>  <pose>  (26) 
[-22.323, -20.795, 11.302, 1e-06, 1e-06, 1e-06, 0.0, 0.0, 0.0, 0.0, 0.0, 0.0]

>  <energy>  (26) 
-822.1484689546606

>  <inter_energy>  (26) 
-842.7115374988845

>  <intra_energy>  (26) 
15.76901690869867

>  <rmsd>  (26) 
0.0

>  <sdf_rank>  (26) 
0

$$$$
