
     RDKit          3D

 61 65  0  0  0  0  0  0  0  0999 V2000
   11.5080   45.7754   16.5690 P   0  0  2  0  0  0  0  0  0  0  0  0
   11.8229   44.3332   16.8859 O   0  0  0  0  0  0  0  0  0  0  0  0
   10.3946   46.5042   17.2830 O   0  0  0  0  0  0  0  0  0  0  0  0
   11.3176   45.9281   15.0395 O   0  0  0  0  0  0  0  0  0  0  0  0
   12.3225   46.3694   14.2072 C   0  0  0  0  0  0  0  0  0  0  0  0
   12.5304   45.5007   12.9921 C   0  0  1  0  0  0  0  0  0  0  0  0
   11.4075   44.6836   12.7773 O   0  0  0  0  0  0  0  0  0  0  0  0
   10.8630   44.9075   11.5222 C   0  0  1  0  0  0  0  0  0  0  0  0
    9.4040   44.7271   11.5268 N   0  0  0  0  0  0  0  0  0  0  0  0
    8.6338   44.5932   10.4896 C   0  0  0  0  0  0  0  0  0  0  0  0
    8.7679   44.5359    9.1591 N   0  0  0  0  0  0  0  0  0  0  0  0
    7.7394   44.4171    8.3711 C   0  0  0  0  0  0  0  0  0  0  0  0
    6.5267   44.2524    8.8093 N   0  0  0  0  0  0  0  0  0  0  0  0
    6.2025   44.2923   10.0779 C   0  0  0  0  0  0  0  0  0  0  0  0
    4.9475   44.1387   10.4592 N   0  0  0  0  0  0  0  0  0  0  0  0
    7.2888   44.4706   11.0261 C   0  0  0  0  0  0  0  0  0  0  0  0
    7.3804   44.5456   12.3232 N   0  0  0  0  0  0  0  0  0  0  0  0
    8.6521   44.7033   12.6127 C   0  0  0  0  0  0  0  0  0  0  0  0
   11.3453   46.2953   11.0652 C   0  0  2  0  0  0  0  0  0  0  0  0
   11.3748   46.4917    9.6717 O   0  0  0  0  0  0  0  0  0  0  0  0
   12.7275   46.3229   11.7038 C   0  0  2  0  0  0  0  0  0  0  0  0
   13.6871   45.7838   10.8198 O   0  0  0  0  0  0  0  0  0  0  0  0
   14.5921   49.6907   17.5109 N   0  0  0  0  0  0  0  0  0  0  0  0
   13.9928   48.8236   16.5160 C   0  0  1  0  0  0  0  0  0  0  0  0
   15.0516   47.9460   15.9049 C   0  0  0  0  0  0  0  0  0  0  0  0
   16.0611   48.5928   15.0189 C   0  0  0  0  0  0  0  0  0  0  0  0
   17.3283   49.1128   15.4804 C   0  0  0  0  0  0  0  0  0  0  0  0
   17.9504   49.7154   14.3150 C   0  0  0  0  0  0  0  0  0  0  0  0
   17.9305   49.1233   16.7021 C   0  0  0  0  0  0  0  0  0  0  0  0
   16.0226   48.9296   13.6861 C   0  0  0  0  0  0  0  0  0  0  0  0
   17.1291   49.5666   13.3197 N   0  0  0  0  0  0  0  0  0  0  0  0
   19.2023   50.2500   14.4963 C   0  0  0  0  0  0  0  0  0  0  0  0
   19.1837   49.6862   16.8100 C   0  0  0  0  0  0  0  0  0  0  0  0
   19.7990   50.2416   15.7207 C   0  0  0  0  0  0  0  0  0  0  0  0
   12.9974   47.9163   17.1725 C   0  0  0  0  0  0  0  0  0  0  0  0
   12.3535   48.2373   18.0724 O   0  0  0  0  0  0  0  0  0  0  0  0
   12.8252   46.6254   16.6620 O   0  0  0  0  0  0  0  0  0  0  0  0
   12.0715   47.3854   13.8686 H   0  0  0  0  0  0  0  0  0  0  0  0
   13.2565   46.3383   14.7875 H   0  0  0  0  0  0  0  0  0  0  0  0
   13.4355   44.9099   13.1969 H   0  0  0  0  0  0  0  0  0  0  0  0
   11.2072   44.1649   10.7872 H   0  0  0  0  0  0  0  0  0  0  0  0
    7.9036   44.4579    7.2842 H   0  0  0  0  0  0  0  0  0  0  0  0
    4.7055   44.1722   11.4598 H   0  0  0  0  0  0  0  0  0  0  0  0
    4.2107   43.9854    9.7560 H   0  0  0  0  0  0  0  0  0  0  0  0
    9.0435   44.8035   13.6358 H   0  0  0  0  0  0  0  0  0  0  0  0
   10.6710   47.1110   11.3652 H   0  0  0  0  0  0  0  0  0  0  0  0
   11.5190   47.4515    9.4767 H   0  0  0  0  0  0  0  0  0  0  0  0
   13.1108   47.3289   11.9296 H   0  0  0  0  0  0  0  0  0  0  0  0
   14.4209   45.3714   11.3408 H   0  0  0  0  0  0  0  0  0  0  0  0
   14.3551   49.3478   18.4528 H   0  0  0  0  0  0  0  0  0  0  0  0
   15.6154   49.6921   17.3934 H   0  0  0  0  0  0  0  0  0  0  0  0
   14.2317   50.6484   17.3934 H   0  0  0  0  0  0  0  0  0  0  0  0
   13.5113   49.4515   15.7520 H   0  0  0  0  0  0  0  0  0  0  0  0
   15.5981   47.4670   16.7307 H   0  0  0  0  0  0  0  0  0  0  0  0
   14.4987   47.2625   15.2438 H   0  0  0  0  0  0  0  0  0  0  0  0
   17.4287   48.6928   17.5812 H   0  0  0  0  0  0  0  0  0  0  0  0
   15.1846   48.7012   13.0112 H   0  0  0  0  0  0  0  0  0  0  0  0
   17.3133   49.9016   12.3633 H   0  0  0  0  0  0  0  0  0  0  0  0
   19.7315   50.6919   13.6392 H   0  0  0  0  0  0  0  0  0  0  0  0
   19.6958   49.6893   17.7835 H   0  0  0  0  0  0  0  0  0  0  0  0
   20.7965   50.6906   15.8365 H   0  0  0  0  0  0  0  0  0  0  0  0
  1  2  1  6
  1  3  2  0
  1  4  1  0
  1 37  1  0
  4  5  1  0
  6  5  1  0
  6  7  1  0
  6 21  1  0
  7  8  1  0
  8  9  1  0
  8 19  1  0
  9 10  1  0
  9 18  1  0
 10 11  2  0
 10 16  1  0
 11 12  1  0
 12 13  2  0
 13 14  1  0
 14 15  1  0
 14 16  2  0
 16 17  1  0
 17 18  2  0
 19 20  1  0
 19 21  1  0
 21 22  1  0
 24 23  1  0
 24 25  1  0
 24 35  1  0
 25 26  1  0
 26 27  1  0
 26 30  2  0
 27 28  1  0
 27 29  2  0
 28 31  1  0
 28 32  2  0
 29 33  1  0
 30 31  1  0
 32 34  1  0
 33 34  2  0
 35 36  2  0
 35 37  1  0
  5 38  1  0
  5 39  1  0
  6 40  1  1
  8 41  1  6
 12 42  1  0
 15 43  1  0
 15 44  1  0
 18 45  1  0
 19 46  1  1
 20 47  1  0
 21 48  1  1
 22 49  1  0
 23 50  1  0
 23 51  1  0
 23 52  1  0
 24 53  1  6
 25 54  1  0
 25 55  1  0
 29 56  1  0
 30 57  1  0
 31 58  1  0
 32 59  1  0
 33 60  1  0
 34 61  1  0
M  CHG  2   2  -1  23   1
M  END
>  <filename_input>  (1) 
7ELT_TYM_docked.sdf

>  <pdb_id>  (1) 
7ELT_TYM

>  <pose_rank>  (1) 
0

>  <num_atoms_heavy>  (1) 
37

>  <num_torsions>  (1) 
9

>  <pose>  (1) 
[11.317550324377393, 45.92805525953488, 15.039531141891624, -2.9596666026402048, -1.1084920290646938, -4.573038861631985, -13.594886968609064, -13.800334807682304, -11.718829520421266, -11.62802206161786, -12.872656556965975, 15.614537961289903, 23.871067840678005, 20.197515425740868, -0.649425628269455]

>  <energy>  (1) 
-1255.36915966012

>  <inter_energy>  (1) 
-1288.6622631357084

>  <intra_energy>  (1) 
24.723732604505607

>  <rmsd>  (1) 
1.55002

>  <sdf_rank>  (1) 
0

$$$$

     RDKit          3D

 61 65  0  0  0  0  0  0  0  0999 V2000
   11.8700   45.1375   16.0806 P   0  0  2  0  0  0  0  0  0  0  0  0
   13.2977   45.2956   16.5459 O   0  0  0  0  0  0  0  0  0  0  0  0
   10.9406   44.1480   16.7422 O   0  0  0  0  0  0  0  0  0  0  0  0
   11.8593   44.9010   14.5500 O   0  0  0  0  0  0  0  0  0  0  0  0
   12.9665   44.4589   13.8599 C   0  0  0  0  0  0  0  0  0  0  0  0
   12.9017   44.7200   12.3760 C   0  0  1  0  0  0  0  0  0  0  0  0
   11.7231   44.1785   11.8352 O   0  0  0  0  0  0  0  0  0  0  0  0
   10.9616   45.1607   11.2208 C   0  0  1  0  0  0  0  0  0  0  0  0
    9.5231   44.8797   11.3367 N   0  0  0  0  0  0  0  0  0  0  0  0
    8.6858   44.6952   10.3612 C   0  0  0  0  0  0  0  0  0  0  0  0
    8.7199   44.6504    9.0239 N   0  0  0  0  0  0  0  0  0  0  0  0
    7.6440   44.4625    8.3168 C   0  0  0  0  0  0  0  0  0  0  0  0
    6.4832   44.2132    8.8461 N   0  0  0  0  0  0  0  0  0  0  0  0
    6.2564   44.2277   10.1362 C   0  0  0  0  0  0  0  0  0  0  0  0
    5.0484   43.9867   10.6121 N   0  0  0  0  0  0  0  0  0  0  0  0
    7.3981   44.4785   10.9990 C   0  0  0  0  0  0  0  0  0  0  0  0
    7.5848   44.5567   12.2857 N   0  0  0  0  0  0  0  0  0  0  0  0
    8.8612   44.8014   12.4773 C   0  0  0  0  0  0  0  0  0  0  0  0
   11.4101   46.5097   11.8094 C   0  0  2  0  0  0  0  0  0  0  0  0
   11.1842   47.6287   10.9859 O   0  0  0  0  0  0  0  0  0  0  0  0
   12.8880   46.2239   12.0400 C   0  0  2  0  0  0  0  0  0  0  0  0
   13.6379   46.5627   10.8930 O   0  0  0  0  0  0  0  0  0  0  0  0
    9.8941   49.0755   17.7081 N   0  0  0  0  0  0  0  0  0  0  0  0
    9.9618   47.6431   17.9193 C   0  0  1  0  0  0  0  0  0  0  0  0
    8.7395   47.1828   18.6667 C   0  0  0  0  0  0  0  0  0  0  0  0
    8.6717   45.7486   19.0677 C   0  0  0  0  0  0  0  0  0  0  0  0
    7.4471   44.9837   19.1337 C   0  0  0  0  0  0  0  0  0  0  0  0
    7.8301   43.6768   19.6375 C   0  0  0  0  0  0  0  0  0  0  0  0
    6.1528   45.2883   18.8383 C   0  0  0  0  0  0  0  0  0  0  0  0
    9.6351   44.8854   19.5348 C   0  0  0  0  0  0  0  0  0  0  0  0
    9.1122   43.7044   19.8443 N   0  0  0  0  0  0  0  0  0  0  0  0
    6.8271   42.7456   19.7505 C   0  0  0  0  0  0  0  0  0  0  0  0
    5.1983   44.3053   18.9852 C   0  0  0  0  0  0  0  0  0  0  0  0
    5.5390   43.0594   19.4386 C   0  0  0  0  0  0  0  0  0  0  0  0
    9.9578   46.9382   16.5971 C   0  0  0  0  0  0  0  0  0  0  0  0
    8.9933   46.7149   16.0078 O   0  0  0  0  0  0  0  0  0  0  0  0
   11.1798   46.5474   16.0397 O   0  0  0  0  0  0  0  0  0  0  0  0
   13.8535   44.9689   14.2636 H   0  0  0  0  0  0  0  0  0  0  0  0
   13.0123   43.3678   13.9920 H   0  0  0  0  0  0  0  0  0  0  0  0
   13.8019   44.2531   11.9496 H   0  0  0  0  0  0  0  0  0  0  0  0
   11.1269   45.1880   10.1337 H   0  0  0  0  0  0  0  0  0  0  0  0
    7.7202   44.5171    7.2208 H   0  0  0  0  0  0  0  0  0  0  0  0
    4.8830   44.0010   11.6286 H   0  0  0  0  0  0  0  0  0  0  0  0
    4.2715   43.7844    9.9667 H   0  0  0  0  0  0  0  0  0  0  0  0
    9.3230   44.9261   13.4678 H   0  0  0  0  0  0  0  0  0  0  0  0
   10.8419   46.8050   12.7037 H   0  0  0  0  0  0  0  0  0  0  0  0
   11.0232   48.4263   11.5498 H   0  0  0  0  0  0  0  0  0  0  0  0
   13.3517   46.8145   12.8438 H   0  0  0  0  0  0  0  0  0  0  0  0
   14.5043   46.9542   11.1689 H   0  0  0  0  0  0  0  0  0  0  0  0
    9.8714   49.5561   18.6188 H   0  0  0  0  0  0  0  0  0  0  0  0
   10.7215   49.3838   17.1777 H   0  0  0  0  0  0  0  0  0  0  0  0
    9.0414   49.3044   17.1777 H   0  0  0  0  0  0  0  0  0  0  0  0
   10.8782   47.4177   18.4845 H   0  0  0  0  0  0  0  0  0  0  0  0
    8.6700   47.7844   19.5850 H   0  0  0  0  0  0  0  0  0  0  0  0
    7.9123   47.3114   17.9530 H   0  0  0  0  0  0  0  0  0  0  0  0
    5.8762   46.2946   18.4908 H   0  0  0  0  0  0  0  0  0  0  0  0
   10.7002   45.1400   19.6384 H   0  0  0  0  0  0  0  0  0  0  0  0
    9.6568   42.9077   20.2044 H   0  0  0  0  0  0  0  0  0  0  0  0
    7.0679   41.7302   20.0984 H   0  0  0  0  0  0  0  0  0  0  0  0
    4.1498   44.5244   18.7352 H   0  0  0  0  0  0  0  0  0  0  0  0
    4.7558   42.2955   19.5534 H   0  0  0  0  0  0  0  0  0  0  0  0
  1  2  1  1
  1  3  2  0
  1  4  1  0
  1 37  1  0
  4  5  1  0
  6  5  1  0
  6  7  1  0
  6 21  1  0
  7  8  1  0
  8  9  1  0
  8 19  1  0
  9 10  1  0
  9 18  1  0
 10 11  2  0
 10 16  1  0
 11 12  1  0
 12 13  2  0
 13 14  1  0
 14 15  1  0
 14 16  2  0
 16 17  1  0
 17 18  2  0
 19 20  1  0
 19 21  1  0
 21 22  1  0
 24 23  1  0
 24 25  1  0
 24 35  1  0
 25 26  1  0
 26 27  1  0
 26 30  2  0
 27 28  1  0
 27 29  2  0
 28 31  1  0
 28 32  2  0
 29 33  1  0
 30 31  1  0
 32 34  1  0
 33 34  2  0
 35 36  2  0
 35 37  1  0
  5 38  1  0
  5 39  1  0
  6 40  1  6
  8 41  1  6
 12 42  1  0
 15 43  1  0
 15 44  1  0
 18 45  1  0
 19 46  1  1
 20 47  1  0
 21 48  1  1
 22 49  1  0
 23 50  1  0
 23 51  1  0
 23 52  1  0
 24 53  1  1
 25 54  1  0
 25 55  1  0
 29 56  1  0
 30 57  1  0
 31 58  1  0
 32 59  1  0
 33 60  1  0
 34 61  1  0
M  CHG  2   2  -1  23   1
M  END
>  <filename_input>  (2) 
7ELT_TYM_docked.sdf

>  <pdb_id>  (2) 
7ELT_TYM

>  <pose_rank>  (2) 
1

>  <num_atoms_heavy>  (2) 
37

>  <num_torsions>  (2) 
9

>  <pose>  (2) 
[11.859322451456288, 44.90104153131409, 14.54999282414958, -6.1070497987100545, 0.9289371089068392, -0.23963282306515646, 1.023450575502897, -1.0310067692405072, -1.1960741185598915, -1.0919947589454966, 4.129270842211049, -1.1046202662029863, -0.07368022816777466, 0.08578480704363774, 0.14401194389118205]

>  <energy>  (2) 
-987.4268791151268

>  <inter_energy>  (2) 
-1000.5611143189092

>  <intra_energy>  (2) 
16.454735181659366

>  <rmsd>  (2) 
6.73609

>  <sdf_rank>  (2) 
0

$$$$

     RDKit          3D

 61 65  0  0  0  0  0  0  0  0999 V2000
   11.2190   46.6286   17.5443 P   0  0  2  0  0  0  0  0  0  0  0  0
   11.1217   45.1593   17.2107 O   0  0  0  0  0  0  0  0  0  0  0  0
   11.2465   47.1012   18.9783 O   0  0  0  0  0  0  0  0  0  0  0  0
   10.1149   47.3966   16.7763 O   0  0  0  0  0  0  0  0  0  0  0  0
    9.5149   46.8959   15.6419 C   0  0  0  0  0  0  0  0  0  0  0  0
   10.2368   45.7145   15.0439 C   0  0  1  0  0  0  0  0  0  0  0  0
    9.3505   44.9345   14.2819 O   0  0  0  0  0  0  0  0  0  0  0  0
    9.7820   44.8326   12.9683 C   0  0  1  0  0  0  0  0  0  0  0  0
    8.6504   44.7430   12.0339 N   0  0  0  0  0  0  0  0  0  0  0  0
    8.7011   44.8400   10.7397 C   0  0  0  0  0  0  0  0  0  0  0  0
    9.6357   45.0090    9.7966 N   0  0  0  0  0  0  0  0  0  0  0  0
    9.3289   45.0929    8.5350 C   0  0  0  0  0  0  0  0  0  0  0  0
    8.1197   44.9277    8.0877 N   0  0  0  0  0  0  0  0  0  0  0  0
    7.0761   44.7641    8.8623 C   0  0  0  0  0  0  0  0  0  0  0  0
    5.8684   44.6224    8.3472 N   0  0  0  0  0  0  0  0  0  0  0  0
    7.3248   44.7071   10.2927 C   0  0  0  0  0  0  0  0  0  0  0  0
    6.5862   44.5477   11.3536 N   0  0  0  0  0  0  0  0  0  0  0  0
    7.3901   44.5748   12.3923 C   0  0  0  0  0  0  0  0  0  0  0  0
   10.7400   46.0102   12.7183 C   0  0  2  0  0  0  0  0  0  0  0  0
   11.6802   45.8113   11.6897 O   0  0  0  0  0  0  0  0  0  0  0  0
   11.3765   46.1356   14.0961 C   0  0  2  0  0  0  0  0  0  0  0  0
   12.5254   45.3197   14.1817 O   0  0  0  0  0  0  0  0  0  0  0  0
   15.0489   46.8551   17.2614 N   0  0  0  0  0  0  0  0  0  0  0  0
   14.6839   48.2541   17.1597 C   0  0  1  0  0  0  0  0  0  0  0  0
   15.2247   48.8269   15.8775 C   0  0  0  0  0  0  0  0  0  0  0  0
   16.6212   49.3484   15.8862 C   0  0  0  0  0  0  0  0  0  0  0  0
   17.4327   49.5089   14.7009 C   0  0  0  0  0  0  0  0  0  0  0  0
   18.7283   49.9631   15.1737 C   0  0  0  0  0  0  0  0  0  0  0  0
   17.1820   49.3055   13.3776 C   0  0  0  0  0  0  0  0  0  0  0  0
   17.4636   49.6830   16.9205 C   0  0  0  0  0  0  0  0  0  0  0  0
   18.6615   50.0369   16.4688 N   0  0  0  0  0  0  0  0  0  0  0  0
   19.6726   50.2287   14.2126 C   0  0  0  0  0  0  0  0  0  0  0  0
   18.1816   49.5846   12.4710 C   0  0  0  0  0  0  0  0  0  0  0  0
   19.4042   50.0340   12.8915 C   0  0  0  0  0  0  0  0  0  0  0  0
   13.1922   48.3826   17.1019 C   0  0  0  0  0  0  0  0  0  0  0  0
   12.6393   49.3730   17.3039 O   0  0  0  0  0  0  0  0  0  0  0  0
   12.4326   47.2559   16.7699 O   0  0  0  0  0  0  0  0  0  0  0  0
    8.4921   46.5835   15.8994 H   0  0  0  0  0  0  0  0  0  0  0  0
    9.5327   47.6975   14.8889 H   0  0  0  0  0  0  0  0  0  0  0  0
   10.6505   45.1535   15.8948 H   0  0  0  0  0  0  0  0  0  0  0  0
   10.3327   43.8974   12.7886 H   0  0  0  0  0  0  0  0  0  0  0  0
   10.1296   45.3137    7.8138 H   0  0  0  0  0  0  0  0  0  0  0  0
    5.0558   44.4944    8.9671 H   0  0  0  0  0  0  0  0  0  0  0  0
    5.7390   44.6398    7.3255 H   0  0  0  0  0  0  0  0  0  0  0  0
    7.0543   44.4700   13.4345 H   0  0  0  0  0  0  0  0  0  0  0  0
   10.2324   46.9137   12.3496 H   0  0  0  0  0  0  0  0  0  0  0  0
   12.5679   45.6235   12.0858 H   0  0  0  0  0  0  0  0  0  0  0  0
   11.7469   47.1416   14.3428 H   0  0  0  0  0  0  0  0  0  0  0  0
   12.7478   45.1617   15.1334 H   0  0  0  0  0  0  0  0  0  0  0  0
   15.1182   46.5897   18.2542 H   0  0  0  0  0  0  0  0  0  0  0  0
   14.3302   46.2784   16.8012 H   0  0  0  0  0  0  0  0  0  0  0  0
   15.9577   46.7031   16.8012 H   0  0  0  0  0  0  0  0  0  0  0  0
   15.0927   48.7846   18.0323 H   0  0  0  0  0  0  0  0  0  0  0  0
   15.1748   48.0340   15.1167 H   0  0  0  0  0  0  0  0  0  0  0  0
   14.5992   49.7104   15.6820 H   0  0  0  0  0  0  0  0  0  0  0  0
   16.2054   48.9276   13.0409 H   0  0  0  0  0  0  0  0  0  0  0  0
   17.1820   49.6605   17.9836 H   0  0  0  0  0  0  0  0  0  0  0  0
   19.4420   50.3335   17.0719 H   0  0  0  0  0  0  0  0  0  0  0  0
   20.6613   50.6045   14.5145 H   0  0  0  0  0  0  0  0  0  0  0  0
   17.9946   49.4446   11.3961 H   0  0  0  0  0  0  0  0  0  0  0  0
   20.1866   50.2423   12.1468 H   0  0  0  0  0  0  0  0  0  0  0  0
  1  2  1  1
  1  3  2  0
  1  4  1  0
  1 37  1  0
  4  5  1  0
  6  5  1  0
  6  7  1  0
  6 21  1  0
  7  8  1  0
  8  9  1  0
  8 19  1  0
  9 10  1  0
  9 18  1  0
 10 11  2  0
 10 16  1  0
 11 12  1  0
 12 13  2  0
 13 14  1  0
 14 15  1  0
 14 16  2  0
 16 17  1  0
 17 18  2  0
 19 20  1  0
 19 21  1  0
 21 22  1  0
 24 23  1  0
 24 25  1  0
 24 35  1  0
 25 26  1  0
 26 27  1  0
 26 30  2  0
 27 28  1  0
 27 29  2  0
 28 31  1  0
 28 32  2  0
 29 33  1  0
 30 31  1  0
 32 34  1  0
 33 34  2  0
 35 36  2  0
 35 37  1  0
  5 38  1  0
  5 39  1  0
  6 40  1  1
  8 41  1  1
 12 42  1  0
 15 43  1  0
 15 44  1  0
 18 45  1  0
 19 46  1  6
 20 47  1  0
 21 48  1  1
 22 49  1  0
 23 50  1  0
 23 51  1  0
 23 52  1  0
 24 53  1  1
 25 54  1  0
 25 55  1  0
 29 56  1  0
 30 57  1  0
 31 58  1  0
 32 59  1  0
 33 60  1  0
 34 61  1  0
M  CHG  2   2  -1  23   1
M  END
>  <filename_input>  (3) 
7ELT_TYM_docked.sdf

>  <pdb_id>  (3) 
7ELT_TYM

>  <pose_rank>  (3) 
2

>  <num_atoms_heavy>  (3) 
37

>  <num_torsions>  (3) 
9

>  <pose>  (3) 
[10.114864429174567, 47.396645867509335, 16.776281814699544, -1.0104403260627781, -3.1572035286728615, 3.5150789435889, 12.862032006716078, 17.38105214119378, 37.011936348712474, 9.472467022523038, -44.57517552050889, -39.76219085735152, 2.5018851054581046, -2.525660550172583, -1.107049892264761]

>  <energy>  (3) 
-902.3076472969065

>  <inter_energy>  (3) 
-992.3297871358819

>  <intra_energy>  (3) 
89.78890011383692

>  <rmsd>  (3) 
2.03085

>  <sdf_rank>  (3) 
0

$$$$

     RDKit          3D

 61 65  0  0  0  0  0  0  0  0999 V2000
   11.5537   47.1364   17.1388 P   0  0  2  0  0  0  0  0  0  0  0  0
   11.9833   48.5786   17.0162 O   0  0  0  0  0  0  0  0  0  0  0  0
   12.4351   46.1168   17.8202 O   0  0  0  0  0  0  0  0  0  0  0  0
   11.1506   46.6072   15.7401 O   0  0  0  0  0  0  0  0  0  0  0  0
   11.7772   47.0159   14.5835 C   0  0  0  0  0  0  0  0  0  0  0  0
   12.1512   45.8821   13.6620 C   0  0  1  0  0  0  0  0  0  0  0  0
   11.0472   45.0383   13.4519 O   0  0  0  0  0  0  0  0  0  0  0  0
   10.7338   44.9567   12.1039 C   0  0  1  0  0  0  0  0  0  0  0  0
    9.2888   44.7839   11.8953 N   0  0  0  0  0  0  0  0  0  0  0  0
    8.6710   44.7107   10.7552 C   0  0  0  0  0  0  0  0  0  0  0  0
    8.9894   44.7254    9.4552 N   0  0  0  0  0  0  0  0  0  0  0  0
    8.0811   44.6551    8.5263 C   0  0  0  0  0  0  0  0  0  0  0  0
    6.8197   44.4730    8.7816 N   0  0  0  0  0  0  0  0  0  0  0  0
    6.3216   44.4454    9.9929 C   0  0  0  0  0  0  0  0  0  0  0  0
    5.0261   44.2777   10.1866 N   0  0  0  0  0  0  0  0  0  0  0  0
    7.2647   44.5661   11.0915 C   0  0  0  0  0  0  0  0  0  0  0  0
    7.1744   44.5697   12.3909 N   0  0  0  0  0  0  0  0  0  0  0  0
    8.3929   44.7049   12.8630 C   0  0  0  0  0  0  0  0  0  0  0  0
   11.3452   46.1950   11.4256 C   0  0  2  0  0  0  0  0  0  0  0  0
   11.6193   46.0532   10.0522 O   0  0  0  0  0  0  0  0  0  0  0  0
   12.5989   46.3730   12.2716 C   0  0  2  0  0  0  0  0  0  0  0  0
   13.6708   45.6376   11.7209 O   0  0  0  0  0  0  0  0  0  0  0  0
    7.1703   45.8583   16.8555 N   0  0  0  0  0  0  0  0  0  0  0  0
    7.6268   46.9142   17.7373 C   0  0  1  0  0  0  0  0  0  0  0  0
    7.9343   46.3429   19.0951 C   0  0  0  0  0  0  0  0  0  0  0  0
    7.7713   44.8728   19.2814 C   0  0  0  0  0  0  0  0  0  0  0  0
    6.5925   44.2541   19.8443 C   0  0  0  0  0  0  0  0  0  0  0  0
    6.8914   42.8347   19.9118 C   0  0  0  0  0  0  0  0  0  0  0  0
    5.4027   44.7587   20.2746 C   0  0  0  0  0  0  0  0  0  0  0  0
    8.6427   43.8266   19.0882 C   0  0  0  0  0  0  0  0  0  0  0  0
    8.0969   42.6729   19.4559 N   0  0  0  0  0  0  0  0  0  0  0  0
    5.8915   42.0198   20.3827 C   0  0  0  0  0  0  0  0  0  0  0  0
    4.4499   43.8806   20.7437 C   0  0  0  0  0  0  0  0  0  0  0  0
    4.7011   42.5361   20.7970 C   0  0  0  0  0  0  0  0  0  0  0  0
    8.9020   47.4963   17.2082 C   0  0  0  0  0  0  0  0  0  0  0  0
    8.9310   48.2879   16.3716 O   0  0  0  0  0  0  0  0  0  0  0  0
   10.1147   47.0763   17.7646 O   0  0  0  0  0  0  0  0  0  0  0  0
   11.1001   47.6936   14.0428 H   0  0  0  0  0  0  0  0  0  0  0  0
   12.7141   47.5084   14.8829 H   0  0  0  0  0  0  0  0  0  0  0  0
   12.9823   45.3565   14.1549 H   0  0  0  0  0  0  0  0  0  0  0  0
   11.1657   44.0599   11.6358 H   0  0  0  0  0  0  0  0  0  0  0  0
    8.3951   44.7542    7.4768 H   0  0  0  0  0  0  0  0  0  0  0  0
    4.6469   44.2578   11.1440 H   0  0  0  0  0  0  0  0  0  0  0  0
    4.3949   44.1668    9.3803 H   0  0  0  0  0  0  0  0  0  0  0  0
    8.6376   44.7471   13.9345 H   0  0  0  0  0  0  0  0  0  0  0  0
   10.6652   47.0593   11.4028 H   0  0  0  0  0  0  0  0  0  0  0  0
   12.4923   45.6014    9.9348 H   0  0  0  0  0  0  0  0  0  0  0  0
   12.9808   47.4035   12.3183 H   0  0  0  0  0  0  0  0  0  0  0  0
   14.2216   45.2597   12.4516 H   0  0  0  0  0  0  0  0  0  0  0  0
    6.8278   45.0659   17.4174 H   0  0  0  0  0  0  0  0  0  0  0  0
    6.4074   46.2130   16.2613 H   0  0  0  0  0  0  0  0  0  0  0  0
    7.9513   45.5456   16.2613 H   0  0  0  0  0  0  0  0  0  0  0  0
    6.8392   47.6796   17.8003 H   0  0  0  0  0  0  0  0  0  0  0  0
    8.9812   46.5892   19.3258 H   0  0  0  0  0  0  0  0  0  0  0  0
    7.1842   46.7926   19.7624 H   0  0  0  0  0  0  0  0  0  0  0  0
    5.2073   45.8408   20.2482 H   0  0  0  0  0  0  0  0  0  0  0  0
    9.6596   43.9316   18.6820 H   0  0  0  0  0  0  0  0  0  0  0  0
    8.5716   41.7614   19.3879 H   0  0  0  0  0  0  0  0  0  0  0  0
    6.0544   40.9328   20.4261 H   0  0  0  0  0  0  0  0  0  0  0  0
    3.4754   44.2649   21.0793 H   0  0  0  0  0  0  0  0  0  0  0  0
    3.9253   41.8583   21.1827 H   0  0  0  0  0  0  0  0  0  0  0  0
  1  2  1  6
  1  3  2  0
  1  4  1  0
  1 37  1  0
  4  5  1  0
  6  5  1  0
  6  7  1  0
  6 21  1  0
  7  8  1  0
  8  9  1  0
  8 19  1  0
  9 10  1  0
  9 18  1  0
 10 11  2  0
 10 16  1  0
 11 12  1  0
 12 13  2  0
 13 14  1  0
 14 15  1  0
 14 16  2  0
 16 17  1  0
 17 18  2  0
 19 20  1  0
 19 21  1  0
 21 22  1  0
 24 23  1  0
 24 25  1  0
 24 35  1  0
 25 26  1  0
 26 27  1  0
 26 30  2  0
 27 28  1  0
 27 29  2  0
 28 31  1  0
 28 32  2  0
 29 33  1  0
 30 31  1  0
 32 34  1  0
 33 34  2  0
 35 36  2  0
 35 37  1  0
  5 38  1  0
  5 39  1  0
  6 40  1  1
  8 41  1  6
 12 42  1  0
 15 43  1  0
 15 44  1  0
 18 45  1  0
 19 46  1  6
 20 47  1  0
 21 48  1  1
 22 49  1  0
 23 50  1  0
 23 51  1  0
 23 52  1  0
 24 53  1  1
 25 54  1  0
 25 55  1  0
 29 56  1  0
 30 57  1  0
 31 58  1  0
 32 59  1  0
 33 60  1  0
 34 61  1  0
M  CHG  2   2  -1  23   1
M  END
>  <filename_input>  (4) 
7ELT_TYM_docked.sdf

>  <pdb_id>  (4) 
7ELT_TYM

>  <pose_rank>  (4) 
3

>  <num_atoms_heavy>  (4) 
37

>  <num_torsions>  (4) 
9

>  <pose>  (4) 
[11.150551461218047, 46.60723113836771, 15.740125700331804, -0.24996352750399528, -2.5765975962809438, -4.541541690534794, 1.2741191395799747, 2.411387494922332, -0.15178755365583904, 1.7678730752421177, 0.9440168435948261, -0.23557518002823494, -1.2230346860162202, 1.9125070950317822, -0.9470373280709521]

>  <energy>  (4) 
-901.6141806011151

>  <inter_energy>  (4) 
-928.3497547791404

>  <intra_energy>  (4) 
28.99886989566913

>  <rmsd>  (4) 
7.62343

>  <sdf_rank>  (4) 
0

$$$$

     RDKit          3D

 61 65  0  0  0  0  0  0  0  0999 V2000
   11.8382   45.7948   15.9389 P   0  0  2  0  0  0  0  0  0  0  0  0
   12.4606   47.1697   15.9832 O   0  0  0  0  0  0  0  0  0  0  0  0
   12.3393   44.6842   16.8312 O   0  0  0  0  0  0  0  0  0  0  0  0
   11.8129   45.2972   14.4724 O   0  0  0  0  0  0  0  0  0  0  0  0
   12.9175   44.7543   13.8540 C   0  0  0  0  0  0  0  0  0  0  0  0
   12.8863   44.8621   12.3501 C   0  0  1  0  0  0  0  0  0  0  0  0
   11.7115   44.2815   11.8426 O   0  0  0  0  0  0  0  0  0  0  0  0
   10.9760   45.2040   11.1145 C   0  0  1  0  0  0  0  0  0  0  0  0
    9.5318   44.9531   11.2277 N   0  0  0  0  0  0  0  0  0  0  0  0
    8.7066   44.7076   10.2553 C   0  0  0  0  0  0  0  0  0  0  0  0
    8.7603   44.5618    8.9259 N   0  0  0  0  0  0  0  0  0  0  0  0
    7.6924   44.3366    8.2175 C   0  0  0  0  0  0  0  0  0  0  0  0
    6.5201   44.1445    8.7450 N   0  0  0  0  0  0  0  0  0  0  0  0
    6.2740   44.2593   10.0266 C   0  0  0  0  0  0  0  0  0  0  0  0
    5.0553   44.0720   10.4995 N   0  0  0  0  0  0  0  0  0  0  0  0
    7.4062   44.5581   10.8865 C   0  0  0  0  0  0  0  0  0  0  0  0
    7.5745   44.7302   12.1666 N   0  0  0  0  0  0  0  0  0  0  0  0
    8.8515   44.9704   12.3600 C   0  0  0  0  0  0  0  0  0  0  0  0
   11.4311   46.6011   11.5710 C   0  0  2  0  0  0  0  0  0  0  0  0
   11.2371   47.6320   10.6324 O   0  0  0  0  0  0  0  0  0  0  0  0
   12.8999   46.3235   11.8614 C   0  0  2  0  0  0  0  0  0  0  0  0
   13.6774   46.5338   10.7019 O   0  0  0  0  0  0  0  0  0  0  0  0
    8.5129   48.1859   18.3036 N   0  0  0  0  0  0  0  0  0  0  0  0
    8.5235   46.9552   17.5381 C   0  0  1  0  0  0  0  0  0  0  0  0
    7.1804   46.7492   16.8914 C   0  0  0  0  0  0  0  0  0  0  0  0
    6.0419   46.3545   17.7691 C   0  0  0  0  0  0  0  0  0  0  0  0
    4.9497   47.2329   18.1222 C   0  0  0  0  0  0  0  0  0  0  0  0
    4.1214   46.4749   19.0429 C   0  0  0  0  0  0  0  0  0  0  0  0
    4.6418   48.5106   17.7646 C   0  0  0  0  0  0  0  0  0  0  0  0
    5.7999   45.2079   18.4890 C   0  0  0  0  0  0  0  0  0  0  0  0
    4.6842   45.3150   19.2017 N   0  0  0  0  0  0  0  0  0  0  0  0
    2.9816   47.0942   19.4937 C   0  0  0  0  0  0  0  0  0  0  0  0
    3.4860   49.0705   18.2644 C   0  0  0  0  0  0  0  0  0  0  0  0
    2.6784   48.3677   19.1173 C   0  0  0  0  0  0  0  0  0  0  0  0
    9.5303   47.0577   16.4333 C   0  0  0  0  0  0  0  0  0  0  0  0
    9.7268   48.0327   15.8516 O   0  0  0  0  0  0  0  0  0  0  0  0
   10.2817   45.9256   16.1010 O   0  0  0  0  0  0  0  0  0  0  0  0
   13.8128   45.2776   14.2209 H   0  0  0  0  0  0  0  0  0  0  0  0
   12.9275   43.6819   14.0987 H   0  0  0  0  0  0  0  0  0  0  0  0
   13.7883   44.3434   11.9933 H   0  0  0  0  0  0  0  0  0  0  0  0
   11.1636   45.1175   10.0341 H   0  0  0  0  0  0  0  0  0  0  0  0
    7.7860   44.3075    7.1219 H   0  0  0  0  0  0  0  0  0  0  0  0
    4.8747   44.1652   11.5092 H   0  0  0  0  0  0  0  0  0  0  0  0
    4.2853   43.8328    9.8586 H   0  0  0  0  0  0  0  0  0  0  0  0
    9.3002   45.1627   13.3458 H   0  0  0  0  0  0  0  0  0  0  0  0
   10.8490   46.9934   12.4179 H   0  0  0  0  0  0  0  0  0  0  0  0
   11.0766   48.4854   11.1079 H   0  0  0  0  0  0  0  0  0  0  0  0
   13.3554   46.9883   12.6101 H   0  0  0  0  0  0  0  0  0  0  0  0
   14.5991   46.7832   10.9634 H   0  0  0  0  0  0  0  0  0  0  0  0
    8.5148   47.9646   19.3095 H   0  0  0  0  0  0  0  0  0  0  0  0
    9.3491   48.7411   18.0726 H   0  0  0  0  0  0  0  0  0  0  0  0
    7.6672   48.7267   18.0726 H   0  0  0  0  0  0  0  0  0  0  0  0
    8.7658   46.1249   18.2177 H   0  0  0  0  0  0  0  0  0  0  0  0
    6.9041   47.6937   16.3998 H   0  0  0  0  0  0  0  0  0  0  0  0
    7.3241   45.8902   16.2194 H   0  0  0  0  0  0  0  0  0  0  0  0
    5.2998   49.0818   17.0932 H   0  0  0  0  0  0  0  0  0  0  0  0
    6.4462   44.3179   18.4762 H   0  0  0  0  0  0  0  0  0  0  0  0
    4.3110   44.5695   19.8065 H   0  0  0  0  0  0  0  0  0  0  0  0
    2.3028   46.5533   20.1694 H   0  0  0  0  0  0  0  0  0  0  0  0
    3.2090   50.0948   17.9743 H   0  0  0  0  0  0  0  0  0  0  0  0
    1.7653   48.8413   19.5071 H   0  0  0  0  0  0  0  0  0  0  0  0
  1  2  1  6
  1  3  2  0
  1  4  1  0
  1 37  1  0
  4  5  1  0
  6  5  1  0
  6  7  1  0
  6 21  1  0
  7  8  1  0
  8  9  1  0
  8 19  1  0
  9 10  1  0
  9 18  1  0
 10 11  2  0
 10 16  1  0
 11 12  1  0
 12 13  2  0
 13 14  1  0
 14 15  1  0
 14 16  2  0
 16 17  1  0
 17 18  2  0
 19 20  1  0
 19 21  1  0
 21 22  1  0
 24 23  1  0
 24 25  1  0
 24 35  1  0
 25 26  1  0
 26 27  1  0
 26 30  2  0
 27 28  1  0
 27 29  2  0
 28 31  1  0
 28 32  2  0
 29 33  1  0
 30 31  1  0
 32 34  1  0
 33 34  2  0
 35 36  2  0
 35 37  1  0
  5 38  1  0
  5 39  1  0
  6 40  1  6
  8 41  1  6
 12 42  1  0
 15 43  1  0
 15 44  1  0
 18 45  1  0
 19 46  1  1
 20 47  1  0
 21 48  1  1
 22 49  1  0
 23 50  1  0
 23 51  1  0
 23 52  1  0
 24 53  1  1
 25 54  1  0
 25 55  1  0
 29 56  1  0
 30 57  1  0
 31 58  1  0
 32 59  1  0
 33 60  1  0
 34 61  1  0
M  CHG  2   2  -1  23   1
M  END
>  <filename_input>  (5) 
7ELT_TYM_docked.sdf

>  <pdb_id>  (5) 
7ELT_TYM

>  <pose_rank>  (5) 
4

>  <num_atoms_heavy>  (5) 
37

>  <num_torsions>  (5) 
9

>  <pose>  (5) 
[11.812859639467124, 45.297211538236546, 14.472364823300442, 6.057863173857815, 0.13244764088066102, -1.3499041387627602, 2.0749019251381826, 1.0704618824599887, 1.1112718095982368, -0.2940597077981748, -0.35681141478822415, 3.337998102044325, 0.013704864669442506, -6.214700550760099, 0.11577922588970486]

>  <energy>  (5) 
-981.03300557036

>  <inter_energy>  (5) 
-998.4177668790421

>  <intra_energy>  (5) 
13.715993064576443

>  <rmsd>  (5) 
7.59955

>  <sdf_rank>  (5) 
0

$$$$

     RDKit          3D

 61 65  0  0  0  0  0  0  0  0999 V2000
   12.6912   45.9520   15.4059 P   0  0  2  0  0  0  0  0  0  0  0  0
   12.6139   47.1115   14.4418 O   0  0  0  0  0  0  0  0  0  0  0  0
   12.9349   44.5452   14.9137 O   0  0  0  0  0  0  0  0  0  0  0  0
   11.4365   45.9636   16.3137 O   0  0  0  0  0  0  0  0  0  0  0  0
   10.3374   45.1696   16.0704 C   0  0  0  0  0  0  0  0  0  0  0  0
    9.0971   45.9450   15.7032 C   0  0  1  0  0  0  0  0  0  0  0  0
    9.1031   46.2566   14.3330 O   0  0  0  0  0  0  0  0  0  0  0  0
    7.9840   45.7372   13.7006 C   0  0  1  0  0  0  0  0  0  0  0  0
    8.2780   45.3537   12.3121 N   0  0  0  0  0  0  0  0  0  0  0  0
    7.4142   45.0850   11.3801 C   0  0  0  0  0  0  0  0  0  0  0  0
    6.0830   45.0579   11.2436 N   0  0  0  0  0  0  0  0  0  0  0  0
    5.5156   44.7023   10.1281 C   0  0  0  0  0  0  0  0  0  0  0  0
    6.1850   44.4397    9.0452 N   0  0  0  0  0  0  0  0  0  0  0  0
    7.4934   44.4050    8.9921 C   0  0  0  0  0  0  0  0  0  0  0  0
    8.1159   44.1106    7.8652 N   0  0  0  0  0  0  0  0  0  0  0  0
    8.2074   44.7433   10.2114 C   0  0  0  0  0  0  0  0  0  0  0  0
    9.4610   44.8358   10.5530 N   0  0  0  0  0  0  0  0  0  0  0  0
    9.4922   45.1984   11.8153 C   0  0  0  0  0  0  0  0  0  0  0  0
    7.4531   44.6001   14.5908 C   0  0  2  0  0  0  0  0  0  0  0  0
    6.0836   44.3107   14.4420 O   0  0  0  0  0  0  0  0  0  0  0  0
    7.8032   45.1507   15.9668 C   0  0  2  0  0  0  0  0  0  0  0  0
    6.7404   45.9340   16.4666 O   0  0  0  0  0  0  0  0  0  0  0  0
   14.6798   49.8377   16.7079 N   0  0  0  0  0  0  0  0  0  0  0  0
   14.8802   48.4789   16.2451 C   0  0  1  0  0  0  0  0  0  0  0  0
   16.3209   48.0868   16.4335 C   0  0  0  0  0  0  0  0  0  0  0  0
   17.3629   49.1065   16.1221 C   0  0  0  0  0  0  0  0  0  0  0  0
   17.7665   49.4683   14.7822 C   0  0  0  0  0  0  0  0  0  0  0  0
   18.8456   50.4261   14.9451 C   0  0  0  0  0  0  0  0  0  0  0  0
   17.3362   49.0736   13.5516 C   0  0  0  0  0  0  0  0  0  0  0  0
   18.2067   49.8263   16.9353 C   0  0  0  0  0  0  0  0  0  0  0  0
   19.0378   50.5766   16.2209 N   0  0  0  0  0  0  0  0  0  0  0  0
   19.3748   50.9545   13.7933 C   0  0  0  0  0  0  0  0  0  0  0  0
   17.9211   49.6404   12.4401 C   0  0  0  0  0  0  0  0  0  0  0  0
   18.9257   50.5612   12.5690 C   0  0  0  0  0  0  0  0  0  0  0  0
   14.0587   47.5384   17.0730 C   0  0  0  0  0  0  0  0  0  0  0  0
   13.6748   47.8015   18.1270 O   0  0  0  0  0  0  0  0  0  0  0  0
   13.7244   46.2893   16.5394 O   0  0  0  0  0  0  0  0  0  0  0  0
   10.5785   44.4878   15.2415 H   0  0  0  0  0  0  0  0  0  0  0  0
   10.1157   44.6334   17.0049 H   0  0  0  0  0  0  0  0  0  0  0  0
    9.1116   46.8487   16.3303 H   0  0  0  0  0  0  0  0  0  0  0  0
    7.1881   46.4888   13.5920 H   0  0  0  0  0  0  0  0  0  0  0  0
    4.4190   44.6201   10.1000 H   0  0  0  0  0  0  0  0  0  0  0  0
    9.1452   44.0866    7.8365 H   0  0  0  0  0  0  0  0  0  0  0  0
    7.5720   43.9051    7.0150 H   0  0  0  0  0  0  0  0  0  0  0  0
   10.4176   45.3540   12.3892 H   0  0  0  0  0  0  0  0  0  0  0  0
    7.8893   43.6193   14.3506 H   0  0  0  0  0  0  0  0  0  0  0  0
    5.6660   44.2224   15.3352 H   0  0  0  0  0  0  0  0  0  0  0  0
    7.9574   44.3869   16.7433 H   0  0  0  0  0  0  0  0  0  0  0  0
    6.7580   45.9211   17.4564 H   0  0  0  0  0  0  0  0  0  0  0  0
   14.6775   49.8528   17.7378 H   0  0  0  0  0  0  0  0  0  0  0  0
   15.4416   50.4357   16.3574 H   0  0  0  0  0  0  0  0  0  0  0  0
   13.7777   50.1902   16.3574 H   0  0  0  0  0  0  0  0  0  0  0  0
   14.5923   48.4265   15.1848 H   0  0  0  0  0  0  0  0  0  0  0  0
   16.4479   47.7986   17.4874 H   0  0  0  0  0  0  0  0  0  0  0  0
   16.4890   47.2846   15.6998 H   0  0  0  0  0  0  0  0  0  0  0  0
   16.5410   48.3207   13.4476 H   0  0  0  0  0  0  0  0  0  0  0  0
   18.1948   49.7858   18.0345 H   0  0  0  0  0  0  0  0  0  0  0  0
   19.7479   51.2014   16.6286 H   0  0  0  0  0  0  0  0  0  0  0  0
   20.1740   51.7073   13.8605 H   0  0  0  0  0  0  0  0  0  0  0  0
   17.5764   49.3494   11.4368 H   0  0  0  0  0  0  0  0  0  0  0  0
   19.3800   50.9926   11.6648 H   0  0  0  0  0  0  0  0  0  0  0  0
  1  2  1  6
  1  3  2  0
  1  4  1  0
  1 37  1  0
  4  5  1  0
  6  5  1  0
  6  7  1  0
  6 21  1  0
  7  8  1  0
  8  9  1  0
  8 19  1  0
  9 10  1  0
  9 18  1  0
 10 11  2  0
 10 16  1  0
 11 12  1  0
 12 13  2  0
 13 14  1  0
 14 15  1  0
 14 16  2  0
 16 17  1  0
 17 18  2  0
 19 20  1  0
 19 21  1  0
 21 22  1  0
 24 23  1  0
 24 25  1  0
 24 35  1  0
 25 26  1  0
 26 27  1  0
 26 30  2  0
 27 28  1  0
 27 29  2  0
 28 31  1  0
 28 32  2  0
 29 33  1  0
 30 31  1  0
 32 34  1  0
 33 34  2  0
 35 36  2  0
 35 37  1  0
  5 38  1  0
  5 39  1  0
  6 40  1  1
  8 41  1  6
 12 42  1  0
 15 43  1  0
 15 44  1  0
 18 45  1  0
 19 46  1  6
 20 47  1  0
 21 48  1  1
 22 49  1  0
 23 50  1  0
 23 51  1  0
 23 52  1  0
 24 53  1  6
 25 54  1  0
 25 55  1  0
 29 56  1  0
 30 57  1  0
 31 58  1  0
 32 59  1  0
 33 60  1  0
 34 61  1  0
M  CHG  2   2  -1  23   1
M  END
>  <filename_input>  (6) 
7ELT_TYM_docked.sdf

>  <pdb_id>  (6) 
7ELT_TYM

>  <pose_rank>  (6) 
5

>  <num_atoms_heavy>  (6) 
37

>  <num_torsions>  (6) 
9

>  <pose>  (6) 
[11.436459796640673, 45.96359152443581, 16.313735614182207, -0.3620186248993481, 2.057667410086197, -0.525060895803803, 2.3869363998117397, 1.7591703751450876, 2.1034800256147066, -0.027744862481701903, 0.20559499248869192, 0.12297275722493364, 0.7516806028687644, 2.492712430533709, -0.6622010505677328]

>  <energy>  (6) 
-987.3438719884518

>  <inter_energy>  (6) 
-990.3452331606012

>  <intra_energy>  (6) 
8.386698804939835

>  <rmsd>  (6) 
3.125

>  <sdf_rank>  (6) 
0

$$$$

     RDKit          3D

 61 65  0  0  0  0  0  0  0  0999 V2000
   10.5723   45.5211   14.2625 P   0  0  2  0  0  0  0  0  0  0  0  0
   10.5002   47.0014   13.9740 O   0  0  0  0  0  0  0  0  0  0  0  0
    9.3205   44.6789   14.3280 O   0  0  0  0  0  0  0  0  0  0  0  0
   11.4054   45.2957   15.5486 O   0  0  0  0  0  0  0  0  0  0  0  0
   12.7825   45.3300   15.5559 C   0  0  0  0  0  0  0  0  0  0  0  0
   13.3649   46.0994   16.7149 C   0  0  1  0  0  0  0  0  0  0  0  0
   14.6395   46.5904   16.3846 O   0  0  0  0  0  0  0  0  0  0  0  0
   14.6839   47.9716   16.4958 C   0  0  1  0  0  0  0  0  0  0  0  0
   15.6012   48.5631   15.5108 N   0  0  0  0  0  0  0  0  0  0  0  0
   16.7748   49.0673   15.7459 C   0  0  0  0  0  0  0  0  0  0  0  0
   17.5851   49.2382   16.7974 N   0  0  0  0  0  0  0  0  0  0  0  0
   18.7370   49.8327   16.6855 C   0  0  0  0  0  0  0  0  0  0  0  0
   19.2271   50.2184   15.5451 N   0  0  0  0  0  0  0  0  0  0  0  0
   18.5735   50.1432   14.4123 C   0  0  0  0  0  0  0  0  0  0  0  0
   19.1186   50.5719   13.2884 N   0  0  0  0  0  0  0  0  0  0  0  0
   17.2551   49.5342   14.4562 C   0  0  0  0  0  0  0  0  0  0  0  0
   16.3291   49.2704   13.5790 N   0  0  0  0  0  0  0  0  0  0  0  0
   15.3404   48.6920   14.2222 C   0  0  0  0  0  0  0  0  0  0  0  0
   13.2321   48.4748   16.4166 C   0  0  2  0  0  0  0  0  0  0  0  0
   12.9941   49.7198   17.0288 O   0  0  0  0  0  0  0  0  0  0  0  0
   12.5107   47.3221   17.1021 C   0  0  2  0  0  0  0  0  0  0  0  0
   12.4323   47.5504   18.4931 O   0  0  0  0  0  0  0  0  0  0  0  0
   11.7775   47.0197   11.1199 N   0  0  0  0  0  0  0  0  0  0  0  0
   10.8995   45.8666   11.1093 C   0  0  1  0  0  0  0  0  0  0  0  0
   10.7221   45.3778    9.6971 C   0  0  0  0  0  0  0  0  0  0  0  0
    9.3481   44.9943    9.2640 C   0  0  0  0  0  0  0  0  0  0  0  0
    8.2527   44.7456   10.1736 C   0  0  0  0  0  0  0  0  0  0  0  0
    7.1392   44.3307    9.3390 C   0  0  0  0  0  0  0  0  0  0  0  0
    8.1436   44.8252   11.5289 C   0  0  0  0  0  0  0  0  0  0  0  0
    8.8310   44.7014    8.0238 C   0  0  0  0  0  0  0  0  0  0  0  0
    7.5583   44.3312    8.1095 N   0  0  0  0  0  0  0  0  0  0  0  0
    5.9536   44.0737    9.9826 C   0  0  0  0  0  0  0  0  0  0  0  0
    6.9243   44.5433   12.1059 C   0  0  0  0  0  0  0  0  0  0  0  0
    5.8546   44.1704   11.3376 C   0  0  0  0  0  0  0  0  0  0  0  0
   11.5272   44.7483   11.8841 C   0  0  0  0  0  0  0  0  0  0  0  0
   11.9718   43.8105   11.3840 O   0  0  0  0  0  0  0  0  0  0  0  0
   11.5953   44.8510   13.2775 O   0  0  0  0  0  0  0  0  0  0  0  0
   13.1552   44.2961   15.6034 H   0  0  0  0  0  0  0  0  0  0  0  0
   13.0955   45.8479   14.6373 H   0  0  0  0  0  0  0  0  0  0  0  0
   13.4023   45.3919   17.5562 H   0  0  0  0  0  0  0  0  0  0  0  0
   15.1068   48.2923   17.4593 H   0  0  0  0  0  0  0  0  0  0  0  0
   19.3230   50.0175   17.5979 H   0  0  0  0  0  0  0  0  0  0  0  0
   18.5942   50.5072   12.4043 H   0  0  0  0  0  0  0  0  0  0  0  0
   20.0681   50.9709   13.2961 H   0  0  0  0  0  0  0  0  0  0  0  0
   14.4080   48.3556   13.7453 H   0  0  0  0  0  0  0  0  0  0  0  0
   12.9025   48.6935   15.3902 H   0  0  0  0  0  0  0  0  0  0  0  0
   13.0145   49.6129   18.0128 H   0  0  0  0  0  0  0  0  0  0  0  0
   11.4627   47.1873   16.7963 H   0  0  0  0  0  0  0  0  0  0  0  0
   12.7125   46.7339   18.9778 H   0  0  0  0  0  0  0  0  0  0  0  0
   11.9812   47.2872   12.0935 H   0  0  0  0  0  0  0  0  0  0  0  0
   12.6568   46.7862   10.6369 H   0  0  0  0  0  0  0  0  0  0  0  0
   11.3186   47.8052   10.6369 H   0  0  0  0  0  0  0  0  0  0  0  0
    9.9350   46.1597   11.5496 H   0  0  0  0  0  0  0  0  0  0  0  0
   11.0663   46.1789    9.0265 H   0  0  0  0  0  0  0  0  0  0  0  0
   11.2991   44.4423    9.6521 H   0  0  0  0  0  0  0  0  0  0  0  0
    9.0079   45.1076   12.1480 H   0  0  0  0  0  0  0  0  0  0  0  0
    9.3977   44.7654    7.0832 H   0  0  0  0  0  0  0  0  0  0  0  0
    6.9749   44.0758    7.3000 H   0  0  0  0  0  0  0  0  0  0  0  0
    5.0699   43.7853    9.3945 H   0  0  0  0  0  0  0  0  0  0  0  0
    6.8093   44.6188   13.1972 H   0  0  0  0  0  0  0  0  0  0  0  0
    4.8946   43.9441   11.8248 H   0  0  0  0  0  0  0  0  0  0  0  0
  1  2  1  6
  1  3  2  0
  1  4  1  0
  1 37  1  0
  4  5  1  0
  6  5  1  0
  6  7  1  0
  6 21  1  0
  7  8  1  0
  8  9  1  0
  8 19  1  0
  9 10  1  0
  9 18  1  0
 10 11  2  0
 10 16  1  0
 11 12  1  0
 12 13  2  0
 13 14  1  0
 14 15  1  0
 14 16  2  0
 16 17  1  0
 17 18  2  0
 19 20  1  0
 19 21  1  0
 21 22  1  0
 24 23  1  0
 24 25  1  0
 24 35  1  0
 25 26  1  0
 26 27  1  0
 26 30  2  0
 27 28  1  0
 27 29  2  0
 28 31  1  0
 28 32  2  0
 29 33  1  0
 30 31  1  0
 32 34  1  0
 33 34  2  0
 35 36  2  0
 35 37  1  0
  5 38  1  0
  5 39  1  0
  6 40  1  1
  8 41  1  1
 12 42  1  0
 15 43  1  0
 15 44  1  0
 18 45  1  0
 19 46  1  6
 20 47  1  0
 21 48  1  6
 22 49  1  0
 23 50  1  0
 23 51  1  0
 23 52  1  0
 24 53  1  1
 25 54  1  0
 25 55  1  0
 29 56  1  0
 30 57  1  0
 31 58  1  0
 32 59  1  0
 33 60  1  0
 34 61  1  0
M  CHG  2   2  -1  23   1
M  END
>  <filename_input>  (7) 
7ELT_TYM_docked.sdf

>  <pdb_id>  (7) 
7ELT_TYM

>  <pose_rank>  (7) 
6

>  <num_atoms_heavy>  (7) 
37

>  <num_torsions>  (7) 
9

>  <pose>  (7) 
[11.405449395385173, 45.29565125142669, 15.548557684860606, -2.6599335657094936, 0.38814815405382314, 0.8064842635246647, -0.7049382143686478, 0.11547811189102354, -2.3156374433362927, -1.5262216869958756, -1.4774722443773873, 1.1768625118741458, -1.1730522706831594, -1.6576526629011867, 0.3720928207678477]

>  <energy>  (7) 
-901.1849214264489

>  <inter_energy>  (7) 
-955.2153180776737

>  <intra_energy>  (7) 
53.72022004765897

>  <rmsd>  (7) 
10.0522

>  <sdf_rank>  (7) 
0

$$$$

     RDKit          3D

 61 65  0  0  0  0  0  0  0  0999 V2000
   11.5952   46.5090   16.5266 P   0  0  2  0  0  0  0  0  0  0  0  0
   11.4491   48.0007   16.7087 O   0  0  0  0  0  0  0  0  0  0  0  0
   12.8027   45.7744   17.0584 O   0  0  0  0  0  0  0  0  0  0  0  0
   11.4059   46.1605   15.0294 O   0  0  0  0  0  0  0  0  0  0  0  0
   12.4435   45.7343   14.2300 C   0  0  0  0  0  0  0  0  0  0  0  0
   12.8455   46.7320   13.1729 C   0  0  1  0  0  0  0  0  0  0  0  0
   13.5485   47.8019   13.7525 O   0  0  0  0  0  0  0  0  0  0  0  0
   14.8129   47.9244   13.1971 C   0  0  1  0  0  0  0  0  0  0  0  0
   15.7882   48.4196   14.1794 N   0  0  0  0  0  0  0  0  0  0  0  0
   16.8256   49.1630   13.9384 C   0  0  0  0  0  0  0  0  0  0  0  0
   17.3935   49.7553   12.8810 N   0  0  0  0  0  0  0  0  0  0  0  0
   18.4957   50.4383   12.9881 C   0  0  0  0  0  0  0  0  0  0  0  0
   19.0740   50.6755   14.1278 N   0  0  0  0  0  0  0  0  0  0  0  0
   18.6685   50.1693   15.2660 C   0  0  0  0  0  0  0  0  0  0  0  0
   19.3120   50.4312   16.3890 N   0  0  0  0  0  0  0  0  0  0  0  0
   17.4679   49.3519   15.2282 C   0  0  0  0  0  0  0  0  0  0  0  0
   16.7614   48.7059   16.1115 N   0  0  0  0  0  0  0  0  0  0  0  0
   15.7592   48.1473   15.4718 C   0  0  0  0  0  0  0  0  0  0  0  0
   15.1590   46.5646   12.5658 C   0  0  2  0  0  0  0  0  0  0  0  0
   16.1011   46.6103   11.5209 O   0  0  0  0  0  0  0  0  0  0  0  0
   13.7761   46.1218   12.1069 C   0  0  2  0  0  0  0  0  0  0  0  0
   13.5246   46.5797   10.7954 O   0  0  0  0  0  0  0  0  0  0  0  0
    7.1007   44.8160   15.4314 N   0  0  0  0  0  0  0  0  0  0  0  0
    8.5303   44.7068   15.6442 C   0  0  1  0  0  0  0  0  0  0  0  0
    9.2484   44.8150   14.3261 C   0  0  0  0  0  0  0  0  0  0  0  0
    8.4223   44.8176   13.0851 C   0  0  0  0  0  0  0  0  0  0  0  0
    8.9705   44.8420   11.7480 C   0  0  0  0  0  0  0  0  0  0  0  0
    7.8253   44.9149   10.8582 C   0  0  0  0  0  0  0  0  0  0  0  0
   10.2475   44.8217   11.2747 C   0  0  0  0  0  0  0  0  0  0  0  0
    7.0625   44.8956   12.8946 C   0  0  0  0  0  0  0  0  0  0  0  0
    6.7608   44.9426   11.6020 N   0  0  0  0  0  0  0  0  0  0  0  0
    8.0944   44.9085    9.5116 C   0  0  0  0  0  0  0  0  0  0  0  0
   10.4408   44.8269    9.9103 C   0  0  0  0  0  0  0  0  0  0  0  0
    9.3759   44.8741    9.0514 C   0  0  0  0  0  0  0  0  0  0  0  0
    9.0016   45.8469   16.4944 C   0  0  0  0  0  0  0  0  0  0  0  0
    8.3444   46.7611   16.7389 O   0  0  0  0  0  0  0  0  0  0  0  0
   10.2913   45.7955   17.0335 O   0  0  0  0  0  0  0  0  0  0  0  0
   13.3160   45.5364   14.8700 H   0  0  0  0  0  0  0  0  0  0  0  0
   12.0945   44.8332   13.7045 H   0  0  0  0  0  0  0  0  0  0  0  0
   11.9086   47.0633   12.7013 H   0  0  0  0  0  0  0  0  0  0  0  0
   14.8413   48.6879   12.4058 H   0  0  0  0  0  0  0  0  0  0  0  0
   18.9595   50.8331   12.0721 H   0  0  0  0  0  0  0  0  0  0  0  0
   18.9831   50.0270   17.2774 H   0  0  0  0  0  0  0  0  0  0  0  0
   20.1430   51.0397   16.3764 H   0  0  0  0  0  0  0  0  0  0  0  0
   14.9888   47.5276   15.9540 H   0  0  0  0  0  0  0  0  0  0  0  0
   15.6673   45.8791   13.2598 H   0  0  0  0  0  0  0  0  0  0  0  0
   17.0140   46.6546   11.9014 H   0  0  0  0  0  0  0  0  0  0  0  0
   13.6402   45.0324   12.0379 H   0  0  0  0  0  0  0  0  0  0  0  0
   13.0483   47.4467   10.8342 H   0  0  0  0  0  0  0  0  0  0  0  0
    6.6200   44.8528   16.3416 H   0  0  0  0  0  0  0  0  0  0  0  0
    6.8972   45.6750   14.9008 H   0  0  0  0  0  0  0  0  0  0  0  0
    6.7691   43.9979   14.9008 H   0  0  0  0  0  0  0  0  0  0  0  0
    8.7372   43.7410   16.1283 H   0  0  0  0  0  0  0  0  0  0  0  0
    9.8223   45.7533   14.3407 H   0  0  0  0  0  0  0  0  0  0  0  0
    9.8473   43.8948   14.2595 H   0  0  0  0  0  0  0  0  0  0  0  0
   11.1038   44.8017   11.9649 H   0  0  0  0  0  0  0  0  0  0  0  0
    6.3212   44.9165   13.7070 H   0  0  0  0  0  0  0  0  0  0  0  0
    5.8000   44.9945   11.2343 H   0  0  0  0  0  0  0  0  0  0  0  0
    7.2618   44.9315    8.7931 H   0  0  0  0  0  0  0  0  0  0  0  0
   11.4634   44.7928    9.5063 H   0  0  0  0  0  0  0  0  0  0  0  0
    9.5590   44.8845    7.9668 H   0  0  0  0  0  0  0  0  0  0  0  0
  1  2  1  6
  1  3  2  0
  1  4  1  0
  1 37  1  0
  4  5  1  0
  6  5  1  0
  6  7  1  0
  6 21  1  0
  7  8  1  0
  8  9  1  0
  8 19  1  0
  9 10  1  0
  9 18  1  0
 10 11  2  0
 10 16  1  0
 11 12  1  0
 12 13  2  0
 13 14  1  0
 14 15  1  0
 14 16  2  0
 16 17  1  0
 17 18  2  0
 19 20  1  0
 19 21  1  0
 21 22  1  0
 24 23  1  0
 24 25  1  0
 24 35  1  0
 25 26  1  0
 26 27  1  0
 26 30  2  0
 27 28  1  0
 27 29  2  0
 28 31  1  0
 28 32  2  0
 29 33  1  0
 30 31  1  0
 32 34  1  0
 33 34  2  0
 35 36  2  0
 35 37  1  0
  5 38  1  0
  5 39  1  0
  6 40  1  6
  8 41  1  6
 12 42  1  0
 15 43  1  0
 15 44  1  0
 18 45  1  0
 19 46  1  1
 20 47  1  0
 21 48  1  6
 22 49  1  0
 23 50  1  0
 23 51  1  0
 23 52  1  0
 24 53  1  1
 25 54  1  0
 25 55  1  0
 29 56  1  0
 30 57  1  0
 31 58  1  0
 32 59  1  0
 33 60  1  0
 34 61  1  0
M  CHG  2   2  -1  23   1
M  END
>  <filename_input>  (8) 
7ELT_TYM_docked.sdf

>  <pdb_id>  (8) 
7ELT_TYM

>  <pose_rank>  (8) 
7

>  <num_atoms_heavy>  (8) 
37

>  <num_torsions>  (8) 
9

>  <pose>  (8) 
[11.405862167174107, 46.16054271163685, 15.029399845765969, 1.4558935154748553, 5.551535356277545, 2.8758230671453084, -79.08740307856968, 21.251228604490926, 74.23991936492385, 62.97934138558603, -18.07991041047266, -1.626375252770084, -24.337160038933852, -47.93834932014357, -31.774105417381584]

>  <energy>  (8) 
-843.1742719987742

>  <inter_energy>  (8) 
-923.5474344657233

>  <intra_energy>  (8) 
83.07604335446034

>  <rmsd>  (8) 
9.06346

>  <sdf_rank>  (8) 
0

$$$$

     RDKit          3D

 61 65  0  0  0  0  0  0  0  0999 V2000
   14.3018   46.4558   12.5010 P   0  0  2  0  0  0  0  0  0  0  0  0
   14.3629   47.2840   11.2400 O   0  0  0  0  0  0  0  0  0  0  0  0
   15.2603   45.3111   12.7277 O   0  0  0  0  0  0  0  0  0  0  0  0
   12.8513   45.9537   12.7075 O   0  0  0  0  0  0  0  0  0  0  0  0
   11.8160   46.3127   11.8727 C   0  0  0  0  0  0  0  0  0  0  0  0
   10.9894   45.1459   11.3935 C   0  0  1  0  0  0  0  0  0  0  0  0
   10.2568   44.5955   12.4589 O   0  0  0  0  0  0  0  0  0  0  0  0
    8.8963   44.6248   12.1937 C   0  0  1  0  0  0  0  0  0  0  0  0
    8.1107   44.8071   13.4229 N   0  0  0  0  0  0  0  0  0  0  0  0
    8.5641   45.1414   14.5932 C   0  0  0  0  0  0  0  0  0  0  0  0
    9.7431   45.4530   15.1448 N   0  0  0  0  0  0  0  0  0  0  0  0
    9.8562   45.7256   16.4120 C   0  0  0  0  0  0  0  0  0  0  0  0
    8.8354   45.8080   17.2126 N   0  0  0  0  0  0  0  0  0  0  0  0
    7.6076   45.5261   16.8534 C   0  0  0  0  0  0  0  0  0  0  0  0
    6.6147   45.6087   17.7201 N   0  0  0  0  0  0  0  0  0  0  0  0
    7.3992   45.1641   15.4618 C   0  0  0  0  0  0  0  0  0  0  0  0
    6.3676   44.8404   14.7355 N   0  0  0  0  0  0  0  0  0  0  0  0
    6.8056   44.6246   13.5159 C   0  0  0  0  0  0  0  0  0  0  0  0
    8.6729   45.6980   11.1140 C   0  0  2  0  0  0  0  0  0  0  0  0
    7.5158   45.5293   10.3304 O   0  0  0  0  0  0  0  0  0  0  0  0
    9.9627   45.5504   10.3179 C   0  0  2  0  0  0  0  0  0  0  0  0
    9.7992   44.5945    9.2920 O   0  0  0  0  0  0  0  0  0  0  0  0
   13.0860   47.5966   17.1920 N   0  0  0  0  0  0  0  0  0  0  0  0
   13.8633   48.1274   16.0898 C   0  0  1  0  0  0  0  0  0  0  0  0
   15.3146   47.7770   16.2784 C   0  0  0  0  0  0  0  0  0  0  0  0
   16.2290   48.8497   16.7638 C   0  0  0  0  0  0  0  0  0  0  0  0
   17.3350   49.3783   15.9979 C   0  0  0  0  0  0  0  0  0  0  0  0
   17.9930   50.3336   16.8713 C   0  0  0  0  0  0  0  0  0  0  0  0
   17.7896   49.1243   14.7393 C   0  0  0  0  0  0  0  0  0  0  0  0
   16.3251   49.4855   17.9795 C   0  0  0  0  0  0  0  0  0  0  0  0
   17.3464   50.3344   17.9979 N   0  0  0  0  0  0  0  0  0  0  0  0
   19.0666   51.0079   16.3435 C   0  0  0  0  0  0  0  0  0  0  0  0
   18.8786   49.8332   14.2805 C   0  0  0  0  0  0  0  0  0  0  0  0
   19.5025   50.7541   15.0783 C   0  0  0  0  0  0  0  0  0  0  0  0
   13.4217   47.4889   14.8084 C   0  0  0  0  0  0  0  0  0  0  0  0
   12.3596   47.0719   14.6484 O   0  0  0  0  0  0  0  0  0  0  0  0
   14.3310   47.4092   13.7484 O   0  0  0  0  0  0  0  0  0  0  0  0
   11.1565   47.0054   12.4159 H   0  0  0  0  0  0  0  0  0  0  0  0
   12.2674   46.7736   10.9817 H   0  0  0  0  0  0  0  0  0  0  0  0
   11.7046   44.4250   10.9708 H   0  0  0  0  0  0  0  0  0  0  0  0
    8.5337   43.6629   11.8024 H   0  0  0  0  0  0  0  0  0  0  0  0
   10.8618   45.8940   16.8248 H   0  0  0  0  0  0  0  0  0  0  0  0
    5.6536   45.3844   17.4252 H   0  0  0  0  0  0  0  0  0  0  0  0
    6.8013   45.8976   18.6910 H   0  0  0  0  0  0  0  0  0  0  0  0
    6.1632   44.3277   12.6737 H   0  0  0  0  0  0  0  0  0  0  0  0
    8.4865   46.6999   11.5280 H   0  0  0  0  0  0  0  0  0  0  0  0
    6.7304   45.4148   10.9220 H   0  0  0  0  0  0  0  0  0  0  0  0
   10.2822   46.4585    9.7856 H   0  0  0  0  0  0  0  0  0  0  0  0
    9.6466   43.7025    9.6933 H   0  0  0  0  0  0  0  0  0  0  0  0
   13.5117   47.8873   18.0838 H   0  0  0  0  0  0  0  0  0  0  0  0
   12.1227   47.9573   17.1378 H   0  0  0  0  0  0  0  0  0  0  0  0
   13.0711   46.5682   17.1378 H   0  0  0  0  0  0  0  0  0  0  0  0
   13.7215   49.2178   16.0574 H   0  0  0  0  0  0  0  0  0  0  0  0
   15.3618   46.9518   17.0043 H   0  0  0  0  0  0  0  0  0  0  0  0
   15.6769   47.5393   15.2674 H   0  0  0  0  0  0  0  0  0  0  0  0
   17.2992   48.3717   14.1045 H   0  0  0  0  0  0  0  0  0  0  0  0
   15.6446   49.3135   18.8264 H   0  0  0  0  0  0  0  0  0  0  0  0
   17.5954   50.9216   18.8067 H   0  0  0  0  0  0  0  0  0  0  0  0
   19.5828   51.7649   16.9522 H   0  0  0  0  0  0  0  0  0  0  0  0
   19.2512   49.6568   13.2607 H   0  0  0  0  0  0  0  0  0  0  0  0
   20.3743   51.3007   14.6894 H   0  0  0  0  0  0  0  0  0  0  0  0
  1  2  1  6
  1  3  2  0
  1  4  1  0
  1 37  1  0
  4  5  1  0
  6  5  1  0
  6  7  1  0
  6 21  1  0
  7  8  1  0
  8  9  1  0
  8 19  1  0
  9 10  1  0
  9 18  1  0
 10 11  2  0
 10 16  1  0
 11 12  1  0
 12 13  2  0
 13 14  1  0
 14 15  1  0
 14 16  2  0
 16 17  1  0
 17 18  2  0
 19 20  1  0
 19 21  1  0
 21 22  1  0
 24 23  1  0
 24 25  1  0
 24 35  1  0
 25 26  1  0
 26 27  1  0
 26 30  2  0
 27 28  1  0
 27 29  2  0
 28 31  1  0
 28 32  2  0
 29 33  1  0
 30 31  1  0
 32 34  1  0
 33 34  2  0
 35 36  2  0
 35 37  1  0
  5 38  1  0
  5 39  1  0
  6 40  1  6
  8 41  1  6
 12 42  1  0
 15 43  1  0
 15 44  1  0
 18 45  1  0
 19 46  1  1
 20 47  1  0
 21 48  1  6
 22 49  1  0
 23 50  1  0
 23 51  1  0
 23 52  1  0
 24 53  1  6
 25 54  1  0
 25 55  1  0
 29 56  1  0
 30 57  1  0
 31 58  1  0
 32 59  1  0
 33 60  1  0
 34 61  1  0
M  CHG  2   2  -1  23   1
M  END
>  <filename_input>  (9) 
7ELT_TYM_docked.sdf

>  <pdb_id>  (9) 
7ELT_TYM

>  <pose_rank>  (9) 
8

>  <num_atoms_heavy>  (9) 
37

>  <num_torsions>  (9) 
9

>  <pose>  (9) 
[12.851265889730824, 45.95369500090254, 12.707506709135291, 0.6902301500462512, 1.8241692367460938, 0.6948966349771893, 0.6142254324445592, 3.4077367989402783, -0.11864477080209589, 0.8142310814609377, -0.8870304597292547, -0.5774081092342047, -1.2619098496672558, 2.2389338871427573, 2.4353103281381667]

>  <energy>  (9) 
-841.5508802332224

>  <inter_energy>  (9) 
-901.8519014060864

>  <intra_energy>  (9) 
71.9806372261666

>  <rmsd>  (9) 
3.96363

>  <sdf_rank>  (9) 
0

$$$$

     RDKit          3D

 61 65  0  0  0  0  0  0  0  0999 V2000
   14.9149   46.5903   12.0152 P   0  0  2  0  0  0  0  0  0  0  0  0
   15.0127   45.5829   13.1357 O   0  0  0  0  0  0  0  0  0  0  0  0
   15.4214   46.2657   10.6301 O   0  0  0  0  0  0  0  0  0  0  0  0
   15.5351   47.9301   12.4831 O   0  0  0  0  0  0  0  0  0  0  0  0
   16.2131   48.0575   13.6754 C   0  0  0  0  0  0  0  0  0  0  0  0
   15.4610   48.8419   14.7212 C   0  0  1  0  0  0  0  0  0  0  0  0
   14.1429   48.3680   14.8338 O   0  0  0  0  0  0  0  0  0  0  0  0
   13.8769   47.9422   16.1261 C   0  0  1  0  0  0  0  0  0  0  0  0
   12.9276   46.8197   16.1398 N   0  0  0  0  0  0  0  0  0  0  0  0
   11.6644   46.8732   16.4371 C   0  0  0  0  0  0  0  0  0  0  0  0
   10.7687   47.8054   16.7839 N   0  0  0  0  0  0  0  0  0  0  0  0
    9.5318   47.5021   17.0498 C   0  0  0  0  0  0  0  0  0  0  0  0
    9.0512   46.3023   16.9110 N   0  0  0  0  0  0  0  0  0  0  0  0
    9.7801   45.2618   16.5914 C   0  0  0  0  0  0  0  0  0  0  0  0
    9.2361   44.0630   16.4862 N   0  0  0  0  0  0  0  0  0  0  0  0
   11.1872   45.5052   16.3238 C   0  0  0  0  0  0  0  0  0  0  0  0
   12.2029   44.7679   15.9756 N   0  0  0  0  0  0  0  0  0  0  0  0
   13.2420   45.5649   15.8719 C   0  0  0  0  0  0  0  0  0  0  0  0
   15.2339   47.6544   16.7917 C   0  0  2  0  0  0  0  0  0  0  0  0
   15.2433   47.7393   18.1968 O   0  0  0  0  0  0  0  0  0  0  0  0
   16.0928   48.7183   16.1212 C   0  0  2  0  0  0  0  0  0  0  0  0
   16.0661   49.9143   16.8707 O   0  0  0  0  0  0  0  0  0  0  0  0
   12.5993   44.0897   11.9978 N   0  0  0  0  0  0  0  0  0  0  0  0
   11.8497   45.2321   11.5142 C   0  0  1  0  0  0  0  0  0  0  0  0
   10.3819   45.0200   11.7697 C   0  0  0  0  0  0  0  0  0  0  0  0
    9.4637   45.0434   10.5954 C   0  0  0  0  0  0  0  0  0  0  0  0
    8.0399   44.8084   10.6766 C   0  0  0  0  0  0  0  0  0  0  0  0
    7.5594   44.8472    9.3069 C   0  0  0  0  0  0  0  0  0  0  0  0
    7.2025   44.5737   11.7249 C   0  0  0  0  0  0  0  0  0  0  0  0
    9.7084   45.1755    9.2486 C   0  0  0  0  0  0  0  0  0  0  0  0
    8.5881   45.0636    8.5439 N   0  0  0  0  0  0  0  0  0  0  0  0
    6.2073   44.6880    9.1271 C   0  0  0  0  0  0  0  0  0  0  0  0
    5.8583   44.4141   11.4669 C   0  0  0  0  0  0  0  0  0  0  0  0
    5.3791   44.4676   10.1858 C   0  0  0  0  0  0  0  0  0  0  0  0
   12.2538   46.4582   12.2746 C   0  0  0  0  0  0  0  0  0  0  0  0
   11.6416   46.8815   13.1541 O   0  0  0  0  0  0  0  0  0  0  0  0
   13.4371   47.1123   11.9160 O   0  0  0  0  0  0  0  0  0  0  0  0
   16.4100   47.0505   14.0719 H   0  0  0  0  0  0  0  0  0  0  0  0
   17.1379   48.6131   13.4609 H   0  0  0  0  0  0  0  0  0  0  0  0
   15.4939   49.8906   14.3909 H   0  0  0  0  0  0  0  0  0  0  0  0
   13.3623   48.7156   16.7152 H   0  0  0  0  0  0  0  0  0  0  0  0
    8.8619   48.2974   17.4086 H   0  0  0  0  0  0  0  0  0  0  0  0
    9.8200   43.2528   16.2343 H   0  0  0  0  0  0  0  0  0  0  0  0
    8.2279   43.9383   16.6562 H   0  0  0  0  0  0  0  0  0  0  0  0
   14.2520   45.2281   15.5954 H   0  0  0  0  0  0  0  0  0  0  0  0
   15.5750   46.6177   16.6544 H   0  0  0  0  0  0  0  0  0  0  0  0
   15.1426   46.8333   18.5828 H   0  0  0  0  0  0  0  0  0  0  0  0
   17.1627   48.4717   16.0537 H   0  0  0  0  0  0  0  0  0  0  0  0
   16.0709   49.6985   17.8369 H   0  0  0  0  0  0  0  0  0  0  0  0
   12.5991   44.0900   13.0278 H   0  0  0  0  0  0  0  0  0  0  0  0
   12.1625   43.2223   11.6546 H   0  0  0  0  0  0  0  0  0  0  0  0
   13.5688   44.1450   11.6546 H   0  0  0  0  0  0  0  0  0  0  0  0
   12.0502   45.3499   10.4390 H   0  0  0  0  0  0  0  0  0  0  0  0
   10.2712   44.0385   12.2538 H   0  0  0  0  0  0  0  0  0  0  0  0
   10.0777   45.8848   12.3777 H   0  0  0  0  0  0  0  0  0  0  0  0
    7.5899   44.5131   12.7527 H   0  0  0  0  0  0  0  0  0  0  0  0
   10.7026   45.3511    8.8118 H   0  0  0  0  0  0  0  0  0  0  0  0
    8.5409   45.1392    7.5177 H   0  0  0  0  0  0  0  0  0  0  0  0
    5.7864   44.7394    8.1121 H   0  0  0  0  0  0  0  0  0  0  0  0
    5.1618   44.2415   12.3006 H   0  0  0  0  0  0  0  0  0  0  0  0
    4.3025   44.3298   10.0075 H   0  0  0  0  0  0  0  0  0  0  0  0
  1  2  1  1
  1  3  2  0
  1  4  1  0
  1 37  1  0
  4  5  1  0
  6  5  1  0
  6  7  1  0
  6 21  1  0
  7  8  1  0
  8  9  1  0
  8 19  1  0
  9 10  1  0
  9 18  1  0
 10 11  2  0
 10 16  1  0
 11 12  1  0
 12 13  2  0
 13 14  1  0
 14 15  1  0
 14 16  2  0
 16 17  1  0
 17 18  2  0
 19 20  1  0
 19 21  1  0
 21 22  1  0
 24 23  1  0
 24 25  1  0
 24 35  1  0
 25 26  1  0
 26 27  1  0
 26 30  2  0
 27 28  1  0
 27 29  2  0
 28 31  1  0
 28 32  2  0
 29 33  1  0
 30 31  1  0
 32 34  1  0
 33 34  2  0
 35 36  2  0
 35 37  1  0
  5 38  1  0
  5 39  1  0
  6 40  1  6
  8 41  1  1
 12 42  1  0
 15 43  1  0
 15 44  1  0
 18 45  1  0
 19 46  1  1
 20 47  1  0
 21 48  1  6
 22 49  1  0
 23 50  1  0
 23 51  1  0
 23 52  1  0
 24 53  1  6
 25 54  1  0
 25 55  1  0
 29 56  1  0
 30 57  1  0
 31 58  1  0
 32 59  1  0
 33 60  1  0
 34 61  1  0
M  CHG  2   2  -1  23   1
M  END
>  <filename_input>  (10) 
7ELT_TYM_docked.sdf

>  <pdb_id>  (10) 
7ELT_TYM

>  <pose_rank>  (10) 
9

>  <num_atoms_heavy>  (10) 
37

>  <num_torsions>  (10) 
9

>  <pose>  (10) 
[15.535072357032886, 47.930121868546244, 12.483087364882735, -2.6095875861522226, 2.7386544170365927, -1.5365549077372218, 0.8122341664132443, 0.7449166147509029, 2.233273844338862, -1.3865252584748466, -1.2110725168962082, 4.555523565389116, 0.8457227849996904, -4.391332514663994, 0.43167433290534474]

>  <energy>  (10) 
-841.0697217894377

>  <inter_energy>  (10) 
-866.8060199857827

>  <intra_energy>  (10) 
27.915802713428562

>  <rmsd>  (10) 
8.66837

>  <sdf_rank>  (10) 
0

$$$$

     RDKit          3D

 61 65  0  0  0  0  0  0  0  0999 V2000
   10.3818   45.3350   16.6387 P   0  0  2  0  0  0  0  0  0  0  0  0
    9.2413   46.1566   17.1901 O   0  0  0  0  0  0  0  0  0  0  0  0
   10.6989   43.9688   17.1987 O   0  0  0  0  0  0  0  0  0  0  0  0
   11.6699   46.1950   16.6344 O   0  0  0  0  0  0  0  0  0  0  0  0
   12.6394   46.0740   15.6634 C   0  0  0  0  0  0  0  0  0  0  0  0
   12.5124   47.0823   14.5491 C   0  0  1  0  0  0  0  0  0  0  0  0
   13.4732   48.0972   14.6964 O   0  0  0  0  0  0  0  0  0  0  0  0
   14.2907   48.1731   13.5793 C   0  0  1  0  0  0  0  0  0  0  0  0
   15.6551   48.5884   13.9362 N   0  0  0  0  0  0  0  0  0  0  0  0
   16.1005   48.8547   15.1268 C   0  0  0  0  0  0  0  0  0  0  0  0
   15.6322   48.8547   16.3807 N   0  0  0  0  0  0  0  0  0  0  0  0
   16.3710   49.2178   17.3882 C   0  0  0  0  0  0  0  0  0  0  0  0
   17.6311   49.5149   17.2717 N   0  0  0  0  0  0  0  0  0  0  0  0
   18.2576   49.5797   16.1230 C   0  0  0  0  0  0  0  0  0  0  0  0
   19.5355   49.9083   16.0685 N   0  0  0  0  0  0  0  0  0  0  0  0
   17.4903   49.2352   14.9384 C   0  0  0  0  0  0  0  0  0  0  0  0
   17.7421   49.1643   13.6624 N   0  0  0  0  0  0  0  0  0  0  0  0
   16.6343   48.7796   13.0702 C   0  0  0  0  0  0  0  0  0  0  0  0
   14.1912   46.8178   12.8578 C   0  0  2  0  0  0  0  0  0  0  0  0
   14.4800   46.8483   11.4805 O   0  0  0  0  0  0  0  0  0  0  0  0
   12.7421   46.4593   13.1586 C   0  0  2  0  0  0  0  0  0  0  0  0
   11.8919   46.9694   12.1535 O   0  0  0  0  0  0  0  0  0  0  0  0
    9.4351   43.3554   13.2134 N   0  0  0  0  0  0  0  0  0  0  0  0
    8.9287   44.7005   13.0254 C   0  0  1  0  0  0  0  0  0  0  0  0
    7.4494   44.6516   12.7533 C   0  0  0  0  0  0  0  0  0  0  0  0
    7.0081   44.5954   11.3305 C   0  0  0  0  0  0  0  0  0  0  0  0
    7.8917   44.7776   10.2012 C   0  0  0  0  0  0  0  0  0  0  0  0
    7.0398   44.7223    9.0265 C   0  0  0  0  0  0  0  0  0  0  0  0
    9.2351   44.9802   10.1051 C   0  0  0  0  0  0  0  0  0  0  0  0
    5.7596   44.4735   10.7668 C   0  0  0  0  0  0  0  0  0  0  0  0
    5.8220   44.5446    9.4419 N   0  0  0  0  0  0  0  0  0  0  0  0
    7.6666   44.8316    7.8095 C   0  0  0  0  0  0  0  0  0  0  0  0
    9.7931   45.0904    8.8499 C   0  0  0  0  0  0  0  0  0  0  0  0
    9.0130   45.0203    7.7273 C   0  0  0  0  0  0  0  0  0  0  0  0
    9.1164   45.4900   14.2848 C   0  0  0  0  0  0  0  0  0  0  0  0
    8.3688   46.2912   14.6406 O   0  0  0  0  0  0  0  0  0  0  0  0
   10.2397   45.2338   15.0781 O   0  0  0  0  0  0  0  0  0  0  0  0
   13.6235   46.2029   16.1376 H   0  0  0  0  0  0  0  0  0  0  0  0
   12.5179   45.0788   15.2109 H   0  0  0  0  0  0  0  0  0  0  0  0
   11.4869   47.4746   14.6149 H   0  0  0  0  0  0  0  0  0  0  0  0
   13.9617   48.9583   12.8826 H   0  0  0  0  0  0  0  0  0  0  0  0
   15.9081   49.2761   18.3843 H   0  0  0  0  0  0  0  0  0  0  0  0
   20.0167   49.9557   15.1591 H   0  0  0  0  0  0  0  0  0  0  0  0
   20.0510   50.1171   16.9354 H   0  0  0  0  0  0  0  0  0  0  0  0
   16.5341   48.6342   11.9845 H   0  0  0  0  0  0  0  0  0  0  0  0
   14.9385   46.0866   13.1999 H   0  0  0  0  0  0  0  0  0  0  0  0
   15.4560   46.9514   11.3501 H   0  0  0  0  0  0  0  0  0  0  0  0
   12.5261   45.3808   13.1661 H   0  0  0  0  0  0  0  0  0  0  0  0
   11.1234   47.4304   12.5740 H   0  0  0  0  0  0  0  0  0  0  0  0
    9.5106   43.1547   14.2208 H   0  0  0  0  0  0  0  0  0  0  0  0
    8.7901   42.6816   12.7765 H   0  0  0  0  0  0  0  0  0  0  0  0
   10.3643   43.2741   12.7765 H   0  0  0  0  0  0  0  0  0  0  0  0
    9.4695   45.1615   12.1857 H   0  0  0  0  0  0  0  0  0  0  0  0
    7.0523   43.7574   13.2560 H   0  0  0  0  0  0  0  0  0  0  0  0
    7.0664   45.6132   13.1255 H   0  0  0  0  0  0  0  0  0  0  0  0
    9.8596   45.0542   11.0076 H   0  0  0  0  0  0  0  0  0  0  0  0
    4.8302   44.3352   11.3387 H   0  0  0  0  0  0  0  0  0  0  0  0
    5.0045   44.4683    8.8199 H   0  0  0  0  0  0  0  0  0  0  0  0
    7.0719   44.7657    6.8865 H   0  0  0  0  0  0  0  0  0  0  0  0
   10.8786   45.2363    8.7488 H   0  0  0  0  0  0  0  0  0  0  0  0
    9.4834   45.1185    6.7378 H   0  0  0  0  0  0  0  0  0  0  0  0
  1  2  1  1
  1  3  2  0
  1  4  1  0
  1 37  1  0
  4  5  1  0
  6  5  1  0
  6  7  1  0
  6 21  1  0
  7  8  1  0
  8  9  1  0
  8 19  1  0
  9 10  1  0
  9 18  1  0
 10 11  2  0
 10 16  1  0
 11 12  1  0
 12 13  2  0
 13 14  1  0
 14 15  1  0
 14 16  2  0
 16 17  1  0
 17 18  2  0
 19 20  1  0
 19 21  1  0
 21 22  1  0
 24 23  1  0
 24 25  1  0
 24 35  1  0
 25 26  1  0
 26 27  1  0
 26 30  2  0
 27 28  1  0
 27 29  2  0
 28 31  1  0
 28 32  2  0
 29 33  1  0
 30 31  1  0
 32 34  1  0
 33 34  2  0
 35 36  2  0
 35 37  1  0
  5 38  1  0
  5 39  1  0
  6 40  1  6
  8 41  1  6
 12 42  1  0
 15 43  1  0
 15 44  1  0
 18 45  1  0
 19 46  1  1
 20 47  1  0
 21 48  1  1
 22 49  1  0
 23 50  1  0
 23 51  1  0
 23 52  1  0
 24 53  1  6
 25 54  1  0
 25 55  1  0
 29 56  1  0
 30 57  1  0
 31 58  1  0
 32 59  1  0
 33 60  1  0
 34 61  1  0
M  CHG  2   2  -1  23   1
M  END
>  <filename_input>  (11) 
7ELT_TYM_docked.sdf

>  <pdb_id>  (11) 
7ELT_TYM

>  <pose_rank>  (11) 
10

>  <num_atoms_heavy>  (11) 
37

>  <num_torsions>  (11) 
9

>  <pose>  (11) 
[11.669895787386452, 46.19499197911854, 16.634429516391457, 1.9072151485003352, -0.43984585499788553, -1.3210212780300903, -1.8754452048013424, 0.9299445926504495, 0.7903914947855429, -2.1896886641907067, -0.7020273694843494, 1.2923120487124302, -1.863433890715728, 2.848182619567314, 2.237224374994008]

>  <energy>  (11) 
-875.1339350277098

>  <inter_energy>  (11) 
-910.7347962084564

>  <intra_energy>  (11) 
66.35455826391468

>  <rmsd>  (11) 
9.64377

>  <sdf_rank>  (11) 
0

$$$$

     RDKit          3D

 61 65  0  0  0  0  0  0  0  0999 V2000
   12.3637   45.9972   11.6106 P   0  0  2  0  0  0  0  0  0  0  0  0
   13.0101   45.4194   10.3745 O   0  0  0  0  0  0  0  0  0  0  0  0
   11.1711   46.9179   11.5075 O   0  0  0  0  0  0  0  0  0  0  0  0
   13.4518   46.6695   12.4840 O   0  0  0  0  0  0  0  0  0  0  0  0
   13.1482   47.5389   13.5084 C   0  0  0  0  0  0  0  0  0  0  0  0
   13.4608   46.9949   14.8798 C   0  0  1  0  0  0  0  0  0  0  0  0
   14.8327   47.1232   15.1556 O   0  0  0  0  0  0  0  0  0  0  0  0
   15.0411   47.8821   16.2970 C   0  0  1  0  0  0  0  0  0  0  0  0
   16.2871   48.6575   16.2096 N   0  0  0  0  0  0  0  0  0  0  0  0
   16.8274   49.1422   15.1325 C   0  0  0  0  0  0  0  0  0  0  0  0
   16.5524   49.1895   13.8235 N   0  0  0  0  0  0  0  0  0  0  0  0
   17.3570   49.7592   12.9744 C   0  0  0  0  0  0  0  0  0  0  0  0
   18.4288   50.4002   13.3348 N   0  0  0  0  0  0  0  0  0  0  0  0
   18.8626   50.4507   14.5698 C   0  0  0  0  0  0  0  0  0  0  0  0
   19.9718   51.1017   14.8698 N   0  0  0  0  0  0  0  0  0  0  0  0
   18.0460   49.7967   15.5779 C   0  0  0  0  0  0  0  0  0  0  0  0
   18.1208   49.6399   16.8688 N   0  0  0  0  0  0  0  0  0  0  0  0
   17.0637   48.9522   17.2368 C   0  0  0  0  0  0  0  0  0  0  0  0
   13.7688   48.7186   16.5178 C   0  0  2  0  0  0  0  0  0  0  0  0
   13.5407   49.1253   17.8459 O   0  0  0  0  0  0  0  0  0  0  0  0
   12.7161   47.7482   15.9990 C   0  0  2  0  0  0  0  0  0  0  0  0
   12.2578   46.9169   17.0440 O   0  0  0  0  0  0  0  0  0  0  0  0
    9.6629   46.4214   12.9809 N   0  0  0  0  0  0  0  0  0  0  0  0
    9.8693   45.2333   13.7850 C   0  0  1  0  0  0  0  0  0  0  0  0
    9.1633   44.0644   13.1525 C   0  0  0  0  0  0  0  0  0  0  0  0
    8.0163   44.3557   12.2460 C   0  0  0  0  0  0  0  0  0  0  0  0
    8.1553   44.6908   10.8468 C   0  0  0  0  0  0  0  0  0  0  0  0
    6.8098   44.9686   10.3768 C   0  0  0  0  0  0  0  0  0  0  0  0
    9.2366   44.7814   10.0236 C   0  0  0  0  0  0  0  0  0  0  0  0
    6.6682   44.4758   12.4901 C   0  0  0  0  0  0  0  0  0  0  0  0
    6.0100   44.8222   11.3897 N   0  0  0  0  0  0  0  0  0  0  0  0
    6.6774   45.2759    9.0449 C   0  0  0  0  0  0  0  0  0  0  0  0
    9.0275   45.1041    8.7003 C   0  0  0  0  0  0  0  0  0  0  0  0
    7.7659   45.3497    8.2294 C   0  0  0  0  0  0  0  0  0  0  0  0
   11.3288   44.8963   13.8203 C   0  0  0  0  0  0  0  0  0  0  0  0
   11.8971   44.6695   14.7965 O   0  0  0  0  0  0  0  0  0  0  0  0
   12.0342   44.8350   12.6140 O   0  0  0  0  0  0  0  0  0  0  0  0
   13.7262   48.4633   13.3618 H   0  0  0  0  0  0  0  0  0  0  0  0
   12.0625   47.7116   13.4716 H   0  0  0  0  0  0  0  0  0  0  0  0
   13.1412   45.9424   14.8651 H   0  0  0  0  0  0  0  0  0  0  0  0
   15.1970   47.2526   17.1855 H   0  0  0  0  0  0  0  0  0  0  0  0
   17.1192   49.6955   11.9023 H   0  0  0  0  0  0  0  0  0  0  0  0
   20.3024   51.1340   15.8448 H   0  0  0  0  0  0  0  0  0  0  0  0
   20.5064   51.5770   14.1287 H   0  0  0  0  0  0  0  0  0  0  0  0
   16.8508   48.6574   18.2750 H   0  0  0  0  0  0  0  0  0  0  0  0
   13.7977   49.6962   16.0143 H   0  0  0  0  0  0  0  0  0  0  0  0
   13.9180   48.4525   18.4665 H   0  0  0  0  0  0  0  0  0  0  0  0
   11.8002   48.2227   15.6168 H   0  0  0  0  0  0  0  0  0  0  0  0
   12.4842   47.3277   17.9158 H   0  0  0  0  0  0  0  0  0  0  0  0
    9.5217   47.2336   13.5983 H   0  0  0  0  0  0  0  0  0  0  0  0
   10.4886   46.5814   12.3864 H   0  0  0  0  0  0  0  0  0  0  0  0
    8.8315   46.2934   12.3864 H   0  0  0  0  0  0  0  0  0  0  0  0
    9.4838   45.4268   14.7969 H   0  0  0  0  0  0  0  0  0  0  0  0
    9.9100   43.5063   12.5687 H   0  0  0  0  0  0  0  0  0  0  0  0
    8.7183   43.5182   13.9973 H   0  0  0  0  0  0  0  0  0  0  0  0
   10.2522   44.6013   10.4058 H   0  0  0  0  0  0  0  0  0  0  0  0
    6.1964   44.3068   13.4693 H   0  0  0  0  0  0  0  0  0  0  0  0
    4.9900   44.9582   11.3451 H   0  0  0  0  0  0  0  0  0  0  0  0
    5.6764   45.4653    8.6300 H   0  0  0  0  0  0  0  0  0  0  0  0
    9.8849   45.1650    8.0140 H   0  0  0  0  0  0  0  0  0  0  0  0
    7.6282   45.6122    7.1701 H   0  0  0  0  0  0  0  0  0  0  0  0
  1  2  1  6
  1  3  2  0
  1  4  1  0
  1 37  1  0
  4  5  1  0
  6  5  1  0
  6  7  1  0
  6 21  1  0
  7  8  1  0
  8  9  1  0
  8 19  1  0
  9 10  1  0
  9 18  1  0
 10 11  2  0
 10 16  1  0
 11 12  1  0
 12 13  2  0
 13 14  1  0
 14 15  1  0
 14 16  2  0
 16 17  1  0
 17 18  2  0
 19 20  1  0
 19 21  1  0
 21 22  1  0
 24 23  1  0
 24 25  1  0
 24 35  1  0
 25 26  1  0
 26 27  1  0
 26 30  2  0
 27 28  1  0
 27 29  2  0
 28 31  1  0
 28 32  2  0
 29 33  1  0
 30 31  1  0
 32 34  1  0
 33 34  2  0
 35 36  2  0
 35 37  1  0
  5 38  1  0
  5 39  1  0
  6 40  1  6
  8 41  1  1
 12 42  1  0
 15 43  1  0
 15 44  1  0
 18 45  1  0
 19 46  1  6
 20 47  1  0
 21 48  1  6
 22 49  1  0
 23 50  1  0
 23 51  1  0
 23 52  1  0
 24 53  1  1
 25 54  1  0
 25 55  1  0
 29 56  1  0
 30 57  1  0
 31 58  1  0
 32 59  1  0
 33 60  1  0
 34 61  1  0
M  CHG  2   2  -1  23   1
M  END
>  <filename_input>  (12) 
7ELT_TYM_docked.sdf

>  <pdb_id>  (12) 
7ELT_TYM

>  <pose_rank>  (12) 
11

>  <num_atoms_heavy>  (12) 
37

>  <num_torsions>  (12) 
9

>  <pose>  (12) 
[13.451770391518494, 46.66950168923842, 12.48404071803847, -0.5977943199242942, -2.079522199967673, 1.2123324783290519, 3.551292144687002, -1.8027104132964458, -1.756671247747799, 2.6322002747356033, 0.49868959053239437, 2.917490999925485, -1.5972041138961748, 2.430707456794003, 2.7779004502105806]

>  <energy>  (12) 
-788.5841473202441

>  <inter_energy>  (12) 
-935.0720689089989

>  <intra_energy>  (12) 
153.18220223537153

>  <rmsd>  (12) 
9.82311

>  <sdf_rank>  (12) 
0

$$$$

     RDKit          3D

 61 65  0  0  0  0  0  0  0  0999 V2000
   13.3228   47.4966   16.3883 P   0  0  2  0  0  0  0  0  0  0  0  0
   13.7220   48.8569   16.9079 O   0  0  0  0  0  0  0  0  0  0  0  0
   13.9564   46.2386   16.9327 O   0  0  0  0  0  0  0  0  0  0  0  0
   13.4299   47.4931   14.8432 O   0  0  0  0  0  0  0  0  0  0  0  0
   12.3825   47.1249   14.0279 C   0  0  0  0  0  0  0  0  0  0  0  0
   12.1058   45.6423   14.0263 C   0  0  1  0  0  0  0  0  0  0  0  0
   10.8784   45.3747   13.3966 O   0  0  0  0  0  0  0  0  0  0  0  0
   11.0497   44.5227   12.3164 C   0  0  1  0  0  0  0  0  0  0  0  0
   10.0826   44.8070   11.2461 N   0  0  0  0  0  0  0  0  0  0  0  0
    8.7878   44.7565   11.3345 C   0  0  0  0  0  0  0  0  0  0  0  0
    7.8701   44.4975   12.2737 N   0  0  0  0  0  0  0  0  0  0  0  0
    6.5963   44.5086   12.0088 C   0  0  0  0  0  0  0  0  0  0  0  0
    6.1164   44.8587   10.8526 N   0  0  0  0  0  0  0  0  0  0  0  0
    6.8621   45.1344    9.8114 C   0  0  0  0  0  0  0  0  0  0  0  0
    6.3134   45.4639    8.6562 N   0  0  0  0  0  0  0  0  0  0  0  0
    8.3011   45.0980   10.0085 C   0  0  0  0  0  0  0  0  0  0  0  0
    9.3426   45.3155    9.2572 N   0  0  0  0  0  0  0  0  0  0  0  0
   10.4055   45.1344   10.0077 C   0  0  0  0  0  0  0  0  0  0  0  0
   12.5277   44.6184   11.8997 C   0  0  2  0  0  0  0  0  0  0  0  0
   13.0344   43.4933   11.2224 O   0  0  0  0  0  0  0  0  0  0  0  0
   13.1761   44.8417   13.2594 C   0  0  2  0  0  0  0  0  0  0  0  0
   13.5043   43.6047   13.8554 O   0  0  0  0  0  0  0  0  0  0  0  0
   10.1550   48.9734   18.0162 N   0  0  0  0  0  0  0  0  0  0  0  0
    9.8247   47.5621   18.0095 C   0  0  1  0  0  0  0  0  0  0  0  0
    8.6481   47.3215   17.1026 C   0  0  0  0  0  0  0  0  0  0  0  0
    7.3561   46.9279   17.7334 C   0  0  0  0  0  0  0  0  0  0  0  0
    7.0095   45.5706   18.0894 C   0  0  0  0  0  0  0  0  0  0  0  0
    5.6496   45.6348   18.5945 C   0  0  0  0  0  0  0  0  0  0  0  0
    7.6922   44.3944   18.0125 C   0  0  0  0  0  0  0  0  0  0  0  0
    6.2231   47.6526   18.0209 C   0  0  0  0  0  0  0  0  0  0  0  0
    5.2693   46.8746   18.5198 N   0  0  0  0  0  0  0  0  0  0  0  0
    5.1055   44.4556   19.0409 C   0  0  0  0  0  0  0  0  0  0  0  0
    7.0781   43.2492   18.4710 C   0  0  0  0  0  0  0  0  0  0  0  0
    5.8044   43.2886   18.9709 C   0  0  0  0  0  0  0  0  0  0  0  0
   10.9740   46.7784   17.4530 C   0  0  0  0  0  0  0  0  0  0  0  0
   11.2336   45.7115   17.8018 O   0  0  0  0  0  0  0  0  0  0  0  0
   11.7599   47.3569   16.4508 O   0  0  0  0  0  0  0  0  0  0  0  0
   11.4765   47.6466   14.3698 H   0  0  0  0  0  0  0  0  0  0  0  0
   12.6636   47.3999   13.0005 H   0  0  0  0  0  0  0  0  0  0  0  0
   12.1008   45.3370   15.0830 H   0  0  0  0  0  0  0  0  0  0  0  0
   10.8341   43.4769   12.5805 H   0  0  0  0  0  0  0  0  0  0  0  0
    5.8933   44.2079   12.7995 H   0  0  0  0  0  0  0  0  0  0  0  0
    6.9107   45.6785    7.8450 H   0  0  0  0  0  0  0  0  0  0  0  0
    5.2882   45.5062    8.5665 H   0  0  0  0  0  0  0  0  0  0  0  0
   11.4396   45.2424    9.6483 H   0  0  0  0  0  0  0  0  0  0  0  0
   12.7193   45.4018   11.1517 H   0  0  0  0  0  0  0  0  0  0  0  0
   13.3377   42.8200   11.8818 H   0  0  0  0  0  0  0  0  0  0  0  0
   14.1327   45.3840   13.2303 H   0  0  0  0  0  0  0  0  0  0  0  0
   13.4800   43.6964   14.8408 H   0  0  0  0  0  0  0  0  0  0  0  0
   10.2322   49.3033   18.9889 H   0  0  0  0  0  0  0  0  0  0  0  0
   11.0526   49.1182   17.5323 H   0  0  0  0  0  0  0  0  0  0  0  0
    9.4149   49.5015   17.5323 H   0  0  0  0  0  0  0  0  0  0  0  0
    9.5980   47.2530   19.0405 H   0  0  0  0  0  0  0  0  0  0  0  0
    8.4702   48.2508   16.5416 H   0  0  0  0  0  0  0  0  0  0  0  0
    8.9381   46.4507   16.4961 H   0  0  0  0  0  0  0  0  0  0  0  0
    8.7091   44.3596   17.5945 H   0  0  0  0  0  0  0  0  0  0  0  0
    6.1203   48.7357   17.8586 H   0  0  0  0  0  0  0  0  0  0  0  0
    4.3413   47.2130   18.8119 H   0  0  0  0  0  0  0  0  0  0  0  0
    4.0892   44.4535   19.4617 H   0  0  0  0  0  0  0  0  0  0  0  0
    7.6180   42.2915   18.4349 H   0  0  0  0  0  0  0  0  0  0  0  0
    5.3353   42.3582   19.3236 H   0  0  0  0  0  0  0  0  0  0  0  0
  1  2  1  1
  1  3  2  0
  1  4  1  0
  1 37  1  0
  4  5  1  0
  6  5  1  0
  6  7  1  0
  6 21  1  0
  7  8  1  0
  8  9  1  0
  8 19  1  0
  9 10  1  0
  9 18  1  0
 10 11  2  0
 10 16  1  0
 11 12  1  0
 12 13  2  0
 13 14  1  0
 14 15  1  0
 14 16  2  0
 16 17  1  0
 17 18  2  0
 19 20  1  0
 19 21  1  0
 21 22  1  0
 24 23  1  0
 24 25  1  0
 24 35  1  0
 25 26  1  0
 26 27  1  0
 26 30  2  0
 27 28  1  0
 27 29  2  0
 28 31  1  0
 28 32  2  0
 29 33  1  0
 30 31  1  0
 32 34  1  0
 33 34  2  0
 35 36  2  0
 35 37  1  0
  5 38  1  0
  5 39  1  0
  6 40  1  1
  8 41  1  1
 12 42  1  0
 15 43  1  0
 15 44  1  0
 18 45  1  0
 19 46  1  6
 20 47  1  0
 21 48  1  6
 22 49  1  0
 23 50  1  0
 23 51  1  0
 23 52  1  0
 24 53  1  1
 25 54  1  0
 25 55  1  0
 29 56  1  0
 30 57  1  0
 31 58  1  0
 32 59  1  0
 33 60  1  0
 34 61  1  0
M  CHG  2   2  -1  23   1
M  END
>  <filename_input>  (13) 
7ELT_TYM_docked.sdf

>  <pdb_id>  (13) 
7ELT_TYM

>  <pose_rank>  (13) 
12

>  <num_atoms_heavy>  (13) 
37

>  <num_torsions>  (13) 
9

>  <pose>  (13) 
[13.429903863949537, 47.49307199562554, 14.84324480797626, 0.15880492366061877, -0.35969111672097204, -2.510841669264241, -1.5273031941070754, -0.4366602514445646, -0.6582131628633056, 2.9186483542973307, -1.0222378932116398, -0.019671880528047456, 1.4638789911444199, -2.308721704765643, 1.1813084189315608]

>  <energy>  (13) 
-659.9019080285294

>  <inter_energy>  (13) 
-685.2732767681897

>  <intra_energy>  (13) 
22.159249322701648

>  <rmsd>  (13) 
7.11558

>  <sdf_rank>  (13) 
0

$$$$

     RDKit          3D

 61 65  0  0  0  0  0  0  0  0999 V2000
   15.1570   46.3100   12.1049 P   0  0  2  0  0  0  0  0  0  0  0  0
   14.8544   46.1894   13.5792 O   0  0  0  0  0  0  0  0  0  0  0  0
   15.8669   45.2029   11.3627 O   0  0  0  0  0  0  0  0  0  0  0  0
   15.8918   47.6487   11.8465 O   0  0  0  0  0  0  0  0  0  0  0  0
   15.3034   48.8736   12.0728 C   0  0  0  0  0  0  0  0  0  0  0  0
   16.2845   49.9624   12.4285 C   0  0  1  0  0  0  0  0  0  0  0  0
   16.1303   50.3390   13.7735 O   0  0  0  0  0  0  0  0  0  0  0  0
   17.3118   50.1628   14.4772 C   0  0  1  0  0  0  0  0  0  0  0  0
   17.0563   49.7957   15.8776 N   0  0  0  0  0  0  0  0  0  0  0  0
   16.0431   49.1224   16.3326 C   0  0  0  0  0  0  0  0  0  0  0  0
   14.9537   48.5210   15.8395 N   0  0  0  0  0  0  0  0  0  0  0  0
   14.0881   47.9311   16.6112 C   0  0  0  0  0  0  0  0  0  0  0  0
   14.2567   47.7987   17.8932 N   0  0  0  0  0  0  0  0  0  0  0  0
   15.2561   48.3310   18.5519 C   0  0  0  0  0  0  0  0  0  0  0  0
   15.3608   48.1781   19.8595 N   0  0  0  0  0  0  0  0  0  0  0  0
   16.2465   49.0509   17.7697 C   0  0  0  0  0  0  0  0  0  0  0  0
   17.3518   49.6860   18.0370 N   0  0  0  0  0  0  0  0  0  0  0  0
   17.8271   50.1321   16.8964 C   0  0  0  0  0  0  0  0  0  0  0  0
   18.1595   49.1528   13.6844 C   0  0  2  0  0  0  0  0  0  0  0  0
   19.5483   49.2356   13.8988 O   0  0  0  0  0  0  0  0  0  0  0  0
   17.7499   49.5153   12.2632 C   0  0  2  0  0  0  0  0  0  0  0  0
   18.6010   50.5169   11.7479 O   0  0  0  0  0  0  0  0  0  0  0  0
   12.4905   45.1934    9.5784 N   0  0  0  0  0  0  0  0  0  0  0  0
   11.6637   45.6714   10.6687 C   0  0  1  0  0  0  0  0  0  0  0  0
   11.0370   44.5023   11.3795 C   0  0  0  0  0  0  0  0  0  0  0  0
    9.5989   44.6108   11.7569 C   0  0  0  0  0  0  0  0  0  0  0  0
    8.5329   44.8734   10.8167 C   0  0  0  0  0  0  0  0  0  0  0  0
    7.3243   44.9735   11.6153 C   0  0  0  0  0  0  0  0  0  0  0  0
    8.5150   45.0315    9.4640 C   0  0  0  0  0  0  0  0  0  0  0  0
    8.9737   44.5974   12.9818 C   0  0  0  0  0  0  0  0  0  0  0  0
    7.6674   44.8023   12.8563 N   0  0  0  0  0  0  0  0  0  0  0  0
    6.1528   45.1829   10.9300 C   0  0  0  0  0  0  0  0  0  0  0  0
    7.3027   45.2484    8.8456 C   0  0  0  0  0  0  0  0  0  0  0  0
    6.1472   45.3255    9.5754 C   0  0  0  0  0  0  0  0  0  0  0  0
   12.5166   46.3872   11.6712 C   0  0  0  0  0  0  0  0  0  0  0  0
   12.1367   46.6907   12.7157 O   0  0  0  0  0  0  0  0  0  0  0  0
   13.8410   46.6870   11.3355 O   0  0  0  0  0  0  0  0  0  0  0  0
   14.7666   49.1744   11.1610 H   0  0  0  0  0  0  0  0  0  0  0  0
   14.6318   48.7524   12.9355 H   0  0  0  0  0  0  0  0  0  0  0  0
   16.0710   50.7946   11.7416 H   0  0  0  0  0  0  0  0  0  0  0  0
   17.8828   51.0993   14.5615 H   0  0  0  0  0  0  0  0  0  0  0  0
   13.1715   47.5257   16.1578 H   0  0  0  0  0  0  0  0  0  0  0  0
   16.1514   48.6017   20.3658 H   0  0  0  0  0  0  0  0  0  0  0  0
   14.6518   47.6353   20.3729 H   0  0  0  0  0  0  0  0  0  0  0  0
   18.7550   50.7152   16.8012 H   0  0  0  0  0  0  0  0  0  0  0  0
   17.9769   48.1078   13.9756 H   0  0  0  0  0  0  0  0  0  0  0  0
   19.7319   49.2465   14.8716 H   0  0  0  0  0  0  0  0  0  0  0  0
   17.8351   48.6949   11.5355 H   0  0  0  0  0  0  0  0  0  0  0  0
   19.0206   51.0106   12.4964 H   0  0  0  0  0  0  0  0  0  0  0  0
   13.3188   44.7146    9.9599 H   0  0  0  0  0  0  0  0  0  0  0  0
   11.9492   44.5349    9.0002 H   0  0  0  0  0  0  0  0  0  0  0  0
   12.7910   45.9911    9.0002 H   0  0  0  0  0  0  0  0  0  0  0  0
   10.8947   46.3401   10.2548 H   0  0  0  0  0  0  0  0  0  0  0  0
   11.1391   43.6256   10.7230 H   0  0  0  0  0  0  0  0  0  0  0  0
   11.5722   44.4405   12.3385 H   0  0  0  0  0  0  0  0  0  0  0  0
    9.4457   44.9871    8.8793 H   0  0  0  0  0  0  0  0  0  0  0  0
    9.4885   44.4377   13.9407 H   0  0  0  0  0  0  0  0  0  0  0  0
    7.0071   44.8230   13.6466 H   0  0  0  0  0  0  0  0  0  0  0  0
    5.2039   45.2362   11.4838 H   0  0  0  0  0  0  0  0  0  0  0  0
    7.2631   45.3608    7.7521 H   0  0  0  0  0  0  0  0  0  0  0  0
    5.1941   45.5066    9.0570 H   0  0  0  0  0  0  0  0  0  0  0  0
  1  2  1  1
  1  3  2  0
  1  4  1  0
  1 37  1  0
  4  5  1  0
  6  5  1  0
  6  7  1  0
  6 21  1  0
  7  8  1  0
  8  9  1  0
  8 19  1  0
  9 10  1  0
  9 18  1  0
 10 11  2  0
 10 16  1  0
 11 12  1  0
 12 13  2  0
 13 14  1  0
 14 15  1  0
 14 16  2  0
 16 17  1  0
 17 18  2  0
 19 20  1  0
 19 21  1  0
 21 22  1  0
 24 23  1  0
 24 25  1  0
 24 35  1  0
 25 26  1  0
 26 27  1  0
 26 30  2  0
 27 28  1  0
 27 29  2  0
 28 31  1  0
 28 32  2  0
 29 33  1  0
 30 31  1  0
 32 34  1  0
 33 34  2  0
 35 36  2  0
 35 37  1  0
  5 38  1  0
  5 39  1  0
  6 40  1  6
  8 41  1  1
 12 42  1  0
 15 43  1  0
 15 44  1  0
 18 45  1  0
 19 46  1  1
 20 47  1  0
 21 48  1  6
 22 49  1  0
 23 50  1  0
 23 51  1  0
 23 52  1  0
 24 53  1  6
 25 54  1  0
 25 55  1  0
 29 56  1  0
 30 57  1  0
 31 58  1  0
 32 59  1  0
 33 60  1  0
 34 61  1  0
M  CHG  2   2  -1  23   1
M  END
>  <filename_input>  (14) 
7ELT_TYM_docked.sdf

>  <pdb_id>  (14) 
7ELT_TYM

>  <pose_rank>  (14) 
13

>  <num_atoms_heavy>  (14) 
37

>  <num_torsions>  (14) 
9

>  <pose>  (14) 
[15.891753918170128, 47.64874920142874, 11.846505991084836, 0.4379190683740657, 1.9297554045463274, -2.9576428195794513, 5.8429858083939035, 0.727368623388391, 1.1960998656696118, 3.6883309462003897, -1.4767616720699888, -3.837427864747297, 5.377109606592456, 5.390129388221678, -3.518994904309283]

>  <energy>  (14) 
-763.4963149812295

>  <inter_energy>  (14) 
-782.500365248068

>  <intra_energy>  (14) 
25.512420336760684

>  <rmsd>  (14) 
9.79096

>  <sdf_rank>  (14) 
0

$$$$

     RDKit          3D

 61 65  0  0  0  0  0  0  0  0999 V2000
   15.1571   46.7385   12.0179 P   0  0  2  0  0  0  0  0  0  0  0  0
   15.7656   45.3599   12.1120 O   0  0  0  0  0  0  0  0  0  0  0  0
   15.9748   47.9204   11.5540 O   0  0  0  0  0  0  0  0  0  0  0  0
   14.4794   47.0862   13.3665 O   0  0  0  0  0  0  0  0  0  0  0  0
   14.3229   48.3824   13.8056 C   0  0  0  0  0  0  0  0  0  0  0  0
   14.2377   48.5095   15.3059 C   0  0  1  0  0  0  0  0  0  0  0  0
   12.8965   48.4774   15.7239 O   0  0  0  0  0  0  0  0  0  0  0  0
   12.6776   47.4349   16.6113 C   0  0  1  0  0  0  0  0  0  0  0  0
   11.3186   46.8897   16.4789 N   0  0  0  0  0  0  0  0  0  0  0  0
   10.2458   47.3238   17.0684 C   0  0  0  0  0  0  0  0  0  0  0  0
    9.9087   48.3119   17.9060 N   0  0  0  0  0  0  0  0  0  0  0  0
    8.6915   48.4546   18.3429 C   0  0  0  0  0  0  0  0  0  0  0  0
    7.7014   47.7182   17.9341 N   0  0  0  0  0  0  0  0  0  0  0  0
    7.8426   46.6974   17.1253 C   0  0  0  0  0  0  0  0  0  0  0  0
    6.7990   45.9739   16.7627 N   0  0  0  0  0  0  0  0  0  0  0  0
    9.1822   46.4375   16.6267 C   0  0  0  0  0  0  0  0  0  0  0  0
    9.7158   45.5618   15.8235 N   0  0  0  0  0  0  0  0  0  0  0  0
   10.9974   45.8393   15.7450 C   0  0  0  0  0  0  0  0  0  0  0  0
   13.8106   46.4167   16.3952 C   0  0  2  0  0  0  0  0  0  0  0  0
   14.0960   45.5927   17.5002 O   0  0  0  0  0  0  0  0  0  0  0  0
   14.9532   47.3581   16.0387 C   0  0  2  0  0  0  0  0  0  0  0  0
   15.6405   47.7591   17.2049 O   0  0  0  0  0  0  0  0  0  0  0  0
   10.9807   46.8924   11.9913 N   0  0  0  0  0  0  0  0  0  0  0  0
   11.7642   45.6856   12.1662 C   0  0  1  0  0  0  0  0  0  0  0  0
   10.8999   44.4795   11.9153 C   0  0  0  0  0  0  0  0  0  0  0  0
    9.4350   44.6997   11.7477 C   0  0  0  0  0  0  0  0  0  0  0  0
    8.7980   44.9766   10.4802 C   0  0  0  0  0  0  0  0  0  0  0  0
    7.3962   45.1972   10.7881 C   0  0  0  0  0  0  0  0  0  0  0  0
    9.2754   45.0603    9.2073 C   0  0  0  0  0  0  0  0  0  0  0  0
    8.4157   44.7938   12.6661 C   0  0  0  0  0  0  0  0  0  0  0  0
    7.2602   45.0738   12.0740 N   0  0  0  0  0  0  0  0  0  0  0  0
    6.5659   45.4420    9.7220 C   0  0  0  0  0  0  0  0  0  0  0  0
    8.3840   45.3188    8.1888 C   0  0  0  0  0  0  0  0  0  0  0  0
    7.0543   45.5094    8.4523 C   0  0  0  0  0  0  0  0  0  0  0  0
   12.8686   45.6509   11.1542 C   0  0  0  0  0  0  0  0  0  0  0  0
   12.9534   44.8348   10.3455 O   0  0  0  0  0  0  0  0  0  0  0  0
   13.8332   46.6637   11.1766 O   0  0  0  0  0  0  0  0  0  0  0  0
   15.1819   48.9735   13.4554 H   0  0  0  0  0  0  0  0  0  0  0  0
   13.3681   48.7461   13.3980 H   0  0  0  0  0  0  0  0  0  0  0  0
   14.7227   49.4651   15.5541 H   0  0  0  0  0  0  0  0  0  0  0  0
   12.7136   47.7723   17.6577 H   0  0  0  0  0  0  0  0  0  0  0  0
    8.4910   49.2342   19.0926 H   0  0  0  0  0  0  0  0  0  0  0  0
    6.9233   45.1737   16.1261 H   0  0  0  0  0  0  0  0  0  0  0  0
    5.8609   46.2098   17.1164 H   0  0  0  0  0  0  0  0  0  0  0  0
   11.7163   45.2662   15.1410 H   0  0  0  0  0  0  0  0  0  0  0  0
   13.5732   45.6554   15.6376 H   0  0  0  0  0  0  0  0  0  0  0  0
   13.9231   46.0919   18.3375 H   0  0  0  0  0  0  0  0  0  0  0  0
   15.7375   46.9132   15.4087 H   0  0  0  0  0  0  0  0  0  0  0  0
   15.1351   47.4643   18.0035 H   0  0  0  0  0  0  0  0  0  0  0  0
   10.7313   47.2766   12.9139 H   0  0  0  0  0  0  0  0  0  0  0  0
   11.5324   47.5871   11.4679 H   0  0  0  0  0  0  0  0  0  0  0  0
   10.1217   46.6712   11.4679 H   0  0  0  0  0  0  0  0  0  0  0  0
   12.1661   45.6771   13.1901 H   0  0  0  0  0  0  0  0  0  0  0  0
   11.2668   43.9976   10.9972 H   0  0  0  0  0  0  0  0  0  0  0  0
   10.9876   43.8789   12.8327 H   0  0  0  0  0  0  0  0  0  0  0  0
   10.3467   44.9247    8.9974 H   0  0  0  0  0  0  0  0  0  0  0  0
    8.5410   44.6553   13.7502 H   0  0  0  0  0  0  0  0  0  0  0  0
    6.3657   45.1800   12.5734 H   0  0  0  0  0  0  0  0  0  0  0  0
    5.4894   45.5859    9.8961 H   0  0  0  0  0  0  0  0  0  0  0  0
    8.7453   45.3727    7.1512 H   0  0  0  0  0  0  0  0  0  0  0  0
    6.3657   45.7214    7.6211 H   0  0  0  0  0  0  0  0  0  0  0  0
  1  2  1  1
  1  3  2  0
  1  4  1  0
  1 37  1  0
  4  5  1  0
  6  5  1  0
  6  7  1  0
  6 21  1  0
  7  8  1  0
  8  9  1  0
  8 19  1  0
  9 10  1  0
  9 18  1  0
 10 11  2  0
 10 16  1  0
 11 12  1  0
 12 13  2  0
 13 14  1  0
 14 15  1  0
 14 16  2  0
 16 17  1  0
 17 18  2  0
 19 20  1  0
 19 21  1  0
 21 22  1  0
 24 23  1  0
 24 25  1  0
 24 35  1  0
 25 26  1  0
 26 27  1  0
 26 30  2  0
 27 28  1  0
 27 29  2  0
 28 31  1  0
 28 32  2  0
 29 33  1  0
 30 31  1  0
 32 34  1  0
 33 34  2  0
 35 36  2  0
 35 37  1  0
  5 38  1  0
  5 39  1  0
  6 40  1  1
  8 41  1  1
 12 42  1  0
 15 43  1  0
 15 44  1  0
 18 45  1  0
 19 46  1  6
 20 47  1  0
 21 48  1  6
 22 49  1  0
 23 50  1  0
 23 51  1  0
 23 52  1  0
 24 53  1  1
 25 54  1  0
 25 55  1  0
 29 56  1  0
 30 57  1  0
 31 58  1  0
 32 59  1  0
 33 60  1  0
 34 61  1  0
M  CHG  2   2  -1  23   1
M  END
>  <filename_input>  (15) 
7ELT_TYM_docked.sdf

>  <pdb_id>  (15) 
7ELT_TYM

>  <pose_rank>  (15) 
14

>  <num_atoms_heavy>  (15) 
37

>  <num_torsions>  (15) 
9

>  <pose>  (15) 
[14.479438983319259, 47.086168628008, 13.366485931385105, 2.4136565340655345, 1.5870627786260596, 0.1347173123371295, -9.223328298078483, -4.407684799225822, -1.4007394620074087, -1.7014184673843329, 0.7601558445539178, -3.2781430953804347, -6.233468409463905, -6.864863673161542, 0.725776292917285]

>  <energy>  (15) 
-791.5307951413093

>  <inter_energy>  (15) 
-795.5251453908816

>  <intra_energy>  (15) 
18.803735503177673

>  <rmsd>  (15) 
8.35573

>  <sdf_rank>  (15) 
0

$$$$

     RDKit          3D

 61 65  0  0  0  0  0  0  0  0999 V2000
   12.8061   47.5640   12.1806 P   0  0  2  0  0  0  0  0  0  0  0  0
   14.2426   47.9974   12.3494 O   0  0  0  0  0  0  0  0  0  0  0  0
   12.1219   47.6431   10.8367 O   0  0  0  0  0  0  0  0  0  0  0  0
   11.9328   48.2815   13.2395 O   0  0  0  0  0  0  0  0  0  0  0  0
   12.4393   48.7269   14.4406 C   0  0  0  0  0  0  0  0  0  0  0  0
   13.0172   47.6307   15.3001 C   0  0  1  0  0  0  0  0  0  0  0  0
   14.4065   47.7949   15.4332 O   0  0  0  0  0  0  0  0  0  0  0  0
   14.7666   47.9193   16.7662 C   0  0  1  0  0  0  0  0  0  0  0  0
   15.9314   48.8012   16.9305 N   0  0  0  0  0  0  0  0  0  0  0  0
   16.7637   49.1709   16.0045 C   0  0  0  0  0  0  0  0  0  0  0  0
   16.9234   48.9881   14.6882 N   0  0  0  0  0  0  0  0  0  0  0  0
   17.9275   49.5043   14.0415 C   0  0  0  0  0  0  0  0  0  0  0  0
   18.7903   50.3038   14.5945 N   0  0  0  0  0  0  0  0  0  0  0  0
   18.7994   50.5885   15.8732 C   0  0  0  0  0  0  0  0  0  0  0  0
   19.7166   51.3925   16.3795 N   0  0  0  0  0  0  0  0  0  0  0  0
   17.7372   50.0123   16.6798 C   0  0  0  0  0  0  0  0  0  0  0  0
   17.3999   50.0634   17.9369 N   0  0  0  0  0  0  0  0  0  0  0  0
   16.3185   49.3307   18.0772 C   0  0  0  0  0  0  0  0  0  0  0  0
   13.5061   48.3573   17.5321 C   0  0  2  0  0  0  0  0  0  0  0  0
   13.4901   48.0271   18.9004 O   0  0  0  0  0  0  0  0  0  0  0  0
   12.4369   47.6303   16.7276 C   0  0  2  0  0  0  0  0  0  0  0  0
   12.2167   46.3404   17.2575 O   0  0  0  0  0  0  0  0  0  0  0  0
   10.6734   44.9136   14.3259 N   0  0  0  0  0  0  0  0  0  0  0  0
   11.1688   44.1445   13.2017 C   0  0  1  0  0  0  0  0  0  0  0  0
   10.0119   43.5442   12.4494 C   0  0  0  0  0  0  0  0  0  0  0  0
    9.5982   44.2001   11.1762 C   0  0  0  0  0  0  0  0  0  0  0  0
    8.2231   44.3976   10.7771 C   0  0  0  0  0  0  0  0  0  0  0  0
    8.2825   44.9931    9.4541 C   0  0  0  0  0  0  0  0  0  0  0  0
    7.0373   44.1242   11.3890 C   0  0  0  0  0  0  0  0  0  0  0  0
   10.3299   44.6518   10.1030 C   0  0  0  0  0  0  0  0  0  0  0  0
    9.5375   45.1053    9.1383 N   0  0  0  0  0  0  0  0  0  0  0  0
    7.0809   45.3159    8.8730 C   0  0  0  0  0  0  0  0  0  0  0  0
    5.8709   44.4680   10.7406 C   0  0  0  0  0  0  0  0  0  0  0  0
    5.9024   45.0496    9.5019 C   0  0  0  0  0  0  0  0  0  0  0  0
   11.8876   45.0505   12.2491 C   0  0  0  0  0  0  0  0  0  0  0  0
   11.8463   44.9187   11.1053 O   0  0  0  0  0  0  0  0  0  0  0  0
   12.6295   46.1177   12.7663 O   0  0  0  0  0  0  0  0  0  0  0  0
   13.2331   49.4594   14.2322 H   0  0  0  0  0  0  0  0  0  0  0  0
   11.5997   49.1647   15.0003 H   0  0  0  0  0  0  0  0  0  0  0  0
   12.7613   46.6874   14.7956 H   0  0  0  0  0  0  0  0  0  0  0  0
   15.1112   46.9641   17.1891 H   0  0  0  0  0  0  0  0  0  0  0  0
   18.0519   49.2526   12.9780 H   0  0  0  0  0  0  0  0  0  0  0  0
   19.7128   51.6085   17.3866 H   0  0  0  0  0  0  0  0  0  0  0  0
   20.4356   51.8037   15.7672 H   0  0  0  0  0  0  0  0  0  0  0  0
   15.7981   49.1768   19.0341 H   0  0  0  0  0  0  0  0  0  0  0  0
   13.3903   49.4496   17.5915 H   0  0  0  0  0  0  0  0  0  0  0  0
   13.5303   48.8559   19.4404 H   0  0  0  0  0  0  0  0  0  0  0  0
   11.4426   48.1002   16.7522 H   0  0  0  0  0  0  0  0  0  0  0  0
   12.2242   46.3842   18.2465 H   0  0  0  0  0  0  0  0  0  0  0  0
   10.9639   44.4626   15.2052 H   0  0  0  0  0  0  0  0  0  0  0  0
   11.0592   45.8678   14.2858 H   0  0  0  0  0  0  0  0  0  0  0  0
    9.6451   44.9571   14.2858 H   0  0  0  0  0  0  0  0  0  0  0  0
   11.8396   43.3613   13.5846 H   0  0  0  0  0  0  0  0  0  0  0  0
   10.2791   42.5040   12.2114 H   0  0  0  0  0  0  0  0  0  0  0  0
    9.1491   43.6697   13.1200 H   0  0  0  0  0  0  0  0  0  0  0  0
    7.0113   43.6408   12.3767 H   0  0  0  0  0  0  0  0  0  0  0  0
   11.4286   44.6392   10.0503 H   0  0  0  0  0  0  0  0  0  0  0  0
    9.8767   45.4981    8.2486 H   0  0  0  0  0  0  0  0  0  0  0  0
    7.0699   45.7973    7.8840 H   0  0  0  0  0  0  0  0  0  0  0  0
    4.9025   44.2726   11.2245 H   0  0  0  0  0  0  0  0  0  0  0  0
    4.9561   45.3073    9.0038 H   0  0  0  0  0  0  0  0  0  0  0  0
  1  2  1  6
  1  3  2  0
  1  4  1  0
  1 37  1  0
  4  5  1  0
  6  5  1  0
  6  7  1  0
  6 21  1  0
  7  8  1  0
  8  9  1  0
  8 19  1  0
  9 10  1  0
  9 18  1  0
 10 11  2  0
 10 16  1  0
 11 12  1  0
 12 13  2  0
 13 14  1  0
 14 15  1  0
 14 16  2  0
 16 17  1  0
 17 18  2  0
 19 20  1  0
 19 21  1  0
 21 22  1  0
 24 23  1  0
 24 25  1  0
 24 35  1  0
 25 26  1  0
 26 27  1  0
 26 30  2  0
 27 28  1  0
 27 29  2  0
 28 31  1  0
 28 32  2  0
 29 33  1  0
 30 31  1  0
 32 34  1  0
 33 34  2  0
 35 36  2  0
 35 37  1  0
  5 38  1  0
  5 39  1  0
  6 40  1  6
  8 41  1  1
 12 42  1  0
 15 43  1  0
 15 44  1  0
 18 45  1  0
 19 46  1  1
 20 47  1  0
 21 48  1  6
 22 49  1  0
 23 50  1  0
 23 51  1  0
 23 52  1  0
 24 53  1  1
 25 54  1  0
 25 55  1  0
 29 56  1  0
 30 57  1  0
 31 58  1  0
 32 59  1  0
 33 60  1  0
 34 61  1  0
M  CHG  2   2  -1  23   1
M  END
>  <filename_input>  (16) 
7ELT_TYM_docked.sdf

>  <pdb_id>  (16) 
7ELT_TYM

>  <pose_rank>  (16) 
15

>  <num_atoms_heavy>  (16) 
37

>  <num_torsions>  (16) 
9

>  <pose>  (16) 
[11.932795223657923, 48.28153373780863, 13.239496767065786, 2.7693346227259257, -0.3773621060085111, 1.0707580474143827, 25.354651911112708, 17.645923628732454, 7.15806623608561, 16.68915717931125, 2.6971723525437077, 5.309208659029595, 26.814118691804616, -9.545804583886511, 8.21973928216202]

>  <energy>  (16) 
-591.0332845810594

>  <inter_energy>  (16) 
-828.0423568178617

>  <intra_energy>  (16) 
231.25411847793566

>  <rmsd>  (16) 
10.0893

>  <sdf_rank>  (16) 
0

$$$$

     RDKit          3D

 61 65  0  0  0  0  0  0  0  0999 V2000
   11.3896   46.4796   16.3041 P   0  0  2  0  0  0  0  0  0  0  0  0
   11.0907   47.9363   16.5656 O   0  0  0  0  0  0  0  0  0  0  0  0
   12.6572   45.8403   16.8191 O   0  0  0  0  0  0  0  0  0  0  0  0
   11.2588   46.2001   14.7863 O   0  0  0  0  0  0  0  0  0  0  0  0
   12.3189   45.7752   14.0162 C   0  0  0  0  0  0  0  0  0  0  0  0
   12.7357   46.7648   12.9572 C   0  0  1  0  0  0  0  0  0  0  0  0
   13.4046   47.8537   13.5418 O   0  0  0  0  0  0  0  0  0  0  0  0
   14.6825   47.9890   13.0215 C   0  0  1  0  0  0  0  0  0  0  0  0
   15.6209   48.5133   14.0245 N   0  0  0  0  0  0  0  0  0  0  0  0
   16.7736   49.0667   13.7965 C   0  0  0  0  0  0  0  0  0  0  0  0
   17.5201   49.3954   12.7354 N   0  0  0  0  0  0  0  0  0  0  0  0
   18.6946   49.9399   12.8659 C   0  0  0  0  0  0  0  0  0  0  0  0
   19.1894   50.2892   14.0160 N   0  0  0  0  0  0  0  0  0  0  0  0
   18.6075   50.0374   15.1623 C   0  0  0  0  0  0  0  0  0  0  0  0
   19.1719   50.3998   16.3000 N   0  0  0  0  0  0  0  0  0  0  0  0
   17.3101   49.3858   15.1089 C   0  0  0  0  0  0  0  0  0  0  0  0
   16.4359   48.9932   15.9911 N   0  0  0  0  0  0  0  0  0  0  0  0
   15.4290   48.4679   15.3307 C   0  0  0  0  0  0  0  0  0  0  0  0
   15.0682   46.6266   12.4196 C   0  0  2  0  0  0  0  0  0  0  0  0
   16.0395   46.6733   11.4018 O   0  0  0  0  0  0  0  0  0  0  0  0
   13.7064   46.1553   11.9273 C   0  0  2  0  0  0  0  0  0  0  0  0
   13.4860   46.5911   10.6027 O   0  0  0  0  0  0  0  0  0  0  0  0
    6.7215   45.5006   17.8684 N   0  0  0  0  0  0  0  0  0  0  0  0
    8.0673   46.0091   18.0441 C   0  0  1  0  0  0  0  0  0  0  0  0
    8.8187   45.1315   19.0083 C   0  0  0  0  0  0  0  0  0  0  0  0
    8.6070   43.6588   18.9144 C   0  0  0  0  0  0  0  0  0  0  0  0
    7.9103   42.8761   19.9100 C   0  0  0  0  0  0  0  0  0  0  0  0
    8.0062   41.4987   19.4605 C   0  0  0  0  0  0  0  0  0  0  0  0
    7.2725   43.2117   21.0657 C   0  0  0  0  0  0  0  0  0  0  0  0
    9.0581   42.7284   18.0076 C   0  0  0  0  0  0  0  0  0  0  0  0
    8.6860   41.5012   18.3537 N   0  0  0  0  0  0  0  0  0  0  0  0
    7.3740   40.5565   20.2340 C   0  0  0  0  0  0  0  0  0  0  0  0
    6.6688   42.2106   21.7953 C   0  0  0  0  0  0  0  0  0  0  0  0
    6.7278   40.9074   21.3805 C   0  0  0  0  0  0  0  0  0  0  0  0
    8.8010   45.9540   16.7389 C   0  0  0  0  0  0  0  0  0  0  0  0
    8.3033   46.1959   15.7284 O   0  0  0  0  0  0  0  0  0  0  0  0
   10.1572   45.6113   16.7438 O   0  0  0  0  0  0  0  0  0  0  0  0
   13.1781   45.5933   14.6786 H   0  0  0  0  0  0  0  0  0  0  0  0
   11.9910   44.8647   13.4933 H   0  0  0  0  0  0  0  0  0  0  0  0
   11.8078   47.0745   12.4541 H   0  0  0  0  0  0  0  0  0  0  0  0
   14.7219   48.7421   12.2206 H   0  0  0  0  0  0  0  0  0  0  0  0
   19.2963   50.1126   11.9615 H   0  0  0  0  0  0  0  0  0  0  0  0
   18.7041   50.1960   17.1947 H   0  0  0  0  0  0  0  0  0  0  0  0
   20.0798   50.8861   16.2925 H   0  0  0  0  0  0  0  0  0  0  0  0
   14.5342   48.0418   15.8079 H   0  0  0  0  0  0  0  0  0  0  0  0
   15.5668   45.9589   13.1376 H   0  0  0  0  0  0  0  0  0  0  0  0
   16.9413   46.7166   11.8080 H   0  0  0  0  0  0  0  0  0  0  0  0
   13.5898   45.0630   11.8697 H   0  0  0  0  0  0  0  0  0  0  0  0
   13.0392   47.4745   10.6160 H   0  0  0  0  0  0  0  0  0  0  0  0
    6.2926   45.3386   18.7907 H   0  0  0  0  0  0  0  0  0  0  0  0
    6.1605   46.1877   17.3448 H   0  0  0  0  0  0  0  0  0  0  0  0
    6.7549   44.6142   17.3448 H   0  0  0  0  0  0  0  0  0  0  0  0
    8.0031   47.0417   18.4179 H   0  0  0  0  0  0  0  0  0  0  0  0
    9.8918   45.3195   18.8560 H   0  0  0  0  0  0  0  0  0  0  0  0
    8.4260   45.4062   19.9984 H   0  0  0  0  0  0  0  0  0  0  0  0
    7.2400   44.2564   21.4084 H   0  0  0  0  0  0  0  0  0  0  0  0
    9.6499   42.9692   17.1122 H   0  0  0  0  0  0  0  0  0  0  0  0
    8.9093   40.6549   17.8107 H   0  0  0  0  0  0  0  0  0  0  0  0
    7.3897   39.5016   19.9227 H   0  0  0  0  0  0  0  0  0  0  0  0
    6.1328   42.4617   22.7225 H   0  0  0  0  0  0  0  0  0  0  0  0
    6.2433   40.1272   21.9858 H   0  0  0  0  0  0  0  0  0  0  0  0
  1  2  1  6
  1  3  2  0
  1  4  1  0
  1 37  1  0
  4  5  1  0
  6  5  1  0
  6  7  1  0
  6 21  1  0
  7  8  1  0
  8  9  1  0
  8 19  1  0
  9 10  1  0
  9 18  1  0
 10 11  2  0
 10 16  1  0
 11 12  1  0
 12 13  2  0
 13 14  1  0
 14 15  1  0
 14 16  2  0
 16 17  1  0
 17 18  2  0
 19 20  1  0
 19 21  1  0
 21 22  1  0
 24 23  1  0
 24 25  1  0
 24 35  1  0
 25 26  1  0
 26 27  1  0
 26 30  2  0
 27 28  1  0
 27 29  2  0
 28 31  1  0
 28 32  2  0
 29 33  1  0
 30 31  1  0
 32 34  1  0
 33 34  2  0
 35 36  2  0
 35 37  1  0
  5 38  1  0
  5 39  1  0
  6 40  1  6
  8 41  1  6
 12 42  1  0
 15 43  1  0
 15 44  1  0
 18 45  1  0
 19 46  1  1
 20 47  1  0
 21 48  1  6
 22 49  1  0
 23 50  1  0
 23 51  1  0
 23 52  1  0
 24 53  1  1
 25 54  1  0
 25 55  1  0
 29 56  1  0
 30 57  1  0
 31 58  1  0
 32 59  1  0
 33 60  1  0
 34 61  1  0
M  CHG  2   2  -1  23   1
M  END
>  <filename_input>  (17) 
7ELT_TYM_docked.sdf

>  <pdb_id>  (17) 
7ELT_TYM

>  <pose_rank>  (17) 
16

>  <num_atoms_heavy>  (17) 
37

>  <num_torsions>  (17) 
9

>  <pose>  (17) 
[11.258800869719472, 46.200138841793574, 14.786348466616301, -4.227639505783273, -4.06565438896229, -1.932344520841662, -3.554258227335002, -4.518268351604644, -4.947180636106012, 1.0194291015346506, 1.6024761457442642, -0.4735546566276877, 0.7246618988858586, 2.31841705477556, -0.5859889745168625]

>  <energy>  (17) 
-758.0351667780402

>  <inter_energy>  (17) 
-765.4779175219198

>  <intra_energy>  (17) 
13.012797017676903

>  <rmsd>  (17) 
9.82243

>  <sdf_rank>  (17) 
0

$$$$

     RDKit          3D

 61 65  0  0  0  0  0  0  0  0999 V2000
   10.3337   45.7545   16.4153 P   0  0  2  0  0  0  0  0  0  0  0  0
    8.9902   46.3278   16.7972 O   0  0  0  0  0  0  0  0  0  0  0  0
   11.6139   46.3407   16.9613 O   0  0  0  0  0  0  0  0  0  0  0  0
   10.4292   45.6724   14.8716 O   0  0  0  0  0  0  0  0  0  0  0  0
   11.5807   45.2909   14.2188 C   0  0  0  0  0  0  0  0  0  0  0  0
   12.0364   46.2715   13.1676 C   0  0  1  0  0  0  0  0  0  0  0  0
   12.6671   47.3743   13.7684 O   0  0  0  0  0  0  0  0  0  0  0  0
   13.9663   47.5162   13.3059 C   0  0  1  0  0  0  0  0  0  0  0  0
   14.8522   48.0624   14.3443 N   0  0  0  0  0  0  0  0  0  0  0  0
   15.9824   48.6750   14.1588 C   0  0  0  0  0  0  0  0  0  0  0  0
   16.7393   49.0621   13.1250 N   0  0  0  0  0  0  0  0  0  0  0  0
   17.8824   49.6589   13.2982 C   0  0  0  0  0  0  0  0  0  0  0  0
   18.3301   50.0060   14.4681 N   0  0  0  0  0  0  0  0  0  0  0  0
   17.7317   49.7016   15.5930 C   0  0  0  0  0  0  0  0  0  0  0  0
   18.2485   50.0653   16.7526 N   0  0  0  0  0  0  0  0  0  0  0  0
   16.4689   48.9903   15.4913 C   0  0  0  0  0  0  0  0  0  0  0  0
   15.5923   48.5371   16.3415 N   0  0  0  0  0  0  0  0  0  0  0  0
   14.6292   47.9792   15.6437 C   0  0  0  0  0  0  0  0  0  0  0  0
   14.3925   46.1505   12.7399 C   0  0  2  0  0  0  0  0  0  0  0  0
   15.4093   46.1945   11.7675 O   0  0  0  0  0  0  0  0  0  0  0  0
   13.0595   45.6593   12.1914 C   0  0  2  0  0  0  0  0  0  0  0  0
   12.8964   46.0765   10.8526 O   0  0  0  0  0  0  0  0  0  0  0  0
   10.4840   41.1476   18.0308 N   0  0  0  0  0  0  0  0  0  0  0  0
    9.4637   42.1460   17.7794 C   0  0  1  0  0  0  0  0  0  0  0  0
    8.4069   42.0707   18.8482 C   0  0  0  0  0  0  0  0  0  0  0  0
    7.4802   40.9032   18.8252 C   0  0  0  0  0  0  0  0  0  0  0  0
    6.0618   40.9904   19.0891 C   0  0  0  0  0  0  0  0  0  0  0  0
    5.5711   39.6247   19.0393 C   0  0  0  0  0  0  0  0  0  0  0  0
    5.2366   42.0407   19.3557 C   0  0  0  0  0  0  0  0  0  0  0  0
    7.7128   39.5568   18.6682 C   0  0  0  0  0  0  0  0  0  0  0  0
    6.5900   38.8581   18.7915 N   0  0  0  0  0  0  0  0  0  0  0  0
    4.2211   39.4517   19.2221 C   0  0  0  0  0  0  0  0  0  0  0  0
    3.8939   41.7893   19.5377 C   0  0  0  0  0  0  0  0  0  0  0  0
    3.4048   40.5124   19.4744 C   0  0  0  0  0  0  0  0  0  0  0  0
   10.0683   43.5147   17.8572 C   0  0  0  0  0  0  0  0  0  0  0  0
   10.3462   44.0225   18.8533 O   0  0  0  0  0  0  0  0  0  0  0  0
   10.3259   44.2046   16.6679 O   0  0  0  0  0  0  0  0  0  0  0  0
   12.3826   45.1833   14.9640 H   0  0  0  0  0  0  0  0  0  0  0  0
   11.3581   44.3461   13.7013 H   0  0  0  0  0  0  0  0  0  0  0  0
   11.1298   46.5655   12.6183 H   0  0  0  0  0  0  0  0  0  0  0  0
   14.0354   48.2597   12.4981 H   0  0  0  0  0  0  0  0  0  0  0  0
   18.4982   49.8799   12.4140 H   0  0  0  0  0  0  0  0  0  0  0  0
   17.7682   49.8198   17.6301 H   0  0  0  0  0  0  0  0  0  0  0  0
   19.1318   50.5944   16.7795 H   0  0  0  0  0  0  0  0  0  0  0  0
   13.7440   47.5005   16.0878 H   0  0  0  0  0  0  0  0  0  0  0  0
   14.8638   45.4968   13.4886 H   0  0  0  0  0  0  0  0  0  0  0  0
   16.2919   46.2327   12.2144 H   0  0  0  0  0  0  0  0  0  0  0  0
   12.9562   44.5653   12.1425 H   0  0  0  0  0  0  0  0  0  0  0  0
   12.5359   46.9984   10.8358 H   0  0  0  0  0  0  0  0  0  0  0  0
   10.6053   41.0290   19.0468 H   0  0  0  0  0  0  0  0  0  0  0  0
   10.1976   40.2512   17.6122 H   0  0  0  0  0  0  0  0  0  0  0  0
   11.3740   41.4533   17.6122 H   0  0  0  0  0  0  0  0  0  0  0  0
    9.0329   41.9602   16.7845 H   0  0  0  0  0  0  0  0  0  0  0  0
    8.9224   42.0620   19.8199 H   0  0  0  0  0  0  0  0  0  0  0  0
    7.7613   42.9418   18.6626 H   0  0  0  0  0  0  0  0  0  0  0  0
    5.6323   43.0648   19.4241 H   0  0  0  0  0  0  0  0  0  0  0  0
    8.7003   39.1160   18.4668 H   0  0  0  0  0  0  0  0  0  0  0  0
    6.5341   37.8335   18.7015 H   0  0  0  0  0  0  0  0  0  0  0  0
    3.7922   38.4404   19.1639 H   0  0  0  0  0  0  0  0  0  0  0  0
    3.2068   42.6250   19.7362 H   0  0  0  0  0  0  0  0  0  0  0  0
    2.3298   40.3393   19.6306 H   0  0  0  0  0  0  0  0  0  0  0  0
  1  2  1  6
  1  3  2  0
  1  4  1  0
  1 37  1  0
  4  5  1  0
  6  5  1  0
  6  7  1  0
  6 21  1  0
  7  8  1  0
  8  9  1  0
  8 19  1  0
  9 10  1  0
  9 18  1  0
 10 11  2  0
 10 16  1  0
 11 12  1  0
 12 13  2  0
 13 14  1  0
 14 15  1  0
 14 16  2  0
 16 17  1  0
 17 18  2  0
 19 20  1  0
 19 21  1  0
 21 22  1  0
 24 23  1  0
 24 25  1  0
 24 35  1  0
 25 26  1  0
 26 27  1  0
 26 30  2  0
 27 28  1  0
 27 29  2  0
 28 31  1  0
 28 32  2  0
 29 33  1  0
 30 31  1  0
 32 34  1  0
 33 34  2  0
 35 36  2  0
 35 37  1  0
  5 38  1  0
  5 39  1  0
  6 40  1  6
  8 41  1  6
 12 42  1  0
 15 43  1  0
 15 44  1  0
 18 45  1  0
 19 46  1  1
 20 47  1  0
 21 48  1  6
 22 49  1  0
 23 50  1  0
 23 51  1  0
 23 52  1  0
 24 53  1  6
 25 54  1  0
 25 55  1  0
 29 56  1  0
 30 57  1  0
 31 58  1  0
 32 59  1  0
 33 60  1  0
 34 61  1  0
M  CHG  2   2  -1  23   1
M  END
>  <filename_input>  (18) 
7ELT_TYM_docked.sdf

>  <pdb_id>  (18) 
7ELT_TYM

>  <pose_rank>  (18) 
17

>  <num_atoms_heavy>  (18) 
37

>  <num_torsions>  (18) 
9

>  <pose>  (18) 
[10.429205339315905, 45.67237804152802, 14.871614062093633, -5.5800980098031365, 2.3775116000116205, -0.016054961669319353, 3.721117467443303, 0.22609754692967315, -0.2868387423340943, -0.9704903444122109, -0.3473720506845827, -0.9758679827302834, 0.5237788998889328, -3.891967271047945, -0.5312430598748381]

>  <energy>  (18) 
-678.7323900061555

>  <inter_energy>  (18) 
-691.6023196008556

>  <intra_energy>  (18) 
7.003832635663298

>  <rmsd>  (18) 
10.5604

>  <sdf_rank>  (18) 
0

$$$$

     RDKit          3D

 61 65  0  0  0  0  0  0  0  0999 V2000
   10.5001   46.2428   16.6057 P   0  0  2  0  0  0  0  0  0  0  0  0
   10.9786   45.4972   17.8284 O   0  0  0  0  0  0  0  0  0  0  0  0
    9.1492   46.9175   16.5845 O   0  0  0  0  0  0  0  0  0  0  0  0
   10.6282   45.3209   15.3678 O   0  0  0  0  0  0  0  0  0  0  0  0
   10.3657   45.7569   14.0878 C   0  0  0  0  0  0  0  0  0  0  0  0
   11.6047   46.0163   13.2681 C   0  0  1  0  0  0  0  0  0  0  0  0
   12.6262   45.1214   13.6295 O   0  0  0  0  0  0  0  0  0  0  0  0
   13.0425   44.3756   12.5376 C   0  0  1  0  0  0  0  0  0  0  0  0
   13.4659   43.0253   12.9361 N   0  0  0  0  0  0  0  0  0  0  0  0
   14.2764   42.2422   12.2904 C   0  0  0  0  0  0  0  0  0  0  0  0
   15.0084   42.2831   11.1706 N   0  0  0  0  0  0  0  0  0  0  0  0
   15.7224   41.2675   10.7812 C   0  0  0  0  0  0  0  0  0  0  0  0
   15.8546   40.1830   11.4855 N   0  0  0  0  0  0  0  0  0  0  0  0
   15.2060   39.9596   12.6015 C   0  0  0  0  0  0  0  0  0  0  0  0
   15.3675   38.8271   13.2612 N   0  0  0  0  0  0  0  0  0  0  0  0
   14.3465   41.0269   13.0841 C   0  0  0  0  0  0  0  0  0  0  0  0
   13.5747   41.1952   14.1198 N   0  0  0  0  0  0  0  0  0  0  0  0
   13.0486   42.3948   14.0194 C   0  0  0  0  0  0  0  0  0  0  0  0
   11.9046   44.4214   11.5030 C   0  0  2  0  0  0  0  0  0  0  0  0
   12.2985   44.2138   10.1677 O   0  0  0  0  0  0  0  0  0  0  0  0
   11.3662   45.8229   11.7580 C   0  0  2  0  0  0  0  0  0  0  0  0
   12.0384   46.7619   10.9458 O   0  0  0  0  0  0  0  0  0  0  0  0
   14.0877   46.2466   16.5175 N   0  0  0  0  0  0  0  0  0  0  0  0
   13.9433   47.6257   16.9394 C   0  0  1  0  0  0  0  0  0  0  0  0
   14.6106   48.5333   15.9416 C   0  0  0  0  0  0  0  0  0  0  0  0
   15.8998   49.1690   16.3369 C   0  0  0  0  0  0  0  0  0  0  0  0
   16.9413   49.5349   15.4040 C   0  0  0  0  0  0  0  0  0  0  0  0
   18.0327   50.0417   16.2168 C   0  0  0  0  0  0  0  0  0  0  0  0
   17.0294   49.4649   14.0466 C   0  0  0  0  0  0  0  0  0  0  0  0
   16.4360   49.4533   17.5710 C   0  0  0  0  0  0  0  0  0  0  0  0
   17.6589   49.9592   17.4581 N   0  0  0  0  0  0  0  0  0  0  0  0
   19.1387   50.4971   15.5423 C   0  0  0  0  0  0  0  0  0  0  0  0
   18.1747   49.9323   13.4392 C   0  0  0  0  0  0  0  0  0  0  0  0
   19.2082   50.4340   14.1834 C   0  0  0  0  0  0  0  0  0  0  0  0
   12.4915   47.9952   16.9650 C   0  0  0  0  0  0  0  0  0  0  0  0
   12.0749   48.8589   17.6037 O   0  0  0  0  0  0  0  0  0  0  0  0
   11.5997   47.2735   16.1647 O   0  0  0  0  0  0  0  0  0  0  0  0
    9.7654   44.9900   13.5762 H   0  0  0  0  0  0  0  0  0  0  0  0
    9.8342   46.7157   14.1781 H   0  0  0  0  0  0  0  0  0  0  0  0
   11.8838   47.0612   13.4686 H   0  0  0  0  0  0  0  0  0  0  0  0
   13.9463   44.7971   12.0733 H   0  0  0  0  0  0  0  0  0  0  0  0
   16.2379   41.3295    9.8114 H   0  0  0  0  0  0  0  0  0  0  0  0
   14.8516   38.6635   14.1376 H   0  0  0  0  0  0  0  0  0  0  0  0
   16.0092   38.1073   12.8993 H   0  0  0  0  0  0  0  0  0  0  0  0
   12.3454   42.8225   14.7491 H   0  0  0  0  0  0  0  0  0  0  0  0
   11.1747   43.6072   11.6223 H   0  0  0  0  0  0  0  0  0  0  0  0
   13.1742   43.7522   10.1500 H   0  0  0  0  0  0  0  0  0  0  0  0
   10.3055   45.9628   11.5025 H   0  0  0  0  0  0  0  0  0  0  0  0
   12.5081   47.4180   11.5194 H   0  0  0  0  0  0  0  0  0  0  0  0
   14.1514   45.6388   17.3466 H   0  0  0  0  0  0  0  0  0  0  0  0
   13.2708   45.9729   15.9530 H   0  0  0  0  0  0  0  0  0  0  0  0
   14.9436   46.1481   15.9530 H   0  0  0  0  0  0  0  0  0  0  0  0
   14.3962   47.7339   17.9360 H   0  0  0  0  0  0  0  0  0  0  0  0
   14.8010   47.9409   15.0345 H   0  0  0  0  0  0  0  0  0  0  0  0
   13.9118   49.3741   15.8197 H   0  0  0  0  0  0  0  0  0  0  0  0
   16.2061   49.0455   13.4496 H   0  0  0  0  0  0  0  0  0  0  0  0
   15.9194   49.2838   18.5272 H   0  0  0  0  0  0  0  0  0  0  0  0
   18.2399   50.2504   18.2572 H   0  0  0  0  0  0  0  0  0  0  0  0
   19.9820   50.9196   16.1083 H   0  0  0  0  0  0  0  0  0  0  0  0
   18.2594   49.9018   12.3429 H   0  0  0  0  0  0  0  0  0  0  0  0
   20.1139   50.7938   13.6734 H   0  0  0  0  0  0  0  0  0  0  0  0
  1  2  1  1
  1  3  2  0
  1  4  1  0
  1 37  1  0
  4  5  1  0
  6  5  1  0
  6  7  1  0
  6 21  1  0
  7  8  1  0
  8  9  1  0
  8 19  1  0
  9 10  1  0
  9 18  1  0
 10 11  2  0
 10 16  1  0
 11 12  1  0
 12 13  2  0
 13 14  1  0
 14 15  1  0
 14 16  2  0
 16 17  1  0
 17 18  2  0
 19 20  1  0
 19 21  1  0
 21 22  1  0
 24 23  1  0
 24 25  1  0
 24 35  1  0
 25 26  1  0
 26 27  1  0
 26 30  2  0
 27 28  1  0
 27 29  2  0
 28 31  1  0
 28 32  2  0
 29 33  1  0
 30 31  1  0
 32 34  1  0
 33 34  2  0
 35 36  2  0
 35 37  1  0
  5 38  1  0
  5 39  1  0
  6 40  1  6
  8 41  1  6
 12 42  1  0
 15 43  1  0
 15 44  1  0
 18 45  1  0
 19 46  1  1
 20 47  1  0
 21 48  1  1
 22 49  1  0
 23 50  1  0
 23 51  1  0
 23 52  1  0
 24 53  1  1
 25 54  1  0
 25 55  1  0
 29 56  1  0
 30 57  1  0
 31 58  1  0
 32 59  1  0
 33 60  1  0
 34 61  1  0
M  CHG  2   2  -1  23   1
M  END
>  <filename_input>  (19) 
7ELT_TYM_docked.sdf

>  <pdb_id>  (19) 
7ELT_TYM

>  <pose_rank>  (19) 
18

>  <num_atoms_heavy>  (19) 
37

>  <num_torsions>  (19) 
9

>  <pose>  (19) 
[10.62824095106948, 45.32086383728117, 15.367790444396633, -0.28924769223108393, 0.8764960070854946, 1.9731753208910205, 3.9055981290661843, -5.636764598859268, -7.294094910799091, 3.086919126443299, -0.9514315762957773, -2.1984288842746462, -1.7359276452628924, 1.6144085611999028, -0.5031349802754725]

>  <energy>  (19) 
-736.5412784677688

>  <inter_energy>  (19) 
-740.3362676473877

>  <intra_energy>  (19) 
9.267283249687448

>  <rmsd>  (19) 
4.54235

>  <sdf_rank>  (19) 
0

$$$$

     RDKit          3D

 61 65  0  0  0  0  0  0  0  0999 V2000
   12.1889   46.7456   17.0971 P   0  0  2  0  0  0  0  0  0  0  0  0
   12.6694   48.0495   17.6877 O   0  0  0  0  0  0  0  0  0  0  0  0
   12.9404   45.4580   17.3380 O   0  0  0  0  0  0  0  0  0  0  0  0
   11.9690   46.9295   15.5750 O   0  0  0  0  0  0  0  0  0  0  0  0
   12.5420   46.0993   14.6370 C   0  0  0  0  0  0  0  0  0  0  0  0
   12.8000   46.7682   13.3102 C   0  0  1  0  0  0  0  0  0  0  0  0
   13.5918   47.9156   13.4869 O   0  0  0  0  0  0  0  0  0  0  0  0
   14.7646   47.8276   12.7529 C   0  0  1  0  0  0  0  0  0  0  0  0
   15.8769   48.5115   13.4287 N   0  0  0  0  0  0  0  0  0  0  0  0
   16.0585   48.6216   14.7100 C   0  0  0  0  0  0  0  0  0  0  0  0
   15.4521   48.2184   15.8330 N   0  0  0  0  0  0  0  0  0  0  0  0
   15.9048   48.5396   17.0097 C   0  0  0  0  0  0  0  0  0  0  0  0
   17.0172   49.1882   17.1877 N   0  0  0  0  0  0  0  0  0  0  0  0
   17.7391   49.6723   16.2076 C   0  0  0  0  0  0  0  0  0  0  0  0
   18.8505   50.3416   16.4543 N   0  0  0  0  0  0  0  0  0  0  0  0
   17.2771   49.3995   14.8574 C   0  0  0  0  0  0  0  0  0  0  0  0
   17.7041   49.6819   13.6597 N   0  0  0  0  0  0  0  0  0  0  0  0
   16.8554   49.1484   12.8106 C   0  0  0  0  0  0  0  0  0  0  0  0
   15.0000   46.3354   12.4610 C   0  0  2  0  0  0  0  0  0  0  0  0
   15.7827   46.0625   11.3233 O   0  0  0  0  0  0  0  0  0  0  0  0
   13.5603   45.8577   12.3266 C   0  0  2  0  0  0  0  0  0  0  0  0
   13.1284   45.9723   10.9874 O   0  0  0  0  0  0  0  0  0  0  0  0
    7.4441   45.7960   15.8047 N   0  0  0  0  0  0  0  0  0  0  0  0
    8.4161   46.6778   16.4200 C   0  0  1  0  0  0  0  0  0  0  0  0
    7.8863   47.1749   17.7380 C   0  0  0  0  0  0  0  0  0  0  0  0
    6.6714   46.5113   18.2911 C   0  0  0  0  0  0  0  0  0  0  0  0
    5.3688   47.1342   18.3585 C   0  0  0  0  0  0  0  0  0  0  0  0
    4.5115   46.1737   19.0301 C   0  0  0  0  0  0  0  0  0  0  0  0
    4.9034   48.3451   17.9436 C   0  0  0  0  0  0  0  0  0  0  0  0
    6.4990   45.2985   18.9161 C   0  0  0  0  0  0  0  0  0  0  0  0
    5.2434   45.1403   19.3194 N   0  0  0  0  0  0  0  0  0  0  0  0
    3.1929   46.5278   19.1778 C   0  0  0  0  0  0  0  0  0  0  0  0
    3.5697   48.6349   18.1341 C   0  0  0  0  0  0  0  0  0  0  0  0
    2.7375   47.7366   18.7459 C   0  0  0  0  0  0  0  0  0  0  0  0
    9.6729   45.9164   16.7125 C   0  0  0  0  0  0  0  0  0  0  0  0
    9.8597   44.8443   16.3341 O   0  0  0  0  0  0  0  0  0  0  0  0
   10.6762   46.5376   17.4636 O   0  0  0  0  0  0  0  0  0  0  0  0
   13.5012   45.7361   15.0348 H   0  0  0  0  0  0  0  0  0  0  0  0
   11.8279   45.2834   14.4516 H   0  0  0  0  0  0  0  0  0  0  0  0
   11.8091   47.0120   12.8995 H   0  0  0  0  0  0  0  0  0  0  0  0
   14.6882   48.3578   11.7922 H   0  0  0  0  0  0  0  0  0  0  0  0
   15.3195   48.2490   17.8945 H   0  0  0  0  0  0  0  0  0  0  0  0
   19.4093   50.7172   15.6749 H   0  0  0  0  0  0  0  0  0  0  0  0
   19.1584   50.4880   17.4262 H   0  0  0  0  0  0  0  0  0  0  0  0
   16.9483   49.2230   11.7171 H   0  0  0  0  0  0  0  0  0  0  0  0
   15.5944   45.8287   13.2355 H   0  0  0  0  0  0  0  0  0  0  0  0
   16.6785   45.7501   11.6062 H   0  0  0  0  0  0  0  0  0  0  0  0
   13.4028   44.7957   12.5659 H   0  0  0  0  0  0  0  0  0  0  0  0
   12.1717   46.2261   10.9698 H   0  0  0  0  0  0  0  0  0  0  0  0
    6.9085   45.3101   16.5383 H   0  0  0  0  0  0  0  0  0  0  0  0
    6.8014   46.3485   15.2194 H   0  0  0  0  0  0  0  0  0  0  0  0
    7.9316   45.1027   15.2194 H   0  0  0  0  0  0  0  0  0  0  0  0
    8.6115   47.5139   15.7325 H   0  0  0  0  0  0  0  0  0  0  0  0
    8.6903   47.0594   18.4798 H   0  0  0  0  0  0  0  0  0  0  0  0
    7.5714   48.2098   17.5385 H   0  0  0  0  0  0  0  0  0  0  0  0
    5.5759   49.0742   17.4679 H   0  0  0  0  0  0  0  0  0  0  0  0
    7.2972   44.5559   19.0630 H   0  0  0  0  0  0  0  0  0  0  0  0
    4.8929   44.3009   19.8024 H   0  0  0  0  0  0  0  0  0  0  0  0
    2.4934   45.8240   19.6525 H   0  0  0  0  0  0  0  0  0  0  0  0
    3.1689   49.5998   17.7903 H   0  0  0  0  0  0  0  0  0  0  0  0
    1.6786   47.9965   18.8917 H   0  0  0  0  0  0  0  0  0  0  0  0
  1  2  1  1
  1  3  2  0
  1  4  1  0
  1 37  1  0
  4  5  1  0
  6  5  1  0
  6  7  1  0
  6 21  1  0
  7  8  1  0
  8  9  1  0
  8 19  1  0
  9 10  1  0
  9 18  1  0
 10 11  2  0
 10 16  1  0
 11 12  1  0
 12 13  2  0
 13 14  1  0
 14 15  1  0
 14 16  2  0
 16 17  1  0
 17 18  2  0
 19 20  1  0
 19 21  1  0
 21 22  1  0
 24 23  1  0
 24 25  1  0
 24 35  1  0
 25 26  1  0
 26 27  1  0
 26 30  2  0
 27 28  1  0
 27 29  2  0
 28 31  1  0
 28 32  2  0
 29 33  1  0
 30 31  1  0
 32 34  1  0
 33 34  2  0
 35 36  2  0
 35 37  1  0
  5 38  1  0
  5 39  1  0
  6 40  1  6
  8 41  1  6
 12 42  1  0
 15 43  1  0
 15 44  1  0
 18 45  1  0
 19 46  1  1
 20 47  1  0
 21 48  1  1
 22 49  1  0
 23 50  1  0
 23 51  1  0
 23 52  1  0
 24 53  1  6
 25 54  1  0
 25 55  1  0
 29 56  1  0
 30 57  1  0
 31 58  1  0
 32 59  1  0
 33 60  1  0
 34 61  1  0
M  CHG  2   2  -1  23   1
M  END
>  <filename_input>  (20) 
7ELT_TYM_docked.sdf

>  <pdb_id>  (20) 
7ELT_TYM

>  <pose_rank>  (20) 
19

>  <num_atoms_heavy>  (20) 
37

>  <num_torsions>  (20) 
9

>  <pose>  (20) 
[11.969006505057916, 46.929514978583455, 15.575027132522935, 0.30642763522825367, 0.07267165503638004, -0.6556948486383078, -3.3940265310405016, -2.4960813577909198, 1.1871098185951396, 0.5030806679910239, 1.1166199626490865, -0.4503030648377837, 0.09733723163906194, 2.0099068142619054, 2.794418557393503]

>  <energy>  (20) 
-692.1912449777401

>  <inter_energy>  (20) 
-718.1489785171474

>  <intra_energy>  (20) 
22.675749849283786

>  <rmsd>  (20) 
9.84081

>  <sdf_rank>  (20) 
0

$$$$

     RDKit          3D

 61 65  0  0  0  0  0  0  0  0999 V2000
   10.1699   47.0603   17.5961 P   0  0  2  0  0  0  0  0  0  0  0  0
   11.5381   47.2995   18.1883 O   0  0  0  0  0  0  0  0  0  0  0  0
    9.2064   46.0861   18.2309 O   0  0  0  0  0  0  0  0  0  0  0  0
   10.3210   46.7205   16.0926 O   0  0  0  0  0  0  0  0  0  0  0  0
   11.5011   46.2607   15.5510 C   0  0  0  0  0  0  0  0  0  0  0  0
   11.9501   47.0279   14.3327 C   0  0  1  0  0  0  0  0  0  0  0  0
   12.8465   48.0462   14.6991 O   0  0  0  0  0  0  0  0  0  0  0  0
   14.0630   47.8937   14.0519 C   0  0  1  0  0  0  0  0  0  0  0  0
   15.1799   48.3637   14.8845 N   0  0  0  0  0  0  0  0  0  0  0  0
   16.2804   48.9150   14.4699 C   0  0  0  0  0  0  0  0  0  0  0  0
   16.8238   49.2827   13.3033 N   0  0  0  0  0  0  0  0  0  0  0  0
   18.0118   49.8091   13.2363 C   0  0  0  0  0  0  0  0  0  0  0  0
   18.7169   50.1022   14.2882 N   0  0  0  0  0  0  0  0  0  0  0  0
   18.3524   49.8060   15.5111 C   0  0  0  0  0  0  0  0  0  0  0  0
   19.1237   50.1120   16.5384 N   0  0  0  0  0  0  0  0  0  0  0  0
   17.0559   49.1704   15.6721 C   0  0  0  0  0  0  0  0  0  0  0  0
   16.3529   48.7479   16.6841 N   0  0  0  0  0  0  0  0  0  0  0  0
   15.2319   48.2625   16.2006 C   0  0  0  0  0  0  0  0  0  0  0  0
   14.1549   46.4225   13.6108 C   0  0  2  0  0  0  0  0  0  0  0  0
   15.0007   46.1768   12.5128 O   0  0  0  0  0  0  0  0  0  0  0  0
   12.6885   46.1394   13.3130 C   0  0  2  0  0  0  0  0  0  0  0  0
   12.3938   46.4443   11.9664 O   0  0  0  0  0  0  0  0  0  0  0  0
    8.7181   50.5750   15.2351 N   0  0  0  0  0  0  0  0  0  0  0  0
    7.9288   50.1330   16.3675 C   0  0  1  0  0  0  0  0  0  0  0  0
    6.4671   50.1695   16.0114 C   0  0  0  0  0  0  0  0  0  0  0  0
    5.7696   51.4852   16.0811 C   0  0  0  0  0  0  0  0  0  0  0  0
    4.3334   51.6379   16.1367 C   0  0  0  0  0  0  0  0  0  0  0  0
    4.0922   53.0696   16.1149 C   0  0  0  0  0  0  0  0  0  0  0  0
    3.3119   50.7382   16.1867 C   0  0  0  0  0  0  0  0  0  0  0  0
    6.2443   52.7741   16.0126 C   0  0  0  0  0  0  0  0  0  0  0  0
    5.2499   53.6541   16.0418 N   0  0  0  0  0  0  0  0  0  0  0  0
    2.7819   53.4715   16.2014 C   0  0  0  0  0  0  0  0  0  0  0  0
    2.0214   51.2157   16.2625 C   0  0  0  0  0  0  0  0  0  0  0  0
    1.7707   52.5613   16.2648 C   0  0  0  0  0  0  0  0  0  0  0  0
    8.2652   48.7093   16.6910 C   0  0  0  0  0  0  0  0  0  0  0  0
    7.6009   47.8210   16.3796 O   0  0  0  0  0  0  0  0  0  0  0  0
    9.4482   48.4392   17.3871 O   0  0  0  0  0  0  0  0  0  0  0  0
   12.2869   46.3353   16.3171 H   0  0  0  0  0  0  0  0  0  0  0  0
   11.3242   45.2236   15.2298 H   0  0  0  0  0  0  0  0  0  0  0  0
   11.0335   47.4314   13.8776 H   0  0  0  0  0  0  0  0  0  0  0  0
   14.1328   48.5264   13.1549 H   0  0  0  0  0  0  0  0  0  0  0  0
   18.4390   50.0155   12.2440 H   0  0  0  0  0  0  0  0  0  0  0  0
   18.8258   49.8736   17.4952 H   0  0  0  0  0  0  0  0  0  0  0  0
   20.0232   50.5890   16.3830 H   0  0  0  0  0  0  0  0  0  0  0  0
   14.4332   47.8248   16.8173 H   0  0  0  0  0  0  0  0  0  0  0  0
   14.6171   45.7697   14.3659 H   0  0  0  0  0  0  0  0  0  0  0  0
   15.8981   45.9160   12.8395 H   0  0  0  0  0  0  0  0  0  0  0  0
   12.3923   45.0852   13.4170 H   0  0  0  0  0  0  0  0  0  0  0  0
   11.7062   47.1556   11.9320 H   0  0  0  0  0  0  0  0  0  0  0  0
    9.5671   51.0504   15.5729 H   0  0  0  0  0  0  0  0  0  0  0  0
    8.9850   49.7606   14.6638 H   0  0  0  0  0  0  0  0  0  0  0  0
    8.1632   51.2281   14.6638 H   0  0  0  0  0  0  0  0  0  0  0  0
    8.1439   50.7935   17.2205 H   0  0  0  0  0  0  0  0  0  0  0  0
    6.3711   49.8010   14.9794 H   0  0  0  0  0  0  0  0  0  0  0  0
    5.9780   49.5544   16.7811 H   0  0  0  0  0  0  0  0  0  0  0  0
    3.5122   49.6568   16.1671 H   0  0  0  0  0  0  0  0  0  0  0  0
    7.3090   53.0414   15.9426 H   0  0  0  0  0  0  0  0  0  0  0  0
    5.3808   54.6753   16.0104 H   0  0  0  0  0  0  0  0  0  0  0  0
    2.5454   54.5456   16.2199 H   0  0  0  0  0  0  0  0  0  0  0  0
    1.1825   50.5066   16.3220 H   0  0  0  0  0  0  0  0  0  0  0  0
    0.7305   52.9151   16.3189 H   0  0  0  0  0  0  0  0  0  0  0  0
  1  2  1  1
  1  3  2  0
  1  4  1  0
  1 37  1  0
  4  5  1  0
  6  5  1  0
  6  7  1  0
  6 21  1  0
  7  8  1  0
  8  9  1  0
  8 19  1  0
  9 10  1  0
  9 18  1  0
 10 11  2  0
 10 16  1  0
 11 12  1  0
 12 13  2  0
 13 14  1  0
 14 15  1  0
 14 16  2  0
 16 17  1  0
 17 18  2  0
 19 20  1  0
 19 21  1  0
 21 22  1  0
 24 23  1  0
 24 25  1  0
 24 35  1  0
 25 26  1  0
 26 27  1  0
 26 30  2  0
 27 28  1  0
 27 29  2  0
 28 31  1  0
 28 32  2  0
 29 33  1  0
 30 31  1  0
 32 34  1  0
 33 34  2  0
 35 36  2  0
 35 37  1  0
  5 38  1  0
  5 39  1  0
  6 40  1  6
  8 41  1  6
 12 42  1  0
 15 43  1  0
 15 44  1  0
 18 45  1  0
 19 46  1  1
 20 47  1  0
 21 48  1  1
 22 49  1  0
 23 50  1  0
 23 51  1  0
 23 52  1  0
 24 53  1  1
 25 54  1  0
 25 55  1  0
 29 56  1  0
 30 57  1  0
 31 58  1  0
 32 59  1  0
 33 60  1  0
 34 61  1  0
M  CHG  2   2  -1  23   1
M  END
>  <filename_input>  (21) 
7ELT_TYM_docked.sdf

>  <pdb_id>  (21) 
7ELT_TYM

>  <pose_rank>  (21) 
20

>  <num_atoms_heavy>  (21) 
37

>  <num_torsions>  (21) 
9

>  <pose>  (21) 
[10.32101994285121, 46.7204559994611, 16.092637185606424, -1.5271221445061296, 5.760730042875272, -1.553945973537234, 26.166169067237014, 23.035164450715623, 94.71342539936869, 130.52397036565804, 56.051362009457634, 48.889194749564766, 69.60155669559252, 71.7957257188229, 18.51032112688349]

>  <energy>  (21) 
-718.5092281941761

>  <inter_energy>  (21) 
-731.7388652568297

>  <intra_energy>  (21) 
13.558464966683609

>  <rmsd>  (21) 
9.98058

>  <sdf_rank>  (21) 
0

$$$$

     RDKit          3D

 61 65  0  0  0  0  0  0  0  0999 V2000
   11.9963   45.2204   11.5791 P   0  0  2  0  0  0  0  0  0  0  0  0
   11.4492   44.8893   10.2113 O   0  0  0  0  0  0  0  0  0  0  0  0
   12.8141   44.2153   12.3547 O   0  0  0  0  0  0  0  0  0  0  0  0
   10.8433   45.7380   12.4743 O   0  0  0  0  0  0  0  0  0  0  0  0
   10.5969   45.2334   13.7321 C   0  0  0  0  0  0  0  0  0  0  0  0
   10.4796   46.2925   14.7993 C   0  0  1  0  0  0  0  0  0  0  0  0
    9.3361   46.0700   15.5853 O   0  0  0  0  0  0  0  0  0  0  0  0
    9.6743   45.9117   16.9205 C   0  0  1  0  0  0  0  0  0  0  0  0
    8.7626   44.9808   17.6014 N   0  0  0  0  0  0  0  0  0  0  0  0
    8.9634   43.7164   17.8207 C   0  0  0  0  0  0  0  0  0  0  0  0
    9.9289   42.8159   17.6011 N   0  0  0  0  0  0  0  0  0  0  0  0
    9.7912   41.5672   17.9396 C   0  0  0  0  0  0  0  0  0  0  0  0
    8.7601   41.1200   18.5926 N   0  0  0  0  0  0  0  0  0  0  0  0
    7.7136   41.8518   18.8847 C   0  0  0  0  0  0  0  0  0  0  0  0
    6.6866   41.3330   19.5328 N   0  0  0  0  0  0  0  0  0  0  0  0
    7.7648   43.2514   18.4982 C   0  0  0  0  0  0  0  0  0  0  0  0
    6.9651   44.2727   18.6162 N   0  0  0  0  0  0  0  0  0  0  0  0
    7.5711   45.3034   18.0719 C   0  0  0  0  0  0  0  0  0  0  0  0
   11.1601   45.5144   16.9627 C   0  0  2  0  0  0  0  0  0  0  0  0
   11.8308   45.8251   18.1607 O   0  0  0  0  0  0  0  0  0  0  0  0
   11.6812   46.2959   15.7641 C   0  0  2  0  0  0  0  0  0  0  0  0
   12.0945   47.5859   16.1617 O   0  0  0  0  0  0  0  0  0  0  0  0
   15.5663   46.7953   12.3488 N   0  0  0  0  0  0  0  0  0  0  0  0
   14.4787   46.9660   13.2916 C   0  0  1  0  0  0  0  0  0  0  0  0
   14.8116   48.0740   14.2540 C   0  0  0  0  0  0  0  0  0  0  0  0
   15.9789   48.9438   13.9323 C   0  0  0  0  0  0  0  0  0  0  0  0
   17.0061   49.3041   14.8832 C   0  0  0  0  0  0  0  0  0  0  0  0
   17.8903   50.2134   14.1763 C   0  0  0  0  0  0  0  0  0  0  0  0
   17.2197   48.9608   16.1838 C   0  0  0  0  0  0  0  0  0  0  0  0
   16.3056   49.6493   12.7980 C   0  0  0  0  0  0  0  0  0  0  0  0
   17.4132   50.3601   12.9770 N   0  0  0  0  0  0  0  0  0  0  0  0
   18.9841   50.6682   14.8710 C   0  0  0  0  0  0  0  0  0  0  0  0
   18.3339   49.4639   16.8198 C   0  0  0  0  0  0  0  0  0  0  0  0
   19.1932   50.3062   16.1673 C   0  0  0  0  0  0  0  0  0  0  0  0
   13.2382   47.3794   12.5601 C   0  0  0  0  0  0  0  0  0  0  0  0
   12.6496   48.3368   12.8139 O   0  0  0  0  0  0  0  0  0  0  0  0
   12.7797   46.5796   11.5081 O   0  0  0  0  0  0  0  0  0  0  0  0
    9.6546   44.6669   13.7004 H   0  0  0  0  0  0  0  0  0  0  0  0
   11.4578   44.6028   13.9992 H   0  0  0  0  0  0  0  0  0  0  0  0
   10.4304   47.2528   14.2650 H   0  0  0  0  0  0  0  0  0  0  0  0
    9.5521   46.8458   17.4883 H   0  0  0  0  0  0  0  0  0  0  0  0
   10.5838   40.8573   17.6604 H   0  0  0  0  0  0  0  0  0  0  0  0
    5.8696   41.9190   19.7565 H   0  0  0  0  0  0  0  0  0  0  0  0
    6.7025   40.3425   19.8146 H   0  0  0  0  0  0  0  0  0  0  0  0
    7.1385   46.3132   18.0147 H   0  0  0  0  0  0  0  0  0  0  0  0
   11.3213   44.4270   16.9227 H   0  0  0  0  0  0  0  0  0  0  0  0
   11.2672   45.5640   18.9316 H   0  0  0  0  0  0  0  0  0  0  0  0
   12.5746   45.8667   15.2870 H   0  0  0  0  0  0  0  0  0  0  0  0
   12.1109   47.6371   17.1502 H   0  0  0  0  0  0  0  0  0  0  0  0
   16.4480   46.6570   12.8631 H   0  0  0  0  0  0  0  0  0  0  0  0
   15.3816   45.9730   11.7567 H   0  0  0  0  0  0  0  0  0  0  0  0
   15.6423   47.6347   11.7567 H   0  0  0  0  0  0  0  0  0  0  0  0
   14.3260   46.0147   13.8224 H   0  0  0  0  0  0  0  0  0  0  0  0
   13.9272   48.7241   14.3252 H   0  0  0  0  0  0  0  0  0  0  0  0
   15.0965   47.5588   15.1833 H   0  0  0  0  0  0  0  0  0  0  0  0
   16.5197   48.2981   16.7138 H   0  0  0  0  0  0  0  0  0  0  0  0
   15.7251   49.6278   11.8639 H   0  0  0  0  0  0  0  0  0  0  0  0
   17.8415   50.9549   12.2534 H   0  0  0  0  0  0  0  0  0  0  0  0
   19.7027   51.3356   14.3727 H   0  0  0  0  0  0  0  0  0  0  0  0
   18.5352   49.1852   17.8647 H   0  0  0  0  0  0  0  0  0  0  0  0
   20.0712   50.6989   16.7010 H   0  0  0  0  0  0  0  0  0  0  0  0
  1  2  1  6
  1  3  2  0
  1  4  1  0
  1 37  1  0
  4  5  1  0
  6  5  1  0
  6  7  1  0
  6 21  1  0
  7  8  1  0
  8  9  1  0
  8 19  1  0
  9 10  1  0
  9 18  1  0
 10 11  2  0
 10 16  1  0
 11 12  1  0
 12 13  2  0
 13 14  1  0
 14 15  1  0
 14 16  2  0
 16 17  1  0
 17 18  2  0
 19 20  1  0
 19 21  1  0
 21 22  1  0
 24 23  1  0
 24 25  1  0
 24 35  1  0
 25 26  1  0
 26 27  1  0
 26 30  2  0
 27 28  1  0
 27 29  2  0
 28 31  1  0
 28 32  2  0
 29 33  1  0
 30 31  1  0
 32 34  1  0
 33 34  2  0
 35 36  2  0
 35 37  1  0
  5 38  1  0
  5 39  1  0
  6 40  1  6
  8 41  1  1
 12 42  1  0
 15 43  1  0
 15 44  1  0
 18 45  1  0
 19 46  1  6
 20 47  1  0
 21 48  1  6
 22 49  1  0
 23 50  1  0
 23 51  1  0
 23 52  1  0
 24 53  1  1
 25 54  1  0
 25 55  1  0
 29 56  1  0
 30 57  1  0
 31 58  1  0
 32 59  1  0
 33 60  1  0
 34 61  1  0
M  CHG  2   2  -1  23   1
M  END
>  <filename_input>  (22) 
7ELT_TYM_docked.sdf

>  <pdb_id>  (22) 
7ELT_TYM

>  <pose_rank>  (22) 
21

>  <num_atoms_heavy>  (22) 
37

>  <num_torsions>  (22) 
9

>  <pose>  (22) 
[10.843259994556542, 45.73795703050113, 12.474272870860407, -2.0214245215429356, 1.2604119681828336, -1.4207156714196927, -3.3499093051038162, -2.1343127718787254, 4.725536493527509, -1.818652348322161, 1.1204554073194424, -0.8689008302501731, -1.2960571855241017, 3.3414139168587704, 3.9233627206980453]

>  <energy>  (22) 
-699.1082910878856

>  <inter_energy>  (22) 
-736.4307520712238

>  <intra_energy>  (22) 
35.5209454624989

>  <rmsd>  (22) 
5.72598

>  <sdf_rank>  (22) 
0

$$$$

     RDKit          3D

 61 65  0  0  0  0  0  0  0  0999 V2000
   11.0881   47.0245   16.9168 P   0  0  2  0  0  0  0  0  0  0  0  0
   11.9804   48.1993   17.2381 O   0  0  0  0  0  0  0  0  0  0  0  0
   11.2151   45.7215   17.6697 O   0  0  0  0  0  0  0  0  0  0  0  0
   11.1513   46.7416   15.3954 O   0  0  0  0  0  0  0  0  0  0  0  0
   12.2577   46.1888   14.7889 C   0  0  0  0  0  0  0  0  0  0  0  0
   12.5892   46.8042   13.4526 C   0  0  1  0  0  0  0  0  0  0  0  0
   13.3860   47.9487   13.6257 O   0  0  0  0  0  0  0  0  0  0  0  0
   14.5924   47.8202   12.9547 C   0  0  1  0  0  0  0  0  0  0  0  0
   15.6786   48.5170   13.6590 N   0  0  0  0  0  0  0  0  0  0  0  0
   15.7673   48.7270   14.9376 C   0  0  0  0  0  0  0  0  0  0  0  0
   15.0608   48.4414   16.0380 N   0  0  0  0  0  0  0  0  0  0  0  0
   15.4365   48.8430   17.2171 C   0  0  0  0  0  0  0  0  0  0  0  0
   16.5590   49.4630   17.4297 N   0  0  0  0  0  0  0  0  0  0  0  0
   17.3733   49.8368   16.4740 C   0  0  0  0  0  0  0  0  0  0  0  0
   18.4905   50.4832   16.7531 N   0  0  0  0  0  0  0  0  0  0  0  0
   17.0035   49.4693   15.1178 C   0  0  0  0  0  0  0  0  0  0  0  0
   17.5318   49.6349   13.9388 N   0  0  0  0  0  0  0  0  0  0  0  0
   16.7276   49.0638   13.0710 C   0  0  0  0  0  0  0  0  0  0  0  0
   14.8227   46.3156   12.7305 C   0  0  2  0  0  0  0  0  0  0  0  0
   15.6569   45.9913   11.6440 O   0  0  0  0  0  0  0  0  0  0  0  0
   13.3854   45.8490   12.5426 C   0  0  2  0  0  0  0  0  0  0  0  0
   13.0216   45.9175   11.1802 O   0  0  0  0  0  0  0  0  0  0  0  0
    6.4408   45.5631   16.6986 N   0  0  0  0  0  0  0  0  0  0  0  0
    7.3406   46.4942   17.3500 C   0  0  1  0  0  0  0  0  0  0  0  0
    7.9557   45.8426   18.5590 C   0  0  0  0  0  0  0  0  0  0  0  0
    7.3797   44.5455   19.0155 C   0  0  0  0  0  0  0  0  0  0  0  0
    7.8725   43.2511   18.6022 C   0  0  0  0  0  0  0  0  0  0  0  0
    6.9825   42.2811   19.2151 C   0  0  0  0  0  0  0  0  0  0  0  0
    8.9131   42.8708   17.8100 C   0  0  0  0  0  0  0  0  0  0  0  0
    6.2775   44.2576   19.7859 C   0  0  0  0  0  0  0  0  0  0  0  0
    6.0879   42.9465   19.8816 N   0  0  0  0  0  0  0  0  0  0  0  0
    7.2762   40.9573   18.9980 C   0  0  0  0  0  0  0  0  0  0  0  0
    9.1413   41.5237   17.6298 C   0  0  0  0  0  0  0  0  0  0  0  0
    8.3283   40.5905   18.2146 C   0  0  0  0  0  0  0  0  0  0  0  0
    8.4637   46.8426   16.4215 C   0  0  0  0  0  0  0  0  0  0  0  0
    8.4384   46.6144   15.2925 O   0  0  0  0  0  0  0  0  0  0  0  0
    9.5889   47.4913   16.9408 O   0  0  0  0  0  0  0  0  0  0  0  0
   13.1220   46.3218   15.4563 H   0  0  0  0  0  0  0  0  0  0  0  0
   12.0272   45.1289   14.6057 H   0  0  0  0  0  0  0  0  0  0  0  0
   11.6230   47.0431   12.9843 H   0  0  0  0  0  0  0  0  0  0  0  0
   14.5702   48.3146   11.9723 H   0  0  0  0  0  0  0  0  0  0  0  0
   14.7739   48.6490   18.0734 H   0  0  0  0  0  0  0  0  0  0  0  0
   19.1224   50.7716   15.9925 H   0  0  0  0  0  0  0  0  0  0  0  0
   18.7300   50.6989   17.7314 H   0  0  0  0  0  0  0  0  0  0  0  0
   16.9062   49.0434   11.9858 H   0  0  0  0  0  0  0  0  0  0  0  0
   15.3717   45.8320   13.5519 H   0  0  0  0  0  0  0  0  0  0  0  0
   16.5240   45.6543   11.9828 H   0  0  0  0  0  0  0  0  0  0  0  0
   13.2027   44.7985   12.8131 H   0  0  0  0  0  0  0  0  0  0  0  0
   12.0514   46.1004   11.1066 H   0  0  0  0  0  0  0  0  0  0  0  0
    5.9244   45.0287   17.4118 H   0  0  0  0  0  0  0  0  0  0  0  0
    5.7745   46.0839   16.1105 H   0  0  0  0  0  0  0  0  0  0  0  0
    6.9840   44.9150   16.1105 H   0  0  0  0  0  0  0  0  0  0  0  0
    6.7689   47.3905   17.6326 H   0  0  0  0  0  0  0  0  0  0  0  0
    9.0183   45.6691   18.3338 H   0  0  0  0  0  0  0  0  0  0  0  0
    7.7547   46.5417   19.3841 H   0  0  0  0  0  0  0  0  0  0  0  0
    9.5558   43.6207   17.3257 H   0  0  0  0  0  0  0  0  0  0  0  0
    5.6363   45.0146   20.2610 H   0  0  0  0  0  0  0  0  0  0  0  0
    5.3248   42.5106   20.4187 H   0  0  0  0  0  0  0  0  0  0  0  0
    6.6519   40.1808   19.4642 H   0  0  0  0  0  0  0  0  0  0  0  0
    9.9871   41.1944   17.0084 H   0  0  0  0  0  0  0  0  0  0  0  0
    8.5289   39.5218   18.0483 H   0  0  0  0  0  0  0  0  0  0  0  0
  1  2  1  1
  1  3  2  0
  1  4  1  0
  1 37  1  0
  4  5  1  0
  6  5  1  0
  6  7  1  0
  6 21  1  0
  7  8  1  0
  8  9  1  0
  8 19  1  0
  9 10  1  0
  9 18  1  0
 10 11  2  0
 10 16  1  0
 11 12  1  0
 12 13  2  0
 13 14  1  0
 14 15  1  0
 14 16  2  0
 16 17  1  0
 17 18  2  0
 19 20  1  0
 19 21  1  0
 21 22  1  0
 24 23  1  0
 24 25  1  0
 24 35  1  0
 25 26  1  0
 26 27  1  0
 26 30  2  0
 27 28  1  0
 27 29  2  0
 28 31  1  0
 28 32  2  0
 29 33  1  0
 30 31  1  0
 32 34  1  0
 33 34  2  0
 35 36  2  0
 35 37  1  0
  5 38  1  0
  5 39  1  0
  6 40  1  6
  8 41  1  6
 12 42  1  0
 15 43  1  0
 15 44  1  0
 18 45  1  0
 19 46  1  1
 20 47  1  0
 21 48  1  1
 22 49  1  0
 23 50  1  0
 23 51  1  0
 23 52  1  0
 24 53  1  1
 25 54  1  0
 25 55  1  0
 29 56  1  0
 30 57  1  0
 31 58  1  0
 32 59  1  0
 33 60  1  0
 34 61  1  0
M  CHG  2   2  -1  23   1
M  END
>  <filename_input>  (23) 
7ELT_TYM_docked.sdf

>  <pdb_id>  (23) 
7ELT_TYM

>  <pose_rank>  (23) 
22

>  <num_atoms_heavy>  (23) 
37

>  <num_torsions>  (23) 
9

>  <pose>  (23) 
[11.151287483658024, 46.74156209276482, 15.395363822367067, 3.4218349017960312, -3.984125684864275, -3.6833151869002996, 1.9321745352220132, 4.092640981247166, 5.4896341186837745, 0.599051725132997, 0.7147648520706814, -3.207700609457865, 12.865517524771517, 2.531722376128772, -3.5484640619358965]

>  <energy>  (23) 
-681.5676106894464

>  <inter_energy>  (23) 
-704.5065546028255

>  <intra_energy>  (23) 
34.99478465015038

>  <rmsd>  (23) 
9.57832

>  <sdf_rank>  (23) 
0

$$$$

     RDKit          3D

 61 65  0  0  0  0  0  0  0  0999 V2000
   14.8995   45.4417   12.1006 P   0  0  2  0  0  0  0  0  0  0  0  0
   15.6980   44.1739   12.2878 O   0  0  0  0  0  0  0  0  0  0  0  0
   15.3976   46.5502   11.2042 O   0  0  0  0  0  0  0  0  0  0  0  0
   14.5488   46.0293   13.4900 O   0  0  0  0  0  0  0  0  0  0  0  0
   13.2577   46.3314   13.8632 C   0  0  0  0  0  0  0  0  0  0  0  0
   13.1555   47.5112   14.7971 C   0  0  1  0  0  0  0  0  0  0  0  0
   11.9362   47.4782   15.4948 O   0  0  0  0  0  0  0  0  0  0  0  0
   12.1483   47.4444   16.8644 C   0  0  1  0  0  0  0  0  0  0  0  0
   11.0999   46.6785   17.5542 N   0  0  0  0  0  0  0  0  0  0  0  0
    9.9131   47.0984   17.8740 C   0  0  0  0  0  0  0  0  0  0  0  0
    9.1882   48.2147   17.7340 N   0  0  0  0  0  0  0  0  0  0  0  0
    7.9844   48.3153   18.2175 C   0  0  0  0  0  0  0  0  0  0  0  0
    7.3636   47.3237   18.7839 N   0  0  0  0  0  0  0  0  0  0  0  0
    7.9177   46.1600   19.0181 C   0  0  0  0  0  0  0  0  0  0  0  0
    7.2401   45.1978   19.6172 N   0  0  0  0  0  0  0  0  0  0  0  0
    9.2819   45.9787   18.5521 C   0  0  0  0  0  0  0  0  0  0  0  0
   10.1451   45.0036   18.5766 N   0  0  0  0  0  0  0  0  0  0  0  0
   11.2329   45.4348   17.9795 C   0  0  0  0  0  0  0  0  0  0  0  0
   13.5812   46.9286   17.0837 C   0  0  2  0  0  0  0  0  0  0  0  0
   14.1790   47.3148   18.2981 O   0  0  0  0  0  0  0  0  0  0  0  0
   14.2698   47.5212   15.8615 C   0  0  2  0  0  0  0  0  0  0  0  0
   14.7704   48.8078   16.1564 O   0  0  0  0  0  0  0  0  0  0  0  0
   11.1586   43.8388   10.6969 N   0  0  0  0  0  0  0  0  0  0  0  0
   11.5450   45.0831   10.0617 C   0  0  1  0  0  0  0  0  0  0  0  0
   10.3389   45.9700    9.9094 C   0  0  0  0  0  0  0  0  0  0  0  0
    9.0656   45.3373    9.4612 C   0  0  0  0  0  0  0  0  0  0  0  0
    8.0427   44.8522   10.3599 C   0  0  0  0  0  0  0  0  0  0  0  0
    7.0300   44.2514    9.5103 C   0  0  0  0  0  0  0  0  0  0  0  0
    7.9240   44.8694   11.7166 C   0  0  0  0  0  0  0  0  0  0  0  0
    8.6125   44.9848    8.2115 C   0  0  0  0  0  0  0  0  0  0  0  0
    7.4374   44.3699    8.2826 N   0  0  0  0  0  0  0  0  0  0  0  0
    5.9196   43.7483   10.1425 C   0  0  0  0  0  0  0  0  0  0  0  0
    6.7852   44.3372   12.2815 C   0  0  0  0  0  0  0  0  0  0  0  0
    5.8072   43.7843   11.4995 C   0  0  0  0  0  0  0  0  0  0  0  0
   12.5183   45.8138   10.9356 C   0  0  0  0  0  0  0  0  0  0  0  0
   12.5436   46.9623   11.0232 O   0  0  0  0  0  0  0  0  0  0  0  0
   13.4280   45.0716   11.6960 O   0  0  0  0  0  0  0  0  0  0  0  0
   12.6777   46.5558   12.9559 H   0  0  0  0  0  0  0  0  0  0  0  0
   12.8678   45.4577   14.4061 H   0  0  0  0  0  0  0  0  0  0  0  0
   13.2416   48.4050   14.1619 H   0  0  0  0  0  0  0  0  0  0  0  0
   12.0699   48.4440   17.3167 H   0  0  0  0  0  0  0  0  0  0  0  0
    7.4684   49.2839   18.1435 H   0  0  0  0  0  0  0  0  0  0  0  0
    7.6872   44.2872   19.7956 H   0  0  0  0  0  0  0  0  0  0  0  0
    6.2645   45.3578   19.9060 H   0  0  0  0  0  0  0  0  0  0  0  0
   12.1444   44.8330   17.8492 H   0  0  0  0  0  0  0  0  0  0  0  0
   13.6408   45.8339   17.1739 H   0  0  0  0  0  0  0  0  0  0  0  0
   13.6428   46.9684   19.0548 H   0  0  0  0  0  0  0  0  0  0  0  0
   15.1540   46.9655   15.5160 H   0  0  0  0  0  0  0  0  0  0  0  0
   14.8168   48.9269   17.1381 H   0  0  0  0  0  0  0  0  0  0  0  0
   11.1933   43.9505   11.7202 H   0  0  0  0  0  0  0  0  0  0  0  0
   10.2009   43.5903   10.4109 H   0  0  0  0  0  0  0  0  0  0  0  0
   11.8072   43.0915   10.4109 H   0  0  0  0  0  0  0  0  0  0  0  0
   11.9901   44.8505    9.0830 H   0  0  0  0  0  0  0  0  0  0  0  0
   10.1478   46.4357   10.8875 H   0  0  0  0  0  0  0  0  0  0  0  0
   10.6048   46.6642    9.0985 H   0  0  0  0  0  0  0  0  0  0  0  0
    8.7178   45.2977   12.3462 H   0  0  0  0  0  0  0  0  0  0  0  0
    9.1531   45.1861    7.2748 H   0  0  0  0  0  0  0  0  0  0  0  0
    6.9132   44.0287    7.4642 H   0  0  0  0  0  0  0  0  0  0  0  0
    5.1080   43.3094    9.5436 H   0  0  0  0  0  0  0  0  0  0  0  0
    6.6607   44.3569   13.3742 H   0  0  0  0  0  0  0  0  0  0  0  0
    4.9117   43.3600   11.9770 H   0  0  0  0  0  0  0  0  0  0  0  0
  1  2  1  1
  1  3  2  0
  1  4  1  0
  1 37  1  0
  4  5  1  0
  6  5  1  0
  6  7  1  0
  6 21  1  0
  7  8  1  0
  8  9  1  0
  8 19  1  0
  9 10  1  0
  9 18  1  0
 10 11  2  0
 10 16  1  0
 11 12  1  0
 12 13  2  0
 13 14  1  0
 14 15  1  0
 14 16  2  0
 16 17  1  0
 17 18  2  0
 19 20  1  0
 19 21  1  0
 21 22  1  0
 24 23  1  0
 24 25  1  0
 24 35  1  0
 25 26  1  0
 26 27  1  0
 26 30  2  0
 27 28  1  0
 27 29  2  0
 28 31  1  0
 28 32  2  0
 29 33  1  0
 30 31  1  0
 32 34  1  0
 33 34  2  0
 35 36  2  0
 35 37  1  0
  5 38  1  0
  5 39  1  0
  6 40  1  6
  8 41  1  1
 12 42  1  0
 15 43  1  0
 15 44  1  0
 18 45  1  0
 19 46  1  6
 20 47  1  0
 21 48  1  6
 22 49  1  0
 23 50  1  0
 23 51  1  0
 23 52  1  0
 24 53  1  6
 25 54  1  0
 25 55  1  0
 29 56  1  0
 30 57  1  0
 31 58  1  0
 32 59  1  0
 33 60  1  0
 34 61  1  0
M  CHG  2   2  -1  23   1
M  END
>  <filename_input>  (24) 
7ELT_TYM_docked.sdf

>  <pdb_id>  (24) 
7ELT_TYM

>  <pose_rank>  (24) 
23

>  <num_atoms_heavy>  (24) 
37

>  <num_torsions>  (24) 
9

>  <pose>  (24) 
[14.548777155248462, 46.029257713999314, 13.490001194453459, -0.6575613816701319, -3.197393170126004, 1.0080884220304829, 4.754843594919826, -1.425004709400371, -0.3468011735403297, -2.1816351222276453, 0.17364617844851307, 3.087873249411244, 0.16175416228252354, -1.742098677512963, 0.8259288928588338]

>  <energy>  (24) 
-680.5136732218708

>  <inter_energy>  (24) 
-716.5474762312035

>  <intra_energy>  (24) 
41.19329376839971

>  <rmsd>  (24) 
9.09593

>  <sdf_rank>  (24) 
0

$$$$

     RDKit          3D

 61 65  0  0  0  0  0  0  0  0999 V2000
    8.3047   45.5396   15.8470 P   0  0  2  0  0  0  0  0  0  0  0  0
    7.1182   45.4984   14.9141 O   0  0  0  0  0  0  0  0  0  0  0  0
    8.6802   46.8092   16.5734 O   0  0  0  0  0  0  0  0  0  0  0  0
    9.5494   44.9887   15.1081 O   0  0  0  0  0  0  0  0  0  0  0  0
   10.6527   45.7659   14.8321 C   0  0  0  0  0  0  0  0  0  0  0  0
   11.6811   45.7746   15.9352 C   0  0  1  0  0  0  0  0  0  0  0  0
   12.9609   46.0177   15.4084 O   0  0  0  0  0  0  0  0  0  0  0  0
   13.5254   47.1491   15.9771 C   0  0  1  0  0  0  0  0  0  0  0  0
   14.3935   47.8562   15.0242 N   0  0  0  0  0  0  0  0  0  0  0  0
   15.5498   48.3917   15.2753 C   0  0  0  0  0  0  0  0  0  0  0  0
   16.3764   48.5150   16.3208 N   0  0  0  0  0  0  0  0  0  0  0  0
   17.4991   49.1668   16.2336 C   0  0  0  0  0  0  0  0  0  0  0  0
   17.9456   49.6623   15.1180 N   0  0  0  0  0  0  0  0  0  0  0  0
   17.2695   49.6477   13.9961 C   0  0  0  0  0  0  0  0  0  0  0  0
   17.7695   50.1871   12.8993 N   0  0  0  0  0  0  0  0  0  0  0  0
   15.9796   48.9795   14.0176 C   0  0  0  0  0  0  0  0  0  0  0  0
   15.0454   48.7448   13.1407 N   0  0  0  0  0  0  0  0  0  0  0  0
   14.0975   48.0744   13.7554 C   0  0  0  0  0  0  0  0  0  0  0  0
   12.3694   47.9876   16.5496 C   0  0  2  0  0  0  0  0  0  0  0  0
   12.7203   48.8545   17.6017 O   0  0  0  0  0  0  0  0  0  0  0  0
   11.4196   46.8775   16.9791 C   0  0  2  0  0  0  0  0  0  0  0  0
   11.6915   46.4862   18.3080 O   0  0  0  0  0  0  0  0  0  0  0  0
    9.9510   41.7068   18.7536 N   0  0  0  0  0  0  0  0  0  0  0  0
    8.8616   42.2101   17.9408 C   0  0  1  0  0  0  0  0  0  0  0  0
    7.6264   42.3620   18.7869 C   0  0  0  0  0  0  0  0  0  0  0  0
    7.1276   41.1562   19.5078 C   0  0  0  0  0  0  0  0  0  0  0  0
    5.7479   40.7256   19.5067 C   0  0  0  0  0  0  0  0  0  0  0  0
    5.6987   39.5714   20.3865 C   0  0  0  0  0  0  0  0  0  0  0  0
    4.6340   41.2021   18.8844 C   0  0  0  0  0  0  0  0  0  0  0  0
    7.7546   40.2801   20.3626 C   0  0  0  0  0  0  0  0  0  0  0  0
    6.9010   39.3815   20.8402 N   0  0  0  0  0  0  0  0  0  0  0  0
    4.4801   38.9520   20.5169 C   0  0  0  0  0  0  0  0  0  0  0  0
    3.4432   40.5337   19.0698 C   0  0  0  0  0  0  0  0  0  0  0  0
    3.3767   39.4309   19.8779 C   0  0  0  0  0  0  0  0  0  0  0  0
    9.2075   43.5727   17.4225 C   0  0  0  0  0  0  0  0  0  0  0  0
   10.2796   43.9945   17.4327 O   0  0  0  0  0  0  0  0  0  0  0  0
    8.1890   44.3658   16.8837 O   0  0  0  0  0  0  0  0  0  0  0  0
   11.1279   45.3816   13.9176 H   0  0  0  0  0  0  0  0  0  0  0  0
   10.2960   46.8002   14.7178 H   0  0  0  0  0  0  0  0  0  0  0  0
   11.6148   44.7869   16.4149 H   0  0  0  0  0  0  0  0  0  0  0  0
   14.2082   46.8968   16.8018 H   0  0  0  0  0  0  0  0  0  0  0  0
   18.0978   49.3050   17.1460 H   0  0  0  0  0  0  0  0  0  0  0  0
   17.2279   50.1691   12.0234 H   0  0  0  0  0  0  0  0  0  0  0  0
   18.7012   50.6259   12.9198 H   0  0  0  0  0  0  0  0  0  0  0  0
   13.1693   47.7357   13.2719 H   0  0  0  0  0  0  0  0  0  0  0  0
   11.9564   48.7089   15.8291 H   0  0  0  0  0  0  0  0  0  0  0  0
   12.5408   48.4110   18.4684 H   0  0  0  0  0  0  0  0  0  0  0  0
   10.3571   47.1619   16.9987 H   0  0  0  0  0  0  0  0  0  0  0  0
   11.2536   47.1163   18.9337 H   0  0  0  0  0  0  0  0  0  0  0  0
    9.7147   41.8160   19.7502 H   0  0  0  0  0  0  0  0  0  0  0  0
   10.1036   40.7100   18.5441 H   0  0  0  0  0  0  0  0  0  0  0  0
   10.8089   42.2369   18.5441 H   0  0  0  0  0  0  0  0  0  0  0  0
    8.6895   41.5049   17.1143 H   0  0  0  0  0  0  0  0  0  0  0  0
    7.8388   43.1323   19.5430 H   0  0  0  0  0  0  0  0  0  0  0  0
    6.8279   42.6084   18.0716 H   0  0  0  0  0  0  0  0  0  0  0  0
    4.6836   42.0988   18.2491 H   0  0  0  0  0  0  0  0  0  0  0  0
    8.8239   40.3185   20.6176 H   0  0  0  0  0  0  0  0  0  0  0  0
    7.1606   38.6264   21.4908 H   0  0  0  0  0  0  0  0  0  0  0  0
    4.3937   38.0547   21.1474 H   0  0  0  0  0  0  0  0  0  0  0  0
    2.5350   40.8909   18.5623 H   0  0  0  0  0  0  0  0  0  0  0  0
    2.4118   38.9206   20.0140 H   0  0  0  0  0  0  0  0  0  0  0  0
  1  2  1  6
  1  3  2  0
  1  4  1  0
  1 37  1  0
  4  5  1  0
  6  5  1  0
  6  7  1  0
  6 21  1  0
  7  8  1  0
  8  9  1  0
  8 19  1  0
  9 10  1  0
  9 18  1  0
 10 11  2  0
 10 16  1  0
 11 12  1  0
 12 13  2  0
 13 14  1  0
 14 15  1  0
 14 16  2  0
 16 17  1  0
 17 18  2  0
 19 20  1  0
 19 21  1  0
 21 22  1  0
 24 23  1  0
 24 25  1  0
 24 35  1  0
 25 26  1  0
 26 27  1  0
 26 30  2  0
 27 28  1  0
 27 29  2  0
 28 31  1  0
 28 32  2  0
 29 33  1  0
 30 31  1  0
 32 34  1  0
 33 34  2  0
 35 36  2  0
 35 37  1  0
  5 38  1  0
  5 39  1  0
  6 40  1  1
  8 41  1  1
 12 42  1  0
 15 43  1  0
 15 44  1  0
 18 45  1  0
 19 46  1  6
 20 47  1  0
 21 48  1  1
 22 49  1  0
 23 50  1  0
 23 51  1  0
 23 52  1  0
 24 53  1  6
 25 54  1  0
 25 55  1  0
 29 56  1  0
 30 57  1  0
 31 58  1  0
 32 59  1  0
 33 60  1  0
 34 61  1  0
M  CHG  2   2  -1  23   1
M  END
>  <filename_input>  (25) 
7ELT_TYM_docked.sdf

>  <pdb_id>  (25) 
7ELT_TYM

>  <pose_rank>  (25) 
24

>  <num_atoms_heavy>  (25) 
37

>  <num_torsions>  (25) 
9

>  <pose>  (25) 
[9.549382103504339, 44.98867268787815, 15.10808673058401, 2.453127274643388, 1.137163827057708, -3.886375183766943, 2.6926777119112866, 3.7232475605201705, 0.6525059285815513, 6.901842008767216, -0.07891523950520507, -0.8532907397056297, -2.0014129842078847, 3.7015755039475238, -0.1889781260030582]

>  <energy>  (25) 
-476.1547546991705

>  <inter_energy>  (25) 
-570.4751822416936

>  <intra_energy>  (25) 
101.32972415443288

>  <rmsd>  (25) 
10.9039

>  <sdf_rank>  (25) 
0

$$$$

     RDKit          3D

 61 65  0  0  0  0  0  0  0  0999 V2000
   12.0410   45.6500   16.0600 P   0  0  2  0  0  0  0  0  0  0  0  0
   12.8650   44.6340   16.8140 O   0  0  0  0  0  0  0  0  0  0  0  0
   10.6460   46.0110   16.5120 O   0  0  0  0  0  0  0  0  0  0  0  0
   12.0060   45.2620   14.5610 O   0  0  0  0  0  0  0  0  0  0  0  0
   13.1010   44.7480   13.9020 C   0  0  0  0  0  0  0  0  0  0  0  0
   13.0610   44.9500   12.4080 C   0  0  1  0  0  0  0  0  0  0  0  0
   11.9210   44.3360   11.8620 O   0  0  0  0  0  0  0  0  0  0  0  0
   11.1320   45.2590   11.1930 C   0  0  1  0  0  0  0  0  0  0  0  0
    9.7050   44.9180   11.2870 N   0  0  0  0  0  0  0  0  0  0  0  0
    8.8660   44.8050   10.3020 C   0  0  0  0  0  0  0  0  0  0  0  0
    8.8900   44.8980    8.9670 N   0  0  0  0  0  0  0  0  0  0  0  0
    7.8150   44.7460    8.2500 C   0  0  0  0  0  0  0  0  0  0  0  0
    6.6680   44.4040    8.7570 N   0  0  0  0  0  0  0  0  0  0  0  0
    6.4520   44.2790   10.0430 C   0  0  0  0  0  0  0  0  0  0  0  0
    5.2570   43.9490   10.4980 N   0  0  0  0  0  0  0  0  0  0  0  0
    7.5920   44.4800   10.9210 C   0  0  0  0  0  0  0  0  0  0  0  0
    7.7870   44.4330   12.2080 N   0  0  0  0  0  0  0  0  0  0  0  0
    9.0560   44.7010   12.4170 C   0  0  0  0  0  0  0  0  0  0  0  0
   11.5060   46.6480   11.7390 C   0  0  2  0  0  0  0  0  0  0  0  0
   11.2510   47.7240   10.8680 O   0  0  0  0  0  0  0  0  0  0  0  0
   12.9890   46.4380   12.0140 C   0  0  2  0  0  0  0  0  0  0  0  0
   13.7510   46.7670   10.8720 O   0  0  0  0  0  0  0  0  0  0  0  0
   14.2100   50.0460   17.3930 N   0  0  0  0  0  0  0  0  0  0  0  0
   14.3070   48.9140   16.4930 C   0  0  1  0  0  0  0  0  0  0  0  0
   15.6430   48.2430   16.6650 C   0  0  0  0  0  0  0  0  0  0  0  0
   16.8630   49.0950   16.5750 C   0  0  0  0  0  0  0  0  0  0  0  0
   17.4970   49.4720   15.3320 C   0  0  0  0  0  0  0  0  0  0  0  0
   18.6790   50.2260   15.7100 C   0  0  0  0  0  0  0  0  0  0  0  0
   17.1830   49.2350   14.0280 C   0  0  0  0  0  0  0  0  0  0  0  0
   17.6890   49.6110   17.5460 C   0  0  0  0  0  0  0  0  0  0  0  0
   18.7160   50.2590   17.0080 N   0  0  0  0  0  0  0  0  0  0  0  0
   19.4360   50.7340   14.6830 C   0  0  0  0  0  0  0  0  0  0  0  0
   17.9950   49.7690   13.0510 C   0  0  0  0  0  0  0  0  0  0  0  0
   19.1030   50.5010   13.3830 C   0  0  0  0  0  0  0  0  0  0  0  0
   13.2600   47.9010   16.8430 C   0  0  0  0  0  0  0  0  0  0  0  0
   12.7390   47.8660   17.8700 O   0  0  0  0  0  0  0  0  0  0  0  0
   12.8810   46.9640   15.8760 O   0  0  0  0  0  0  0  0  0  0  0  0
   14.0040   45.2385   14.2944 H   0  0  0  0  0  0  0  0  0  0  0  0
   13.1016   43.6624   14.0791 H   0  0  0  0  0  0  0  0  0  0  0  0
   13.9910   44.5085   12.0205 H   0  0  0  0  0  0  0  0  0  0  0  0
   11.3224   45.2529   10.1096 H   0  0  0  0  0  0  0  0  0  0  0  0
    7.8798   44.9147    7.1649 H   0  0  0  0  0  0  0  0  0  0  0  0
    5.1000   43.8539   11.5115 H   0  0  0  0  0  0  0  0  0  0  0  0
    4.4819   43.7867    9.8394 H   0  0  0  0  0  0  0  0  0  0  0  0
    9.5219   44.7400   13.4127 H   0  0  0  0  0  0  0  0  0  0  0  0
   10.9036   46.9508   12.6082 H   0  0  0  0  0  0  0  0  0  0  0  0
   11.0580   48.5382   11.3971 H   0  0  0  0  0  0  0  0  0  0  0  0
   13.4064   47.0788   12.8047 H   0  0  0  0  0  0  0  0  0  0  0  0
   14.6223   47.1432   11.1538 H   0  0  0  0  0  0  0  0  0  0  0  0
   14.2385   49.7134   18.3674 H   0  0  0  0  0  0  0  0  0  0  0  0
   14.9992   50.6863   17.2256 H   0  0  0  0  0  0  0  0  0  0  0  0
   13.3234   50.5427   17.2256 H   0  0  0  0  0  0  0  0  0  0  0  0
   14.1772   49.2766   15.4626 H   0  0  0  0  0  0  0  0  0  0  0  0
   15.6466   47.7677   17.6570 H   0  0  0  0  0  0  0  0  0  0  0  0
   15.7207   47.5550   15.8102 H   0  0  0  0  0  0  0  0  0  0  0  0
   16.3026   48.6320   13.7612 H   0  0  0  0  0  0  0  0  0  0  0  0
   17.5210   49.5013   18.6275 H   0  0  0  0  0  0  0  0  0  0  0  0
   19.4519   50.7301   17.5534 H   0  0  0  0  0  0  0  0  0  0  0  0
   20.3254   51.3387   14.9139 H   0  0  0  0  0  0  0  0  0  0  0  0
   17.7497   49.6050   11.9913 H   0  0  0  0  0  0  0  0  0  0  0  0
   19.7378   50.9097   12.5830 H   0  0  0  0  0  0  0  0  0  0  0  0
  1  2  1  1
  1  3  2  0
  1  4  1  0
  1 37  1  0
  4  5  1  0
  6  5  1  0
  6  7  1  0
  6 21  1  0
  7  8  1  0
  8  9  1  0
  8 19  1  0
  9 10  1  0
  9 18  1  0
 10 11  2  0
 10 16  1  0
 11 12  1  0
 12 13  2  0
 13 14  1  0
 14 15  1  0
 14 16  2  0
 16 17  1  0
 17 18  2  0
 19 20  1  0
 19 21  1  0
 21 22  1  0
 24 23  1  0
 24 25  1  0
 24 35  1  0
 25 26  1  0
 26 27  1  0
 26 30  2  0
 27 28  1  0
 27 29  2  0
 28 31  1  0
 28 32  2  0
 29 33  1  0
 30 31  1  0
 32 34  1  0
 33 34  2  0
 35 36  2  0
 35 37  1  0
  5 38  1  0
  5 39  1  0
  6 40  1  6
  8 41  1  6
 12 42  1  0
 15 43  1  0
 15 44  1  0
 18 45  1  0
 19 46  1  1
 20 47  1  0
 21 48  1  1
 22 49  1  0
 23 50  1  0
 23 51  1  0
 23 52  1  0
 24 53  1  6
 25 54  1  0
 25 55  1  0
 29 56  1  0
 30 57  1  0
 31 58  1  0
 32 59  1  0
 33 60  1  0
 34 61  1  0
M  CHG  2   2  -1  23   1
M  END
>  <filename_input>  (26) 
7ELT_TYM_docked.sdf

>  <pdb_id>  (26) 
7ELT_TYM

>  <pose_rank>  (26) 
25

>  <num_atoms_heavy>  (26) 
37

>  <num_torsions>  (26) 
9

>  <pose>  (26) 
[12.006, 45.262, 14.561, 1e-06, 1e-06, 1e-06, 0.0, 0.0, 0.0, 0.0, 0.0, 0.0, 0.0, 0.0, 0.0]

>  <energy>  (26) 
-1250.2932971218802

>  <inter_energy>  (26) 
-1268.17203810853

>  <intra_energy>  (26) 
9.26943864110997

>  <rmsd>  (26) 
0.0

>  <sdf_rank>  (26) 
0

$$$$
