
     RDKit          3D

 86 91  0  0  0  0  0  0  0  0999 V2000
    3.8202  -30.2987   -6.8847 P   0  0  2  0  0  0  0  0  0  0  0  0
    3.2858  -31.6410   -6.6503 O   0  0  0  0  0  0  0  0  0  0  0  0
    3.7562  -29.3818   -5.7644 O   0  0  0  0  0  0  0  0  0  0  0  0
    3.1450  -29.6416   -8.1490 O   0  0  0  0  0  0  0  0  0  0  0  0
    3.9215  -28.8854   -9.0768 C   0  0  0  0  0  0  0  0  0  0  0  0
    3.8595  -29.5617  -10.4205 C   0  0  1  0  0  0  0  0  0  0  0  0
    4.0336  -28.6041  -11.4849 O   0  0  0  0  0  0  0  0  0  0  0  0
    4.9114  -30.6586  -10.6282 C   0  0  1  0  0  0  0  0  0  0  0  0
    4.3440  -31.8342  -11.1627 O   0  0  0  0  0  0  0  0  0  0  0  0
    5.9293  -29.9626  -11.5492 C   0  0  1  0  0  0  0  0  0  0  0  0
    6.6283  -30.8704  -12.3465 O   0  0  0  0  0  0  0  0  0  0  0  0
    5.0258  -29.0557  -12.3756 C   0  0  2  0  0  0  0  0  0  0  0  0
    5.6575  -27.9006  -12.9767 N   0  0  0  0  0  0  0  0  0  0  0  0
    6.5991  -27.0847  -12.4359 C   0  0  0  0  0  0  0  0  0  0  0  0
    6.9170  -26.0680  -13.2003 N   0  0  0  0  0  0  0  0  0  0  0  0
    6.0970  -26.2076  -14.3034 C   0  0  0  0  0  0  0  0  0  0  0  0
    5.9287  -25.4480  -15.4752 C   0  0  0  0  0  0  0  0  0  0  0  0
    6.5923  -24.3315  -15.7280 N   0  0  0  0  0  0  0  0  0  0  0  0
    4.9976  -25.8639  -16.3529 N   0  0  0  0  0  0  0  0  0  0  0  0
    4.3029  -26.9650  -16.0845 C   0  0  0  0  0  0  0  0  0  0  0  0
    4.3962  -27.7593  -15.0326 N   0  0  0  0  0  0  0  0  0  0  0  0
    5.3102  -27.3261  -14.1659 C   0  0  0  0  0  0  0  0  0  0  0  0
    5.2540  -31.5379    0.2994 N   0  0  0  0  0  0  0  0  0  0  0  0
    3.9595  -31.4300    0.3215 C   0  0  0  0  0  0  0  0  0  0  0  0
    3.4010  -30.7302   -0.4691 O   0  0  0  0  0  0  0  0  0  0  0  0
    3.2005  -32.1316    1.2173 N   0  0  0  0  0  0  0  0  0  0  0  0
    3.7622  -32.9592    2.1608 C   0  0  0  0  0  0  0  0  0  0  0  0
    3.0568  -33.5758    2.9366 O   0  0  0  0  0  0  0  0  0  0  0  0
    5.1399  -33.0439    2.1954 C   0  0  0  0  0  0  0  0  0  0  0  0
    5.7100  -33.7887    3.0889 N   0  0  0  0  0  0  0  0  0  0  0  0
    7.0727  -33.7876    3.1310 C   0  0  0  0  0  0  0  0  0  0  0  0
    7.7147  -34.5330    4.1335 C   0  0  0  0  0  0  0  0  0  0  0  0
    9.0773  -34.5373    4.2463 C   0  0  0  0  0  0  0  0  0  0  0  0
    9.7497  -35.3082    5.3540 C   0  0  0  0  0  0  0  0  0  0  0  0
    9.8553  -33.8306    3.2988 C   0  0  0  0  0  0  0  0  0  0  0  0
   11.3541  -33.8526    3.3737 C   0  0  0  0  0  0  0  0  0  0  0  0
    9.2362  -33.1450    2.2753 C   0  0  0  0  0  0  0  0  0  0  0  0
    7.8423  -33.0895    2.1831 C   0  0  0  0  0  0  0  0  0  0  0  0
    7.1755  -32.3639    1.2049 N   0  0  0  0  0  0  0  0  0  0  0  0
    5.8346  -32.2748    1.2026 C   0  0  0  0  0  0  0  0  0  0  0  0
    7.9063  -31.5866    0.1999 C   0  0  0  0  0  0  0  0  0  0  0  0
    8.0363  -32.3703   -1.1021 C   0  0  2  0  0  0  0  0  0  0  0  0
    9.0422  -33.3341   -0.9805 O   0  0  0  0  0  0  0  0  0  0  0  0
    8.3183  -31.4072   -2.2618 C   0  0  2  0  0  0  0  0  0  0  0  0
    8.9146  -30.2245   -1.8161 O   0  0  0  0  0  0  0  0  0  0  0  0
    7.1102  -31.0095   -3.0960 C   0  0  2  0  0  0  0  0  0  0  0  0
    6.3501  -32.1498   -3.4702 O   0  0  0  0  0  0  0  0  0  0  0  0
    7.5636  -30.2726   -4.3388 C   0  0  0  0  0  0  0  0  0  0  0  0
    6.8700  -30.8019   -5.4299 O   0  0  0  0  0  0  0  0  0  0  0  0
    6.6531  -29.9515   -6.7302 P   0  0  1  0  0  0  0  0  0  0  0  0
    6.4464  -28.6010   -6.2663 O   0  0  0  0  0  0  0  0  0  0  0  0
    7.6992  -30.2367   -7.6936 O   0  0  0  0  0  0  0  0  0  0  0  0
    5.3140  -30.5166   -7.3146 O   0  0  0  0  0  0  0  0  0  0  0  0
    3.5149  -27.8663   -9.1560 H   0  0  0  0  0  0  0  0  0  0  0  0
    4.9650  -28.8276   -8.7336 H   0  0  0  0  0  0  0  0  0  0  0  0
    2.8640  -30.0292  -10.4430 H   0  0  0  0  0  0  0  0  0  0  0  0
    5.3803  -31.0253   -9.7032 H   0  0  0  0  0  0  0  0  0  0  0  0
    4.0575  -32.4277  -10.4239 H   0  0  0  0  0  0  0  0  0  0  0  0
    6.7230  -29.4282  -11.0065 H   0  0  0  0  0  0  0  0  0  0  0  0
    7.1189  -31.5074  -11.7689 H   0  0  0  0  0  0  0  0  0  0  0  0
    4.6608  -29.6447  -13.2299 H   0  0  0  0  0  0  0  0  0  0  0  0
    7.0525  -27.2605  -11.4492 H   0  0  0  0  0  0  0  0  0  0  0  0
    6.4239  -23.8198  -16.6059 H   0  0  0  0  0  0  0  0  0  0  0  0
    7.2772  -23.9739  -15.0468 H   0  0  0  0  0  0  0  0  0  0  0  0
    3.5528  -27.2525  -16.8360 H   0  0  0  0  0  0  0  0  0  0  0  0
    5.8097  -31.0506   -0.4179 H   0  0  0  0  0  0  0  0  0  0  0  0
    2.1754  -32.0371    1.1841 H   0  0  0  0  0  0  0  0  0  0  0  0
    5.1553  -34.3598    3.7424 H   0  0  0  0  0  0  0  0  0  0  0  0
    7.1115  -35.1229    4.8394 H   0  0  0  0  0  0  0  0  0  0  0  0
    9.4124  -34.9215    6.3270 H   0  0  0  0  0  0  0  0  0  0  0  0
    9.4869  -36.3731    5.2716 H   0  0  0  0  0  0  0  0  0  0  0  0
   10.8405  -35.1923    5.2716 H   0  0  0  0  0  0  0  0  0  0  0  0
   11.6686  -33.8572    4.4277 H   0  0  0  0  0  0  0  0  0  0  0  0
   11.7330  -34.7564    2.8740 H   0  0  0  0  0  0  0  0  0  0  0  0
   11.7593  -32.9603    2.8740 H   0  0  0  0  0  0  0  0  0  0  0  0
    9.8491  -32.6331    1.5188 H   0  0  0  0  0  0  0  0  0  0  0  0
    7.3639  -30.6498    0.0042 H   0  0  0  0  0  0  0  0  0  0  0  0
    8.9143  -31.3724    0.5845 H   0  0  0  0  0  0  0  0  0  0  0  0
    7.0920  -32.8929   -1.3148 H   0  0  0  0  0  0  0  0  0  0  0  0
    9.2210  -33.5054   -0.0220 H   0  0  0  0  0  0  0  0  0  0  0  0
    8.9916  -31.9930   -2.9049 H   0  0  0  0  0  0  0  0  0  0  0  0
    8.9214  -30.2111   -0.8262 H   0  0  0  0  0  0  0  0  0  0  0  0
    6.4738  -30.3516   -2.4859 H   0  0  0  0  0  0  0  0  0  0  0  0
    6.0372  -32.6192   -2.6567 H   0  0  0  0  0  0  0  0  0  0  0  0
    7.3409  -29.2000   -4.2392 H   0  0  0  0  0  0  0  0  0  0  0  0
    8.6479  -30.3916   -4.4802 H   0  0  0  0  0  0  0  0  0  0  0  0
  1  2  2  0
  1  3  1  1
  1  4  1  0
  1 53  1  0
  4  5  1  0
  6  5  1  0
  6  7  1  0
  6  8  1  0
  7 12  1  0
  8  9  1  0
  8 10  1  0
 10 11  1  0
 10 12  1  0
 12 13  1  0
 13 14  1  0
 13 22  1  0
 14 15  2  0
 15 16  1  0
 16 17  2  0
 16 22  1  0
 17 18  1  0
 17 19  1  0
 19 20  2  0
 20 21  1  0
 21 22  2  0
 23 24  1  0
 23 40  1  0
 24 25  2  0
 24 26  1  0
 26 27  1  0
 27 28  2  0
 27 29  1  0
 29 30  1  0
 29 40  2  0
 30 31  1  0
 31 32  2  0
 31 38  1  0
 32 33  1  0
 33 34  1  0
 33 35  2  0
 35 36  1  0
 35 37  1  0
 37 38  2  0
 38 39  1  0
 39 40  1  0
 39 41  1  0
 41 42  1  0
 42 43  1  0
 42 44  1  0
 44 45  1  0
 44 46  1  0
 46 47  1  0
 46 48  1  0
 48 49  1  0
 49 50  1  0
 50 51  2  0
 50 52  1  6
 50 53  1  0
  5 54  1  0
  5 55  1  0
  6 56  1  6
  8 57  1  1
  9 58  1  0
 10 59  1  1
 11 60  1  0
 12 61  1  6
 14 62  1  0
 18 63  1  0
 18 64  1  0
 20 65  1  0
 23 66  1  0
 26 67  1  0
 30 68  1  0
 32 69  1  0
 34 70  1  0
 34 71  1  0
 34 72  1  0
 36 73  1  0
 36 74  1  0
 36 75  1  0
 37 76  1  0
 41 77  1  0
 41 78  1  0
 42 79  1  6
 43 80  1  0
 44 81  1  6
 45 82  1  0
 46 83  1  1
 47 84  1  0
 48 85  1  0
 48 86  1  0
M  CHG  2   3  -1  52  -1
M  END
>  <filename_input>  (1) 
7EPV_FDA_docked.sdf

>  <pdb_id>  (1) 
7EPV_FDA

>  <pose_rank>  (1) 
0

>  <num_atoms_heavy>  (1) 
53

>  <num_torsions>  (1) 
13

>  <pose>  (1) 
[6.8699639538434205, -30.801881834980527, -5.429908075466843, 5.504588256289796, 2.453111545973354, 1.5877996045676763, 2.4448291538843994, 0.24301250625249007, -5.673350129611214, -1.7838720793054696, -0.7660598415598866, -0.34067643371746814, 0.051486388656389034, -0.7996868064487762, -0.785070748002486, 0.15301139522895513, 1.4448506399050909, -0.4083985375412302, -0.2327691829612781]

>  <energy>  (1) 
-1069.678422069344

>  <inter_energy>  (1) 
-1087.419610231542

>  <intra_energy>  (1) 
25.20853495817532

>  <rmsd>  (1) 
2.89986

>  <sdf_rank>  (1) 
0

$$$$

     RDKit          3D

 86 91  0  0  0  0  0  0  0  0999 V2000
    4.2462  -30.5967   -4.3062 P   0  0  2  0  0  0  0  0  0  0  0  0
    3.9882  -29.1564   -4.3375 O   0  0  0  0  0  0  0  0  0  0  0  0
    3.0781  -31.4537   -4.2741 O   0  0  0  0  0  0  0  0  0  0  0  0
    5.2096  -30.9658   -3.1139 O   0  0  0  0  0  0  0  0  0  0  0  0
    4.9558  -32.1118   -2.3026 C   0  0  0  0  0  0  0  0  0  0  0  0
    4.2122  -31.6733   -1.0691 C   0  0  1  0  0  0  0  0  0  0  0  0
    4.5192  -32.5334    0.0473 O   0  0  0  0  0  0  0  0  0  0  0  0
    4.5131  -30.2366   -0.6237 C   0  0  1  0  0  0  0  0  0  0  0  0
    3.3330  -29.5199   -0.3344 O   0  0  0  0  0  0  0  0  0  0  0  0
    5.4403  -30.4582    0.5844 C   0  0  1  0  0  0  0  0  0  0  0  0
    5.3734  -29.4085    1.5021 O   0  0  0  0  0  0  0  0  0  0  0  0
    4.8882  -31.7560    1.1613 C   0  0  2  0  0  0  0  0  0  0  0  0
    5.7991  -32.5317    1.9758 N   0  0  0  0  0  0  0  0  0  0  0  0
    5.5177  -33.2531    3.0916 C   0  0  0  0  0  0  0  0  0  0  0  0
    6.5756  -33.7819    3.6577 N   0  0  0  0  0  0  0  0  0  0  0  0
    7.6285  -33.3434    2.8781 C   0  0  0  0  0  0  0  0  0  0  0  0
    9.0197  -33.5378    2.9488 C   0  0  0  0  0  0  0  0  0  0  0  0
    9.6159  -34.2367    3.9010 N   0  0  0  0  0  0  0  0  0  0  0  0
    9.7771  -32.9266    2.0196 N   0  0  0  0  0  0  0  0  0  0  0  0
    9.1839  -32.1931    1.0830 C   0  0  0  0  0  0  0  0  0  0  0  0
    7.8935  -31.9646    0.9132 N   0  0  0  0  0  0  0  0  0  0  0  0
    7.1584  -32.5628    1.8492 C   0  0  0  0  0  0  0  0  0  0  0  0
    4.4683  -27.7606  -14.0539 N   0  0  0  0  0  0  0  0  0  0  0  0
    4.1008  -27.4352  -15.2568 C   0  0  0  0  0  0  0  0  0  0  0  0
    3.1960  -28.0091  -15.7848 O   0  0  0  0  0  0  0  0  0  0  0  0
    4.7074  -26.4150  -15.9364 N   0  0  0  0  0  0  0  0  0  0  0  0
    5.7555  -25.7030  -15.4027 C   0  0  0  0  0  0  0  0  0  0  0  0
    6.2662  -24.7953  -16.0312 O   0  0  0  0  0  0  0  0  0  0  0  0
    6.2028  -26.0700  -14.1490 C   0  0  0  0  0  0  0  0  0  0  0  0
    7.2080  -25.4446  -13.6230 N   0  0  0  0  0  0  0  0  0  0  0  0
    7.6600  -25.8862  -12.4150 C   0  0  0  0  0  0  0  0  0  0  0  0
    8.7908  -25.2697  -11.8543 C   0  0  0  0  0  0  0  0  0  0  0  0
    9.3099  -25.6971  -10.6639 C   0  0  0  0  0  0  0  0  0  0  0  0
   10.5495  -25.0533  -10.0960 C   0  0  0  0  0  0  0  0  0  0  0  0
    8.6599  -26.7350   -9.9548 C   0  0  0  0  0  0  0  0  0  0  0  0
    9.1838  -27.1952   -8.6257 C   0  0  0  0  0  0  0  0  0  0  0  0
    7.5147  -27.3056  -10.4682 C   0  0  0  0  0  0  0  0  0  0  0  0
    7.0068  -26.9133  -11.7103 C   0  0  0  0  0  0  0  0  0  0  0  0
    5.8913  -27.4999  -12.2928 N   0  0  0  0  0  0  0  0  0  0  0  0
    5.4860  -27.1449  -13.5239 C   0  0  0  0  0  0  0  0  0  0  0  0
    5.1740  -28.5957  -11.6349 C   0  0  0  0  0  0  0  0  0  0  0  0
    5.9612  -29.8980  -11.7385 C   0  0  2  0  0  0  0  0  0  0  0  0
    5.6071  -30.5779  -12.9081 O   0  0  0  0  0  0  0  0  0  0  0  0
    5.7112  -30.7563  -10.4923 C   0  0  2  0  0  0  0  0  0  0  0  0
    4.6297  -30.2794   -9.7467 O   0  0  0  0  0  0  0  0  0  0  0  0
    6.8872  -30.8877   -9.5365 C   0  0  2  0  0  0  0  0  0  0  0  0
    7.4668  -32.1822   -9.6148 O   0  0  0  0  0  0  0  0  0  0  0  0
    6.4288  -30.6225   -8.1179 C   0  0  0  0  0  0  0  0  0  0  0  0
    6.4297  -31.8391   -7.4310 O   0  0  0  0  0  0  0  0  0  0  0  0
    5.2684  -32.2004   -6.4401 P   0  0  1  0  0  0  0  0  0  0  0  0
    4.1078  -32.3939   -7.2752 O   0  0  0  0  0  0  0  0  0  0  0  0
    5.6940  -33.2493   -5.5332 O   0  0  0  0  0  0  0  0  0  0  0  0
    5.0940  -30.8940   -5.5934 O   0  0  0  0  0  0  0  0  0  0  0  0
    4.3471  -32.8357   -2.8642 H   0  0  0  0  0  0  0  0  0  0  0  0
    5.9056  -32.5884   -2.0187 H   0  0  0  0  0  0  0  0  0  0  0  0
    3.1521  -31.7308   -1.3568 H   0  0  0  0  0  0  0  0  0  0  0  0
    4.9857  -29.6076   -1.3925 H   0  0  0  0  0  0  0  0  0  0  0  0
    3.2206  -29.4516    0.6468 H   0  0  0  0  0  0  0  0  0  0  0  0
    6.5070  -30.5049    0.3200 H   0  0  0  0  0  0  0  0  0  0  0  0
    5.3966  -29.7728    2.4224 H   0  0  0  0  0  0  0  0  0  0  0  0
    4.0679  -31.4900    1.8442 H   0  0  0  0  0  0  0  0  0  0  0  0
    4.4980  -33.3816    3.4837 H   0  0  0  0  0  0  0  0  0  0  0  0
   10.6405  -34.3427    3.8974 H   0  0  0  0  0  0  0  0  0  0  0  0
    9.0555  -34.6748    4.6459 H   0  0  0  0  0  0  0  0  0  0  0  0
    9.8545  -31.7140    0.3545 H   0  0  0  0  0  0  0  0  0  0  0  0
    3.9649  -28.4908  -13.5300 H   0  0  0  0  0  0  0  0  0  0  0  0
    4.3682  -26.1724  -16.8782 H   0  0  0  0  0  0  0  0  0  0  0  0
    7.6487  -24.6446  -14.0990 H   0  0  0  0  0  0  0  0  0  0  0  0
    9.2663  -24.4295  -12.3816 H   0  0  0  0  0  0  0  0  0  0  0  0
   10.5043  -25.0768   -8.9972 H   0  0  0  0  0  0  0  0  0  0  0  0
   11.4382  -25.6038  -10.4383 H   0  0  0  0  0  0  0  0  0  0  0  0
   10.6103  -24.0097  -10.4383 H   0  0  0  0  0  0  0  0  0  0  0  0
    8.6218  -26.7015   -7.8192 H   0  0  0  0  0  0  0  0  0  0  0  0
    9.0639  -28.2854   -8.5420 H   0  0  0  0  0  0  0  0  0  0  0  0
   10.2495  -26.9360   -8.5420 H   0  0  0  0  0  0  0  0  0  0  0  0
    6.9918  -28.0825   -9.8910 H   0  0  0  0  0  0  0  0  0  0  0  0
    5.0286  -28.3457  -10.5736 H   0  0  0  0  0  0  0  0  0  0  0  0
    4.2026  -28.7305  -12.1332 H   0  0  0  0  0  0  0  0  0  0  0  0
    7.0374  -29.6763  -11.7895 H   0  0  0  0  0  0  0  0  0  0  0  0
    5.1631  -31.4308  -12.6724 H   0  0  0  0  0  0  0  0  0  0  0  0
    5.5130  -31.7507  -10.9188 H   0  0  0  0  0  0  0  0  0  0  0  0
    4.8299  -30.3677   -8.7812 H   0  0  0  0  0  0  0  0  0  0  0  0
    7.6479  -30.1474   -9.8252 H   0  0  0  0  0  0  0  0  0  0  0  0
    7.6224  -32.5299   -8.7010 H   0  0  0  0  0  0  0  0  0  0  0  0
    7.1165  -29.9169   -7.6288 H   0  0  0  0  0  0  0  0  0  0  0  0
    5.4203  -30.1833   -8.1172 H   0  0  0  0  0  0  0  0  0  0  0  0
  1  2  2  0
  1  3  1  6
  1  4  1  0
  1 53  1  0
  4  5  1  0
  6  5  1  0
  6  7  1  0
  6  8  1  0
  7 12  1  0
  8  9  1  0
  8 10  1  0
 10 11  1  0
 10 12  1  0
 12 13  1  0
 13 14  1  0
 13 22  1  0
 14 15  2  0
 15 16  1  0
 16 17  2  0
 16 22  1  0
 17 18  1  0
 17 19  1  0
 19 20  2  0
 20 21  1  0
 21 22  2  0
 23 24  1  0
 23 40  1  0
 24 25  2  0
 24 26  1  0
 26 27  1  0
 27 28  2  0
 27 29  1  0
 29 30  1  0
 29 40  2  0
 30 31  1  0
 31 32  2  0
 31 38  1  0
 32 33  1  0
 33 34  1  0
 33 35  2  0
 35 36  1  0
 35 37  1  0
 37 38  2  0
 38 39  1  0
 39 40  1  0
 39 41  1  0
 41 42  1  0
 42 43  1  0
 42 44  1  0
 44 45  1  0
 44 46  1  0
 46 47  1  0
 46 48  1  0
 48 49  1  0
 49 50  1  0
 50 51  2  0
 50 52  1  1
 50 53  1  0
  5 54  1  0
  5 55  1  0
  6 56  1  6
  8 57  1  6
  9 58  1  0
 10 59  1  6
 11 60  1  0
 12 61  1  1
 14 62  1  0
 18 63  1  0
 18 64  1  0
 20 65  1  0
 23 66  1  0
 26 67  1  0
 30 68  1  0
 32 69  1  0
 34 70  1  0
 34 71  1  0
 34 72  1  0
 36 73  1  0
 36 74  1  0
 36 75  1  0
 37 76  1  0
 41 77  1  0
 41 78  1  0
 42 79  1  6
 43 80  1  0
 44 81  1  6
 45 82  1  0
 46 83  1  6
 47 84  1  0
 48 85  1  0
 48 86  1  0
M  CHG  2   3  -1  52  -1
M  END
>  <filename_input>  (2) 
7EPV_FDA_docked.sdf

>  <pdb_id>  (2) 
7EPV_FDA

>  <pose_rank>  (2) 
1

>  <num_atoms_heavy>  (2) 
53

>  <num_torsions>  (2) 
13

>  <pose>  (2) 
[6.429657732918422, -31.839112738685483, -7.431040701862155, 0.7084023929802615, -3.6292939862704654, -1.7592165979012355, 23.129731328900878, 8.492581155141048, 37.779749622665754, -84.92520178590978, 52.04524542252584, 138.8958429067637, 40.94814300917137, -18.510865011394472, 23.9020059198975, -32.282843286395746, -30.170504200454566, -44.595439315165336, -22.091431091616546]

>  <energy>  (2) 
-853.172004338768

>  <inter_energy>  (2) 
-889.9978406039144

>  <intra_energy>  (2) 
35.92105075773766

>  <rmsd>  (2) 
14.2867

>  <sdf_rank>  (2) 
0

$$$$

     RDKit          3D

 86 91  0  0  0  0  0  0  0  0999 V2000
    2.9841  -29.9149   -6.7851 P   0  0  2  0  0  0  0  0  0  0  0  0
    2.3765  -31.2397   -6.9188 O   0  0  0  0  0  0  0  0  0  0  0  0
    2.3962  -29.0407   -5.7901 O   0  0  0  0  0  0  0  0  0  0  0  0
    3.0310  -29.1787   -8.1786 O   0  0  0  0  0  0  0  0  0  0  0  0
    4.2464  -29.1085   -8.9228 C   0  0  0  0  0  0  0  0  0  0  0  0
    4.0086  -29.6937  -10.2895 C   0  0  1  0  0  0  0  0  0  0  0  0
    4.0945  -28.6738  -11.3057 O   0  0  0  0  0  0  0  0  0  0  0  0
    4.9910  -30.8036  -10.6844 C   0  0  1  0  0  0  0  0  0  0  0  0
    4.3255  -31.9255  -11.2213 O   0  0  0  0  0  0  0  0  0  0  0  0
    5.9217  -30.0776  -11.6720 C   0  0  1  0  0  0  0  0  0  0  0  0
    6.4934  -30.9506  -12.5992 O   0  0  0  0  0  0  0  0  0  0  0  0
    4.9629  -29.0939  -12.3311 C   0  0  2  0  0  0  0  0  0  0  0  0
    5.5626  -27.9200  -12.9288 N   0  0  0  0  0  0  0  0  0  0  0  0
    6.4513  -27.0575  -12.3710 C   0  0  0  0  0  0  0  0  0  0  0  0
    6.7486  -26.0376  -13.1394 N   0  0  0  0  0  0  0  0  0  0  0  0
    5.9696  -26.2262  -14.2648 C   0  0  0  0  0  0  0  0  0  0  0  0
    5.8050  -25.4892  -15.4513 C   0  0  0  0  0  0  0  0  0  0  0  0
    6.4276  -24.3482  -15.6993 N   0  0  0  0  0  0  0  0  0  0  0  0
    4.9201  -25.9559  -16.3510 N   0  0  0  0  0  0  0  0  0  0  0  0
    4.2653  -27.0827  -16.0886 C   0  0  0  0  0  0  0  0  0  0  0  0
    4.3602  -27.8590  -15.0235 N   0  0  0  0  0  0  0  0  0  0  0  0
    5.2277  -27.3759  -14.1356 C   0  0  0  0  0  0  0  0  0  0  0  0
   12.6561  -30.2476   -8.0618 N   0  0  0  0  0  0  0  0  0  0  0  0
   13.8159  -30.8155   -8.2044 C   0  0  0  0  0  0  0  0  0  0  0  0
   14.1067  -31.7637   -7.5387 O   0  0  0  0  0  0  0  0  0  0  0  0
   14.7170  -30.3734   -9.1334 N   0  0  0  0  0  0  0  0  0  0  0  0
   14.4627  -29.2896   -9.9403 C   0  0  0  0  0  0  0  0  0  0  0  0
   15.2831  -28.9287  -10.7627 O   0  0  0  0  0  0  0  0  0  0  0  0
   13.2607  -28.6330   -9.7657 C   0  0  0  0  0  0  0  0  0  0  0  0
   12.9951  -27.5886  -10.4846 N   0  0  0  0  0  0  0  0  0  0  0  0
   11.8284  -26.9309  -10.2299 C   0  0  0  0  0  0  0  0  0  0  0  0
   11.5483  -25.7567  -10.9482 C   0  0  0  0  0  0  0  0  0  0  0  0
   10.4116  -25.0362  -10.7068 C   0  0  0  0  0  0  0  0  0  0  0  0
   10.1458  -23.7549  -11.4558 C   0  0  0  0  0  0  0  0  0  0  0  0
    9.4721  -25.5156   -9.7633 C   0  0  0  0  0  0  0  0  0  0  0  0
    8.1963  -24.7671   -9.5091 C   0  0  0  0  0  0  0  0  0  0  0  0
    9.7099  -26.6988   -9.0968 C   0  0  0  0  0  0  0  0  0  0  0  0
   10.8942  -27.4146   -9.2965 C   0  0  0  0  0  0  0  0  0  0  0  0
   11.2022  -28.5786   -8.6051 N   0  0  0  0  0  0  0  0  0  0  0  0
   12.3874  -29.1897   -8.7721 C   0  0  0  0  0  0  0  0  0  0  0  0
   10.2940  -29.1297   -7.5953 C   0  0  0  0  0  0  0  0  0  0  0  0
   10.3748  -28.3294   -6.2994 C   0  0  2  0  0  0  0  0  0  0  0  0
   11.3171  -28.9048   -5.4412 O   0  0  0  0  0  0  0  0  0  0  0  0
    8.9892  -28.2586   -5.6457 C   0  0  2  0  0  0  0  0  0  0  0  0
    9.0123  -28.7431   -4.3352 O   0  0  0  0  0  0  0  0  0  0  0  0
    7.8787  -28.9997   -6.3746 C   0  0  2  0  0  0  0  0  0  0  0  0
    6.9596  -28.0909   -6.9641 O   0  0  0  0  0  0  0  0  0  0  0  0
    7.1457  -29.9066   -5.4087 C   0  0  0  0  0  0  0  0  0  0  0  0
    6.7666  -31.0581   -6.1031 O   0  0  0  0  0  0  0  0  0  0  0  0
    5.2655  -31.5123   -6.1420 P   0  0  1  0  0  0  0  0  0  0  0  0
    5.1685  -32.3935   -7.2804 O   0  0  0  0  0  0  0  0  0  0  0  0
    4.8483  -31.9707   -4.8307 O   0  0  0  0  0  0  0  0  0  0  0  0
    4.4916  -30.1832   -6.4396 O   0  0  0  0  0  0  0  0  0  0  0  0
    4.5616  -28.0591   -9.0190 H   0  0  0  0  0  0  0  0  0  0  0  0
    5.0364  -29.6725   -8.4054 H   0  0  0  0  0  0  0  0  0  0  0  0
    3.0012  -30.1308  -10.2257 H   0  0  0  0  0  0  0  0  0  0  0  0
    5.5485  -31.2429   -9.8441 H   0  0  0  0  0  0  0  0  0  0  0  0
    3.9886  -32.4935  -10.4838 H   0  0  0  0  0  0  0  0  0  0  0  0
    6.7901  -29.6022  -11.1927 H   0  0  0  0  0  0  0  0  0  0  0  0
    6.9683  -31.6756  -12.1206 H   0  0  0  0  0  0  0  0  0  0  0  0
    4.4828  -29.6154  -13.1723 H   0  0  0  0  0  0  0  0  0  0  0  0
    6.8812  -27.2012  -11.3688 H   0  0  0  0  0  0  0  0  0  0  0  0
    6.2645  -23.8554  -16.5889 H   0  0  0  0  0  0  0  0  0  0  0  0
    7.0752  -23.9530  -15.0028 H   0  0  0  0  0  0  0  0  0  0  0  0
    3.5517  -27.4117  -16.8583 H   0  0  0  0  0  0  0  0  0  0  0  0
   11.9633  -30.6263   -7.4004 H   0  0  0  0  0  0  0  0  0  0  0  0
   15.6150  -30.8682   -9.2317 H   0  0  0  0  0  0  0  0  0  0  0  0
   13.6405  -27.2674  -11.2203 H   0  0  0  0  0  0  0  0  0  0  0  0
   12.2548  -25.4112  -11.7173 H   0  0  0  0  0  0  0  0  0  0  0  0
    9.9765  -22.9388  -10.7379 H   0  0  0  0  0  0  0  0  0  0  0  0
   11.0129  -23.5131  -12.0880 H   0  0  0  0  0  0  0  0  0  0  0  0
    9.2541  -23.8779  -12.0880 H   0  0  0  0  0  0  0  0  0  0  0  0
    8.0362  -24.6731   -8.4249 H   0  0  0  0  0  0  0  0  0  0  0  0
    8.2634  -23.7651   -9.9580 H   0  0  0  0  0  0  0  0  0  0  0  0
    7.3544  -25.3144   -9.9580 H   0  0  0  0  0  0  0  0  0  0  0  0
    8.9554  -27.0861   -8.3962 H   0  0  0  0  0  0  0  0  0  0  0  0
    9.2635  -29.0924   -7.9784 H   0  0  0  0  0  0  0  0  0  0  0  0
   10.5877  -30.1690   -7.3867 H   0  0  0  0  0  0  0  0  0  0  0  0
   10.7011  -27.3021   -6.5190 H   0  0  0  0  0  0  0  0  0  0  0  0
   11.0506  -28.7420   -4.5017 H   0  0  0  0  0  0  0  0  0  0  0  0
    8.7573  -27.1840   -5.6853 H   0  0  0  0  0  0  0  0  0  0  0  0
    8.9760  -27.9832   -3.7017 H   0  0  0  0  0  0  0  0  0  0  0  0
    8.3354  -29.6010   -7.1745 H   0  0  0  0  0  0  0  0  0  0  0  0
    6.4707  -27.6075   -6.2518 H   0  0  0  0  0  0  0  0  0  0  0  0
    7.8082  -30.1756   -4.5728 H   0  0  0  0  0  0  0  0  0  0  0  0
    6.2604  -29.3964   -5.0013 H   0  0  0  0  0  0  0  0  0  0  0  0
  1  2  2  0
  1  3  1  1
  1  4  1  0
  1 53  1  0
  4  5  1  0
  6  5  1  0
  6  7  1  0
  6  8  1  0
  7 12  1  0
  8  9  1  0
  8 10  1  0
 10 11  1  0
 10 12  1  0
 12 13  1  0
 13 14  1  0
 13 22  1  0
 14 15  2  0
 15 16  1  0
 16 17  2  0
 16 22  1  0
 17 18  1  0
 17 19  1  0
 19 20  2  0
 20 21  1  0
 21 22  2  0
 23 24  1  0
 23 40  1  0
 24 25  2  0
 24 26  1  0
 26 27  1  0
 27 28  2  0
 27 29  1  0
 29 30  1  0
 29 40  2  0
 30 31  1  0
 31 32  2  0
 31 38  1  0
 32 33  1  0
 33 34  1  0
 33 35  2  0
 35 36  1  0
 35 37  1  0
 37 38  2  0
 38 39  1  0
 39 40  1  0
 39 41  1  0
 41 42  1  0
 42 43  1  0
 42 44  1  0
 44 45  1  0
 44 46  1  0
 46 47  1  0
 46 48  1  0
 48 49  1  0
 49 50  1  0
 50 51  2  0
 50 52  1  1
 50 53  1  0
  5 54  1  0
  5 55  1  0
  6 56  1  1
  8 57  1  1
  9 58  1  0
 10 59  1  1
 11 60  1  0
 12 61  1  6
 14 62  1  0
 18 63  1  0
 18 64  1  0
 20 65  1  0
 23 66  1  0
 26 67  1  0
 30 68  1  0
 32 69  1  0
 34 70  1  0
 34 71  1  0
 34 72  1  0
 36 73  1  0
 36 74  1  0
 36 75  1  0
 37 76  1  0
 41 77  1  0
 41 78  1  0
 42 79  1  6
 43 80  1  0
 44 81  1  1
 45 82  1  0
 46 83  1  6
 47 84  1  0
 48 85  1  0
 48 86  1  0
M  CHG  2   3  -1  52  -1
M  END
>  <filename_input>  (3) 
7EPV_FDA_docked.sdf

>  <pdb_id>  (3) 
7EPV_FDA

>  <pose_rank>  (3) 
2

>  <num_atoms_heavy>  (3) 
53

>  <num_torsions>  (3) 
13

>  <pose>  (3) 
[6.766556715966923, -31.05808607548915, -6.103081127110105, 0.27225680356626203, 0.9688380098928925, 1.3609828300815554, -6.690672466849316, -4.378173548545321, -3.598374754841838, -1.1393864954800477, -0.6659161606951725, -1.0340830282028064, -0.12898315997031579, 6.876431333310343, 0.6321941962790268, 5.368076867518173, 3.1831117773445112, 11.898654284379571, 9.29807378771854]

>  <energy>  (3) 
-895.835624818389

>  <inter_energy>  (3) 
-903.0957298965566

>  <intra_energy>  (3) 
17.296142246103646

>  <rmsd>  (3) 
9.39007

>  <sdf_rank>  (3) 
0

$$$$

     RDKit          3D

 86 91  0  0  0  0  0  0  0  0999 V2000
    3.7342  -30.6227   -2.8445 P   0  0  2  0  0  0  0  0  0  0  0  0
    5.1781  -30.4600   -3.0203 O   0  0  0  0  0  0  0  0  0  0  0  0
    3.0294  -29.4921   -2.2746 O   0  0  0  0  0  0  0  0  0  0  0  0
    3.4159  -31.9228   -2.0113 O   0  0  0  0  0  0  0  0  0  0  0  0
    4.3944  -32.4834   -1.1372 C   0  0  0  0  0  0  0  0  0  0  0  0
    4.4855  -31.6257    0.0968 C   0  0  1  0  0  0  0  0  0  0  0  0
    4.5274  -32.4411    1.2858 O   0  0  0  0  0  0  0  0  0  0  0  0
    5.7121  -30.7057    0.1411 C   0  0  1  0  0  0  0  0  0  0  0  0
    5.3655  -29.3877    0.5055 O   0  0  0  0  0  0  0  0  0  0  0  0
    6.6251  -31.4292    1.1468 C   0  0  1  0  0  0  0  0  0  0  0  0
    7.4892  -30.5514    1.8034 O   0  0  0  0  0  0  0  0  0  0  0  0
    5.6067  -32.0450    2.0983 C   0  0  2  0  0  0  0  0  0  0  0  0
    6.0529  -33.1955    2.8547 N   0  0  0  0  0  0  0  0  0  0  0  0
    7.1530  -33.9628    2.6411 C   0  0  0  0  0  0  0  0  0  0  0  0
    7.2437  -34.9903    3.4504 N   0  0  0  0  0  0  0  0  0  0  0  0
    6.1014  -34.9112    4.2235 C   0  0  0  0  0  0  0  0  0  0  0  0
    5.5888  -35.7103    5.2612 C   0  0  0  0  0  0  0  0  0  0  0  0
    6.1781  -36.8108    5.7000 N   0  0  0  0  0  0  0  0  0  0  0  0
    4.4044  -35.3521    5.7896 N   0  0  0  0  0  0  0  0  0  0  0  0
    3.7915  -34.2675    5.3256 C   0  0  0  0  0  0  0  0  0  0  0  0
    4.1925  -33.4399    4.3768 N   0  0  0  0  0  0  0  0  0  0  0  0
    5.3579  -33.8162    3.8529 C   0  0  0  0  0  0  0  0  0  0  0  0
    7.4435  -28.7841   -9.2431 N   0  0  0  0  0  0  0  0  0  0  0  0
    8.4295  -28.4054   -8.4866 C   0  0  0  0  0  0  0  0  0  0  0  0
    8.6231  -28.9428   -7.4376 O   0  0  0  0  0  0  0  0  0  0  0  0
    9.2882  -27.4149   -8.8768 N   0  0  0  0  0  0  0  0  0  0  0  0
    9.1380  -26.7449  -10.0680 C   0  0  0  0  0  0  0  0  0  0  0  0
    9.9256  -25.8750  -10.3882 O   0  0  0  0  0  0  0  0  0  0  0  0
    8.0620  -27.0890  -10.8618 C   0  0  0  0  0  0  0  0  0  0  0  0
    7.8669  -26.4608  -11.9778 N   0  0  0  0  0  0  0  0  0  0  0  0
    6.7538  -26.7851  -12.6949 C   0  0  0  0  0  0  0  0  0  0  0  0
    6.4825  -26.0716  -13.8740 C   0  0  0  0  0  0  0  0  0  0  0  0
    5.3606  -26.3288  -14.6120 C   0  0  0  0  0  0  0  0  0  0  0  0
    5.0612  -25.5252  -15.8522 C   0  0  0  0  0  0  0  0  0  0  0  0
    4.4922  -27.3735  -14.2155 C   0  0  0  0  0  0  0  0  0  0  0  0
    3.2761  -27.7052  -15.0301 C   0  0  0  0  0  0  0  0  0  0  0  0
    4.7819  -28.1191  -13.0926 C   0  0  0  0  0  0  0  0  0  0  0  0
    5.8972  -27.8288  -12.3010 C   0  0  0  0  0  0  0  0  0  0  0  0
    6.1955  -28.5143  -11.1310 N   0  0  0  0  0  0  0  0  0  0  0  0
    7.2338  -28.1485  -10.3602 C   0  0  0  0  0  0  0  0  0  0  0  0
    5.3357  -29.5943  -10.6387 C   0  0  0  0  0  0  0  0  0  0  0  0
    6.1002  -30.9129  -10.5828 C   0  0  2  0  0  0  0  0  0  0  0  0
    6.0828  -31.5281  -11.8385 O   0  0  0  0  0  0  0  0  0  0  0  0
    5.4935  -31.8194   -9.5047 C   0  0  2  0  0  0  0  0  0  0  0  0
    4.2143  -32.2566   -9.8591 O   0  0  0  0  0  0  0  0  0  0  0  0
    5.3862  -31.2094   -8.1155 C   0  0  2  0  0  0  0  0  0  0  0  0
    5.6156  -32.1860   -7.1097 O   0  0  0  0  0  0  0  0  0  0  0  0
    4.0130  -30.5998   -7.9262 C   0  0  0  0  0  0  0  0  0  0  0  0
    3.4994  -31.0647   -6.7130 O   0  0  0  0  0  0  0  0  0  0  0  0
    3.1010  -30.0614   -5.5747 P   0  0  1  0  0  0  0  0  0  0  0  0
    4.1557  -29.0769   -5.5549 O   0  0  0  0  0  0  0  0  0  0  0  0
    1.7211  -29.6449   -5.7367 O   0  0  0  0  0  0  0  0  0  0  0  0
    3.1750  -30.9362   -4.2773 O   0  0  0  0  0  0  0  0  0  0  0  0
    4.0987  -33.5052   -0.8569 H   0  0  0  0  0  0  0  0  0  0  0  0
    5.3712  -32.5203   -1.6416 H   0  0  0  0  0  0  0  0  0  0  0  0
    3.5836  -30.9972    0.0573 H   0  0  0  0  0  0  0  0  0  0  0  0
    6.2088  -30.5566   -0.8290 H   0  0  0  0  0  0  0  0  0  0  0  0
    5.3458  -29.3127    1.4925 H   0  0  0  0  0  0  0  0  0  0  0  0
    7.3019  -32.1612    0.6819 H   0  0  0  0  0  0  0  0  0  0  0  0
    7.3855  -30.6567    2.7823 H   0  0  0  0  0  0  0  0  0  0  0  0
    5.3705  -31.2892    2.8618 H   0  0  0  0  0  0  0  0  0  0  0  0
    7.8980  -33.7427    1.8623 H   0  0  0  0  0  0  0  0  0  0  0  0
    5.7517  -37.3535    6.4645 H   0  0  0  0  0  0  0  0  0  0  0  0
    7.0632  -37.1247    5.2769 H   0  0  0  0  0  0  0  0  0  0  0  0
    2.8247  -34.0278    5.7923 H   0  0  0  0  0  0  0  0  0  0  0  0
    6.8398  -29.5709   -8.9649 H   0  0  0  0  0  0  0  0  0  0  0  0
   10.0724  -27.1628   -8.2585 H   0  0  0  0  0  0  0  0  0  0  0  0
    8.5274  -25.7438  -12.3105 H   0  0  0  0  0  0  0  0  0  0  0  0
    7.1840  -25.2934  -14.2092 H   0  0  0  0  0  0  0  0  0  0  0  0
    4.6906  -24.5305  -15.5641 H   0  0  0  0  0  0  0  0  0  0  0  0
    5.9789  -25.4160  -16.4487 H   0  0  0  0  0  0  0  0  0  0  0  0
    4.2957  -26.0431  -16.4487 H   0  0  0  0  0  0  0  0  0  0  0  0
    2.4359  -27.9343  -14.3580 H   0  0  0  0  0  0  0  0  0  0  0  0
    3.0141  -26.8457  -15.6646 H   0  0  0  0  0  0  0  0  0  0  0  0
    3.4868  -28.5786  -15.6646 H   0  0  0  0  0  0  0  0  0  0  0  0
    4.1247  -28.9564  -12.8149 H   0  0  0  0  0  0  0  0  0  0  0  0
    4.9803  -29.3404   -9.6290 H   0  0  0  0  0  0  0  0  0  0  0  0
    4.4850  -29.7089  -11.3265 H   0  0  0  0  0  0  0  0  0  0  0  0
    7.1497  -30.7206  -10.3155 H   0  0  0  0  0  0  0  0  0  0  0  0
    6.0551  -32.5111  -11.7240 H   0  0  0  0  0  0  0  0  0  0  0  0
    6.2141  -32.6488   -9.4519 H   0  0  0  0  0  0  0  0  0  0  0  0
    3.6883  -32.4364   -9.0400 H   0  0  0  0  0  0  0  0  0  0  0  0
    6.1550  -30.4279   -8.0239 H   0  0  0  0  0  0  0  0  0  0  0  0
    5.5178  -31.7695   -6.2169 H   0  0  0  0  0  0  0  0  0  0  0  0
    4.0912  -29.5029   -7.9030 H   0  0  0  0  0  0  0  0  0  0  0  0
    3.3502  -30.8843   -8.7567 H   0  0  0  0  0  0  0  0  0  0  0  0
  1  2  2  0
  1  3  1  1
  1  4  1  0
  1 53  1  0
  4  5  1  0
  6  5  1  0
  6  7  1  0
  6  8  1  0
  7 12  1  0
  8  9  1  0
  8 10  1  0
 10 11  1  0
 10 12  1  0
 12 13  1  0
 13 14  1  0
 13 22  1  0
 14 15  2  0
 15 16  1  0
 16 17  2  0
 16 22  1  0
 17 18  1  0
 17 19  1  0
 19 20  2  0
 20 21  1  0
 21 22  2  0
 23 24  1  0
 23 40  1  0
 24 25  2  0
 24 26  1  0
 26 27  1  0
 27 28  2  0
 27 29  1  0
 29 30  1  0
 29 40  2  0
 30 31  1  0
 31 32  2  0
 31 38  1  0
 32 33  1  0
 33 34  1  0
 33 35  2  0
 35 36  1  0
 35 37  1  0
 37 38  2  0
 38 39  1  0
 39 40  1  0
 39 41  1  0
 41 42  1  0
 42 43  1  0
 42 44  1  0
 44 45  1  0
 44 46  1  0
 46 47  1  0
 46 48  1  0
 48 49  1  0
 49 50  1  0
 50 51  2  0
 50 52  1  6
 50 53  1  0
  5 54  1  0
  5 55  1  0
  6 56  1  1
  8 57  1  6
  9 58  1  0
 10 59  1  6
 11 60  1  0
 12 61  1  1
 14 62  1  0
 18 63  1  0
 18 64  1  0
 20 65  1  0
 23 66  1  0
 26 67  1  0
 30 68  1  0
 32 69  1  0
 34 70  1  0
 34 71  1  0
 34 72  1  0
 36 73  1  0
 36 74  1  0
 36 75  1  0
 37 76  1  0
 41 77  1  0
 41 78  1  0
 42 79  1  1
 43 80  1  0
 44 81  1  1
 45 82  1  0
 46 83  1  6
 47 84  1  0
 48 85  1  0
 48 86  1  0
M  CHG  2   3  -1  52  -1
M  END
>  <filename_input>  (4) 
7EPV_FDA_docked.sdf

>  <pdb_id>  (4) 
7EPV_FDA

>  <pose_rank>  (4) 
3

>  <num_atoms_heavy>  (4) 
53

>  <num_torsions>  (4) 
13

>  <pose>  (4) 
[3.49943933071369, -31.064730455751285, -6.713009781928462, 0.48175301055374914, 2.275546569761519, -0.06439383950199969, 58.89678983845956, 7.612194908303565, -42.360630056257385, -68.06591189820426, -89.482571695763, -38.329564703857926, 13.059477825954707, 17.444449012458488, -57.391019588932046, -89.48906017417413, -54.33903416080368, 12.04692125361999, 56.67835566218939]

>  <energy>  (4) 
-817.6334634731608

>  <inter_energy>  (4) 
-867.9324175540316

>  <intra_energy>  (4) 
53.744247307886305

>  <rmsd>  (4) 
14.367

>  <sdf_rank>  (4) 
0

$$$$

     RDKit          3D

 86 91  0  0  0  0  0  0  0  0999 V2000
    8.9936  -30.1709   -7.4454 P   0  0  2  0  0  0  0  0  0  0  0  0
    9.9520  -29.2356   -8.0360 O   0  0  0  0  0  0  0  0  0  0  0  0
    9.3705  -31.5699   -7.4681 O   0  0  0  0  0  0  0  0  0  0  0  0
    7.5676  -29.9936   -8.0942 O   0  0  0  0  0  0  0  0  0  0  0  0
    7.2266  -30.6796   -9.2980 C   0  0  0  0  0  0  0  0  0  0  0  0
    5.8544  -30.2375   -9.7319 C   0  0  1  0  0  0  0  0  0  0  0  0
    5.9152  -28.9627  -10.4038 O   0  0  0  0  0  0  0  0  0  0  0  0
    5.1446  -31.2110  -10.6813 C   0  0  1  0  0  0  0  0  0  0  0  0
    3.8127  -31.4526  -10.2842 O   0  0  0  0  0  0  0  0  0  0  0  0
    5.2895  -30.5035  -12.0403 C   0  0  1  0  0  0  0  0  0  0  0  0
    4.2637  -30.8414  -12.9247 O   0  0  0  0  0  0  0  0  0  0  0  0
    5.2295  -29.0370  -11.6311 C   0  0  2  0  0  0  0  0  0  0  0  0
    5.8327  -28.0927  -12.5471 N   0  0  0  0  0  0  0  0  0  0  0  0
    6.9478  -27.3402  -12.3604 C   0  0  0  0  0  0  0  0  0  0  0  0
    7.1968  -26.5135  -13.3471 N   0  0  0  0  0  0  0  0  0  0  0  0
    6.1484  -26.7122  -14.2247 C   0  0  0  0  0  0  0  0  0  0  0  0
    5.8110  -26.1343  -15.4618 C   0  0  0  0  0  0  0  0  0  0  0  0
    6.5162  -25.1763  -16.0413 N   0  0  0  0  0  0  0  0  0  0  0  0
    4.6748  -26.5514  -16.0494 N   0  0  0  0  0  0  0  0  0  0  0  0
    3.9443  -27.4875  -15.4517 C   0  0  0  0  0  0  0  0  0  0  0  0
    4.1795  -28.1081  -14.3090 N   0  0  0  0  0  0  0  0  0  0  0  0
    5.2985  -27.6734  -13.7319 C   0  0  0  0  0  0  0  0  0  0  0  0
    7.3541  -34.4860   -6.0532 N   0  0  0  0  0  0  0  0  0  0  0  0
    7.6963  -35.1208   -7.1339 C   0  0  0  0  0  0  0  0  0  0  0  0
    8.6062  -35.8944   -7.1140 O   0  0  0  0  0  0  0  0  0  0  0  0
    7.0132  -34.9521   -8.3067 N   0  0  0  0  0  0  0  0  0  0  0  0
    5.9542  -34.0821   -8.4170 C   0  0  0  0  0  0  0  0  0  0  0  0
    5.3629  -33.9633   -9.4734 O   0  0  0  0  0  0  0  0  0  0  0  0
    5.6098  -33.3518   -7.2970 C   0  0  0  0  0  0  0  0  0  0  0  0
    4.6375  -32.4986   -7.3671 N   0  0  0  0  0  0  0  0  0  0  0  0
    4.3780  -31.7497   -6.2579 C   0  0  0  0  0  0  0  0  0  0  0  0
    3.3741  -30.7698   -6.3285 C   0  0  0  0  0  0  0  0  0  0  0  0
    3.0978  -29.9644   -5.2587 C   0  0  0  0  0  0  0  0  0  0  0  0
    2.0467  -28.8885   -5.3638 C   0  0  0  0  0  0  0  0  0  0  0  0
    3.7907  -30.1641   -4.0411 C   0  0  0  0  0  0  0  0  0  0  0  0
    3.4780  -29.3225   -2.8384 C   0  0  0  0  0  0  0  0  0  0  0  0
    4.7357  -31.1633   -3.9440 C   0  0  0  0  0  0  0  0  0  0  0  0
    5.0641  -31.9562   -5.0477 C   0  0  0  0  0  0  0  0  0  0  0  0
    6.0494  -32.9339   -5.0124 N   0  0  0  0  0  0  0  0  0  0  0  0
    6.3860  -33.6175   -6.1194 C   0  0  0  0  0  0  0  0  0  0  0  0
    6.8288  -33.1887   -3.7976 C   0  0  0  0  0  0  0  0  0  0  0  0
    8.0200  -32.2403   -3.7091 C   0  0  2  0  0  0  0  0  0  0  0  0
    9.1863  -32.9006   -4.1079 O   0  0  0  0  0  0  0  0  0  0  0  0
    8.1439  -31.6944   -2.2812 C   0  0  2  0  0  0  0  0  0  0  0  0
    7.0979  -32.1378   -1.4674 O   0  0  0  0  0  0  0  0  0  0  0  0
    8.1923  -30.1791   -2.1575 C   0  0  2  0  0  0  0  0  0  0  0  0
    7.3166  -29.7217   -1.1368 O   0  0  0  0  0  0  0  0  0  0  0  0
    7.8086  -29.5431   -3.4770 C   0  0  0  0  0  0  0  0  0  0  0  0
    8.7598  -28.5644   -3.7756 O   0  0  0  0  0  0  0  0  0  0  0  0
    9.5753  -28.6220   -5.1146 P   0  0  1  0  0  0  0  0  0  0  0  0
    9.4097  -27.3192   -5.7122 O   0  0  0  0  0  0  0  0  0  0  0  0
   10.9057  -29.1440   -4.8669 O   0  0  0  0  0  0  0  0  0  0  0  0
    8.8054  -29.6904   -5.9630 O   0  0  0  0  0  0  0  0  0  0  0  0
    7.9589  -30.4377  -10.0823 H   0  0  0  0  0  0  0  0  0  0  0  0
    7.2339  -31.7660   -9.1258 H   0  0  0  0  0  0  0  0  0  0  0  0
    5.2780  -30.1854   -8.7965 H   0  0  0  0  0  0  0  0  0  0  0  0
    5.5701  -32.2252  -10.7004 H   0  0  0  0  0  0  0  0  0  0  0  0
    3.7597  -31.4622   -9.2957 H   0  0  0  0  0  0  0  0  0  0  0  0
    6.2042  -30.7780  -12.5861 H   0  0  0  0  0  0  0  0  0  0  0  0
    3.4595  -31.1063  -12.4116 H   0  0  0  0  0  0  0  0  0  0  0  0
    4.1687  -28.7477  -11.5975 H   0  0  0  0  0  0  0  0  0  0  0  0
    7.5825  -27.4171  -11.4652 H   0  0  0  0  0  0  0  0  0  0  0  0
    6.2164  -24.7936  -16.9494 H   0  0  0  0  0  0  0  0  0  0  0  0
    7.3650  -24.8134  -15.5844 H   0  0  0  0  0  0  0  0  0  0  0  0
    3.0243  -27.7842  -15.9766 H   0  0  0  0  0  0  0  0  0  0  0  0
    7.8386  -34.6660   -5.1623 H   0  0  0  0  0  0  0  0  0  0  0  0
    7.3012  -35.4942   -9.1338 H   0  0  0  0  0  0  0  0  0  0  0  0
    4.0820  -32.3902   -8.2276 H   0  0  0  0  0  0  0  0  0  0  0  0
    2.8009  -30.6483   -7.2595 H   0  0  0  0  0  0  0  0  0  0  0  0
    1.7405  -28.5751   -4.3548 H   0  0  0  0  0  0  0  0  0  0  0  0
    2.4587  -28.0250   -5.9066 H   0  0  0  0  0  0  0  0  0  0  0  0
    1.1739  -29.2803   -5.9066 H   0  0  0  0  0  0  0  0  0  0  0  0
    3.6911  -29.8960   -1.9242 H   0  0  0  0  0  0  0  0  0  0  0  0
    4.0988  -28.4146   -2.8547 H   0  0  0  0  0  0  0  0  0  0  0  0
    2.4150  -29.0402   -2.8547 H   0  0  0  0  0  0  0  0  0  0  0  0
    5.2396  -31.3396   -2.9822 H   0  0  0  0  0  0  0  0  0  0  0  0
    6.1844  -33.0414   -2.9183 H   0  0  0  0  0  0  0  0  0  0  0  0
    7.2030  -34.2227   -3.8293 H   0  0  0  0  0  0  0  0  0  0  0  0
    7.8654  -31.3884   -4.3875 H   0  0  0  0  0  0  0  0  0  0  0  0
    9.6933  -33.1875   -3.3075 H   0  0  0  0  0  0  0  0  0  0  0  0
    9.1175  -32.0887   -1.9547 H   0  0  0  0  0  0  0  0  0  0  0  0
    7.3513  -32.0304   -0.5164 H   0  0  0  0  0  0  0  0  0  0  0  0
    9.2195  -29.8896   -1.8908 H   0  0  0  0  0  0  0  0  0  0  0  0
    7.7076  -29.9260   -0.2505 H   0  0  0  0  0  0  0  0  0  0  0  0
    7.7957  -30.3057   -4.2696 H   0  0  0  0  0  0  0  0  0  0  0  0
    6.8065  -29.0947   -3.4088 H   0  0  0  0  0  0  0  0  0  0  0  0
  1  2  2  0
  1  3  1  1
  1  4  1  0
  1 53  1  0
  4  5  1  0
  6  5  1  0
  6  7  1  0
  6  8  1  0
  7 12  1  0
  8  9  1  0
  8 10  1  0
 10 11  1  0
 10 12  1  0
 12 13  1  0
 13 14  1  0
 13 22  1  0
 14 15  2  0
 15 16  1  0
 16 17  2  0
 16 22  1  0
 17 18  1  0
 17 19  1  0
 19 20  2  0
 20 21  1  0
 21 22  2  0
 23 24  1  0
 23 40  1  0
 24 25  2  0
 24 26  1  0
 26 27  1  0
 27 28  2  0
 27 29  1  0
 29 30  1  0
 29 40  2  0
 30 31  1  0
 31 32  2  0
 31 38  1  0
 32 33  1  0
 33 34  1  0
 33 35  2  0
 35 36  1  0
 35 37  1  0
 37 38  2  0
 38 39  1  0
 39 40  1  0
 39 41  1  0
 41 42  1  0
 42 43  1  0
 42 44  1  0
 44 45  1  0
 44 46  1  0
 46 47  1  0
 46 48  1  0
 48 49  1  0
 49 50  1  0
 50 51  2  0
 50 52  1  1
 50 53  1  0
  5 54  1  0
  5 55  1  0
  6 56  1  1
  8 57  1  6
  9 58  1  0
 10 59  1  6
 11 60  1  0
 12 61  1  1
 14 62  1  0
 18 63  1  0
 18 64  1  0
 20 65  1  0
 23 66  1  0
 26 67  1  0
 30 68  1  0
 32 69  1  0
 34 70  1  0
 34 71  1  0
 34 72  1  0
 36 73  1  0
 36 74  1  0
 36 75  1  0
 37 76  1  0
 41 77  1  0
 41 78  1  0
 42 79  1  6
 43 80  1  0
 44 81  1  1
 45 82  1  0
 46 83  1  1
 47 84  1  0
 48 85  1  0
 48 86  1  0
M  CHG  2   3  -1  52  -1
M  END
>  <filename_input>  (5) 
7EPV_FDA_docked.sdf

>  <pdb_id>  (5) 
7EPV_FDA

>  <pose_rank>  (5) 
4

>  <num_atoms_heavy>  (5) 
53

>  <num_torsions>  (5) 
13

>  <pose>  (5) 
[8.759815494146826, -28.56440147145518, -3.7756473162879938, -0.6141850572037731, -0.9404767749014299, 2.994758808767738, -13.536527100743607, -4.32524108310386, -22.516670499787555, -4.139154801395461, -24.74178844292675, -14.170352876462143, -1.2080544520942857, -1.378966640297094, 0.8613824138477161, 3.3255676715744444, 0.9522480834447614, -0.8159516038381648, 2.8587230819558984]

>  <energy>  (5) 
-740.3408068283329

>  <inter_energy>  (5) 
-779.6079928472944

>  <intra_energy>  (5) 
45.84013953130822

>  <rmsd>  (5) 
7.09021

>  <sdf_rank>  (5) 
0

$$$$

     RDKit          3D

 86 91  0  0  0  0  0  0  0  0999 V2000
    2.7582  -29.9901   -3.5959 P   0  0  2  0  0  0  0  0  0  0  0  0
    2.2647  -28.6355   -3.3434 O   0  0  0  0  0  0  0  0  0  0  0  0
    2.0620  -30.7422   -4.6203 O   0  0  0  0  0  0  0  0  0  0  0  0
    2.8028  -30.8263   -2.2600 O   0  0  0  0  0  0  0  0  0  0  0  0
    3.6145  -31.9956   -2.1614 C   0  0  0  0  0  0  0  0  0  0  0  0
    4.3584  -31.9565   -0.8531 C   0  0  1  0  0  0  0  0  0  0  0  0
    5.6722  -32.5352   -0.9930 O   0  0  0  0  0  0  0  0  0  0  0  0
    4.5481  -30.5494   -0.2726 C   0  0  1  0  0  0  0  0  0  0  0  0
    4.2171  -30.4991    1.0977 O   0  0  0  0  0  0  0  0  0  0  0  0
    6.0282  -30.2658   -0.5848 C   0  0  1  0  0  0  0  0  0  0  0  0
    6.5970  -29.3678    0.3199 O   0  0  0  0  0  0  0  0  0  0  0  0
    6.6389  -31.6568   -0.4678 C   0  0  2  0  0  0  0  0  0  0  0  0
    7.8817  -31.8709   -1.1779 N   0  0  0  0  0  0  0  0  0  0  0  0
    8.0746  -31.9646   -2.5190 C   0  0  0  0  0  0  0  0  0  0  0  0
    9.3106  -32.2448   -2.8551 N   0  0  0  0  0  0  0  0  0  0  0  0
    9.9648  -32.3819   -1.6460 C   0  0  0  0  0  0  0  0  0  0  0  0
   11.2937  -32.6915   -1.3047 C   0  0  0  0  0  0  0  0  0  0  0  0
   12.2376  -32.9554   -2.1936 N   0  0  0  0  0  0  0  0  0  0  0  0
   11.5923  -32.7737    0.0047 N   0  0  0  0  0  0  0  0  0  0  0  0
   10.6373  -32.5454    0.9007 C   0  0  0  0  0  0  0  0  0  0  0  0
    9.3720  -32.2278    0.6900 N   0  0  0  0  0  0  0  0  0  0  0  0
    9.0880  -32.1659   -0.6099 C   0  0  0  0  0  0  0  0  0  0  0  0
    4.6479  -28.2072  -14.0469 N   0  0  0  0  0  0  0  0  0  0  0  0
    3.9974  -27.7863  -15.0898 C   0  0  0  0  0  0  0  0  0  0  0  0
    3.2616  -28.5219  -15.6766 O   0  0  0  0  0  0  0  0  0  0  0  0
    4.1058  -26.4939  -15.5243 N   0  0  0  0  0  0  0  0  0  0  0  0
    4.9293  -25.5821  -14.9072 C   0  0  0  0  0  0  0  0  0  0  0  0
    4.9949  -24.4378  -15.3145 O   0  0  0  0  0  0  0  0  0  0  0  0
    5.6762  -26.0226  -13.8327 C   0  0  0  0  0  0  0  0  0  0  0  0
    6.4876  -25.2033  -13.2423 N   0  0  0  0  0  0  0  0  0  0  0  0
    7.2561  -25.6996  -12.2316 C   0  0  0  0  0  0  0  0  0  0  0  0
    8.1928  -24.8500  -11.6201 C   0  0  0  0  0  0  0  0  0  0  0  0
    9.0160  -25.3052  -10.6279 C   0  0  0  0  0  0  0  0  0  0  0  0
   10.0457  -24.3927  -10.0109 C   0  0  0  0  0  0  0  0  0  0  0  0
    8.8782  -26.6357  -10.1662 C   0  0  0  0  0  0  0  0  0  0  0  0
    9.7398  -27.1490   -9.0496 C   0  0  0  0  0  0  0  0  0  0  0  0
    7.9207  -27.4594  -10.7191 C   0  0  0  0  0  0  0  0  0  0  0  0
    7.1111  -27.0206  -11.7711 C   0  0  0  0  0  0  0  0  0  0  0  0
    6.1749  -27.8330  -12.3969 N   0  0  0  0  0  0  0  0  0  0  0  0
    5.4748  -27.3929  -13.4562 C   0  0  0  0  0  0  0  0  0  0  0  0
    5.9855  -29.2295  -11.9944 C   0  0  0  0  0  0  0  0  0  0  0  0
    4.6321  -29.4193  -11.3171 C   0  0  2  0  0  0  0  0  0  0  0  0
    4.0685  -28.1746  -11.0197 O   0  0  0  0  0  0  0  0  0  0  0  0
    4.7984  -30.2764  -10.0562 C   0  0  2  0  0  0  0  0  0  0  0  0
    3.8869  -31.3354  -10.0291 O   0  0  0  0  0  0  0  0  0  0  0  0
    4.6605  -29.5366   -8.7343 C   0  0  2  0  0  0  0  0  0  0  0  0
    5.9034  -28.9823   -8.3271 O   0  0  0  0  0  0  0  0  0  0  0  0
    4.1532  -30.4825   -7.6662 C   0  0  0  0  0  0  0  0  0  0  0  0
    4.1507  -29.7960   -6.4495 O   0  0  0  0  0  0  0  0  0  0  0  0
    5.0635  -30.2651   -5.2630 P   0  0  1  0  0  0  0  0  0  0  0  0
    5.0728  -31.7058   -5.3424 O   0  0  0  0  0  0  0  0  0  0  0  0
    6.3132  -29.5288   -5.2732 O   0  0  0  0  0  0  0  0  0  0  0  0
    4.2669  -29.8145   -3.9917 O   0  0  0  0  0  0  0  0  0  0  0  0
    2.9784  -32.8923   -2.1991 H   0  0  0  0  0  0  0  0  0  0  0  0
    4.3280  -32.0288   -2.9980 H   0  0  0  0  0  0  0  0  0  0  0  0
    3.7239  -32.5321   -0.1631 H   0  0  0  0  0  0  0  0  0  0  0  0
    3.8852  -29.7834   -0.7012 H   0  0  0  0  0  0  0  0  0  0  0  0
    5.0361  -30.6237    1.6398 H   0  0  0  0  0  0  0  0  0  0  0  0
    6.1897  -29.7876   -1.5622 H   0  0  0  0  0  0  0  0  0  0  0  0
    6.4077  -29.6665    1.2446 H   0  0  0  0  0  0  0  0  0  0  0  0
    6.8961  -31.8155    0.5899 H   0  0  0  0  0  0  0  0  0  0  0  0
    7.2695  -31.8192   -3.2542 H   0  0  0  0  0  0  0  0  0  0  0  0
   13.1936  -33.1756   -1.8797 H   0  0  0  0  0  0  0  0  0  0  0  0
   12.0164  -32.9408   -3.1995 H   0  0  0  0  0  0  0  0  0  0  0  0
   10.9396  -32.6322    1.9548 H   0  0  0  0  0  0  0  0  0  0  0  0
    4.5123  -29.1655  -13.6945 H   0  0  0  0  0  0  0  0  0  0  0  0
    3.5529  -26.1942  -16.3399 H   0  0  0  0  0  0  0  0  0  0  0  0
    6.5497  -24.2149  -13.5255 H   0  0  0  0  0  0  0  0  0  0  0  0
    8.2652  -23.8015  -11.9448 H   0  0  0  0  0  0  0  0  0  0  0  0
    9.9784  -24.4523   -8.9145 H   0  0  0  0  0  0  0  0  0  0  0  0
   11.0505  -24.7022  -10.3340 H   0  0  0  0  0  0  0  0  0  0  0  0
    9.8592  -23.3579  -10.3340 H   0  0  0  0  0  0  0  0  0  0  0  0
    9.2874  -26.8795   -8.0838 H   0  0  0  0  0  0  0  0  0  0  0  0
    9.8221  -28.2434   -9.1233 H   0  0  0  0  0  0  0  0  0  0  0  0
   10.7414  -26.7002   -9.1233 H   0  0  0  0  0  0  0  0  0  0  0  0
    7.7916  -28.4786  -10.3260 H   0  0  0  0  0  0  0  0  0  0  0  0
    6.0358  -29.8717  -12.8860 H   0  0  0  0  0  0  0  0  0  0  0  0
    6.7777  -29.5013  -11.2814 H   0  0  0  0  0  0  0  0  0  0  0  0
    3.9480  -29.9455  -11.9992 H   0  0  0  0  0  0  0  0  0  0  0  0
    4.0174  -28.0618  -10.0375 H   0  0  0  0  0  0  0  0  0  0  0  0
    5.8378  -30.6273  -10.1371 H   0  0  0  0  0  0  0  0  0  0  0  0
    3.6835  -31.5717   -9.0894 H   0  0  0  0  0  0  0  0  0  0  0  0
    3.9421  -28.7154   -8.8744 H   0  0  0  0  0  0  0  0  0  0  0  0
    5.9478  -28.9625   -7.3383 H   0  0  0  0  0  0  0  0  0  0  0  0
    3.1326  -30.8108   -7.9120 H   0  0  0  0  0  0  0  0  0  0  0  0
    4.7992  -31.3706   -7.6032 H   0  0  0  0  0  0  0  0  0  0  0  0
  1  2  2  0
  1  3  1  6
  1  4  1  0
  1 53  1  0
  4  5  1  0
  6  5  1  0
  6  7  1  0
  6  8  1  0
  7 12  1  0
  8  9  1  0
  8 10  1  0
 10 11  1  0
 10 12  1  0
 12 13  1  0
 13 14  1  0
 13 22  1  0
 14 15  2  0
 15 16  1  0
 16 17  2  0
 16 22  1  0
 17 18  1  0
 17 19  1  0
 19 20  2  0
 20 21  1  0
 21 22  2  0
 23 24  1  0
 23 40  1  0
 24 25  2  0
 24 26  1  0
 26 27  1  0
 27 28  2  0
 27 29  1  0
 29 30  1  0
 29 40  2  0
 30 31  1  0
 31 32  2  0
 31 38  1  0
 32 33  1  0
 33 34  1  0
 33 35  2  0
 35 36  1  0
 35 37  1  0
 37 38  2  0
 38 39  1  0
 39 40  1  0
 39 41  1  0
 41 42  1  0
 42 43  1  0
 42 44  1  0
 44 45  1  0
 44 46  1  0
 46 47  1  0
 46 48  1  0
 48 49  1  0
 49 50  1  0
 50 51  2  0
 50 52  1  6
 50 53  1  0
  5 54  1  0
  5 55  1  0
  6 56  1  1
  8 57  1  6
  9 58  1  0
 10 59  1  6
 11 60  1  0
 12 61  1  1
 14 62  1  0
 18 63  1  0
 18 64  1  0
 20 65  1  0
 23 66  1  0
 26 67  1  0
 30 68  1  0
 32 69  1  0
 34 70  1  0
 34 71  1  0
 34 72  1  0
 36 73  1  0
 36 74  1  0
 36 75  1  0
 37 76  1  0
 41 77  1  0
 41 78  1  0
 42 79  1  6
 43 80  1  0
 44 81  1  6
 45 82  1  0
 46 83  1  6
 47 84  1  0
 48 85  1  0
 48 86  1  0
M  CHG  2   3  -1  52  -1
M  END
>  <filename_input>  (6) 
7EPV_FDA_docked.sdf

>  <pdb_id>  (6) 
7EPV_FDA

>  <pose_rank>  (6) 
5

>  <num_atoms_heavy>  (6) 
53

>  <num_torsions>  (6) 
13

>  <pose>  (6) 
[4.1506668184904125, -29.795975864105944, -6.449451252969084, 2.669016534083759, 0.43108494950813053, -1.0325885255726532, 102.98394518650538, -12.816689297868303, -68.49602937729243, -228.34907574472615, -119.85548045345922, -74.64606532230248, 37.20538960373216, 88.69346665092147, 18.78411698155408, -94.77020366040432, -126.9083380247074, -68.38059259825651, -31.416704115722716]

>  <energy>  (6) 
-777.2819083186808

>  <inter_energy>  (6) 
-831.8978191523737

>  <intra_energy>  (6) 
52.617800847763604

>  <rmsd>  (6) 
13.4508

>  <sdf_rank>  (6) 
0

$$$$

     RDKit          3D

 86 91  0  0  0  0  0  0  0  0999 V2000
   11.0018  -29.7739   -5.1930 P   0  0  2  0  0  0  0  0  0  0  0  0
   11.1263  -29.6451   -6.6456 O   0  0  0  0  0  0  0  0  0  0  0  0
   11.9858  -30.6139   -4.5403 O   0  0  0  0  0  0  0  0  0  0  0  0
    9.5512  -30.2477   -4.7965 O   0  0  0  0  0  0  0  0  0  0  0  0
    8.6010  -30.5979   -5.8017 C   0  0  0  0  0  0  0  0  0  0  0  0
    7.5682  -31.5078   -5.1917 C   0  0  1  0  0  0  0  0  0  0  0  0
    6.3165  -30.8143   -5.0116 O   0  0  0  0  0  0  0  0  0  0  0  0
    7.2680  -32.7680   -6.0131 C   0  0  1  0  0  0  0  0  0  0  0  0
    7.2646  -33.9280   -5.2105 O   0  0  0  0  0  0  0  0  0  0  0  0
    5.9092  -32.4253   -6.6493 C   0  0  1  0  0  0  0  0  0  0  0  0
    5.1558  -33.5655   -6.9339 O   0  0  0  0  0  0  0  0  0  0  0  0
    5.2665  -31.5742   -5.5611 C   0  0  2  0  0  0  0  0  0  0  0  0
    4.2248  -30.6663   -5.9917 N   0  0  0  0  0  0  0  0  0  0  0  0
    4.0060  -30.1735   -7.2383 C   0  0  0  0  0  0  0  0  0  0  0  0
    3.0275  -29.3027   -7.2961 N   0  0  0  0  0  0  0  0  0  0  0  0
    2.6008  -29.1891   -5.9870 C   0  0  0  0  0  0  0  0  0  0  0  0
    1.6016  -28.4166   -5.3680 C   0  0  0  0  0  0  0  0  0  0  0  0
    0.8339  -27.5546   -6.0147 N   0  0  0  0  0  0  0  0  0  0  0  0
    1.4688  -28.5323   -4.0341 N   0  0  0  0  0  0  0  0  0  0  0  0
    2.2636  -29.3702   -3.3759 C   0  0  0  0  0  0  0  0  0  0  0  0
    3.2122  -30.1532   -3.8590 N   0  0  0  0  0  0  0  0  0  0  0  0
    3.3423  -30.0159   -5.1775 C   0  0  0  0  0  0  0  0  0  0  0  0
    7.8316  -25.0879  -14.0354 N   0  0  0  0  0  0  0  0  0  0  0  0
    7.3943  -24.4583  -15.0844 C   0  0  0  0  0  0  0  0  0  0  0  0
    7.9722  -23.4957  -15.4920 O   0  0  0  0  0  0  0  0  0  0  0  0
    6.2918  -24.8916  -15.7682 N   0  0  0  0  0  0  0  0  0  0  0  0
    5.5686  -25.9902  -15.3677 C   0  0  0  0  0  0  0  0  0  0  0  0
    4.5981  -26.3536  -16.0047 O   0  0  0  0  0  0  0  0  0  0  0  0
    5.9793  -26.6405  -14.2211 C   0  0  0  0  0  0  0  0  0  0  0  0
    5.3073  -27.6617  -13.7924 N   0  0  0  0  0  0  0  0  0  0  0  0
    5.7073  -28.2292  -12.6192 C   0  0  0  0  0  0  0  0  0  0  0  0
    4.9552  -29.2947  -12.0973 C   0  0  0  0  0  0  0  0  0  0  0  0
    5.2883  -29.8761  -10.9055 C   0  0  0  0  0  0  0  0  0  0  0  0
    4.4461  -30.9904  -10.3375 C   0  0  0  0  0  0  0  0  0  0  0  0
    6.4459  -29.4396  -10.2186 C   0  0  0  0  0  0  0  0  0  0  0  0
    6.8585  -30.0884   -8.9297 C   0  0  0  0  0  0  0  0  0  0  0  0
    7.2243  -28.4349  -10.7531 C   0  0  0  0  0  0  0  0  0  0  0  0
    6.8625  -27.7969  -11.9434 C   0  0  0  0  0  0  0  0  0  0  0  0
    7.5832  -26.7423  -12.4877 N   0  0  0  0  0  0  0  0  0  0  0  0
    7.1539  -26.1075  -13.5915 C   0  0  0  0  0  0  0  0  0  0  0  0
    8.7810  -26.2153  -11.8276 C   0  0  0  0  0  0  0  0  0  0  0  0
    8.4099  -25.4522  -10.5602 C   0  0  2  0  0  0  0  0  0  0  0  0
    8.0355  -24.1442  -10.8831 O   0  0  0  0  0  0  0  0  0  0  0  0
    9.5876  -25.4731   -9.5780 C   0  0  2  0  0  0  0  0  0  0  0  0
   10.7851  -25.8068  -10.2165 O   0  0  0  0  0  0  0  0  0  0  0  0
    9.4389  -26.4133   -8.3916 C   0  0  2  0  0  0  0  0  0  0  0  0
    8.0904  -26.8327   -8.2382 O   0  0  0  0  0  0  0  0  0  0  0  0
    9.9015  -25.7217   -7.1264 C   0  0  0  0  0  0  0  0  0  0  0  0
   10.6572  -26.6358   -6.3881 O   0  0  0  0  0  0  0  0  0  0  0  0
   10.2335  -27.0333   -4.9309 P   0  0  1  0  0  0  0  0  0  0  0  0
   10.6833  -25.9443   -4.0980 O   0  0  0  0  0  0  0  0  0  0  0  0
    8.8408  -27.4378   -4.9086 O   0  0  0  0  0  0  0  0  0  0  0  0
   11.0945  -28.3088   -4.6376 O   0  0  0  0  0  0  0  0  0  0  0  0
    8.1141  -29.6887   -6.1840 H   0  0  0  0  0  0  0  0  0  0  0  0
    9.1066  -31.1090   -6.6343 H   0  0  0  0  0  0  0  0  0  0  0  0
    8.0115  -31.8175   -4.2338 H   0  0  0  0  0  0  0  0  0  0  0  0
    8.0257  -33.0117   -6.7725 H   0  0  0  0  0  0  0  0  0  0  0  0
    7.2654  -33.6683   -4.2552 H   0  0  0  0  0  0  0  0  0  0  0  0
    5.9920  -31.9188   -7.6223 H   0  0  0  0  0  0  0  0  0  0  0  0
    4.8727  -33.9938   -6.0874 H   0  0  0  0  0  0  0  0  0  0  0  0
    4.7628  -32.2584   -4.8624 H   0  0  0  0  0  0  0  0  0  0  0  0
    4.5944  -30.4765   -8.1169 H   0  0  0  0  0  0  0  0  0  0  0  0
    0.1186  -27.0178   -5.5037 H   0  0  0  0  0  0  0  0  0  0  0  0
    0.9515  -27.4203   -7.0291 H   0  0  0  0  0  0  0  0  0  0  0  0
    2.1120  -29.4181   -2.2875 H   0  0  0  0  0  0  0  0  0  0  0  0
    8.6966  -24.7866  -13.5644 H   0  0  0  0  0  0  0  0  0  0  0  0
    5.9938  -24.3783  -16.6100 H   0  0  0  0  0  0  0  0  0  0  0  0
    4.5018  -28.0306  -14.3178 H   0  0  0  0  0  0  0  0  0  0  0  0
    4.0843  -29.6672  -12.6565 H   0  0  0  0  0  0  0  0  0  0  0  0
    4.4769  -30.9497   -9.2387 H   0  0  0  0  0  0  0  0  0  0  0  0
    3.4070  -30.8757  -10.6797 H   0  0  0  0  0  0  0  0  0  0  0  0
    4.8401  -31.9588  -10.6797 H   0  0  0  0  0  0  0  0  0  0  0  0
    6.4814  -29.4954   -8.0835 H   0  0  0  0  0  0  0  0  0  0  0  0
    6.4403  -31.1047   -8.8805 H   0  0  0  0  0  0  0  0  0  0  0  0
    7.9561  -30.1409   -8.8805 H   0  0  0  0  0  0  0  0  0  0  0  0
    8.1452  -28.1302  -10.2344 H   0  0  0  0  0  0  0  0  0  0  0  0
    9.4448  -27.0518  -11.5636 H   0  0  0  0  0  0  0  0  0  0  0  0
    9.2894  -25.5261  -12.5179 H   0  0  0  0  0  0  0  0  0  0  0  0
    7.5516  -25.9387  -10.0737 H   0  0  0  0  0  0  0  0  0  0  0  0
    7.8878  -23.6283  -10.0511 H   0  0  0  0  0  0  0  0  0  0  0  0
    9.5984  -24.4436   -9.1907 H   0  0  0  0  0  0  0  0  0  0  0  0
   11.4787  -26.0001   -9.5370 H   0  0  0  0  0  0  0  0  0  0  0  0
   10.0608  -27.3013   -8.5778 H   0  0  0  0  0  0  0  0  0  0  0  0
    7.8733  -26.9002   -7.2746 H   0  0  0  0  0  0  0  0  0  0  0  0
   10.5184  -24.8477   -7.3826 H   0  0  0  0  0  0  0  0  0  0  0  0
    9.0367  -25.3779   -6.5400 H   0  0  0  0  0  0  0  0  0  0  0  0
  1  2  2  0
  1  3  1  1
  1  4  1  0
  1 53  1  0
  4  5  1  0
  6  5  1  0
  6  7  1  0
  6  8  1  0
  7 12  1  0
  8  9  1  0
  8 10  1  0
 10 11  1  0
 10 12  1  0
 12 13  1  0
 13 14  1  0
 13 22  1  0
 14 15  2  0
 15 16  1  0
 16 17  2  0
 16 22  1  0
 17 18  1  0
 17 19  1  0
 19 20  2  0
 20 21  1  0
 21 22  2  0
 23 24  1  0
 23 40  1  0
 24 25  2  0
 24 26  1  0
 26 27  1  0
 27 28  2  0
 27 29  1  0
 29 30  1  0
 29 40  2  0
 30 31  1  0
 31 32  2  0
 31 38  1  0
 32 33  1  0
 33 34  1  0
 33 35  2  0
 35 36  1  0
 35 37  1  0
 37 38  2  0
 38 39  1  0
 39 40  1  0
 39 41  1  0
 41 42  1  0
 42 43  1  0
 42 44  1  0
 44 45  1  0
 44 46  1  0
 46 47  1  0
 46 48  1  0
 48 49  1  0
 49 50  1  0
 50 51  2  0
 50 52  1  6
 50 53  1  0
  5 54  1  0
  5 55  1  0
  6 56  1  1
  8 57  1  6
  9 58  1  0
 10 59  1  6
 11 60  1  0
 12 61  1  1
 14 62  1  0
 18 63  1  0
 18 64  1  0
 20 65  1  0
 23 66  1  0
 26 67  1  0
 30 68  1  0
 32 69  1  0
 34 70  1  0
 34 71  1  0
 34 72  1  0
 36 73  1  0
 36 74  1  0
 36 75  1  0
 37 76  1  0
 41 77  1  0
 41 78  1  0
 42 79  1  1
 43 80  1  0
 44 81  1  1
 45 82  1  0
 46 83  1  6
 47 84  1  0
 48 85  1  0
 48 86  1  0
M  CHG  2   3  -1  52  -1
M  END
>  <filename_input>  (7) 
7EPV_FDA_docked.sdf

>  <pdb_id>  (7) 
7EPV_FDA

>  <pose_rank>  (7) 
6

>  <num_atoms_heavy>  (7) 
53

>  <num_torsions>  (7) 
13

>  <pose>  (7) 
[10.657210090348661, -26.63579564584271, -6.388097581950158, 0.8851575204972325, -3.0569410219008017, -1.4121991869065578, -10.870431574353761, 16.510946196332306, 41.489013545459855, 69.85155183057934, 43.900142609724355, -13.697771936888481, -5.91083727711562, 6.938798024463918, 7.047746537498916, 0.730323956689055, -4.954627914889776, 18.348763161447287, -9.463933743522686]

>  <energy>  (7) 
-758.6748284825123

>  <inter_energy>  (7) 
-809.3332552419557

>  <intra_energy>  (7) 
56.93192770182193

>  <rmsd>  (7) 
12.7206

>  <sdf_rank>  (7) 
0

$$$$

     RDKit          3D

 86 91  0  0  0  0  0  0  0  0999 V2000
    7.8177  -29.5115   -7.5596 P   0  0  2  0  0  0  0  0  0  0  0  0
    8.0755  -28.0786   -7.7097 O   0  0  0  0  0  0  0  0  0  0  0  0
    8.4803  -30.3820   -8.5099 O   0  0  0  0  0  0  0  0  0  0  0  0
    6.2683  -29.8035   -7.5615 O   0  0  0  0  0  0  0  0  0  0  0  0
    5.3748  -28.9816   -8.3111 C   0  0  0  0  0  0  0  0  0  0  0  0
    4.7350  -29.8206   -9.3850 C   0  0  1  0  0  0  0  0  0  0  0  0
    4.2809  -28.9957  -10.4775 O   0  0  0  0  0  0  0  0  0  0  0  0
    5.6539  -30.8925   -9.9848 C   0  0  1  0  0  0  0  0  0  0  0  0
    5.0130  -32.1466  -10.0651 O   0  0  0  0  0  0  0  0  0  0  0  0
    6.0280  -30.2761  -11.3444 C   0  0  1  0  0  0  0  0  0  0  0  0
    6.3367  -31.2473  -12.2985 O   0  0  0  0  0  0  0  0  0  0  0  0
    4.7563  -29.5145  -11.6968 C   0  0  2  0  0  0  0  0  0  0  0  0
    4.9057  -28.4185  -12.6303 N   0  0  0  0  0  0  0  0  0  0  0  0
    4.2321  -28.2093  -13.7910 C   0  0  0  0  0  0  0  0  0  0  0  0
    4.6520  -27.1645  -14.4626 N   0  0  0  0  0  0  0  0  0  0  0  0
    5.7005  -26.6777  -13.7060 C   0  0  0  0  0  0  0  0  0  0  0  0
    6.5806  -25.5934  -13.8728 C   0  0  0  0  0  0  0  0  0  0  0  0
    6.5570  -24.7827  -14.9183 N   0  0  0  0  0  0  0  0  0  0  0  0
    7.5291  -25.4174  -12.9348 N   0  0  0  0  0  0  0  0  0  0  0  0
    7.5790  -26.2526  -11.9018 C   0  0  0  0  0  0  0  0  0  0  0  0
    6.7932  -27.2819  -11.6389 N   0  0  0  0  0  0  0  0  0  0  0  0
    5.8701  -27.4529  -12.5838 C   0  0  0  0  0  0  0  0  0  0  0  0
   10.6778  -33.4144    2.8487 N   0  0  0  0  0  0  0  0  0  0  0  0
   11.4982  -33.9244    3.7176 C   0  0  0  0  0  0  0  0  0  0  0  0
   12.6535  -34.0597    3.4461 O   0  0  0  0  0  0  0  0  0  0  0  0
   11.0783  -34.2868    4.9678 N   0  0  0  0  0  0  0  0  0  0  0  0
    9.7668  -34.1645    5.3623 C   0  0  0  0  0  0  0  0  0  0  0  0
    9.4293  -34.4881    6.4853 O   0  0  0  0  0  0  0  0  0  0  0  0
    8.8649  -33.6805    4.4357 C   0  0  0  0  0  0  0  0  0  0  0  0
    7.6141  -33.5787    4.7572 N   0  0  0  0  0  0  0  0  0  0  0  0
    6.7487  -33.1627    3.7895 C   0  0  0  0  0  0  0  0  0  0  0  0
    5.3780  -33.1088    4.0917 C   0  0  0  0  0  0  0  0  0  0  0  0
    4.4616  -32.7357    3.1481 C   0  0  0  0  0  0  0  0  0  0  0  0
    2.9897  -32.7240    3.4753 C   0  0  0  0  0  0  0  0  0  0  0  0
    4.9075  -32.3365    1.8658 C   0  0  0  0  0  0  0  0  0  0  0  0
    3.9269  -31.8820    0.8244 C   0  0  0  0  0  0  0  0  0  0  0  0
    6.2559  -32.3286    1.5787 C   0  0  0  0  0  0  0  0  0  0  0  0
    7.1968  -32.7601    2.5186 C   0  0  0  0  0  0  0  0  0  0  0  0
    8.5583  -32.8246    2.2537 N   0  0  0  0  0  0  0  0  0  0  0  0
    9.4169  -33.3209    3.1606 C   0  0  0  0  0  0  0  0  0  0  0  0
    9.0997  -32.4507    0.9441 C   0  0  0  0  0  0  0  0  0  0  0  0
    9.4849  -30.9752    0.9182 C   0  0  2  0  0  0  0  0  0  0  0  0
    8.5414  -30.2231    1.6250 O   0  0  0  0  0  0  0  0  0  0  0  0
    9.6110  -30.4970   -0.5336 C   0  0  2  0  0  0  0  0  0  0  0  0
    9.7808  -29.1118   -0.6070 O   0  0  0  0  0  0  0  0  0  0  0  0
    8.4476  -30.8517   -1.4470 C   0  0  2  0  0  0  0  0  0  0  0  0
    8.7483  -31.9930   -2.2375 O   0  0  0  0  0  0  0  0  0  0  0  0
    8.1274  -29.6795   -2.3506 C   0  0  0  0  0  0  0  0  0  0  0  0
    8.4865  -30.0306   -3.6543 O   0  0  0  0  0  0  0  0  0  0  0  0
    8.4151  -28.9784   -4.8157 P   0  0  1  0  0  0  0  0  0  0  0  0
    7.1876  -28.2538   -4.5919 O   0  0  0  0  0  0  0  0  0  0  0  0
    9.6726  -28.2630   -4.9194 O   0  0  0  0  0  0  0  0  0  0  0  0
    8.2751  -29.8643   -6.1001 O   0  0  0  0  0  0  0  0  0  0  0  0
    4.5982  -28.5762   -7.6459 H   0  0  0  0  0  0  0  0  0  0  0  0
    5.9264  -28.1458   -8.7665 H   0  0  0  0  0  0  0  0  0  0  0  0
    3.9024  -30.3261   -8.8740 H   0  0  0  0  0  0  0  0  0  0  0  0
    6.5440  -31.1235   -9.3812 H   0  0  0  0  0  0  0  0  0  0  0  0
    4.8389  -32.4873   -9.1521 H   0  0  0  0  0  0  0  0  0  0  0  0
    6.9305  -29.6480  -11.3115 H   0  0  0  0  0  0  0  0  0  0  0  0
    6.6028  -32.0848  -11.8427 H   0  0  0  0  0  0  0  0  0  0  0  0
    4.0813  -30.2184  -12.2057 H   0  0  0  0  0  0  0  0  0  0  0  0
    3.4114  -28.8558  -14.1352 H   0  0  0  0  0  0  0  0  0  0  0  0
    7.2295  -24.0050  -14.9823 H   0  0  0  0  0  0  0  0  0  0  0  0
    5.8663  -24.9292  -15.6681 H   0  0  0  0  0  0  0  0  0  0  0  0
    8.3784  -26.0620  -11.1707 H   0  0  0  0  0  0  0  0  0  0  0  0
   11.0178  -33.0907    1.9320 H   0  0  0  0  0  0  0  0  0  0  0  0
   11.7665  -34.6634    5.6352 H   0  0  0  0  0  0  0  0  0  0  0  0
    7.2861  -33.8033    5.7074 H   0  0  0  0  0  0  0  0  0  0  0  0
    5.0363  -33.3710    5.1039 H   0  0  0  0  0  0  0  0  0  0  0  0
    2.8568  -32.7230    4.5672 H   0  0  0  0  0  0  0  0  0  0  0  0
    2.5264  -31.8222    3.0487 H   0  0  0  0  0  0  0  0  0  0  0  0
    2.5121  -33.6184    3.0487 H   0  0  0  0  0  0  0  0  0  0  0  0
    3.0345  -31.4684    1.3167 H   0  0  0  0  0  0  0  0  0  0  0  0
    4.3915  -31.1074    0.1966 H   0  0  0  0  0  0  0  0  0  0  0  0
    3.6362  -32.7372    0.1966 H   0  0  0  0  0  0  0  0  0  0  0  0
    6.5972  -31.9770    0.5939 H   0  0  0  0  0  0  0  0  0  0  0  0
    9.9915  -33.0599    0.7353 H   0  0  0  0  0  0  0  0  0  0  0  0
    8.3280  -32.6270    0.1803 H   0  0  0  0  0  0  0  0  0  0  0  0
   10.4605  -30.8392    1.4078 H   0  0  0  0  0  0  0  0  0  0  0  0
    8.6876  -30.3397    2.5971 H   0  0  0  0  0  0  0  0  0  0  0  0
   10.4968  -31.0418   -0.8921 H   0  0  0  0  0  0  0  0  0  0  0  0
    9.8269  -28.7361    0.3078 H   0  0  0  0  0  0  0  0  0  0  0  0
    7.5759  -31.0839   -0.8175 H   0  0  0  0  0  0  0  0  0  0  0  0
    8.9506  -32.7604   -1.6456 H   0  0  0  0  0  0  0  0  0  0  0  0
    7.0511  -29.4570   -2.3066 H   0  0  0  0  0  0  0  0  0  0  0  0
    8.6815  -28.7854   -2.0285 H   0  0  0  0  0  0  0  0  0  0  0  0
  1  2  2  0
  1  3  1  6
  1  4  1  0
  1 53  1  0
  4  5  1  0
  6  5  1  0
  6  7  1  0
  6  8  1  0
  7 12  1  0
  8  9  1  0
  8 10  1  0
 10 11  1  0
 10 12  1  0
 12 13  1  0
 13 14  1  0
 13 22  1  0
 14 15  2  0
 15 16  1  0
 16 17  2  0
 16 22  1  0
 17 18  1  0
 17 19  1  0
 19 20  2  0
 20 21  1  0
 21 22  2  0
 23 24  1  0
 23 40  1  0
 24 25  2  0
 24 26  1  0
 26 27  1  0
 27 28  2  0
 27 29  1  0
 29 30  1  0
 29 40  2  0
 30 31  1  0
 31 32  2  0
 31 38  1  0
 32 33  1  0
 33 34  1  0
 33 35  2  0
 35 36  1  0
 35 37  1  0
 37 38  2  0
 38 39  1  0
 39 40  1  0
 39 41  1  0
 41 42  1  0
 42 43  1  0
 42 44  1  0
 44 45  1  0
 44 46  1  0
 46 47  1  0
 46 48  1  0
 48 49  1  0
 49 50  1  0
 50 51  2  0
 50 52  1  6
 50 53  1  0
  5 54  1  0
  5 55  1  0
  6 56  1  1
  8 57  1  1
  9 58  1  0
 10 59  1  1
 11 60  1  0
 12 61  1  6
 14 62  1  0
 18 63  1  0
 18 64  1  0
 20 65  1  0
 23 66  1  0
 26 67  1  0
 30 68  1  0
 32 69  1  0
 34 70  1  0
 34 71  1  0
 34 72  1  0
 36 73  1  0
 36 74  1  0
 36 75  1  0
 37 76  1  0
 41 77  1  0
 41 78  1  0
 42 79  1  1
 43 80  1  0
 44 81  1  6
 45 82  1  0
 46 83  1  1
 47 84  1  0
 48 85  1  0
 48 86  1  0
M  CHG  2   3  -1  52  -1
M  END
>  <filename_input>  (8) 
7EPV_FDA_docked.sdf

>  <pdb_id>  (8) 
7EPV_FDA

>  <pose_rank>  (8) 
7

>  <num_atoms_heavy>  (8) 
53

>  <num_torsions>  (8) 
13

>  <pose>  (8) 
[8.486484218577333, -30.030565780470972, -3.6542813410955395, -1.1860700479720299, 3.8101562771984288, -3.63937225640147, 2.3585018923277685, 1.76332142672151, 3.203086633853673, 1.1898397161449747, -0.7996891801275487, 0.5571121567401757, 2.949273583138025, -0.26801621347564736, -1.1859131206846252, -0.7385930317726761, 4.014554158134082, 0.27031134513121213, -0.34093758568718324]

>  <energy>  (8) 
-693.6675975294194

>  <inter_energy>  (8) 
-745.5935704352084

>  <intra_energy>  (8) 
52.472755549567545

>  <rmsd>  (8) 
4.56047

>  <sdf_rank>  (8) 
0

$$$$

     RDKit          3D

 86 91  0  0  0  0  0  0  0  0999 V2000
    2.0492  -28.6531   -6.3770 P   0  0  2  0  0  0  0  0  0  0  0  0
    1.1068  -29.7305   -6.6823 O   0  0  0  0  0  0  0  0  0  0  0  0
    1.4720  -27.3405   -6.1684 O   0  0  0  0  0  0  0  0  0  0  0  0
    3.1770  -28.5696   -7.4757 O   0  0  0  0  0  0  0  0  0  0  0  0
    3.0112  -29.2141   -8.7378 C   0  0  0  0  0  0  0  0  0  0  0  0
    4.3227  -29.1719   -9.4760 C   0  0  1  0  0  0  0  0  0  0  0  0
    5.2953  -30.0280   -8.8424 O   0  0  0  0  0  0  0  0  0  0  0  0
    4.2377  -29.6016  -10.9460 C   0  0  1  0  0  0  0  0  0  0  0  0
    4.9113  -28.6990  -11.7954 O   0  0  0  0  0  0  0  0  0  0  0  0
    4.8420  -31.0164  -10.9066 C   0  0  1  0  0  0  0  0  0  0  0  0
    5.4203  -31.3788  -12.1243 O   0  0  0  0  0  0  0  0  0  0  0  0
    5.8814  -30.8758   -9.8013 C   0  0  2  0  0  0  0  0  0  0  0  0
    6.2823  -32.1001   -9.1417 N   0  0  0  0  0  0  0  0  0  0  0  0
    5.9587  -32.5230   -7.8923 C   0  0  0  0  0  0  0  0  0  0  0  0
    6.5465  -33.6428   -7.5464 N   0  0  0  0  0  0  0  0  0  0  0  0
    7.3412  -33.9547   -8.6327 C   0  0  0  0  0  0  0  0  0  0  0  0
    8.2302  -35.0117   -8.8981 C   0  0  0  0  0  0  0  0  0  0  0  0
    8.4971  -35.9804   -8.0372 N   0  0  0  0  0  0  0  0  0  0  0  0
    8.8790  -34.9924  -10.0767 N   0  0  0  0  0  0  0  0  0  0  0  0
    8.6410  -34.0003  -10.9290 C   0  0  0  0  0  0  0  0  0  0  0  0
    7.8157  -32.9778  -10.7897 N   0  0  0  0  0  0  0  0  0  0  0  0
    7.1931  -33.0022   -9.6124 C   0  0  0  0  0  0  0  0  0  0  0  0
    4.1810  -34.2118    3.4355 N   0  0  0  0  0  0  0  0  0  0  0  0
    3.4659  -34.5825    4.4549 C   0  0  0  0  0  0  0  0  0  0  0  0
    2.2778  -34.6604    4.3592 O   0  0  0  0  0  0  0  0  0  0  0  0
    4.0452  -34.9246    5.6457 N   0  0  0  0  0  0  0  0  0  0  0  0
    5.4047  -34.8636    5.8413 C   0  0  0  0  0  0  0  0  0  0  0  0
    5.8876  -35.1840    6.9108 O   0  0  0  0  0  0  0  0  0  0  0  0
    6.1804  -34.4152    4.7908 C   0  0  0  0  0  0  0  0  0  0  0  0
    7.4628  -34.3137    4.9437 N   0  0  0  0  0  0  0  0  0  0  0  0
    8.1807  -33.8006    3.9045 C   0  0  0  0  0  0  0  0  0  0  0  0
    9.5634  -33.6164    4.0691 C   0  0  0  0  0  0  0  0  0  0  0  0
   10.3258  -33.0703    3.0741 C   0  0  0  0  0  0  0  0  0  0  0  0
   11.8013  -32.8393    3.2817 C   0  0  0  0  0  0  0  0  0  0  0  0
    9.7230  -32.7446    1.8359 C   0  0  0  0  0  0  0  0  0  0  0  0
   10.5440  -32.1831    0.7120 C   0  0  0  0  0  0  0  0  0  0  0  0
    8.3777  -32.9777    1.6440 C   0  0  0  0  0  0  0  0  0  0  0  0
    7.5788  -33.4849    2.6732 C   0  0  0  0  0  0  0  0  0  0  0  0
    6.2102  -33.6805    2.5443 N   0  0  0  0  0  0  0  0  0  0  0  0
    5.4693  -34.0953    3.5858 C   0  0  0  0  0  0  0  0  0  0  0  0
    5.5052  -33.3477    1.3032 C   0  0  0  0  0  0  0  0  0  0  0  0
    5.2031  -31.8543    1.2353 C   0  0  2  0  0  0  0  0  0  0  0  0
    5.0028  -31.3489    2.5237 O   0  0  0  0  0  0  0  0  0  0  0  0
    3.9811  -31.6120    0.3406 C   0  0  2  0  0  0  0  0  0  0  0  0
    3.6135  -32.7677   -0.3536 O   0  0  0  0  0  0  0  0  0  0  0  0
    4.1288  -30.5022   -0.6891 C   0  0  2  0  0  0  0  0  0  0  0  0
    3.1664  -29.4788   -0.4786 O   0  0  0  0  0  0  0  0  0  0  0  0
    3.9678  -31.0701   -2.0836 C   0  0  0  0  0  0  0  0  0  0  0  0
    3.4921  -30.0501   -2.9112 O   0  0  0  0  0  0  0  0  0  0  0  0
    2.6258  -30.3832   -4.1761 P   0  0  1  0  0  0  0  0  0  0  0  0
    3.2769  -31.5147   -4.7905 O   0  0  0  0  0  0  0  0  0  0  0  0
    1.2232  -30.4600   -3.8145 O   0  0  0  0  0  0  0  0  0  0  0  0
    2.8053  -29.1182   -5.0825 O   0  0  0  0  0  0  0  0  0  0  0  0
    2.7071  -30.2598   -8.5826 H   0  0  0  0  0  0  0  0  0  0  0  0
    2.2346  -28.6997   -9.3227 H   0  0  0  0  0  0  0  0  0  0  0  0
    4.6188  -28.1130   -9.4423 H   0  0  0  0  0  0  0  0  0  0  0  0
    3.2209  -29.6023  -11.3656 H   0  0  0  0  0  0  0  0  0  0  0  0
    5.4051  -28.0374  -11.2489 H   0  0  0  0  0  0  0  0  0  0  0  0
    4.1008  -31.8086  -10.7248 H   0  0  0  0  0  0  0  0  0  0  0  0
    6.2469  -31.8969  -11.9559 H   0  0  0  0  0  0  0  0  0  0  0  0
    6.8050  -30.4981  -10.2641 H   0  0  0  0  0  0  0  0  0  0  0  0
    5.2682  -31.9773   -7.2324 H   0  0  0  0  0  0  0  0  0  0  0  0
    9.1587  -36.7277   -8.2916 H   0  0  0  0  0  0  0  0  0  0  0  0
    8.0432  -35.9872   -7.1126 H   0  0  0  0  0  0  0  0  0  0  0  0
    9.2044  -34.0352  -11.8731 H   0  0  0  0  0  0  0  0  0  0  0  0
    3.7380  -34.0140    2.5269 H   0  0  0  0  0  0  0  0  0  0  0  0
    3.4436  -35.2379    6.4209 H   0  0  0  0  0  0  0  0  0  0  0  0
    7.9224  -34.6093    5.8169 H   0  0  0  0  0  0  0  0  0  0  0  0
   10.0407  -33.9163    5.0137 H   0  0  0  0  0  0  0  0  0  0  0  0
   12.0190  -32.8052    4.3594 H   0  0  0  0  0  0  0  0  0  0  0  0
   12.3695  -33.6594    2.8185 H   0  0  0  0  0  0  0  0  0  0  0  0
   12.0917  -31.8847    2.8185 H   0  0  0  0  0  0  0  0  0  0  0  0
   11.3856  -31.6075    1.1247 H   0  0  0  0  0  0  0  0  0  0  0  0
   10.9310  -33.0065    0.0937 H   0  0  0  0  0  0  0  0  0  0  0  0
    9.9170  -31.5238    0.0937 H   0  0  0  0  0  0  0  0  0  0  0  0
    7.9255  -32.7611    0.6649 H   0  0  0  0  0  0  0  0  0  0  0  0
    6.1339  -33.6278    0.4451 H   0  0  0  0  0  0  0  0  0  0  0  0
    4.5548  -33.9011    1.2784 H   0  0  0  0  0  0  0  0  0  0  0  0
    6.0595  -31.3236    0.7938 H   0  0  0  0  0  0  0  0  0  0  0  0
    5.2723  -32.0291    3.1906 H   0  0  0  0  0  0  0  0  0  0  0  0
    3.2111  -31.3001    1.0616 H   0  0  0  0  0  0  0  0  0  0  0  0
    3.3862  -33.4826    0.2924 H   0  0  0  0  0  0  0  0  0  0  0  0
    5.1321  -30.0647   -0.5801 H   0  0  0  0  0  0  0  0  0  0  0  0
    3.0376  -29.3418    0.4934 H   0  0  0  0  0  0  0  0  0  0  0  0
    4.9387  -31.4301   -2.4547 H   0  0  0  0  0  0  0  0  0  0  0  0
    3.2635  -31.9150   -2.0739 H   0  0  0  0  0  0  0  0  0  0  0  0
  1  2  2  0
  1  3  1  1
  1  4  1  0
  1 53  1  0
  4  5  1  0
  6  5  1  0
  6  7  1  0
  6  8  1  0
  7 12  1  0
  8  9  1  0
  8 10  1  0
 10 11  1  0
 10 12  1  0
 12 13  1  0
 13 14  1  0
 13 22  1  0
 14 15  2  0
 15 16  1  0
 16 17  2  0
 16 22  1  0
 17 18  1  0
 17 19  1  0
 19 20  2  0
 20 21  1  0
 21 22  2  0
 23 24  1  0
 23 40  1  0
 24 25  2  0
 24 26  1  0
 26 27  1  0
 27 28  2  0
 27 29  1  0
 29 30  1  0
 29 40  2  0
 30 31  1  0
 31 32  2  0
 31 38  1  0
 32 33  1  0
 33 34  1  0
 33 35  2  0
 35 36  1  0
 35 37  1  0
 37 38  2  0
 38 39  1  0
 39 40  1  0
 39 41  1  0
 41 42  1  0
 42 43  1  0
 42 44  1  0
 44 45  1  0
 44 46  1  0
 46 47  1  0
 46 48  1  0
 48 49  1  0
 49 50  1  0
 50 51  2  0
 50 52  1  1
 50 53  1  0
  5 54  1  0
  5 55  1  0
  6 56  1  6
  8 57  1  6
  9 58  1  0
 10 59  1  1
 11 60  1  0
 12 61  1  6
 14 62  1  0
 18 63  1  0
 18 64  1  0
 20 65  1  0
 23 66  1  0
 26 67  1  0
 30 68  1  0
 32 69  1  0
 34 70  1  0
 34 71  1  0
 34 72  1  0
 36 73  1  0
 36 74  1  0
 36 75  1  0
 37 76  1  0
 41 77  1  0
 41 78  1  0
 42 79  1  6
 43 80  1  0
 44 81  1  1
 45 82  1  0
 46 83  1  6
 47 84  1  0
 48 85  1  0
 48 86  1  0
M  CHG  2   3  -1  52  -1
M  END
>  <filename_input>  (9) 
7EPV_FDA_docked.sdf

>  <pdb_id>  (9) 
7EPV_FDA

>  <pose_rank>  (9) 
8

>  <num_atoms_heavy>  (9) 
53

>  <num_torsions>  (9) 
13

>  <pose>  (9) 
[3.492081002623387, -30.05005747057627, -2.9112482491079446, -1.288513697470227, 0.655145810433251, -2.5264237559158187, -10.23594153369239, 8.54004637288578, -16.130327943118182, 32.34555507945342, 63.31933520785448, 29.627947870454786, -26.247983391632097, -18.739342943976126, -38.15151820436713, 5.198268088824987, 25.96813395622512, 25.532944865409643, -9.636398849181498]

>  <energy>  (9) 
-715.3095821434313

>  <inter_energy>  (9) 
-753.0177143032466

>  <intra_energy>  (9) 
35.78065569918335

>  <rmsd>  (9) 
4.54127

>  <sdf_rank>  (9) 
0

$$$$

     RDKit          3D

 86 91  0  0  0  0  0  0  0  0999 V2000
    2.6733  -29.3334   -6.1918 P   0  0  2  0  0  0  0  0  0  0  0  0
    1.3110  -29.5924   -6.6599 O   0  0  0  0  0  0  0  0  0  0  0  0
    2.9817  -27.9582   -5.8550 O   0  0  0  0  0  0  0  0  0  0  0  0
    3.7321  -29.8781   -7.2254 O   0  0  0  0  0  0  0  0  0  0  0  0
    4.0573  -29.1291   -8.3955 C   0  0  0  0  0  0  0  0  0  0  0  0
    4.9320  -29.9757   -9.2814 C   0  0  1  0  0  0  0  0  0  0  0  0
    6.3270  -29.7111   -9.0279 O   0  0  0  0  0  0  0  0  0  0  0  0
    4.7260  -31.4871   -9.1192 C   0  0  1  0  0  0  0  0  0  0  0  0
    4.6056  -32.1361  -10.3659 O   0  0  0  0  0  0  0  0  0  0  0  0
    5.9626  -31.8977   -8.3002 C   0  0  1  0  0  0  0  0  0  0  0  0
    6.3276  -33.2264   -8.5234 O   0  0  0  0  0  0  0  0  0  0  0  0
    7.0124  -30.9230   -8.8194 C   0  0  2  0  0  0  0  0  0  0  0  0
    8.1348  -30.6658   -7.9425 N   0  0  0  0  0  0  0  0  0  0  0  0
    9.4483  -30.9307   -8.1639 C   0  0  0  0  0  0  0  0  0  0  0  0
   10.2207  -30.6567   -7.1405 N   0  0  0  0  0  0  0  0  0  0  0  0
    9.3449  -30.2171   -6.1666 C   0  0  0  0  0  0  0  0  0  0  0  0
    9.5243  -29.7855   -4.8401 C   0  0  0  0  0  0  0  0  0  0  0  0
   10.6991  -29.7489   -4.2324 N   0  0  0  0  0  0  0  0  0  0  0  0
    8.4226  -29.4461   -4.1463 N   0  0  0  0  0  0  0  0  0  0  0  0
    7.2364  -29.5171   -4.7422 C   0  0  0  0  0  0  0  0  0  0  0  0
    6.9601  -29.8851   -5.9809 N   0  0  0  0  0  0  0  0  0  0  0  0
    8.0583  -30.2330   -6.6496 C   0  0  0  0  0  0  0  0  0  0  0  0
    4.4870  -32.6978    3.7124 N   0  0  0  0  0  0  0  0  0  0  0  0
    3.4698  -33.1385    4.3899 C   0  0  0  0  0  0  0  0  0  0  0  0
    2.4250  -32.5609    4.3496 O   0  0  0  0  0  0  0  0  0  0  0  0
    3.5507  -34.2828    5.1348 N   0  0  0  0  0  0  0  0  0  0  0  0
    4.7143  -35.0083    5.2357 C   0  0  0  0  0  0  0  0  0  0  0  0
    4.7487  -36.0268    5.8999 O   0  0  0  0  0  0  0  0  0  0  0  0
    5.8254  -34.5268    4.5724 C   0  0  0  0  0  0  0  0  0  0  0  0
    6.9494  -35.1639    4.6667 N   0  0  0  0  0  0  0  0  0  0  0  0
    8.0360  -34.6148    4.0533 C   0  0  0  0  0  0  0  0  0  0  0  0
    9.2809  -35.2495    4.1969 C   0  0  0  0  0  0  0  0  0  0  0  0
   10.4105  -34.7222    3.6354 C   0  0  0  0  0  0  0  0  0  0  0  0
   11.7467  -35.3921    3.8344 C   0  0  0  0  0  0  0  0  0  0  0  0
   10.3128  -33.5532    2.8440 C   0  0  0  0  0  0  0  0  0  0  0  0
   11.5296  -32.9766    2.1812 C   0  0  0  0  0  0  0  0  0  0  0  0
    9.0853  -32.9568    2.6477 C   0  0  0  0  0  0  0  0  0  0  0  0
    7.9331  -33.4568    3.2618 C   0  0  0  0  0  0  0  0  0  0  0  0
    6.6874  -32.8556    3.1401 N   0  0  0  0  0  0  0  0  0  0  0  0
    5.6233  -33.3260    3.8126 C   0  0  0  0  0  0  0  0  0  0  0  0
    6.5046  -31.6301    2.3573 C   0  0  0  0  0  0  0  0  0  0  0  0
    6.4541  -31.9425    0.8653 C   0  0  2  0  0  0  0  0  0  0  0  0
    7.7426  -31.8949    0.3239 O   0  0  0  0  0  0  0  0  0  0  0  0
    5.5120  -30.9586    0.1605 C   0  0  2  0  0  0  0  0  0  0  0  0
    4.4764  -30.5441    1.0022 O   0  0  0  0  0  0  0  0  0  0  0  0
    4.8681  -31.4665   -1.1205 C   0  0  2  0  0  0  0  0  0  0  0  0
    5.8152  -31.5317   -2.1772 O   0  0  0  0  0  0  0  0  0  0  0  0
    3.7266  -30.5548   -1.5187 C   0  0  0  0  0  0  0  0  0  0  0  0
    3.1027  -31.1104   -2.6385 O   0  0  0  0  0  0  0  0  0  0  0  0
    2.1480  -30.2464   -3.5347 P   0  0  1  0  0  0  0  0  0  0  0  0
    0.9216  -31.0023   -3.6155 O   0  0  0  0  0  0  0  0  0  0  0  0
    2.1264  -28.8748   -3.0634 O   0  0  0  0  0  0  0  0  0  0  0  0
    2.8592  -30.2489   -4.9304 O   0  0  0  0  0  0  0  0  0  0  0  0
    3.1351  -28.8616   -8.9322 H   0  0  0  0  0  0  0  0  0  0  0  0
    4.5875  -28.2069   -8.1154 H   0  0  0  0  0  0  0  0  0  0  0  0
    4.6362  -29.6945  -10.3029 H   0  0  0  0  0  0  0  0  0  0  0  0
    3.7895  -31.7709   -8.6168 H   0  0  0  0  0  0  0  0  0  0  0  0
    4.4269  -33.0990  -10.2207 H   0  0  0  0  0  0  0  0  0  0  0  0
    5.8077  -31.8499   -7.2122 H   0  0  0  0  0  0  0  0  0  0  0  0
    6.4535  -33.6844   -7.6548 H   0  0  0  0  0  0  0  0  0  0  0  0
    7.4626  -31.3715   -9.7172 H   0  0  0  0  0  0  0  0  0  0  0  0
    9.8285  -31.3369   -9.1129 H   0  0  0  0  0  0  0  0  0  0  0  0
   10.7649  -29.4220   -3.2578 H   0  0  0  0  0  0  0  0  0  0  0  0
   11.5479  -30.0473   -4.7339 H   0  0  0  0  0  0  0  0  0  0  0  0
    6.3725  -29.2324   -4.1237 H   0  0  0  0  0  0  0  0  0  0  0  0
    4.3966  -31.8684    3.1085 H   0  0  0  0  0  0  0  0  0  0  0  0
    2.7132  -34.6115    5.6362 H   0  0  0  0  0  0  0  0  0  0  0  0
    7.0194  -36.0512    5.1851 H   0  0  0  0  0  0  0  0  0  0  0  0
    9.3480  -36.1857    4.7704 H   0  0  0  0  0  0  0  0  0  0  0  0
   11.9492  -35.4936    4.9108 H   0  0  0  0  0  0  0  0  0  0  0  0
   11.7302  -36.3885    3.3688 H   0  0  0  0  0  0  0  0  0  0  0  0
   12.5353  -34.7827    3.3688 H   0  0  0  0  0  0  0  0  0  0  0  0
   12.2408  -32.6396    2.9497 H   0  0  0  0  0  0  0  0  0  0  0  0
   12.0046  -33.7454    1.5540 H   0  0  0  0  0  0  0  0  0  0  0  0
   11.2354  -32.1221    1.5540 H   0  0  0  0  0  0  0  0  0  0  0  0
    9.0113  -32.0729    1.9970 H   0  0  0  0  0  0  0  0  0  0  0  0
    5.5622  -31.1481    2.6569 H   0  0  0  0  0  0  0  0  0  0  0  0
    7.3554  -30.9595    2.5485 H   0  0  0  0  0  0  0  0  0  0  0  0
    6.0614  -32.9587    0.7135 H   0  0  0  0  0  0  0  0  0  0  0  0
    8.4077  -31.8703    1.0568 H   0  0  0  0  0  0  0  0  0  0  0  0
    6.1838  -30.1299   -0.1077 H   0  0  0  0  0  0  0  0  0  0  0  0
    4.7537  -30.6551    1.9461 H   0  0  0  0  0  0  0  0  0  0  0  0
    4.4851  -32.4805   -0.9330 H   0  0  0  0  0  0  0  0  0  0  0  0
    6.7279  -31.5946   -1.7989 H   0  0  0  0  0  0  0  0  0  0  0  0
    3.0064  -30.4746   -0.6911 H   0  0  0  0  0  0  0  0  0  0  0  0
    4.1039  -29.5480   -1.7509 H   0  0  0  0  0  0  0  0  0  0  0  0
  1  2  2  0
  1  3  1  1
  1  4  1  0
  1 53  1  0
  4  5  1  0
  6  5  1  0
  6  7  1  0
  6  8  1  0
  7 12  1  0
  8  9  1  0
  8 10  1  0
 10 11  1  0
 10 12  1  0
 12 13  1  0
 13 14  1  0
 13 22  1  0
 14 15  2  0
 15 16  1  0
 16 17  2  0
 16 22  1  0
 17 18  1  0
 17 19  1  0
 19 20  2  0
 20 21  1  0
 21 22  2  0
 23 24  1  0
 23 40  1  0
 24 25  2  0
 24 26  1  0
 26 27  1  0
 27 28  2  0
 27 29  1  0
 29 30  1  0
 29 40  2  0
 30 31  1  0
 31 32  2  0
 31 38  1  0
 32 33  1  0
 33 34  1  0
 33 35  2  0
 35 36  1  0
 35 37  1  0
 37 38  2  0
 38 39  1  0
 39 40  1  0
 39 41  1  0
 41 42  1  0
 42 43  1  0
 42 44  1  0
 44 45  1  0
 44 46  1  0
 46 47  1  0
 46 48  1  0
 48 49  1  0
 49 50  1  0
 50 51  2  0
 50 52  1  1
 50 53  1  0
  5 54  1  0
  5 55  1  0
  6 56  1  6
  8 57  1  1
  9 58  1  0
 10 59  1  1
 11 60  1  0
 12 61  1  6
 14 62  1  0
 18 63  1  0
 18 64  1  0
 20 65  1  0
 23 66  1  0
 26 67  1  0
 30 68  1  0
 32 69  1  0
 34 70  1  0
 34 71  1  0
 34 72  1  0
 36 73  1  0
 36 74  1  0
 36 75  1  0
 37 76  1  0
 41 77  1  0
 41 78  1  0
 42 79  1  1
 43 80  1  0
 44 81  1  6
 45 82  1  0
 46 83  1  1
 47 84  1  0
 48 85  1  0
 48 86  1  0
M  CHG  2   3  -1  52  -1
M  END
>  <filename_input>  (10) 
7EPV_FDA_docked.sdf

>  <pdb_id>  (10) 
7EPV_FDA

>  <pose_rank>  (10) 
9

>  <num_atoms_heavy>  (10) 
53

>  <num_torsions>  (10) 
13

>  <pose>  (10) 
[3.10267761076912, -31.110354623323563, -2.6384801878979647, -2.396507340579428, -1.6224745497144024, -4.852019119483679, -5.418967001501928, -10.221797397712345, -4.627415366135392, -4.239963961387214, -5.826307764857314, -10.918811437427394, 2.7970089837215113, 6.200205175775008, 0.09763902769945745, -0.2685381511798201, 0.476394645813286, 5.660660031746379, -6.8499409058637015]

>  <energy>  (10) 
-679.6601334180119

>  <inter_energy>  (10) 
-724.992534605408

>  <intra_energy>  (10) 
45.715469195949076

>  <rmsd>  (10) 
4.75415

>  <sdf_rank>  (10) 
0

$$$$

     RDKit          3D

 86 91  0  0  0  0  0  0  0  0999 V2000
    9.0556  -30.5494    0.0227 P   0  0  2  0  0  0  0  0  0  0  0  0
    8.4547  -29.4119    0.7206 O   0  0  0  0  0  0  0  0  0  0  0  0
    8.1420  -31.5879   -0.4093 O   0  0  0  0  0  0  0  0  0  0  0  0
   10.2139  -31.1844    0.8835 O   0  0  0  0  0  0  0  0  0  0  0  0
   10.2860  -32.5964    1.0760 C   0  0  0  0  0  0  0  0  0  0  0  0
    9.9941  -32.9009    2.5212 C   0  0  1  0  0  0  0  0  0  0  0  0
    8.6592  -32.4834    2.8734 O   0  0  0  0  0  0  0  0  0  0  0  0
   10.1126  -34.3841    2.8939 C   0  0  1  0  0  0  0  0  0  0  0  0
   10.8582  -34.5690    4.0770 O   0  0  0  0  0  0  0  0  0  0  0  0
    8.6380  -34.8134    2.9924 C   0  0  1  0  0  0  0  0  0  0  0  0
    8.4568  -35.8872    3.8657 O   0  0  0  0  0  0  0  0  0  0  0  0
    7.9813  -33.5399    3.5107 C   0  0  2  0  0  0  0  0  0  0  0  0
    6.5655  -33.3976    3.2459 N   0  0  0  0  0  0  0  0  0  0  0  0
    5.9681  -32.7705    2.1997 C   0  0  0  0  0  0  0  0  0  0  0  0
    4.6600  -32.7385    2.2820 N   0  0  0  0  0  0  0  0  0  0  0  0
    4.3839  -33.3551    3.4871 C   0  0  0  0  0  0  0  0  0  0  0  0
    3.1861  -33.6297    4.1712 C   0  0  0  0  0  0  0  0  0  0  0  0
    1.9900  -33.2786    3.7275 N   0  0  0  0  0  0  0  0  0  0  0  0
    3.2833  -34.2354    5.3688 N   0  0  0  0  0  0  0  0  0  0  0  0
    4.4862  -34.5563    5.8347 C   0  0  0  0  0  0  0  0  0  0  0  0
    5.6645  -34.3655    5.2679 N   0  0  0  0  0  0  0  0  0  0  0  0
    5.5531  -33.7512    4.0913 C   0  0  0  0  0  0  0  0  0  0  0  0
    3.4684  -29.8312   -4.2550 N   0  0  0  0  0  0  0  0  0  0  0  0
    2.4024  -29.4401   -3.6236 C   0  0  0  0  0  0  0  0  0  0  0  0
    2.3021  -29.6171   -2.4466 O   0  0  0  0  0  0  0  0  0  0  0  0
    1.3879  -28.7906   -4.2713 N   0  0  0  0  0  0  0  0  0  0  0  0
    1.4226  -28.5462   -5.6239 C   0  0  0  0  0  0  0  0  0  0  0  0
    0.5068  -27.9576   -6.1666 O   0  0  0  0  0  0  0  0  0  0  0  0
    2.5187  -29.0055   -6.3268 C   0  0  0  0  0  0  0  0  0  0  0  0
    2.5761  -28.8229   -7.6080 N   0  0  0  0  0  0  0  0  0  0  0  0
    3.6422  -29.3542   -8.2711 C   0  0  0  0  0  0  0  0  0  0  0  0
    3.6941  -29.2295   -9.6692 C   0  0  0  0  0  0  0  0  0  0  0  0
    4.7202  -29.7762  -10.3887 C   0  0  0  0  0  0  0  0  0  0  0  0
    4.7397  -29.6708  -11.8927 C   0  0  0  0  0  0  0  0  0  0  0  0
    5.7791  -30.4226   -9.7081 C   0  0  0  0  0  0  0  0  0  0  0  0
    6.9390  -30.9947  -10.4697 C   0  0  0  0  0  0  0  0  0  0  0  0
    5.7671  -30.4975   -8.3314 C   0  0  0  0  0  0  0  0  0  0  0  0
    4.6960  -29.9897   -7.5901 C   0  0  0  0  0  0  0  0  0  0  0  0
    4.6133  -30.0945   -6.2080 N   0  0  0  0  0  0  0  0  0  0  0  0
    3.5273  -29.6623   -5.5449 C   0  0  0  0  0  0  0  0  0  0  0  0
    5.6565  -30.7686   -5.4299 C   0  0  0  0  0  0  0  0  0  0  0  0
    5.5997  -32.2781   -5.6408 C   0  0  2  0  0  0  0  0  0  0  0  0
    4.6710  -32.8479   -4.7643 O   0  0  0  0  0  0  0  0  0  0  0  0
    6.9965  -32.8819   -5.4494 C   0  0  2  0  0  0  0  0  0  0  0  0
    6.9643  -34.2784   -5.4911 O   0  0  0  0  0  0  0  0  0  0  0  0
    7.7123  -32.4915   -4.1653 C   0  0  2  0  0  0  0  0  0  0  0  0
    6.8211  -31.8637   -3.2545 O   0  0  0  0  0  0  0  0  0  0  0  0
    8.8586  -31.5536   -4.4805 C   0  0  0  0  0  0  0  0  0  0  0  0
    8.9713  -30.6427   -3.4272 O   0  0  0  0  0  0  0  0  0  0  0  0
   10.2777  -30.5773   -2.5610 P   0  0  1  0  0  0  0  0  0  0  0  0
   10.6457  -31.9533   -2.3308 O   0  0  0  0  0  0  0  0  0  0  0  0
   11.2290  -29.6613   -3.1608 O   0  0  0  0  0  0  0  0  0  0  0  0
    9.7915  -29.9322   -1.2189 O   0  0  0  0  0  0  0  0  0  0  0  0
    9.5445  -33.0958    0.4351 H   0  0  0  0  0  0  0  0  0  0  0  0
   11.2896  -32.9605    0.8110 H   0  0  0  0  0  0  0  0  0  0  0  0
   10.7624  -32.3428    3.0764 H   0  0  0  0  0  0  0  0  0  0  0  0
   10.6695  -34.9960    2.1690 H   0  0  0  0  0  0  0  0  0  0  0  0
   10.2727  -34.4238    4.8620 H   0  0  0  0  0  0  0  0  0  0  0  0
    8.2193  -35.1773    2.0425 H   0  0  0  0  0  0  0  0  0  0  0  0
    8.5111  -35.5653    4.8003 H   0  0  0  0  0  0  0  0  0  0  0  0
    8.0552  -33.5546    4.6081 H   0  0  0  0  0  0  0  0  0  0  0  0
    6.5292  -32.3307    1.3619 H   0  0  0  0  0  0  0  0  0  0  0  0
    1.1491  -33.5092    4.2758 H   0  0  0  0  0  0  0  0  0  0  0  0
    1.8998  -32.7748    2.8336 H   0  0  0  0  0  0  0  0  0  0  0  0
    4.5029  -35.0443    6.8204 H   0  0  0  0  0  0  0  0  0  0  0  0
    4.2510  -30.2660   -3.7457 H   0  0  0  0  0  0  0  0  0  0  0  0
    0.5717  -28.4744   -3.7284 H   0  0  0  0  0  0  0  0  0  0  0  0
    1.8444  -28.2966   -8.1065 H   0  0  0  0  0  0  0  0  0  0  0  0
    2.8963  -28.6832  -10.1938 H   0  0  0  0  0  0  0  0  0  0  0  0
    4.9323  -28.6279  -12.1847 H   0  0  0  0  0  0  0  0  0  0  0  0
    5.5337  -30.3169  -12.2953 H   0  0  0  0  0  0  0  0  0  0  0  0
    3.7672  -29.9907  -12.2953 H   0  0  0  0  0  0  0  0  0  0  0  0
    7.6943  -31.3673   -9.7621 H   0  0  0  0  0  0  0  0  0  0  0  0
    6.5890  -31.8236  -11.1025 H   0  0  0  0  0  0  0  0  0  0  0  0
    7.3836  -30.2126  -11.1025 H   0  0  0  0  0  0  0  0  0  0  0  0
    6.6143  -30.9643   -7.8077 H   0  0  0  0  0  0  0  0  0  0  0  0
    6.6414  -30.3968   -5.7489 H   0  0  0  0  0  0  0  0  0  0  0  0
    5.4937  -30.5555   -4.3631 H   0  0  0  0  0  0  0  0  0  0  0  0
    5.2721  -32.4958   -6.6681 H   0  0  0  0  0  0  0  0  0  0  0  0
    4.9505  -32.6764   -3.8302 H   0  0  0  0  0  0  0  0  0  0  0  0
    7.5620  -32.4560   -6.2913 H   0  0  0  0  0  0  0  0  0  0  0  0
    6.9561  -34.6360   -4.5680 H   0  0  0  0  0  0  0  0  0  0  0  0
    8.1006  -33.4079   -3.6970 H   0  0  0  0  0  0  0  0  0  0  0  0
    7.1034  -32.0625   -2.3266 H   0  0  0  0  0  0  0  0  0  0  0  0
    9.7927  -32.1259   -4.5811 H   0  0  0  0  0  0  0  0  0  0  0  0
    8.6710  -31.0240   -5.4262 H   0  0  0  0  0  0  0  0  0  0  0  0
  1  2  2  0
  1  3  1  6
  1  4  1  0
  1 53  1  0
  4  5  1  0
  6  5  1  0
  6  7  1  0
  6  8  1  0
  7 12  1  0
  8  9  1  0
  8 10  1  0
 10 11  1  0
 10 12  1  0
 12 13  1  0
 13 14  1  0
 13 22  1  0
 14 15  2  0
 15 16  1  0
 16 17  2  0
 16 22  1  0
 17 18  1  0
 17 19  1  0
 19 20  2  0
 20 21  1  0
 21 22  2  0
 23 24  1  0
 23 40  1  0
 24 25  2  0
 24 26  1  0
 26 27  1  0
 27 28  2  0
 27 29  1  0
 29 30  1  0
 29 40  2  0
 30 31  1  0
 31 32  2  0
 31 38  1  0
 32 33  1  0
 33 34  1  0
 33 35  2  0
 35 36  1  0
 35 37  1  0
 37 38  2  0
 38 39  1  0
 39 40  1  0
 39 41  1  0
 41 42  1  0
 42 43  1  0
 42 44  1  0
 44 45  1  0
 44 46  1  0
 46 47  1  0
 46 48  1  0
 48 49  1  0
 49 50  1  0
 50 51  2  0
 50 52  1  6
 50 53  1  0
  5 54  1  0
  5 55  1  0
  6 56  1  1
  8 57  1  6
  9 58  1  0
 10 59  1  6
 11 60  1  0
 12 61  1  1
 14 62  1  0
 18 63  1  0
 18 64  1  0
 20 65  1  0
 23 66  1  0
 26 67  1  0
 30 68  1  0
 32 69  1  0
 34 70  1  0
 34 71  1  0
 34 72  1  0
 36 73  1  0
 36 74  1  0
 36 75  1  0
 37 76  1  0
 41 77  1  0
 41 78  1  0
 42 79  1  6
 43 80  1  0
 44 81  1  6
 45 82  1  0
 46 83  1  1
 47 84  1  0
 48 85  1  0
 48 86  1  0
M  CHG  2   3  -1  52  -1
M  END
>  <filename_input>  (11) 
7EPV_FDA_docked.sdf

>  <pdb_id>  (11) 
7EPV_FDA

>  <pose_rank>  (11) 
10

>  <num_atoms_heavy>  (11) 
53

>  <num_torsions>  (11) 
13

>  <pose>  (11) 
[8.971309914926449, -30.642739288238374, -3.4272123949195445, 2.20058452691874, 0.7442537259358871, -1.3235749750347725, -3.940370302097946, 0.31312844253536665, 6.265141826042622, -3.3238892533262727, -11.057100394249666, -1.91365022246005, -0.8809066948132153, -1.4572362265397554, -0.5808664192802809, 1.2169418886642278, -2.237523499788622, -0.5395738340389373, -3.1956425783092985]

>  <energy>  (11) 
-706.195495583919

>  <inter_energy>  (11) 
-758.016977230081

>  <intra_energy>  (11) 
59.56029054125626

>  <rmsd>  (11) 
13.1387

>  <sdf_rank>  (11) 
0

$$$$

     RDKit          3D

 86 91  0  0  0  0  0  0  0  0999 V2000
    1.9971  -28.9298   -6.9566 P   0  0  2  0  0  0  0  0  0  0  0  0
    0.6508  -29.0927   -7.5072 O   0  0  0  0  0  0  0  0  0  0  0  0
    2.4343  -27.5666   -6.7328 O   0  0  0  0  0  0  0  0  0  0  0  0
    3.0580  -29.6902   -7.8410 O   0  0  0  0  0  0  0  0  0  0  0  0
    3.7058  -29.0297   -8.9273 C   0  0  0  0  0  0  0  0  0  0  0  0
    3.5964  -29.8976  -10.1526 C   0  0  1  0  0  0  0  0  0  0  0  0
    3.4313  -29.0925  -11.3379 O   0  0  0  0  0  0  0  0  0  0  0  0
    4.8061  -30.8090  -10.3950 C   0  0  1  0  0  0  0  0  0  0  0  0
    4.4148  -32.1326  -10.6864 O   0  0  0  0  0  0  0  0  0  0  0  0
    5.5313  -30.0877  -11.5449 C   0  0  1  0  0  0  0  0  0  0  0  0
    6.2809  -30.9649  -12.3305 O   0  0  0  0  0  0  0  0  0  0  0  0
    4.3626  -29.4877  -12.3168 C   0  0  2  0  0  0  0  0  0  0  0  0
    4.6658  -28.3408  -13.1458 N   0  0  0  0  0  0  0  0  0  0  0  0
    4.0113  -27.9140  -14.2567 C   0  0  0  0  0  0  0  0  0  0  0  0
    4.5784  -26.8856  -14.8398 N   0  0  0  0  0  0  0  0  0  0  0  0
    5.7057  -26.6466  -14.0776 C   0  0  0  0  0  0  0  0  0  0  0  0
    6.7434  -25.7019  -14.1708 C   0  0  0  0  0  0  0  0  0  0  0  0
    6.8283  -24.7970  -15.1325 N   0  0  0  0  0  0  0  0  0  0  0  0
    7.7261  -25.7708  -13.2543 N   0  0  0  0  0  0  0  0  0  0  0  0
    7.6630  -26.7026  -12.3083 C   0  0  0  0  0  0  0  0  0  0  0  0
    6.7291  -27.6177  -12.1175 N   0  0  0  0  0  0  0  0  0  0  0  0
    5.7720  -27.5471  -13.0413 C   0  0  0  0  0  0  0  0  0  0  0  0
    4.8932  -35.2943   -7.6257 N   0  0  0  0  0  0  0  0  0  0  0  0
    4.2771  -35.7710   -8.6654 C   0  0  0  0  0  0  0  0  0  0  0  0
    3.1319  -35.4956   -8.8641 O   0  0  0  0  0  0  0  0  0  0  0  0
    4.9206  -36.5659   -9.5735 N   0  0  0  0  0  0  0  0  0  0  0  0
    6.2374  -36.9310   -9.4214 C   0  0  0  0  0  0  0  0  0  0  0  0
    6.7816  -37.6321  -10.2533 O   0  0  0  0  0  0  0  0  0  0  0  0
    6.8963  -36.4854   -8.2929 C   0  0  0  0  0  0  0  0  0  0  0  0
    8.1289  -36.8321   -8.0962 N   0  0  0  0  0  0  0  0  0  0  0  0
    8.7176  -36.4274   -6.9351 C   0  0  0  0  0  0  0  0  0  0  0  0
   10.0308  -36.8468   -6.6657 C   0  0  0  0  0  0  0  0  0  0  0  0
   10.6562  -36.5024   -5.4997 C   0  0  0  0  0  0  0  0  0  0  0  0
   12.0505  -36.9959   -5.2061 C   0  0  0  0  0  0  0  0  0  0  0  0
    9.9930  -35.6575   -4.5785 C   0  0  0  0  0  0  0  0  0  0  0  0
   10.6719  -35.2295   -3.3102 C   0  0  0  0  0  0  0  0  0  0  0  0
    8.7266  -35.1918   -4.8617 C   0  0  0  0  0  0  0  0  0  0  0  0
    8.0573  -35.5819   -6.0255 C   0  0  0  0  0  0  0  0  0  0  0  0
    6.7605  -35.1852   -6.3235 N   0  0  0  0  0  0  0  0  0  0  0  0
    6.1284  -35.6490   -7.4149 C   0  0  0  0  0  0  0  0  0  0  0  0
    5.9957  -34.3292   -5.4121 C   0  0  0  0  0  0  0  0  0  0  0  0
    6.6741  -32.9734   -5.2449 C   0  0  2  0  0  0  0  0  0  0  0  0
    6.6719  -32.6017   -3.8968 O   0  0  0  0  0  0  0  0  0  0  0  0
    5.9674  -31.9283   -6.1169 C   0  0  2  0  0  0  0  0  0  0  0  0
    6.1291  -32.1988   -7.4784 O   0  0  0  0  0  0  0  0  0  0  0  0
    6.3979  -30.4863   -5.8955 C   0  0  2  0  0  0  0  0  0  0  0  0
    7.7519  -30.4169   -5.4713 O   0  0  0  0  0  0  0  0  0  0  0  0
    5.5075  -29.8376   -4.8567 C   0  0  0  0  0  0  0  0  0  0  0  0
    4.2472  -30.4352   -4.9366 O   0  0  0  0  0  0  0  0  0  0  0  0
    2.9758  -29.7008   -4.3841 P   0  0  1  0  0  0  0  0  0  0  0  0
    2.4714  -30.5573   -3.3383 O   0  0  0  0  0  0  0  0  0  0  0  0
    3.2851  -28.3123   -4.1003 O   0  0  0  0  0  0  0  0  0  0  0  0
    1.9885  -29.7196   -5.6001 O   0  0  0  0  0  0  0  0  0  0  0  0
    3.2194  -28.0611   -9.1148 H   0  0  0  0  0  0  0  0  0  0  0  0
    4.7643  -28.8563   -8.6835 H   0  0  0  0  0  0  0  0  0  0  0  0
    2.7193  -30.5323   -9.9579 H   0  0  0  0  0  0  0  0  0  0  0  0
    5.4596  -30.9459   -9.5209 H   0  0  0  0  0  0  0  0  0  0  0  0
    4.2686  -32.6271   -9.8413 H   0  0  0  0  0  0  0  0  0  0  0  0
    6.2701  -29.3467  -11.2055 H   0  0  0  0  0  0  0  0  0  0  0  0
    6.7993  -31.5717  -11.7447 H   0  0  0  0  0  0  0  0  0  0  0  0
    4.0084  -30.2519  -13.0243 H   0  0  0  0  0  0  0  0  0  0  0  0
    3.0916  -28.3866  -14.6321 H   0  0  0  0  0  0  0  0  0  0  0  0
    7.6143  -24.1315  -15.1455 H   0  0  0  0  0  0  0  0  0  0  0  0
    6.1084  -24.7581  -15.8681 H   0  0  0  0  0  0  0  0  0  0  0  0
    8.4969  -26.7133  -11.5910 H   0  0  0  0  0  0  0  0  0  0  0  0
    4.4145  -34.6490   -6.9812 H   0  0  0  0  0  0  0  0  0  0  0  0
    4.4022  -36.9018  -10.3978 H   0  0  0  0  0  0  0  0  0  0  0  0
    8.6442  -37.3921   -8.7903 H   0  0  0  0  0  0  0  0  0  0  0  0
   10.5647  -37.4621   -7.4049 H   0  0  0  0  0  0  0  0  0  0  0  0
   12.1991  -37.0485   -4.1174 H   0  0  0  0  0  0  0  0  0  0  0  0
   12.1850  -37.9963   -5.6433 H   0  0  0  0  0  0  0  0  0  0  0  0
   12.7844  -36.3029   -5.6433 H   0  0  0  0  0  0  0  0  0  0  0  0
   10.0964  -35.5923   -2.4458 H   0  0  0  0  0  0  0  0  0  0  0  0
   11.6874  -35.6511   -3.2777 H   0  0  0  0  0  0  0  0  0  0  0  0
   10.7295  -34.1315   -3.2777 H   0  0  0  0  0  0  0  0  0  0  0  0
    8.2346  -34.5018   -4.1603 H   0  0  0  0  0  0  0  0  0  0  0  0
    4.9856  -34.1790   -5.8209 H   0  0  0  0  0  0  0  0  0  0  0  0
    5.9420  -34.8201   -4.4292 H   0  0  0  0  0  0  0  0  0  0  0  0
    7.7213  -33.0408   -5.5748 H   0  0  0  0  0  0  0  0  0  0  0  0
    6.6768  -33.4138   -3.3306 H   0  0  0  0  0  0  0  0  0  0  0  0
    4.9180  -32.0173   -5.7993 H   0  0  0  0  0  0  0  0  0  0  0  0
    6.6337  -33.0432   -7.5894 H   0  0  0  0  0  0  0  0  0  0  0  0
    6.3045  -29.9500   -6.8514 H   0  0  0  0  0  0  0  0  0  0  0  0
    7.7880  -30.4150   -4.4819 H   0  0  0  0  0  0  0  0  0  0  0  0
    5.9309  -29.9914   -3.8531 H   0  0  0  0  0  0  0  0  0  0  0  0
    5.4304  -28.7557   -5.0402 H   0  0  0  0  0  0  0  0  0  0  0  0
  1  2  2  0
  1  3  1  1
  1  4  1  0
  1 53  1  0
  4  5  1  0
  6  5  1  0
  6  7  1  0
  6  8  1  0
  7 12  1  0
  8  9  1  0
  8 10  1  0
 10 11  1  0
 10 12  1  0
 12 13  1  0
 13 14  1  0
 13 22  1  0
 14 15  2  0
 15 16  1  0
 16 17  2  0
 16 22  1  0
 17 18  1  0
 17 19  1  0
 19 20  2  0
 20 21  1  0
 21 22  2  0
 23 24  1  0
 23 40  1  0
 24 25  2  0
 24 26  1  0
 26 27  1  0
 27 28  2  0
 27 29  1  0
 29 30  1  0
 29 40  2  0
 30 31  1  0
 31 32  2  0
 31 38  1  0
 32 33  1  0
 33 34  1  0
 33 35  2  0
 35 36  1  0
 35 37  1  0
 37 38  2  0
 38 39  1  0
 39 40  1  0
 39 41  1  0
 41 42  1  0
 42 43  1  0
 42 44  1  0
 44 45  1  0
 44 46  1  0
 46 47  1  0
 46 48  1  0
 48 49  1  0
 49 50  1  0
 50 51  2  0
 50 52  1  1
 50 53  1  0
  5 54  1  0
  5 55  1  0
  6 56  1  1
  8 57  1  1
  9 58  1  0
 10 59  1  1
 11 60  1  0
 12 61  1  6
 14 62  1  0
 18 63  1  0
 18 64  1  0
 20 65  1  0
 23 66  1  0
 26 67  1  0
 30 68  1  0
 32 69  1  0
 34 70  1  0
 34 71  1  0
 34 72  1  0
 36 73  1  0
 36 74  1  0
 36 75  1  0
 37 76  1  0
 41 77  1  0
 41 78  1  0
 42 79  1  6
 43 80  1  0
 44 81  1  1
 45 82  1  0
 46 83  1  6
 47 84  1  0
 48 85  1  0
 48 86  1  0
M  CHG  2   3  -1  52  -1
M  END
>  <filename_input>  (12) 
7EPV_FDA_docked.sdf

>  <pdb_id>  (12) 
7EPV_FDA

>  <pose_rank>  (12) 
11

>  <num_atoms_heavy>  (12) 
53

>  <num_torsions>  (12) 
13

>  <pose>  (12) 
[4.247226220984505, -30.435216587860182, -4.936600846577176, 0.6679302651096924, 1.2115499950564808, 0.49000311530334895, 13.580951079497844, -14.909303938882582, -6.380481068652933, -4.06523657353634, 1.190406580663646, 30.934763220265186, 3.437888153086079, 12.56510992844216, -22.495717044311405, -11.052538645147317, -6.423184329178711, -20.279713110764746, -13.415660536099361]

>  <energy>  (12) 
-695.8107563229863

>  <inter_energy>  (12) 
-754.9915445370918

>  <intra_energy>  (12) 
69.11819132846838

>  <rmsd>  (12) 
6.94316

>  <sdf_rank>  (12) 
0

$$$$

     RDKit          3D

 86 91  0  0  0  0  0  0  0  0999 V2000
    4.9832  -30.4226   -7.0481 P   0  0  2  0  0  0  0  0  0  0  0  0
    3.5481  -30.7045   -6.9926 O   0  0  0  0  0  0  0  0  0  0  0  0
    5.5683  -29.8525   -5.8513 O   0  0  0  0  0  0  0  0  0  0  0  0
    5.3267  -29.5161   -8.2917 O   0  0  0  0  0  0  0  0  0  0  0  0
    4.2922  -29.0371   -9.1496 C   0  0  0  0  0  0  0  0  0  0  0  0
    4.1568  -29.9814  -10.3144 C   0  0  1  0  0  0  0  0  0  0  0  0
    3.8036  -29.2660  -11.5159 O   0  0  0  0  0  0  0  0  0  0  0  0
    5.4237  -30.7872  -10.6288 C   0  0  1  0  0  0  0  0  0  0  0  0
    5.1407  -32.1565  -10.8153 O   0  0  0  0  0  0  0  0  0  0  0  0
    5.9641  -30.0689  -11.8780 C   0  0  1  0  0  0  0  0  0  0  0  0
    6.7213  -30.9159  -12.6891 O   0  0  0  0  0  0  0  0  0  0  0  0
    4.6752  -29.6280  -12.5605 C   0  0  2  0  0  0  0  0  0  0  0  0
    4.7848  -28.5079  -13.4705 N   0  0  0  0  0  0  0  0  0  0  0  0
    4.1278  -28.3142  -14.6433 C   0  0  0  0  0  0  0  0  0  0  0  0
    4.5041  -27.2351  -15.2859 N   0  0  0  0  0  0  0  0  0  0  0  0
    5.5059  -26.7054  -14.4956 C   0  0  0  0  0  0  0  0  0  0  0  0
    6.3278  -25.5711  -14.6217 C   0  0  0  0  0  0  0  0  0  0  0  0
    6.2833  -24.7431  -15.6529 N   0  0  0  0  0  0  0  0  0  0  0  0
    7.2428  -25.3607  -13.6580 N   0  0  0  0  0  0  0  0  0  0  0  0
    7.3152  -26.2114  -12.6391 C   0  0  0  0  0  0  0  0  0  0  0  0
    6.5823  -27.2875  -12.4136 N   0  0  0  0  0  0  0  0  0  0  0  0
    5.6924  -27.4913  -13.3835 C   0  0  0  0  0  0  0  0  0  0  0  0
    1.7982  -39.0974   -4.2866 N   0  0  0  0  0  0  0  0  0  0  0  0
    1.5778  -38.9771   -3.0119 C   0  0  0  0  0  0  0  0  0  0  0  0
    2.4732  -39.1075   -2.2321 O   0  0  0  0  0  0  0  0  0  0  0  0
    0.3362  -38.6673   -2.5289 N   0  0  0  0  0  0  0  0  0  0  0  0
   -0.7490  -38.5000   -3.3564 C   0  0  0  0  0  0  0  0  0  0  0  0
   -1.8375  -38.2157   -2.8938 O   0  0  0  0  0  0  0  0  0  0  0  0
   -0.5519  -38.6817   -4.7108 C   0  0  0  0  0  0  0  0  0  0  0  0
   -1.5550  -38.5635   -5.5220 N   0  0  0  0  0  0  0  0  0  0  0  0
   -1.3292  -38.8202   -6.8417 C   0  0  0  0  0  0  0  0  0  0  0  0
   -2.4142  -38.7657   -7.7322 C   0  0  0  0  0  0  0  0  0  0  0  0
   -2.2527  -39.0514   -9.0594 C   0  0  0  0  0  0  0  0  0  0  0  0
   -3.4351  -39.0304   -9.9948 C   0  0  0  0  0  0  0  0  0  0  0  0
   -0.9600  -39.3443   -9.5550 C   0  0  0  0  0  0  0  0  0  0  0  0
   -0.7469  -39.6202  -11.0148 C   0  0  0  0  0  0  0  0  0  0  0  0
    0.1211  -39.3412   -8.6994 C   0  0  0  0  0  0  0  0  0  0  0  0
   -0.0416  -39.1040   -7.3312 C   0  0  0  0  0  0  0  0  0  0  0  0
    1.0085  -39.1487   -6.4239 N   0  0  0  0  0  0  0  0  0  0  0  0
    0.7922  -38.9925   -5.1068 C   0  0  0  0  0  0  0  0  0  0  0  0
    2.3738  -39.4669   -6.8515 C   0  0  0  0  0  0  0  0  0  0  0  0
    2.8658  -38.4604   -7.8866 C   0  0  2  0  0  0  0  0  0  0  0  0
    3.3540  -39.1327   -9.0114 O   0  0  0  0  0  0  0  0  0  0  0  0
    3.9369  -37.5567   -7.2635 C   0  0  2  0  0  0  0  0  0  0  0  0
    4.3134  -38.0036   -5.9941 O   0  0  0  0  0  0  0  0  0  0  0  0
    3.5611  -36.0892   -7.1254 C   0  0  2  0  0  0  0  0  0  0  0  0
    2.2512  -35.8488   -7.6194 O   0  0  0  0  0  0  0  0  0  0  0  0
    4.5534  -35.2310   -7.8816 C   0  0  0  0  0  0  0  0  0  0  0  0
    4.4076  -33.9138   -7.4394 O   0  0  0  0  0  0  0  0  0  0  0  0
    5.5692  -33.1943   -6.6686 P   0  0  1  0  0  0  0  0  0  0  0  0
    5.0781  -33.0232   -5.3227 O   0  0  0  0  0  0  0  0  0  0  0  0
    6.8246  -33.8823   -6.9021 O   0  0  0  0  0  0  0  0  0  0  0  0
    5.6636  -31.7990   -7.3744 O   0  0  0  0  0  0  0  0  0  0  0  0
    3.3426  -28.9933   -8.5961 H   0  0  0  0  0  0  0  0  0  0  0  0
    4.5414  -28.0286   -9.5112 H   0  0  0  0  0  0  0  0  0  0  0  0
    3.3691  -30.6836  -10.0040 H   0  0  0  0  0  0  0  0  0  0  0  0
    6.1655  -30.8106   -9.8169 H   0  0  0  0  0  0  0  0  0  0  0  0
    5.0496  -32.5977   -9.9337 H   0  0  0  0  0  0  0  0  0  0  0  0
    6.6537  -29.2430  -11.6491 H   0  0  0  0  0  0  0  0  0  0  0  0
    7.2618  -31.5204  -12.1211 H   0  0  0  0  0  0  0  0  0  0  0  0
    4.3349  -30.4622  -13.1917 H   0  0  0  0  0  0  0  0  0  0  0  0
    3.3527  -28.9985  -15.0188 H   0  0  0  0  0  0  0  0  0  0  0  0
    6.9125  -23.9284  -15.6868 H   0  0  0  0  0  0  0  0  0  0  0  0
    5.6194  -24.9134  -16.4218 H   0  0  0  0  0  0  0  0  0  0  0  0
    8.0856  -25.9908  -11.8855 H   0  0  0  0  0  0  0  0  0  0  0  0
    2.7493  -39.2723   -4.6412 H   0  0  0  0  0  0  0  0  0  0  0  0
    0.2102  -38.5557   -1.5127 H   0  0  0  0  0  0  0  0  0  0  0  0
   -2.4873  -38.2862   -5.1829 H   0  0  0  0  0  0  0  0  0  0  0  0
   -3.4100  -38.4888   -7.3555 H   0  0  0  0  0  0  0  0  0  0  0  0
   -4.3659  -39.0139   -9.4088 H   0  0  0  0  0  0  0  0  0  0  0  0
   -3.3851  -38.1330  -10.6290 H   0  0  0  0  0  0  0  0  0  0  0  0
   -3.4170  -39.9290  -10.6290 H   0  0  0  0  0  0  0  0  0  0  0  0
   -0.0784  -40.4861  -11.1306 H   0  0  0  0  0  0  0  0  0  0  0  0
   -1.7140  -39.8373  -11.4919 H   0  0  0  0  0  0  0  0  0  0  0  0
   -0.2922  -38.7395  -11.4919 H   0  0  0  0  0  0  0  0  0  0  0  0
    1.1284  -39.5284   -9.0998 H   0  0  0  0  0  0  0  0  0  0  0  0
    3.0409  -39.4404   -5.9773 H   0  0  0  0  0  0  0  0  0  0  0  0
    2.3765  -40.4689   -7.3052 H   0  0  0  0  0  0  0  0  0  0  0  0
    2.0290  -37.8240   -8.2103 H   0  0  0  0  0  0  0  0  0  0  0  0
    3.9104  -39.8988   -8.7223 H   0  0  0  0  0  0  0  0  0  0  0  0
    4.7623  -37.6246   -7.9875 H   0  0  0  0  0  0  0  0  0  0  0  0
    3.8561  -37.4607   -5.3040 H   0  0  0  0  0  0  0  0  0  0  0  0
    3.5837  -35.8287   -6.0569 H   0  0  0  0  0  0  0  0  0  0  0  0
    1.6276  -35.7343   -6.8590 H   0  0  0  0  0  0  0  0  0  0  0  0
    5.5773  -35.5806   -7.6829 H   0  0  0  0  0  0  0  0  0  0  0  0
    4.3675  -35.2943   -8.9639 H   0  0  0  0  0  0  0  0  0  0  0  0
  1  2  2  0
  1  3  1  1
  1  4  1  0
  1 53  1  0
  4  5  1  0
  6  5  1  0
  6  7  1  0
  6  8  1  0
  7 12  1  0
  8  9  1  0
  8 10  1  0
 10 11  1  0
 10 12  1  0
 12 13  1  0
 13 14  1  0
 13 22  1  0
 14 15  2  0
 15 16  1  0
 16 17  2  0
 16 22  1  0
 17 18  1  0
 17 19  1  0
 19 20  2  0
 20 21  1  0
 21 22  2  0
 23 24  1  0
 23 40  1  0
 24 25  2  0
 24 26  1  0
 26 27  1  0
 27 28  2  0
 27 29  1  0
 29 30  1  0
 29 40  2  0
 30 31  1  0
 31 32  2  0
 31 38  1  0
 32 33  1  0
 33 34  1  0
 33 35  2  0
 35 36  1  0
 35 37  1  0
 37 38  2  0
 38 39  1  0
 39 40  1  0
 39 41  1  0
 41 42  1  0
 42 43  1  0
 42 44  1  0
 44 45  1  0
 44 46  1  0
 46 47  1  0
 46 48  1  0
 48 49  1  0
 49 50  1  0
 50 51  2  0
 50 52  1  1
 50 53  1  0
  5 54  1  0
  5 55  1  0
  6 56  1  1
  8 57  1  1
  9 58  1  0
 10 59  1  1
 11 60  1  0
 12 61  1  6
 14 62  1  0
 18 63  1  0
 18 64  1  0
 20 65  1  0
 23 66  1  0
 26 67  1  0
 30 68  1  0
 32 69  1  0
 34 70  1  0
 34 71  1  0
 34 72  1  0
 36 73  1  0
 36 74  1  0
 36 75  1  0
 37 76  1  0
 41 77  1  0
 41 78  1  0
 42 79  1  6
 43 80  1  0
 44 81  1  6
 45 82  1  0
 46 83  1  1
 47 84  1  0
 48 85  1  0
 48 86  1  0
M  CHG  2   3  -1  52  -1
M  END
>  <filename_input>  (13) 
7EPV_FDA_docked.sdf

>  <pdb_id>  (13) 
7EPV_FDA

>  <pose_rank>  (13) 
12

>  <num_atoms_heavy>  (13) 
53

>  <num_torsions>  (13) 
13

>  <pose>  (13) 
[4.407599781409201, -33.91378055882703, -7.43943816416501, -3.363488404661039, -0.8875335602284878, 2.2679153932864344, 1.1282042340869376, 0.5241557125796464, -4.449795671523589, 0.6908490870221985, 1.803943167137957, -5.540576824548841, -3.0370764176202574, -1.513942266839564, -5.979513900291894, 0.9962814112645447, 1.1626227493627905, -1.2899102660954267, -0.9004446118047575]

>  <energy>  (13) 
-692.4506064373967

>  <inter_energy>  (13) 
-737.9384277265392

>  <intra_energy>  (13) 
51.76743792786702

>  <rmsd>  (13) 
9.25154

>  <sdf_rank>  (13) 
0

$$$$

     RDKit          3D

 86 91  0  0  0  0  0  0  0  0999 V2000
    2.3474  -30.1582   -2.9637 P   0  0  2  0  0  0  0  0  0  0  0  0
    1.5548  -28.9392   -2.7966 O   0  0  0  0  0  0  0  0  0  0  0  0
    1.6079  -31.4044   -2.9696 O   0  0  0  0  0  0  0  0  0  0  0  0
    3.4984  -30.2279   -1.8885 O   0  0  0  0  0  0  0  0  0  0  0  0
    4.7750  -30.7695   -2.2245 C   0  0  0  0  0  0  0  0  0  0  0  0
    5.7574  -30.3902   -1.1486 C   0  0  1  0  0  0  0  0  0  0  0  0
    5.1904  -30.6013    0.1607 O   0  0  0  0  0  0  0  0  0  0  0  0
    7.0799  -31.1659   -1.1945 C   0  0  1  0  0  0  0  0  0  0  0  0
    8.1941  -30.3091   -1.0746 O   0  0  0  0  0  0  0  0  0  0  0  0
    6.9118  -32.1639   -0.0351 C   0  0  1  0  0  0  0  0  0  0  0  0
    8.1367  -32.5530    0.5098 O   0  0  0  0  0  0  0  0  0  0  0  0
    6.0812  -31.3521    0.9511 C   0  0  2  0  0  0  0  0  0  0  0  0
    5.3087  -32.1103    1.9119 N   0  0  0  0  0  0  0  0  0  0  0  0
    3.9774  -32.0282    2.1678 C   0  0  0  0  0  0  0  0  0  0  0  0
    3.5835  -32.7910    3.1588 N   0  0  0  0  0  0  0  0  0  0  0  0
    4.7467  -33.3857    3.6082 C   0  0  0  0  0  0  0  0  0  0  0  0
    5.0199  -34.2940    4.6467 C   0  0  0  0  0  0  0  0  0  0  0  0
    4.0991  -34.7626    5.4733 N   0  0  0  0  0  0  0  0  0  0  0  0
    6.3031  -34.6543    4.8310 N   0  0  0  0  0  0  0  0  0  0  0  0
    7.2360  -34.1564    4.0255 C   0  0  0  0  0  0  0  0  0  0  0  0
    7.0864  -33.3204    3.0132 N   0  0  0  0  0  0  0  0  0  0  0  0
    5.8138  -32.9608    2.8533 C   0  0  0  0  0  0  0  0  0  0  0  0
    6.7113  -34.6147   -6.8246 N   0  0  0  0  0  0  0  0  0  0  0  0
    5.9180  -35.4055   -6.1664 C   0  0  0  0  0  0  0  0  0  0  0  0
    5.0849  -34.9528   -5.4400 O   0  0  0  0  0  0  0  0  0  0  0  0
    5.9871  -36.7642   -6.3078 N   0  0  0  0  0  0  0  0  0  0  0  0
    6.9155  -37.3678   -7.1228 C   0  0  0  0  0  0  0  0  0  0  0  0
    6.9431  -38.5790   -7.2324 O   0  0  0  0  0  0  0  0  0  0  0  0
    7.8084  -36.5503   -7.7867 C   0  0  0  0  0  0  0  0  0  0  0  0
    8.7187  -37.0808   -8.5405 N   0  0  0  0  0  0  0  0  0  0  0  0
    9.6220  -36.2405   -9.1205 C   0  0  0  0  0  0  0  0  0  0  0  0
   10.6599  -36.7952   -9.8874 C   0  0  0  0  0  0  0  0  0  0  0  0
   11.6152  -36.0024  -10.4602 C   0  0  0  0  0  0  0  0  0  0  0  0
   12.7473  -36.6160  -11.2448 C   0  0  0  0  0  0  0  0  0  0  0  0
   11.5204  -34.5964  -10.3313 C   0  0  0  0  0  0  0  0  0  0  0  0
   12.5315  -33.7004  -10.9851 C   0  0  0  0  0  0  0  0  0  0  0  0
   10.4715  -34.0396   -9.6309 C   0  0  0  0  0  0  0  0  0  0  0  0
    9.5200  -34.8433   -8.9957 C   0  0  0  0  0  0  0  0  0  0  0  0
    8.4812  -34.3284   -8.2316 N   0  0  0  0  0  0  0  0  0  0  0  0
    7.6368  -35.1413   -7.5742 C   0  0  0  0  0  0  0  0  0  0  0  0
    8.3249  -32.8852   -8.0296 C   0  0  0  0  0  0  0  0  0  0  0  0
    7.1556  -32.3470   -8.8479 C   0  0  2  0  0  0  0  0  0  0  0  0
    7.5913  -31.9967  -10.1296 O   0  0  0  0  0  0  0  0  0  0  0  0
    6.5217  -31.1526   -8.1241 C   0  0  2  0  0  0  0  0  0  0  0  0
    7.1054  -30.9397   -6.8724 O   0  0  0  0  0  0  0  0  0  0  0  0
    5.0188  -31.2371   -7.9058 C   0  0  2  0  0  0  0  0  0  0  0  0
    4.3122  -30.6186   -8.9717 O   0  0  0  0  0  0  0  0  0  0  0  0
    4.6508  -30.5680   -6.5982 C   0  0  0  0  0  0  0  0  0  0  0  0
    3.4128  -29.9433   -6.7681 O   0  0  0  0  0  0  0  0  0  0  0  0
    2.7597  -29.1278   -5.5978 P   0  0  1  0  0  0  0  0  0  0  0  0
    3.4854  -27.8814   -5.5571 O   0  0  0  0  0  0  0  0  0  0  0  0
    1.3159  -29.1239   -5.7369 O   0  0  0  0  0  0  0  0  0  0  0  0
    3.1036  -29.9772   -4.3272 O   0  0  0  0  0  0  0  0  0  0  0  0
    4.7059  -31.8652   -2.2934 H   0  0  0  0  0  0  0  0  0  0  0  0
    5.1081  -30.3713   -3.1943 H   0  0  0  0  0  0  0  0  0  0  0  0
    5.9728  -29.3286   -1.3402 H   0  0  0  0  0  0  0  0  0  0  0  0
    7.2794  -31.6762   -2.1483 H   0  0  0  0  0  0  0  0  0  0  0  0
    8.3919  -30.1570   -0.1166 H   0  0  0  0  0  0  0  0  0  0  0  0
    6.4467  -33.1147   -0.3346 H   0  0  0  0  0  0  0  0  0  0  0  0
    8.0790  -32.5347    1.4979 H   0  0  0  0  0  0  0  0  0  0  0  0
    6.7799  -30.7636    1.5638 H   0  0  0  0  0  0  0  0  0  0  0  0
    3.2937  -31.3824    1.5972 H   0  0  0  0  0  0  0  0  0  0  0  0
    4.3629  -35.4268    6.2151 H   0  0  0  0  0  0  0  0  0  0  0  0
    3.1184  -34.4633    5.3750 H   0  0  0  0  0  0  0  0  0  0  0  0
    8.2667  -34.4829    4.2280 H   0  0  0  0  0  0  0  0  0  0  0  0
    6.6102  -33.5920   -6.7549 H   0  0  0  0  0  0  0  0  0  0  0  0
    5.3224  -37.3540   -5.7872 H   0  0  0  0  0  0  0  0  0  0  0  0
    8.7584  -38.0983   -8.6956 H   0  0  0  0  0  0  0  0  0  0  0  0
   10.7048  -37.8851  -10.0293 H   0  0  0  0  0  0  0  0  0  0  0  0
   13.4970  -37.0224  -10.5499 H   0  0  0  0  0  0  0  0  0  0  0  0
   12.3574  -37.4263  -11.8784 H   0  0  0  0  0  0  0  0  0  0  0  0
   13.2133  -35.8470  -11.8784 H   0  0  0  0  0  0  0  0  0  0  0  0
   13.1166  -33.1819  -10.2112 H   0  0  0  0  0  0  0  0  0  0  0  0
   13.2052  -34.3035  -11.6115 H   0  0  0  0  0  0  0  0  0  0  0  0
   12.0138  -32.9591  -11.6115 H   0  0  0  0  0  0  0  0  0  0  0  0
   10.3817  -32.9449   -9.5709 H   0  0  0  0  0  0  0  0  0  0  0  0
    8.1396  -32.6883   -6.9633 H   0  0  0  0  0  0  0  0  0  0  0  0
    9.2461  -32.3815   -8.3577 H   0  0  0  0  0  0  0  0  0  0  0  0
    6.3881  -33.1279   -8.9538 H   0  0  0  0  0  0  0  0  0  0  0  0
    8.3609  -31.3780  -10.0589 H   0  0  0  0  0  0  0  0  0  0  0  0
    6.7135  -30.3200   -8.8169 H   0  0  0  0  0  0  0  0  0  0  0  0
    6.4578  -31.1759   -6.1618 H   0  0  0  0  0  0  0  0  0  0  0  0
    4.7366  -32.2998   -7.8712 H   0  0  0  0  0  0  0  0  0  0  0  0
    3.6211  -30.0136   -8.6023 H   0  0  0  0  0  0  0  0  0  0  0  0
    4.5827  -31.3211   -5.7993 H   0  0  0  0  0  0  0  0  0  0  0  0
    5.4165  -29.8301   -6.3170 H   0  0  0  0  0  0  0  0  0  0  0  0
  1  2  2  0
  1  3  1  6
  1  4  1  0
  1 53  1  0
  4  5  1  0
  6  5  1  0
  6  7  1  0
  6  8  1  0
  7 12  1  0
  8  9  1  0
  8 10  1  0
 10 11  1  0
 10 12  1  0
 12 13  1  0
 13 14  1  0
 13 22  1  0
 14 15  2  0
 15 16  1  0
 16 17  2  0
 16 22  1  0
 17 18  1  0
 17 19  1  0
 19 20  2  0
 20 21  1  0
 21 22  2  0
 23 24  1  0
 23 40  1  0
 24 25  2  0
 24 26  1  0
 26 27  1  0
 27 28  2  0
 27 29  1  0
 29 30  1  0
 29 40  2  0
 30 31  1  0
 31 32  2  0
 31 38  1  0
 32 33  1  0
 33 34  1  0
 33 35  2  0
 35 36  1  0
 35 37  1  0
 37 38  2  0
 38 39  1  0
 39 40  1  0
 39 41  1  0
 41 42  1  0
 42 43  1  0
 42 44  1  0
 44 45  1  0
 44 46  1  0
 46 47  1  0
 46 48  1  0
 48 49  1  0
 49 50  1  0
 50 51  2  0
 50 52  1  6
 50 53  1  0
  5 54  1  0
  5 55  1  0
  6 56  1  6
  8 57  1  6
  9 58  1  0
 10 59  1  6
 11 60  1  0
 12 61  1  1
 14 62  1  0
 18 63  1  0
 18 64  1  0
 20 65  1  0
 23 66  1  0
 26 67  1  0
 30 68  1  0
 32 69  1  0
 34 70  1  0
 34 71  1  0
 34 72  1  0
 36 73  1  0
 36 74  1  0
 36 75  1  0
 37 76  1  0
 41 77  1  0
 41 78  1  0
 42 79  1  6
 43 80  1  0
 44 81  1  6
 45 82  1  0
 46 83  1  1
 47 84  1  0
 48 85  1  0
 48 86  1  0
M  CHG  2   3  -1  52  -1
M  END
>  <filename_input>  (14) 
7EPV_FDA_docked.sdf

>  <pdb_id>  (14) 
7EPV_FDA

>  <pose_rank>  (14) 
13

>  <num_atoms_heavy>  (14) 
53

>  <num_torsions>  (14) 
13

>  <pose>  (14) 
[3.4127696702387467, -29.943282865508994, -6.7680575855744385, -4.185286324853336, -1.3708039968463788, -0.7389561322656865, -1.8697036980532808, 2.5680122687966196, 2.3339352334573866, -1.860605572522857, 0.06391933824298902, -2.2085257238577563, -1.4528554484133773, -0.35198402551870783, -0.5974401627088932, -0.615327654579225, 0.9348449673912874, -0.584782098045163, -0.08245537414522464]

>  <energy>  (14) 
-566.4958925585904

>  <inter_energy>  (14) 
-612.5117156530159

>  <intra_energy>  (14) 
39.58267162711327

>  <rmsd>  (14) 
12.1744

>  <sdf_rank>  (14) 
0

$$$$

     RDKit          3D

 86 91  0  0  0  0  0  0  0  0999 V2000
   10.5016  -34.0270    0.9139 P   0  0  2  0  0  0  0  0  0  0  0  0
    9.6572  -35.1266    0.4449 O   0  0  0  0  0  0  0  0  0  0  0  0
   11.5599  -33.6078    0.0172 O   0  0  0  0  0  0  0  0  0  0  0  0
   11.1054  -34.3528    2.3336 O   0  0  0  0  0  0  0  0  0  0  0  0
   11.1741  -33.3461    3.3424 C   0  0  0  0  0  0  0  0  0  0  0  0
   10.5000  -33.8632    4.5853 C   0  0  1  0  0  0  0  0  0  0  0  0
    9.1202  -33.4458    4.6314 O   0  0  0  0  0  0  0  0  0  0  0  0
   10.5109  -35.3907    4.7246 C   0  0  1  0  0  0  0  0  0  0  0  0
   10.9066  -35.7961    6.0165 O   0  0  0  0  0  0  0  0  0  0  0  0
    9.0644  -35.7614    4.3520 C   0  0  1  0  0  0  0  0  0  0  0  0
    8.6514  -36.9511    4.9541 O   0  0  0  0  0  0  0  0  0  0  0  0
    8.2932  -34.5578    4.8794 C   0  0  2  0  0  0  0  0  0  0  0  0
    7.0029  -34.3096    4.2725 N   0  0  0  0  0  0  0  0  0  0  0  0
    6.7382  -33.9070    3.0027 C   0  0  0  0  0  0  0  0  0  0  0  0
    5.4660  -33.6873    2.7742 N   0  0  0  0  0  0  0  0  0  0  0  0
    4.8595  -33.9265    3.9923 C   0  0  0  0  0  0  0  0  0  0  0  0
    3.5242  -33.8568    4.4286 C   0  0  0  0  0  0  0  0  0  0  0  0
    2.5176  -33.4839    3.6549 N   0  0  0  0  0  0  0  0  0  0  0  0
    3.2814  -34.1353    5.7223 N   0  0  0  0  0  0  0  0  0  0  0  0
    4.2959  -34.4744    6.5116 C   0  0  0  0  0  0  0  0  0  0  0  0
    5.5750  -34.5911    6.2010 N   0  0  0  0  0  0  0  0  0  0  0  0
    5.8017  -34.2971    4.9218 C   0  0  0  0  0  0  0  0  0  0  0  0
    3.2919  -29.1722   -4.3455 N   0  0  0  0  0  0  0  0  0  0  0  0
    2.0835  -29.1477   -3.8688 C   0  0  0  0  0  0  0  0  0  0  0  0
    1.9034  -29.1339   -2.6880 O   0  0  0  0  0  0  0  0  0  0  0  0
    0.9926  -29.1030   -4.6925 N   0  0  0  0  0  0  0  0  0  0  0  0
    1.1102  -29.1154   -6.0623 C   0  0  0  0  0  0  0  0  0  0  0  0
    0.1188  -29.0653   -6.7654 O   0  0  0  0  0  0  0  0  0  0  0  0
    2.3822  -29.2014   -6.5922 C   0  0  0  0  0  0  0  0  0  0  0  0
    2.5350  -29.2467   -7.8778 N   0  0  0  0  0  0  0  0  0  0  0  0
    3.8027  -29.4020   -8.3546 C   0  0  0  0  0  0  0  0  0  0  0  0
    3.9890  -29.5225   -9.7416 C   0  0  0  0  0  0  0  0  0  0  0  0
    5.2339  -29.7183  -10.2719 C   0  0  0  0  0  0  0  0  0  0  0  0
    5.4125  -29.8887  -11.7594 C   0  0  0  0  0  0  0  0  0  0  0  0
    6.3596  -29.7361   -9.4146 C   0  0  0  0  0  0  0  0  0  0  0  0
    7.7419  -29.9071   -9.9738 C   0  0  0  0  0  0  0  0  0  0  0  0
    6.1930  -29.5585   -8.0576 C   0  0  0  0  0  0  0  0  0  0  0  0
    4.9194  -29.4121   -7.4996 C   0  0  0  0  0  0  0  0  0  0  0  0
    4.6995  -29.2894   -6.1341 N   0  0  0  0  0  0  0  0  0  0  0  0
    3.4526  -29.2307   -5.6365 C   0  0  0  0  0  0  0  0  0  0  0  0
    5.8086  -29.3207   -5.1765 C   0  0  0  0  0  0  0  0  0  0  0  0
    6.4224  -30.7151   -5.1037 C   0  0  2  0  0  0  0  0  0  0  0  0
    5.4461  -31.6479   -4.7405 O   0  0  0  0  0  0  0  0  0  0  0  0
    7.5948  -30.7151   -4.1148 C   0  0  2  0  0  0  0  0  0  0  0  0
    8.8252  -30.7779   -4.7744 O   0  0  0  0  0  0  0  0  0  0  0  0
    7.5856  -31.8326   -3.0828 C   0  0  2  0  0  0  0  0  0  0  0  0
    6.5308  -31.6557   -2.1479 O   0  0  0  0  0  0  0  0  0  0  0  0
    8.9109  -31.8675   -2.3510 C   0  0  0  0  0  0  0  0  0  0  0  0
    8.7065  -32.4969   -1.1206 O   0  0  0  0  0  0  0  0  0  0  0  0
    8.9520  -31.7266    0.2238 P   0  0  1  0  0  0  0  0  0  0  0  0
    9.9890  -30.7690   -0.0754 O   0  0  0  0  0  0  0  0  0  0  0  0
    7.6895  -31.2801    0.7811 O   0  0  0  0  0  0  0  0  0  0  0  0
    9.5180  -32.8326    1.1778 O   0  0  0  0  0  0  0  0  0  0  0  0
   12.2265  -33.1127    3.5616 H   0  0  0  0  0  0  0  0  0  0  0  0
   10.6707  -32.4318    2.9951 H   0  0  0  0  0  0  0  0  0  0  0  0
   11.0892  -33.4369    5.4106 H   0  0  0  0  0  0  0  0  0  0  0  0
   11.2430  -35.9044    4.0842 H   0  0  0  0  0  0  0  0  0  0  0  0
   10.4021  -35.2793    6.6935 H   0  0  0  0  0  0  0  0  0  0  0  0
    8.9192  -35.9495    3.2779 H   0  0  0  0  0  0  0  0  0  0  0  0
    8.6858  -36.8520    5.9385 H   0  0  0  0  0  0  0  0  0  0  0  0
    8.0661  -34.7505    5.9383 H   0  0  0  0  0  0  0  0  0  0  0  0
    7.5180  -33.7773    2.2378 H   0  0  0  0  0  0  0  0  0  0  0  0
    1.5604  -33.4533    4.0342 H   0  0  0  0  0  0  0  0  0  0  0  0
    2.6911  -33.2242    2.6734 H   0  0  0  0  0  0  0  0  0  0  0  0
    4.0369  -34.6854    7.5596 H   0  0  0  0  0  0  0  0  0  0  0  0
    4.1061  -29.1458   -3.7153 H   0  0  0  0  0  0  0  0  0  0  0  0
    0.0528  -29.0585   -4.2732 H   0  0  0  0  0  0  0  0  0  0  0  0
    1.7297  -29.1684   -8.5153 H   0  0  0  0  0  0  0  0  0  0  0  0
    3.1193  -29.4584  -10.4120 H   0  0  0  0  0  0  0  0  0  0  0  0
    6.1963  -30.6362  -11.9514 H   0  0  0  0  0  0  0  0  0  0  0  0
    4.4659  -30.2269  -12.2060 H   0  0  0  0  0  0  0  0  0  0  0  0
    5.7056  -28.9271  -12.2060 H   0  0  0  0  0  0  0  0  0  0  0  0
    8.4631  -29.9964   -9.1480 H   0  0  0  0  0  0  0  0  0  0  0  0
    7.7776  -30.8166  -10.5916 H   0  0  0  0  0  0  0  0  0  0  0  0
    7.9981  -29.0339  -10.5916 H   0  0  0  0  0  0  0  0  0  0  0  0
    7.0766  -29.5316   -7.4030 H   0  0  0  0  0  0  0  0  0  0  0  0
    6.5797  -28.6035   -5.4943 H   0  0  0  0  0  0  0  0  0  0  0  0
    5.4231  -29.0529   -4.1817 H   0  0  0  0  0  0  0  0  0  0  0  0
    6.8106  -31.0002   -6.0926 H   0  0  0  0  0  0  0  0  0  0  0  0
    5.3909  -31.7006   -3.7534 H   0  0  0  0  0  0  0  0  0  0  0  0
    7.4605  -29.7635   -3.5797 H   0  0  0  0  0  0  0  0  0  0  0  0
    9.5558  -30.8151   -4.1073 H   0  0  0  0  0  0  0  0  0  0  0  0
    7.4277  -32.7849   -3.6102 H   0  0  0  0  0  0  0  0  0  0  0  0
    6.8916  -31.7162   -1.2280 H   0  0  0  0  0  0  0  0  0  0  0  0
    9.6486  -32.4311   -2.9410 H   0  0  0  0  0  0  0  0  0  0  0  0
    9.2919  -30.8467   -2.2002 H   0  0  0  0  0  0  0  0  0  0  0  0
  1  2  2  0
  1  3  1  6
  1  4  1  0
  1 53  1  0
  4  5  1  0
  6  5  1  0
  6  7  1  0
  6  8  1  0
  7 12  1  0
  8  9  1  0
  8 10  1  0
 10 11  1  0
 10 12  1  0
 12 13  1  0
 13 14  1  0
 13 22  1  0
 14 15  2  0
 15 16  1  0
 16 17  2  0
 16 22  1  0
 17 18  1  0
 17 19  1  0
 19 20  2  0
 20 21  1  0
 21 22  2  0
 23 24  1  0
 23 40  1  0
 24 25  2  0
 24 26  1  0
 26 27  1  0
 27 28  2  0
 27 29  1  0
 29 30  1  0
 29 40  2  0
 30 31  1  0
 31 32  2  0
 31 38  1  0
 32 33  1  0
 33 34  1  0
 33 35  2  0
 35 36  1  0
 35 37  1  0
 37 38  2  0
 38 39  1  0
 39 40  1  0
 39 41  1  0
 41 42  1  0
 42 43  1  0
 42 44  1  0
 44 45  1  0
 44 46  1  0
 46 47  1  0
 46 48  1  0
 48 49  1  0
 49 50  1  0
 50 51  2  0
 50 52  1  1
 50 53  1  0
  5 54  1  0
  5 55  1  0
  6 56  1  1
  8 57  1  6
  9 58  1  0
 10 59  1  6
 11 60  1  0
 12 61  1  1
 14 62  1  0
 18 63  1  0
 18 64  1  0
 20 65  1  0
 23 66  1  0
 26 67  1  0
 30 68  1  0
 32 69  1  0
 34 70  1  0
 34 71  1  0
 34 72  1  0
 36 73  1  0
 36 74  1  0
 36 75  1  0
 37 76  1  0
 41 77  1  0
 41 78  1  0
 42 79  1  6
 43 80  1  0
 44 81  1  1
 45 82  1  0
 46 83  1  6
 47 84  1  0
 48 85  1  0
 48 86  1  0
M  CHG  2   3  -1  52  -1
M  END
>  <filename_input>  (15) 
7EPV_FDA_docked.sdf

>  <pdb_id>  (15) 
7EPV_FDA

>  <pose_rank>  (15) 
14

>  <num_atoms_heavy>  (15) 
53

>  <num_torsions>  (15) 
13

>  <pose>  (15) 
[8.706454929589551, -32.49686924620272, -1.1206434155191187, 0.8890010367213735, 2.5711296170429914, -0.03759998507212039, -3.723478973570317, -6.703150128372923, 1.2761073448392894, -1.7753606552321406, -0.6259402384136435, 1.6384947241350782, -0.4410043446824557, -18.140559129641172, -25.509363040532882, -31.626415375260752, -38.54106878042835, -12.631407815433425, -21.996335268412256]

>  <energy>  (15) 
-679.1034094615807

>  <inter_energy>  (15) 
-713.3412926344602

>  <intra_energy>  (15) 
41.28344283131003

>  <rmsd>  (15) 
13.7764

>  <sdf_rank>  (15) 
0

$$$$

     RDKit          3D

 86 91  0  0  0  0  0  0  0  0999 V2000
    3.3800  -30.1470   -7.0724 P   0  0  2  0  0  0  0  0  0  0  0  0
    3.3026  -31.5822   -6.7960 O   0  0  0  0  0  0  0  0  0  0  0  0
    2.5073  -29.6503   -8.1171 O   0  0  0  0  0  0  0  0  0  0  0  0
    4.8666  -29.7151   -7.3712 O   0  0  0  0  0  0  0  0  0  0  0  0
    5.8860  -30.6968   -7.5529 C   0  0  0  0  0  0  0  0  0  0  0  0
    6.6831  -30.3419   -8.7799 C   0  0  1  0  0  0  0  0  0  0  0  0
    7.5499  -31.4301   -9.1604 O   0  0  0  0  0  0  0  0  0  0  0  0
    5.8344  -29.9942  -10.0094 C   0  0  1  0  0  0  0  0  0  0  0  0
    6.2830  -28.8141  -10.6388 O   0  0  0  0  0  0  0  0  0  0  0  0
    5.9658  -31.2663  -10.8655 C   0  0  1  0  0  0  0  0  0  0  0  0
    5.8120  -31.0052  -12.2281 O   0  0  0  0  0  0  0  0  0  0  0  0
    7.3810  -31.7190  -10.5278 C   0  0  2  0  0  0  0  0  0  0  0  0
    7.6698  -33.1219  -10.7356 N   0  0  0  0  0  0  0  0  0  0  0  0
    6.7931  -34.1575  -10.7960 C   0  0  0  0  0  0  0  0  0  0  0  0
    7.3694  -35.3294  -10.9125 N   0  0  0  0  0  0  0  0  0  0  0  0
    8.7208  -35.0433  -10.8880 C   0  0  0  0  0  0  0  0  0  0  0  0
    9.8724  -35.8479  -10.9562 C   0  0  0  0  0  0  0  0  0  0  0  0
    9.8418  -37.1680  -11.0417 N   0  0  0  0  0  0  0  0  0  0  0  0
   11.0643  -35.2291  -10.8734 N   0  0  0  0  0  0  0  0  0  0  0  0
   11.0982  -33.9059  -10.7501 C   0  0  0  0  0  0  0  0  0  0  0  0
   10.0848  -33.0595  -10.6990 N   0  0  0  0  0  0  0  0  0  0  0  0
    8.9122  -33.6878  -10.7661 C   0  0  0  0  0  0  0  0  0  0  0  0
    9.3610  -31.8162    0.0895 N   0  0  0  0  0  0  0  0  0  0  0  0
   10.5885  -32.1965   -0.1018 C   0  0  0  0  0  0  0  0  0  0  0  0
   11.2398  -31.7079   -0.9758 O   0  0  0  0  0  0  0  0  0  0  0  0
   11.1788  -33.1320    0.7025 N   0  0  0  0  0  0  0  0  0  0  0  0
   10.5015  -33.7438    1.7308 C   0  0  0  0  0  0  0  0  0  0  0  0
   11.0601  -34.5653    2.4328 O   0  0  0  0  0  0  0  0  0  0  0  0
    9.1773  -33.3993    1.9159 C   0  0  0  0  0  0  0  0  0  0  0  0
    8.4945  -33.9751    2.8542 N   0  0  0  0  0  0  0  0  0  0  0  0
    7.1730  -33.6559    2.9556 C   0  0  0  0  0  0  0  0  0  0  0  0
    6.3942  -34.3162    3.9202 C   0  0  0  0  0  0  0  0  0  0  0  0
    5.0559  -34.0633    4.0403 C   0  0  0  0  0  0  0  0  0  0  0  0
    4.2248  -34.8114    5.0518 C   0  0  0  0  0  0  0  0  0  0  0  0
    4.4594  -33.0744    3.2225 C   0  0  0  0  0  0  0  0  0  0  0  0
    3.0014  -32.7466    3.3622 C   0  0  0  0  0  0  0  0  0  0  0  0
    5.2282  -32.3783    2.3141 C   0  0  0  0  0  0  0  0  0  0  0  0
    6.5857  -32.6674    2.1456 C   0  0  0  0  0  0  0  0  0  0  0  0
    7.3845  -32.0335    1.2033 N   0  0  0  0  0  0  0  0  0  0  0  0
    8.6648  -32.3997    1.0226 C   0  0  0  0  0  0  0  0  0  0  0  0
    6.8394  -31.0141    0.3022 C   0  0  0  0  0  0  0  0  0  0  0  0
    6.0321  -31.6586   -0.8198 C   0  0  2  0  0  0  0  0  0  0  0  0
    6.8914  -32.1204   -1.8217 O   0  0  0  0  0  0  0  0  0  0  0  0
    5.0153  -30.6519   -1.3721 C   0  0  2  0  0  0  0  0  0  0  0  0
    4.2403  -30.0909   -0.3535 O   0  0  0  0  0  0  0  0  0  0  0  0
    4.0519  -31.1947   -2.4166 C   0  0  2  0  0  0  0  0  0  0  0  0
    4.6961  -31.3517   -3.6729 O   0  0  0  0  0  0  0  0  0  0  0  0
    2.8728  -30.2564   -2.5654 C   0  0  0  0  0  0  0  0  0  0  0  0
    2.1810  -30.6154   -3.7249 O   0  0  0  0  0  0  0  0  0  0  0  0
    1.7791  -29.5318   -4.7858 P   0  0  1  0  0  0  0  0  0  0  0  0
    0.6809  -30.1128   -5.5194 O   0  0  0  0  0  0  0  0  0  0  0  0
    1.6223  -28.2399   -4.1452 O   0  0  0  0  0  0  0  0  0  0  0  0
    3.0403  -29.4438   -5.7108 O   0  0  0  0  0  0  0  0  0  0  0  0
    6.5467  -30.7118   -6.6736 H   0  0  0  0  0  0  0  0  0  0  0  0
    5.4319  -31.6912   -7.6750 H   0  0  0  0  0  0  0  0  0  0  0  0
    7.2487  -29.4455   -8.4858 H   0  0  0  0  0  0  0  0  0  0  0  0
    4.7834  -29.7560   -9.7887 H   0  0  0  0  0  0  0  0  0  0  0  0
    6.5360  -28.1488   -9.9507 H   0  0  0  0  0  0  0  0  0  0  0  0
    5.1934  -32.0212  -10.6566 H   0  0  0  0  0  0  0  0  0  0  0  0
    5.3133  -30.1584  -12.3476 H   0  0  0  0  0  0  0  0  0  0  0  0
    8.0661  -31.1938  -11.2096 H   0  0  0  0  0  0  0  0  0  0  0  0
    5.7020  -34.0253  -10.7514 H   0  0  0  0  0  0  0  0  0  0  0  0
   10.7216  -37.7015  -11.0884 H   0  0  0  0  0  0  0  0  0  0  0  0
    8.9382  -37.6619  -11.0614 H   0  0  0  0  0  0  0  0  0  0  0  0
   12.1002  -33.4573  -10.6818 H   0  0  0  0  0  0  0  0  0  0  0  0
    8.9469  -31.0684   -0.4852 H   0  0  0  0  0  0  0  0  0  0  0  0
   12.1623  -33.3864    0.5325 H   0  0  0  0  0  0  0  0  0  0  0  0
    8.9331  -34.6481    3.4989 H   0  0  0  0  0  0  0  0  0  0  0  0
    6.8687  -35.0487    4.5898 H   0  0  0  0  0  0  0  0  0  0  0  0
    4.5399  -34.5278    6.0669 H   0  0  0  0  0  0  0  0  0  0  0  0
    3.1633  -34.5585    4.9133 H   0  0  0  0  0  0  0  0  0  0  0  0
    4.3651  -35.8936    4.9133 H   0  0  0  0  0  0  0  0  0  0  0  0
    2.7394  -32.6877    4.4289 H   0  0  0  0  0  0  0  0  0  0  0  0
    2.7952  -31.7797    2.8800 H   0  0  0  0  0  0  0  0  0  0  0  0
    2.4012  -33.5323    2.8800 H   0  0  0  0  0  0  0  0  0  0  0  0
    4.7659  -31.5822    1.7119 H   0  0  0  0  0  0  0  0  0  0  0  0
    6.1863  -30.3390    0.8746 H   0  0  0  0  0  0  0  0  0  0  0  0
    7.6750  -30.4532   -0.1420 H   0  0  0  0  0  0  0  0  0  0  0  0
    5.4768  -32.5229   -0.4264 H   0  0  0  0  0  0  0  0  0  0  0  0
    7.6833  -32.5459   -1.4069 H   0  0  0  0  0  0  0  0  0  0  0  0
    5.6562  -29.9049   -1.8632 H   0  0  0  0  0  0  0  0  0  0  0  0
    4.6084  -30.3573    0.5261 H   0  0  0  0  0  0  0  0  0  0  0  0
    3.7010  -32.1812   -2.0794 H   0  0  0  0  0  0  0  0  0  0  0  0
    5.6478  -31.5836   -3.5291 H   0  0  0  0  0  0  0  0  0  0  0  0
    2.2104  -30.3474   -1.6919 H   0  0  0  0  0  0  0  0  0  0  0  0
    3.2189  -29.2145   -2.6332 H   0  0  0  0  0  0  0  0  0  0  0  0
  1  2  2  0
  1  3  1  6
  1  4  1  0
  1 53  1  0
  4  5  1  0
  6  5  1  0
  6  7  1  0
  6  8  1  0
  7 12  1  0
  8  9  1  0
  8 10  1  0
 10 11  1  0
 10 12  1  0
 12 13  1  0
 13 14  1  0
 13 22  1  0
 14 15  2  0
 15 16  1  0
 16 17  2  0
 16 22  1  0
 17 18  1  0
 17 19  1  0
 19 20  2  0
 20 21  1  0
 21 22  2  0
 23 24  1  0
 23 40  1  0
 24 25  2  0
 24 26  1  0
 26 27  1  0
 27 28  2  0
 27 29  1  0
 29 30  1  0
 29 40  2  0
 30 31  1  0
 31 32  2  0
 31 38  1  0
 32 33  1  0
 33 34  1  0
 33 35  2  0
 35 36  1  0
 35 37  1  0
 37 38  2  0
 38 39  1  0
 39 40  1  0
 39 41  1  0
 41 42  1  0
 42 43  1  0
 42 44  1  0
 44 45  1  0
 44 46  1  0
 46 47  1  0
 46 48  1  0
 48 49  1  0
 49 50  1  0
 50 51  2  0
 50 52  1  1
 50 53  1  0
  5 54  1  0
  5 55  1  0
  6 56  1  1
  8 57  1  1
  9 58  1  0
 10 59  1  1
 11 60  1  0
 12 61  1  6
 14 62  1  0
 18 63  1  0
 18 64  1  0
 20 65  1  0
 23 66  1  0
 26 67  1  0
 30 68  1  0
 32 69  1  0
 34 70  1  0
 34 71  1  0
 34 72  1  0
 36 73  1  0
 36 74  1  0
 36 75  1  0
 37 76  1  0
 41 77  1  0
 41 78  1  0
 42 79  1  1
 43 80  1  0
 44 81  1  6
 45 82  1  0
 46 83  1  1
 47 84  1  0
 48 85  1  0
 48 86  1  0
M  CHG  2   3  -1  52  -1
M  END
>  <filename_input>  (16) 
7EPV_FDA_docked.sdf

>  <pdb_id>  (16) 
7EPV_FDA

>  <pose_rank>  (16) 
15

>  <num_atoms_heavy>  (16) 
53

>  <num_torsions>  (16) 
13

>  <pose>  (16) 
[2.1810276890150413, -30.61535745468079, -3.7249177054815776, -5.110843593095376, -0.7718821095067036, -3.1678406689299576, 0.32463517610944753, 0.5769480397261331, -4.514132047993814, 0.8136593351600564, -0.5060537600772578, 0.3411031042615788, 0.3650082439069425, 0.4799563542818228, -0.2115018052488691, -0.3210114990020213, 0.10671601351576354, -0.46473973544038877, 3.006155079593585]

>  <energy>  (16) 
-647.8532646353959

>  <inter_energy>  (16) 
-668.3074376039955

>  <intra_energy>  (16) 
24.640014982234316

>  <rmsd>  (16) 
5.65238

>  <sdf_rank>  (16) 
0

$$$$

     RDKit          3D

 86 91  0  0  0  0  0  0  0  0999 V2000
    1.5179  -29.5831   -7.1942 P   0  0  2  0  0  0  0  0  0  0  0  0
    1.2547  -30.9924   -6.9000 O   0  0  0  0  0  0  0  0  0  0  0  0
    0.3914  -28.8111   -7.6786 O   0  0  0  0  0  0  0  0  0  0  0  0
    2.7305  -29.4377   -8.1914 O   0  0  0  0  0  0  0  0  0  0  0  0
    2.5107  -29.3890   -9.6004 C   0  0  0  0  0  0  0  0  0  0  0  0
    3.6991  -29.9996  -10.2945 C   0  0  1  0  0  0  0  0  0  0  0  0
    3.7637  -29.5731  -11.6708 O   0  0  0  0  0  0  0  0  0  0  0  0
    5.0514  -29.6586   -9.6558 C   0  0  1  0  0  0  0  0  0  0  0  0
    5.8591  -30.8041   -9.4964 O   0  0  0  0  0  0  0  0  0  0  0  0
    5.6149  -28.6080  -10.6292 C   0  0  1  0  0  0  0  0  0  0  0  0
    7.0105  -28.5814  -10.6288 O   0  0  0  0  0  0  0  0  0  0  0  0
    5.0542  -29.0912  -11.9610 C   0  0  2  0  0  0  0  0  0  0  0  0
    4.9439  -28.0965  -13.0065 N   0  0  0  0  0  0  0  0  0  0  0  0
    3.8716  -27.8253  -13.7948 C   0  0  0  0  0  0  0  0  0  0  0  0
    4.1079  -26.9184  -14.7117 N   0  0  0  0  0  0  0  0  0  0  0  0
    5.4409  -26.6012  -14.5352 C   0  0  0  0  0  0  0  0  0  0  0  0
    6.3116  -25.7165  -15.1965 C   0  0  0  0  0  0  0  0  0  0  0  0
    5.9563  -24.9742  -16.2327 N   0  0  0  0  0  0  0  0  0  0  0  0
    7.5884  -25.6749  -14.7742 N   0  0  0  0  0  0  0  0  0  0  0  0
    7.9579  -26.4469  -13.7570 C   0  0  0  0  0  0  0  0  0  0  0  0
    7.2211  -27.2907  -13.0562 N   0  0  0  0  0  0  0  0  0  0  0  0
    5.9645  -27.3325  -13.4959 C   0  0  0  0  0  0  0  0  0  0  0  0
    8.7005  -33.0591   -8.1592 N   0  0  0  0  0  0  0  0  0  0  0  0
    9.8605  -32.5167   -8.3788 C   0  0  0  0  0  0  0  0  0  0  0  0
   10.0108  -31.3404   -8.2360 O   0  0  0  0  0  0  0  0  0  0  0  0
   10.9426  -33.2700   -8.7428 N   0  0  0  0  0  0  0  0  0  0  0  0
   10.8573  -34.6296   -8.9287 C   0  0  0  0  0  0  0  0  0  0  0  0
   11.8420  -35.2705   -9.2436 O   0  0  0  0  0  0  0  0  0  0  0  0
    9.6207  -35.2199   -8.7591 C   0  0  0  0  0  0  0  0  0  0  0  0
    9.4908  -36.4939   -8.9547 N   0  0  0  0  0  0  0  0  0  0  0  0
    8.2388  -37.0218   -8.8445 C   0  0  0  0  0  0  0  0  0  0  0  0
    8.0589  -38.3878   -9.1182 C   0  0  0  0  0  0  0  0  0  0  0  0
    6.8193  -38.9616   -9.0605 C   0  0  0  0  0  0  0  0  0  0  0  0
    6.6359  -40.4196   -9.3988 C   0  0  0  0  0  0  0  0  0  0  0  0
    5.7101  -38.1811   -8.6568 C   0  0  0  0  0  0  0  0  0  0  0  0
    4.3454  -38.7954   -8.5441 C   0  0  0  0  0  0  0  0  0  0  0  0
    5.8870  -36.8538   -8.3280 C   0  0  0  0  0  0  0  0  0  0  0  0
    7.1404  -36.2441   -8.4361 C   0  0  0  0  0  0  0  0  0  0  0  0
    7.3538  -34.8976   -8.1722 N   0  0  0  0  0  0  0  0  0  0  0  0
    8.5596  -34.3371   -8.3661 C   0  0  0  0  0  0  0  0  0  0  0  0
    6.2547  -34.0150   -7.7707 C   0  0  0  0  0  0  0  0  0  0  0  0
    6.1870  -33.8904   -6.2521 C   0  0  2  0  0  0  0  0  0  0  0  0
    5.4544  -34.9551   -5.7181 O   0  0  0  0  0  0  0  0  0  0  0  0
    5.5730  -32.5382   -5.8691 C   0  0  2  0  0  0  0  0  0  0  0  0
    6.5175  -31.5096   -5.9232 O   0  0  0  0  0  0  0  0  0  0  0  0
    4.9247  -32.4751   -4.4945 C   0  0  2  0  0  0  0  0  0  0  0  0
    3.6845  -33.1678   -4.4826 O   0  0  0  0  0  0  0  0  0  0  0  0
    4.7024  -31.0311   -4.0967 C   0  0  0  0  0  0  0  0  0  0  0  0
    3.8226  -30.4609   -5.0200 O   0  0  0  0  0  0  0  0  0  0  0  0
    2.5698  -29.6494   -4.5373 P   0  0  1  0  0  0  0  0  0  0  0  0
    1.6226  -30.6455   -4.0988 O   0  0  0  0  0  0  0  0  0  0  0  0
    2.9788  -28.5890   -3.6360 O   0  0  0  0  0  0  0  0  0  0  0  0
    2.0487  -28.9712   -5.8497 O   0  0  0  0  0  0  0  0  0  0  0  0
    1.6025  -29.9557   -9.8534 H   0  0  0  0  0  0  0  0  0  0  0  0
    2.3821  -28.3456   -9.9243 H   0  0  0  0  0  0  0  0  0  0  0  0
    3.5381  -31.0840  -10.2041 H   0  0  0  0  0  0  0  0  0  0  0  0
    4.9887  -29.2723   -8.6278 H   0  0  0  0  0  0  0  0  0  0  0  0
    5.9872  -30.9858   -8.5317 H   0  0  0  0  0  0  0  0  0  0  0  0
    5.3350  -27.5751  -10.3748 H   0  0  0  0  0  0  0  0  0  0  0  0
    7.3402  -28.5751   -9.6954 H   0  0  0  0  0  0  0  0  0  0  0  0
    5.7569  -29.8357  -12.3634 H   0  0  0  0  0  0  0  0  0  0  0  0
    2.8966  -28.3202  -13.6752 H   0  0  0  0  0  0  0  0  0  0  0  0
    6.6415  -24.3446  -16.6742 H   0  0  0  0  0  0  0  0  0  0  0  0
    4.9946  -25.0261  -16.5977 H   0  0  0  0  0  0  0  0  0  0  0  0
    9.0145  -26.3737  -13.4601 H   0  0  0  0  0  0  0  0  0  0  0  0
    7.9085  -32.4899   -7.8282 H   0  0  0  0  0  0  0  0  0  0  0  0
   11.8504  -32.8038   -8.8820 H   0  0  0  0  0  0  0  0  0  0  0  0
   10.3023  -37.0852   -9.1845 H   0  0  0  0  0  0  0  0  0  0  0  0
    8.9295  -39.0058   -9.3832 H   0  0  0  0  0  0  0  0  0  0  0  0
    6.5622  -41.0049   -8.4704 H   0  0  0  0  0  0  0  0  0  0  0  0
    5.7147  -40.5466   -9.9863 H   0  0  0  0  0  0  0  0  0  0  0  0
    7.4969  -40.7708   -9.9863 H   0  0  0  0  0  0  0  0  0  0  0  0
    4.0830  -38.9135   -7.4824 H   0  0  0  0  0  0  0  0  0  0  0  0
    3.6078  -38.1424   -9.0337 H   0  0  0  0  0  0  0  0  0  0  0  0
    4.3451  -39.7804   -9.0337 H   0  0  0  0  0  0  0  0  0  0  0  0
    5.0276  -36.2649   -7.9748 H   0  0  0  0  0  0  0  0  0  0  0  0
    6.4148  -33.0182   -8.2075 H   0  0  0  0  0  0  0  0  0  0  0  0
    5.3083  -34.4440   -8.1317 H   0  0  0  0  0  0  0  0  0  0  0  0
    7.2026  -33.9350   -5.8319 H   0  0  0  0  0  0  0  0  0  0  0  0
    5.4836  -34.9127   -4.7294 H   0  0  0  0  0  0  0  0  0  0  0  0
    4.7795  -32.4109   -6.6202 H   0  0  0  0  0  0  0  0  0  0  0  0
    6.7650  -31.2401   -5.0033 H   0  0  0  0  0  0  0  0  0  0  0  0
    5.6007  -32.9587   -3.7741 H   0  0  0  0  0  0  0  0  0  0  0  0
    3.4033  -33.3248   -3.5464 H   0  0  0  0  0  0  0  0  0  0  0  0
    4.2669  -30.9844   -3.0876 H   0  0  0  0  0  0  0  0  0  0  0  0
    5.6571  -30.4847   -4.0897 H   0  0  0  0  0  0  0  0  0  0  0  0
  1  2  2  0
  1  3  1  6
  1  4  1  0
  1 53  1  0
  4  5  1  0
  6  5  1  0
  6  7  1  0
  6  8  1  0
  7 12  1  0
  8  9  1  0
  8 10  1  0
 10 11  1  0
 10 12  1  0
 12 13  1  0
 13 14  1  0
 13 22  1  0
 14 15  2  0
 15 16  1  0
 16 17  2  0
 16 22  1  0
 17 18  1  0
 17 19  1  0
 19 20  2  0
 20 21  1  0
 21 22  2  0
 23 24  1  0
 23 40  1  0
 24 25  2  0
 24 26  1  0
 26 27  1  0
 27 28  2  0
 27 29  1  0
 29 30  1  0
 29 40  2  0
 30 31  1  0
 31 32  2  0
 31 38  1  0
 32 33  1  0
 33 34  1  0
 33 35  2  0
 35 36  1  0
 35 37  1  0
 37 38  2  0
 38 39  1  0
 39 40  1  0
 39 41  1  0
 41 42  1  0
 42 43  1  0
 42 44  1  0
 44 45  1  0
 44 46  1  0
 46 47  1  0
 46 48  1  0
 48 49  1  0
 49 50  1  0
 50 51  2  0
 50 52  1  1
 50 53  1  0
  5 54  1  0
  5 55  1  0
  6 56  1  6
  8 57  1  1
  9 58  1  0
 10 59  1  1
 11 60  1  0
 12 61  1  6
 14 62  1  0
 18 63  1  0
 18 64  1  0
 20 65  1  0
 23 66  1  0
 26 67  1  0
 30 68  1  0
 32 69  1  0
 34 70  1  0
 34 71  1  0
 34 72  1  0
 36 73  1  0
 36 74  1  0
 36 75  1  0
 37 76  1  0
 41 77  1  0
 41 78  1  0
 42 79  1  1
 43 80  1  0
 44 81  1  6
 45 82  1  0
 46 83  1  1
 47 84  1  0
 48 85  1  0
 48 86  1  0
M  CHG  2   3  -1  52  -1
M  END
>  <filename_input>  (17) 
7EPV_FDA_docked.sdf

>  <pdb_id>  (17) 
7EPV_FDA

>  <pose_rank>  (17) 
16

>  <num_atoms_heavy>  (17) 
53

>  <num_torsions>  (17) 
13

>  <pose>  (17) 
[3.8226321186503602, -30.460885964201253, -5.020042794919335, 1.4468838082842166, 0.09389874063240351, 0.8361850303315136, 1.7563533352683507, -0.014885341385459579, 3.035798749968443, 2.243999528554536, 0.8580629540956611, 0.4937746585235248, 4.7471382140907235, -1.2345434562892883, -2.0330684491035402, -0.2919083676056448, -0.4015548390805747, -0.5298587440427689, 6.012162409411116]

>  <energy>  (17) 
-660.3365639874319

>  <inter_energy>  (17) 
-715.0188549896113

>  <intra_energy>  (17) 
63.497313985922666

>  <rmsd>  (17) 
8.18472

>  <sdf_rank>  (17) 
0

$$$$

     RDKit          3D

 86 91  0  0  0  0  0  0  0  0999 V2000
    7.2604  -33.8588   -6.4606 P   0  0  2  0  0  0  0  0  0  0  0  0
    8.6314  -34.3330   -6.2668 O   0  0  0  0  0  0  0  0  0  0  0  0
    6.2110  -34.8334   -6.2403 O   0  0  0  0  0  0  0  0  0  0  0  0
    7.0909  -33.2077   -7.8865 O   0  0  0  0  0  0  0  0  0  0  0  0
    6.7637  -31.8253   -8.0199 C   0  0  0  0  0  0  0  0  0  0  0  0
    5.5593  -31.6997   -8.9145 C   0  0  1  0  0  0  0  0  0  0  0  0
    4.3442  -31.6764   -8.1379 O   0  0  0  0  0  0  0  0  0  0  0  0
    5.5517  -30.4445   -9.7962 C   0  0  1  0  0  0  0  0  0  0  0  0
    5.2294  -30.7473  -11.1357 O   0  0  0  0  0  0  0  0  0  0  0  0
    4.5271  -29.5487   -9.0777 C   0  0  1  0  0  0  0  0  0  0  0  0
    3.9043  -28.6534   -9.9489 O   0  0  0  0  0  0  0  0  0  0  0  0
    3.5507  -30.5802   -8.5261 C   0  0  2  0  0  0  0  0  0  0  0  0
    2.7588  -30.1659   -7.3877 N   0  0  0  0  0  0  0  0  0  0  0  0
    1.4123  -30.0025   -7.3191 C   0  0  0  0  0  0  0  0  0  0  0  0
    0.9963  -29.5357   -6.1666 N   0  0  0  0  0  0  0  0  0  0  0  0
    2.1574  -29.3439   -5.4429 C   0  0  0  0  0  0  0  0  0  0  0  0
    2.4106  -28.8560   -4.1483 C   0  0  0  0  0  0  0  0  0  0  0  0
    1.4653  -28.4300   -3.3263 N   0  0  0  0  0  0  0  0  0  0  0  0
    3.6961  -28.7732   -3.7595 N   0  0  0  0  0  0  0  0  0  0  0  0
    4.6509  -29.1659   -4.5969 C   0  0  0  0  0  0  0  0  0  0  0  0
    4.5227  -29.6565   -5.8171 N   0  0  0  0  0  0  0  0  0  0  0  0
    3.2464  -29.7175   -6.1936 C   0  0  0  0  0  0  0  0  0  0  0  0
    4.1377  -33.6309    3.1020 N   0  0  0  0  0  0  0  0  0  0  0  0
    3.3629  -34.0097    4.0736 C   0  0  0  0  0  0  0  0  0  0  0  0
    2.1762  -33.9338    3.9606 O   0  0  0  0  0  0  0  0  0  0  0  0
    3.8727  -34.5332    5.2298 N   0  0  0  0  0  0  0  0  0  0  0  0
    5.2256  -34.6561    5.4420 C   0  0  0  0  0  0  0  0  0  0  0  0
    5.6448  -35.1348    6.4787 O   0  0  0  0  0  0  0  0  0  0  0  0
    6.0705  -34.2050    4.4475 C   0  0  0  0  0  0  0  0  0  0  0  0
    7.3525  -34.2744    4.6208 N   0  0  0  0  0  0  0  0  0  0  0  0
    8.1474  -33.7534    3.6435 C   0  0  0  0  0  0  0  0  0  0  0  0
    9.5387  -33.7544    3.8372 C   0  0  0  0  0  0  0  0  0  0  0  0
   10.3809  -33.2105    2.9076 C   0  0  0  0  0  0  0  0  0  0  0  0
   11.8689  -33.1807    3.1496 C   0  0  0  0  0  0  0  0  0  0  0  0
    9.8466  -32.6958    1.7025 C   0  0  0  0  0  0  0  0  0  0  0  0
   10.7515  -32.1312    0.6466 C   0  0  0  0  0  0  0  0  0  0  0  0
    8.4874  -32.7450    1.4770 C   0  0  0  0  0  0  0  0  0  0  0  0
    7.6128  -33.2493    2.4443 C   0  0  0  0  0  0  0  0  0  0  0  0
    6.2336  -33.2647    2.2849 N   0  0  0  0  0  0  0  0  0  0  0  0
    5.4274  -33.6860    3.2741 C   0  0  0  0  0  0  0  0  0  0  0  0
    5.5987  -32.7304    1.0768 C   0  0  0  0  0  0  0  0  0  0  0  0
    5.4708  -31.2127    1.1579 C   0  0  2  0  0  0  0  0  0  0  0  0
    4.1344  -30.8368    0.9904 O   0  0  0  0  0  0  0  0  0  0  0  0
    6.3744  -30.5587    0.1052 C   0  0  2  0  0  0  0  0  0  0  0  0
    6.6449  -29.2234    0.4164 O   0  0  0  0  0  0  0  0  0  0  0  0
    5.8488  -30.5854   -1.3219 C   0  0  2  0  0  0  0  0  0  0  0  0
    4.9798  -31.6905   -1.5255 O   0  0  0  0  0  0  0  0  0  0  0  0
    7.0064  -30.6651   -2.2947 C   0  0  0  0  0  0  0  0  0  0  0  0
    6.6663  -31.5800   -3.2942 O   0  0  0  0  0  0  0  0  0  0  0  0
    7.7793  -32.3458   -4.0917 P   0  0  1  0  0  0  0  0  0  0  0  0
    8.8344  -31.3808   -4.2858 O   0  0  0  0  0  0  0  0  0  0  0  0
    8.0654  -33.6168   -3.4542 O   0  0  0  0  0  0  0  0  0  0  0  0
    7.0931  -32.6567   -5.4652 O   0  0  0  0  0  0  0  0  0  0  0  0
    6.5361  -31.4014   -7.0307 H   0  0  0  0  0  0  0  0  0  0  0  0
    7.6133  -31.2789   -8.4553 H   0  0  0  0  0  0  0  0  0  0  0  0
    5.6151  -32.5816   -9.5696 H   0  0  0  0  0  0  0  0  0  0  0  0
    6.5287  -29.9492   -9.8974 H   0  0  0  0  0  0  0  0  0  0  0  0
    4.5079  -31.4249  -11.1565 H   0  0  0  0  0  0  0  0  0  0  0  0
    4.9709  -28.8981   -8.3097 H   0  0  0  0  0  0  0  0  0  0  0  0
    3.4244  -27.9635   -9.4256 H   0  0  0  0  0  0  0  0  0  0  0  0
    2.8114  -30.7879   -9.3138 H   0  0  0  0  0  0  0  0  0  0  0  0
    0.7342  -30.2396   -8.1522 H   0  0  0  0  0  0  0  0  0  0  0  0
    1.7154  -28.0838   -2.3890 H   0  0  0  0  0  0  0  0  0  0  0  0
    0.4793  -28.4445   -3.6237 H   0  0  0  0  0  0  0  0  0  0  0  0
    5.6819  -29.0698   -4.2258 H   0  0  0  0  0  0  0  0  0  0  0  0
    3.7401  -33.2939    2.2136 H   0  0  0  0  0  0  0  0  0  0  0  0
    3.2224  -34.8452    5.9650 H   0  0  0  0  0  0  0  0  0  0  0  0
    7.7555  -34.7066    5.4643 H   0  0  0  0  0  0  0  0  0  0  0  0
    9.9574  -34.2000    4.7517 H   0  0  0  0  0  0  0  0  0  0  0  0
   12.0643  -33.1767    4.2321 H   0  0  0  0  0  0  0  0  0  0  0  0
   12.3319  -34.0697    2.6966 H   0  0  0  0  0  0  0  0  0  0  0  0
   12.2959  -32.2738    2.6966 H   0  0  0  0  0  0  0  0  0  0  0  0
   11.5916  -31.6071    1.1256 H   0  0  0  0  0  0  0  0  0  0  0  0
   11.1385  -32.9484    0.0201 H   0  0  0  0  0  0  0  0  0  0  0  0
   10.1876  -31.4245    0.0201 H   0  0  0  0  0  0  0  0  0  0  0  0
    8.0843  -32.3814    0.5203 H   0  0  0  0  0  0  0  0  0  0  0  0
    6.2101  -32.9945    0.2013 H   0  0  0  0  0  0  0  0  0  0  0  0
    4.5921  -33.1646    0.9861 H   0  0  0  0  0  0  0  0  0  0  0  0
    5.7971  -30.8667    2.1497 H   0  0  0  0  0  0  0  0  0  0  0  0
    3.7114  -30.7179    1.8776 H   0  0  0  0  0  0  0  0  0  0  0  0
    7.2793  -31.1831    0.1410 H   0  0  0  0  0  0  0  0  0  0  0  0
    6.6675  -29.1118    1.3998 H   0  0  0  0  0  0  0  0  0  0  0  0
    5.2811  -29.6593   -1.4956 H   0  0  0  0  0  0  0  0  0  0  0  0
    4.6952  -32.0524   -0.6491 H   0  0  0  0  0  0  0  0  0  0  0  0
    7.1889  -29.6759   -2.7401 H   0  0  0  0  0  0  0  0  0  0  0  0
    7.9211  -30.9875   -1.7757 H   0  0  0  0  0  0  0  0  0  0  0  0
  1  2  2  0
  1  3  1  1
  1  4  1  0
  1 53  1  0
  4  5  1  0
  6  5  1  0
  6  7  1  0
  6  8  1  0
  7 12  1  0
  8  9  1  0
  8 10  1  0
 10 11  1  0
 10 12  1  0
 12 13  1  0
 13 14  1  0
 13 22  1  0
 14 15  2  0
 15 16  1  0
 16 17  2  0
 16 22  1  0
 17 18  1  0
 17 19  1  0
 19 20  2  0
 20 21  1  0
 21 22  2  0
 23 24  1  0
 23 40  1  0
 24 25  2  0
 24 26  1  0
 26 27  1  0
 27 28  2  0
 27 29  1  0
 29 30  1  0
 29 40  2  0
 30 31  1  0
 31 32  2  0
 31 38  1  0
 32 33  1  0
 33 34  1  0
 33 35  2  0
 35 36  1  0
 35 37  1  0
 37 38  2  0
 38 39  1  0
 39 40  1  0
 39 41  1  0
 41 42  1  0
 42 43  1  0
 42 44  1  0
 44 45  1  0
 44 46  1  0
 46 47  1  0
 46 48  1  0
 48 49  1  0
 49 50  1  0
 50 51  2  0
 50 52  1  1
 50 53  1  0
  5 54  1  0
  5 55  1  0
  6 56  1  6
  8 57  1  6
  9 58  1  0
 10 59  1  1
 11 60  1  0
 12 61  1  6
 14 62  1  0
 18 63  1  0
 18 64  1  0
 20 65  1  0
 23 66  1  0
 26 67  1  0
 30 68  1  0
 32 69  1  0
 34 70  1  0
 34 71  1  0
 34 72  1  0
 36 73  1  0
 36 74  1  0
 36 75  1  0
 37 76  1  0
 41 77  1  0
 41 78  1  0
 42 79  1  1
 43 80  1  0
 44 81  1  6
 45 82  1  0
 46 83  1  6
 47 84  1  0
 48 85  1  0
 48 86  1  0
M  CHG  2   3  -1  52  -1
M  END
>  <filename_input>  (18) 
7EPV_FDA_docked.sdf

>  <pdb_id>  (18) 
7EPV_FDA

>  <pose_rank>  (18) 
17

>  <num_atoms_heavy>  (18) 
53

>  <num_torsions>  (18) 
13

>  <pose>  (18) 
[6.666325860255959, -31.580020338907158, -3.2942310667609354, 2.3623880140759166, 2.7386087001152206, 2.9358301363715067, 14.981757078958585, 21.462682707637754, 21.135493927720724, -1.3911884297689554, -17.615591058742147, -1.3766691588457858, -3.525629202320317, 0.07249477840449955, -6.998952534210279, 6.808805181416615, -8.05819890007924, -1.2144551126474117, -9.642414484415326]

>  <energy>  (18) 
-658.1674020842748

>  <inter_energy>  (18) 
-711.589995096593

>  <intra_energy>  (18) 
60.73364905887968

>  <rmsd>  (18) 
5.37698

>  <sdf_rank>  (18) 
0

$$$$

     RDKit          3D

 86 91  0  0  0  0  0  0  0  0999 V2000
    2.1927  -30.0664   -7.4200 P   0  0  2  0  0  0  0  0  0  0  0  0
    2.7741  -31.0775   -6.5357 O   0  0  0  0  0  0  0  0  0  0  0  0
    0.8962  -30.3824   -7.9850 O   0  0  0  0  0  0  0  0  0  0  0  0
    3.1982  -29.6891   -8.5743 O   0  0  0  0  0  0  0  0  0  0  0  0
    2.7421  -29.5513   -9.9192 C   0  0  0  0  0  0  0  0  0  0  0  0
    3.7712  -30.1505  -10.8404 C   0  0  1  0  0  0  0  0  0  0  0  0
    3.6311  -29.6252  -12.1763 O   0  0  0  0  0  0  0  0  0  0  0  0
    5.2241  -29.9067  -10.4132 C   0  0  1  0  0  0  0  0  0  0  0  0
    5.9917  -31.0889  -10.4678 O   0  0  0  0  0  0  0  0  0  0  0  0
    5.6709  -28.8072  -11.3931 C   0  0  1  0  0  0  0  0  0  0  0  0
    7.0477  -28.8305  -11.6224 O   0  0  0  0  0  0  0  0  0  0  0  0
    4.8785  -29.1693  -12.6432 C   0  0  2  0  0  0  0  0  0  0  0  0
    4.6469  -28.0961  -13.5862 N   0  0  0  0  0  0  0  0  0  0  0  0
    3.5423  -27.8706  -14.3436 C   0  0  0  0  0  0  0  0  0  0  0  0
    3.6662  -26.8581  -15.1673 N   0  0  0  0  0  0  0  0  0  0  0  0
    4.9578  -26.4132  -14.9612 C   0  0  0  0  0  0  0  0  0  0  0  0
    5.7176  -25.3768  -15.5331 C   0  0  0  0  0  0  0  0  0  0  0  0
    5.2705  -24.5814  -16.4914 N   0  0  0  0  0  0  0  0  0  0  0  0
    6.9866  -25.2346  -15.1093 N   0  0  0  0  0  0  0  0  0  0  0  0
    7.4509  -26.0560  -14.1728 C   0  0  0  0  0  0  0  0  0  0  0  0
    6.8201  -27.0407  -13.5576 N   0  0  0  0  0  0  0  0  0  0  0  0
    5.5710  -27.1792  -13.9988 C   0  0  0  0  0  0  0  0  0  0  0  0
    4.8144  -34.6638   -5.9347 N   0  0  0  0  0  0  0  0  0  0  0  0
    4.6717  -35.8460   -6.4542 C   0  0  0  0  0  0  0  0  0  0  0  0
    3.7922  -36.5638   -6.0825 O   0  0  0  0  0  0  0  0  0  0  0  0
    5.4919  -36.2889   -7.4551 N   0  0  0  0  0  0  0  0  0  0  0  0
    6.5280  -35.5272   -7.9417 C   0  0  0  0  0  0  0  0  0  0  0  0
    7.2328  -35.9486   -8.8392 O   0  0  0  0  0  0  0  0  0  0  0  0
    6.7364  -34.2907   -7.3638 C   0  0  0  0  0  0  0  0  0  0  0  0
    7.7210  -33.5545   -7.7722 N   0  0  0  0  0  0  0  0  0  0  0  0
    7.9317  -32.3727   -7.1261 C   0  0  0  0  0  0  0  0  0  0  0  0
    9.0334  -31.5874   -7.5038 C   0  0  0  0  0  0  0  0  0  0  0  0
    9.3144  -30.4120   -6.8644 C   0  0  0  0  0  0  0  0  0  0  0  0
   10.5250  -29.6015   -7.2528 C   0  0  0  0  0  0  0  0  0  0  0  0
    8.4450  -29.9483   -5.8486 C   0  0  0  0  0  0  0  0  0  0  0  0
    8.7061  -28.6410   -5.1591 C   0  0  0  0  0  0  0  0  0  0  0  0
    7.3278  -30.6827   -5.5120 C   0  0  0  0  0  0  0  0  0  0  0  0
    7.0613  -31.9122   -6.1219 C   0  0  0  0  0  0  0  0  0  0  0  0
    5.9815  -32.7128   -5.7739 N   0  0  0  0  0  0  0  0  0  0  0  0
    5.8095  -33.9234   -6.3314 C   0  0  0  0  0  0  0  0  0  0  0  0
    5.0466  -32.3164   -4.7170 C   0  0  0  0  0  0  0  0  0  0  0  0
    5.7971  -31.9322   -3.4460 C   0  0  2  0  0  0  0  0  0  0  0  0
    6.7121  -32.9350   -3.1104 O   0  0  0  0  0  0  0  0  0  0  0  0
    4.7983  -31.6801   -2.3096 C   0  0  2  0  0  0  0  0  0  0  0  0
    3.9563  -32.7775   -2.1107 O   0  0  0  0  0  0  0  0  0  0  0  0
    3.9065  -30.4592   -2.4758 C   0  0  2  0  0  0  0  0  0  0  0  0
    2.5339  -30.8250   -2.4722 O   0  0  0  0  0  0  0  0  0  0  0  0
    4.2391  -29.7522   -3.7729 C   0  0  0  0  0  0  0  0  0  0  0  0
    3.0403  -29.3267   -4.3506 O   0  0  0  0  0  0  0  0  0  0  0  0
    3.0314  -28.1909   -5.4328 P   0  0  1  0  0  0  0  0  0  0  0  0
    2.3904  -27.0673   -4.7936 O   0  0  0  0  0  0  0  0  0  0  0  0
    4.3534  -28.0413   -6.0104 O   0  0  0  0  0  0  0  0  0  0  0  0
    2.0955  -28.7626   -6.5514 O   0  0  0  0  0  0  0  0  0  0  0  0
    1.7843  -30.0782  -10.0413 H   0  0  0  0  0  0  0  0  0  0  0  0
    2.5974  -28.4877  -10.1594 H   0  0  0  0  0  0  0  0  0  0  0  0
    3.5758  -31.2322  -10.7983 H   0  0  0  0  0  0  0  0  0  0  0  0
    5.3481  -29.5961   -9.3653 H   0  0  0  0  0  0  0  0  0  0  0  0
    6.1909  -31.3958   -9.5479 H   0  0  0  0  0  0  0  0  0  0  0  0
    5.4856  -27.7867  -11.0266 H   0  0  0  0  0  0  0  0  0  0  0  0
    7.5264  -28.8386  -10.7558 H   0  0  0  0  0  0  0  0  0  0  0  0
    5.4702  -29.9063  -13.2060 H   0  0  0  0  0  0  0  0  0  0  0  0
    2.6295  -28.4802  -14.2726 H   0  0  0  0  0  0  0  0  0  0  0  0
    5.8767  -23.8395  -16.8694 H   0  0  0  0  0  0  0  0  0  0  0  0
    4.3163  -24.7043  -16.8593 H   0  0  0  0  0  0  0  0  0  0  0  0
    8.4962  -25.8949  -13.8706 H   0  0  0  0  0  0  0  0  0  0  0  0
    4.1538  -34.3191   -5.2235 H   0  0  0  0  0  0  0  0  0  0  0  0
    5.3282  -37.2230   -7.8572 H   0  0  0  0  0  0  0  0  0  0  0  0
    8.3214  -33.8506   -8.5550 H   0  0  0  0  0  0  0  0  0  0  0  0
    9.6804  -31.9234   -8.3275 H   0  0  0  0  0  0  0  0  0  0  0  0
   11.0414  -29.2557   -6.3452 H   0  0  0  0  0  0  0  0  0  0  0  0
   11.2081  -30.2250   -7.8483 H   0  0  0  0  0  0  0  0  0  0  0  0
   10.2088  -28.7324   -7.8483 H   0  0  0  0  0  0  0  0  0  0  0  0
    8.6765  -28.7889   -4.0695 H   0  0  0  0  0  0  0  0  0  0  0  0
    9.6972  -28.2639   -5.4512 H   0  0  0  0  0  0  0  0  0  0  0  0
    7.9357  -27.9122   -5.4512 H   0  0  0  0  0  0  0  0  0  0  0  0
    6.6346  -30.2948   -4.7511 H   0  0  0  0  0  0  0  0  0  0  0  0
    4.4568  -31.4544   -5.0620 H   0  0  0  0  0  0  0  0  0  0  0  0
    4.3865  -33.1673   -4.4930 H   0  0  0  0  0  0  0  0  0  0  0  0
    6.3613  -31.0035   -3.6162 H   0  0  0  0  0  0  0  0  0  0  0  0
    6.7771  -33.0062   -2.1251 H   0  0  0  0  0  0  0  0  0  0  0  0
    5.4549  -31.5006   -1.4455 H   0  0  0  0  0  0  0  0  0  0  0  0
    3.8383  -32.9312   -1.1399 H   0  0  0  0  0  0  0  0  0  0  0  0
    4.0890  -29.7833   -1.6274 H   0  0  0  0  0  0  0  0  0  0  0  0
    2.2173  -30.9094   -1.5379 H   0  0  0  0  0  0  0  0  0  0  0  0
    4.8849  -28.8850   -3.5708 H   0  0  0  0  0  0  0  0  0  0  0  0
    4.7719  -30.4322   -4.4538 H   0  0  0  0  0  0  0  0  0  0  0  0
  1  2  2  0
  1  3  1  6
  1  4  1  0
  1 53  1  0
  4  5  1  0
  6  5  1  0
  6  7  1  0
  6  8  1  0
  7 12  1  0
  8  9  1  0
  8 10  1  0
 10 11  1  0
 10 12  1  0
 12 13  1  0
 13 14  1  0
 13 22  1  0
 14 15  2  0
 15 16  1  0
 16 17  2  0
 16 22  1  0
 17 18  1  0
 17 19  1  0
 19 20  2  0
 20 21  1  0
 21 22  2  0
 23 24  1  0
 23 40  1  0
 24 25  2  0
 24 26  1  0
 26 27  1  0
 27 28  2  0
 27 29  1  0
 29 30  1  0
 29 40  2  0
 30 31  1  0
 31 32  2  0
 31 38  1  0
 32 33  1  0
 33 34  1  0
 33 35  2  0
 35 36  1  0
 35 37  1  0
 37 38  2  0
 38 39  1  0
 39 40  1  0
 39 41  1  0
 41 42  1  0
 42 43  1  0
 42 44  1  0
 44 45  1  0
 44 46  1  0
 46 47  1  0
 46 48  1  0
 48 49  1  0
 49 50  1  0
 50 51  2  0
 50 52  1  6
 50 53  1  0
  5 54  1  0
  5 55  1  0
  6 56  1  6
  8 57  1  1
  9 58  1  0
 10 59  1  1
 11 60  1  0
 12 61  1  6
 14 62  1  0
 18 63  1  0
 18 64  1  0
 20 65  1  0
 23 66  1  0
 26 67  1  0
 30 68  1  0
 32 69  1  0
 34 70  1  0
 34 71  1  0
 34 72  1  0
 36 73  1  0
 36 74  1  0
 36 75  1  0
 37 76  1  0
 41 77  1  0
 41 78  1  0
 42 79  1  6
 43 80  1  0
 44 81  1  1
 45 82  1  0
 46 83  1  1
 47 84  1  0
 48 85  1  0
 48 86  1  0
M  CHG  2   3  -1  52  -1
M  END
>  <filename_input>  (19) 
7EPV_FDA_docked.sdf

>  <pdb_id>  (19) 
7EPV_FDA

>  <pose_rank>  (19) 
18

>  <num_atoms_heavy>  (19) 
53

>  <num_torsions>  (19) 
13

>  <pose>  (19) 
[3.040300385462063, -29.326665918828724, -4.350610679328635, 0.09168815855935081, 0.5082980550944233, -0.8040164222158191, 7.420902493881705, -2.1216037245291295, 3.3949200211149484, -3.258330016869473, 1.0114904220114926, 0.5136553280238607, -1.7585776647916218, -0.7180017142434257, -0.6716595335428031, 3.108707313657386, 1.9780257046029037, 0.0667002020634022, 3.4581010439946263]

>  <energy>  (19) 
-620.4480242955294

>  <inter_energy>  (19) 
-740.7519070629472

>  <intra_energy>  (19) 
118.62932693557849

>  <rmsd>  (19) 
6.19008

>  <sdf_rank>  (19) 
0

$$$$

     RDKit          3D

 86 91  0  0  0  0  0  0  0  0999 V2000
    2.8664  -28.8807   -5.7230 P   0  0  2  0  0  0  0  0  0  0  0  0
    1.7427  -29.8182   -5.6991 O   0  0  0  0  0  0  0  0  0  0  0  0
    2.5227  -27.4735   -5.7625 O   0  0  0  0  0  0  0  0  0  0  0  0
    3.8525  -29.2207   -6.9053 O   0  0  0  0  0  0  0  0  0  0  0  0
    3.4497  -29.0404   -8.2622 C   0  0  0  0  0  0  0  0  0  0  0  0
    4.3263  -29.8916   -9.1418 C   0  0  1  0  0  0  0  0  0  0  0  0
    4.0691  -29.6228  -10.5353 O   0  0  0  0  0  0  0  0  0  0  0  0
    5.8311  -29.6959   -8.9180 C   0  0  1  0  0  0  0  0  0  0  0  0
    6.5092  -30.9282   -8.8103 O   0  0  0  0  0  0  0  0  0  0  0  0
    6.2336  -28.8479  -10.1376 C   0  0  1  0  0  0  0  0  0  0  0  0
    7.5708  -29.0330  -10.4926 O   0  0  0  0  0  0  0  0  0  0  0  0
    5.2822  -29.3741  -11.2051 C   0  0  2  0  0  0  0  0  0  0  0  0
    5.0146  -28.4862  -12.3164 N   0  0  0  0  0  0  0  0  0  0  0  0
    3.9593  -28.5088  -13.1710 C   0  0  0  0  0  0  0  0  0  0  0  0
    4.0405  -27.6203  -14.1318 N   0  0  0  0  0  0  0  0  0  0  0  0
    5.2541  -26.9977  -13.9122 C   0  0  0  0  0  0  0  0  0  0  0  0
    5.9414  -25.9723  -14.5862 C   0  0  0  0  0  0  0  0  0  0  0  0
    5.4920  -25.3855  -15.6838 N   0  0  0  0  0  0  0  0  0  0  0  0
    7.1474  -25.6178  -14.1066 N   0  0  0  0  0  0  0  0  0  0  0  0
    7.6185  -26.2312  -13.0254 C   0  0  0  0  0  0  0  0  0  0  0  0
    7.0497  -27.1840  -12.3081 N   0  0  0  0  0  0  0  0  0  0  0  0
    5.8644  -27.5351  -12.8041 C   0  0  0  0  0  0  0  0  0  0  0  0
    6.7701  -35.1248   -9.5172 N   0  0  0  0  0  0  0  0  0  0  0  0
    7.8373  -34.7714  -10.1685 C   0  0  0  0  0  0  0  0  0  0  0  0
    8.1728  -33.6253  -10.1959 O   0  0  0  0  0  0  0  0  0  0  0  0
    8.6207  -35.6926  -10.8074 N   0  0  0  0  0  0  0  0  0  0  0  0
    8.3076  -37.0313  -10.8255 C   0  0  0  0  0  0  0  0  0  0  0  0
    9.0318  -37.8249  -11.3959 O   0  0  0  0  0  0  0  0  0  0  0  0
    7.1459  -37.4229  -10.1904 C   0  0  0  0  0  0  0  0  0  0  0  0
    6.7986  -38.6708  -10.2103 N   0  0  0  0  0  0  0  0  0  0  0  0
    5.6095  -39.0012   -9.6313 C   0  0  0  0  0  0  0  0  0  0  0  0
    5.1770  -40.3359   -9.6987 C   0  0  0  0  0  0  0  0  0  0  0  0
    3.9753  -40.7158   -9.1688 C   0  0  0  0  0  0  0  0  0  0  0  0
    3.5055  -42.1437   -9.2867 C   0  0  0  0  0  0  0  0  0  0  0  0
    3.1840  -39.7618   -8.4859 C   0  0  0  0  0  0  0  0  0  0  0  0
    1.8804  -40.1606   -7.8582 C   0  0  0  0  0  0  0  0  0  0  0  0
    3.6281  -38.4624   -8.3624 C   0  0  0  0  0  0  0  0  0  0  0  0
    4.8295  -38.0513   -8.9475 C   0  0  0  0  0  0  0  0  0  0  0  0
    5.2871  -36.7413   -8.8990 N   0  0  0  0  0  0  0  0  0  0  0  0
    6.4081  -36.3755   -9.5435 C   0  0  0  0  0  0  0  0  0  0  0  0
    4.5172  -35.6880   -8.2311 C   0  0  0  0  0  0  0  0  0  0  0  0
    4.9559  -35.5343   -6.7785 C   0  0  2  0  0  0  0  0  0  0  0  0
    4.0404  -36.1695   -5.9337 O   0  0  0  0  0  0  0  0  0  0  0  0
    5.0994  -34.0467   -6.4342 C   0  0  2  0  0  0  0  0  0  0  0  0
    6.2123  -33.4780   -7.0597 O   0  0  0  0  0  0  0  0  0  0  0  0
    5.2072  -33.7212   -4.9523 C   0  0  2  0  0  0  0  0  0  0  0  0
    3.9757  -33.9606   -4.2859 O   0  0  0  0  0  0  0  0  0  0  0  0
    5.6076  -32.2720   -4.7719 C   0  0  0  0  0  0  0  0  0  0  0  0
    4.4543  -31.4907   -4.8779 O   0  0  0  0  0  0  0  0  0  0  0  0
    4.0160  -30.5462   -3.7044 P   0  0  1  0  0  0  0  0  0  0  0  0
    2.7961  -31.1226   -3.1933 O   0  0  0  0  0  0  0  0  0  0  0  0
    5.1347  -30.3048   -2.8133 O   0  0  0  0  0  0  0  0  0  0  0  0
    3.6951  -29.1939   -4.4272 O   0  0  0  0  0  0  0  0  0  0  0  0
    2.3993  -29.3448   -8.3803 H   0  0  0  0  0  0  0  0  0  0  0  0
    3.5486  -27.9821   -8.5455 H   0  0  0  0  0  0  0  0  0  0  0  0
    4.0673  -30.9241   -8.8647 H   0  0  0  0  0  0  0  0  0  0  0  0
    6.0934  -29.2015   -7.9711 H   0  0  0  0  0  0  0  0  0  0  0  0
    6.6335  -31.1540   -7.8545 H   0  0  0  0  0  0  0  0  0  0  0  0
    6.1576  -27.7639   -9.9664 H   0  0  0  0  0  0  0  0  0  0  0  0
    8.1221  -29.1093   -9.6738 H   0  0  0  0  0  0  0  0  0  0  0  0
    5.7569  -30.2536  -11.6646 H   0  0  0  0  0  0  0  0  0  0  0  0
    3.1156  -29.2070  -13.0670 H   0  0  0  0  0  0  0  0  0  0  0  0
    6.0432  -24.6393  -16.1313 H   0  0  0  0  0  0  0  0  0  0  0  0
    4.5911  -25.6750  -16.0906 H   0  0  0  0  0  0  0  0  0  0  0  0
    8.6111  -25.9028  -12.6833 H   0  0  0  0  0  0  0  0  0  0  0  0
    6.2215  -34.4300   -8.9907 H   0  0  0  0  0  0  0  0  0  0  0  0
    9.4724  -35.3733  -11.2906 H   0  0  0  0  0  0  0  0  0  0  0  0
    7.3979  -39.3859  -10.6467 H   0  0  0  0  0  0  0  0  0  0  0  0
    5.8156  -41.0877  -10.1856 H   0  0  0  0  0  0  0  0  0  0  0  0
    3.3659  -42.5680   -8.2815 H   0  0  0  0  0  0  0  0  0  0  0  0
    2.5508  -42.1718   -9.8324 H   0  0  0  0  0  0  0  0  0  0  0  0
    4.2571  -42.7331   -9.8324 H   0  0  0  0  0  0  0  0  0  0  0  0
    1.9767  -40.1311   -6.7628 H   0  0  0  0  0  0  0  0  0  0  0  0
    1.0918  -39.4626   -8.1758 H   0  0  0  0  0  0  0  0  0  0  0  0
    1.6172  -41.1803   -8.1758 H   0  0  0  0  0  0  0  0  0  0  0  0
    3.0273  -37.7371   -7.7941 H   0  0  0  0  0  0  0  0  0  0  0  0
    4.6759  -34.7358   -8.7585 H   0  0  0  0  0  0  0  0  0  0  0  0
    3.4524  -35.9637   -8.2505 H   0  0  0  0  0  0  0  0  0  0  0  0
    5.9358  -36.0133   -6.6356 H   0  0  0  0  0  0  0  0  0  0  0  0
    4.2877  -35.9980   -4.9905 H   0  0  0  0  0  0  0  0  0  0  0  0
    4.1549  -33.6204   -6.8033 H   0  0  0  0  0  0  0  0  0  0  0  0
    6.8470  -33.1537   -6.3726 H   0  0  0  0  0  0  0  0  0  0  0  0
    5.9741  -34.3757   -4.5125 H   0  0  0  0  0  0  0  0  0  0  0  0
    4.1193  -33.9327   -3.3068 H   0  0  0  0  0  0  0  0  0  0  0  0
    6.0645  -32.1312   -3.7813 H   0  0  0  0  0  0  0  0  0  0  0  0
    6.3402  -31.9791   -5.5384 H   0  0  0  0  0  0  0  0  0  0  0  0
  1  2  2  0
  1  3  1  1
  1  4  1  0
  1 53  1  0
  4  5  1  0
  6  5  1  0
  6  7  1  0
  6  8  1  0
  7 12  1  0
  8  9  1  0
  8 10  1  0
 10 11  1  0
 10 12  1  0
 12 13  1  0
 13 14  1  0
 13 22  1  0
 14 15  2  0
 15 16  1  0
 16 17  2  0
 16 22  1  0
 17 18  1  0
 17 19  1  0
 19 20  2  0
 20 21  1  0
 21 22  2  0
 23 24  1  0
 23 40  1  0
 24 25  2  0
 24 26  1  0
 26 27  1  0
 27 28  2  0
 27 29  1  0
 29 30  1  0
 29 40  2  0
 30 31  1  0
 31 32  2  0
 31 38  1  0
 32 33  1  0
 33 34  1  0
 33 35  2  0
 35 36  1  0
 35 37  1  0
 37 38  2  0
 38 39  1  0
 39 40  1  0
 39 41  1  0
 41 42  1  0
 42 43  1  0
 42 44  1  0
 44 45  1  0
 44 46  1  0
 46 47  1  0
 46 48  1  0
 48 49  1  0
 49 50  1  0
 50 51  2  0
 50 52  1  1
 50 53  1  0
  5 54  1  0
  5 55  1  0
  6 56  1  6
  8 57  1  1
  9 58  1  0
 10 59  1  1
 11 60  1  0
 12 61  1  6
 14 62  1  0
 18 63  1  0
 18 64  1  0
 20 65  1  0
 23 66  1  0
 26 67  1  0
 30 68  1  0
 32 69  1  0
 34 70  1  0
 34 71  1  0
 34 72  1  0
 36 73  1  0
 36 74  1  0
 36 75  1  0
 37 76  1  0
 41 77  1  0
 41 78  1  0
 42 79  1  6
 43 80  1  0
 44 81  1  6
 45 82  1  0
 46 83  1  1
 47 84  1  0
 48 85  1  0
 48 86  1  0
M  CHG  2   3  -1  52  -1
M  END
>  <filename_input>  (20) 
7EPV_FDA_docked.sdf

>  <pdb_id>  (20) 
7EPV_FDA

>  <pose_rank>  (20) 
19

>  <num_atoms_heavy>  (20) 
53

>  <num_torsions>  (20) 
13

>  <pose>  (20) 
[4.454315925824145, -31.490652737722627, -4.877881194276359, 1.7050205586578362, 0.5014048190015277, 0.12121281875210962, 1.121556732404109, -0.27772058201289523, 3.4265763757942898, 1.8322414244294893, 0.6817775777567743, 0.2656805918818523, 4.256003743499881, -1.3865450680551683, -1.6803988246173507, -0.2155616130214027, -0.2274754956688362, -0.8201945637643515, 5.963923031071843]

>  <energy>  (20) 
-597.5916369602851

>  <inter_energy>  (20) 
-685.9673095852237

>  <intra_energy>  (20) 
88.62747533652096

>  <rmsd>  (20) 
9.14775

>  <sdf_rank>  (20) 
0

$$$$

     RDKit          3D

 86 91  0  0  0  0  0  0  0  0999 V2000
    8.6367  -28.8696   -3.1867 P   0  0  2  0  0  0  0  0  0  0  0  0
    9.2230  -27.5708   -2.8527 O   0  0  0  0  0  0  0  0  0  0  0  0
    9.2917  -29.6122   -4.2447 O   0  0  0  0  0  0  0  0  0  0  0  0
    7.1011  -28.7220   -3.5125 O   0  0  0  0  0  0  0  0  0  0  0  0
    6.4188  -29.7229   -4.2664 C   0  0  0  0  0  0  0  0  0  0  0  0
    5.0724  -29.1854   -4.6727 C   0  0  1  0  0  0  0  0  0  0  0  0
    5.0457  -28.8824   -6.0826 O   0  0  0  0  0  0  0  0  0  0  0  0
    3.9000  -30.1351   -4.3962 C   0  0  1  0  0  0  0  0  0  0  0  0
    2.8252  -29.4716   -3.7682 O   0  0  0  0  0  0  0  0  0  0  0  0
    3.5841  -30.6791   -5.8008 C   0  0  1  0  0  0  0  0  0  0  0  0
    2.2491  -31.0659   -5.9303 O   0  0  0  0  0  0  0  0  0  0  0  0
    3.9173  -29.4781   -6.6774 C   0  0  2  0  0  0  0  0  0  0  0  0
    4.2301  -29.7642   -8.0612 N   0  0  0  0  0  0  0  0  0  0  0  0
    3.4079  -29.6853   -9.1393 C   0  0  0  0  0  0  0  0  0  0  0  0
    3.9629  -30.0905  -10.2559 N   0  0  0  0  0  0  0  0  0  0  0  0
    5.2261  -30.4997   -9.8742 C   0  0  0  0  0  0  0  0  0  0  0  0
    6.3109  -31.0479  -10.5819 C   0  0  0  0  0  0  0  0  0  0  0  0
    6.2836  -31.3124  -11.8780 N   0  0  0  0  0  0  0  0  0  0  0  0
    7.4115  -31.3662   -9.8763 N   0  0  0  0  0  0  0  0  0  0  0  0
    7.4287  -31.1359   -8.5672 C   0  0  0  0  0  0  0  0  0  0  0  0
    6.4802  -30.6087   -7.8133 N   0  0  0  0  0  0  0  0  0  0  0  0
    5.3920  -30.3137   -8.5226 C   0  0  0  0  0  0  0  0  0  0  0  0
    6.6480  -33.4880    4.3275 N   0  0  0  0  0  0  0  0  0  0  0  0
    5.4042  -33.1519    4.1605 C   0  0  0  0  0  0  0  0  0  0  0  0
    5.1086  -32.3240    3.3518 O   0  0  0  0  0  0  0  0  0  0  0  0
    4.4017  -33.7519    4.8716 N   0  0  0  0  0  0  0  0  0  0  0  0
    4.6538  -34.7138    5.8211 C   0  0  0  0  0  0  0  0  0  0  0  0
    3.7373  -35.2335    6.4290 O   0  0  0  0  0  0  0  0  0  0  0  0
    5.9731  -35.0449    6.0585 C   0  0  0  0  0  0  0  0  0  0  0  0
    6.2556  -35.9244    6.9667 N   0  0  0  0  0  0  0  0  0  0  0  0
    7.5734  -36.1688    7.2160 C   0  0  0  0  0  0  0  0  0  0  0  0
    7.9078  -37.0674    8.2425 C   0  0  0  0  0  0  0  0  0  0  0  0
    9.2131  -37.3208    8.5609 C   0  0  0  0  0  0  0  0  0  0  0  0
    9.5555  -38.2552    9.6937 C   0  0  0  0  0  0  0  0  0  0  0  0
   10.2435  -36.7166    7.8022 C   0  0  0  0  0  0  0  0  0  0  0  0
   11.6844  -37.0098    8.1027 C   0  0  0  0  0  0  0  0  0  0  0  0
    9.9248  -35.8798    6.7538 C   0  0  0  0  0  0  0  0  0  0  0  0
    8.5942  -35.5716    6.4548 C   0  0  0  0  0  0  0  0  0  0  0  0
    8.2285  -34.6893    5.4470 N   0  0  0  0  0  0  0  0  0  0  0  0
    6.9405  -34.3622    5.2474 C   0  0  0  0  0  0  0  0  0  0  0  0
    9.2343  -34.0044    4.6300 C   0  0  0  0  0  0  0  0  0  0  0  0
    9.4593  -34.7438    3.3151 C   0  0  2  0  0  0  0  0  0  0  0  0
   10.3389  -35.8127    3.5132 O   0  0  0  0  0  0  0  0  0  0  0  0
    9.9889  -33.7695    2.2556 C   0  0  2  0  0  0  0  0  0  0  0  0
   11.0009  -32.9526    2.7669 O   0  0  0  0  0  0  0  0  0  0  0  0
    8.9510  -32.8519    1.6275 C   0  0  2  0  0  0  0  0  0  0  0  0
    7.6993  -33.5108    1.4965 O   0  0  0  0  0  0  0  0  0  0  0  0
    9.4273  -32.3933    0.2653 C   0  0  0  0  0  0  0  0  0  0  0  0
    9.1687  -31.0246    0.1575 O   0  0  0  0  0  0  0  0  0  0  0  0
    9.8650  -30.1629   -0.9532 P   0  0  1  0  0  0  0  0  0  0  0  0
   10.4192  -29.0276   -0.2563 O   0  0  0  0  0  0  0  0  0  0  0  0
   10.7199  -31.0007   -1.7725 O   0  0  0  0  0  0  0  0  0  0  0  0
    8.6704  -29.6951   -1.8521 O   0  0  0  0  0  0  0  0  0  0  0  0
    7.0036  -29.9737   -5.1637 H   0  0  0  0  0  0  0  0  0  0  0  0
    6.2924  -30.6304   -3.6577 H   0  0  0  0  0  0  0  0  0  0  0  0
    4.9415  -28.2858   -4.0534 H   0  0  0  0  0  0  0  0  0  0  0  0
    4.1229  -30.9438   -3.6847 H   0  0  0  0  0  0  0  0  0  0  0  0
    2.9274  -29.5347   -2.7855 H   0  0  0  0  0  0  0  0  0  0  0  0
    4.1449  -31.5896   -6.0585 H   0  0  0  0  0  0  0  0  0  0  0  0
    1.8504  -31.1815   -5.0316 H   0  0  0  0  0  0  0  0  0  0  0  0
    3.0188  -28.8453   -6.7242 H   0  0  0  0  0  0  0  0  0  0  0  0
    2.3733  -29.3160   -9.0812 H   0  0  0  0  0  0  0  0  0  0  0  0
    7.1123  -31.7143  -12.3392 H   0  0  0  0  0  0  0  0  0  0  0  0
    5.4337  -31.1165  -12.4258 H   0  0  0  0  0  0  0  0  0  0  0  0
    8.3529  -31.4214   -8.0433 H   0  0  0  0  0  0  0  0  0  0  0  0
    7.3877  -33.0716    3.7441 H   0  0  0  0  0  0  0  0  0  0  0  0
    3.4266  -33.4741    4.6901 H   0  0  0  0  0  0  0  0  0  0  0  0
    5.5132  -36.4200    7.4806 H   0  0  0  0  0  0  0  0  0  0  0  0
    7.1066  -37.5755    8.7991 H   0  0  0  0  0  0  0  0  0  0  0  0
    9.3707  -37.7509   10.6536 H   0  0  0  0  0  0  0  0  0  0  0  0
    8.9296  -39.1573    9.6269 H   0  0  0  0  0  0  0  0  0  0  0  0
   10.6161  -38.5392    9.6269 H   0  0  0  0  0  0  0  0  0  0  0  0
   11.8330  -37.0400    9.1922 H   0  0  0  0  0  0  0  0  0  0  0  0
   11.9592  -37.9822    7.6680 H   0  0  0  0  0  0  0  0  0  0  0  0
   12.3173  -36.2220    7.6680 H   0  0  0  0  0  0  0  0  0  0  0  0
   10.7306  -35.4475    6.1425 H   0  0  0  0  0  0  0  0  0  0  0  0
    8.8888  -32.9825    4.4144 H   0  0  0  0  0  0  0  0  0  0  0  0
   10.1826  -33.9787    5.1867 H   0  0  0  0  0  0  0  0  0  0  0  0
    8.5049  -35.1545    2.9539 H   0  0  0  0  0  0  0  0  0  0  0  0
   10.4625  -35.9629    4.4839 H   0  0  0  0  0  0  0  0  0  0  0  0
   10.3594  -34.4441    1.4697 H   0  0  0  0  0  0  0  0  0  0  0  0
   10.9742  -32.9741    3.7563 H   0  0  0  0  0  0  0  0  0  0  0  0
    8.8190  -31.9815    2.2870 H   0  0  0  0  0  0  0  0  0  0  0  0
    7.3324  -33.7040    2.3954 H   0  0  0  0  0  0  0  0  0  0  0  0
   10.5070  -32.5785    0.1652 H   0  0  0  0  0  0  0  0  0  0  0  0
    8.9040  -32.9455   -0.5291 H   0  0  0  0  0  0  0  0  0  0  0  0
  1  2  2  0
  1  3  1  6
  1  4  1  0
  1 53  1  0
  4  5  1  0
  6  5  1  0
  6  7  1  0
  6  8  1  0
  7 12  1  0
  8  9  1  0
  8 10  1  0
 10 11  1  0
 10 12  1  0
 12 13  1  0
 13 14  1  0
 13 22  1  0
 14 15  2  0
 15 16  1  0
 16 17  2  0
 16 22  1  0
 17 18  1  0
 17 19  1  0
 19 20  2  0
 20 21  1  0
 21 22  2  0
 23 24  1  0
 23 40  1  0
 24 25  2  0
 24 26  1  0
 26 27  1  0
 27 28  2  0
 27 29  1  0
 29 30  1  0
 29 40  2  0
 30 31  1  0
 31 32  2  0
 31 38  1  0
 32 33  1  0
 33 34  1  0
 33 35  2  0
 35 36  1  0
 35 37  1  0
 37 38  2  0
 38 39  1  0
 39 40  1  0
 39 41  1  0
 41 42  1  0
 42 43  1  0
 42 44  1  0
 44 45  1  0
 44 46  1  0
 46 47  1  0
 46 48  1  0
 48 49  1  0
 49 50  1  0
 50 51  2  0
 50 52  1  6
 50 53  1  0
  5 54  1  0
  5 55  1  0
  6 56  1  1
  8 57  1  1
  9 58  1  0
 10 59  1  6
 11 60  1  0
 12 61  1  6
 14 62  1  0
 18 63  1  0
 18 64  1  0
 20 65  1  0
 23 66  1  0
 26 67  1  0
 30 68  1  0
 32 69  1  0
 34 70  1  0
 34 71  1  0
 34 72  1  0
 36 73  1  0
 36 74  1  0
 36 75  1  0
 37 76  1  0
 41 77  1  0
 41 78  1  0
 42 79  1  6
 43 80  1  0
 44 81  1  6
 45 82  1  0
 46 83  1  1
 47 84  1  0
 48 85  1  0
 48 86  1  0
M  CHG  2   3  -1  52  -1
M  END
>  <filename_input>  (21) 
7EPV_FDA_docked.sdf

>  <pdb_id>  (21) 
7EPV_FDA

>  <pose_rank>  (21) 
20

>  <num_atoms_heavy>  (21) 
53

>  <num_torsions>  (21) 
13

>  <pose>  (21) 
[9.168736315930065, -31.024603010645553, 0.15746535397184705, 0.3288574398286178, 0.9223217101931327, -1.87622067061325, -18.030956836706565, -10.445743536743155, -10.857604227307739, 3.4296238002030126, 31.94283666776032, -13.69057229409929, -3.82525661722518, -0.6572618015271755, 0.7883440456972953, 12.95614976539507, 1.8045632082230039, -6.763266267636059, 12.317036349926804]

>  <energy>  (21) 
-591.6364545108017

>  <inter_energy>  (21) 
-627.7679787604092

>  <intra_energy>  (21) 
35.52686988325228

>  <rmsd>  (21) 
6.56247

>  <sdf_rank>  (21) 
0

$$$$

     RDKit          3D

 86 91  0  0  0  0  0  0  0  0999 V2000
    7.1281  -31.0711    0.8313 P   0  0  2  0  0  0  0  0  0  0  0  0
    7.0905  -29.6146    0.9708 O   0  0  0  0  0  0  0  0  0  0  0  0
    6.2140  -31.6432   -0.1366 O   0  0  0  0  0  0  0  0  0  0  0  0
    6.9287  -31.7715    2.2297 O   0  0  0  0  0  0  0  0  0  0  0  0
    7.7396  -32.8829    2.6080 C   0  0  0  0  0  0  0  0  0  0  0  0
    6.8589  -34.0960    2.7478 C   0  0  1  0  0  0  0  0  0  0  0  0
    7.5417  -35.1451    3.4644 O   0  0  0  0  0  0  0  0  0  0  0  0
    5.5367  -33.8392    3.4818 C   0  0  1  0  0  0  0  0  0  0  0  0
    4.4389  -34.3981    2.7944 O   0  0  0  0  0  0  0  0  0  0  0  0
    5.8077  -34.4565    4.8653 C   0  0  1  0  0  0  0  0  0  0  0  0
    4.6366  -34.8878    5.4906 O   0  0  0  0  0  0  0  0  0  0  0  0
    6.7250  -35.6196    4.5084 C   0  0  2  0  0  0  0  0  0  0  0  0
    7.5803  -36.1076    5.5691 N   0  0  0  0  0  0  0  0  0  0  0  0
    8.8391  -35.7050    5.8821 C   0  0  0  0  0  0  0  0  0  0  0  0
    9.3885  -36.3984    6.8499 N   0  0  0  0  0  0  0  0  0  0  0  0
    8.4354  -37.3471    7.1667 C   0  0  0  0  0  0  0  0  0  0  0  0
    8.4021  -38.3977    8.1011 C   0  0  0  0  0  0  0  0  0  0  0  0
    9.4083  -38.6956    8.9071 N   0  0  0  0  0  0  0  0  0  0  0  0
    7.2990  -39.1678    8.1262 N   0  0  0  0  0  0  0  0  0  0  0  0
    6.3009  -38.8940    7.2919 C   0  0  0  0  0  0  0  0  0  0  0  0
    6.2206  -37.9251    6.3969 N   0  0  0  0  0  0  0  0  0  0  0  0
    7.3256  -37.1817    6.3730 C   0  0  0  0  0  0  0  0  0  0  0  0
    6.1085  -30.4410   -8.2238 N   0  0  0  0  0  0  0  0  0  0  0  0
    6.0264  -30.1547   -9.4885 C   0  0  0  0  0  0  0  0  0  0  0  0
    6.9807  -30.2786  -10.1960 O   0  0  0  0  0  0  0  0  0  0  0  0
    4.8506  -29.7402  -10.0510 N   0  0  0  0  0  0  0  0  0  0  0  0
    3.7052  -29.5715   -9.3093 C   0  0  0  0  0  0  0  0  0  0  0  0
    2.6739  -29.2101   -9.8436 O   0  0  0  0  0  0  0  0  0  0  0  0
    3.7832  -29.8123   -7.9521 C   0  0  0  0  0  0  0  0  0  0  0  0
    2.7345  -29.6356   -7.2124 N   0  0  0  0  0  0  0  0  0  0  0  0
    2.8758  -29.8174   -5.8687 C   0  0  0  0  0  0  0  0  0  0  0  0
    1.7721  -29.5661   -5.0368 C   0  0  0  0  0  0  0  0  0  0  0  0
    1.8681  -29.6953   -3.6791 C   0  0  0  0  0  0  0  0  0  0  0  0
    0.6868  -29.3806   -2.7964 C   0  0  0  0  0  0  0  0  0  0  0  0
    3.0802  -30.1507   -3.1082 C   0  0  0  0  0  0  0  0  0  0  0  0
    3.2002  -30.3419   -1.6244 C   0  0  0  0  0  0  0  0  0  0  0  0
    4.1504  -30.4575   -3.9215 C   0  0  0  0  0  0  0  0  0  0  0  0
    4.0801  -30.2769   -5.3061 C   0  0  0  0  0  0  0  0  0  0  0  0
    5.1506  -30.5168   -6.1572 N   0  0  0  0  0  0  0  0  0  0  0  0
    5.0618  -30.2536   -7.4720 C   0  0  0  0  0  0  0  0  0  0  0  0
    6.4472  -30.9685   -5.6443 C   0  0  0  0  0  0  0  0  0  0  0  0
    6.6418  -32.4593   -5.9012 C   0  0  2  0  0  0  0  0  0  0  0  0
    5.4556  -33.1489   -5.6317 O   0  0  0  0  0  0  0  0  0  0  0  0
    7.8035  -32.9855   -5.0491 C   0  0  2  0  0  0  0  0  0  0  0  0
    7.3612  -33.8816   -4.0722 O   0  0  0  0  0  0  0  0  0  0  0  0
    8.6318  -31.9258   -4.3388 C   0  0  2  0  0  0  0  0  0  0  0  0
    9.7945  -31.6000   -5.0871 O   0  0  0  0  0  0  0  0  0  0  0  0
    9.0351  -32.4230   -2.9665 C   0  0  0  0  0  0  0  0  0  0  0  0
    8.5510  -31.5157   -2.0208 O   0  0  0  0  0  0  0  0  0  0  0  0
    9.4546  -31.0425   -0.8289 P   0  0  1  0  0  0  0  0  0  0  0  0
   10.6266  -31.8820   -0.8890 O   0  0  0  0  0  0  0  0  0  0  0  0
    9.5931  -29.5988   -0.8500 O   0  0  0  0  0  0  0  0  0  0  0  0
    8.6087  -31.4116    0.4369 O   0  0  0  0  0  0  0  0  0  0  0  0
    8.5015  -33.0653    1.8358 H   0  0  0  0  0  0  0  0  0  0  0  0
    8.2429  -32.6724    3.5632 H   0  0  0  0  0  0  0  0  0  0  0  0
    6.6284  -34.3845    1.7117 H   0  0  0  0  0  0  0  0  0  0  0  0
    5.2512  -32.7795    3.5551 H   0  0  0  0  0  0  0  0  0  0  0  0
    3.7768  -34.7351    3.4487 H   0  0  0  0  0  0  0  0  0  0  0  0
    6.2426  -33.7495    5.5870 H   0  0  0  0  0  0  0  0  0  0  0  0
    4.7521  -34.8452    6.4730 H   0  0  0  0  0  0  0  0  0  0  0  0
    6.0853  -36.4777    4.2548 H   0  0  0  0  0  0  0  0  0  0  0  0
    9.3497  -34.8752    5.3716 H   0  0  0  0  0  0  0  0  0  0  0  0
    9.3222  -39.4786    9.5707 H   0  0  0  0  0  0  0  0  0  0  0  0
   10.2778  -38.1446    8.8708 H   0  0  0  0  0  0  0  0  0  0  0  0
    5.4283  -39.5607    7.3548 H   0  0  0  0  0  0  0  0  0  0  0  0
    6.9836  -30.8088   -7.8241 H   0  0  0  0  0  0  0  0  0  0  0  0
    4.8223  -29.5483  -11.0625 H   0  0  0  0  0  0  0  0  0  0  0  0
    1.8289  -29.3679   -7.6236 H   0  0  0  0  0  0  0  0  0  0  0  0
    0.8152  -29.2605   -5.4850 H   0  0  0  0  0  0  0  0  0  0  0  0
    0.9862  -29.4603   -1.7409 H   0  0  0  0  0  0  0  0  0  0  0  0
    0.3375  -28.3580   -3.0021 H   0  0  0  0  0  0  0  0  0  0  0  0
   -0.1250  -30.0938   -3.0021 H   0  0  0  0  0  0  0  0  0  0  0  0
    2.6843  -29.5203   -1.1059 H   0  0  0  0  0  0  0  0  0  0  0  0
    2.7416  -31.3004   -1.3399 H   0  0  0  0  0  0  0  0  0  0  0  0
    4.2628  -30.3450   -1.3399 H   0  0  0  0  0  0  0  0  0  0  0  0
    5.0749  -30.8508   -3.4735 H   0  0  0  0  0  0  0  0  0  0  0  0
    7.2490  -30.4082   -6.1474 H   0  0  0  0  0  0  0  0  0  0  0  0
    6.4783  -30.7908   -4.5592 H   0  0  0  0  0  0  0  0  0  0  0  0
    6.8942  -32.6223   -6.9594 H   0  0  0  0  0  0  0  0  0  0  0  0
    5.3312  -33.2213   -4.6522 H   0  0  0  0  0  0  0  0  0  0  0  0
    8.4496  -33.4722   -5.7945 H   0  0  0  0  0  0  0  0  0  0  0  0
    7.5456  -33.5080   -3.1741 H   0  0  0  0  0  0  0  0  0  0  0  0
    8.0164  -31.0196   -4.2391 H   0  0  0  0  0  0  0  0  0  0  0  0
   10.5380  -31.3916   -4.4675 H   0  0  0  0  0  0  0  0  0  0  0  0
    8.6006  -33.4174   -2.7868 H   0  0  0  0  0  0  0  0  0  0  0  0
   10.1299  -32.5030   -2.8949 H   0  0  0  0  0  0  0  0  0  0  0  0
  1  2  2  0
  1  3  1  6
  1  4  1  0
  1 53  1  0
  4  5  1  0
  6  5  1  0
  6  7  1  0
  6  8  1  0
  7 12  1  0
  8  9  1  0
  8 10  1  0
 10 11  1  0
 10 12  1  0
 12 13  1  0
 13 14  1  0
 13 22  1  0
 14 15  2  0
 15 16  1  0
 16 17  2  0
 16 22  1  0
 17 18  1  0
 17 19  1  0
 19 20  2  0
 20 21  1  0
 21 22  2  0
 23 24  1  0
 23 40  1  0
 24 25  2  0
 24 26  1  0
 26 27  1  0
 27 28  2  0
 27 29  1  0
 29 30  1  0
 29 40  2  0
 30 31  1  0
 31 32  2  0
 31 38  1  0
 32 33  1  0
 33 34  1  0
 33 35  2  0
 35 36  1  0
 35 37  1  0
 37 38  2  0
 38 39  1  0
 39 40  1  0
 39 41  1  0
 41 42  1  0
 42 43  1  0
 42 44  1  0
 44 45  1  0
 44 46  1  0
 46 47  1  0
 46 48  1  0
 48 49  1  0
 49 50  1  0
 50 51  2  0
 50 52  1  6
 50 53  1  0
  5 54  1  0
  5 55  1  0
  6 56  1  6
  8 57  1  1
  9 58  1  0
 10 59  1  1
 11 60  1  0
 12 61  1  6
 14 62  1  0
 18 63  1  0
 18 64  1  0
 20 65  1  0
 23 66  1  0
 26 67  1  0
 30 68  1  0
 32 69  1  0
 34 70  1  0
 34 71  1  0
 34 72  1  0
 36 73  1  0
 36 74  1  0
 36 75  1  0
 37 76  1  0
 41 77  1  0
 41 78  1  0
 42 79  1  6
 43 80  1  0
 44 81  1  6
 45 82  1  0
 46 83  1  1
 47 84  1  0
 48 85  1  0
 48 86  1  0
M  CHG  2   3  -1  52  -1
M  END
>  <filename_input>  (22) 
7EPV_FDA_docked.sdf

>  <pdb_id>  (22) 
7EPV_FDA

>  <pose_rank>  (22) 
21

>  <num_atoms_heavy>  (22) 
53

>  <num_torsions>  (22) 
13

>  <pose>  (22) 
[8.551036991391976, -31.515727643488912, -2.0208238460527728, -3.3597161323484914, -1.4197181325415869, 1.33836178027227, 15.495885954998322, 54.537755050695694, 45.64766958183027, 42.243760525967765, 32.85672426634495, 25.545684231472492, -0.8304167043892272, -24.735085614385422, 38.731802122212315, 11.881920666528952, 28.123811068101332, 6.496056313371668, -44.1148977174865]

>  <energy>  (22) 
-596.7671618936183

>  <inter_energy>  (22) 
-618.3543125920198

>  <intra_energy>  (22) 
24.392951712375236

>  <rmsd>  (22) 
14.6261

>  <sdf_rank>  (22) 
0

$$$$

     RDKit          3D

 86 91  0  0  0  0  0  0  0  0999 V2000
    1.7430  -38.7157   -4.6096 P   0  0  2  0  0  0  0  0  0  0  0  0
    2.7796  -39.4677   -3.9010 O   0  0  0  0  0  0  0  0  0  0  0  0
    1.5356  -37.3492   -4.1743 O   0  0  0  0  0  0  0  0  0  0  0  0
    0.3726  -39.4952   -4.5859 O   0  0  0  0  0  0  0  0  0  0  0  0
   -0.2057  -39.9853   -5.7946 C   0  0  0  0  0  0  0  0  0  0  0  0
   -1.6464  -39.5517   -5.8496 C   0  0  1  0  0  0  0  0  0  0  0  0
   -2.0545  -38.9691   -4.5948 O   0  0  0  0  0  0  0  0  0  0  0  0
   -1.9583  -38.5229   -6.9437 C   0  0  1  0  0  0  0  0  0  0  0  0
   -3.1105  -38.8727   -7.6786 O   0  0  0  0  0  0  0  0  0  0  0  0
   -2.0848  -37.2185   -6.1368 C   0  0  1  0  0  0  0  0  0  0  0  0
   -2.9215  -36.2905   -6.7592 O   0  0  0  0  0  0  0  0  0  0  0  0
   -2.6711  -37.7246   -4.8247 C   0  0  2  0  0  0  0  0  0  0  0  0
   -2.4548  -36.8883   -3.6634 N   0  0  0  0  0  0  0  0  0  0  0  0
   -1.5120  -37.0266   -2.6956 C   0  0  0  0  0  0  0  0  0  0  0  0
   -1.6232  -36.1540   -1.7234 N   0  0  0  0  0  0  0  0  0  0  0  0
   -2.7418  -35.4164   -2.0600 C   0  0  0  0  0  0  0  0  0  0  0  0
   -3.4069  -34.3451   -1.4370 C   0  0  0  0  0  0  0  0  0  0  0  0
   -3.0365  -33.8252   -0.2780 N   0  0  0  0  0  0  0  0  0  0  0  0
   -4.5122  -33.8698   -2.0393 N   0  0  0  0  0  0  0  0  0  0  0  0
   -4.9085  -34.4145   -3.1853 C   0  0  0  0  0  0  0  0  0  0  0  0
   -4.3489  -35.4017   -3.8625 N   0  0  0  0  0  0  0  0  0  0  0  0
   -3.2658  -35.8719   -3.2462 C   0  0  0  0  0  0  0  0  0  0  0  0
    3.4081  -30.1220   -4.1608 N   0  0  0  0  0  0  0  0  0  0  0  0
    2.4811  -29.6131   -3.4060 C   0  0  0  0  0  0  0  0  0  0  0  0
    2.4493  -29.8671   -2.2393 O   0  0  0  0  0  0  0  0  0  0  0  0
    1.5436  -28.7537   -3.9092 N   0  0  0  0  0  0  0  0  0  0  0  0
    1.5083  -28.4081   -5.2395 C   0  0  0  0  0  0  0  0  0  0  0  0
    0.6659  -27.6335   -5.6519 O   0  0  0  0  0  0  0  0  0  0  0  0
    2.4471  -28.9832   -6.0727 C   0  0  0  0  0  0  0  0  0  0  0  0
    2.4292  -28.7080   -7.3385 N   0  0  0  0  0  0  0  0  0  0  0  0
    3.3295  -29.3521   -8.1341 C   0  0  0  0  0  0  0  0  0  0  0  0
    3.2866  -29.1233   -9.5194 C   0  0  0  0  0  0  0  0  0  0  0  0
    4.1403  -29.7713  -10.3682 C   0  0  0  0  0  0  0  0  0  0  0  0
    4.0535  -29.5474  -11.8568 C   0  0  0  0  0  0  0  0  0  0  0  0
    5.1246  -30.6378   -9.8364 C   0  0  0  0  0  0  0  0  0  0  0  0
    6.1018  -31.3294  -10.7416 C   0  0  0  0  0  0  0  0  0  0  0  0
    5.2135  -30.8224   -8.4730 C   0  0  0  0  0  0  0  0  0  0  0  0
    4.3106  -30.2070   -7.6007 C   0  0  0  0  0  0  0  0  0  0  0  0
    4.3255  -30.4099   -6.2271 N   0  0  0  0  0  0  0  0  0  0  0  0
    3.3886  -29.8598   -5.4362 C   0  0  0  0  0  0  0  0  0  0  0  0
    5.2976  -31.3089   -5.5988 C   0  0  0  0  0  0  0  0  0  0  0  0
    4.7032  -32.7002   -5.4060 C   0  0  2  0  0  0  0  0  0  0  0  0
    4.4781  -32.9388   -4.0466 O   0  0  0  0  0  0  0  0  0  0  0  0
    5.6383  -33.7530   -6.0137 C   0  0  2  0  0  0  0  0  0  0  0  0
    5.6278  -33.7067   -7.4104 O   0  0  0  0  0  0  0  0  0  0  0  0
    5.3562  -35.1934   -5.6142 C   0  0  2  0  0  0  0  0  0  0  0  0
    6.2628  -36.0857   -6.2465 O   0  0  0  0  0  0  0  0  0  0  0  0
    3.9366  -35.5626   -5.9900 C   0  0  0  0  0  0  0  0  0  0  0  0
    3.8676  -36.9539   -6.0961 O   0  0  0  0  0  0  0  0  0  0  0  0
    2.8081  -37.6344   -7.0317 P   0  0  1  0  0  0  0  0  0  0  0  0
    1.8300  -36.6084   -7.3011 O   0  0  0  0  0  0  0  0  0  0  0  0
    3.4725  -38.3111   -8.1292 O   0  0  0  0  0  0  0  0  0  0  0  0
    2.1734  -38.7381   -6.1190 O   0  0  0  0  0  0  0  0  0  0  0  0
    0.3379  -39.5747   -6.6583 H   0  0  0  0  0  0  0  0  0  0  0  0
   -0.1429  -41.0832   -5.8225 H   0  0  0  0  0  0  0  0  0  0  0  0
   -2.1991  -40.4753   -6.0764 H   0  0  0  0  0  0  0  0  0  0  0  0
   -1.1941  -38.4447   -7.7310 H   0  0  0  0  0  0  0  0  0  0  0  0
   -3.8453  -39.0958   -7.0538 H   0  0  0  0  0  0  0  0  0  0  0  0
   -1.1348  -36.6760   -6.0220 H   0  0  0  0  0  0  0  0  0  0  0  0
   -3.3980  -35.7620   -6.0709 H   0  0  0  0  0  0  0  0  0  0  0  0
   -3.7644  -37.7538   -4.9421 H   0  0  0  0  0  0  0  0  0  0  0  0
   -0.7287  -37.7983   -2.7247 H   0  0  0  0  0  0  0  0  0  0  0  0
   -3.5659  -33.0399    0.1269 H   0  0  0  0  0  0  0  0  0  0  0  0
   -2.2187  -34.2057    0.2192 H   0  0  0  0  0  0  0  0  0  0  0  0
   -5.8209  -33.9880   -3.6275 H   0  0  0  0  0  0  0  0  0  0  0  0
    4.1435  -30.7206   -3.7586 H   0  0  0  0  0  0  0  0  0  0  0  0
    0.8417  -28.3524   -3.2711 H   0  0  0  0  0  0  0  0  0  0  0  0
    1.7604  -28.0287   -7.7287 H   0  0  0  0  0  0  0  0  0  0  0  0
    2.5543  -28.4113   -9.9278 H   0  0  0  0  0  0  0  0  0  0  0  0
    3.6622  -28.5384  -12.0537 H   0  0  0  0  0  0  0  0  0  0  0  0
    5.0549  -29.6455  -12.3014 H   0  0  0  0  0  0  0  0  0  0  0  0
    3.3802  -30.2950  -12.3014 H   0  0  0  0  0  0  0  0  0  0  0  0
    6.8511  -31.8597  -10.1354 H   0  0  0  0  0  0  0  0  0  0  0  0
    5.5664  -32.0508  -11.3763 H   0  0  0  0  0  0  0  0  0  0  0  0
    6.6041  -30.5846  -11.3763 H   0  0  0  0  0  0  0  0  0  0  0  0
    6.0079  -31.4644   -8.0647 H   0  0  0  0  0  0  0  0  0  0  0  0
    6.1878  -31.3829   -6.2408 H   0  0  0  0  0  0  0  0  0  0  0  0
    5.5687  -30.9018   -4.6135 H   0  0  0  0  0  0  0  0  0  0  0  0
    3.7353  -32.7639   -5.9247 H   0  0  0  0  0  0  0  0  0  0  0  0
    5.0476  -32.3351   -3.5069 H   0  0  0  0  0  0  0  0  0  0  0  0
    6.6182  -33.4756   -5.5981 H   0  0  0  0  0  0  0  0  0  0  0  0
    5.4204  -32.7857   -7.7085 H   0  0  0  0  0  0  0  0  0  0  0  0
    5.4860  -35.2787   -4.5252 H   0  0  0  0  0  0  0  0  0  0  0  0
    6.7695  -36.5844   -5.5576 H   0  0  0  0  0  0  0  0  0  0  0  0
    3.2413  -35.2122   -5.2129 H   0  0  0  0  0  0  0  0  0  0  0  0
    3.6584  -35.0917   -6.9444 H   0  0  0  0  0  0  0  0  0  0  0  0
  1  2  2  0
  1  3  1  1
  1  4  1  0
  1 53  1  0
  4  5  1  0
  6  5  1  0
  6  7  1  0
  6  8  1  0
  7 12  1  0
  8  9  1  0
  8 10  1  0
 10 11  1  0
 10 12  1  0
 12 13  1  0
 13 14  1  0
 13 22  1  0
 14 15  2  0
 15 16  1  0
 16 17  2  0
 16 22  1  0
 17 18  1  0
 17 19  1  0
 19 20  2  0
 20 21  1  0
 21 22  2  0
 23 24  1  0
 23 40  1  0
 24 25  2  0
 24 26  1  0
 26 27  1  0
 27 28  2  0
 27 29  1  0
 29 30  1  0
 29 40  2  0
 30 31  1  0
 31 32  2  0
 31 38  1  0
 32 33  1  0
 33 34  1  0
 33 35  2  0
 35 36  1  0
 35 37  1  0
 37 38  2  0
 38 39  1  0
 39 40  1  0
 39 41  1  0
 41 42  1  0
 42 43  1  0
 42 44  1  0
 44 45  1  0
 44 46  1  0
 46 47  1  0
 46 48  1  0
 48 49  1  0
 49 50  1  0
 50 51  2  0
 50 52  1  6
 50 53  1  0
  5 54  1  0
  5 55  1  0
  6 56  1  6
  8 57  1  6
  9 58  1  0
 10 59  1  1
 11 60  1  0
 12 61  1  6
 14 62  1  0
 18 63  1  0
 18 64  1  0
 20 65  1  0
 23 66  1  0
 26 67  1  0
 30 68  1  0
 32 69  1  0
 34 70  1  0
 34 71  1  0
 34 72  1  0
 36 73  1  0
 36 74  1  0
 36 75  1  0
 37 76  1  0
 41 77  1  0
 41 78  1  0
 42 79  1  6
 43 80  1  0
 44 81  1  1
 45 82  1  0
 46 83  1  1
 47 84  1  0
 48 85  1  0
 48 86  1  0
M  CHG  2   3  -1  52  -1
M  END
>  <filename_input>  (23) 
7EPV_FDA_docked.sdf

>  <pdb_id>  (23) 
7EPV_FDA

>  <pose_rank>  (23) 
22

>  <num_atoms_heavy>  (23) 
53

>  <num_torsions>  (23) 
13

>  <pose>  (23) 
[3.8676233363805483, -36.953913378834216, -6.09605984840304, -0.687475297966278, 0.5373126353400077, 0.9305015151136478, -60.048191623489735, -82.04742113598503, -105.85915880169215, -45.34539871845492, -137.04467897015738, 3.1278613266794335, 24.156426821502127, -12.472636640743067, 31.047641204152672, -27.293429865532282, 87.73417424457743, 49.30134276393636, 8.97090843199944]

>  <energy>  (23) 
-617.1733724804553

>  <inter_energy>  (23) 
-642.6931961736323

>  <intra_energy>  (23) 
34.260908332547075

>  <rmsd>  (23) 
11.9816

>  <sdf_rank>  (23) 
0

$$$$

     RDKit          3D

 86 91  0  0  0  0  0  0  0  0999 V2000
    9.6981  -30.4554   -2.8239 P   0  0  2  0  0  0  0  0  0  0  0  0
    9.6785  -31.4132   -3.9304 O   0  0  0  0  0  0  0  0  0  0  0  0
   10.8452  -30.5237   -1.9411 O   0  0  0  0  0  0  0  0  0  0  0  0
    8.3703  -30.5506   -1.9790 O   0  0  0  0  0  0  0  0  0  0  0  0
    8.1638  -31.6301   -1.0691 C   0  0  0  0  0  0  0  0  0  0  0  0
    6.7570  -31.5504   -0.5388 C   0  0  1  0  0  0  0  0  0  0  0  0
    6.4367  -32.7198    0.2423 O   0  0  0  0  0  0  0  0  0  0  0  0
    6.4812  -30.3298    0.3483 C   0  0  1  0  0  0  0  0  0  0  0  0
    5.2816  -29.6809   -0.0117 O   0  0  0  0  0  0  0  0  0  0  0  0
    6.4776  -30.9468    1.7582 C   0  0  1  0  0  0  0  0  0  0  0  0
    5.6883  -30.2204    2.6514 O   0  0  0  0  0  0  0  0  0  0  0  0
    5.9034  -32.3316    1.4860 C   0  0  2  0  0  0  0  0  0  0  0  0
    6.2204  -33.3570    2.4570 N   0  0  0  0  0  0  0  0  0  0  0  0
    7.3344  -34.1311    2.5242 C   0  0  0  0  0  0  0  0  0  0  0  0
    7.2929  -35.0324    3.4755 N   0  0  0  0  0  0  0  0  0  0  0  0
    6.0468  -34.8609    4.0469 C   0  0  0  0  0  0  0  0  0  0  0  0
    5.3760  -35.5124    5.0975 C   0  0  0  0  0  0  0  0  0  0  0  0
    5.8832  -36.5312    5.7725 N   0  0  0  0  0  0  0  0  0  0  0  0
    4.1277  -35.0999    5.3835 N   0  0  0  0  0  0  0  0  0  0  0  0
    3.6009  -34.1008    4.6826 C   0  0  0  0  0  0  0  0  0  0  0  0
    4.1481  -33.4101    3.6979 N   0  0  0  0  0  0  0  0  0  0  0  0
    5.3768  -33.8402    3.4159 C   0  0  0  0  0  0  0  0  0  0  0  0
    7.3511  -34.4441   -7.2054 N   0  0  0  0  0  0  0  0  0  0  0  0
    8.3258  -35.3029   -7.1902 C   0  0  0  0  0  0  0  0  0  0  0  0
    8.4809  -36.0195   -6.2472 O   0  0  0  0  0  0  0  0  0  0  0  0
    9.1749  -35.4369   -8.2541 N   0  0  0  0  0  0  0  0  0  0  0  0
    9.0671  -34.6528   -9.3783 C   0  0  0  0  0  0  0  0  0  0  0  0
    9.8339  -34.8049  -10.3104 O   0  0  0  0  0  0  0  0  0  0  0  0
    8.0756  -33.6921   -9.3930 C   0  0  0  0  0  0  0  0  0  0  0  0
    7.9596  -32.9120  -10.4207 N   0  0  0  0  0  0  0  0  0  0  0  0
    7.0127  -31.9329  -10.3623 C   0  0  0  0  0  0  0  0  0  0  0  0
    6.9118  -31.0309  -11.4343 C   0  0  0  0  0  0  0  0  0  0  0  0
    6.0062  -30.0068  -11.4118 C   0  0  0  0  0  0  0  0  0  0  0  0
    5.9391  -29.0211  -12.5509 C   0  0  0  0  0  0  0  0  0  0  0  0
    5.1137  -29.8921  -10.3197 C   0  0  0  0  0  0  0  0  0  0  0  0
    4.0817  -28.8028  -10.2888 C   0  0  0  0  0  0  0  0  0  0  0  0
    5.1650  -30.8086   -9.2909 C   0  0  0  0  0  0  0  0  0  0  0  0
    6.1230  -31.8268   -9.2782 C   0  0  0  0  0  0  0  0  0  0  0  0
    6.2497  -32.7356   -8.2361 N   0  0  0  0  0  0  0  0  0  0  0  0
    7.2362  -33.6481   -8.2296 C   0  0  0  0  0  0  0  0  0  0  0  0
    5.3799  -32.6722   -7.0581 C   0  0  0  0  0  0  0  0  0  0  0  0
    6.0479  -31.8889   -5.9328 C   0  0  2  0  0  0  0  0  0  0  0  0
    6.7228  -32.7648   -5.0768 O   0  0  0  0  0  0  0  0  0  0  0  0
    4.9967  -31.0652   -5.1786 C   0  0  2  0  0  0  0  0  0  0  0  0
    3.7100  -31.2953   -5.6728 O   0  0  0  0  0  0  0  0  0  0  0  0
    5.2125  -29.5595   -5.1833 C   0  0  2  0  0  0  0  0  0  0  0  0
    4.2106  -28.9023   -5.9463 O   0  0  0  0  0  0  0  0  0  0  0  0
    6.5774  -29.2375   -5.7548 C   0  0  0  0  0  0  0  0  0  0  0  0
    7.5130  -29.3497   -4.7234 O   0  0  0  0  0  0  0  0  0  0  0  0
    8.8534  -28.5356   -4.7658 P   0  0  1  0  0  0  0  0  0  0  0  0
    9.5307  -28.9879   -5.9568 O   0  0  0  0  0  0  0  0  0  0  0  0
    8.5859  -27.1230   -4.5740 O   0  0  0  0  0  0  0  0  0  0  0  0
    9.6250  -29.0404   -3.4993 O   0  0  0  0  0  0  0  0  0  0  0  0
    8.3093  -32.5874   -1.5910 H   0  0  0  0  0  0  0  0  0  0  0  0
    8.8822  -31.5636   -0.2387 H   0  0  0  0  0  0  0  0  0  0  0  0
    6.1316  -31.4706   -1.4402 H   0  0  0  0  0  0  0  0  0  0  0  0
    7.2207  -29.5205    0.2575 H   0  0  0  0  0  0  0  0  0  0  0  0
    4.7914  -29.4158    0.8066 H   0  0  0  0  0  0  0  0  0  0  0  0
    7.4677  -30.9598    2.2374 H   0  0  0  0  0  0  0  0  0  0  0  0
    5.9412  -30.4531    3.5799 H   0  0  0  0  0  0  0  0  0  0  0  0
    4.8074  -32.2469    1.5241 H   0  0  0  0  0  0  0  0  0  0  0  0
    8.1910  -34.0129    1.8443 H   0  0  0  0  0  0  0  0  0  0  0  0
    5.3412  -36.9663    6.5326 H   0  0  0  0  0  0  0  0  0  0  0  0
    6.8200  -36.8892    5.5377 H   0  0  0  0  0  0  0  0  0  0  0  0
    2.5761  -33.8112    4.9581 H   0  0  0  0  0  0  0  0  0  0  0  0
    6.6827  -34.3938   -6.4233 H   0  0  0  0  0  0  0  0  0  0  0  0
    9.9189  -36.1479   -8.2116 H   0  0  0  0  0  0  0  0  0  0  0  0
    8.5596  -33.0270  -11.2499 H   0  0  0  0  0  0  0  0  0  0  0  0
    7.5719  -31.1504  -12.3061 H   0  0  0  0  0  0  0  0  0  0  0  0
    5.8696  -27.9998  -12.1484 H   0  0  0  0  0  0  0  0  0  0  0  0
    6.8455  -29.1113  -13.1677 H   0  0  0  0  0  0  0  0  0  0  0  0
    5.0534  -29.2333  -13.1677 H   0  0  0  0  0  0  0  0  0  0  0  0
    3.8442  -28.5521   -9.2444 H   0  0  0  0  0  0  0  0  0  0  0  0
    4.4743  -27.9112  -10.7997 H   0  0  0  0  0  0  0  0  0  0  0  0
    3.1702  -29.1466  -10.7997 H   0  0  0  0  0  0  0  0  0  0  0  0
    4.4403  -30.7374   -8.4665 H   0  0  0  0  0  0  0  0  0  0  0  0
    4.4370  -32.1763   -7.3323 H   0  0  0  0  0  0  0  0  0  0  0  0
    5.1860  -33.6967   -6.7076 H   0  0  0  0  0  0  0  0  0  0  0  0
    6.7875  -31.1929   -6.3553 H   0  0  0  0  0  0  0  0  0  0  0  0
    6.5334  -32.5190   -4.1367 H   0  0  0  0  0  0  0  0  0  0  0  0
    5.1109  -31.4169   -4.1426 H   0  0  0  0  0  0  0  0  0  0  0  0
    3.0812  -31.4078   -4.9164 H   0  0  0  0  0  0  0  0  0  0  0  0
    5.1509  -29.2011   -4.1452 H   0  0  0  0  0  0  0  0  0  0  0  0
    3.5586  -28.4747   -5.3362 H   0  0  0  0  0  0  0  0  0  0  0  0
    6.8220  -29.9462   -6.5598 H   0  0  0  0  0  0  0  0  0  0  0  0
    6.5874  -28.2196   -6.1717 H   0  0  0  0  0  0  0  0  0  0  0  0
  1  2  2  0
  1  3  1  1
  1  4  1  0
  1 53  1  0
  4  5  1  0
  6  5  1  0
  6  7  1  0
  6  8  1  0
  7 12  1  0
  8  9  1  0
  8 10  1  0
 10 11  1  0
 10 12  1  0
 12 13  1  0
 13 14  1  0
 13 22  1  0
 14 15  2  0
 15 16  1  0
 16 17  2  0
 16 22  1  0
 17 18  1  0
 17 19  1  0
 19 20  2  0
 20 21  1  0
 21 22  2  0
 23 24  1  0
 23 40  1  0
 24 25  2  0
 24 26  1  0
 26 27  1  0
 27 28  2  0
 27 29  1  0
 29 30  1  0
 29 40  2  0
 30 31  1  0
 31 32  2  0
 31 38  1  0
 32 33  1  0
 33 34  1  0
 33 35  2  0
 35 36  1  0
 35 37  1  0
 37 38  2  0
 38 39  1  0
 39 40  1  0
 39 41  1  0
 41 42  1  0
 42 43  1  0
 42 44  1  0
 44 45  1  0
 44 46  1  0
 46 47  1  0
 46 48  1  0
 48 49  1  0
 49 50  1  0
 50 51  2  0
 50 52  1  6
 50 53  1  0
  5 54  1  0
  5 55  1  0
  6 56  1  6
  8 57  1  1
  9 58  1  0
 10 59  1  1
 11 60  1  0
 12 61  1  6
 14 62  1  0
 18 63  1  0
 18 64  1  0
 20 65  1  0
 23 66  1  0
 26 67  1  0
 30 68  1  0
 32 69  1  0
 34 70  1  0
 34 71  1  0
 34 72  1  0
 36 73  1  0
 36 74  1  0
 36 75  1  0
 37 76  1  0
 41 77  1  0
 41 78  1  0
 42 79  1  6
 43 80  1  0
 44 81  1  1
 45 82  1  0
 46 83  1  1
 47 84  1  0
 48 85  1  0
 48 86  1  0
M  CHG  2   3  -1  52  -1
M  END
>  <filename_input>  (24) 
7EPV_FDA_docked.sdf

>  <pdb_id>  (24) 
7EPV_FDA

>  <pose_rank>  (24) 
23

>  <num_atoms_heavy>  (24) 
53

>  <num_torsions>  (24) 
13

>  <pose>  (24) 
[7.513015166227593, -29.3496519048329, -4.723396774861324, 1.3353977301543147, 2.8754506486745246, -1.538846786326454, 2.017084991743711, -0.465408537801989, 3.4179722719938725, 1.9699430997199079, 0.4349939490176298, 0.005777774627439389, -0.7202639150273452, 0.0838083270940856, 1.6947930262869657, -3.335187807259811, 1.065966532900032, -0.6887810782890107, 2.683348898859946]

>  <energy>  (24) 
-560.5463967983663

>  <inter_energy>  (24) 
-599.376828929705

>  <intra_energy>  (24) 
40.55736553661653

>  <rmsd>  (24) 
13.042

>  <sdf_rank>  (24) 
0

$$$$

     RDKit          3D

 86 91  0  0  0  0  0  0  0  0999 V2000
    7.7070  -30.6863    0.4668 P   0  0  2  0  0  0  0  0  0  0  0  0
    8.8024  -30.5345    1.4256 O   0  0  0  0  0  0  0  0  0  0  0  0
    7.0213  -29.4687    0.0833 O   0  0  0  0  0  0  0  0  0  0  0  0
    6.6597  -31.7479    0.9787 O   0  0  0  0  0  0  0  0  0  0  0  0
    5.7921  -31.4449    2.0701 C   0  0  0  0  0  0  0  0  0  0  0  0
    5.2602  -32.7351    2.6350 C   0  0  1  0  0  0  0  0  0  0  0  0
    6.1928  -33.8134    2.4162 O   0  0  0  0  0  0  0  0  0  0  0  0
    4.9660  -32.6956    4.1399 C   0  0  1  0  0  0  0  0  0  0  0  0
    3.7010  -33.2426    4.4409 O   0  0  0  0  0  0  0  0  0  0  0  0
    6.1567  -33.4759    4.7245 C   0  0  1  0  0  0  0  0  0  0  0  0
    5.8432  -34.0873    5.9396 O   0  0  0  0  0  0  0  0  0  0  0  0
    6.4247  -34.4963    3.6252 C   0  0  2  0  0  0  0  0  0  0  0  0
    7.7593  -35.0549    3.5834 N   0  0  0  0  0  0  0  0  0  0  0  0
    8.7211  -34.8567    2.6451 C   0  0  0  0  0  0  0  0  0  0  0  0
    9.8035  -35.5701    2.8415 N   0  0  0  0  0  0  0  0  0  0  0  0
    9.5142  -36.3169    3.9673 C   0  0  0  0  0  0  0  0  0  0  0  0
   10.2382  -37.2828    4.6891 C   0  0  0  0  0  0  0  0  0  0  0  0
   11.4485  -37.6972    4.3512 N   0  0  0  0  0  0  0  0  0  0  0  0
    9.6298  -37.8471    5.7483 N   0  0  0  0  0  0  0  0  0  0  0  0
    8.3992  -37.4596    6.0686 C   0  0  0  0  0  0  0  0  0  0  0  0
    7.6434  -36.5519    5.4763 N   0  0  0  0  0  0  0  0  0  0  0  0
    8.2526  -36.0140    4.4209 C   0  0  0  0  0  0  0  0  0  0  0  0
    6.2425  -30.5865   -7.2207 N   0  0  0  0  0  0  0  0  0  0  0  0
    5.5981  -31.7134   -7.1682 C   0  0  0  0  0  0  0  0  0  0  0  0
    5.5394  -32.3251   -6.1438 O   0  0  0  0  0  0  0  0  0  0  0  0
    4.9452  -32.2132   -8.2611 N   0  0  0  0  0  0  0  0  0  0  0  0
    4.9616  -31.5735   -9.4780 C   0  0  0  0  0  0  0  0  0  0  0  0
    4.3622  -32.0415  -10.4274 O   0  0  0  0  0  0  0  0  0  0  0  0
    5.6897  -30.4043   -9.5738 C   0  0  0  0  0  0  0  0  0  0  0  0
    5.7562  -29.7865  -10.7105 N   0  0  0  0  0  0  0  0  0  0  0  0
    6.5428  -28.6751  -10.7763 C   0  0  0  0  0  0  0  0  0  0  0  0
    6.6865  -28.0257  -12.0136 C   0  0  0  0  0  0  0  0  0  0  0  0
    7.4930  -26.9296  -12.1456 C   0  0  0  0  0  0  0  0  0  0  0  0
    7.6705  -26.2692  -13.4895 C   0  0  0  0  0  0  0  0  0  0  0  0
    8.1431  -26.4034  -11.0041 C   0  0  0  0  0  0  0  0  0  0  0  0
    9.0006  -25.1764  -11.1122 C   0  0  0  0  0  0  0  0  0  0  0  0
    7.9604  -26.9983   -9.7738 C   0  0  0  0  0  0  0  0  0  0  0  0
    7.1815  -28.1514   -9.6379 C   0  0  0  0  0  0  0  0  0  0  0  0
    7.0172  -28.8173   -8.4307 N   0  0  0  0  0  0  0  0  0  0  0  0
    6.3242  -29.9666   -8.3630 C   0  0  0  0  0  0  0  0  0  0  0  0
    7.6740  -28.3510   -7.2062 C   0  0  0  0  0  0  0  0  0  0  0  0
    9.0086  -29.0608   -7.0032 C   0  0  2  0  0  0  0  0  0  0  0  0
    9.2937  -29.8667   -8.1098 O   0  0  0  0  0  0  0  0  0  0  0  0
    8.9690  -29.8799   -5.7071 C   0  0  2  0  0  0  0  0  0  0  0  0
    7.9510  -29.4456   -4.8539 O   0  0  0  0  0  0  0  0  0  0  0  0
   10.2555  -29.8907   -4.8955 C   0  0  2  0  0  0  0  0  0  0  0  0
   10.9596  -31.1120   -5.0705 O   0  0  0  0  0  0  0  0  0  0  0  0
    9.9390  -29.6940   -3.4278 C   0  0  0  0  0  0  0  0  0  0  0  0
    9.5492  -30.9285   -2.9025 O   0  0  0  0  0  0  0  0  0  0  0  0
    9.7983  -31.2710   -1.3920 P   0  0  1  0  0  0  0  0  0  0  0  0
   10.3994  -32.5826   -1.3978 O   0  0  0  0  0  0  0  0  0  0  0  0
   10.4701  -30.1667   -0.7338 O   0  0  0  0  0  0  0  0  0  0  0  0
    8.3521  -31.3589   -0.7963 O   0  0  0  0  0  0  0  0  0  0  0  0
    6.3502  -30.9025    2.8474 H   0  0  0  0  0  0  0  0  0  0  0  0
    4.9592  -30.8152    1.7238 H   0  0  0  0  0  0  0  0  0  0  0  0
    4.3113  -32.8938    2.1017 H   0  0  0  0  0  0  0  0  0  0  0  0
    4.8904  -31.6843    4.5660 H   0  0  0  0  0  0  0  0  0  0  0  0
    3.5879  -33.2915    5.4232 H   0  0  0  0  0  0  0  0  0  0  0  0
    7.0230  -32.8431    4.9677 H   0  0  0  0  0  0  0  0  0  0  0  0
    6.1398  -33.5088    6.6863 H   0  0  0  0  0  0  0  0  0  0  0  0
    5.7710  -35.3610    3.8121 H   0  0  0  0  0  0  0  0  0  0  0  0
    8.6031  -34.1628    1.7998 H   0  0  0  0  0  0  0  0  0  0  0  0
   11.9273  -38.4086    4.9219 H   0  0  0  0  0  0  0  0  0  0  0  0
   11.9119  -37.3085    3.5175 H   0  0  0  0  0  0  0  0  0  0  0  0
    7.9518  -37.9598    6.9402 H   0  0  0  0  0  0  0  0  0  0  0  0
    6.6799  -30.1914   -6.3760 H   0  0  0  0  0  0  0  0  0  0  0  0
    4.4245  -33.0972   -8.1696 H   0  0  0  0  0  0  0  0  0  0  0  0
    5.2347  -30.1222  -11.5330 H   0  0  0  0  0  0  0  0  0  0  0  0
    6.1413  -28.4051  -12.8904 H   0  0  0  0  0  0  0  0  0  0  0  0
    7.9535  -25.2160  -13.3460 H   0  0  0  0  0  0  0  0  0  0  0  0
    8.4611  -26.7881  -14.0515 H   0  0  0  0  0  0  0  0  0  0  0  0
    6.7263  -26.3219  -14.0515 H   0  0  0  0  0  0  0  0  0  0  0  0
    9.2529  -24.8154  -10.1043 H   0  0  0  0  0  0  0  0  0  0  0  0
    9.9249  -25.4218  -11.6559 H   0  0  0  0  0  0  0  0  0  0  0  0
    8.4525  -24.3928  -11.6559 H   0  0  0  0  0  0  0  0  0  0  0  0
    8.4353  -26.5585   -8.8845 H   0  0  0  0  0  0  0  0  0  0  0  0
    7.8495  -27.2677   -7.2813 H   0  0  0  0  0  0  0  0  0  0  0  0
    7.0217  -28.5749   -6.3492 H   0  0  0  0  0  0  0  0  0  0  0  0
    9.8131  -28.3163   -6.9114 H   0  0  0  0  0  0  0  0  0  0  0  0
    9.6074  -30.7533   -7.8003 H   0  0  0  0  0  0  0  0  0  0  0  0
    8.7944  -30.9028   -6.0722 H   0  0  0  0  0  0  0  0  0  0  0  0
    8.2347  -29.5667   -3.9132 H   0  0  0  0  0  0  0  0  0  0  0  0
   10.8922  -29.0674   -5.2514 H   0  0  0  0  0  0  0  0  0  0  0  0
   11.1806  -31.4953   -4.1849 H   0  0  0  0  0  0  0  0  0  0  0  0
   10.8315  -29.3280   -2.8990 H   0  0  0  0  0  0  0  0  0  0  0  0
    9.1339  -28.9545   -3.3055 H   0  0  0  0  0  0  0  0  0  0  0  0
  1  2  2  0
  1  3  1  6
  1  4  1  0
  1 53  1  0
  4  5  1  0
  6  5  1  0
  6  7  1  0
  6  8  1  0
  7 12  1  0
  8  9  1  0
  8 10  1  0
 10 11  1  0
 10 12  1  0
 12 13  1  0
 13 14  1  0
 13 22  1  0
 14 15  2  0
 15 16  1  0
 16 17  2  0
 16 22  1  0
 17 18  1  0
 17 19  1  0
 19 20  2  0
 20 21  1  0
 21 22  2  0
 23 24  1  0
 23 40  1  0
 24 25  2  0
 24 26  1  0
 26 27  1  0
 27 28  2  0
 27 29  1  0
 29 30  1  0
 29 40  2  0
 30 31  1  0
 31 32  2  0
 31 38  1  0
 32 33  1  0
 33 34  1  0
 33 35  2  0
 35 36  1  0
 35 37  1  0
 37 38  2  0
 38 39  1  0
 39 40  1  0
 39 41  1  0
 41 42  1  0
 42 43  1  0
 42 44  1  0
 44 45  1  0
 44 46  1  0
 46 47  1  0
 46 48  1  0
 48 49  1  0
 49 50  1  0
 50 51  2  0
 50 52  1  1
 50 53  1  0
  5 54  1  0
  5 55  1  0
  6 56  1  6
  8 57  1  1
  9 58  1  0
 10 59  1  1
 11 60  1  0
 12 61  1  1
 14 62  1  0
 18 63  1  0
 18 64  1  0
 20 65  1  0
 23 66  1  0
 26 67  1  0
 30 68  1  0
 32 69  1  0
 34 70  1  0
 34 71  1  0
 34 72  1  0
 36 73  1  0
 36 74  1  0
 36 75  1  0
 37 76  1  0
 41 77  1  0
 41 78  1  0
 42 79  1  1
 43 80  1  0
 44 81  1  6
 45 82  1  0
 46 83  1  6
 47 84  1  0
 48 85  1  0
 48 86  1  0
M  CHG  2   3  -1  52  -1
M  END
>  <filename_input>  (25) 
7EPV_FDA_docked.sdf

>  <pdb_id>  (25) 
7EPV_FDA

>  <pose_rank>  (25) 
24

>  <num_atoms_heavy>  (25) 
53

>  <num_torsions>  (25) 
13

>  <pose>  (25) 
[9.549226678482457, -30.92849032251876, -2.9025152587221275, 1.3284376556149968, 2.4897782903099044, 0.8811334136344113, 32.197926413200314, 21.78719078143925, -48.020060765078696, 20.750841090665823, 44.630744454070594, 16.340895165118184, -7.472060343335646, 11.682669369193901, -58.24759364990205, -19.647025730420143, -106.13430810581096, 38.74467737038526, -60.12059748514675]

>  <energy>  (25) 
-503.79403840960515

>  <inter_energy>  (25) 
-569.9049319685543

>  <intra_energy>  (25) 
67.82838486415756

>  <rmsd>  (25) 
14.357

>  <sdf_rank>  (25) 
0

$$$$

     RDKit          3D

 86 91  0  0  0  0  0  0  0  0999 V2000
    4.4350  -30.2200   -6.3350 P   0  0  2  0  0  0  0  0  0  0  0  0
    5.7470  -29.5730   -6.2880 O   0  0  0  0  0  0  0  0  0  0  0  0
    4.3170  -31.4760   -5.6220 O   0  0  0  0  0  0  0  0  0  0  0  0
    3.9580  -30.4080   -7.8260 O   0  0  0  0  0  0  0  0  0  0  0  0
    4.2400  -29.4140   -8.8100 C   0  0  0  0  0  0  0  0  0  0  0  0
    4.0810  -30.0290  -10.1750 C   0  0  1  0  0  0  0  0  0  0  0  0
    4.1670  -29.0220  -11.2040 O   0  0  0  0  0  0  0  0  0  0  0  0
    5.1220  -31.1040  -10.5120 C   0  0  1  0  0  0  0  0  0  0  0  0
    4.5240  -32.2600  -11.0560 O   0  0  0  0  0  0  0  0  0  0  0  0
    6.0620  -30.3560  -11.4740 C   0  0  1  0  0  0  0  0  0  0  0  0
    6.7050  -31.2190  -12.3630 O   0  0  0  0  0  0  0  0  0  0  0  0
    5.0920  -29.4220  -12.1870 C   0  0  2  0  0  0  0  0  0  0  0  0
    5.6680  -28.2340  -12.7800 N   0  0  0  0  0  0  0  0  0  0  0  0
    6.6030  -27.4030  -12.2510 C   0  0  0  0  0  0  0  0  0  0  0  0
    6.8640  -26.3590  -13.0000 N   0  0  0  0  0  0  0  0  0  0  0  0
    6.0110  -26.4970  -14.0780 C   0  0  0  0  0  0  0  0  0  0  0  0
    5.7800  -25.7150  -15.2240 C   0  0  0  0  0  0  0  0  0  0  0  0
    6.4010  -24.5730  -15.4710 N   0  0  0  0  0  0  0  0  0  0  0  0
    4.8320  -26.1380  -16.0800 N   0  0  0  0  0  0  0  0  0  0  0  0
    4.1800  -27.2660  -15.8160 C   0  0  0  0  0  0  0  0  0  0  0  0
    4.3330  -28.0820  -14.7880 N   0  0  0  0  0  0  0  0  0  0  0  0
    5.2630  -27.6420  -13.9420 C   0  0  0  0  0  0  0  0  0  0  0  0
    4.3660  -32.4980    2.8380 N   0  0  0  0  0  0  0  0  0  0  0  0
    3.6380  -33.2030    3.6510 C   0  0  0  0  0  0  0  0  0  0  0  0
    2.4600  -33.0170    3.7180 O   0  0  0  0  0  0  0  0  0  0  0  0
    4.1840  -34.1920    4.4220 N   0  0  0  0  0  0  0  0  0  0  0  0
    5.5300  -34.4720    4.4060 C   0  0  0  0  0  0  0  0  0  0  0  0
    5.9810  -35.3650    5.0980 O   0  0  0  0  0  0  0  0  0  0  0  0
    6.3330  -33.6960    3.5940 C   0  0  0  0  0  0  0  0  0  0  0  0
    7.6110  -33.9070    3.5730 N   0  0  0  0  0  0  0  0  0  0  0  0
    8.3730  -33.0720    2.8110 C   0  0  0  0  0  0  0  0  0  0  0  0
    9.7680  -33.2360    2.8240 C   0  0  0  0  0  0  0  0  0  0  0  0
   10.5830  -32.4030    2.1090 C   0  0  0  0  0  0  0  0  0  0  0  0
   12.0810  -32.5650    2.1670 C   0  0  0  0  0  0  0  0  0  0  0  0
   10.0080  -31.4000    1.2930 C   0  0  0  0  0  0  0  0  0  0  0  0
   10.8770  -30.4990    0.4650 C   0  0  0  0  0  0  0  0  0  0  0  0
    8.6370  -31.2700    1.2270 C   0  0  0  0  0  0  0  0  0  0  0  0
    7.7970  -32.0810    1.9960 C   0  0  0  0  0  0  0  0  0  0  0  0
    6.4150  -31.9470    2.0060 N   0  0  0  0  0  0  0  0  0  0  0  0
    5.6530  -32.6960    2.8210 C   0  0  0  0  0  0  0  0  0  0  0  0
    5.7420  -30.9190    1.2070 C   0  0  0  0  0  0  0  0  0  0  0  0
    4.9500  -31.5510    0.0670 C   0  0  2  0  0  0  0  0  0  0  0  0
    5.7840  -32.3770   -0.6930 O   0  0  0  0  0  0  0  0  0  0  0  0
    4.3120  -30.4530   -0.7930 C   0  0  2  0  0  0  0  0  0  0  0  0
    3.4720  -29.6300   -0.0380 O   0  0  0  0  0  0  0  0  0  0  0  0
    3.5040  -30.9380   -1.9870 C   0  0  2  0  0  0  0  0  0  0  0  0
    4.2960  -31.7470   -2.8450 O   0  0  0  0  0  0  0  0  0  0  0  0
    2.9680  -29.7520   -2.7610 C   0  0  0  0  0  0  0  0  0  0  0  0
    2.2590  -30.2410   -3.8610 O   0  0  0  0  0  0  0  0  0  0  0  0
    2.0050  -29.3360   -5.1170 P   0  0  1  0  0  0  0  0  0  0  0  0
    1.1850  -30.1340   -5.9960 O   0  0  0  0  0  0  0  0  0  0  0  0
    1.5580  -28.0200   -4.7020 O   0  0  0  0  0  0  0  0  0  0  0  0
    3.4330  -29.1690   -5.7390 O   0  0  0  0  0  0  0  0  0  0  0  0
    3.5394  -28.5733   -8.6986 H   0  0  0  0  0  0  0  0  0  0  0  0
    5.2673  -29.0415   -8.6835 H   0  0  0  0  0  0  0  0  0  0  0  0
    3.0901  -30.5055  -10.1439 H   0  0  0  0  0  0  0  0  0  0  0  0
    5.6623  -31.5076   -9.6430 H   0  0  0  0  0  0  0  0  0  0  0  0
    4.2187  -32.8501  -10.3221 H   0  0  0  0  0  0  0  0  0  0  0  0
    6.8907  -29.8385  -10.9687 H   0  0  0  0  0  0  0  0  0  0  0  0
    7.2122  -31.8997  -11.8536 H   0  0  0  0  0  0  0  0  0  0  0  0
    4.6674  -29.9752  -13.0377 H   0  0  0  0  0  0  0  0  0  0  0  0
    7.0951  -27.5884  -11.2849 H   0  0  0  0  0  0  0  0  0  0  0  0
    6.1874  -24.0458  -16.3297 H   0  0  0  0  0  0  0  0  0  0  0  0
    7.0980  -24.2112  -14.8046 H   0  0  0  0  0  0  0  0  0  0  0  0
    3.4133  -27.5581  -16.5487 H   0  0  0  0  0  0  0  0  0  0  0  0
    3.9340  -31.7968    2.2195 H   0  0  0  0  0  0  0  0  0  0  0  0
    3.5671  -34.7447    5.0342 H   0  0  0  0  0  0  0  0  0  0  0  0
    8.0351  -34.6760    4.1113 H   0  0  0  0  0  0  0  0  0  0  0  0
   10.2119  -34.0477    3.4190 H   0  0  0  0  0  0  0  0  0  0  0  0
   12.4056  -32.6001    3.2174 H   0  0  0  0  0  0  0  0  0  0  0  0
   12.3685  -33.4995    1.6629 H   0  0  0  0  0  0  0  0  0  0  0  0
   12.5617  -31.7136    1.6629 H   0  0  0  0  0  0  0  0  0  0  0  0
   11.4865  -29.8671    1.1277 H   0  0  0  0  0  0  0  0  0  0  0  0
   11.5372  -31.1083   -0.1698 H   0  0  0  0  0  0  0  0  0  0  0  0
   10.2442  -29.8613   -0.1698 H   0  0  0  0  0  0  0  0  0  0  0  0
    8.1968  -30.5157    0.5582 H   0  0  0  0  0  0  0  0  0  0  0  0
    5.0549  -30.3528    1.8529 H   0  0  0  0  0  0  0  0  0  0  0  0
    6.5036  -30.2506    0.7789 H   0  0  0  0  0  0  0  0  0  0  0  0
    4.1423  -32.1739    0.4789 H   0  0  0  0  0  0  0  0  0  0  0  0
    6.3412  -32.9289   -0.0889 H   0  0  0  0  0  0  0  0  0  0  0  0
    5.1865  -29.9087   -1.1789 H   0  0  0  0  0  0  0  0  0  0  0  0
    3.6338  -29.7886    0.9257 H   0  0  0  0  0  0  0  0  0  0  0  0
    2.6670  -31.5446   -1.6109 H   0  0  0  0  0  0  0  0  0  0  0  0
    4.8744  -32.3378   -2.3004 H   0  0  0  0  0  0  0  0  0  0  0  0
    2.2998  -29.1585   -2.1197 H   0  0  0  0  0  0  0  0  0  0  0  0
    3.7945  -29.1072   -3.0942 H   0  0  0  0  0  0  0  0  0  0  0  0
  1  2  2  0
  1  3  1  1
  1  4  1  0
  1 53  1  0
  4  5  1  0
  6  5  1  0
  6  7  1  0
  6  8  1  0
  7 12  1  0
  8  9  1  0
  8 10  1  0
 10 11  1  0
 10 12  1  0
 12 13  1  0
 13 14  1  0
 13 22  1  0
 14 15  2  0
 15 16  1  0
 16 17  2  0
 16 22  1  0
 17 18  1  0
 17 19  1  0
 19 20  2  0
 20 21  1  0
 21 22  2  0
 23 24  1  0
 23 40  1  0
 24 25  2  0
 24 26  1  0
 26 27  1  0
 27 28  2  0
 27 29  1  0
 29 30  1  0
 29 40  2  0
 30 31  1  0
 31 32  2  0
 31 38  1  0
 32 33  1  0
 33 34  1  0
 33 35  2  0
 35 36  1  0
 35 37  1  0
 37 38  2  0
 38 39  1  0
 39 40  1  0
 39 41  1  0
 41 42  1  0
 42 43  1  0
 42 44  1  0
 44 45  1  0
 44 46  1  0
 46 47  1  0
 46 48  1  0
 48 49  1  0
 49 50  1  0
 50 51  2  0
 50 52  1  1
 50 53  1  0
  5 54  1  0
  5 55  1  0
  6 56  1  1
  8 57  1  1
  9 58  1  0
 10 59  1  1
 11 60  1  0
 12 61  1  6
 14 62  1  0
 18 63  1  0
 18 64  1  0
 20 65  1  0
 23 66  1  0
 26 67  1  0
 30 68  1  0
 32 69  1  0
 34 70  1  0
 34 71  1  0
 34 72  1  0
 36 73  1  0
 36 74  1  0
 36 75  1  0
 37 76  1  0
 41 77  1  0
 41 78  1  0
 42 79  1  1
 43 80  1  0
 44 81  1  6
 45 82  1  0
 46 83  1  1
 47 84  1  0
 48 85  1  0
 48 86  1  0
M  CHG  2   3  -1  52  -1
M  END
>  <filename_input>  (26) 
7EPV_FDA_docked.sdf

>  <pdb_id>  (26) 
7EPV_FDA

>  <pose_rank>  (26) 
25

>  <num_atoms_heavy>  (26) 
53

>  <num_torsions>  (26) 
13

>  <pose>  (26) 
[2.259, -30.241, -3.861, 1e-06, 1e-06, 1e-06, 0.0, 0.0, 0.0, 0.0, 0.0, 0.0, 0.0, 0.0, 0.0, 0.0, 0.0, 0.0, 0.0]

>  <energy>  (26) 
-1095.1940615495544

>  <inter_energy>  (26) 
-1143.629684270339

>  <intra_energy>  (26) 
49.07968704600314

>  <rmsd>  (26) 
0.0

>  <sdf_rank>  (26) 
0

$$$$
