
     RDKit          3D

 36 37  0  0  0  0  0  0  0  0999 V2000
   13.4357    8.7666   17.1988 N   0  0  0  0  0  0  0  0  0  0  0  0
   13.7025    9.7273   16.2073 C   0  0  0  0  0  0  0  0  0  0  0  0
   14.7153    9.5355   15.3568 N   0  0  0  0  0  0  0  0  0  0  0  0
   15.5136    8.4680   15.4361 C   0  0  0  0  0  0  0  0  0  0  0  0
   15.2832    7.5060   16.4183 C   0  0  0  0  0  0  0  0  0  0  0  0
   14.2168    7.6793   17.2945 C   0  0  0  0  0  0  0  0  0  0  0  0
   12.9756   10.7392   16.1004 O   0  0  0  0  0  0  0  0  0  0  0  0
   16.4772    8.3410   14.6398 O   0  0  0  0  0  0  0  0  0  0  0  0
   12.3432    9.0005   18.1338 C   0  0  1  0  0  0  0  0  0  0  0  0
   11.0494    8.2712   17.8385 C   0  0  2  0  0  0  0  0  0  0  0  0
   10.2026    9.0622   17.0128 O   0  0  0  0  0  0  0  0  0  0  0  0
   10.4828    8.0485   19.2356 C   0  0  1  0  0  0  0  0  0  0  0  0
   11.7062    7.9283   20.1143 C   0  0  2  0  0  0  0  0  0  0  0  0
   12.7889    8.5199   19.4010 O   0  0  0  0  0  0  0  0  0  0  0  0
    9.6654    9.1411   19.6925 O   0  0  0  0  0  0  0  0  0  0  0  0
   12.0603    6.4779   20.4110 C   0  0  0  0  0  0  0  0  0  0  0  0
   10.8448    5.7853   20.6368 O   0  0  0  0  0  0  0  0  0  0  0  0
   10.8030    4.3187   21.2724 P   0  0  2  0  0  0  0  0  0  0  0  0
   10.4122    3.3786   20.1467 O   0  0  0  0  0  0  0  0  0  0  0  0
    9.9033    4.3820   22.4713 O   0  0  0  0  0  0  0  0  0  0  0  0
   12.3151    3.9340   21.6657 O   0  0  0  0  0  0  0  0  0  0  0  0
   13.0822    3.8597   23.1092 P   0  0  2  0  0  0  0  0  0  0  0  0
   12.5952    5.0221   23.9147 O   0  0  0  0  0  0  0  0  0  0  0  0
   14.5103    3.9050   22.6849 O   0  0  0  0  0  0  0  0  0  0  0  0
   12.7305    2.4955   23.7081 O   0  0  0  0  0  0  0  0  0  0  0  0
   14.8853   10.2323   14.6176 H   0  0  0  0  0  0  0  0  0  0  0  0
   15.9348    6.6234   16.4993 H   0  0  0  0  0  0  0  0  0  0  0  0
   14.0132    6.9236   18.0674 H   0  0  0  0  0  0  0  0  0  0  0  0
   12.1151   10.0751   18.0773 H   0  0  0  0  0  0  0  0  0  0  0  0
   11.1679    7.3318   17.2785 H   0  0  0  0  0  0  0  0  0  0  0  0
    9.6104    9.6154   17.5814 H   0  0  0  0  0  0  0  0  0  0  0  0
    9.8270    7.1656   19.2545 H   0  0  0  0  0  0  0  0  0  0  0  0
   11.5081    8.4249   21.0756 H   0  0  0  0  0  0  0  0  0  0  0  0
    9.6555    9.1543   20.6824 H   0  0  0  0  0  0  0  0  0  0  0  0
   12.5913    6.0372   19.5544 H   0  0  0  0  0  0  0  0  0  0  0  0
   12.7169    6.4094   21.2909 H   0  0  0  0  0  0  0  0  0  0  0  0
  1  2  1  0
  1  6  1  0
  9  1  1  0
  2  3  1  0
  2  7  2  0
  3  4  1  0
  4  5  1  0
  4  8  2  0
  5  6  2  0
  9 10  1  0
  9 14  1  0
 10 11  1  0
 10 12  1  0
 12 13  1  0
 12 15  1  0
 13 14  1  0
 13 16  1  0
 16 17  1  0
 17 18  1  0
 18 19  2  0
 18 20  1  1
 18 21  1  0
 21 22  1  0
 22 23  2  0
 22 24  1  6
 22 25  1  0
  3 26  1  0
  5 27  1  0
  6 28  1  0
  9 29  1  1
 10 30  1  6
 11 31  1  0
 12 32  1  6
 13 33  1  1
 15 34  1  0
 16 35  1  0
 16 36  1  0
M  CHG  3  20  -1  24  -1  25  -1
M  END
>  <filename_input>  (1) 
7ES1_UDP_docked.sdf

>  <pdb_id>  (1) 
7ES1_UDP

>  <pose_rank>  (1) 
0

>  <num_atoms_heavy>  (1) 
25

>  <num_torsions>  (1) 
6

>  <pose>  (1) 
[12.343232133713421, 9.000517856300725, 18.13376686793976, 1.3957031942081886, -4.522378588350853, 4.002463265872901, 0.0036492863074803336, 0.6789428673877681, 0.760444893154704, -1.0024818145044316, 1.0174537602932614, 0.7311760997870272]

>  <energy>  (1) 
-1139.254343464518

>  <inter_energy>  (1) 
-1124.3772256150232

>  <intra_energy>  (1) 
2.7155529261483626

>  <rmsd>  (1) 
0.547165

>  <sdf_rank>  (1) 
0

$$$$

     RDKit          3D

 36 37  0  0  0  0  0  0  0  0999 V2000
   13.3775    8.9408   17.2762 N   0  0  0  0  0  0  0  0  0  0  0  0
   13.5590    9.8520   16.2208 C   0  0  0  0  0  0  0  0  0  0  0  0
   14.6265    9.7373   15.4251 N   0  0  0  0  0  0  0  0  0  0  0  0
   15.5558    8.7980   15.6185 C   0  0  0  0  0  0  0  0  0  0  0  0
   15.4109    7.8899   16.6661 C   0  0  0  0  0  0  0  0  0  0  0  0
   14.2915    7.9808   17.4869 C   0  0  0  0  0  0  0  0  0  0  0  0
   12.7091   10.7440   16.0069 O   0  0  0  0  0  0  0  0  0  0  0  0
   16.5635    8.7447   14.8698 O   0  0  0  0  0  0  0  0  0  0  0  0
   12.2215    9.0924   18.1498 C   0  0  1  0  0  0  0  0  0  0  0  0
   10.9910    8.2976   17.7663 C   0  0  2  0  0  0  0  0  0  0  0  0
   10.1487    9.0569   16.9070 O   0  0  0  0  0  0  0  0  0  0  0  0
   10.3590    8.0133   19.1236 C   0  0  1  0  0  0  0  0  0  0  0  0
   11.5349    7.9438   20.0700 C   0  0  2  0  0  0  0  0  0  0  0  0
   12.6207    8.6108   19.4321 O   0  0  0  0  0  0  0  0  0  0  0  0
    9.4551    9.0478   19.5517 O   0  0  0  0  0  0  0  0  0  0  0  0
   11.9546    6.5097   20.3607 C   0  0  0  0  0  0  0  0  0  0  0  0
   12.7971    6.5401   21.4998 O   0  0  0  0  0  0  0  0  0  0  0  0
   12.9740    5.2776   22.4649 P   0  0  2  0  0  0  0  0  0  0  0  0
   13.7269    5.7772   23.6845 O   0  0  0  0  0  0  0  0  0  0  0  0
   13.6079    4.1864   21.6536 O   0  0  0  0  0  0  0  0  0  0  0  0
   11.5058    4.8747   22.9853 O   0  0  0  0  0  0  0  0  0  0  0  0
   10.6623    3.4753   22.8968 P   0  0  2  0  0  0  0  0  0  0  0  0
   11.5660    2.3964   23.4029 O   0  0  0  0  0  0  0  0  0  0  0  0
   10.3272    3.4263   21.4452 O   0  0  0  0  0  0  0  0  0  0  0  0
    9.4041    3.6828   23.7438 O   0  0  0  0  0  0  0  0  0  0  0  0
   14.7359   10.3934   14.6387 H   0  0  0  0  0  0  0  0  0  0  0  0
   16.1701    7.1133   16.8410 H   0  0  0  0  0  0  0  0  0  0  0  0
   14.1552    7.2644   18.3105 H   0  0  0  0  0  0  0  0  0  0  0  0
   11.9353   10.1534   18.0996 H   0  0  0  0  0  0  0  0  0  0  0  0
   11.1954    7.3786   17.1973 H   0  0  0  0  0  0  0  0  0  0  0  0
    9.5346    9.6104   17.4516 H   0  0  0  0  0  0  0  0  0  0  0  0
    9.7553    7.0945   19.0882 H   0  0  0  0  0  0  0  0  0  0  0  0
   11.2537    8.4076   21.0270 H   0  0  0  0  0  0  0  0  0  0  0  0
    9.4305    9.0760   20.5410 H   0  0  0  0  0  0  0  0  0  0  0  0
   11.0677    5.8918   20.5647 H   0  0  0  0  0  0  0  0  0  0  0  0
   12.4813    6.0755   19.4981 H   0  0  0  0  0  0  0  0  0  0  0  0
  1  2  1  0
  1  6  1  0
  9  1  1  0
  2  3  1  0
  2  7  2  0
  3  4  1  0
  4  5  1  0
  4  8  2  0
  5  6  2  0
  9 10  1  0
  9 14  1  0
 10 11  1  0
 10 12  1  0
 12 13  1  0
 12 15  1  0
 13 14  1  0
 13 16  1  0
 16 17  1  0
 17 18  1  0
 18 19  2  0
 18 20  1  6
 18 21  1  0
 21 22  1  0
 22 23  2  0
 22 24  1  6
 22 25  1  0
  3 26  1  0
  5 27  1  0
  6 28  1  0
  9 29  1  1
 10 30  1  6
 11 31  1  0
 12 32  1  6
 13 33  1  1
 15 34  1  0
 16 35  1  0
 16 36  1  0
M  CHG  3  20  -1  24  -1  25  -1
M  END
>  <filename_input>  (2) 
7ES1_UDP_docked.sdf

>  <pdb_id>  (2) 
7ES1_UDP

>  <pose_rank>  (2) 
1

>  <num_atoms_heavy>  (2) 
25

>  <num_torsions>  (2) 
6

>  <pose>  (2) 
[12.221488306617392, 9.092438949176605, 18.14984418939282, -0.6592703544848132, -5.266272206919772, -3.354308197316581, -0.12294269645872127, -1.4940322578071323, 0.09544807392090553, -2.0707559324914655, -4.9483428951644495, 2.3017681720283334]

>  <energy>  (2) 
-1094.5288883233345

>  <inter_energy>  (2) 
-1085.252401767359

>  <intra_energy>  (2) 
2.6992778010819443

>  <rmsd>  (2) 
1.86901

>  <sdf_rank>  (2) 
0

$$$$

     RDKit          3D

 36 37  0  0  0  0  0  0  0  0999 V2000
   13.6832    8.8655   17.6034 N   0  0  0  0  0  0  0  0  0  0  0  0
   14.8429    8.1525   17.9555 C   0  0  0  0  0  0  0  0  0  0  0  0
   15.9268    8.2281   17.1775 N   0  0  0  0  0  0  0  0  0  0  0  0
   15.9381    8.9381   16.0465 C   0  0  0  0  0  0  0  0  0  0  0  0
   14.7982    9.6432   15.6634 C   0  0  0  0  0  0  0  0  0  0  0  0
   13.6707    9.5948   16.4767 C   0  0  0  0  0  0  0  0  0  0  0  0
   14.8713    7.4784   19.0083 O   0  0  0  0  0  0  0  0  0  0  0  0
   16.9657    8.9559   15.3238 O   0  0  0  0  0  0  0  0  0  0  0  0
   12.5017    8.7548   18.4485 C   0  0  1  0  0  0  0  0  0  0  0  0
   11.3440    7.9680   17.8708 C   0  0  2  0  0  0  0  0  0  0  0  0
   10.4632    8.8231   17.1515 O   0  0  0  0  0  0  0  0  0  0  0  0
   10.7086    7.3711   19.1209 C   0  0  1  0  0  0  0  0  0  0  0  0
   11.8671    7.1961   20.0750 C   0  0  2  0  0  0  0  0  0  0  0  0
   12.9110    8.0539   19.6218 O   0  0  0  0  0  0  0  0  0  0  0  0
    9.7193    8.2307   19.7150 O   0  0  0  0  0  0  0  0  0  0  0  0
   12.3901    5.7665   20.0878 C   0  0  0  0  0  0  0  0  0  0  0  0
   11.5260    5.0094   20.9175 O   0  0  0  0  0  0  0  0  0  0  0  0
   11.8908    4.6564   22.4337 P   0  0  2  0  0  0  0  0  0  0  0  0
   10.6483    4.9591   23.2513 O   0  0  0  0  0  0  0  0  0  0  0  0
   13.1465    5.4045   22.7719 O   0  0  0  0  0  0  0  0  0  0  0  0
   12.0930    3.0620   22.5093 O   0  0  0  0  0  0  0  0  0  0  0  0
   12.5400    2.0754   23.7359 P   0  0  2  0  0  0  0  0  0  0  0  0
   11.6207    0.8963   23.6955 O   0  0  0  0  0  0  0  0  0  0  0  0
   12.3956    2.9829   24.9095 O   0  0  0  0  0  0  0  0  0  0  0  0
   14.0102    1.7281   23.4882 O   0  0  0  0  0  0  0  0  0  0  0  0
   16.7795    7.7235   17.4587 H   0  0  0  0  0  0  0  0  0  0  0  0
   14.7905   10.2289   14.7323 H   0  0  0  0  0  0  0  0  0  0  0  0
   12.7670   10.1554   16.1958 H   0  0  0  0  0  0  0  0  0  0  0  0
   12.1358    9.7808   18.6013 H   0  0  0  0  0  0  0  0  0  0  0  0
   11.6300    7.1998   17.1372 H   0  0  0  0  0  0  0  0  0  0  0  0
    9.9203    9.3501   17.7899 H   0  0  0  0  0  0  0  0  0  0  0  0
   10.1782    6.4377   18.8813 H   0  0  0  0  0  0  0  0  0  0  0  0
   11.5319    7.4359   21.0949 H   0  0  0  0  0  0  0  0  0  0  0  0
    9.7833    8.1751   20.7013 H   0  0  0  0  0  0  0  0  0  0  0  0
   12.3877    5.3556   19.0674 H   0  0  0  0  0  0  0  0  0  0  0  0
   13.4222    5.7327   20.4665 H   0  0  0  0  0  0  0  0  0  0  0  0
  1  2  1  0
  1  6  1  0
  9  1  1  0
  2  3  1  0
  2  7  2  0
  3  4  1  0
  4  5  1  0
  4  8  2  0
  5  6  2  0
  9 10  1  0
  9 14  1  0
 10 11  1  0
 10 12  1  0
 12 13  1  0
 12 15  1  0
 13 14  1  0
 13 16  1  0
 16 17  1  0
 17 18  1  0
 18 19  2  0
 18 20  1  1
 18 21  1  0
 21 22  1  0
 22 23  2  0
 22 24  1  1
 22 25  1  0
  3 26  1  0
  5 27  1  0
  6 28  1  0
  9 29  1  1
 10 30  1  6
 11 31  1  0
 12 32  1  6
 13 33  1  1
 15 34  1  0
 16 35  1  0
 16 36  1  0
M  CHG  3  20  -1  24  -1  25  -1
M  END
>  <filename_input>  (3) 
7ES1_UDP_docked.sdf

>  <pdb_id>  (3) 
7ES1_UDP

>  <pose_rank>  (3) 
2

>  <num_atoms_heavy>  (3) 
25

>  <num_torsions>  (3) 
6

>  <pose>  (3) 
[12.501676449807764, 8.754787810886151, 18.448510629757987, -5.628770489499534, 0.6712737207144824, -2.1556632721035185, 2.6410006199899523, -6.304887424245955, -4.346402680578929, 3.218712350383663, -4.013945827833601, 3.7875416044347743]

>  <energy>  (3) 
-757.4987862927858

>  <inter_energy>  (3) 
-815.1640613030846

>  <intra_energy>  (3) 
62.3827816540976

>  <rmsd>  (3) 
1.98577

>  <sdf_rank>  (3) 
0

$$$$

     RDKit          3D

 36 37  0  0  0  0  0  0  0  0999 V2000
   11.8556    5.4693   22.0237 N   0  0  0  0  0  0  0  0  0  0  0  0
   11.1028    4.3766   22.4889 C   0  0  0  0  0  0  0  0  0  0  0  0
   11.6747    3.4739   23.2914 N   0  0  0  0  0  0  0  0  0  0  0  0
   12.9599    3.5547   23.6450 C   0  0  0  0  0  0  0  0  0  0  0  0
   13.7357    4.6184   23.1869 C   0  0  0  0  0  0  0  0  0  0  0  0
   13.1472    5.5798   22.3718 C   0  0  0  0  0  0  0  0  0  0  0  0
    9.8957    4.2679   22.1811 O   0  0  0  0  0  0  0  0  0  0  0  0
   13.4704    2.6668   24.3728 O   0  0  0  0  0  0  0  0  0  0  0  0
   11.2256    6.4325   21.1306 C   0  0  1  0  0  0  0  0  0  0  0  0
   11.9339    7.7628   20.9831 C   0  0  2  0  0  0  0  0  0  0  0  0
   11.4585    8.6959   21.9463 O   0  0  0  0  0  0  0  0  0  0  0  0
   11.5859    8.1524   19.5514 C   0  0  1  0  0  0  0  0  0  0  0  0
   11.4427    6.8301   18.8344 C   0  0  2  0  0  0  0  0  0  0  0  0
   11.2251    5.8378   19.8338 O   0  0  0  0  0  0  0  0  0  0  0  0
   10.3551    8.8913   19.4522 O   0  0  0  0  0  0  0  0  0  0  0  0
   12.6966    6.4609   18.0541 C   0  0  0  0  0  0  0  0  0  0  0  0
   13.0786    7.6023   17.3061 O   0  0  0  0  0  0  0  0  0  0  0  0
   14.5476    8.2277   17.3930 P   0  0  2  0  0  0  0  0  0  0  0  0
   14.9614    8.1396   18.8507 O   0  0  0  0  0  0  0  0  0  0  0  0
   14.4859    9.5898   16.7674 O   0  0  0  0  0  0  0  0  0  0  0  0
   15.5290    7.2345   16.5934 O   0  0  0  0  0  0  0  0  0  0  0  0
   16.6201    7.5022   15.4037 P   0  0  2  0  0  0  0  0  0  0  0  0
   17.2863    6.1916   15.1290 O   0  0  0  0  0  0  0  0  0  0  0  0
   17.4728    8.5579   16.0202 O   0  0  0  0  0  0  0  0  0  0  0  0
   15.8282    8.0594   14.2179 O   0  0  0  0  0  0  0  0  0  0  0  0
   11.1070    2.6921   23.6481 H   0  0  0  0  0  0  0  0  0  0  0  0
   14.7969    4.6964   23.4657 H   0  0  0  0  0  0  0  0  0  0  0  0
   13.7416    6.4325   22.0118 H   0  0  0  0  0  0  0  0  0  0  0  0
   10.2378    6.6515   21.5623 H   0  0  0  0  0  0  0  0  0  0  0  0
   13.0195    7.7280   21.1570 H   0  0  0  0  0  0  0  0  0  0  0  0
   11.6350    8.3493   22.8567 H   0  0  0  0  0  0  0  0  0  0  0  0
   12.3574    8.8124   19.1281 H   0  0  0  0  0  0  0  0  0  0  0  0
   10.6129    6.8993   18.1156 H   0  0  0  0  0  0  0  0  0  0  0  0
   10.0177    9.0939   20.3607 H   0  0  0  0  0  0  0  0  0  0  0  0
   13.5022    6.1784   18.7478 H   0  0  0  0  0  0  0  0  0  0  0  0
   12.5040    5.6060   17.3891 H   0  0  0  0  0  0  0  0  0  0  0  0
  1  2  1  0
  1  6  1  0
  9  1  1  0
  2  3  1  0
  2  7  2  0
  3  4  1  0
  4  5  1  0
  4  8  2  0
  5  6  2  0
  9 10  1  0
  9 14  1  0
 10 11  1  0
 10 12  1  0
 12 13  1  0
 12 15  1  0
 13 14  1  0
 13 16  1  0
 16 17  1  0
 17 18  1  0
 18 19  2  0
 18 20  1  6
 18 21  1  0
 21 22  1  0
 22 23  2  0
 22 24  1  1
 22 25  1  0
  3 26  1  0
  5 27  1  0
  6 28  1  0
  9 29  1  1
 10 30  1  6
 11 31  1  0
 12 32  1  6
 13 33  1  6
 15 34  1  0
 16 35  1  0
 16 36  1  0
M  CHG  3  20  -1  24  -1  25  -1
M  END
>  <filename_input>  (4) 
7ES1_UDP_docked.sdf

>  <pdb_id>  (4) 
7ES1_UDP

>  <pose_rank>  (4) 
3

>  <num_atoms_heavy>  (4) 
25

>  <num_torsions>  (4) 
6

>  <pose>  (4) 
[11.225551005412049, 6.43250758286461, 21.130574382978175, 2.0229882902517, -1.822657995421146, -0.2287688175015832, -5.181346100700804, 6.827056707388215, 5.875885356656929, 0.20611966909854368, 1.4240417732142738, -1.784942475358022]

>  <energy>  (4) 
-710.0059054437475

>  <inter_energy>  (4) 
-699.7732583077888

>  <intra_energy>  (4) 
7.678876294009656

>  <rmsd>  (4) 
7.18474

>  <sdf_rank>  (4) 
0

$$$$

     RDKit          3D

 36 37  0  0  0  0  0  0  0  0999 V2000
   10.7826    3.6632   23.5128 N   0  0  0  0  0  0  0  0  0  0  0  0
   11.5037    2.7329   24.2822 C   0  0  0  0  0  0  0  0  0  0  0  0
   10.9987    2.3020   25.4420 N   0  0  0  0  0  0  0  0  0  0  0  0
    9.8359    2.7532   25.9189 C   0  0  0  0  0  0  0  0  0  0  0  0
    9.1057    3.6873   25.1858 C   0  0  0  0  0  0  0  0  0  0  0  0
    9.6063    4.1258   23.9643 C   0  0  0  0  0  0  0  0  0  0  0  0
   12.5954    2.2857   23.8676 O   0  0  0  0  0  0  0  0  0  0  0  0
    9.4115    2.3498   27.0306 O   0  0  0  0  0  0  0  0  0  0  0  0
   11.3564    4.1418   22.2621 C   0  0  1  0  0  0  0  0  0  0  0  0
   10.3913    4.2960   21.1054 C   0  0  2  0  0  0  0  0  0  0  0  0
   10.3221    3.0960   20.3440 O   0  0  0  0  0  0  0  0  0  0  0  0
   11.0025    5.4590   20.3330 C   0  0  1  0  0  0  0  0  0  0  0  0
   11.6791    6.2922   21.3966 C   0  0  2  0  0  0  0  0  0  0  0  0
   11.8681    5.4467   22.5281 O   0  0  0  0  0  0  0  0  0  0  0  0
   11.9738    5.0390   19.3580 O   0  0  0  0  0  0  0  0  0  0  0  0
   10.8298    7.4821   21.8211 C   0  0  0  0  0  0  0  0  0  0  0  0
   11.4452    8.6466   21.2982 O   0  0  0  0  0  0  0  0  0  0  0  0
   11.5646    8.9169   19.7268 P   0  0  2  0  0  0  0  0  0  0  0  0
   12.0248   10.3555   19.5768 O   0  0  0  0  0  0  0  0  0  0  0  0
   10.2496    8.5384   19.1119 O   0  0  0  0  0  0  0  0  0  0  0  0
   12.7750    8.0061   19.1842 O   0  0  0  0  0  0  0  0  0  0  0  0
   13.2921    7.6677   17.6690 P   0  0  2  0  0  0  0  0  0  0  0  0
   12.7008    8.7076   16.7711 O   0  0  0  0  0  0  0  0  0  0  0  0
   12.7849    6.2777   17.4898 O   0  0  0  0  0  0  0  0  0  0  0  0
   14.8217    7.6908   17.7265 O   0  0  0  0  0  0  0  0  0  0  0  0
   11.5224    1.6004   25.9846 H   0  0  0  0  0  0  0  0  0  0  0  0
    8.1484    4.0719   25.5675 H   0  0  0  0  0  0  0  0  0  0  0  0
    9.0369    4.8532   23.3671 H   0  0  0  0  0  0  0  0  0  0  0  0
   12.0944    3.3867   21.9537 H   0  0  0  0  0  0  0  0  0  0  0  0
    9.3486    4.4879   21.3983 H   0  0  0  0  0  0  0  0  0  0  0  0
   10.2772    2.3191   20.9560 H   0  0  0  0  0  0  0  0  0  0  0  0
   10.2308    5.9974   19.7632 H   0  0  0  0  0  0  0  0  0  0  0  0
   12.6252    6.6858   20.9967 H   0  0  0  0  0  0  0  0  0  0  0  0
   12.7771    4.6917   19.8208 H   0  0  0  0  0  0  0  0  0  0  0  0
    9.8115    7.3809   21.4177 H   0  0  0  0  0  0  0  0  0  0  0  0
   10.7581    7.5382   22.9174 H   0  0  0  0  0  0  0  0  0  0  0  0
  1  2  1  0
  1  6  1  0
  9  1  1  0
  2  3  1  0
  2  7  2  0
  3  4  1  0
  4  5  1  0
  4  8  2  0
  5  6  2  0
  9 10  1  0
  9 14  1  0
 10 11  1  0
 10 12  1  0
 12 13  1  0
 12 15  1  0
 13 14  1  0
 13 16  1  0
 16 17  1  0
 17 18  1  0
 18 19  2  0
 18 20  1  6
 18 21  1  0
 21 22  1  0
 22 23  2  0
 22 24  1  6
 22 25  1  0
  3 26  1  0
  5 27  1  0
  6 28  1  0
  9 29  1  6
 10 30  1  1
 11 31  1  0
 12 32  1  6
 13 33  1  6
 15 34  1  0
 16 35  1  0
 16 36  1  0
M  CHG  3  20  -1  24  -1  25  -1
M  END
>  <filename_input>  (5) 
7ES1_UDP_docked.sdf

>  <pdb_id>  (5) 
7ES1_UDP

>  <pose_rank>  (5) 
4

>  <num_atoms_heavy>  (5) 
25

>  <num_torsions>  (5) 
6

>  <pose>  (5) 
[11.356386505661568, 4.141772548152593, 22.262129229171013, 2.649849757220784, 1.1588706033476786, 2.343135354184351, 0.690657040483921, -0.5070357358916612, -1.4747981120103106, -2.439857013366331, 2.1691069554913978, 1.7265343042708088]

>  <energy>  (5) 
-594.4755014451149

>  <inter_energy>  (5) 
-631.050808041766

>  <intra_energy>  (5) 
60.47629759537946

>  <rmsd>  (5) 
8.01181

>  <sdf_rank>  (5) 
0

$$$$

     RDKit          3D

 36 37  0  0  0  0  0  0  0  0999 V2000
   12.7143    3.0132   23.3973 N   0  0  0  0  0  0  0  0  0  0  0  0
   13.3469    3.8950   24.2915 C   0  0  0  0  0  0  0  0  0  0  0  0
   13.9108    3.4158   25.4042 N   0  0  0  0  0  0  0  0  0  0  0  0
   13.8659    2.1187   25.7184 C   0  0  0  0  0  0  0  0  0  0  0  0
   13.2323    1.2224   24.8591 C   0  0  0  0  0  0  0  0  0  0  0  0
   12.6633    1.7030   23.6842 C   0  0  0  0  0  0  0  0  0  0  0  0
   13.4111    5.1163   24.0306 O   0  0  0  0  0  0  0  0  0  0  0  0
   14.3775    1.7120   26.7915 O   0  0  0  0  0  0  0  0  0  0  0  0
   12.0834    3.5528   22.2002 C   0  0  1  0  0  0  0  0  0  0  0  0
   10.9552    4.5363   22.4304 C   0  0  2  0  0  0  0  0  0  0  0  0
    9.7051    3.8607   22.5024 O   0  0  0  0  0  0  0  0  0  0  0  0
   11.0730    5.4471   21.2142 C   0  0  1  0  0  0  0  0  0  0  0  0
   12.5473    5.4316   20.8839 C   0  0  2  0  0  0  0  0  0  0  0  0
   13.0982    4.2704   21.4997 O   0  0  0  0  0  0  0  0  0  0  0  0
   10.3195    4.9757   20.0826 O   0  0  0  0  0  0  0  0  0  0  0  0
   13.2712    6.6549   21.4287 C   0  0  0  0  0  0  0  0  0  0  0  0
   12.6193    7.7985   20.9038 O   0  0  0  0  0  0  0  0  0  0  0  0
   12.3502    7.9849   19.3387 P   0  0  2  0  0  0  0  0  0  0  0  0
   11.8625    9.4109   19.1582 O   0  0  0  0  0  0  0  0  0  0  0  0
   11.4339    6.8760   18.9126 O   0  0  0  0  0  0  0  0  0  0  0  0
   13.7797    7.9095   18.6041 O   0  0  0  0  0  0  0  0  0  0  0  0
   14.1908    7.6780   17.0372 P   0  0  2  0  0  0  0  0  0  0  0  0
   13.9307    6.2368   16.7334 O   0  0  0  0  0  0  0  0  0  0  0  0
   15.6197    8.1021   17.0433 O   0  0  0  0  0  0  0  0  0  0  0  0
   13.3329    8.6510   16.2242 O   0  0  0  0  0  0  0  0  0  0  0  0
   14.3948    4.0668   26.0389 H   0  0  0  0  0  0  0  0  0  0  0  0
   13.1831    0.1517   25.1062 H   0  0  0  0  0  0  0  0  0  0  0  0
   12.1704    1.0077   22.9887 H   0  0  0  0  0  0  0  0  0  0  0  0
   11.6451    2.6943   21.6702 H   0  0  0  0  0  0  0  0  0  0  0  0
   11.0147    5.0913   23.3783 H   0  0  0  0  0  0  0  0  0  0  0  0
    9.4566    3.7265   23.4512 H   0  0  0  0  0  0  0  0  0  0  0  0
   10.6722    6.4473   21.4356 H   0  0  0  0  0  0  0  0  0  0  0  0
   12.6705    5.4326   19.7908 H   0  0  0  0  0  0  0  0  0  0  0  0
    9.5244    4.4783   20.3996 H   0  0  0  0  0  0  0  0  0  0  0  0
   13.2208    6.6639   22.5275 H   0  0  0  0  0  0  0  0  0  0  0  0
   14.3316    6.6425   21.1362 H   0  0  0  0  0  0  0  0  0  0  0  0
  1  2  1  0
  1  6  1  0
  9  1  1  0
  2  3  1  0
  2  7  2  0
  3  4  1  0
  4  5  1  0
  4  8  2  0
  5  6  2  0
  9 10  1  0
  9 14  1  0
 10 11  1  0
 10 12  1  0
 12 13  1  0
 12 15  1  0
 13 14  1  0
 13 16  1  0
 16 17  1  0
 17 18  1  0
 18 19  2  0
 18 20  1  6
 18 21  1  0
 21 22  1  0
 22 23  2  0
 22 24  1  1
 22 25  1  0
  3 26  1  0
  5 27  1  0
  6 28  1  0
  9 29  1  6
 10 30  1  1
 11 31  1  0
 12 32  1  1
 13 33  1  6
 15 34  1  0
 16 35  1  0
 16 36  1  0
M  CHG  3  20  -1  24  -1  25  -1
M  END
>  <filename_input>  (6) 
7ES1_UDP_docked.sdf

>  <pdb_id>  (6) 
7ES1_UDP

>  <pose_rank>  (6) 
5

>  <num_atoms_heavy>  (6) 
25

>  <num_torsions>  (6) 
6

>  <pose>  (6) 
[12.083399345872708, 3.55276169638506, 22.200153048015558, -2.635924675359888, 0.3636942383997542, -0.6060142294004902, -2.8118312866562634, 0.3952854281168272, -3.5179056972827576, -2.08614926614604, 2.0396877628595704, 0.14351576531391855]

>  <energy>  (6) 
-536.3126027725684

>  <inter_energy>  (6) 
-655.973695090496

>  <intra_energy>  (6) 
122.69005710236011

>  <rmsd>  (6) 
7.67244

>  <sdf_rank>  (6) 
0

$$$$

     RDKit          3D

 36 37  0  0  0  0  0  0  0  0999 V2000
   11.9057    3.4085   24.3444 N   0  0  0  0  0  0  0  0  0  0  0  0
   12.6164    3.1489   25.5296 C   0  0  0  0  0  0  0  0  0  0  0  0
   12.5096    1.9526   26.1155 N   0  0  0  0  0  0  0  0  0  0  0  0
   11.7169    0.9944   25.6290 C   0  0  0  0  0  0  0  0  0  0  0  0
   10.9881    1.2278   24.4638 C   0  0  0  0  0  0  0  0  0  0  0  0
   11.1092    2.4593   23.8285 C   0  0  0  0  0  0  0  0  0  0  0  0
   13.3705    4.0206   26.0145 O   0  0  0  0  0  0  0  0  0  0  0  0
   11.6163   -0.1052   26.2285 O   0  0  0  0  0  0  0  0  0  0  0  0
   12.0135    4.7249   23.7297 C   0  0  1  0  0  0  0  0  0  0  0  0
   13.2810    4.9888   22.9442 C   0  0  2  0  0  0  0  0  0  0  0  0
   14.2833    5.5542   23.7808 O   0  0  0  0  0  0  0  0  0  0  0  0
   12.7933    5.9475   21.8645 C   0  0  1  0  0  0  0  0  0  0  0  0
   11.3533    5.5483   21.6407 C   0  0  2  0  0  0  0  0  0  0  0  0
   10.9404    4.8209   22.7945 O   0  0  0  0  0  0  0  0  0  0  0  0
   12.8549    7.3276   22.2674 O   0  0  0  0  0  0  0  0  0  0  0  0
   11.1884    4.6517   20.4216 C   0  0  0  0  0  0  0  0  0  0  0  0
   12.3181    4.8579   19.5913 O   0  0  0  0  0  0  0  0  0  0  0  0
   12.6264    6.2682   18.9038 P   0  0  2  0  0  0  0  0  0  0  0  0
   12.7286    6.0010   17.4131 O   0  0  0  0  0  0  0  0  0  0  0  0
   13.8292    6.8422   19.5927 O   0  0  0  0  0  0  0  0  0  0  0  0
   11.3176    7.1830   19.1009 O   0  0  0  0  0  0  0  0  0  0  0  0
   11.0943    8.8018   19.0143 P   0  0  2  0  0  0  0  0  0  0  0  0
   10.8810    9.1293   17.5706 O   0  0  0  0  0  0  0  0  0  0  0  0
   12.3579    9.3050   19.6239 O   0  0  0  0  0  0  0  0  0  0  0  0
    9.8913    9.1136   19.9083 O   0  0  0  0  0  0  0  0  0  0  0  0
   13.0552    1.7639   26.9685 H   0  0  0  0  0  0  0  0  0  0  0  0
   10.3274    0.4501   24.0531 H   0  0  0  0  0  0  0  0  0  0  0  0
   10.5510    2.6557   22.9012 H   0  0  0  0  0  0  0  0  0  0  0  0
   12.0016    5.4516   24.5554 H   0  0  0  0  0  0  0  0  0  0  0  0
   13.7578    4.0907   22.5244 H   0  0  0  0  0  0  0  0  0  0  0  0
   14.0378    5.4157   24.7298 H   0  0  0  0  0  0  0  0  0  0  0  0
   13.4244    5.8772   20.9663 H   0  0  0  0  0  0  0  0  0  0  0  0
   10.7519    6.4535   21.4706 H   0  0  0  0  0  0  0  0  0  0  0  0
   12.8574    7.3830   23.2558 H   0  0  0  0  0  0  0  0  0  0  0  0
   11.1375    3.5980   20.7333 H   0  0  0  0  0  0  0  0  0  0  0  0
   10.2600    4.8930   19.8832 H   0  0  0  0  0  0  0  0  0  0  0  0
  1  2  1  0
  1  6  1  0
  9  1  1  0
  2  3  1  0
  2  7  2  0
  3  4  1  0
  4  5  1  0
  4  8  2  0
  5  6  2  0
  9 10  1  0
  9 14  1  0
 10 11  1  0
 10 12  1  0
 12 13  1  0
 12 15  1  0
 13 14  1  0
 13 16  1  0
 16 17  1  0
 17 18  1  0
 18 19  2  0
 18 20  1  1
 18 21  1  0
 21 22  1  0
 22 23  2  0
 22 24  1  1
 22 25  1  0
  3 26  1  0
  5 27  1  0
  6 28  1  0
  9 29  1  1
 10 30  1  6
 11 31  1  0
 12 32  1  6
 13 33  1  6
 15 34  1  0
 16 35  1  0
 16 36  1  0
M  CHG  3  20  -1  24  -1  25  -1
M  END
>  <filename_input>  (7) 
7ES1_UDP_docked.sdf

>  <pdb_id>  (7) 
7ES1_UDP

>  <pose_rank>  (7) 
6

>  <num_atoms_heavy>  (7) 
25

>  <num_torsions>  (7) 
6

>  <pose>  (7) 
[12.013496040615697, 4.724897523010106, 23.72967768327153, 0.7496085628366733, -2.1733082895201172, -1.0612947311837082, -0.38993769454078636, 1.0083899616171377, 2.559713153269656, -1.2752208112516719, 1.99536672400441, -3.3913183486138463]

>  <energy>  (7) 
-517.3538428821465

>  <inter_energy>  (7) 
-614.4777544119827

>  <intra_energy>  (7) 
103.34864373145504

>  <rmsd>  (7) 
8.18127

>  <sdf_rank>  (7) 
0

$$$$

     RDKit          3D

 36 37  0  0  0  0  0  0  0  0999 V2000
   10.3730    3.7191   25.3486 N   0  0  0  0  0  0  0  0  0  0  0  0
   10.1324    2.6142   26.1844 C   0  0  0  0  0  0  0  0  0  0  0  0
    9.0127    2.5678   26.9123 N   0  0  0  0  0  0  0  0  0  0  0  0
    8.1189    3.5598   26.9001 C   0  0  0  0  0  0  0  0  0  0  0  0
    8.3375    4.6752   26.0930 C   0  0  0  0  0  0  0  0  0  0  0  0
    9.4861    4.7258   25.3100 C   0  0  0  0  0  0  0  0  0  0  0  0
   10.9452    1.6646   26.2211 O   0  0  0  0  0  0  0  0  0  0  0  0
    7.0951    3.4948   27.6256 O   0  0  0  0  0  0  0  0  0  0  0  0
   11.6091    3.7671   24.5790 C   0  0  1  0  0  0  0  0  0  0  0  0
   11.6815    2.8430   23.3815 C   0  0  2  0  0  0  0  0  0  0  0  0
   12.2331    1.5842   23.7496 O   0  0  0  0  0  0  0  0  0  0  0  0
   12.5713    3.6286   22.4257 C   0  0  1  0  0  0  0  0  0  0  0  0
   12.2828    5.0741   22.7581 C   0  0  2  0  0  0  0  0  0  0  0  0
   11.7099    5.0933   24.0629 O   0  0  0  0  0  0  0  0  0  0  0  0
   13.9727    3.3606   22.6122 O   0  0  0  0  0  0  0  0  0  0  0  0
   11.2910    5.7001   21.7875 C   0  0  0  0  0  0  0  0  0  0  0  0
   12.0197    6.5822   20.9514 O   0  0  0  0  0  0  0  0  0  0  0  0
   11.4075    7.1786   19.6000 P   0  0  2  0  0  0  0  0  0  0  0  0
   11.3738    8.6856   19.7775 O   0  0  0  0  0  0  0  0  0  0  0  0
   10.1042    6.4763   19.3574 O   0  0  0  0  0  0  0  0  0  0  0  0
   12.4786    6.8941   18.4335 O   0  0  0  0  0  0  0  0  0  0  0  0
   13.6316    7.8376   17.7565 P   0  0  2  0  0  0  0  0  0  0  0  0
   12.9209    8.9710   17.0876 O   0  0  0  0  0  0  0  0  0  0  0  0
   14.3143    6.8655   16.8562 O   0  0  0  0  0  0  0  0  0  0  0  0
   14.5541    8.2682   18.8998 O   0  0  0  0  0  0  0  0  0  0  0  0
    8.8335    1.7416   27.5007 H   0  0  0  0  0  0  0  0  0  0  0  0
    7.6128    5.5025   26.0755 H   0  0  0  0  0  0  0  0  0  0  0  0
    9.6680    5.5927   24.6579 H   0  0  0  0  0  0  0  0  0  0  0  0
   12.4102    3.4528   25.2641 H   0  0  0  0  0  0  0  0  0  0  0  0
   10.7081    2.5890   22.9365 H   0  0  0  0  0  0  0  0  0  0  0  0
   12.2641    1.5133   24.7365 H   0  0  0  0  0  0  0  0  0  0  0  0
   12.3585    3.3562   21.3814 H   0  0  0  0  0  0  0  0  0  0  0  0
   13.2175    5.6507   22.6952 H   0  0  0  0  0  0  0  0  0  0  0  0
   14.1753    3.3219   23.5805 H   0  0  0  0  0  0  0  0  0  0  0  0
   10.8117    4.9169   21.1817 H   0  0  0  0  0  0  0  0  0  0  0  0
   10.5024    6.2409   22.3312 H   0  0  0  0  0  0  0  0  0  0  0  0
  1  2  1  0
  1  6  1  0
  9  1  1  0
  2  3  1  0
  2  7  2  0
  3  4  1  0
  4  5  1  0
  4  8  2  0
  5  6  2  0
  9 10  1  0
  9 14  1  0
 10 11  1  0
 10 12  1  0
 12 13  1  0
 12 15  1  0
 13 14  1  0
 13 16  1  0
 16 17  1  0
 17 18  1  0
 18 19  2  0
 18 20  1  6
 18 21  1  0
 21 22  1  0
 22 23  2  0
 22 24  1  6
 22 25  1  0
  3 26  1  0
  5 27  1  0
  6 28  1  0
  9 29  1  1
 10 30  1  6
 11 31  1  0
 12 32  1  6
 13 33  1  1
 15 34  1  0
 16 35  1  0
 16 36  1  0
M  CHG  3  20  -1  24  -1  25  -1
M  END
>  <filename_input>  (8) 
7ES1_UDP_docked.sdf

>  <pdb_id>  (8) 
7ES1_UDP

>  <pose_rank>  (8) 
7

>  <num_atoms_heavy>  (8) 
25

>  <num_torsions>  (8) 
6

>  <pose>  (8) 
[11.609052608829739, 3.767098337682522, 24.578959244877527, -1.3626026195294199, -2.068303177308378, -1.8565272868854255, -6.735597479593762, -0.4829088403206529, 0.2877489383790995, -3.324727031155691, 3.754816706325475, 0.3087206952707588]

>  <energy>  (8) 
-578.3861767198064

>  <inter_energy>  (8) 
-604.9657934815926

>  <intra_energy>  (8) 
21.082137948167993

>  <rmsd>  (8) 
9.03122

>  <sdf_rank>  (8) 
0

$$$$

     RDKit          3D

 36 37  0  0  0  0  0  0  0  0999 V2000
   10.9116    3.7517   24.9719 N   0  0  0  0  0  0  0  0  0  0  0  0
    9.7428    3.6653   24.1948 C   0  0  0  0  0  0  0  0  0  0  0  0
    8.5584    3.5214   24.7967 N   0  0  0  0  0  0  0  0  0  0  0  0
    8.4462    3.4221   26.1236 C   0  0  0  0  0  0  0  0  0  0  0  0
    9.5887    3.4889   26.9193 C   0  0  0  0  0  0  0  0  0  0  0  0
   10.8261    3.6644   26.3085 C   0  0  0  0  0  0  0  0  0  0  0  0
    9.8075    3.7563   22.9493 O   0  0  0  0  0  0  0  0  0  0  0  0
    7.3178    3.2522   26.6497 O   0  0  0  0  0  0  0  0  0  0  0  0
   12.1980    3.8846   24.3010 C   0  0  1  0  0  0  0  0  0  0  0  0
   12.5047    2.8463   23.2423 C   0  0  2  0  0  0  0  0  0  0  0  0
   13.1797    1.7307   23.8117 O   0  0  0  0  0  0  0  0  0  0  0  0
   13.3700    3.6331   22.2652 C   0  0  1  0  0  0  0  0  0  0  0  0
   12.8636    5.0517   22.3846 C   0  0  2  0  0  0  0  0  0  0  0  0
   12.1720    5.1419   23.6274 O   0  0  0  0  0  0  0  0  0  0  0  0
   14.7704    3.5910   22.5933 O   0  0  0  0  0  0  0  0  0  0  0  0
   11.8947    5.4119   21.2671 C   0  0  0  0  0  0  0  0  0  0  0  0
   12.6683    5.6949   20.1139 O   0  0  0  0  0  0  0  0  0  0  0  0
   12.3304    6.9150   19.1373 P   0  0  2  0  0  0  0  0  0  0  0  0
   11.5336    7.9104   19.9608 O   0  0  0  0  0  0  0  0  0  0  0  0
   11.6750    6.3368   17.9180 O   0  0  0  0  0  0  0  0  0  0  0  0
   13.7244    7.6409   18.7928 O   0  0  0  0  0  0  0  0  0  0  0  0
   14.5824    7.7533   17.4040 P   0  0  2  0  0  0  0  0  0  0  0  0
   15.9853    8.0969   17.7925 O   0  0  0  0  0  0  0  0  0  0  0  0
   13.8237    8.8093   16.6753 O   0  0  0  0  0  0  0  0  0  0  0  0
   14.4430    6.3974   16.7070 O   0  0  0  0  0  0  0  0  0  0  0  0
    7.7060    3.4862   24.2195 H   0  0  0  0  0  0  0  0  0  0  0  0
    9.5131    3.4041   28.0134 H   0  0  0  0  0  0  0  0  0  0  0  0
   11.7365    3.7319   26.9222 H   0  0  0  0  0  0  0  0  0  0  0  0
   12.9648    3.7700   25.0813 H   0  0  0  0  0  0  0  0  0  0  0  0
   11.6198    2.4060   22.7594 H   0  0  0  0  0  0  0  0  0  0  0  0
   13.1429    1.7916   24.7991 H   0  0  0  0  0  0  0  0  0  0  0  0
   13.2950    3.2126   21.2515 H   0  0  0  0  0  0  0  0  0  0  0  0
   13.7160    5.7440   22.3207 H   0  0  0  0  0  0  0  0  0  0  0  0
   14.8789    3.5878   23.5773 H   0  0  0  0  0  0  0  0  0  0  0  0
   11.2181    4.5676   21.0686 H   0  0  0  0  0  0  0  0  0  0  0  0
   11.2818    6.2811   21.5479 H   0  0  0  0  0  0  0  0  0  0  0  0
  1  2  1  0
  1  6  1  0
  9  1  1  0
  2  3  1  0
  2  7  2  0
  3  4  1  0
  4  5  1  0
  4  8  2  0
  5  6  2  0
  9 10  1  0
  9 14  1  0
 10 11  1  0
 10 12  1  0
 12 13  1  0
 12 15  1  0
 13 14  1  0
 13 16  1  0
 16 17  1  0
 17 18  1  0
 18 19  2  0
 18 20  1  6
 18 21  1  0
 21 22  1  0
 22 23  2  0
 22 24  1  6
 22 25  1  0
  3 26  1  0
  5 27  1  0
  6 28  1  0
  9 29  1  1
 10 30  1  6
 11 31  1  0
 12 32  1  6
 13 33  1  1
 15 34  1  0
 16 35  1  0
 16 36  1  0
M  CHG  3  20  -1  24  -1  25  -1
M  END
>  <filename_input>  (9) 
7ES1_UDP_docked.sdf

>  <pdb_id>  (9) 
7ES1_UDP

>  <pose_rank>  (9) 
8

>  <num_atoms_heavy>  (9) 
25

>  <num_torsions>  (9) 
6

>  <pose>  (9) 
[12.19796308755694, 3.8846027481781746, 24.301027333648584, -1.1477081252287504, -2.2909424128022704, -1.7898086221857994, -2.6732300556441584, 0.005813918783332178, 1.2579751727418658, 1.2921771539762623, -5.147484426502444, -1.3679950618071792]

>  <energy>  (9) 
-575.5919624501565

>  <inter_energy>  (9) 
-610.2405390496866

>  <intra_energy>  (9) 
38.31199498833849

>  <rmsd>  (9) 
8.62335

>  <sdf_rank>  (9) 
0

$$$$

     RDKit          3D

 36 37  0  0  0  0  0  0  0  0999 V2000
   11.3831    3.3073   25.1861 N   0  0  0  0  0  0  0  0  0  0  0  0
   11.0446    4.4202   25.9759 C   0  0  0  0  0  0  0  0  0  0  0  0
    9.7640    4.6477   26.2828 N   0  0  0  0  0  0  0  0  0  0  0  0
    8.7789    3.8661   25.8336 C   0  0  0  0  0  0  0  0  0  0  0  0
    9.0822    2.7640   25.0358 C   0  0  0  0  0  0  0  0  0  0  0  0
   10.4131    2.4997   24.7294 C   0  0  0  0  0  0  0  0  0  0  0  0
   11.9396    5.1740   26.4169 O   0  0  0  0  0  0  0  0  0  0  0  0
    7.5839    4.1335   26.1153 O   0  0  0  0  0  0  0  0  0  0  0  0
   12.7807    3.0852   24.8399 C   0  0  1  0  0  0  0  0  0  0  0  0
   13.0437    2.0300   23.7860 C   0  0  2  0  0  0  0  0  0  0  0  0
   13.2318    0.7541   24.3869 O   0  0  0  0  0  0  0  0  0  0  0  0
   14.3008    2.5623   23.1085 C   0  0  1  0  0  0  0  0  0  0  0  0
   14.1837    4.0629   23.2419 C   0  0  2  0  0  0  0  0  0  0  0  0
   13.2609    4.3146   24.2983 O   0  0  0  0  0  0  0  0  0  0  0  0
   15.5136    2.1145   23.7402 O   0  0  0  0  0  0  0  0  0  0  0  0
   13.6514    4.7129   21.9724 C   0  0  0  0  0  0  0  0  0  0  0  0
   12.2624    4.9238   22.1579 O   0  0  0  0  0  0  0  0  0  0  0  0
   11.3294    5.5274   21.0082 P   0  0  2  0  0  0  0  0  0  0  0  0
   10.8506    6.8761   21.5137 O   0  0  0  0  0  0  0  0  0  0  0  0
   10.2900    4.4924   20.6934 O   0  0  0  0  0  0  0  0  0  0  0  0
   12.2794    5.8391   19.7475 O   0  0  0  0  0  0  0  0  0  0  0  0
   12.4383    7.1651   18.8019 P   0  0  2  0  0  0  0  0  0  0  0  0
   12.8118    8.2957   19.7070 O   0  0  0  0  0  0  0  0  0  0  0  0
   11.0880    7.2418   18.1754 O   0  0  0  0  0  0  0  0  0  0  0  0
   13.5072    6.8201   17.7618 O   0  0  0  0  0  0  0  0  0  0  0  0
    9.5297    5.4505   26.8842 H   0  0  0  0  0  0  0  0  0  0  0  0
    8.2815    2.1133   24.6544 H   0  0  0  0  0  0  0  0  0  0  0  0
   10.6712    1.6270   24.1115 H   0  0  0  0  0  0  0  0  0  0  0  0
   13.2735    2.7368   25.7595 H   0  0  0  0  0  0  0  0  0  0  0  0
   12.2183    1.8727   23.0761 H   0  0  0  0  0  0  0  0  0  0  0  0
   13.2179    0.8482   25.3724 H   0  0  0  0  0  0  0  0  0  0  0  0
   14.3644    2.2068   22.0695 H   0  0  0  0  0  0  0  0  0  0  0  0
   15.1804    4.4850   23.4379 H   0  0  0  0  0  0  0  0  0  0  0  0
   15.4073    2.1538   24.7237 H   0  0  0  0  0  0  0  0  0  0  0  0
   14.1584    5.6737   21.8003 H   0  0  0  0  0  0  0  0  0  0  0  0
   13.8345    4.0696   21.0991 H   0  0  0  0  0  0  0  0  0  0  0  0
  1  2  1  0
  1  6  1  0
  9  1  1  0
  2  3  1  0
  2  7  2  0
  3  4  1  0
  4  5  1  0
  4  8  2  0
  5  6  2  0
  9 10  1  0
  9 14  1  0
 10 11  1  0
 10 12  1  0
 12 13  1  0
 12 15  1  0
 13 14  1  0
 13 16  1  0
 16 17  1  0
 17 18  1  0
 18 19  2  0
 18 20  1  6
 18 21  1  0
 21 22  1  0
 22 23  2  0
 22 24  1  6
 22 25  1  0
  3 26  1  0
  5 27  1  0
  6 28  1  0
  9 29  1  1
 10 30  1  6
 11 31  1  0
 12 32  1  6
 13 33  1  1
 15 34  1  0
 16 35  1  0
 16 36  1  0
M  CHG  3  20  -1  24  -1  25  -1
M  END
>  <filename_input>  (10) 
7ES1_UDP_docked.sdf

>  <pdb_id>  (10) 
7ES1_UDP

>  <pose_rank>  (10) 
9

>  <num_atoms_heavy>  (10) 
25

>  <num_torsions>  (10) 
6

>  <pose>  (10) 
[12.78067603516179, 3.0851888136462104, 24.83986505165221, -1.3767412245169124, -2.2685883545643857, -2.192537841326622, 1.5852419993666842, -9.474956816116928, 6.870041812434673, -1.1078951724898323, 3.1755845934902838, 2.4412369376388297]

>  <energy>  (10) 
-534.5849673427856

>  <inter_energy>  (10) 
-558.6206898649322

>  <intra_energy>  (10) 
27.683975992359578

>  <rmsd>  (10) 
8.61794

>  <sdf_rank>  (10) 
0

$$$$

     RDKit          3D

 36 37  0  0  0  0  0  0  0  0999 V2000
   10.4368    3.3712   25.5360 N   0  0  0  0  0  0  0  0  0  0  0  0
    9.7092    2.8912   26.6394 C   0  0  0  0  0  0  0  0  0  0  0  0
    8.4523    3.3024   26.8315 N   0  0  0  0  0  0  0  0  0  0  0  0
    7.8662    4.1888   26.0228 C   0  0  0  0  0  0  0  0  0  0  0  0
    8.5676    4.6941   24.9293 C   0  0  0  0  0  0  0  0  0  0  0  0
    9.8680    4.2557   24.7018 C   0  0  0  0  0  0  0  0  0  0  0  0
   10.2235    2.0585   27.4177 O   0  0  0  0  0  0  0  0  0  0  0  0
    6.6944    4.5773   26.2572 O   0  0  0  0  0  0  0  0  0  0  0  0
   11.8138    2.9325   25.3525 C   0  0  1  0  0  0  0  0  0  0  0  0
   12.0737    2.0466   24.1521 C   0  0  2  0  0  0  0  0  0  0  0  0
   11.9281    0.6742   24.4982 O   0  0  0  0  0  0  0  0  0  0  0  0
   13.5042    2.4210   23.7831 C   0  0  1  0  0  0  0  0  0  0  0  0
   13.6266    3.8670   24.2043 C   0  0  2  0  0  0  0  0  0  0  0  0
   12.5882    4.1133   25.1487 O   0  0  0  0  0  0  0  0  0  0  0  0
   14.4890    1.6317   24.4742 O   0  0  0  0  0  0  0  0  0  0  0  0
   13.4495    4.8236   23.0335 C   0  0  0  0  0  0  0  0  0  0  0  0
   12.0731    4.8262   22.6963 O   0  0  0  0  0  0  0  0  0  0  0  0
   11.5443    5.3197   21.2703 P   0  0  2  0  0  0  0  0  0  0  0  0
   10.4708    6.3556   21.5503 O   0  0  0  0  0  0  0  0  0  0  0  0
   11.1471    4.0960   20.4985 O   0  0  0  0  0  0  0  0  0  0  0  0
   12.7549    6.1149   20.5698 O   0  0  0  0  0  0  0  0  0  0  0  0
   12.7734    7.3253   19.4688 P   0  0  2  0  0  0  0  0  0  0  0  0
   12.1675    6.7761   18.2165 O   0  0  0  0  0  0  0  0  0  0  0  0
   14.2277    7.6465   19.4106 O   0  0  0  0  0  0  0  0  0  0  0  0
   11.9811    8.4782   20.0909 O   0  0  0  0  0  0  0  0  0  0  0  0
    7.9193    2.9240   27.6275 H   0  0  0  0  0  0  0  0  0  0  0  0
    8.1001    5.4282   24.2567 H   0  0  0  0  0  0  0  0  0  0  0  0
   10.4315    4.6347   23.8364 H   0  0  0  0  0  0  0  0  0  0  0  0
   12.0672    2.3356   26.2410 H   0  0  0  0  0  0  0  0  0  0  0  0
   11.3734    2.1876   23.3157 H   0  0  0  0  0  0  0  0  0  0  0  0
   11.9183    0.5817   25.4839 H   0  0  0  0  0  0  0  0  0  0  0  0
   13.6893    2.2472   22.7129 H   0  0  0  0  0  0  0  0  0  0  0  0
   14.6302    4.0358   24.6218 H   0  0  0  0  0  0  0  0  0  0  0  0
   14.3651    1.7310   25.4513 H   0  0  0  0  0  0  0  0  0  0  0  0
   13.7682    5.8359   23.3229 H   0  0  0  0  0  0  0  0  0  0  0  0
   14.0602    4.5063   22.1754 H   0  0  0  0  0  0  0  0  0  0  0  0
  1  2  1  0
  1  6  1  0
  9  1  1  0
  2  3  1  0
  2  7  2  0
  3  4  1  0
  4  5  1  0
  4  8  2  0
  5  6  2  0
  9 10  1  0
  9 14  1  0
 10 11  1  0
 10 12  1  0
 12 13  1  0
 12 15  1  0
 13 14  1  0
 13 16  1  0
 16 17  1  0
 17 18  1  0
 18 19  2  0
 18 20  1  6
 18 21  1  0
 21 22  1  0
 22 23  2  0
 22 24  1  6
 22 25  1  0
  3 26  1  0
  5 27  1  0
  6 28  1  0
  9 29  1  1
 10 30  1  6
 11 31  1  0
 12 32  1  6
 13 33  1  1
 15 34  1  0
 16 35  1  0
 16 36  1  0
M  CHG  3  20  -1  24  -1  25  -1
M  END
>  <filename_input>  (11) 
7ES1_UDP_docked.sdf

>  <pdb_id>  (11) 
7ES1_UDP

>  <pose_rank>  (11) 
10

>  <num_atoms_heavy>  (11) 
25

>  <num_torsions>  (11) 
6

>  <pose>  (11) 
[11.813829266993757, 2.93246003159318, 25.35249596654448, -1.5329469190103142, -1.962708680552031, -2.5865783470880404, 0.2127033122157513, 2.6585584817012102, -5.404045354433172, -1.3372023328125051, 2.8117520900908133, 0.3020225288583661]

>  <energy>  (11) 
-498.6229451657516

>  <inter_energy>  (11) 
-535.6642121696887

>  <intra_energy>  (11) 
24.391476007176127

>  <rmsd>  (11) 
9.02404

>  <sdf_rank>  (11) 
0

$$$$

     RDKit          3D

 36 37  0  0  0  0  0  0  0  0999 V2000
   11.4033    4.1822   23.4754 N   0  0  0  0  0  0  0  0  0  0  0  0
   12.3580    3.1845   23.7404 C   0  0  0  0  0  0  0  0  0  0  0  0
   11.9543    1.9640   24.1053 N   0  0  0  0  0  0  0  0  0  0  0  0
   10.6627    1.6630   24.2618 C   0  0  0  0  0  0  0  0  0  0  0  0
    9.6938    2.6358   24.0212 C   0  0  0  0  0  0  0  0  0  0  0  0
   10.0978    3.9036   23.6156 C   0  0  0  0  0  0  0  0  0  0  0  0
   13.5768    3.4279   23.6027 O   0  0  0  0  0  0  0  0  0  0  0  0
   10.3248    0.5135   24.6404 O   0  0  0  0  0  0  0  0  0  0  0  0
   11.8587    5.5146   23.1014 C   0  0  1  0  0  0  0  0  0  0  0  0
   13.3489    5.6690   22.8809 C   0  0  2  0  0  0  0  0  0  0  0  0
   14.0011    6.0392   24.0901 O   0  0  0  0  0  0  0  0  0  0  0  0
   13.4026    6.7576   21.8158 C   0  0  1  0  0  0  0  0  0  0  0  0
   12.1284    6.5641   21.0269 C   0  0  2  0  0  0  0  0  0  0  0  0
   11.2398    5.8149   21.8515 O   0  0  0  0  0  0  0  0  0  0  0  0
   13.4313    8.0857   22.3688 O   0  0  0  0  0  0  0  0  0  0  0  0
   12.3621    5.7861   19.7395 C   0  0  0  0  0  0  0  0  0  0  0  0
   13.6004    6.2200   19.2041 O   0  0  0  0  0  0  0  0  0  0  0  0
   13.8013    7.6851   18.5961 P   0  0  2  0  0  0  0  0  0  0  0  0
   13.8831    7.5127   17.0903 O   0  0  0  0  0  0  0  0  0  0  0  0
   14.9819    8.2947   19.2926 O   0  0  0  0  0  0  0  0  0  0  0  0
   12.4423    8.5000   18.8752 O   0  0  0  0  0  0  0  0  0  0  0  0
   11.8060    9.8343   18.1735 P   0  0  2  0  0  0  0  0  0  0  0  0
   10.4653    9.4409   17.6397 O   0  0  0  0  0  0  0  0  0  0  0  0
   12.8492   10.1579   17.1593 O   0  0  0  0  0  0  0  0  0  0  0  0
   11.7520   10.9049   19.2663 O   0  0  0  0  0  0  0  0  0  0  0  0
   12.6609    1.2331   24.2709 H   0  0  0  0  0  0  0  0  0  0  0  0
    8.6261    2.4046   24.1501 H   0  0  0  0  0  0  0  0  0  0  0  0
    9.3458    4.6794   23.4093 H   0  0  0  0  0  0  0  0  0  0  0  0
   11.5978    6.1756   23.9411 H   0  0  0  0  0  0  0  0  0  0  0  0
   13.8657    4.7496   22.5685 H   0  0  0  0  0  0  0  0  0  0  0  0
   13.4625    5.7335   24.8625 H   0  0  0  0  0  0  0  0  0  0  0  0
   14.3205    6.6714   21.2157 H   0  0  0  0  0  0  0  0  0  0  0  0
   11.7240    7.5491   20.7506 H   0  0  0  0  0  0  0  0  0  0  0  0
   13.4301    8.0316   23.3573 H   0  0  0  0  0  0  0  0  0  0  0  0
   12.4014    4.7078   19.9532 H   0  0  0  0  0  0  0  0  0  0  0  0
   11.5453    5.9623   19.0242 H   0  0  0  0  0  0  0  0  0  0  0  0
  1  2  1  0
  1  6  1  0
  9  1  1  0
  2  3  1  0
  2  7  2  0
  3  4  1  0
  4  5  1  0
  4  8  2  0
  5  6  2  0
  9 10  1  0
  9 14  1  0
 10 11  1  0
 10 12  1  0
 12 13  1  0
 12 15  1  0
 13 14  1  0
 13 16  1  0
 16 17  1  0
 17 18  1  0
 18 19  2  0
 18 20  1  1
 18 21  1  0
 21 22  1  0
 22 23  2  0
 22 24  1  6
 22 25  1  0
  3 26  1  0
  5 27  1  0
  6 28  1  0
  9 29  1  1
 10 30  1  6
 11 31  1  0
 12 32  1  6
 13 33  1  6
 15 34  1  0
 16 35  1  0
 16 36  1  0
M  CHG  3  20  -1  24  -1  25  -1
M  END
>  <filename_input>  (12) 
7ES1_UDP_docked.sdf

>  <pdb_id>  (12) 
7ES1_UDP

>  <pose_rank>  (12) 
11

>  <num_atoms_heavy>  (12) 
25

>  <num_torsions>  (12) 
6

>  <pose>  (12) 
[11.858677996130918, 5.514629409020201, 23.101435941578615, 0.9516132976568904, -2.5307304263414108, -1.161237881319232, -1.6338170601224993, 0.7071126400510266, 2.466987824461077, -0.9787785055502202, 2.6862269452032534, 3.5349218823507496]

>  <energy>  (12) 
-418.600206146084

>  <inter_energy>  (12) 
-516.4512811068603

>  <intra_energy>  (12) 
100.62512410300363

>  <rmsd>  (12) 
7.96943

>  <sdf_rank>  (12) 
0

$$$$

     RDKit          3D

 36 37  0  0  0  0  0  0  0  0999 V2000
   10.9223    3.2279   25.2030 N   0  0  0  0  0  0  0  0  0  0  0  0
   10.4592    4.0642   26.2341 C   0  0  0  0  0  0  0  0  0  0  0  0
    9.2766    3.8166   26.8049 N   0  0  0  0  0  0  0  0  0  0  0  0
    8.4939    2.8115   26.4042 C   0  0  0  0  0  0  0  0  0  0  0  0
    8.9194    1.9746   25.3738 C   0  0  0  0  0  0  0  0  0  0  0  0
   10.1597    2.2045   24.7875 C   0  0  0  0  0  0  0  0  0  0  0  0
   11.1649    5.0143   26.6380 O   0  0  0  0  0  0  0  0  0  0  0  0
    7.3728    2.6326   26.9425 O   0  0  0  0  0  0  0  0  0  0  0  0
   12.2026    3.5241   24.5740 C   0  0  1  0  0  0  0  0  0  0  0  0
   12.7871    2.4266   23.7097 C   0  0  2  0  0  0  0  0  0  0  0  0
   13.6264    1.5730   24.4787 O   0  0  0  0  0  0  0  0  0  0  0  0
   13.5486    3.2218   22.6560 C   0  0  1  0  0  0  0  0  0  0  0  0
   12.7628    4.5058   22.5246 C   0  0  2  0  0  0  0  0  0  0  0  0
   11.9772    4.6341   23.7066 O   0  0  0  0  0  0  0  0  0  0  0  0
   14.9013    3.5211   23.0451 O   0  0  0  0  0  0  0  0  0  0  0  0
   11.8271    4.4865   21.3241 C   0  0  0  0  0  0  0  0  0  0  0  0
   11.6017    5.8330   20.9441 O   0  0  0  0  0  0  0  0  0  0  0  0
   12.2171    6.4573   19.6068 P   0  0  2  0  0  0  0  0  0  0  0  0
   12.1974    5.3474   18.5716 O   0  0  0  0  0  0  0  0  0  0  0  0
   13.5471    7.0503   19.9672 O   0  0  0  0  0  0  0  0  0  0  0  0
   11.1766    7.5680   19.0849 O   0  0  0  0  0  0  0  0  0  0  0  0
   11.3445    9.1695   18.7936 P   0  0  2  0  0  0  0  0  0  0  0  0
   11.0321    9.3778   17.3459 O   0  0  0  0  0  0  0  0  0  0  0  0
   12.7606    9.3945   19.2005 O   0  0  0  0  0  0  0  0  0  0  0  0
   10.3800    9.8787   19.7477 O   0  0  0  0  0  0  0  0  0  0  0  0
    8.9590    4.4193   27.5774 H   0  0  0  0  0  0  0  0  0  0  0  0
    8.2840    1.1453   25.0296 H   0  0  0  0  0  0  0  0  0  0  0  0
   10.5164    1.5461   23.9817 H   0  0  0  0  0  0  0  0  0  0  0  0
   12.9171    3.6887   25.3941 H   0  0  0  0  0  0  0  0  0  0  0  0
   12.0456    1.7451   23.2671 H   0  0  0  0  0  0  0  0  0  0  0  0
   13.4673    1.7348   25.4424 H   0  0  0  0  0  0  0  0  0  0  0  0
   13.6338    2.6490   21.7208 H   0  0  0  0  0  0  0  0  0  0  0  0
   13.4630    5.3428   22.3861 H   0  0  0  0  0  0  0  0  0  0  0  0
   14.9651    3.5352   24.0329 H   0  0  0  0  0  0  0  0  0  0  0  0
   12.2910    3.9337   20.4939 H   0  0  0  0  0  0  0  0  0  0  0  0
   10.8790    3.9892   21.5771 H   0  0  0  0  0  0  0  0  0  0  0  0
  1  2  1  0
  1  6  1  0
  9  1  1  0
  2  3  1  0
  2  7  2  0
  3  4  1  0
  4  5  1  0
  4  8  2  0
  5  6  2  0
  9 10  1  0
  9 14  1  0
 10 11  1  0
 10 12  1  0
 12 13  1  0
 12 15  1  0
 13 14  1  0
 13 16  1  0
 16 17  1  0
 17 18  1  0
 18 19  2  0
 18 20  1  1
 18 21  1  0
 21 22  1  0
 22 23  2  0
 22 24  1  6
 22 25  1  0
  3 26  1  0
  5 27  1  0
  6 28  1  0
  9 29  1  1
 10 30  1  6
 11 31  1  0
 12 32  1  6
 13 33  1  6
 15 34  1  0
 16 35  1  0
 16 36  1  0
M  CHG  3  20  -1  24  -1  25  -1
M  END
>  <filename_input>  (13) 
7ES1_UDP_docked.sdf

>  <pdb_id>  (13) 
7ES1_UDP

>  <pose_rank>  (13) 
12

>  <num_atoms_heavy>  (13) 
25

>  <num_torsions>  (13) 
6

>  <pose>  (13) 
[12.20264947618298, 3.5240578631021227, 24.574045799190426, 0.8658559802896052, 2.5690672646266277, 1.6521472102511063, -17.692021844465945, 4.959106469027197, -0.7097726570090412, -17.33776566154612, 7.592845560989678, 9.790837521199359]

>  <energy>  (13) 
-562.9921169788555

>  <inter_energy>  (13) 
-578.0241552997427

>  <intra_energy>  (13) 
23.220172420577985

>  <rmsd>  (13) 
9.01191

>  <sdf_rank>  (13) 
0

$$$$

     RDKit          3D

 36 37  0  0  0  0  0  0  0  0999 V2000
   18.5906    7.8446   16.5077 N   0  0  0  0  0  0  0  0  0  0  0  0
   19.7787    7.7935   15.7573 C   0  0  0  0  0  0  0  0  0  0  0  0
   20.9487    8.0385   16.3548 N   0  0  0  0  0  0  0  0  0  0  0  0
   21.0285    8.3668   17.6467 C   0  0  0  0  0  0  0  0  0  0  0  0
   19.8663    8.4404   18.4128 C   0  0  0  0  0  0  0  0  0  0  0  0
   18.6435    8.1627   17.8106 C   0  0  0  0  0  0  0  0  0  0  0  0
   19.7443    7.4874   14.5453 O   0  0  0  0  0  0  0  0  0  0  0  0
   22.1444    8.6244   18.1637 O   0  0  0  0  0  0  0  0  0  0  0  0
   17.3205    7.5984   15.8379 C   0  0  1  0  0  0  0  0  0  0  0  0
   16.7725    6.1913   15.9509 C   0  0  2  0  0  0  0  0  0  0  0  0
   17.2313    5.3841   14.8728 O   0  0  0  0  0  0  0  0  0  0  0  0
   15.2678    6.4315   15.9190 C   0  0  1  0  0  0  0  0  0  0  0  0
   15.0992    7.7948   16.5485 C   0  0  2  0  0  0  0  0  0  0  0  0
   16.3629    8.4485   16.4670 O   0  0  0  0  0  0  0  0  0  0  0  0
   14.7279    6.4453   14.5853 O   0  0  0  0  0  0  0  0  0  0  0  0
   14.6970    7.7053   18.0140 C   0  0  0  0  0  0  0  0  0  0  0  0
   13.2888    7.5523   18.0556 O   0  0  0  0  0  0  0  0  0  0  0  0
   12.4303    7.9000   19.3590 P   0  0  2  0  0  0  0  0  0  0  0  0
   11.4602    8.9932   18.9497 O   0  0  0  0  0  0  0  0  0  0  0  0
   13.4024    8.2074   20.4595 O   0  0  0  0  0  0  0  0  0  0  0  0
   11.5290    6.6080   19.6862 O   0  0  0  0  0  0  0  0  0  0  0  0
   11.6416    5.4656   20.8524 P   0  0  2  0  0  0  0  0  0  0  0  0
   10.4962    4.5263   20.6455 O   0  0  0  0  0  0  0  0  0  0  0  0
   11.5938    6.3004   22.0862 O   0  0  0  0  0  0  0  0  0  0  0  0
   13.0179    4.8173   20.6812 O   0  0  0  0  0  0  0  0  0  0  0  0
   21.8152    7.9721   15.8020 H   0  0  0  0  0  0  0  0  0  0  0  0
   19.9153    8.7140   19.4771 H   0  0  0  0  0  0  0  0  0  0  0  0
   17.7179    8.2038   18.4035 H   0  0  0  0  0  0  0  0  0  0  0  0
   17.4976    7.7788   14.7673 H   0  0  0  0  0  0  0  0  0  0  0  0
   17.0916    5.6438   16.8500 H   0  0  0  0  0  0  0  0  0  0  0  0
   17.6873    4.5820   15.2318 H   0  0  0  0  0  0  0  0  0  0  0  0
   14.7328    5.6253   16.4422 H   0  0  0  0  0  0  0  0  0  0  0  0
   14.3036    8.3391   16.0187 H   0  0  0  0  0  0  0  0  0  0  0  0
   13.7392    6.4706   14.6297 H   0  0  0  0  0  0  0  0  0  0  0  0
   15.1839    6.8390   18.4858 H   0  0  0  0  0  0  0  0  0  0  0  0
   15.0070    8.6091   18.5589 H   0  0  0  0  0  0  0  0  0  0  0  0
  1  2  1  0
  1  6  1  0
  9  1  1  0
  2  3  1  0
  2  7  2  0
  3  4  1  0
  4  5  1  0
  4  8  2  0
  5  6  2  0
  9 10  1  0
  9 14  1  0
 10 11  1  0
 10 12  1  0
 12 13  1  0
 12 15  1  0
 13 14  1  0
 13 16  1  0
 16 17  1  0
 17 18  1  0
 18 19  2  0
 18 20  1  1
 18 21  1  0
 21 22  1  0
 22 23  2  0
 22 24  1  1
 22 25  1  0
  3 26  1  0
  5 27  1  0
  6 28  1  0
  9 29  1  6
 10 30  1  1
 11 31  1  0
 12 32  1  1
 13 33  1  6
 15 34  1  0
 16 35  1  0
 16 36  1  0
M  CHG  3  20  -1  24  -1  25  -1
M  END
>  <filename_input>  (14) 
7ES1_UDP_docked.sdf

>  <pdb_id>  (14) 
7ES1_UDP

>  <pose_rank>  (14) 
13

>  <num_atoms_heavy>  (14) 
25

>  <num_torsions>  (14) 
6

>  <pose>  (14) 
[17.320525231716886, 7.598399249432242, 15.837874284710162, -1.1837070209557108, -1.0265866125494596, 0.3530837273936927, -0.05023697346016434, -0.09208689410989684, 0.8954665165937387, -3.307944884618654, 1.0350560350707372, -1.7348381731988212]

>  <energy>  (14) 
-423.67684883827127

>  <inter_energy>  (14) 
-421.055307189024

>  <intra_energy>  (14) 
3.3500054806542217

>  <rmsd>  (14) 
5.43144

>  <sdf_rank>  (14) 
0

$$$$

     RDKit          3D

 36 37  0  0  0  0  0  0  0  0999 V2000
    8.1983    4.8298   27.1343 N   0  0  0  0  0  0  0  0  0  0  0  0
    7.8353    4.8823   28.4917 C   0  0  0  0  0  0  0  0  0  0  0  0
    6.7320    5.5429   28.8556 N   0  0  0  0  0  0  0  0  0  0  0  0
    5.9708    6.1909   27.9704 C   0  0  0  0  0  0  0  0  0  0  0  0
    6.3138    6.1697   26.6195 C   0  0  0  0  0  0  0  0  0  0  0  0
    7.4452    5.4645   26.2224 C   0  0  0  0  0  0  0  0  0  0  0  0
    8.5221    4.2860   29.3499 O   0  0  0  0  0  0  0  0  0  0  0  0
    4.9603    6.8302   28.3566 O   0  0  0  0  0  0  0  0  0  0  0  0
    9.4162    4.1261   26.7552 C   0  0  1  0  0  0  0  0  0  0  0  0
    9.2509    2.6683   26.3799 C   0  0  2  0  0  0  0  0  0  0  0  0
    9.4020    1.8340   27.5225 O   0  0  0  0  0  0  0  0  0  0  0  0
   10.3575    2.4767   25.3497 C   0  0  1  0  0  0  0  0  0  0  0  0
   10.4923    3.8330   24.6975 C   0  0  2  0  0  0  0  0  0  0  0  0
    9.9129    4.7816   25.5894 O   0  0  0  0  0  0  0  0  0  0  0  0
   11.6146    2.0964   25.9377 O   0  0  0  0  0  0  0  0  0  0  0  0
    9.7533    3.9077   23.3687 C   0  0  0  0  0  0  0  0  0  0  0  0
   10.6600    3.4992   22.3591 O   0  0  0  0  0  0  0  0  0  0  0  0
   11.3225    4.5347   21.3366 P   0  0  2  0  0  0  0  0  0  0  0  0
   10.8192    5.9092   21.7379 O   0  0  0  0  0  0  0  0  0  0  0  0
   11.0046    4.0533   19.9518 O   0  0  0  0  0  0  0  0  0  0  0  0
   12.9043    4.5390   21.6313 O   0  0  0  0  0  0  0  0  0  0  0  0
   13.7619    4.2370   22.9919 P   0  0  2  0  0  0  0  0  0  0  0  0
   15.1993    4.4781   22.6560 O   0  0  0  0  0  0  0  0  0  0  0  0
   13.3793    2.8238   23.2718 O   0  0  0  0  0  0  0  0  0  0  0  0
   13.2057    5.1787   24.0630 O   0  0  0  0  0  0  0  0  0  0  0  0
    6.4607    5.5524   29.8492 H   0  0  0  0  0  0  0  0  0  0  0  0
    5.6993    6.7024   25.8788 H   0  0  0  0  0  0  0  0  0  0  0  0
    7.7233    5.4269   25.1588 H   0  0  0  0  0  0  0  0  0  0  0  0
   10.0716    4.1481   27.6384 H   0  0  0  0  0  0  0  0  0  0  0  0
    8.2588    2.4043   25.9849 H   0  0  0  0  0  0  0  0  0  0  0  0
    9.3035    2.3780   28.3437 H   0  0  0  0  0  0  0  0  0  0  0  0
   10.1044    1.6651   24.6516 H   0  0  0  0  0  0  0  0  0  0  0  0
   11.5556    4.0313   24.4974 H   0  0  0  0  0  0  0  0  0  0  0  0
   11.5378    2.1197   26.9244 H   0  0  0  0  0  0  0  0  0  0  0  0
    8.8810    3.2377   23.3848 H   0  0  0  0  0  0  0  0  0  0  0  0
    9.3944    4.9301   23.1795 H   0  0  0  0  0  0  0  0  0  0  0  0
  1  2  1  0
  1  6  1  0
  9  1  1  0
  2  3  1  0
  2  7  2  0
  3  4  1  0
  4  5  1  0
  4  8  2  0
  5  6  2  0
  9 10  1  0
  9 14  1  0
 10 11  1  0
 10 12  1  0
 12 13  1  0
 12 15  1  0
 13 14  1  0
 13 16  1  0
 16 17  1  0
 17 18  1  0
 18 19  2  0
 18 20  1  6
 18 21  1  0
 21 22  1  0
 22 23  2  0
 22 24  1  1
 22 25  1  0
  3 26  1  0
  5 27  1  0
  6 28  1  0
  9 29  1  1
 10 30  1  6
 11 31  1  0
 12 32  1  6
 13 33  1  6
 15 34  1  0
 16 35  1  0
 16 36  1  0
M  CHG  3  20  -1  24  -1  25  -1
M  END
>  <filename_input>  (15) 
7ES1_UDP_docked.sdf

>  <pdb_id>  (15) 
7ES1_UDP

>  <pose_rank>  (15) 
14

>  <num_atoms_heavy>  (15) 
25

>  <num_torsions>  (15) 
6

>  <pose>  (15) 
[9.416238824236391, 4.126051356910728, 26.755163721417045, -1.7643505920226017, -2.850954723565222, -1.3984877335083286, -0.13313469704251046, -0.18279582591836702, 1.8156587416242935, 0.9262855788650619, -1.306315940748268, -1.6664070843604994]

>  <energy>  (15) 
-457.93729173757544

>  <inter_energy>  (15) 
-459.69273343681755

>  <intra_energy>  (15) 
20.395971657526356

>  <rmsd>  (15) 
9.78117

>  <sdf_rank>  (15) 
0

$$$$

     RDKit          3D

 36 37  0  0  0  0  0  0  0  0999 V2000
   11.9324    5.0640   21.2514 N   0  0  0  0  0  0  0  0  0  0  0  0
   11.4246    6.2656   21.7761 C   0  0  0  0  0  0  0  0  0  0  0  0
   11.2933    7.3309   20.9800 N   0  0  0  0  0  0  0  0  0  0  0  0
   11.6626    7.3055   19.6970 C   0  0  0  0  0  0  0  0  0  0  0  0
   12.1837    6.1329   19.1524 C   0  0  0  0  0  0  0  0  0  0  0  0
   12.3021    5.0082   19.9624 C   0  0  0  0  0  0  0  0  0  0  0  0
   11.0661    6.3276   22.9725 O   0  0  0  0  0  0  0  0  0  0  0  0
   11.5561    8.3386   18.9899 O   0  0  0  0  0  0  0  0  0  0  0  0
   12.0920    3.9179   22.1367 C   0  0  1  0  0  0  0  0  0  0  0  0
   13.2255    4.0049   23.1370 C   0  0  2  0  0  0  0  0  0  0  0  0
   14.4203    3.4562   22.5932 O   0  0  0  0  0  0  0  0  0  0  0  0
   12.6783    3.2001   24.3098 C   0  0  1  0  0  0  0  0  0  0  0  0
   11.1833    3.4055   24.2318 C   0  0  2  0  0  0  0  0  0  0  0  0
   10.8921    3.8324   22.9037 O   0  0  0  0  0  0  0  0  0  0  0  0
   12.9782    1.7957   24.2178 O   0  0  0  0  0  0  0  0  0  0  0  0
   10.6993    4.4768   25.1989 C   0  0  0  0  0  0  0  0  0  0  0  0
   10.0904    3.8126   26.2927 O   0  0  0  0  0  0  0  0  0  0  0  0
    8.5641    4.0604   26.6998 P   0  0  2  0  0  0  0  0  0  0  0  0
    8.1941    2.9453   27.6608 O   0  0  0  0  0  0  0  0  0  0  0  0
    7.7793    4.1712   25.4260 O   0  0  0  0  0  0  0  0  0  0  0  0
    8.5221    5.4190   27.5608 O   0  0  0  0  0  0  0  0  0  0  0  0
    7.2977    6.1888   28.3261 P   0  0  2  0  0  0  0  0  0  0  0  0
    7.8378    7.5066   28.7829 O   0  0  0  0  0  0  0  0  0  0  0  0
    6.9593    5.2090   29.3971 O   0  0  0  0  0  0  0  0  0  0  0  0
    6.1619    6.3007   27.3057 O   0  0  0  0  0  0  0  0  0  0  0  0
   10.8952    8.1981   21.3679 H   0  0  0  0  0  0  0  0  0  0  0  0
   12.4965    6.0975   18.0984 H   0  0  0  0  0  0  0  0  0  0  0  0
   12.6996    4.0711   19.5455 H   0  0  0  0  0  0  0  0  0  0  0  0
   12.3138    3.0574   21.4884 H   0  0  0  0  0  0  0  0  0  0  0  0
   13.5077    5.0283   23.4251 H   0  0  0  0  0  0  0  0  0  0  0  0
   15.0216    3.1800   23.3295 H   0  0  0  0  0  0  0  0  0  0  0  0
   13.1293    3.5335   25.2561 H   0  0  0  0  0  0  0  0  0  0  0  0
   10.6772    2.4656   24.4973 H   0  0  0  0  0  0  0  0  0  0  0  0
   13.0595    1.4153   25.1281 H   0  0  0  0  0  0  0  0  0  0  0  0
   11.5501    5.0789   25.5504 H   0  0  0  0  0  0  0  0  0  0  0  0
    9.9842    5.1521   24.7062 H   0  0  0  0  0  0  0  0  0  0  0  0
  1  2  1  0
  1  6  1  0
  9  1  1  0
  2  3  1  0
  2  7  2  0
  3  4  1  0
  4  5  1  0
  4  8  2  0
  5  6  2  0
  9 10  1  0
  9 14  1  0
 10 11  1  0
 10 12  1  0
 12 13  1  0
 12 15  1  0
 13 14  1  0
 13 16  1  0
 16 17  1  0
 17 18  1  0
 18 19  2  0
 18 20  1  6
 18 21  1  0
 21 22  1  0
 22 23  2  0
 22 24  1  1
 22 25  1  0
  3 26  1  0
  5 27  1  0
  6 28  1  0
  9 29  1  6
 10 30  1  1
 11 31  1  0
 12 32  1  1
 13 33  1  1
 15 34  1  0
 16 35  1  0
 16 36  1  0
M  CHG  3  20  -1  24  -1  25  -1
M  END
>  <filename_input>  (16) 
7ES1_UDP_docked.sdf

>  <pdb_id>  (16) 
7ES1_UDP

>  <pose_rank>  (16) 
15

>  <num_atoms_heavy>  (16) 
25

>  <num_torsions>  (16) 
6

>  <pose>  (16) 
[12.091981247191006, 3.917942373351543, 22.136656727941592, -1.038518487818372, -1.0223870948691895, 2.415908615217167, -3.0111139796675856, -0.4289933241563476, -17.285688712995963, 3.7897574797102025, 2.379994433060105, -1.5810882467498588]

>  <energy>  (16) 
-492.90719646681987

>  <inter_energy>  (16) 
-528.1260844119752

>  <intra_energy>  (16) 
51.783894477001894

>  <rmsd>  (16) 
6.95416

>  <sdf_rank>  (16) 
0

$$$$

     RDKit          3D

 36 37  0  0  0  0  0  0  0  0999 V2000
   14.0114    8.1628   16.8784 N   0  0  0  0  0  0  0  0  0  0  0  0
   13.0044    7.9449   17.8353 C   0  0  0  0  0  0  0  0  0  0  0  0
   12.1656    8.9366   18.1494 N   0  0  0  0  0  0  0  0  0  0  0  0
   12.2711   10.1517   17.6056 C   0  0  0  0  0  0  0  0  0  0  0  0
   13.2691   10.4022   16.6652 C   0  0  0  0  0  0  0  0  0  0  0  0
   14.1335    9.3721   16.3092 C   0  0  0  0  0  0  0  0  0  0  0  0
   12.8730    6.8197   18.3648 O   0  0  0  0  0  0  0  0  0  0  0  0
   11.4849   11.0681   17.9532 O   0  0  0  0  0  0  0  0  0  0  0  0
   14.9333    7.0796   16.5634 C   0  0  1  0  0  0  0  0  0  0  0  0
   15.3877    6.9931   15.1214 C   0  0  2  0  0  0  0  0  0  0  0  0
   14.5161    6.1583   14.3679 O   0  0  0  0  0  0  0  0  0  0  0  0
   16.7916    6.4173   15.2634 C   0  0  1  0  0  0  0  0  0  0  0  0
   17.2691    6.9364   16.5997 C   0  0  2  0  0  0  0  0  0  0  0  0
   16.1092    7.3150   17.3361 O   0  0  0  0  0  0  0  0  0  0  0  0
   16.8121    4.9785   15.2689 O   0  0  0  0  0  0  0  0  0  0  0  0
   18.1670    8.1570   16.4545 C   0  0  0  0  0  0  0  0  0  0  0  0
   18.9869    8.2164   17.6088 O   0  0  0  0  0  0  0  0  0  0  0  0
   20.5340    8.6140   17.5376 P   0  0  2  0  0  0  0  0  0  0  0  0
   20.9235    8.5451   16.0722 O   0  0  0  0  0  0  0  0  0  0  0  0
   21.2648    7.7200   18.4954 O   0  0  0  0  0  0  0  0  0  0  0  0
   20.6399   10.1653   17.9514 O   0  0  0  0  0  0  0  0  0  0  0  0
   21.9172   11.0985   18.3700 P   0  0  2  0  0  0  0  0  0  0  0  0
   21.3569   12.3619   18.9418 O   0  0  0  0  0  0  0  0  0  0  0  0
   22.6280   11.2246   17.0660 O   0  0  0  0  0  0  0  0  0  0  0  0
   22.7380   10.2743   19.3653 O   0  0  0  0  0  0  0  0  0  0  0  0
   11.4149    8.7584   18.8317 H   0  0  0  0  0  0  0  0  0  0  0  0
   13.3716   11.3992   16.2118 H   0  0  0  0  0  0  0  0  0  0  0  0
   14.9187    9.5491   15.5594 H   0  0  0  0  0  0  0  0  0  0  0  0
   14.3937    6.1450   16.7766 H   0  0  0  0  0  0  0  0  0  0  0  0
   15.3789    7.9494   14.5779 H   0  0  0  0  0  0  0  0  0  0  0  0
   13.9569    5.6228   14.9849 H   0  0  0  0  0  0  0  0  0  0  0  0
   17.4233    6.7150   14.4135 H   0  0  0  0  0  0  0  0  0  0  0  0
   17.8544    6.1518   17.1015 H   0  0  0  0  0  0  0  0  0  0  0  0
   16.8168    4.6521   16.2035 H   0  0  0  0  0  0  0  0  0  0  0  0
   18.7911    8.0603   15.5539 H   0  0  0  0  0  0  0  0  0  0  0  0
   17.5661    9.0731   16.3560 H   0  0  0  0  0  0  0  0  0  0  0  0
  1  2  1  0
  1  6  1  0
  9  1  1  0
  2  3  1  0
  2  7  2  0
  3  4  1  0
  4  5  1  0
  4  8  2  0
  5  6  2  0
  9 10  1  0
  9 14  1  0
 10 11  1  0
 10 12  1  0
 12 13  1  0
 12 15  1  0
 13 14  1  0
 13 16  1  0
 16 17  1  0
 17 18  1  0
 18 19  2  0
 18 20  1  1
 18 21  1  0
 21 22  1  0
 22 23  2  0
 22 24  1  6
 22 25  1  0
  3 26  1  0
  5 27  1  0
  6 28  1  0
  9 29  1  1
 10 30  1  6
 11 31  1  0
 12 32  1  6
 13 33  1  1
 15 34  1  0
 16 35  1  0
 16 36  1  0
M  CHG  3  20  -1  24  -1  25  -1
M  END
>  <filename_input>  (17) 
7ES1_UDP_docked.sdf

>  <pdb_id>  (17) 
7ES1_UDP

>  <pose_rank>  (17) 
16

>  <num_atoms_heavy>  (17) 
25

>  <num_torsions>  (17) 
6

>  <pose>  (17) 
[14.93327881270854, 7.07955299761209, 16.563350943644302, -2.00565563114271, -0.18502681102481816, -3.3313428543102455, 0.7777898445031916, -1.3354313791664698, -0.16948238217634395, 0.6538630508705853, 2.077952076982035, -1.5036189565213354]

>  <energy>  (17) 
-419.5609980073761

>  <inter_energy>  (17) 
-428.0818202740883

>  <intra_energy>  (17) 
3.3380398873965036

>  <rmsd>  (17) 
8.27345

>  <sdf_rank>  (17) 
0

$$$$

     RDKit          3D

 36 37  0  0  0  0  0  0  0  0999 V2000
   11.0397    3.9172   24.3857 N   0  0  0  0  0  0  0  0  0  0  0  0
   11.5035    4.9743   23.5827 C   0  0  0  0  0  0  0  0  0  0  0  0
   12.6259    4.8221   22.8735 N   0  0  0  0  0  0  0  0  0  0  0  0
   13.3498    3.7012   22.9260 C   0  0  0  0  0  0  0  0  0  0  0  0
   12.9234    2.6416   23.7251 C   0  0  0  0  0  0  0  0  0  0  0  0
   11.7432    2.7759   24.4491 C   0  0  0  0  0  0  0  0  0  0  0  0
   10.8516    6.0387   23.5062 O   0  0  0  0  0  0  0  0  0  0  0  0
   14.4183    3.6098   22.2713 O   0  0  0  0  0  0  0  0  0  0  0  0
    9.8276    4.1059   25.1715 C   0  0  1  0  0  0  0  0  0  0  0  0
    8.5916    3.3913   24.6668 C   0  0  2  0  0  0  0  0  0  0  0  0
    7.8609    4.2209   23.7710 O   0  0  0  0  0  0  0  0  0  0  0  0
    7.8399    3.1019   25.9606 C   0  0  1  0  0  0  0  0  0  0  0  0
    8.9318    2.9400   26.9925 C   0  0  2  0  0  0  0  0  0  0  0  0
   10.0982    3.5652   26.4638 O   0  0  0  0  0  0  0  0  0  0  0  0
    6.9601    4.1712   26.3520 O   0  0  0  0  0  0  0  0  0  0  0  0
    9.2516    1.4770   27.2660 C   0  0  0  0  0  0  0  0  0  0  0  0
    8.0215    0.7737   27.2865 O   0  0  0  0  0  0  0  0  0  0  0  0
    6.6294    1.4971   27.5955 P   0  0  2  0  0  0  0  0  0  0  0  0
    6.9762    2.8481   28.1943 O   0  0  0  0  0  0  0  0  0  0  0  0
    5.8164    0.5528   28.4309 O   0  0  0  0  0  0  0  0  0  0  0  0
    5.9358    1.8065   26.1770 O   0  0  0  0  0  0  0  0  0  0  0  0
    4.3794    1.7149   25.6800 P   0  0  2  0  0  0  0  0  0  0  0  0
    4.4131    1.4927   24.2013 O   0  0  0  0  0  0  0  0  0  0  0  0
    3.8481    3.0307   26.1361 O   0  0  0  0  0  0  0  0  0  0  0  0
    3.7481    0.5647   26.4688 O   0  0  0  0  0  0  0  0  0  0  0  0
   12.9422    5.5929   22.2678 H   0  0  0  0  0  0  0  0  0  0  0  0
   13.5112    1.7136   23.7824 H   0  0  0  0  0  0  0  0  0  0  0  0
   11.3856    1.9449   25.0748 H   0  0  0  0  0  0  0  0  0  0  0  0
    9.6022    5.1820   25.1353 H   0  0  0  0  0  0  0  0  0  0  0  0
    8.7923    2.4799   24.0846 H   0  0  0  0  0  0  0  0  0  0  0  0
    7.3031    4.8543   24.2883 H   0  0  0  0  0  0  0  0  0  0  0  0
    7.1937    2.2189   25.8472 H   0  0  0  0  0  0  0  0  0  0  0  0
    8.6002    3.3899   27.9399 H   0  0  0  0  0  0  0  0  0  0  0  0
    6.9197    4.2203   27.3400 H   0  0  0  0  0  0  0  0  0  0  0  0
    9.8999    1.0785   26.4717 H   0  0  0  0  0  0  0  0  0  0  0  0
    9.7797    1.3664   28.2246 H   0  0  0  0  0  0  0  0  0  0  0  0
  1  2  1  0
  1  6  1  0
  9  1  1  0
  2  3  1  0
  2  7  2  0
  3  4  1  0
  4  5  1  0
  4  8  2  0
  5  6  2  0
  9 10  1  0
  9 14  1  0
 10 11  1  0
 10 12  1  0
 12 13  1  0
 12 15  1  0
 13 14  1  0
 13 16  1  0
 16 17  1  0
 17 18  1  0
 18 19  2  0
 18 20  1  1
 18 21  1  0
 21 22  1  0
 22 23  2  0
 22 24  1  6
 22 25  1  0
  3 26  1  0
  5 27  1  0
  6 28  1  0
  9 29  1  1
 10 30  1  6
 11 31  1  0
 12 32  1  6
 13 33  1  1
 15 34  1  0
 16 35  1  0
 16 36  1  0
M  CHG  3  20  -1  24  -1  25  -1
M  END
>  <filename_input>  (18) 
7ES1_UDP_docked.sdf

>  <pdb_id>  (18) 
7ES1_UDP

>  <pose_rank>  (18) 
17

>  <num_atoms_heavy>  (18) 
25

>  <num_torsions>  (18) 
6

>  <pose>  (18) 
[9.82761655071822, 4.105927738174587, 25.171538026994686, 2.149563628438583, -4.961673841184812, -3.3847632770568117, 0.10817082396067812, 19.530573895689137, 15.835928662953672, 32.0424224563527, 7.917675672139671, 5.012714662133199]

>  <energy>  (18) 
171.40908995950693

>  <inter_energy>  (18) 
-126.12352865667471

>  <intra_energy>  (18) 
297.55975059250113

>  <rmsd>  (18) 
8.98098

>  <sdf_rank>  (18) 
0

$$$$

     RDKit          3D

 36 37  0  0  0  0  0  0  0  0999 V2000
   19.1609    7.9694   16.4570 N   0  0  0  0  0  0  0  0  0  0  0  0
   19.2556    7.7306   17.8394 C   0  0  0  0  0  0  0  0  0  0  0  0
   20.3716    8.0666   18.4932 N   0  0  0  0  0  0  0  0  0  0  0  0
   21.4257    8.5967   17.8679 C   0  0  0  0  0  0  0  0  0  0  0  0
   21.3672    8.8310   16.4950 C   0  0  0  0  0  0  0  0  0  0  0  0
   20.2024    8.5102   15.8056 C   0  0  0  0  0  0  0  0  0  0  0  0
   18.2884    7.2376   18.4601 O   0  0  0  0  0  0  0  0  0  0  0  0
   22.4703    8.8667   18.5118 O   0  0  0  0  0  0  0  0  0  0  0  0
   17.9474    7.5762   15.7533 C   0  0  1  0  0  0  0  0  0  0  0  0
   17.4921    6.1473   15.9630 C   0  0  2  0  0  0  0  0  0  0  0  0
   18.0608    5.2885   14.9815 O   0  0  0  0  0  0  0  0  0  0  0  0
   15.9782    6.2737   15.8411 C   0  0  1  0  0  0  0  0  0  0  0  0
   15.6838    7.6689   16.3412 C   0  0  2  0  0  0  0  0  0  0  0  0
   16.9022    8.4039   16.2613 O   0  0  0  0  0  0  0  0  0  0  0  0
   15.5088    6.1367   14.4878 O   0  0  0  0  0  0  0  0  0  0  0  0
   15.2129    7.6731   17.7888 C   0  0  0  0  0  0  0  0  0  0  0  0
   14.2198    8.6772   17.9057 O   0  0  0  0  0  0  0  0  0  0  0  0
   12.6591    8.3532   17.7796 P   0  0  2  0  0  0  0  0  0  0  0  0
   12.5323    6.8420   17.8422 O   0  0  0  0  0  0  0  0  0  0  0  0
   12.1628    9.0433   16.5435 O   0  0  0  0  0  0  0  0  0  0  0  0
   11.9540    8.9122   19.1135 O   0  0  0  0  0  0  0  0  0  0  0  0
   10.9512    8.2054   20.1963 P   0  0  2  0  0  0  0  0  0  0  0  0
   11.8062    7.3590   21.0848 O   0  0  0  0  0  0  0  0  0  0  0  0
   10.0141    7.4762   19.2952 O   0  0  0  0  0  0  0  0  0  0  0  0
   10.2366    9.3477   20.9230 O   0  0  0  0  0  0  0  0  0  0  0  0
   20.4202    7.9120   19.5103 H   0  0  0  0  0  0  0  0  0  0  0  0
   22.2289    9.2629   15.9650 H   0  0  0  0  0  0  0  0  0  0  0  0
   20.1347    8.7002   14.7242 H   0  0  0  0  0  0  0  0  0  0  0  0
   18.1672    7.6791   14.6804 H   0  0  0  0  0  0  0  0  0  0  0  0
   17.8008    5.7016   16.9201 H   0  0  0  0  0  0  0  0  0  0  0  0
   18.5482    4.5524   15.4296 H   0  0  0  0  0  0  0  0  0  0  0  0
   15.4733    5.4772   16.4072 H   0  0  0  0  0  0  0  0  0  0  0  0
   14.8813    8.1076   15.7300 H   0  0  0  0  0  0  0  0  0  0  0  0
   14.5586    5.8592   14.4946 H   0  0  0  0  0  0  0  0  0  0  0  0
   14.7890    6.6921   18.0496 H   0  0  0  0  0  0  0  0  0  0  0  0
   16.0522    7.8740   18.4709 H   0  0  0  0  0  0  0  0  0  0  0  0
  1  2  1  0
  1  6  1  0
  9  1  1  0
  2  3  1  0
  2  7  2  0
  3  4  1  0
  4  5  1  0
  4  8  2  0
  5  6  2  0
  9 10  1  0
  9 14  1  0
 10 11  1  0
 10 12  1  0
 12 13  1  0
 12 15  1  0
 13 14  1  0
 13 16  1  0
 16 17  1  0
 17 18  1  0
 18 19  2  0
 18 20  1  6
 18 21  1  0
 21 22  1  0
 22 23  2  0
 22 24  1  6
 22 25  1  0
  3 26  1  0
  5 27  1  0
  6 28  1  0
  9 29  1  6
 10 30  1  1
 11 31  1  0
 12 32  1  1
 13 33  1  6
 15 34  1  0
 16 35  1  0
 16 36  1  0
M  CHG  3  20  -1  24  -1  25  -1
M  END
>  <filename_input>  (19) 
7ES1_UDP_docked.sdf

>  <pdb_id>  (19) 
7ES1_UDP

>  <pose_rank>  (19) 
18

>  <num_atoms_heavy>  (19) 
25

>  <num_torsions>  (19) 
6

>  <pose>  (19) 
[17.947358290488687, 7.576247428908489, 15.753316525849613, -1.2397998120889078, -1.1073367383094739, 0.4289966013422801, -2.6474432272638735, -1.1145378258039547, -7.236035449282041, -5.179521733188191, 3.232495016907863, 2.7828827743813025]

>  <energy>  (19) 
-388.21454295685805

>  <inter_energy>  (19) 
-421.3047255524917

>  <intra_energy>  (19) 
38.6707515644384

>  <rmsd>  (19) 
6.28872

>  <sdf_rank>  (19) 
0

$$$$

     RDKit          3D

 36 37  0  0  0  0  0  0  0  0999 V2000
   18.8158   -0.4634   15.1877 N   0  0  0  0  0  0  0  0  0  0  0  0
   18.0682   -1.2591   16.0738 C   0  0  0  0  0  0  0  0  0  0  0  0
   16.9521   -1.8559   15.6448 N   0  0  0  0  0  0  0  0  0  0  0  0
   16.4974   -1.6952   14.3996 C   0  0  0  0  0  0  0  0  0  0  0  0
   17.2089   -0.8998   13.5028 C   0  0  0  0  0  0  0  0  0  0  0  0
   18.3863   -0.2930   13.9276 C   0  0  0  0  0  0  0  0  0  0  0  0
   18.4632   -1.4350   17.2472 O   0  0  0  0  0  0  0  0  0  0  0  0
   15.4248   -2.2450   14.0444 O   0  0  0  0  0  0  0  0  0  0  0  0
   20.0174    0.2000   15.6759 C   0  0  1  0  0  0  0  0  0  0  0  0
   21.0570    0.5441   14.6299 C   0  0  2  0  0  0  0  0  0  0  0  0
   21.9884   -0.5205   14.4764 O   0  0  0  0  0  0  0  0  0  0  0  0
   21.6838    1.8078   15.2067 C   0  0  1  0  0  0  0  0  0  0  0  0
   20.5595    2.4564   15.9803 C   0  0  2  0  0  0  0  0  0  0  0  0
   19.5920    1.4416   16.2353 O   0  0  0  0  0  0  0  0  0  0  0  0
   22.7853    1.5364   16.0919 O   0  0  0  0  0  0  0  0  0  0  0  0
   19.8895    3.5734   15.1924 C   0  0  0  0  0  0  0  0  0  0  0  0
   19.0794    4.3011   16.0993 O   0  0  0  0  0  0  0  0  0  0  0  0
   18.7812    5.8612   15.9152 P   0  0  2  0  0  0  0  0  0  0  0  0
   19.4842    6.2803   14.6370 O   0  0  0  0  0  0  0  0  0  0  0  0
   19.1870    6.5420   17.1890 O   0  0  0  0  0  0  0  0  0  0  0  0
   17.2058    6.0069   15.6223 O   0  0  0  0  0  0  0  0  0  0  0  0
   16.1759    7.2670   15.7930 P   0  0  2  0  0  0  0  0  0  0  0  0
   15.2275    6.9010   16.8901 O   0  0  0  0  0  0  0  0  0  0  0  0
   15.5947    7.3582   14.4235 O   0  0  0  0  0  0  0  0  0  0  0  0
   17.0456    8.4882   16.1027 O   0  0  0  0  0  0  0  0  0  0  0  0
   16.4266   -2.4582   16.2944 H   0  0  0  0  0  0  0  0  0  0  0  0
   16.8448   -0.7541   12.4750 H   0  0  0  0  0  0  0  0  0  0  0  0
   18.9668    0.3277   13.2292 H   0  0  0  0  0  0  0  0  0  0  0  0
   20.4966   -0.5047   16.3714 H   0  0  0  0  0  0  0  0  0  0  0  0
   20.6571    0.6982   13.6168 H   0  0  0  0  0  0  0  0  0  0  0  0
   22.2707   -0.8432   15.3687 H   0  0  0  0  0  0  0  0  0  0  0  0
   22.1006    2.4369   14.4065 H   0  0  0  0  0  0  0  0  0  0  0  0
   20.9659    2.8982   16.9021 H   0  0  0  0  0  0  0  0  0  0  0  0
   22.4804    1.6115   17.0308 H   0  0  0  0  0  0  0  0  0  0  0  0
   20.6516    4.2346   14.7543 H   0  0  0  0  0  0  0  0  0  0  0  0
   19.2830    3.1619   14.3721 H   0  0  0  0  0  0  0  0  0  0  0  0
  1  2  1  0
  1  6  1  0
  9  1  1  0
  2  3  1  0
  2  7  2  0
  3  4  1  0
  4  5  1  0
  4  8  2  0
  5  6  2  0
  9 10  1  0
  9 14  1  0
 10 11  1  0
 10 12  1  0
 12 13  1  0
 12 15  1  0
 13 14  1  0
 13 16  1  0
 16 17  1  0
 17 18  1  0
 18 19  2  0
 18 20  1  1
 18 21  1  0
 21 22  1  0
 22 23  2  0
 22 24  1  6
 22 25  1  0
  3 26  1  0
  5 27  1  0
  6 28  1  0
  9 29  1  1
 10 30  1  6
 11 31  1  0
 12 32  1  6
 13 33  1  1
 15 34  1  0
 16 35  1  0
 16 36  1  0
M  CHG  3  20  -1  24  -1  25  -1
M  END
>  <filename_input>  (20) 
7ES1_UDP_docked.sdf

>  <pdb_id>  (20) 
7ES1_UDP

>  <pose_rank>  (20) 
19

>  <num_atoms_heavy>  (20) 
25

>  <num_torsions>  (20) 
6

>  <pose>  (20) 
[20.01744077806496, 0.20002824928810614, 15.675888144685265, -0.17431860136998678, -1.2238621767858304, -2.7144538406464114, 0.9693561669448122, 11.034005317887377, 0.009686629298046322, 7.198615308550801, 1.9459458052403957, -0.5458873765726382]

>  <energy>  (20) 
-317.40024687097286

>  <inter_energy>  (20) 
-280.3811127622786

>  <intra_energy>  (20) 
3.5282672546094496

>  <rmsd>  (20) 
11.2054

>  <sdf_rank>  (20) 
0

$$$$

     RDKit          3D

 36 37  0  0  0  0  0  0  0  0999 V2000
    5.6567   13.4628   21.6781 N   0  0  0  0  0  0  0  0  0  0  0  0
    4.6819   14.2327   22.3369 C   0  0  0  0  0  0  0  0  0  0  0  0
    4.5673   15.5343   22.0566 N   0  0  0  0  0  0  0  0  0  0  0  0
    5.3766   16.1450   21.1876 C   0  0  0  0  0  0  0  0  0  0  0  0
    6.3627   15.4111   20.5303 C   0  0  0  0  0  0  0  0  0  0  0  0
    6.4770   14.0498   20.7927 C   0  0  0  0  0  0  0  0  0  0  0  0
    3.9040   13.6958   23.1557 O   0  0  0  0  0  0  0  0  0  0  0  0
    5.2600   17.3783   20.9772 O   0  0  0  0  0  0  0  0  0  0  0  0
    5.7856   12.0504   22.0111 C   0  0  1  0  0  0  0  0  0  0  0  0
    5.3831   11.0734   20.9264 C   0  0  2  0  0  0  0  0  0  0  0  0
    4.0057   10.7349   21.0394 O   0  0  0  0  0  0  0  0  0  0  0  0
    6.3118    9.8957   21.1972 C   0  0  1  0  0  0  0  0  0  0  0  0
    7.5514   10.5313   21.7824 C   0  0  2  0  0  0  0  0  0  0  0  0
    7.1719   11.8203   22.2572 O   0  0  0  0  0  0  0  0  0  0  0  0
    5.7647    8.9513   22.1349 O   0  0  0  0  0  0  0  0  0  0  0  0
    8.6523   10.7051   20.7454 C   0  0  0  0  0  0  0  0  0  0  0  0
    8.7966    9.4661   20.0728 O   0  0  0  0  0  0  0  0  0  0  0  0
   10.1746    8.6551   20.0633 P   0  0  2  0  0  0  0  0  0  0  0  0
    9.8028    7.1865   19.9704 O   0  0  0  0  0  0  0  0  0  0  0  0
   10.9582    9.1009   21.2625 O   0  0  0  0  0  0  0  0  0  0  0  0
   10.9197    9.0113   18.6824 O   0  0  0  0  0  0  0  0  0  0  0  0
   12.4448    8.7289   18.1607 P   0  0  2  0  0  0  0  0  0  0  0  0
   12.9818   10.0376   17.6750 O   0  0  0  0  0  0  0  0  0  0  0  0
   12.2107    7.6867   17.1212 O   0  0  0  0  0  0  0  0  0  0  0  0
   13.2033    8.1497   19.3577 O   0  0  0  0  0  0  0  0  0  0  0  0
    3.8323   16.0832   22.5251 H   0  0  0  0  0  0  0  0  0  0  0  0
    7.0399   15.9008   19.8151 H   0  0  0  0  0  0  0  0  0  0  0  0
    7.2414   13.4531   20.2734 H   0  0  0  0  0  0  0  0  0  0  0  0
    5.1079   11.8714   22.8589 H   0  0  0  0  0  0  0  0  0  0  0  0
    5.4810   11.4584   19.9006 H   0  0  0  0  0  0  0  0  0  0  0  0
    3.7583   10.6741   21.9960 H   0  0  0  0  0  0  0  0  0  0  0  0
    6.4926    9.3216   20.2765 H   0  0  0  0  0  0  0  0  0  0  0  0
    7.9454    9.8833   22.5791 H   0  0  0  0  0  0  0  0  0  0  0  0
    5.9441    9.2610   23.0579 H   0  0  0  0  0  0  0  0  0  0  0  0
    8.3740   11.4921   20.0291 H   0  0  0  0  0  0  0  0  0  0  0  0
    9.5969   10.9999   21.2258 H   0  0  0  0  0  0  0  0  0  0  0  0
  1  2  1  0
  1  6  1  0
  9  1  1  0
  2  3  1  0
  2  7  2  0
  3  4  1  0
  4  5  1  0
  4  8  2  0
  5  6  2  0
  9 10  1  0
  9 14  1  0
 10 11  1  0
 10 12  1  0
 12 13  1  0
 12 15  1  0
 13 14  1  0
 13 16  1  0
 16 17  1  0
 17 18  1  0
 18 19  2  0
 18 20  1  1
 18 21  1  0
 21 22  1  0
 22 23  2  0
 22 24  1  6
 22 25  1  0
  3 26  1  0
  5 27  1  0
  6 28  1  0
  9 29  1  1
 10 30  1  6
 11 31  1  0
 12 32  1  6
 13 33  1  1
 15 34  1  0
 16 35  1  0
 16 36  1  0
M  CHG  3  20  -1  24  -1  25  -1
M  END
>  <filename_input>  (21) 
7ES1_UDP_docked.sdf

>  <pdb_id>  (21) 
7ES1_UDP

>  <pose_rank>  (21) 
20

>  <num_atoms_heavy>  (21) 
25

>  <num_torsions>  (21) 
6

>  <pose>  (21) 
[5.7856119227537, 12.050367573555127, 22.01110852338043, 1.0527056481107364, 0.48055867944315067, 1.124192900572196, 0.2037675746714986, 0.5258444448008869, -10.99541116895223, 3.5012432794795125, -10.444745448980019, -0.8296160822679287]

>  <energy>  (21) 
-255.58018179835113

>  <inter_energy>  (21) 
-242.18259277673397

>  <intra_energy>  (21) 
2.806144692634638

>  <rmsd>  (21) 
8.66107

>  <sdf_rank>  (21) 
0

$$$$

     RDKit          3D

 36 37  0  0  0  0  0  0  0  0999 V2000
    5.6212   13.4041   22.0268 N   0  0  0  0  0  0  0  0  0  0  0  0
    4.6154   14.1154   22.7048 C   0  0  0  0  0  0  0  0  0  0  0  0
    4.6399   15.4515   22.7096 N   0  0  0  0  0  0  0  0  0  0  0  0
    5.6149   16.1437   22.1152 C   0  0  0  0  0  0  0  0  0  0  0  0
    6.6341   15.4658   21.4481 C   0  0  0  0  0  0  0  0  0  0  0  0
    6.6078   14.0755   21.4126 C   0  0  0  0  0  0  0  0  0  0  0  0
    3.6845   13.5021   23.2715 O   0  0  0  0  0  0  0  0  0  0  0  0
    5.6216   17.3989   22.1720 O   0  0  0  0  0  0  0  0  0  0  0  0
    5.5948   11.9476   22.0499 C   0  0  1  0  0  0  0  0  0  0  0  0
    5.2432   11.2694   20.7424 C   0  0  2  0  0  0  0  0  0  0  0  0
    3.8391   11.0612   20.6448 O   0  0  0  0  0  0  0  0  0  0  0  0
    6.0348    9.9703   20.8340 C   0  0  1  0  0  0  0  0  0  0  0  0
    7.2454   10.3344   21.6616 C   0  0  2  0  0  0  0  0  0  0  0  0
    6.9195   11.5266   22.3711 O   0  0  0  0  0  0  0  0  0  0  0  0
    5.3070    8.9119   21.4825 O   0  0  0  0  0  0  0  0  0  0  0  0
    8.4702   10.6066   20.7995 C   0  0  0  0  0  0  0  0  0  0  0  0
    9.4243    9.6010   21.0939 O   0  0  0  0  0  0  0  0  0  0  0  0
   10.5141    9.1197   20.0275 P   0  0  2  0  0  0  0  0  0  0  0  0
   11.1727   10.3792   19.4948 O   0  0  0  0  0  0  0  0  0  0  0  0
    9.8089    8.2330   19.0441 O   0  0  0  0  0  0  0  0  0  0  0  0
   11.6563    8.3346   20.8448 O   0  0  0  0  0  0  0  0  0  0  0  0
   12.2339    6.8086   20.7207 P   0  0  2  0  0  0  0  0  0  0  0  0
   12.7776    6.6667   19.3346 O   0  0  0  0  0  0  0  0  0  0  0  0
   11.0167    6.0080   21.0356 O   0  0  0  0  0  0  0  0  0  0  0  0
   13.2875    6.6618   21.8215 O   0  0  0  0  0  0  0  0  0  0  0  0
    3.8836   15.9630   23.1865 H   0  0  0  0  0  0  0  0  0  0  0  0
    7.4466   16.0218   20.9575 H   0  0  0  0  0  0  0  0  0  0  0  0
    7.3974   13.5251   20.8799 H   0  0  0  0  0  0  0  0  0  0  0  0
    4.8105   11.6658   22.7679 H   0  0  0  0  0  0  0  0  0  0  0  0
    5.4911   11.8499   19.8415 H   0  0  0  0  0  0  0  0  0  0  0  0
    3.4501   11.0035   21.5534 H   0  0  0  0  0  0  0  0  0  0  0  0
    6.2743    9.5878   19.8308 H   0  0  0  0  0  0  0  0  0  0  0  0
    7.4896    9.4951   22.3294 H   0  0  0  0  0  0  0  0  0  0  0  0
    5.3784    9.0158   22.4645 H   0  0  0  0  0  0  0  0  0  0  0  0
    8.1974   10.5667   19.7346 H   0  0  0  0  0  0  0  0  0  0  0  0
    8.8799   11.6057   21.0092 H   0  0  0  0  0  0  0  0  0  0  0  0
  1  2  1  0
  1  6  1  0
  9  1  1  0
  2  3  1  0
  2  7  2  0
  3  4  1  0
  4  5  1  0
  4  8  2  0
  5  6  2  0
  9 10  1  0
  9 14  1  0
 10 11  1  0
 10 12  1  0
 12 13  1  0
 12 15  1  0
 13 14  1  0
 13 16  1  0
 16 17  1  0
 17 18  1  0
 18 19  2  0
 18 20  1  6
 18 21  1  0
 21 22  1  0
 22 23  2  0
 22 24  1  1
 22 25  1  0
  3 26  1  0
  5 27  1  0
  6 28  1  0
  9 29  1  1
 10 30  1  6
 11 31  1  0
 12 32  1  6
 13 33  1  1
 15 34  1  0
 16 35  1  0
 16 36  1  0
M  CHG  3  20  -1  24  -1  25  -1
M  END
>  <filename_input>  (22) 
7ES1_UDP_docked.sdf

>  <pdb_id>  (22) 
7ES1_UDP

>  <pose_rank>  (22) 
21

>  <num_atoms_heavy>  (22) 
25

>  <num_torsions>  (22) 
6

>  <pose>  (22) 
[5.594777972363912, 11.947608158592626, 22.049926842170912, 1.184771559227079, 0.22341158720415777, 1.160760324485395, 0.16593303969918533, -0.6217866785172599, 0.047263104262069235, 1.7659426426637086, 1.3121181816253018, 2.463798358964934]

>  <energy>  (22) 
-261.2774431497927

>  <inter_energy>  (22) 
-264.00467793388356

>  <intra_energy>  (22) 
0.9887465804525476

>  <rmsd>  (22) 
8.49138

>  <sdf_rank>  (22) 
0

$$$$

     RDKit          3D

 36 37  0  0  0  0  0  0  0  0999 V2000
   17.8901   15.8726   18.0780 N   0  0  0  0  0  0  0  0  0  0  0  0
   19.0805   15.8930   17.3298 C   0  0  0  0  0  0  0  0  0  0  0  0
   19.0836   16.4336   16.1077 N   0  0  0  0  0  0  0  0  0  0  0  0
   17.9765   16.9311   15.5510 C   0  0  0  0  0  0  0  0  0  0  0  0
   16.7779   16.9109   16.2624 C   0  0  0  0  0  0  0  0  0  0  0  0
   16.7649   16.3748   17.5459 C   0  0  0  0  0  0  0  0  0  0  0  0
   20.1382   15.4385   17.8182 O   0  0  0  0  0  0  0  0  0  0  0  0
   18.0126   17.3991   14.3854 O   0  0  0  0  0  0  0  0  0  0  0  0
   17.8963   15.2589   19.3992 C   0  0  1  0  0  0  0  0  0  0  0  0
   17.9449   16.2132   20.5740 C   0  0  2  0  0  0  0  0  0  0  0  0
   19.2909   16.4825   20.9486 O   0  0  0  0  0  0  0  0  0  0  0  0
   17.1701   15.4472   21.6395 C   0  0  1  0  0  0  0  0  0  0  0  0
   16.1737   14.6279   20.8526 C   0  0  2  0  0  0  0  0  0  0  0  0
   16.6656   14.5470   19.5176 O   0  0  0  0  0  0  0  0  0  0  0  0
   18.0031   14.5730   22.4222 O   0  0  0  0  0  0  0  0  0  0  0  0
   14.7961   15.2748   20.8199 C   0  0  0  0  0  0  0  0  0  0  0  0
   14.5734   15.7244   19.4946 O   0  0  0  0  0  0  0  0  0  0  0  0
   13.2419   16.5006   19.0687 P   0  0  2  0  0  0  0  0  0  0  0  0
   13.6279   17.4025   17.9105 O   0  0  0  0  0  0  0  0  0  0  0  0
   12.6943   17.1503   20.3051 O   0  0  0  0  0  0  0  0  0  0  0  0
   12.2337   15.4046   18.4594 O   0  0  0  0  0  0  0  0  0  0  0  0
   12.4980   13.9569   17.7439 P   0  0  2  0  0  0  0  0  0  0  0  0
   13.5744   14.1702   16.7276 O   0  0  0  0  0  0  0  0  0  0  0  0
   11.1423   13.6415   17.2108 O   0  0  0  0  0  0  0  0  0  0  0  0
   12.8843   12.9914   18.8674 O   0  0  0  0  0  0  0  0  0  0  0  0
   19.9669   16.4676   15.5790 H   0  0  0  0  0  0  0  0  0  0  0  0
   15.8565   17.3128   15.8156 H   0  0  0  0  0  0  0  0  0  0  0  0
   15.8304   16.3625   18.1261 H   0  0  0  0  0  0  0  0  0  0  0  0
   18.8125   14.6525   19.4522 H   0  0  0  0  0  0  0  0  0  0  0  0
   17.5177   17.2076   20.3773 H   0  0  0  0  0  0  0  0  0  0  0  0
   19.3621   16.4967   21.9360 H   0  0  0  0  0  0  0  0  0  0  0  0
   16.7126   16.1388   22.3622 H   0  0  0  0  0  0  0  0  0  0  0  0
   16.0657   13.6413   21.3268 H   0  0  0  0  0  0  0  0  0  0  0  0
   17.8439   14.7401   23.3850 H   0  0  0  0  0  0  0  0  0  0  0  0
   14.0281   14.5396   21.1022 H   0  0  0  0  0  0  0  0  0  0  0  0
   14.7426   16.1133   21.5299 H   0  0  0  0  0  0  0  0  0  0  0  0
  1  2  1  0
  1  6  1  0
  9  1  1  0
  2  3  1  0
  2  7  2  0
  3  4  1  0
  4  5  1  0
  4  8  2  0
  5  6  2  0
  9 10  1  0
  9 14  1  0
 10 11  1  0
 10 12  1  0
 12 13  1  0
 12 15  1  0
 13 14  1  0
 13 16  1  0
 16 17  1  0
 17 18  1  0
 18 19  2  0
 18 20  1  1
 18 21  1  0
 21 22  1  0
 22 23  2  0
 22 24  1  6
 22 25  1  0
  3 26  1  0
  5 27  1  0
  6 28  1  0
  9 29  1  6
 10 30  1  6
 11 31  1  0
 12 32  1  1
 13 33  1  1
 15 34  1  0
 16 35  1  0
 16 36  1  0
M  CHG  3  20  -1  24  -1  25  -1
M  END
>  <filename_input>  (23) 
7ES1_UDP_docked.sdf

>  <pdb_id>  (23) 
7ES1_UDP

>  <pose_rank>  (23) 
22

>  <num_atoms_heavy>  (23) 
25

>  <num_torsions>  (23) 
6

>  <pose>  (23) 
[17.89629752861301, 15.25890084304189, 19.399247372893946, 1.3325842509712125, 0.8313206923828682, -2.0201236061506163, 0.03309686478145714, 3.305640618395712, 0.5652362317574193, -2.7515668995948777, -1.264545366530798, 0.5896317937120352]

>  <energy>  (23) 
-178.98893635821287

>  <inter_energy>  (23) 
-177.29070917439302

>  <intra_energy>  (23) 
16.253192200280147

>  <rmsd>  (23) 
10.217

>  <sdf_rank>  (23) 
0

$$$$

     RDKit          3D

 36 37  0  0  0  0  0  0  0  0999 V2000
   20.8133    0.9529   15.5844 N   0  0  0  0  0  0  0  0  0  0  0  0
   20.1384    2.1841   15.6599 C   0  0  0  0  0  0  0  0  0  0  0  0
   20.8224    3.3227   15.5129 N   0  0  0  0  0  0  0  0  0  0  0  0
   22.1448    3.3351   15.3280 C   0  0  0  0  0  0  0  0  0  0  0  0
   22.8436    2.1306   15.2640 C   0  0  0  0  0  0  0  0  0  0  0  0
   22.1411    0.9365   15.3894 C   0  0  0  0  0  0  0  0  0  0  0  0
   18.8998    2.2130   15.8300 O   0  0  0  0  0  0  0  0  0  0  0  0
   22.7573    4.4277   15.2292 O   0  0  0  0  0  0  0  0  0  0  0  0
   20.0585   -0.2793   15.7700 C   0  0  1  0  0  0  0  0  0  0  0  0
   18.8547   -0.1888   16.6843 C   0  0  2  0  0  0  0  0  0  0  0  0
   19.2192   -0.4841   18.0275 O   0  0  0  0  0  0  0  0  0  0  0  0
   17.9155   -1.2250   16.0786 C   0  0  1  0  0  0  0  0  0  0  0  0
   18.2559   -1.2145   14.6064 C   0  0  2  0  0  0  0  0  0  0  0  0
   19.5541   -0.6392   14.4849 O   0  0  0  0  0  0  0  0  0  0  0  0
   18.1163   -2.5465   16.6113 O   0  0  0  0  0  0  0  0  0  0  0  0
   17.2788   -0.3738   13.7966 C   0  0  0  0  0  0  0  0  0  0  0  0
   17.7224   -0.3921   12.4508 O   0  0  0  0  0  0  0  0  0  0  0  0
   16.8784   -1.0851   11.2829 P   0  0  2  0  0  0  0  0  0  0  0  0
   15.9965   -2.1224   11.9539 O   0  0  0  0  0  0  0  0  0  0  0  0
   17.8589   -1.5650   10.2539 O   0  0  0  0  0  0  0  0  0  0  0  0
   15.8802    0.0329   10.6978 O   0  0  0  0  0  0  0  0  0  0  0  0
   14.2565    0.0477   10.4946 P   0  0  2  0  0  0  0  0  0  0  0  0
   13.8926    1.4265   10.0437 O   0  0  0  0  0  0  0  0  0  0  0  0
   13.7875   -0.3458   11.8536 O   0  0  0  0  0  0  0  0  0  0  0  0
   13.9463   -1.0457    9.4690 O   0  0  0  0  0  0  0  0  0  0  0  0
   20.3141    4.2181   15.5433 H   0  0  0  0  0  0  0  0  0  0  0  0
   23.9336    2.1244   15.1166 H   0  0  0  0  0  0  0  0  0  0  0  0
   22.6751   -0.0233   15.3288 H   0  0  0  0  0  0  0  0  0  0  0  0
   20.7504   -0.9964   16.2359 H   0  0  0  0  0  0  0  0  0  0  0  0
   18.3964    0.8094   16.7444 H   0  0  0  0  0  0  0  0  0  0  0  0
   18.6191    0.0021   18.6468 H   0  0  0  0  0  0  0  0  0  0  0  0
   16.8668   -0.9774   16.2994 H   0  0  0  0  0  0  0  0  0  0  0  0
   18.2085   -2.2431   14.2195 H   0  0  0  0  0  0  0  0  0  0  0  0
   18.1104   -2.5079   17.6005 H   0  0  0  0  0  0  0  0  0  0  0  0
   16.2676   -0.8011   13.8655 H   0  0  0  0  0  0  0  0  0  0  0  0
   17.2405    0.6564   14.1802 H   0  0  0  0  0  0  0  0  0  0  0  0
  1  2  1  0
  1  6  1  0
  9  1  1  0
  2  3  1  0
  2  7  2  0
  3  4  1  0
  4  5  1  0
  4  8  2  0
  5  6  2  0
  9 10  1  0
  9 14  1  0
 10 11  1  0
 10 12  1  0
 12 13  1  0
 12 15  1  0
 13 14  1  0
 13 16  1  0
 16 17  1  0
 17 18  1  0
 18 19  2  0
 18 20  1  6
 18 21  1  0
 21 22  1  0
 22 23  2  0
 22 24  1  1
 22 25  1  0
  3 26  1  0
  5 27  1  0
  6 28  1  0
  9 29  1  1
 10 30  1  1
 11 31  1  0
 12 32  1  6
 13 33  1  6
 15 34  1  0
 16 35  1  0
 16 36  1  0
M  CHG  3  20  -1  24  -1  25  -1
M  END
>  <filename_input>  (24) 
7ES1_UDP_docked.sdf

>  <pdb_id>  (24) 
7ES1_UDP

>  <pose_rank>  (24) 
23

>  <num_atoms_heavy>  (24) 
25

>  <num_torsions>  (24) 
6

>  <pose>  (24) 
[20.05848418106832, -0.2792960347020452, 15.77001234066178, -3.2007338957204623, -1.4494879264496678, 1.0491723003957925, -2.2758677720376927, -1.8007211611983205, -0.6166799326859457, 0.4729610707638811, -3.010309443633382, -1.8294399994176738]

>  <energy>  (24) 
-176.09452038831967

>  <inter_energy>  (24) 
-199.40396086958717

>  <intra_energy>  (24) 
43.597190265041164

>  <rmsd>  (24) 
12.0033

>  <sdf_rank>  (24) 
0

$$$$

     RDKit          3D

 36 37  0  0  0  0  0  0  0  0999 V2000
    8.8936   -1.2756   12.7202 N   0  0  0  0  0  0  0  0  0  0  0  0
    9.4279   -2.2664   13.5629 C   0  0  0  0  0  0  0  0  0  0  0  0
   10.7249   -2.5768   13.4782 N   0  0  0  0  0  0  0  0  0  0  0  0
   11.5348   -1.9969   12.5889 C   0  0  0  0  0  0  0  0  0  0  0  0
   11.0305   -1.0220   11.7296 C   0  0  0  0  0  0  0  0  0  0  0  0
    9.6880   -0.6700   11.8237 C   0  0  0  0  0  0  0  0  0  0  0  0
    8.7011   -2.8303   14.4100 O   0  0  0  0  0  0  0  0  0  0  0  0
   12.7410   -2.3413   12.5164 O   0  0  0  0  0  0  0  0  0  0  0  0
    7.4731   -0.9645   12.8074 C   0  0  1  0  0  0  0  0  0  0  0  0
    7.1118    0.2688   13.6084 C   0  0  2  0  0  0  0  0  0  0  0  0
    6.8843   -0.0656   14.9726 O   0  0  0  0  0  0  0  0  0  0  0  0
    5.8560    0.7557   12.8953 C   0  0  1  0  0  0  0  0  0  0  0  0
    6.0554    0.3226   11.4615 C   0  0  2  0  0  0  0  0  0  0  0  0
    7.0339   -0.7134   11.4734 O   0  0  0  0  0  0  0  0  0  0  0  0
    4.6498    0.1673   13.4142 O   0  0  0  0  0  0  0  0  0  0  0  0
    6.5660    1.4571   10.5842 C   0  0  0  0  0  0  0  0  0  0  0  0
    6.1106    2.6704   11.1575 O   0  0  0  0  0  0  0  0  0  0  0  0
    5.3790    3.8007   10.2949 P   0  0  2  0  0  0  0  0  0  0  0  0
    4.1642    3.1389    9.6703 O   0  0  0  0  0  0  0  0  0  0  0  0
    6.4059    4.3856    9.3708 O   0  0  0  0  0  0  0  0  0  0  0  0
    4.8059    4.8873   11.3340 O   0  0  0  0  0  0  0  0  0  0  0  0
    3.2890    5.4308   11.6192 P   0  0  2  0  0  0  0  0  0  0  0  0
    2.7396    4.6038   12.7378 O   0  0  0  0  0  0  0  0  0  0  0  0
    2.6532    5.2388   10.2848 O   0  0  0  0  0  0  0  0  0  0  0  0
    3.4260    6.9185   11.9530 O   0  0  0  0  0  0  0  0  0  0  0  0
   11.1117   -3.2848   14.1185 H   0  0  0  0  0  0  0  0  0  0  0  0
   11.6840   -0.5385   10.9886 H   0  0  0  0  0  0  0  0  0  0  0  0
    9.2765    0.1063   11.1619 H   0  0  0  0  0  0  0  0  0  0  0  0
    7.0025   -1.8171   13.3188 H   0  0  0  0  0  0  0  0  0  0  0  0
    7.8971    1.0380   13.6486 H   0  0  0  0  0  0  0  0  0  0  0  0
    7.3349    0.5968   15.5543 H   0  0  0  0  0  0  0  0  0  0  0  0
    5.7302    1.8409   13.0239 H   0  0  0  0  0  0  0  0  0  0  0  0
    5.0909   -0.0078   11.0486 H   0  0  0  0  0  0  0  0  0  0  0  0
    4.6757    0.1800   14.4038 H   0  0  0  0  0  0  0  0  0  0  0  0
    7.6655    1.4442   10.5541 H   0  0  0  0  0  0  0  0  0  0  0  0
    6.1956    1.3499    9.5540 H   0  0  0  0  0  0  0  0  0  0  0  0
  1  2  1  0
  1  6  1  0
  9  1  1  0
  2  3  1  0
  2  7  2  0
  3  4  1  0
  4  5  1  0
  4  8  2  0
  5  6  2  0
  9 10  1  0
  9 14  1  0
 10 11  1  0
 10 12  1  0
 12 13  1  0
 12 15  1  0
 13 14  1  0
 13 16  1  0
 16 17  1  0
 17 18  1  0
 18 19  2  0
 18 20  1  6
 18 21  1  0
 21 22  1  0
 22 23  2  0
 22 24  1  6
 22 25  1  0
  3 26  1  0
  5 27  1  0
  6 28  1  0
  9 29  1  1
 10 30  1  1
 11 31  1  0
 12 32  1  6
 13 33  1  6
 15 34  1  0
 16 35  1  0
 16 36  1  0
M  CHG  3  20  -1  24  -1  25  -1
M  END
>  <filename_input>  (25) 
7ES1_UDP_docked.sdf

>  <pdb_id>  (25) 
7ES1_UDP

>  <pose_rank>  (25) 
24

>  <num_atoms_heavy>  (25) 
25

>  <num_torsions>  (25) 
6

>  <pose>  (25) 
[7.473060387489726, -0.9644758632671786, 12.807406167571688, -3.040593697805555, 0.6340939252138399, 1.1439949358052652, 6.278817114273605, -17.949614814699885, -17.45369696707426, 20.74804081226032, 9.63284244912258, 3.057674157432447]

>  <energy>  (25) 
-108.74321261901711

>  <inter_energy>  (25) 
-115.42947334007881

>  <intra_energy>  (25) 
16.57759051448443

>  <rmsd>  (25) 
12.917

>  <sdf_rank>  (25) 
0

$$$$

     RDKit          3D

 36 37  0  0  0  0  0  0  0  0999 V2000
   13.5130    9.0020   17.4390 N   0  0  0  0  0  0  0  0  0  0  0  0
   13.7840    9.9940   16.4800 C   0  0  0  0  0  0  0  0  0  0  0  0
   14.8560    9.8750   15.6910 N   0  0  0  0  0  0  0  0  0  0  0  0
   15.7080    8.8530   15.8040 C   0  0  0  0  0  0  0  0  0  0  0  0
   15.4740    7.8620   16.7560 C   0  0  0  0  0  0  0  0  0  0  0  0
   14.3480    7.9590   17.5670 C   0  0  0  0  0  0  0  0  0  0  0  0
   13.0080   10.9650   16.3430 O   0  0  0  0  0  0  0  0  0  0  0  0
   16.7240    8.7950   15.0670 O   0  0  0  0  0  0  0  0  0  0  0  0
   12.3540    9.1570   18.3080 C   0  0  1  0  0  0  0  0  0  0  0  0
   11.1230    8.3650   17.9200 C   0  0  2  0  0  0  0  0  0  0  0  0
   10.2860    9.1260   17.0570 O   0  0  0  0  0  0  0  0  0  0  0  0
   10.4850    8.0830   19.2750 C   0  0  1  0  0  0  0  0  0  0  0  0
   11.6570    8.0110   20.2260 C   0  0  2  0  0  0  0  0  0  0  0  0
   12.7470    8.6750   19.5920 O   0  0  0  0  0  0  0  0  0  0  0  0
    9.5820    9.1200   19.6990 O   0  0  0  0  0  0  0  0  0  0  0  0
   12.0720    6.5760   20.5190 C   0  0  0  0  0  0  0  0  0  0  0  0
   11.1630    6.0620   21.4770 O   0  0  0  0  0  0  0  0  0  0  0  0
   10.7710    4.5130   21.5370 P   0  0  2  0  0  0  0  0  0  0  0  0
   10.3630    4.1230   20.1280 O   0  0  0  0  0  0  0  0  0  0  0  0
    9.7510    4.3570   22.6260 O   0  0  0  0  0  0  0  0  0  0  0  0
   12.1230    3.6980   21.8480 O   0  0  0  0  0  0  0  0  0  0  0  0
   13.3120    3.9350   22.9470 P   0  0  2  0  0  0  0  0  0  0  0  0
   14.2200    4.9790   22.3790 O   0  0  0  0  0  0  0  0  0  0  0  0
   13.8800    2.5620   23.0650 O   0  0  0  0  0  0  0  0  0  0  0  0
   12.6150    4.3540   24.2440 O   0  0  0  0  0  0  0  0  0  0  0  0
   15.0304   10.5935   14.9739 H   0  0  0  0  0  0  0  0  0  0  0  0
   16.1690    7.0163   16.8642 H   0  0  0  0  0  0  0  0  0  0  0  0
   14.1415    7.1792   18.3148 H   0  0  0  0  0  0  0  0  0  0  0  0
   12.0707   10.2186   18.2561 H   0  0  0  0  0  0  0  0  0  0  0  0
   11.3274    7.4453   17.3523 H   0  0  0  0  0  0  0  0  0  0  0  0
    9.6730    9.6833   17.5989 H   0  0  0  0  0  0  0  0  0  0  0  0
    9.8791    7.1657   19.2377 H   0  0  0  0  0  0  0  0  0  0  0  0
   11.3732    8.4760   21.1816 H   0  0  0  0  0  0  0  0  0  0  0  0
    9.5555    9.1504   20.6882 H   0  0  0  0  0  0  0  0  0  0  0  0
   12.0279    5.9758   19.5982 H   0  0  0  0  0  0  0  0  0  0  0  0
   13.1029    6.5389   20.9010 H   0  0  0  0  0  0  0  0  0  0  0  0
  1  2  1  0
  1  6  1  0
  9  1  1  0
  2  3  1  0
  2  7  2  0
  3  4  1  0
  4  5  1  0
  4  8  2  0
  5  6  2  0
  9 10  1  0
  9 14  1  0
 10 11  1  0
 10 12  1  0
 12 13  1  0
 12 15  1  0
 13 14  1  0
 13 16  1  0
 16 17  1  0
 17 18  1  0
 18 19  2  0
 18 20  1  1
 18 21  1  0
 21 22  1  0
 22 23  2  0
 22 24  1  1
 22 25  1  0
  3 26  1  0
  5 27  1  0
  6 28  1  0
  9 29  1  1
 10 30  1  6
 11 31  1  0
 12 32  1  6
 13 33  1  1
 15 34  1  0
 16 35  1  0
 16 36  1  0
M  CHG  3  20  -1  24  -1  25  -1
M  END
>  <filename_input>  (26) 
7ES1_UDP_docked.sdf

>  <pdb_id>  (26) 
7ES1_UDP

>  <pose_rank>  (26) 
25

>  <num_atoms_heavy>  (26) 
25

>  <num_torsions>  (26) 
6

>  <pose>  (26) 
[12.354, 9.157, 18.308, 1e-06, 1e-06, 1e-06, 0.0, 0.0, 0.0, 0.0, 0.0, 0.0]

>  <energy>  (26) 
-1106.4948383432377

>  <inter_energy>  (26) 
-1092.324251223645

>  <intra_energy>  (26) 
5.199122021016117

>  <rmsd>  (26) 
0.0

>  <sdf_rank>  (26) 
0

$$$$
