
     RDKit          3D

 69 73  0  0  0  0  0  0  0  0999 V2000
   -3.4407   10.9043    1.9582 C   0  0  0  0  0  0  0  0  0  0  0  0
   -3.2966    5.2271   15.8857 C   0  0  2  0  0  0  0  0  0  0  0  0
   -3.7146   12.7500    3.4933 C   0  0  0  0  0  0  0  0  0  0  0  0
   -3.2608   11.4426    3.2297 C   0  0  0  0  0  0  0  0  0  0  0  0
   -0.4124    7.3553    2.6508 C   0  0  2  0  0  0  0  0  0  0  0  0
   -3.5189    1.1668   17.5322 C   0  0  0  0  0  0  0  0  0  0  0  0
   -2.8606    6.6585   15.6711 C   0  0  1  0  0  0  0  0  0  0  0  0
   -1.8933    7.7302    2.4924 C   0  0  1  0  0  0  0  0  0  0  0  0
   -4.0366   11.6337    0.9494 C   0  0  0  0  0  0  0  0  0  0  0  0
   -3.6656    7.0595   14.4140 C   0  0  1  0  0  0  0  0  0  0  0  0
   -2.4940    7.1347    3.8080 C   0  0  1  0  0  0  0  0  0  0  0  0
   -2.3523    3.0896   16.8031 C   0  0  0  0  0  0  0  0  0  0  0  0
   -3.8111    5.7588   13.6542 C   0  0  1  0  0  0  0  0  0  0  0  0
   -1.3089    7.1685    4.7667 C   0  0  1  0  0  0  0  0  0  0  0  0
   -1.1758    2.5149   17.0803 C   0  0  0  0  0  0  0  0  0  0  0  0
   -2.9912    5.7827   12.3649 C   0  0  0  0  0  0  0  0  0  0  0  0
   -1.5092    6.1448    5.8871 C   0  0  0  0  0  0  0  0  0  0  0  0
   -1.1769    1.2535   17.5778 C   0  0  0  0  0  0  0  0  0  0  0  0
   -2.9927    9.6112    1.6899 C   0  0  0  0  0  0  0  0  0  0  0  0
   -4.4955   12.9234    1.1981 C   0  0  0  0  0  0  0  0  0  0  0  0
   -0.8174    4.5371   16.3016 C   0  0  0  0  0  0  0  0  0  0  0  0
   -4.3311   13.4722    2.4455 C   0  0  0  0  0  0  0  0  0  0  0  0
   -2.2903    0.5651   17.7949 N   0  0  0  0  0  0  0  0  0  0  0  0
   -3.5257    2.4409   17.0116 N   0  0  0  0  0  0  0  0  0  0  0  0
   -0.0306    0.6639   17.8453 N   0  0  0  0  0  0  0  0  0  0  0  0
   -0.2106    3.4347   16.7696 N   0  0  0  0  0  0  0  0  0  0  0  0
   -2.1396    4.3453   16.3738 N   0  0  0  0  0  0  0  0  0  0  0  0
   -1.5896    7.8183   10.6957 O   0  0  0  0  0  0  0  0  0  0  0  0
   -4.7209    6.1174    8.0682 O   0  0  0  0  0  0  0  0  0  0  0  0
   -0.0016    6.5960    1.5311 O   0  0  0  0  0  0  0  0  0  0  0  0
   -3.2895    7.3884   16.8076 O   0  0  0  0  0  0  0  0  0  0  0  0
   -3.9278    8.3134    9.7183 O   0  0  0  0  0  0  0  0  0  0  0  0
   -2.9059    4.3298    7.5611 O   0  0  0  0  0  0  0  0  0  0  0  0
   -1.9424    9.1491    2.4199 O   0  0  0  0  0  0  0  0  0  0  0  0
   -4.9735    7.4880   14.7540 O   0  0  0  0  0  0  0  0  0  0  0  0
   -2.5024    6.1807    9.1732 O   0  0  0  0  0  0  0  0  0  0  0  0
   -3.5330    7.9551    4.2453 O   0  0  0  0  0  0  0  0  0  0  0  0
   -3.2689    4.7143   14.5093 O   0  0  0  0  0  0  0  0  0  0  0  0
   -0.2871    6.6083    3.9523 O   0  0  0  0  0  0  0  0  0  0  0  0
   -3.6669    6.6361   11.4342 O   0  0  0  0  0  0  0  0  0  0  0  0
   -2.5298    6.6670    6.7691 O   0  0  0  0  0  0  0  0  0  0  0  0
   -3.5953    8.9186    0.8820 O   0  0  0  0  0  0  0  0  0  0  0  0
   -2.9069    7.3499   10.2326 P   0  0  1  0  0  0  0  0  0  0  0  0
   -3.2895    5.7672    7.8817 P   0  0  2  0  0  0  0  0  0  0  0  0
   -4.1905    5.2076   16.5265 H   0  0  0  0  0  0  0  0  0  0  0  0
   -3.5923   13.1983    4.4903 H   0  0  0  0  0  0  0  0  0  0  0  0
   -2.7703   10.8540    4.0189 H   0  0  0  0  0  0  0  0  0  0  0  0
    0.2463    8.2355    2.6852 H   0  0  0  0  0  0  0  0  0  0  0  0
   -4.4609    0.6365   17.7359 H   0  0  0  0  0  0  0  0  0  0  0  0
   -1.7809    6.8260   15.5442 H   0  0  0  0  0  0  0  0  0  0  0  0
   -2.4333    7.3608    1.6081 H   0  0  0  0  0  0  0  0  0  0  0  0
   -4.1490   11.1946   -0.0529 H   0  0  0  0  0  0  0  0  0  0  0  0
   -3.1695    7.8733   13.8649 H   0  0  0  0  0  0  0  0  0  0  0  0
   -2.9179    6.1249    3.7048 H   0  0  0  0  0  0  0  0  0  0  0  0
   -4.8674    5.5938   13.3955 H   0  0  0  0  0  0  0  0  0  0  0  0
   -1.1349    8.1653    5.1983 H   0  0  0  0  0  0  0  0  0  0  0  0
   -1.9837    6.1744   12.5689 H   0  0  0  0  0  0  0  0  0  0  0  0
   -2.8909    4.7675   11.9536 H   0  0  0  0  0  0  0  0  0  0  0  0
   -1.8334    5.1825    5.4642 H   0  0  0  0  0  0  0  0  0  0  0  0
   -0.5697    5.9775    6.4344 H   0  0  0  0  0  0  0  0  0  0  0  0
   -4.9869   13.4996    0.4002 H   0  0  0  0  0  0  0  0  0  0  0  0
   -0.3153    5.4403   15.9246 H   0  0  0  0  0  0  0  0  0  0  0  0
   -4.6866   14.4960    2.6341 H   0  0  0  0  0  0  0  0  0  0  0  0
   -0.0202   -0.2941   18.2234 H   0  0  0  0  0  0  0  0  0  0  0  0
    0.8557    1.1606   17.6763 H   0  0  0  0  0  0  0  0  0  0  0  0
    0.4460    5.7687    1.8396 H   0  0  0  0  0  0  0  0  0  0  0  0
   -3.0101    6.9130   17.6298 H   0  0  0  0  0  0  0  0  0  0  0  0
   -5.0653    7.5180   15.7392 H   0  0  0  0  0  0  0  0  0  0  0  0
   -3.5492    7.9678    5.2351 H   0  0  0  0  0  0  0  0  0  0  0  0
  1  4  1  0
  1  9  2  0
  1 19  1  0
  2  7  1  0
  2 27  1  0
  2 38  1  0
  3  4  2  0
  3 22  1  0
  5  8  1  0
  5 30  1  0
  5 39  1  0
  6 23  2  0
  6 24  1  0
  7 10  1  0
  7 31  1  0
  8 11  1  0
  8 34  1  0
  9 20  1  0
 10 13  1  0
 10 35  1  0
 11 14  1  0
 11 37  1  0
 12 15  1  0
 12 24  2  0
 12 27  1  0
 13 16  1  0
 13 38  1  0
 14 17  1  0
 14 39  1  0
 15 18  2  0
 15 26  1  0
 16 40  1  0
 17 41  1  0
 18 23  1  0
 18 25  1  0
 19 34  1  0
 19 42  2  0
 20 22  2  0
 21 26  2  0
 21 27  1  0
 28 43  2  0
 29 44  2  0
 43 32  1  6
 44 33  1  6
 36 43  1  0
 36 44  1  0
 40 43  1  0
 41 44  1  0
  2 45  1  1
  3 46  1  0
  4 47  1  0
  5 48  1  1
  6 49  1  0
  7 50  1  6
  8 51  1  6
  9 52  1  0
 10 53  1  6
 11 54  1  6
 13 55  1  6
 14 56  1  1
 16 57  1  0
 16 58  1  0
 17 59  1  0
 17 60  1  0
 20 61  1  0
 21 62  1  0
 22 63  1  0
 25 64  1  0
 25 65  1  0
 30 66  1  0
 31 67  1  0
 35 68  1  0
 37 69  1  0
M  CHG  2  32  -1  33  -1
M  END
>  <filename_input>  (1) 
7F51_BA7_docked.sdf

>  <pdb_id>  (1) 
7F51_BA7

>  <pose_rank>  (1) 
0

>  <num_atoms_heavy>  (1) 
44

>  <num_torsions>  (1) 
12

>  <pose>  (1) 
[-2.5024190263370563, 6.180749410893937, 9.173162195727423, -1.9130454008840492, 5.61869964301544, 0.43918753077190115, 6.515746485696096, -12.548591148409924, -0.4843749360541822, 12.54626017367491, 6.5957504313781925, 18.973816380366184, -7.5647422127231385, 11.847204313691721, -21.12717682909906, -0.08775754873878633, -12.986439791827676, -3.581735684639026]

>  <energy>  (1) 
-986.9925937187156

>  <inter_energy>  (1) 
-1000.2007500894846

>  <intra_energy>  (1) 
21.518287926701422

>  <rmsd>  (1) 
3.41343

>  <sdf_rank>  (1) 
0

$$$$

     RDKit          3D

 69 73  0  0  0  0  0  0  0  0999 V2000
   -1.8496    3.0677   17.0789 C   0  0  0  0  0  0  0  0  0  0  0  0
   -0.7798    8.2449    3.0203 C   0  0  2  0  0  0  0  0  0  0  0  0
   -3.7144    1.6776   17.7334 C   0  0  0  0  0  0  0  0  0  0  0  0
   -3.1901    2.9511   17.4370 C   0  0  0  0  0  0  0  0  0  0  0  0
   -1.6353    7.0884   14.9616 C   0  0  2  0  0  0  0  0  0  0  0  0
    1.5514    5.2898    0.7665 C   0  0  0  0  0  0  0  0  0  0  0  0
   -1.8381    9.2327    3.4552 C   0  0  1  0  0  0  0  0  0  0  0  0
   -2.4252    5.8572   15.4293 C   0  0  1  0  0  0  0  0  0  0  0  0
   -1.0328    1.9587   16.9910 C   0  0  0  0  0  0  0  0  0  0  0  0
   -2.1098    8.7983    4.9135 C   0  0  1  0  0  0  0  0  0  0  0  0
   -3.4617    5.7089   14.2674 C   0  0  1  0  0  0  0  0  0  0  0  0
   -0.2061    6.8521    1.0119 C   0  0  0  0  0  0  0  0  0  0  0  0
   -1.8413    7.3091    4.8976 C   0  0  1  0  0  0  0  0  0  0  0  0
   -2.7309    6.3278   13.0810 C   0  0  1  0  0  0  0  0  0  0  0  0
   -0.6295    6.6134   -0.2350 C   0  0  0  0  0  0  0  0  0  0  0  0
   -3.1345    6.5171    5.0863 C   0  0  0  0  0  0  0  0  0  0  0  0
   -3.7383    6.7877   12.0242 C   0  0  0  0  0  0  0  0  0  0  0  0
    0.0404    5.6985   -0.9784 C   0  0  0  0  0  0  0  0  0  0  0  0
   -1.3244    4.3251   16.7829 C   0  0  0  0  0  0  0  0  0  0  0  0
   -1.5360    0.6959   17.2877 C   0  0  0  0  0  0  0  0  0  0  0  0
   -1.9219    8.1359    0.6795 C   0  0  0  0  0  0  0  0  0  0  0  0
   -2.8540    0.5588   17.6459 C   0  0  0  0  0  0  0  0  0  0  0  0
    1.0903    5.0277   -0.5216 N   0  0  0  0  0  0  0  0  0  0  0  0
    0.8668    6.2052    1.5331 N   0  0  0  0  0  0  0  0  0  0  0  0
   -0.3668    5.4383   -2.2029 N   0  0  0  0  0  0  0  0  0  0  0  0
   -1.7076    7.4313   -0.4431 N   0  0  0  0  0  0  0  0  0  0  0  0
   -0.9632    7.8193    1.5575 N   0  0  0  0  0  0  0  0  0  0  0  0
   -4.8593    4.6598    6.5312 O   0  0  0  0  0  0  0  0  0  0  0  0
   -3.4108    7.9771    9.2600 O   0  0  0  0  0  0  0  0  0  0  0  0
   -1.6815    8.0812   15.9672 O   0  0  0  0  0  0  0  0  0  0  0  0
   -1.2399   10.5164    3.4067 O   0  0  0  0  0  0  0  0  0  0  0  0
   -6.0455    6.9396    6.7827 O   0  0  0  0  0  0  0  0  0  0  0  0
   -2.0339    5.8033    8.9058 O   0  0  0  0  0  0  0  0  0  0  0  0
   -1.4903    4.7896   15.5155 O   0  0  0  0  0  0  0  0  0  0  0  0
   -1.1739    9.3774    5.8071 O   0  0  0  0  0  0  0  0  0  0  0  0
   -4.5022    5.8505    8.6019 O   0  0  0  0  0  0  0  0  0  0  0  0
   -3.7229    4.3549   14.0613 O   0  0  0  0  0  0  0  0  0  0  0  0
   -1.3134    6.9953    3.5789 O   0  0  0  0  0  0  0  0  0  0  0  0
   -2.2486    7.5333   13.6603 O   0  0  0  0  0  0  0  0  0  0  0  0
   -3.6686    6.8541    6.3717 O   0  0  0  0  0  0  0  0  0  0  0  0
   -3.5699    5.9335   10.8691 O   0  0  0  0  0  0  0  0  0  0  0  0
   -0.8138    4.9912   17.6723 O   0  0  0  0  0  0  0  0  0  0  0  0
   -4.8719    6.0464    7.0278 P   0  0  1  0  0  0  0  0  0  0  0  0
   -3.3028    6.5001    9.3751 P   0  0  2  0  0  0  0  0  0  0  0  0
    0.2165    8.6445    3.2606 H   0  0  0  0  0  0  0  0  0  0  0  0
   -4.7679    1.5564   18.0259 H   0  0  0  0  0  0  0  0  0  0  0  0
   -3.8321    3.8429   17.4878 H   0  0  0  0  0  0  0  0  0  0  0  0
   -0.5706    6.8699   14.7925 H   0  0  0  0  0  0  0  0  0  0  0  0
    2.4411    4.7775    1.1614 H   0  0  0  0  0  0  0  0  0  0  0  0
   -2.7573    9.2604    2.8517 H   0  0  0  0  0  0  0  0  0  0  0  0
   -2.9292    5.9008   16.4061 H   0  0  0  0  0  0  0  0  0  0  0  0
    0.0178    2.0733   16.6859 H   0  0  0  0  0  0  0  0  0  0  0  0
   -3.1196    9.0919    5.2361 H   0  0  0  0  0  0  0  0  0  0  0  0
   -4.4342    6.1879   14.4539 H   0  0  0  0  0  0  0  0  0  0  0  0
   -1.1471    7.0463    5.7094 H   0  0  0  0  0  0  0  0  0  0  0  0
   -1.9975    5.6458   12.6260 H   0  0  0  0  0  0  0  0  0  0  0  0
   -3.8553    6.7841    4.2994 H   0  0  0  0  0  0  0  0  0  0  0  0
   -2.9371    5.4369    5.0225 H   0  0  0  0  0  0  0  0  0  0  0  0
   -4.7625    6.6950   12.4149 H   0  0  0  0  0  0  0  0  0  0  0  0
   -3.5694    7.8414   11.7575 H   0  0  0  0  0  0  0  0  0  0  0  0
   -0.8818   -0.1869   17.2356 H   0  0  0  0  0  0  0  0  0  0  0  0
   -2.7424    8.8489    0.8481 H   0  0  0  0  0  0  0  0  0  0  0  0
   -3.2495   -0.4430   17.8697 H   0  0  0  0  0  0  0  0  0  0  0  0
    0.1349    4.7451   -2.7761 H   0  0  0  0  0  0  0  0  0  0  0  0
   -1.1871    5.9281   -2.5879 H   0  0  0  0  0  0  0  0  0  0  0  0
   -1.6614    7.6498   16.8581 H   0  0  0  0  0  0  0  0  0  0  0  0
   -1.0871   10.8443    4.3283 H   0  0  0  0  0  0  0  0  0  0  0  0
   -1.4563    9.2027    6.7397 H   0  0  0  0  0  0  0  0  0  0  0  0
   -3.8108    3.8990   14.9357 H   0  0  0  0  0  0  0  0  0  0  0  0
  1  4  1  0
  1  9  2  0
  1 19  1  0
  2  7  1  0
  2 27  1  0
  2 38  1  0
  3  4  2  0
  3 22  1  0
  5  8  1  0
  5 30  1  0
  5 39  1  0
  6 23  2  0
  6 24  1  0
  7 10  1  0
  7 31  1  0
  8 11  1  0
  8 34  1  0
  9 20  1  0
 10 13  1  0
 10 35  1  0
 11 14  1  0
 11 37  1  0
 12 15  1  0
 12 24  2  0
 12 27  1  0
 13 16  1  0
 13 38  1  0
 14 17  1  0
 14 39  1  0
 15 18  2  0
 15 26  1  0
 16 40  1  0
 17 41  1  0
 18 23  1  0
 18 25  1  0
 19 34  1  0
 19 42  2  0
 20 22  2  0
 21 26  2  0
 21 27  1  0
 28 43  2  0
 29 44  2  0
 43 32  1  1
 44 33  1  6
 36 43  1  0
 36 44  1  0
 40 43  1  0
 41 44  1  0
  2 45  1  6
  3 46  1  0
  4 47  1  0
  5 48  1  6
  6 49  1  0
  7 50  1  6
  8 51  1  1
  9 52  1  0
 10 53  1  1
 11 54  1  1
 13 55  1  1
 14 56  1  6
 16 57  1  0
 16 58  1  0
 17 59  1  0
 17 60  1  0
 20 61  1  0
 21 62  1  0
 22 63  1  0
 25 64  1  0
 25 65  1  0
 30 66  1  0
 31 67  1  0
 35 68  1  0
 37 69  1  0
M  CHG  2  32  -1  33  -1
M  END
>  <filename_input>  (2) 
7F51_BA7_docked.sdf

>  <pdb_id>  (2) 
7F51_BA7

>  <pose_rank>  (2) 
1

>  <num_atoms_heavy>  (2) 
44

>  <num_torsions>  (2) 
12

>  <pose>  (2) 
[-4.50222351713614, 5.850543679318182, 8.601854394922519, 0.6334130611773648, -2.7680749347720908, 1.0912245622401353, -7.6020649723454, -5.082907766052703, 12.682250882995666, -12.383836116813248, 0.5891485639098805, -4.692603033526302, 7.39166846717809, 25.609316964946927, 15.895389225778809, 11.862997172723198, 5.03691379889996, 1.7097538656488778]

>  <energy>  (2) 
-957.1440885406842

>  <inter_energy>  (2) 
-951.2432205774137

>  <intra_energy>  (2) 
10.003273786628501

>  <rmsd>  (2) 
13.3462

>  <sdf_rank>  (2) 
0

$$$$

     RDKit          3D

 69 73  0  0  0  0  0  0  0  0999 V2000
   -2.5749   15.4370    7.5631 C   0  0  0  0  0  0  0  0  0  0  0  0
   -3.4173    5.1731   15.5048 C   0  0  2  0  0  0  0  0  0  0  0  0
   -0.4737   16.0582    8.5814 C   0  0  0  0  0  0  0  0  0  0  0  0
   -1.8051   15.6158    8.7094 C   0  0  0  0  0  0  0  0  0  0  0  0
   -5.0561   12.0351    8.4954 C   0  0  2  0  0  0  0  0  0  0  0  0
   -3.5663    1.3759   17.6970 C   0  0  0  0  0  0  0  0  0  0  0  0
   -3.2375    6.6706   15.6055 C   0  0  1  0  0  0  0  0  0  0  0  0
   -3.7779   12.6955    7.9581 C   0  0  1  0  0  0  0  0  0  0  0  0
   -2.0524   15.6665    6.3064 C   0  0  0  0  0  0  0  0  0  0  0  0
   -3.7965    7.1579   14.2494 C   0  0  1  0  0  0  0  0  0  0  0  0
   -3.1437   11.5106    7.1581 C   0  0  1  0  0  0  0  0  0  0  0  0
   -2.4378    3.2225   16.7451 C   0  0  0  0  0  0  0  0  0  0  0  0
   -3.5024    6.0091   13.3092 C   0  0  1  0  0  0  0  0  0  0  0  0
   -4.3593   10.6772    6.7674 C   0  0  1  0  0  0  0  0  0  0  0  0
   -1.2543    2.7383   17.1403 C   0  0  0  0  0  0  0  0  0  0  0  0
   -2.4307    6.3952   12.2906 C   0  0  0  0  0  0  0  0  0  0  0  0
   -3.9383    9.2326    6.4860 C   0  0  0  0  0  0  0  0  0  0  0  0
   -1.2322    1.5594   17.8098 C   0  0  0  0  0  0  0  0  0  0  0  0
   -3.8932   14.9981    7.6823 C   0  0  0  0  0  0  0  0  0  0  0  0
   -0.7412   16.1102    6.1662 C   0  0  0  0  0  0  0  0  0  0  0  0
   -0.9344    4.6450   16.0978 C   0  0  0  0  0  0  0  0  0  0  0  0
    0.0344   16.2960    7.2834 C   0  0  0  0  0  0  0  0  0  0  0  0
   -2.3293    0.8650   18.0834 N   0  0  0  0  0  0  0  0  0  0  0  0
   -3.5958    2.5639   17.0027 N   0  0  0  0  0  0  0  0  0  0  0  0
   -0.0780    1.0580   18.1963 N   0  0  0  0  0  0  0  0  0  0  0  0
   -0.3094    3.6430   16.7364 N   0  0  0  0  0  0  0  0  0  0  0  0
   -2.2511    4.4136   16.1512 N   0  0  0  0  0  0  0  0  0  0  0  0
   -3.1152    4.9288    9.3264 O   0  0  0  0  0  0  0  0  0  0  0  0
   -5.5558    6.3133    8.5998 O   0  0  0  0  0  0  0  0  0  0  0  0
   -5.0782   12.1414    9.9051 O   0  0  0  0  0  0  0  0  0  0  0  0
   -4.0516    7.1060   16.6807 O   0  0  0  0  0  0  0  0  0  0  0  0
   -1.0701    6.4383    9.7812 O   0  0  0  0  0  0  0  0  0  0  0  0
   -4.0898    6.1066    6.4656 O   0  0  0  0  0  0  0  0  0  0  0  0
   -4.1993   13.7854    7.1484 O   0  0  0  0  0  0  0  0  0  0  0  0
   -5.2059    7.3041   14.2950 O   0  0  0  0  0  0  0  0  0  0  0  0
   -3.2436    7.2055    8.5305 O   0  0  0  0  0  0  0  0  0  0  0  0
   -2.4867   12.0184    6.0381 O   0  0  0  0  0  0  0  0  0  0  0  0
   -2.9738    4.9276   14.1260 O   0  0  0  0  0  0  0  0  0  0  0  0
   -5.0505   10.6104    8.0080 O   0  0  0  0  0  0  0  0  0  0  0  0
   -3.0934    6.7273   11.0651 O   0  0  0  0  0  0  0  0  0  0  0  0
   -4.8965    8.3700    7.1418 O   0  0  0  0  0  0  0  0  0  0  0  0
   -4.6965   15.6645    8.3196 O   0  0  0  0  0  0  0  0  0  0  0  0
   -2.5472    6.2488    9.6497 P   0  0  1  0  0  0  0  0  0  0  0  0
   -4.5311    6.8910    7.6927 P   0  0  2  0  0  0  0  0  0  0  0  0
   -4.4119    4.8963   15.8845 H   0  0  0  0  0  0  0  0  0  0  0  0
    0.1556   16.2148    9.4700 H   0  0  0  0  0  0  0  0  0  0  0  0
   -2.2315   15.4141    9.7032 H   0  0  0  0  0  0  0  0  0  0  0  0
   -5.9713   12.5271    8.1345 H   0  0  0  0  0  0  0  0  0  0  0  0
   -4.4971    0.8428   17.9410 H   0  0  0  0  0  0  0  0  0  0  0  0
   -2.2129    7.0281   15.7854 H   0  0  0  0  0  0  0  0  0  0  0  0
   -3.0621   13.1123    8.6819 H   0  0  0  0  0  0  0  0  0  0  0  0
   -2.6736   15.4983    5.4143 H   0  0  0  0  0  0  0  0  0  0  0  0
   -3.3599    8.1258   13.9621 H   0  0  0  0  0  0  0  0  0  0  0  0
   -2.3986   10.9247    7.7162 H   0  0  0  0  0  0  0  0  0  0  0  0
   -4.4169    5.7272   12.7668 H   0  0  0  0  0  0  0  0  0  0  0  0
   -4.8978   11.0851    5.8993 H   0  0  0  0  0  0  0  0  0  0  0  0
   -1.8621    7.2631   12.6560 H   0  0  0  0  0  0  0  0  0  0  0  0
   -1.7291    5.5623   12.1355 H   0  0  0  0  0  0  0  0  0  0  0  0
   -3.9418    9.0437    5.4023 H   0  0  0  0  0  0  0  0  0  0  0  0
   -2.9222    9.0427    6.8619 H   0  0  0  0  0  0  0  0  0  0  0  0
   -0.3287   16.3108    5.1664 H   0  0  0  0  0  0  0  0  0  0  0  0
   -0.4487    5.5058   15.6149 H   0  0  0  0  0  0  0  0  0  0  0  0
    1.0736   16.6372    7.1665 H   0  0  0  0  0  0  0  0  0  0  0  0
   -0.0499    0.1631   18.7055 H   0  0  0  0  0  0  0  0  0  0  0  0
    0.7970    1.5606   17.9896 H   0  0  0  0  0  0  0  0  0  0  0  0
   -4.8935   11.2552   10.3058 H   0  0  0  0  0  0  0  0  0  0  0  0
   -3.6167    6.8734   17.5391 H   0  0  0  0  0  0  0  0  0  0  0  0
   -5.5041    7.3351   15.2385 H   0  0  0  0  0  0  0  0  0  0  0  0
   -1.7380   12.5971    6.3289 H   0  0  0  0  0  0  0  0  0  0  0  0
  1  4  1  0
  1  9  2  0
  1 19  1  0
  2  7  1  0
  2 27  1  0
  2 38  1  0
  3  4  2  0
  3 22  1  0
  5  8  1  0
  5 30  1  0
  5 39  1  0
  6 23  2  0
  6 24  1  0
  7 10  1  0
  7 31  1  0
  8 11  1  0
  8 34  1  0
  9 20  1  0
 10 13  1  0
 10 35  1  0
 11 14  1  0
 11 37  1  0
 12 15  1  0
 12 24  2  0
 12 27  1  0
 13 16  1  0
 13 38  1  0
 14 17  1  0
 14 39  1  0
 15 18  2  0
 15 26  1  0
 16 40  1  0
 17 41  1  0
 18 23  1  0
 18 25  1  0
 19 34  1  0
 19 42  2  0
 20 22  2  0
 21 26  2  0
 21 27  1  0
 28 43  2  0
 29 44  2  0
 43 32  1  1
 44 33  1  6
 36 43  1  0
 36 44  1  0
 40 43  1  0
 41 44  1  0
  2 45  1  6
  3 46  1  0
  4 47  1  0
  5 48  1  6
  6 49  1  0
  7 50  1  1
  8 51  1  1
  9 52  1  0
 10 53  1  6
 11 54  1  1
 13 55  1  6
 14 56  1  6
 16 57  1  0
 16 58  1  0
 17 59  1  0
 17 60  1  0
 20 61  1  0
 21 62  1  0
 22 63  1  0
 25 64  1  0
 25 65  1  0
 30 66  1  0
 31 67  1  0
 35 68  1  0
 37 69  1  0
M  CHG  2  32  -1  33  -1
M  END
>  <filename_input>  (3) 
7F51_BA7_docked.sdf

>  <pdb_id>  (3) 
7F51_BA7

>  <pose_rank>  (3) 
2

>  <num_atoms_heavy>  (3) 
44

>  <num_torsions>  (3) 
12

>  <pose>  (3) 
[-3.243640768945624, 7.2054717538542725, 8.530482508809955, -3.3765161278665143, -1.3270719574627854, -2.217044961034476, 3.1489352250669147, 2.2582277635861088, 6.950887112423999, -0.48164166141585024, -0.08333050533322779, 1.3487244081322545, 4.13847291888586, 6.325092284905143, -4.924271894291749, -7.062654920899797, 4.499907654935201, 1.16215572597714]

>  <energy>  (3) 
-847.3810087779308

>  <inter_energy>  (3) 
-865.1913193933705

>  <intra_energy>  (3) 
9.468187098054484

>  <rmsd>  (3) 
6.13182

>  <sdf_rank>  (3) 
0

$$$$

     RDKit          3D

 69 73  0  0  0  0  0  0  0  0999 V2000
   -1.8496    5.3994    4.6845 C   0  0  0  0  0  0  0  0  0  0  0  0
   -0.2036    5.5106   16.3707 C   0  0  2  0  0  0  0  0  0  0  0  0
   -0.1888    5.9172    3.0077 C   0  0  0  0  0  0  0  0  0  0  0  0
   -1.5148    6.0036    3.4756 C   0  0  0  0  0  0  0  0  0  0  0  0
   -4.8785    6.3778    8.0868 C   0  0  2  0  0  0  0  0  0  0  0  0
   -0.5185    1.4050   17.8843 C   0  0  0  0  0  0  0  0  0  0  0  0
   -0.0663    6.1650   15.0150 C   0  0  1  0  0  0  0  0  0  0  0  0
   -3.9083    6.7439    6.9540 C   0  0  1  0  0  0  0  0  0  0  0  0
   -0.9040    4.7357    5.4396 C   0  0  0  0  0  0  0  0  0  0  0  0
    0.4981    7.5567   15.3805 C   0  0  1  0  0  0  0  0  0  0  0  0
   -2.9051    7.6758    7.7100 C   0  0  1  0  0  0  0  0  0  0  0  0
   -1.4173    3.4053   17.0009 C   0  0  0  0  0  0  0  0  0  0  0  0
   -0.0813    7.8272   16.7521 C   0  0  1  0  0  0  0  0  0  0  0  0
   -2.9900    7.1701    9.1460 C   0  0  1  0  0  0  0  0  0  0  0  0
   -2.6549    2.8971   17.0353 C   0  0  0  0  0  0  0  0  0  0  0  0
   -1.1104    8.9556   16.6994 C   0  0  0  0  0  0  0  0  0  0  0  0
   -2.5426    8.2657   10.1169 C   0  0  0  0  0  0  0  0  0  0  0  0
   -2.8205    1.6369   17.5076 C   0  0  0  0  0  0  0  0  0  0  0  0
   -3.1600    5.4822    5.1542 C   0  0  0  0  0  0  0  0  0  0  0  0
    0.4076    4.6369    4.9859 C   0  0  0  0  0  0  0  0  0  0  0  0
   -2.7417    4.9352   16.2208 C   0  0  0  0  0  0  0  0  0  0  0  0
    0.7585    5.2227    3.7951 C   0  0  0  0  0  0  0  0  0  0  0  0
   -1.8121    0.8912   17.9411 N   0  0  0  0  0  0  0  0  0  0  0  0
   -0.3442    2.6894   17.4216 N   0  0  0  0  0  0  0  0  0  0  0  0
   -4.0307    1.1218   17.5628 N   0  0  0  0  0  0  0  0  0  0  0  0
   -3.4863    3.8631   16.5350 N   0  0  0  0  0  0  0  0  0  0  0  0
   -1.4596    4.6334   16.4564 N   0  0  0  0  0  0  0  0  0  0  0  0
   -1.0625   10.8955   13.3701 O   0  0  0  0  0  0  0  0  0  0  0  0
   -3.8197    8.3634   12.8559 O   0  0  0  0  0  0  0  0  0  0  0  0
   -6.1926    6.7381    7.7095 O   0  0  0  0  0  0  0  0  0  0  0  0
    0.8829    5.4022   14.2902 O   0  0  0  0  0  0  0  0  0  0  0  0
   -3.0323   10.0771   14.8254 O   0  0  0  0  0  0  0  0  0  0  0  0
   -2.3965    6.2298   13.2667 O   0  0  0  0  0  0  0  0  0  0  0  0
   -3.3401    5.5218    6.5016 O   0  0  0  0  0  0  0  0  0  0  0  0
    1.9076    7.5195   15.5272 O   0  0  0  0  0  0  0  0  0  0  0  0
   -1.4229    8.5095   13.4728 O   0  0  0  0  0  0  0  0  0  0  0  0
   -1.6293    7.4980    7.1767 O   0  0  0  0  0  0  0  0  0  0  0  0
   -0.7702    6.6126   17.1599 O   0  0  0  0  0  0  0  0  0  0  0  0
   -4.3987    7.0932    9.3220 O   0  0  0  0  0  0  0  0  0  0  0  0
   -0.7634    9.8115   15.6048 O   0  0  0  0  0  0  0  0  0  0  0  0
   -1.9153    7.6113   11.2441 O   0  0  0  0  0  0  0  0  0  0  0  0
   -4.0812    5.5960    4.3580 O   0  0  0  0  0  0  0  0  0  0  0  0
   -1.6488    9.9024   14.2863 P   0  0  1  0  0  0  0  0  0  0  0  0
   -2.5188    7.6549   12.7469 P   0  0  2  0  0  0  0  0  0  0  0  0
    0.7341    4.9958   16.6267 H   0  0  0  0  0  0  0  0  0  0  0  0
    0.1028    6.3788    2.0528 H   0  0  0  0  0  0  0  0  0  0  0  0
   -2.2766    6.5420    2.8927 H   0  0  0  0  0  0  0  0  0  0  0  0
   -4.9018    5.2975    8.2924 H   0  0  0  0  0  0  0  0  0  0  0  0
    0.3427    0.7988   18.2016 H   0  0  0  0  0  0  0  0  0  0  0  0
   -0.9831    6.2336   14.4112 H   0  0  0  0  0  0  0  0  0  0  0  0
   -4.3135    7.2411    6.0603 H   0  0  0  0  0  0  0  0  0  0  0  0
   -1.1877    4.2840    6.4016 H   0  0  0  0  0  0  0  0  0  0  0  0
    0.2526    8.3021   14.6097 H   0  0  0  0  0  0  0  0  0  0  0  0
   -3.1272    8.7504    7.6328 H   0  0  0  0  0  0  0  0  0  0  0  0
    0.7217    8.1165   17.4460 H   0  0  0  0  0  0  0  0  0  0  0  0
   -2.3995    6.2575    9.3147 H   0  0  0  0  0  0  0  0  0  0  0  0
   -2.1162    8.5382   16.5442 H   0  0  0  0  0  0  0  0  0  0  0  0
   -1.1119    9.5196   17.6438 H   0  0  0  0  0  0  0  0  0  0  0  0
   -1.8238    8.9359    9.6229 H   0  0  0  0  0  0  0  0  0  0  0  0
   -3.4014    8.8695   10.4455 H   0  0  0  0  0  0  0  0  0  0  0  0
    1.1585    4.0929    5.5777 H   0  0  0  0  0  0  0  0  0  0  0  0
   -3.1196    5.8942   15.8369 H   0  0  0  0  0  0  0  0  0  0  0  0
    1.7991    5.1504    3.4459 H   0  0  0  0  0  0  0  0  0  0  0  0
   -4.1676    0.1655   17.9198 H   0  0  0  0  0  0  0  0  0  0  0  0
   -4.8408    1.6752   17.2490 H   0  0  0  0  0  0  0  0  0  0  0  0
   -6.7395    6.8881    8.5210 H   0  0  0  0  0  0  0  0  0  0  0  0
    1.4761    4.9255   14.9235 H   0  0  0  0  0  0  0  0  0  0  0  0
    2.1391    7.5133   16.4898 H   0  0  0  0  0  0  0  0  0  0  0  0
   -0.9737    7.4067    7.9128 H   0  0  0  0  0  0  0  0  0  0  0  0
  1  4  1  0
  1  9  2  0
  1 19  1  0
  2  7  1  0
  2 27  1  0
  2 38  1  0
  3  4  2  0
  3 22  1  0
  5  8  1  0
  5 30  1  0
  5 39  1  0
  6 23  2  0
  6 24  1  0
  7 10  1  0
  7 31  1  0
  8 11  1  0
  8 34  1  0
  9 20  1  0
 10 13  1  0
 10 35  1  0
 11 14  1  0
 11 37  1  0
 12 15  1  0
 12 24  2  0
 12 27  1  0
 13 16  1  0
 13 38  1  0
 14 17  1  0
 14 39  1  0
 15 18  2  0
 15 26  1  0
 16 40  1  0
 17 41  1  0
 18 23  1  0
 18 25  1  0
 19 34  1  0
 19 42  2  0
 20 22  2  0
 21 26  2  0
 21 27  1  0
 28 43  2  0
 29 44  2  0
 43 32  1  1
 44 33  1  1
 36 43  1  0
 36 44  1  0
 40 43  1  0
 41 44  1  0
  2 45  1  1
  3 46  1  0
  4 47  1  0
  5 48  1  1
  6 49  1  0
  7 50  1  6
  8 51  1  6
  9 52  1  0
 10 53  1  6
 11 54  1  1
 13 55  1  1
 14 56  1  6
 16 57  1  0
 16 58  1  0
 17 59  1  0
 17 60  1  0
 20 61  1  0
 21 62  1  0
 22 63  1  0
 25 64  1  0
 25 65  1  0
 30 66  1  0
 31 67  1  0
 35 68  1  0
 37 69  1  0
M  CHG  2  32  -1  33  -1
M  END
>  <filename_input>  (4) 
7F51_BA7_docked.sdf

>  <pdb_id>  (4) 
7F51_BA7

>  <pose_rank>  (4) 
3

>  <num_atoms_heavy>  (4) 
44

>  <num_torsions>  (4) 
12

>  <pose>  (4) 
[-1.422897225779523, 8.509531053864249, 13.472815057397037, 4.058162498389465, -2.304603011100512, -3.848336697806413, 0.950307953567123, -2.4643413216492873, -1.2833000990751404, 0.7839288128717532, -0.3047067622799088, 0.6305101644427599, 1.29060406162713, 0.6724052162726283, 2.705884632880523, 6.039789593529102, -1.1251898228734447, 0.6051716689505923]

>  <energy>  (4) 
-693.8814138952955

>  <inter_energy>  (4) 
-768.302465729402

>  <intra_energy>  (4) 
79.43365460956338

>  <rmsd>  (4) 
4.53883

>  <sdf_rank>  (4) 
0

$$$$

     RDKit          3D

 69 73  0  0  0  0  0  0  0  0999 V2000
   -1.5339   11.0630   19.3047 C   0  0  0  0  0  0  0  0  0  0  0  0
   -3.7285    5.0430   15.5692 C   0  0  2  0  0  0  0  0  0  0  0  0
   -0.5244   11.3571   21.4802 C   0  0  0  0  0  0  0  0  0  0  0  0
   -0.6641   10.6108   20.2935 C   0  0  0  0  0  0  0  0  0  0  0  0
   -0.4207   11.9564   15.3757 C   0  0  2  0  0  0  0  0  0  0  0  0
   -3.4217    1.0894   17.4458 C   0  0  0  0  0  0  0  0  0  0  0  0
   -3.8798    6.4798   16.0138 C   0  0  1  0  0  0  0  0  0  0  0  0
   -1.2050   10.7407   15.8908 C   0  0  1  0  0  0  0  0  0  0  0  0
   -2.2451   12.2358   19.4582 C   0  0  0  0  0  0  0  0  0  0  0  0
   -4.4186    7.1616   14.7356 C   0  0  1  0  0  0  0  0  0  0  0  0
   -0.8367    9.6694   14.8123 C   0  0  1  0  0  0  0  0  0  0  0  0
   -2.5249    3.1351   16.6708 C   0  0  0  0  0  0  0  0  0  0  0  0
   -3.8124    6.3461   13.6142 C   0  0  1  0  0  0  0  0  0  0  0  0
    0.5285   10.1388   14.3217 C   0  0  1  0  0  0  0  0  0  0  0  0
   -1.2945    2.7722   17.0525 C   0  0  0  0  0  0  0  0  0  0  0  0
   -2.7689    7.1581   12.8483 C   0  0  0  0  0  0  0  0  0  0  0  0
    0.8025    9.5861   12.9207 C   0  0  0  0  0  0  0  0  0  0  0  0
   -1.1312    1.5543   17.6256 C   0  0  0  0  0  0  0  0  0  0  0  0
   -1.6760   10.3299   18.1270 C   0  0  0  0  0  0  0  0  0  0  0  0
   -2.1217   12.9789   20.6280 C   0  0  0  0  0  0  0  0  0  0  0  0
   -1.2062    4.7833   16.1737 C   0  0  0  0  0  0  0  0  0  0  0  0
   -1.2720   12.5496   21.6169 C   0  0  0  0  0  0  0  0  0  0  0  0
   -2.1347    0.7076   17.8178 N   0  0  0  0  0  0  0  0  0  0  0  0
   -3.5931    2.3175   16.8485 N   0  0  0  0  0  0  0  0  0  0  0  0
    0.0724    1.1714   17.9966 N   0  0  0  0  0  0  0  0  0  0  0  0
   -0.4670    3.8184   16.7439 N   0  0  0  0  0  0  0  0  0  0  0  0
   -2.4835    4.3851   16.1786 N   0  0  0  0  0  0  0  0  0  0  0  0
   -2.6815    8.9135    9.7107 O   0  0  0  0  0  0  0  0  0  0  0  0
    1.3736    7.0036   10.7603 O   0  0  0  0  0  0  0  0  0  0  0  0
   -1.3122   13.0353   15.1751 O   0  0  0  0  0  0  0  0  0  0  0  0
   -4.8515    6.4856   17.0453 O   0  0  0  0  0  0  0  0  0  0  0  0
   -2.0539    6.4179    9.4967 O   0  0  0  0  0  0  0  0  0  0  0  0
   -0.4754    6.0349   12.3062 O   0  0  0  0  0  0  0  0  0  0  0  0
   -0.6996   10.4578   17.1891 O   0  0  0  0  0  0  0  0  0  0  0  0
   -5.8258    7.0248   14.6321 O   0  0  0  0  0  0  0  0  0  0  0  0
   -0.8112    8.1440   11.0308 O   0  0  0  0  0  0  0  0  0  0  0  0
   -0.7618    8.4178   15.4220 O   0  0  0  0  0  0  0  0  0  0  0  0
   -3.1336    5.2208   14.2378 O   0  0  0  0  0  0  0  0  0  0  0  0
    0.2794   11.5231   14.1148 O   0  0  0  0  0  0  0  0  0  0  0  0
   -3.1800    7.2141   11.4775 O   0  0  0  0  0  0  0  0  0  0  0  0
    0.6634    8.1481   12.9910 O   0  0  0  0  0  0  0  0  0  0  0  0
   -2.6108    9.5502   18.0098 O   0  0  0  0  0  0  0  0  0  0  0  0
   -2.1920    7.6622   10.3139 P   0  0  1  0  0  0  0  0  0  0  0  0
    0.2612    7.2298   11.7184 P   0  0  2  0  0  0  0  0  0  0  0  0
   -4.6689    4.5017   15.7502 H   0  0  0  0  0  0  0  0  0  0  0  0
    0.1501   11.0203   22.2812 H   0  0  0  0  0  0  0  0  0  0  0  0
   -0.0927    9.6819   20.1497 H   0  0  0  0  0  0  0  0  0  0  0  0
    0.3340   12.3093   16.0939 H   0  0  0  0  0  0  0  0  0  0  0  0
   -4.2803    0.4256   17.6252 H   0  0  0  0  0  0  0  0  0  0  0  0
   -2.9724    6.9706   16.3958 H   0  0  0  0  0  0  0  0  0  0  0  0
   -2.2956   10.8321   16.0014 H   0  0  0  0  0  0  0  0  0  0  0  0
   -2.9106   12.5836   18.6543 H   0  0  0  0  0  0  0  0  0  0  0  0
   -4.1760    8.2345   14.7227 H   0  0  0  0  0  0  0  0  0  0  0  0
   -1.5636    9.5726   13.9924 H   0  0  0  0  0  0  0  0  0  0  0  0
   -4.5995    6.0343   12.9118 H   0  0  0  0  0  0  0  0  0  0  0  0
    1.3475    9.8587   15.0004 H   0  0  0  0  0  0  0  0  0  0  0  0
   -2.7077    8.1752   13.2627 H   0  0  0  0  0  0  0  0  0  0  0  0
   -1.7775    6.6894   12.9340 H   0  0  0  0  0  0  0  0  0  0  0  0
    0.0776    9.9999   12.2043 H   0  0  0  0  0  0  0  0  0  0  0  0
    1.8119    9.8637   12.5830 H   0  0  0  0  0  0  0  0  0  0  0  0
   -2.7014   13.9045   20.7595 H   0  0  0  0  0  0  0  0  0  0  0  0
   -0.8277    5.7351   15.7726 H   0  0  0  0  0  0  0  0  0  0  0  0
   -1.1705   13.1460   22.5356 H   0  0  0  0  0  0  0  0  0  0  0  0
    0.2075    0.2481   18.4328 H   0  0  0  0  0  0  0  0  0  0  0  0
    0.8791    1.7950   17.8506 H   0  0  0  0  0  0  0  0  0  0  0  0
   -1.6046   13.3891   16.0522 H   0  0  0  0  0  0  0  0  0  0  0  0
   -4.3985    6.4829   17.9255 H   0  0  0  0  0  0  0  0  0  0  0  0
   -6.2212    6.9864   15.5389 H   0  0  0  0  0  0  0  0  0  0  0  0
   -0.7685    8.5289   16.4057 H   0  0  0  0  0  0  0  0  0  0  0  0
  1  4  1  0
  1  9  2  0
  1 19  1  0
  2  7  1  0
  2 27  1  0
  2 38  1  0
  3  4  2  0
  3 22  1  0
  5  8  1  0
  5 30  1  0
  5 39  1  0
  6 23  2  0
  6 24  1  0
  7 10  1  0
  7 31  1  0
  8 11  1  0
  8 34  1  0
  9 20  1  0
 10 13  1  0
 10 35  1  0
 11 14  1  0
 11 37  1  0
 12 15  1  0
 12 24  2  0
 12 27  1  0
 13 16  1  0
 13 38  1  0
 14 17  1  0
 14 39  1  0
 15 18  2  0
 15 26  1  0
 16 40  1  0
 17 41  1  0
 18 23  1  0
 18 25  1  0
 19 34  1  0
 19 42  2  0
 20 22  2  0
 21 26  2  0
 21 27  1  0
 28 43  2  0
 29 44  2  0
 43 32  1  6
 44 33  1  1
 36 43  1  0
 36 44  1  0
 40 43  1  0
 41 44  1  0
  2 45  1  6
  3 46  1  0
  4 47  1  0
  5 48  1  1
  6 49  1  0
  7 50  1  1
  8 51  1  1
  9 52  1  0
 10 53  1  6
 11 54  1  6
 13 55  1  6
 14 56  1  1
 16 57  1  0
 16 58  1  0
 17 59  1  0
 17 60  1  0
 20 61  1  0
 21 62  1  0
 22 63  1  0
 25 64  1  0
 25 65  1  0
 30 66  1  0
 31 67  1  0
 35 68  1  0
 37 69  1  0
M  CHG  2  32  -1  33  -1
M  END
>  <filename_input>  (5) 
7F51_BA7_docked.sdf

>  <pdb_id>  (5) 
7F51_BA7

>  <pose_rank>  (5) 
4

>  <num_atoms_heavy>  (5) 
44

>  <num_torsions>  (5) 
12

>  <pose>  (5) 
[-0.8111657329163058, 8.143957051847345, 11.030812286477467, -1.294369320625532, -0.6448553259897134, 1.610606145021983, 56.35272887415668, -45.28708477202876, 63.02394727502865, 112.24357012041754, 24.85924174451382, 115.39877441663054, 2.5715316044367906, 55.62697031099856, -14.532229174997644, -19.313255930238032, -17.97389138252897, -4.469938453573564]

>  <energy>  (5) 
-725.4871099946729

>  <inter_energy>  (5) 
-788.2923499623594

>  <intra_energy>  (5) 
62.056529284047

>  <rmsd>  (5) 
10.4926

>  <sdf_rank>  (5) 
0

$$$$

     RDKit          3D

 69 73  0  0  0  0  0  0  0  0999 V2000
    3.4149    8.0953   19.4960 C   0  0  0  0  0  0  0  0  0  0  0  0
   -3.6676    5.0020   15.6855 C   0  0  2  0  0  0  0  0  0  0  0  0
    5.0094    9.4373   20.7186 C   0  0  0  0  0  0  0  0  0  0  0  0
    4.7094    8.5891   19.6345 C   0  0  0  0  0  0  0  0  0  0  0  0
    0.5170    8.7032   17.2178 C   0  0  2  0  0  0  0  0  0  0  0  0
   -3.1542    1.1454   17.7127 C   0  0  0  0  0  0  0  0  0  0  0  0
   -3.8538    6.4379   16.1195 C   0  0  1  0  0  0  0  0  0  0  0  0
    1.4017    7.4968   16.8710 C   0  0  1  0  0  0  0  0  0  0  0  0
    2.4190    8.4363   20.3886 C   0  0  0  0  0  0  0  0  0  0  0  0
   -4.4735    7.0819   14.8584 C   0  0  1  0  0  0  0  0  0  0  0  0
    1.1918    7.4080   15.3236 C   0  0  1  0  0  0  0  0  0  0  0  0
   -2.3548    3.1725   16.7956 C   0  0  0  0  0  0  0  0  0  0  0  0
   -3.8862    6.2747   13.7210 C   0  0  1  0  0  0  0  0  0  0  0  0
    0.8655    8.8481   14.9434 C   0  0  1  0  0  0  0  0  0  0  0  0
   -1.0955    2.8540   17.1179 C   0  0  0  0  0  0  0  0  0  0  0  0
   -2.9087    7.1150   12.9003 C   0  0  0  0  0  0  0  0  0  0  0  0
    0.0935    8.8813   13.6219 C   0  0  0  0  0  0  0  0  0  0  0  0
   -0.8691    1.6671   17.7332 C   0  0  0  0  0  0  0  0  0  0  0  0
    3.1105    7.2564   18.4245 C   0  0  0  0  0  0  0  0  0  0  0  0
    2.7034    9.2674   21.4676 C   0  0  0  0  0  0  0  0  0  0  0  0
   -1.1082    4.8245   16.1476 C   0  0  0  0  0  0  0  0  0  0  0  0
    3.9738    9.7630   21.6247 C   0  0  0  0  0  0  0  0  0  0  0  0
   -1.8386    0.8086   18.0228 N   0  0  0  0  0  0  0  0  0  0  0  0
   -3.3904    2.3410   17.0733 N   0  0  0  0  0  0  0  0  0  0  0  0
    0.3634    1.3275   18.0475 N   0  0  0  0  0  0  0  0  0  0  0  0
   -0.3134    3.9026   16.7141 N   0  0  0  0  0  0  0  0  0  0  0  0
   -2.3730    4.3994   16.2471 N   0  0  0  0  0  0  0  0  0  0  0  0
   -2.7654    8.4314    9.5448 O   0  0  0  0  0  0  0  0  0  0  0  0
    1.2423    6.9237   10.3956 O   0  0  0  0  0  0  0  0  0  0  0  0
   -0.4362    8.3184   18.1885 O   0  0  0  0  0  0  0  0  0  0  0  0
   -4.7792    6.4210   17.1927 O   0  0  0  0  0  0  0  0  0  0  0  0
   -2.0309    5.9621    9.7210 O   0  0  0  0  0  0  0  0  0  0  0  0
   -0.1633    5.9943   12.3722 O   0  0  0  0  0  0  0  0  0  0  0  0
    2.7242    7.8438   17.2604 O   0  0  0  0  0  0  0  0  0  0  0  0
   -5.8777    6.8910   14.8187 O   0  0  0  0  0  0  0  0  0  0  0  0
   -0.9249    7.9462   11.0316 O   0  0  0  0  0  0  0  0  0  0  0  0
    2.3757    6.9745   14.7284 O   0  0  0  0  0  0  0  0  0  0  0  0
   -3.1384    5.1841   14.3272 O   0  0  0  0  0  0  0  0  0  0  0  0
   -0.1049    9.1743   15.9299 O   0  0  0  0  0  0  0  0  0  0  0  0
   -3.2722    6.9839   11.5212 O   0  0  0  0  0  0  0  0  0  0  0  0
    0.9168    8.2303   12.6266 O   0  0  0  0  0  0  0  0  0  0  0  0
    3.2746    6.0497   18.5363 O   0  0  0  0  0  0  0  0  0  0  0  0
   -2.2533    7.3038   10.3421 P   0  0  1  0  0  0  0  0  0  0  0  0
    0.3368    7.1709   11.5468 P   0  0  2  0  0  0  0  0  0  0  0  0
   -4.5778    4.4282   15.9142 H   0  0  0  0  0  0  0  0  0  0  0  0
    6.0250    9.8366   20.8569 H   0  0  0  0  0  0  0  0  0  0  0  0
    5.4885    8.3202   18.9060 H   0  0  0  0  0  0  0  0  0  0  0  0
    1.0873    9.5345   17.6581 H   0  0  0  0  0  0  0  0  0  0  0  0
   -3.9843    0.4720   17.9727 H   0  0  0  0  0  0  0  0  0  0  0  0
   -2.9500    6.9674   16.4553 H   0  0  0  0  0  0  0  0  0  0  0  0
    1.1839    6.5336   17.3557 H   0  0  0  0  0  0  0  0  0  0  0  0
    1.3987    8.0503   20.2468 H   0  0  0  0  0  0  0  0  0  0  0  0
   -4.2726    8.1628   14.8223 H   0  0  0  0  0  0  0  0  0  0  0  0
    0.4081    6.7050   15.0048 H   0  0  0  0  0  0  0  0  0  0  0  0
   -4.6907    5.9243   13.0577 H   0  0  0  0  0  0  0  0  0  0  0  0
    1.7593    9.4851   14.8698 H   0  0  0  0  0  0  0  0  0  0  0  0
   -2.9732    8.1697   13.2060 H   0  0  0  0  0  0  0  0  0  0  0  0
   -1.8763    6.7708   13.0607 H   0  0  0  0  0  0  0  0  0  0  0  0
   -0.8610    8.3454   13.7300 H   0  0  0  0  0  0  0  0  0  0  0  0
   -0.1288    9.9173   13.3265 H   0  0  0  0  0  0  0  0  0  0  0  0
    1.9152    9.5258   22.1901 H   0  0  0  0  0  0  0  0  0  0  0  0
   -0.7774    5.7649   15.6827 H   0  0  0  0  0  0  0  0  0  0  0  0
    4.1910   10.4278   22.4737 H   0  0  0  0  0  0  0  0  0  0  0  0
    0.5465    0.4282   18.5151 H   0  0  0  0  0  0  0  0  0  0  0  0
    1.1446    1.9611   17.8257 H   0  0  0  0  0  0  0  0  0  0  0  0
   -0.0645    8.4684   19.0937 H   0  0  0  0  0  0  0  0  0  0  0  0
   -4.2879    6.4300   18.0522 H   0  0  0  0  0  0  0  0  0  0  0  0
   -6.2304    6.8430   15.7425 H   0  0  0  0  0  0  0  0  0  0  0  0
    3.0300    6.7348   15.4316 H   0  0  0  0  0  0  0  0  0  0  0  0
  1  4  1  0
  1  9  2  0
  1 19  1  0
  2  7  1  0
  2 27  1  0
  2 38  1  0
  3  4  2  0
  3 22  1  0
  5  8  1  0
  5 30  1  0
  5 39  1  0
  6 23  2  0
  6 24  1  0
  7 10  1  0
  7 31  1  0
  8 11  1  0
  8 34  1  0
  9 20  1  0
 10 13  1  0
 10 35  1  0
 11 14  1  0
 11 37  1  0
 12 15  1  0
 12 24  2  0
 12 27  1  0
 13 16  1  0
 13 38  1  0
 14 17  1  0
 14 39  1  0
 15 18  2  0
 15 26  1  0
 16 40  1  0
 17 41  1  0
 18 23  1  0
 18 25  1  0
 19 34  1  0
 19 42  2  0
 20 22  2  0
 21 26  2  0
 21 27  1  0
 28 43  2  0
 29 44  2  0
 43 32  1  6
 44 33  1  1
 36 43  1  0
 36 44  1  0
 40 43  1  0
 41 44  1  0
  2 45  1  6
  3 46  1  0
  4 47  1  0
  5 48  1  1
  6 49  1  0
  7 50  1  1
  8 51  1  1
  9 52  1  0
 10 53  1  6
 11 54  1  1
 13 55  1  6
 14 56  1  6
 16 57  1  0
 16 58  1  0
 17 59  1  0
 17 60  1  0
 20 61  1  0
 21 62  1  0
 22 63  1  0
 25 64  1  0
 25 65  1  0
 30 66  1  0
 31 67  1  0
 35 68  1  0
 37 69  1  0
M  CHG  2  32  -1  33  -1
M  END
>  <filename_input>  (6) 
7F51_BA7_docked.sdf

>  <pdb_id>  (6) 
7F51_BA7

>  <pose_rank>  (6) 
5

>  <num_atoms_heavy>  (6) 
44

>  <num_torsions>  (6) 
12

>  <pose>  (6) 
[-0.9248942075170534, 7.9461614510632055, 11.031562035653147, -1.1239291016164619, -0.8142090520911189, 1.7262671749087863, 56.66130442221291, -45.3132966651065, 63.11414029609138, 112.104207072956, 24.82025019463413, 115.13093607332546, 4.085077260599541, 55.32459667071811, -14.57572424535397, -19.77602404739033, -17.763609418599923, -4.632131182481592]

>  <energy>  (6) 
-766.0366412875537

>  <inter_energy>  (6) 
-788.7820139319482

>  <intra_energy>  (6) 
31.82247353769137

>  <rmsd>  (6) 
10.6228

>  <sdf_rank>  (6) 
0

$$$$

     RDKit          3D

 69 73  0  0  0  0  0  0  0  0999 V2000
   -0.5985    6.5099    0.2840 C   0  0  0  0  0  0  0  0  0  0  0  0
   -1.2412    5.4666   15.2642 C   0  0  2  0  0  0  0  0  0  0  0  0
   -0.5072    5.8220   -2.0305 C   0  0  0  0  0  0  0  0  0  0  0  0
   -1.1282    6.5589   -1.0028 C   0  0  0  0  0  0  0  0  0  0  0  0
   -0.3586    5.2760    4.1086 C   0  0  2  0  0  0  0  0  0  0  0  0
    1.9296    5.9975   12.2792 C   0  0  0  0  0  0  0  0  0  0  0  0
   -2.4433    5.8043   16.1162 C   0  0  1  0  0  0  0  0  0  0  0  0
   -1.4179    5.9664    3.2370 C   0  0  1  0  0  0  0  0  0  0  0  0
    0.5318    5.7697    0.5655 C   0  0  0  0  0  0  0  0  0  0  0  0
   -3.5666    4.9932   15.4312 C   0  0  1  0  0  0  0  0  0  0  0  0
   -2.4451    6.4253    4.3235 C   0  0  1  0  0  0  0  0  0  0  0  0
    0.5812    6.7235   14.0804 C   0  0  0  0  0  0  0  0  0  0  0  0
   -3.1415    4.9515   13.9795 C   0  0  1  0  0  0  0  0  0  0  0  0
   -1.5752    6.5846    5.5657 C   0  0  1  0  0  0  0  0  0  0  0  0
    1.1922    7.9142   14.0941 C   0  0  0  0  0  0  0  0  0  0  0  0
   -4.0789    5.7880   13.1097 C   0  0  0  0  0  0  0  0  0  0  0  0
   -2.4349    6.4751    6.8275 C   0  0  0  0  0  0  0  0  0  0  0  0
    2.1715    8.1458   13.1853 C   0  0  0  0  0  0  0  0  0  0  0  0
   -1.2074    7.2380    1.3057 C   0  0  0  0  0  0  0  0  0  0  0  0
    1.1509    5.0319   -0.4385 C   0  0  0  0  0  0  0  0  0  0  0  0
   -0.3247    7.8709   15.6821 C   0  0  0  0  0  0  0  0  0  0  0  0
    0.6434    5.0635   -1.7136 C   0  0  0  0  0  0  0  0  0  0  0  0
    2.5442    7.2476   12.2824 N   0  0  0  0  0  0  0  0  0  0  0  0
    0.9234    5.7605   13.1878 N   0  0  0  0  0  0  0  0  0  0  0  0
    2.7768    9.3147   13.1721 N   0  0  0  0  0  0  0  0  0  0  0  0
    0.6226    8.6320   15.1113 N   0  0  0  0  0  0  0  0  0  0  0  0
   -0.3128    6.6747   15.0827 N   0  0  0  0  0  0  0  0  0  0  0  0
   -1.6139    7.4264   11.3054 O   0  0  0  0  0  0  0  0  0  0  0  0
   -3.4854    9.4999    9.1004 O   0  0  0  0  0  0  0  0  0  0  0  0
   -0.1873    3.9440    3.6664 O   0  0  0  0  0  0  0  0  0  0  0  0
   -2.1727    5.3074   17.4155 O   0  0  0  0  0  0  0  0  0  0  0  0
   -4.0308    8.2204   11.7477 O   0  0  0  0  0  0  0  0  0  0  0  0
   -5.1142    7.7549    8.0763 O   0  0  0  0  0  0  0  0  0  0  0  0
   -0.7565    7.0351    2.5726 O   0  0  0  0  0  0  0  0  0  0  0  0
   -3.5907    3.6532   15.8935 O   0  0  0  0  0  0  0  0  0  0  0  0
   -3.2174    7.0736    9.5341 O   0  0  0  0  0  0  0  0  0  0  0  0
   -3.0095    7.6385    3.9318 O   0  0  0  0  0  0  0  0  0  0  0  0
   -1.8180    5.5520   13.9159 O   0  0  0  0  0  0  0  0  0  0  0  0
   -0.8351    5.3711    5.5339 O   0  0  0  0  0  0  0  0  0  0  0  0
   -3.5052    5.8653   11.7997 O   0  0  0  0  0  0  0  0  0  0  0  0
   -2.7623    7.8215    7.2428 O   0  0  0  0  0  0  0  0  0  0  0  0
   -2.0529    8.0770    1.0286 O   0  0  0  0  0  0  0  0  0  0  0  0
   -3.0673    7.2482   11.1465 P   0  0  1  0  0  0  0  0  0  0  0  0
   -3.7121    8.1549    8.5121 P   0  0  2  0  0  0  0  0  0  0  0  0
   -0.7503    4.5662   15.6622 H   0  0  0  0  0  0  0  0  0  0  0  0
   -0.9078    5.8364   -3.0548 H   0  0  0  0  0  0  0  0  0  0  0  0
   -2.0209    7.1658   -1.2144 H   0  0  0  0  0  0  0  0  0  0  0  0
    0.6289    5.7550    4.0348 H   0  0  0  0  0  0  0  0  0  0  0  0
    2.2410    5.2186   11.5676 H   0  0  0  0  0  0  0  0  0  0  0  0
   -2.6952    6.8715   16.2036 H   0  0  0  0  0  0  0  0  0  0  0  0
   -1.9111    5.3768    2.4502 H   0  0  0  0  0  0  0  0  0  0  0  0
    0.9438    5.7630    1.5854 H   0  0  0  0  0  0  0  0  0  0  0  0
   -4.5539    5.4396   15.6207 H   0  0  0  0  0  0  0  0  0  0  0  0
   -3.2828    5.7315    4.4875 H   0  0  0  0  0  0  0  0  0  0  0  0
   -3.1576    3.9135   13.6155 H   0  0  0  0  0  0  0  0  0  0  0  0
   -1.0135    7.5302    5.5773 H   0  0  0  0  0  0  0  0  0  0  0  0
   -5.0680    5.3096   13.0577 H   0  0  0  0  0  0  0  0  0  0  0  0
   -4.2034    6.7945   13.5355 H   0  0  0  0  0  0  0  0  0  0  0  0
   -3.3556    5.9144    6.6084 H   0  0  0  0  0  0  0  0  0  0  0  0
   -1.8930    5.9430    7.6232 H   0  0  0  0  0  0  0  0  0  0  0  0
    2.0413    4.4270   -0.2121 H   0  0  0  0  0  0  0  0  0  0  0  0
   -0.9939    8.1773   16.4996 H   0  0  0  0  0  0  0  0  0  0  0  0
    1.1425    4.4864   -2.5059 H   0  0  0  0  0  0  0  0  0  0  0  0
    3.5221    9.5010   12.4860 H   0  0  0  0  0  0  0  0  0  0  0  0
    2.5053   10.0429   13.8480 H   0  0  0  0  0  0  0  0  0  0  0  0
   -0.1101    3.3436    4.4497 H   0  0  0  0  0  0  0  0  0  0  0  0
   -2.5189    5.9432   18.0908 H   0  0  0  0  0  0  0  0  0  0  0  0
   -3.5908    3.6456   16.8835 H   0  0  0  0  0  0  0  0  0  0  0  0
   -3.2537    8.1635    4.7349 H   0  0  0  0  0  0  0  0  0  0  0  0
  1  4  1  0
  1  9  2  0
  1 19  1  0
  2  7  1  0
  2 27  1  0
  2 38  1  0
  3  4  2  0
  3 22  1  0
  5  8  1  0
  5 30  1  0
  5 39  1  0
  6 23  2  0
  6 24  1  0
  7 10  1  0
  7 31  1  0
  8 11  1  0
  8 34  1  0
  9 20  1  0
 10 13  1  0
 10 35  1  0
 11 14  1  0
 11 37  1  0
 12 15  1  0
 12 24  2  0
 12 27  1  0
 13 16  1  0
 13 38  1  0
 14 17  1  0
 14 39  1  0
 15 18  2  0
 15 26  1  0
 16 40  1  0
 17 41  1  0
 18 23  1  0
 18 25  1  0
 19 34  1  0
 19 42  2  0
 20 22  2  0
 21 26  2  0
 21 27  1  0
 28 43  2  0
 29 44  2  0
 43 32  1  1
 44 33  1  6
 36 43  1  0
 36 44  1  0
 40 43  1  0
 41 44  1  0
  2 45  1  1
  3 46  1  0
  4 47  1  0
  5 48  1  1
  6 49  1  0
  7 50  1  1
  8 51  1  6
  9 52  1  0
 10 53  1  6
 11 54  1  1
 13 55  1  6
 14 56  1  6
 16 57  1  0
 16 58  1  0
 17 59  1  0
 17 60  1  0
 20 61  1  0
 21 62  1  0
 22 63  1  0
 25 64  1  0
 25 65  1  0
 30 66  1  0
 31 67  1  0
 35 68  1  0
 37 69  1  0
M  CHG  2  32  -1  33  -1
M  END
>  <filename_input>  (7) 
7F51_BA7_docked.sdf

>  <pdb_id>  (7) 
7F51_BA7

>  <pose_rank>  (7) 
6

>  <num_atoms_heavy>  (7) 
44

>  <num_torsions>  (7) 
12

>  <pose>  (7) 
[-3.217411966747831, 7.073600494467658, 9.534097181948967, -3.0583128810917026, 1.3786078633372323, 3.820220229782415, 1.0292198252766371, 2.440217749241574, 1.0103517912289057, 4.258792894535274, 0.8164006048781606, 0.9921262592275056, 3.9589108047565187, -0.5075116200070589, 3.600800520733896, -0.2114094697049798, 1.6033599268358123, -0.09423111595296364]

>  <energy>  (7) 
-787.834217209154

>  <inter_energy>  (7) 
-813.1746496583166

>  <intra_energy>  (7) 
37.13645890935625

>  <rmsd>  (7) 
4.07213

>  <sdf_rank>  (7) 
0

$$$$

     RDKit          3D

 69 73  0  0  0  0  0  0  0  0999 V2000
    4.3234    3.1666    9.3758 C   0  0  0  0  0  0  0  0  0  0  0  0
    0.1618    5.7041    3.7148 C   0  0  2  0  0  0  0  0  0  0  0  0
    5.5990    1.1287    9.6170 C   0  0  0  0  0  0  0  0  0  0  0  0
    5.3276    2.4505   10.0219 C   0  0  0  0  0  0  0  0  0  0  0  0
    1.8847    6.5247    9.0540 C   0  0  2  0  0  0  0  0  0  0  0  0
    1.3766    4.2750   -0.2511 C   0  0  0  0  0  0  0  0  0  0  0  0
    0.2706    6.7554    4.7955 C   0  0  1  0  0  0  0  0  0  0  0  0
    2.5246    6.1148   10.3885 C   0  0  1  0  0  0  0  0  0  0  0  0
    3.5786    2.5995    8.3616 C   0  0  0  0  0  0  0  0  0  0  0  0
   -0.3529    6.0366    6.0136 C   0  0  1  0  0  0  0  0  0  0  0  0
    1.3719    6.4558   11.3892 C   0  0  1  0  0  0  0  0  0  0  0  0
    0.2238    5.7377    1.2054 C   0  0  0  0  0  0  0  0  0  0  0  0
   -1.3698    5.1026    5.3940 C   0  0  1  0  0  0  0  0  0  0  0  0
    0.1226    6.3168   10.5261 C   0  0  1  0  0  0  0  0  0  0  0  0
   -0.2724    6.4235    0.1687 C   0  0  0  0  0  0  0  0  0  0  0  0
   -2.7942    5.5468    5.7236 C   0  0  0  0  0  0  0  0  0  0  0  0
   -1.0260    7.1302   11.1283 C   0  0  0  0  0  0  0  0  0  0  0  0
    0.0540    6.0216   -1.0845 C   0  0  0  0  0  0  0  0  0  0  0  0
    4.0485    4.4749    9.7724 C   0  0  0  0  0  0  0  0  0  0  0  0
    3.8408    1.2975    7.9472 C   0  0  0  0  0  0  0  0  0  0  0  0
   -0.9884    7.3328    2.0355 C   0  0  0  0  0  0  0  0  0  0  0  0
    4.8286    0.5747    8.5686 C   0  0  0  0  0  0  0  0  0  0  0  0
    0.8366    4.9776   -1.3259 N   0  0  0  0  0  0  0  0  0  0  0  0
    1.0368    4.6667    1.0239 N   0  0  0  0  0  0  0  0  0  0  0  0
   -0.4335    6.6735   -2.1191 N   0  0  0  0  0  0  0  0  0  0  0  0
   -1.0304    7.4336    0.6974 N   0  0  0  0  0  0  0  0  0  0  0  0
   -0.1710    6.3212    2.3499 N   0  0  0  0  0  0  0  0  0  0  0  0
   -5.2498    6.1243    7.0730 O   0  0  0  0  0  0  0  0  0  0  0  0
   -3.7194    5.6740   11.6066 O   0  0  0  0  0  0  0  0  0  0  0  0
    2.7109    7.4771    8.4142 O   0  0  0  0  0  0  0  0  0  0  0  0
    1.6536    6.9922    4.9940 O   0  0  0  0  0  0  0  0  0  0  0  0
   -3.9081    8.2275    7.7393 O   0  0  0  0  0  0  0  0  0  0  0  0
   -4.3857    8.0058   10.6762 O   0  0  0  0  0  0  0  0  0  0  0  0
    2.8144    4.7268   10.2851 O   0  0  0  0  0  0  0  0  0  0  0  0
    0.6015    5.2261    6.6783 O   0  0  0  0  0  0  0  0  0  0  0  0
   -4.0732    6.0429    9.1806 O   0  0  0  0  0  0  0  0  0  0  0  0
    1.3840    5.5282   12.4299 O   0  0  0  0  0  0  0  0  0  0  0  0
   -1.1953    5.1943    3.9527 O   0  0  0  0  0  0  0  0  0  0  0  0
    0.5097    7.0501    9.3712 O   0  0  0  0  0  0  0  0  0  0  0  0
   -2.7536    6.2527    6.9692 O   0  0  0  0  0  0  0  0  0  0  0  0
   -2.1057    7.1270   10.1658 O   0  0  0  0  0  0  0  0  0  0  0  0
    4.9320    5.3191    9.7240 O   0  0  0  0  0  0  0  0  0  0  0  0
   -4.0740    6.7420    7.7095 P   0  0  1  0  0  0  0  0  0  0  0  0
   -3.6237    6.6963   10.5332 P   0  0  2  0  0  0  0  0  0  0  0  0
    1.0619    5.0720    3.7255 H   0  0  0  0  0  0  0  0  0  0  0  0
    6.3912    0.5417   10.1047 H   0  0  0  0  0  0  0  0  0  0  0  0
    5.9023    2.9114   10.8388 H   0  0  0  0  0  0  0  0  0  0  0  0
    1.7868    5.6816    8.3543 H   0  0  0  0  0  0  0  0  0  0  0  0
    2.0582    3.4277   -0.4172 H   0  0  0  0  0  0  0  0  0  0  0  0
   -0.2156    7.7202    4.5886 H   0  0  0  0  0  0  0  0  0  0  0  0
    3.4649    6.6012   10.6875 H   0  0  0  0  0  0  0  0  0  0  0  0
    2.7764    3.1780    7.8800 H   0  0  0  0  0  0  0  0  0  0  0  0
   -0.7562    6.7579    6.7395 H   0  0  0  0  0  0  0  0  0  0  0  0
    1.4469    7.4486   11.8570 H   0  0  0  0  0  0  0  0  0  0  0  0
   -1.2223    4.0825    5.7781 H   0  0  0  0  0  0  0  0  0  0  0  0
   -0.1910    5.2711   10.3910 H   0  0  0  0  0  0  0  0  0  0  0  0
   -3.1733    6.2082    4.9306 H   0  0  0  0  0  0  0  0  0  0  0  0
   -3.4620    4.6758    5.7963 H   0  0  0  0  0  0  0  0  0  0  0  0
   -1.3598    6.6701   12.0701 H   0  0  0  0  0  0  0  0  0  0  0  0
   -0.7023    8.1584   11.3471 H   0  0  0  0  0  0  0  0  0  0  0  0
    3.2602    0.8501    7.1270 H   0  0  0  0  0  0  0  0  0  0  0  0
   -1.5311    7.9704    2.7488 H   0  0  0  0  0  0  0  0  0  0  0  0
    5.0251   -0.4578    8.2440 H   0  0  0  0  0  0  0  0  0  0  0  0
   -0.1919    6.3765   -3.0754 H   0  0  0  0  0  0  0  0  0  0  0  0
   -1.0565    7.4805   -1.9724 H   0  0  0  0  0  0  0  0  0  0  0  0
    3.1805    8.0184    9.0972 H   0  0  0  0  0  0  0  0  0  0  0  0
    1.8468    7.0253    5.9644 H   0  0  0  0  0  0  0  0  0  0  0  0
    0.4900    5.3207    7.6575 H   0  0  0  0  0  0  0  0  0  0  0  0
    1.3778    6.0052   13.2973 H   0  0  0  0  0  0  0  0  0  0  0  0
  1  4  1  0
  1  9  2  0
  1 19  1  0
  2  7  1  0
  2 27  1  0
  2 38  1  0
  3  4  2  0
  3 22  1  0
  5  8  1  0
  5 30  1  0
  5 39  1  0
  6 23  2  0
  6 24  1  0
  7 10  1  0
  7 31  1  0
  8 11  1  0
  8 34  1  0
  9 20  1  0
 10 13  1  0
 10 35  1  0
 11 14  1  0
 11 37  1  0
 12 15  1  0
 12 24  2  0
 12 27  1  0
 13 16  1  0
 13 38  1  0
 14 17  1  0
 14 39  1  0
 15 18  2  0
 15 26  1  0
 16 40  1  0
 17 41  1  0
 18 23  1  0
 18 25  1  0
 19 34  1  0
 19 42  2  0
 20 22  2  0
 21 26  2  0
 21 27  1  0
 28 43  2  0
 29 44  2  0
 43 32  1  1
 44 33  1  1
 36 43  1  0
 36 44  1  0
 40 43  1  0
 41 44  1  0
  2 45  1  6
  3 46  1  0
  4 47  1  0
  5 48  1  6
  6 49  1  0
  7 50  1  6
  8 51  1  1
  9 52  1  0
 10 53  1  1
 11 54  1  1
 13 55  1  1
 14 56  1  6
 16 57  1  0
 16 58  1  0
 17 59  1  0
 17 60  1  0
 20 61  1  0
 21 62  1  0
 22 63  1  0
 25 64  1  0
 25 65  1  0
 30 66  1  0
 31 67  1  0
 35 68  1  0
 37 69  1  0
M  CHG  2  32  -1  33  -1
M  END
>  <filename_input>  (8) 
7F51_BA7_docked.sdf

>  <pdb_id>  (8) 
7F51_BA7

>  <pose_rank>  (8) 
7

>  <num_atoms_heavy>  (8) 
44

>  <num_torsions>  (8) 
12

>  <pose>  (8) 
[-4.073175949134953, 6.04291741459505, 9.18061281018853, 1.331220852672964, -3.281814274688081, 0.8183470927270858, 0.2690559432499167, 0.910378257278878, 0.037717576687701496, 0.7854617559219756, -0.02198987232355723, -2.5092870263691256, 0.6932420948841854, -1.3775511235625706, 1.9894985882149188, -1.1662230671860132, 6.505959688943572, 1.1439553835723386]

>  <energy>  (8) 
-761.0966445274217

>  <inter_energy>  (8) 
-758.5747351042274

>  <intra_energy>  (8) 
19.852761120337313

>  <rmsd>  (8) 
11.2521

>  <sdf_rank>  (8) 
0

$$$$

     RDKit          3D

 69 73  0  0  0  0  0  0  0  0999 V2000
   -1.9937    5.8472    4.3306 C   0  0  0  0  0  0  0  0  0  0  0  0
   -0.0371    5.3006   17.7067 C   0  0  2  0  0  0  0  0  0  0  0  0
    0.3067    5.1732    4.6340 C   0  0  0  0  0  0  0  0  0  0  0  0
   -1.0056    5.2848    5.1342 C   0  0  0  0  0  0  0  0  0  0  0  0
   -5.1666    6.5820    7.6733 C   0  0  2  0  0  0  0  0  0  0  0  0
   -3.5923    4.8646   15.1734 C   0  0  0  0  0  0  0  0  0  0  0  0
    0.3238    5.6324   16.2768 C   0  0  1  0  0  0  0  0  0  0  0  0
   -4.0964    7.0774    6.6895 C   0  0  1  0  0  0  0  0  0  0  0  0
   -1.7153    6.2786    3.0494 C   0  0  0  0  0  0  0  0  0  0  0  0
    0.5541    7.1593   16.3446 C   0  0  1  0  0  0  0  0  0  0  0  0
   -3.1911    7.9299    7.6381 C   0  0  1  0  0  0  0  0  0  0  0  0
   -2.1308    4.1750   16.8991 C   0  0  0  0  0  0  0  0  0  0  0  0
   -0.3795    7.6119   17.4462 C   0  0  1  0  0  0  0  0  0  0  0  0
   -3.4078    7.2702    8.9956 C   0  0  1  0  0  0  0  0  0  0  0  0
   -2.8758    3.0882   17.1336 C   0  0  0  0  0  0  0  0  0  0  0  0
   -1.5291    8.4458   16.8821 C   0  0  0  0  0  0  0  0  0  0  0  0
   -3.0798    8.2574   10.1186 C   0  0  0  0  0  0  0  0  0  0  0  0
   -3.9804    2.8885   16.3730 C   0  0  0  0  0  0  0  0  0  0  0  0
   -3.2951    5.9595    4.8189 C   0  0  0  0  0  0  0  0  0  0  0  0
   -0.4222    6.1806    2.5455 C   0  0  0  0  0  0  0  0  0  0  0  0
   -1.1810    3.1079   18.5306 C   0  0  0  0  0  0  0  0  0  0  0  0
    0.5679    5.6321    3.3222 C   0  0  0  0  0  0  0  0  0  0  0  0
   -4.3493    3.7186   15.4056 N   0  0  0  0  0  0  0  0  0  0  0  0
   -2.4605    5.0659   15.9303 N   0  0  0  0  0  0  0  0  0  0  0  0
   -4.7205    1.8192   16.5775 N   0  0  0  0  0  0  0  0  0  0  0  0
   -2.2770    2.4219   18.1689 N   0  0  0  0  0  0  0  0  0  0  0  0
   -1.1209    4.2172   17.7850 N   0  0  0  0  0  0  0  0  0  0  0  0
   -2.5736    9.4516   13.4886 O   0  0  0  0  0  0  0  0  0  0  0  0
   -4.2148    6.6320   12.4246 O   0  0  0  0  0  0  0  0  0  0  0  0
   -6.4437    6.9700    7.2069 O   0  0  0  0  0  0  0  0  0  0  0  0
    1.5301    4.9451   15.9925 O   0  0  0  0  0  0  0  0  0  0  0  0
   -3.6588    7.9625   15.2976 O   0  0  0  0  0  0  0  0  0  0  0  0
   -2.1212    5.2087   11.8433 O   0  0  0  0  0  0  0  0  0  0  0  0
   -3.4628    5.9166    6.1678 O   0  0  0  0  0  0  0  0  0  0  0  0
    1.8721    7.4638   16.7688 O   0  0  0  0  0  0  0  0  0  0  0  0
   -2.0075    7.1040   13.4501 O   0  0  0  0  0  0  0  0  0  0  0  0
   -1.8656    7.8221    7.2195 O   0  0  0  0  0  0  0  0  0  0  0  0
   -0.9468    6.4073   18.0322 O   0  0  0  0  0  0  0  0  0  0  0  0
   -4.8252    7.1627    9.0200 O   0  0  0  0  0  0  0  0  0  0  0  0
   -1.3282    8.5661   15.4692 O   0  0  0  0  0  0  0  0  0  0  0  0
   -2.2106    7.5742   11.0513 O   0  0  0  0  0  0  0  0  0  0  0  0
   -4.2158    6.1698    4.0420 O   0  0  0  0  0  0  0  0  0  0  0  0
   -2.4992    8.3149   14.4222 P   0  0  1  0  0  0  0  0  0  0  0  0
   -2.7510    6.5512   12.1853 P   0  0  2  0  0  0  0  0  0  0  0  0
    0.8782    5.0759   18.2738 H   0  0  0  0  0  0  0  0  0  0  0  0
    1.1089    4.7395    5.2491 H   0  0  0  0  0  0  0  0  0  0  0  0
   -1.2467    4.9317    6.1478 H   0  0  0  0  0  0  0  0  0  0  0  0
   -5.1892    5.4855    7.7582 H   0  0  0  0  0  0  0  0  0  0  0  0
   -3.8918    5.5912   14.4037 H   0  0  0  0  0  0  0  0  0  0  0  0
   -0.4156    5.3572   15.5103 H   0  0  0  0  0  0  0  0  0  0  0  0
   -4.4208    7.6654    5.8183 H   0  0  0  0  0  0  0  0  0  0  0  0
   -2.5172    6.7006    2.4258 H   0  0  0  0  0  0  0  0  0  0  0  0
    0.3909    7.6317   15.3647 H   0  0  0  0  0  0  0  0  0  0  0  0
   -3.4251    9.0046    7.6549 H   0  0  0  0  0  0  0  0  0  0  0  0
    0.1724    8.2227   18.1757 H   0  0  0  0  0  0  0  0  0  0  0  0
   -2.8193    6.3498    9.1237 H   0  0  0  0  0  0  0  0  0  0  0  0
   -2.4881    7.9458   17.0828 H   0  0  0  0  0  0  0  0  0  0  0  0
   -1.5515    9.4393   17.3538 H   0  0  0  0  0  0  0  0  0  0  0  0
   -2.5698    9.1406    9.7064 H   0  0  0  0  0  0  0  0  0  0  0  0
   -3.9984    8.5970   10.6194 H   0  0  0  0  0  0  0  0  0  0  0  0
   -0.1946    6.5404    1.5312 H   0  0  0  0  0  0  0  0  0  0  0  0
   -0.4586    2.8099   19.3048 H   0  0  0  0  0  0  0  0  0  0  0  0
    1.5864    5.5477    2.9154 H   0  0  0  0  0  0  0  0  0  0  0  0
   -5.5617    1.6580   16.0053 H   0  0  0  0  0  0  0  0  0  0  0  0
   -4.4585    1.1438   17.3096 H   0  0  0  0  0  0  0  0  0  0  0  0
   -7.0363    7.1501    7.9792 H   0  0  0  0  0  0  0  0  0  0  0  0
    1.9737    4.6924   16.8407 H   0  0  0  0  0  0  0  0  0  0  0  0
    1.9067    7.4718   17.7582 H   0  0  0  0  0  0  0  0  0  0  0  0
   -1.2725    7.7738    8.0107 H   0  0  0  0  0  0  0  0  0  0  0  0
  1  4  1  0
  1  9  2  0
  1 19  1  0
  2  7  1  0
  2 27  1  0
  2 38  1  0
  3  4  2  0
  3 22  1  0
  5  8  1  0
  5 30  1  0
  5 39  1  0
  6 23  2  0
  6 24  1  0
  7 10  1  0
  7 31  1  0
  8 11  1  0
  8 34  1  0
  9 20  1  0
 10 13  1  0
 10 35  1  0
 11 14  1  0
 11 37  1  0
 12 15  1  0
 12 24  2  0
 12 27  1  0
 13 16  1  0
 13 38  1  0
 14 17  1  0
 14 39  1  0
 15 18  2  0
 15 26  1  0
 16 40  1  0
 17 41  1  0
 18 23  1  0
 18 25  1  0
 19 34  1  0
 19 42  2  0
 20 22  2  0
 21 26  2  0
 21 27  1  0
 28 43  2  0
 29 44  2  0
 43 32  1  1
 44 33  1  6
 36 43  1  0
 36 44  1  0
 40 43  1  0
 41 44  1  0
  2 45  1  1
  3 46  1  0
  4 47  1  0
  5 48  1  1
  6 49  1  0
  7 50  1  6
  8 51  1  6
  9 52  1  0
 10 53  1  6
 11 54  1  1
 13 55  1  1
 14 56  1  6
 16 57  1  0
 16 58  1  0
 17 59  1  0
 17 60  1  0
 20 61  1  0
 21 62  1  0
 22 63  1  0
 25 64  1  0
 25 65  1  0
 30 66  1  0
 31 67  1  0
 35 68  1  0
 37 69  1  0
M  CHG  2  32  -1  33  -1
M  END
>  <filename_input>  (9) 
7F51_BA7_docked.sdf

>  <pdb_id>  (9) 
7F51_BA7

>  <pose_rank>  (9) 
8

>  <num_atoms_heavy>  (9) 
44

>  <num_torsions>  (9) 
12

>  <pose>  (9) 
[-2.0075046274573385, 7.1040499734626215, 13.450141248133356, -0.8667971338053376, 5.817360395295161, -0.9407662221181249, 1.7724979447305467, -3.3149068801950095, -0.8943308432404284, 1.2366811896555483, 2.966132536146502, -0.022834955505350606, 0.9723802598800142, 1.268085304539334, -3.2903268640637515, 5.909798389568569, -1.0185177092735072, -2.744951994366437]

>  <energy>  (9) 
-559.3678855753071

>  <inter_energy>  (9) 
-626.0773747781845

>  <intra_energy>  (9) 
71.25033087460552

>  <rmsd>  (9) 
4.49475

>  <sdf_rank>  (9) 
0

$$$$

     RDKit          3D

 69 73  0  0  0  0  0  0  0  0999 V2000
    4.9325    5.2229    5.0346 C   0  0  0  0  0  0  0  0  0  0  0  0
   -1.2851    6.2629   14.7745 C   0  0  2  0  0  0  0  0  0  0  0  0
    6.9914    5.9148    3.9761 C   0  0  0  0  0  0  0  0  0  0  0  0
    6.0722    6.0228    5.0382 C   0  0  0  0  0  0  0  0  0  0  0  0
    1.2607    6.4429    7.4329 C   0  0  2  0  0  0  0  0  0  0  0  0
    1.4199    4.0491   17.4257 C   0  0  0  0  0  0  0  0  0  0  0  0
   -0.2979    6.1318   13.6373 C   0  0  1  0  0  0  0  0  0  0  0  0
    1.7959    5.1821    6.7382 C   0  0  1  0  0  0  0  0  0  0  0  0
    4.6976    4.3154    4.0216 C   0  0  0  0  0  0  0  0  0  0  0  0
   -0.8737    7.1132   12.5911 C   0  0  1  0  0  0  0  0  0  0  0  0
    0.4786    4.5911    6.1367 C   0  0  1  0  0  0  0  0  0  0  0  0
   -0.6349    4.3819   16.3047 C   0  0  0  0  0  0  0  0  0  0  0  0
   -2.3640    7.0770   12.8510 C   0  0  1  0  0  0  0  0  0  0  0  0
   -0.3917    5.8286    5.9470 C   0  0  1  0  0  0  0  0  0  0  0  0
   -1.1396    3.2636   16.8396 C   0  0  0  0  0  0  0  0  0  0  0  0
   -3.1051    6.4016   11.6978 C   0  0  0  0  0  0  0  0  0  0  0  0
   -1.8696    5.4317    5.9097 C   0  0  0  0  0  0  0  0  0  0  0  0
   -0.3576    2.5423   17.6803 C   0  0  0  0  0  0  0  0  0  0  0  0
    4.0191    5.3237    6.0835 C   0  0  0  0  0  0  0  0  0  0  0  0
    5.5938    4.2035    2.9632 C   0  0  0  0  0  0  0  0  0  0  0  0
   -2.6525    4.1783   15.5361 C   0  0  0  0  0  0  0  0  0  0  0  0
    6.7223    4.9848    2.9454 C   0  0  0  0  0  0  0  0  0  0  0  0
    0.8799    2.8999   17.9987 N   0  0  0  0  0  0  0  0  0  0  0  0
    0.6268    4.7955   16.5843 N   0  0  0  0  0  0  0  0  0  0  0  0
   -0.8382    1.4460   18.2282 N   0  0  0  0  0  0  0  0  0  0  0  0
   -2.4100    3.1351   16.3458 N   0  0  0  0  0  0  0  0  0  0  0  0
   -1.5394    4.9176   15.4673 N   0  0  0  0  0  0  0  0  0  0  0  0
   -2.3440    8.3734    8.4888 O   0  0  0  0  0  0  0  0  0  0  0  0
   -4.2927    7.7729    6.2394 O   0  0  0  0  0  0  0  0  0  0  0  0
    1.6145    6.4067    8.8013 O   0  0  0  0  0  0  0  0  0  0  0  0
    0.9515    6.5842   14.1299 O   0  0  0  0  0  0  0  0  0  0  0  0
   -4.0339    8.7403   10.4064 O   0  0  0  0  0  0  0  0  0  0  0  0
   -4.8704    5.2937    6.7559 O   0  0  0  0  0  0  0  0  0  0  0  0
    2.7321    5.6269    5.7652 O   0  0  0  0  0  0  0  0  0  0  0  0
   -0.4433    8.4412   12.8378 O   0  0  0  0  0  0  0  0  0  0  0  0
   -4.2517    6.8938    8.5572 O   0  0  0  0  0  0  0  0  0  0  0  0
    0.7704    3.9760    4.9200 O   0  0  0  0  0  0  0  0  0  0  0  0
   -2.5592    6.2666   14.0432 O   0  0  0  0  0  0  0  0  0  0  0  0
   -0.2276    6.4693    7.2055 O   0  0  0  0  0  0  0  0  0  0  0  0
   -2.5199    6.8618   10.4743 O   0  0  0  0  0  0  0  0  0  0  0  0
   -2.5103    6.0525    7.0483 O   0  0  0  0  0  0  0  0  0  0  0  0
    4.3769    5.0624    7.2233 O   0  0  0  0  0  0  0  0  0  0  0  0
   -3.2916    7.8331    9.4784 P   0  0  1  0  0  0  0  0  0  0  0  0
   -4.0535    6.5456    7.0413 P   0  0  2  0  0  0  0  0  0  0  0  0
   -0.9650    7.0723   15.4472 H   0  0  0  0  0  0  0  0  0  0  0  0
    7.8967    6.5390    3.9491 H   0  0  0  0  0  0  0  0  0  0  0  0
    6.2527    6.7306    5.8607 H   0  0  0  0  0  0  0  0  0  0  0  0
    1.6954    7.3679    7.0262 H   0  0  0  0  0  0  0  0  0  0  0  0
    2.4551    4.3526   17.6406 H   0  0  0  0  0  0  0  0  0  0  0  0
   -0.1581    5.1211   13.2265 H   0  0  0  0  0  0  0  0  0  0  0  0
    2.3227    4.4339    7.3486 H   0  0  0  0  0  0  0  0  0  0  0  0
    3.8005    3.6795    4.0511 H   0  0  0  0  0  0  0  0  0  0  0  0
   -0.5660    6.8361   11.5720 H   0  0  0  0  0  0  0  0  0  0  0  0
   -0.0110    3.8289    6.7606 H   0  0  0  0  0  0  0  0  0  0  0  0
   -2.7483    8.1015   12.9631 H   0  0  0  0  0  0  0  0  0  0  0  0
   -0.1351    6.3985    5.0418 H   0  0  0  0  0  0  0  0  0  0  0  0
   -3.0016    5.3092   11.7748 H   0  0  0  0  0  0  0  0  0  0  0  0
   -4.1760    6.6507   11.7300 H   0  0  0  0  0  0  0  0  0  0  0  0
   -2.3317    5.7879    4.9772 H   0  0  0  0  0  0  0  0  0  0  0  0
   -1.9804    4.3380    5.9489 H   0  0  0  0  0  0  0  0  0  0  0  0
    5.3992    3.4935    2.1458 H   0  0  0  0  0  0  0  0  0  0  0  0
   -3.6006    4.3885   15.0195 H   0  0  0  0  0  0  0  0  0  0  0  0
    7.4327    4.8852    2.1115 H   0  0  0  0  0  0  0  0  0  0  0  0
   -0.2526    0.8907   18.8682 H   0  0  0  0  0  0  0  0  0  0  0  0
   -1.7999    1.1436   18.0168 H   0  0  0  0  0  0  0  0  0  0  0  0
    0.7984    6.4902    9.3555 H   0  0  0  0  0  0  0  0  0  0  0  0
    0.9374    6.5791   15.1198 H   0  0  0  0  0  0  0  0  0  0  0  0
   -0.3932    8.5958   13.8144 H   0  0  0  0  0  0  0  0  0  0  0  0
    1.1886    3.0945    5.0878 H   0  0  0  0  0  0  0  0  0  0  0  0
  1  4  1  0
  1  9  2  0
  1 19  1  0
  2  7  1  0
  2 27  1  0
  2 38  1  0
  3  4  2  0
  3 22  1  0
  5  8  1  0
  5 30  1  0
  5 39  1  0
  6 23  2  0
  6 24  1  0
  7 10  1  0
  7 31  1  0
  8 11  1  0
  8 34  1  0
  9 20  1  0
 10 13  1  0
 10 35  1  0
 11 14  1  0
 11 37  1  0
 12 15  1  0
 12 24  2  0
 12 27  1  0
 13 16  1  0
 13 38  1  0
 14 17  1  0
 14 39  1  0
 15 18  2  0
 15 26  1  0
 16 40  1  0
 17 41  1  0
 18 23  1  0
 18 25  1  0
 19 34  1  0
 19 42  2  0
 20 22  2  0
 21 26  2  0
 21 27  1  0
 28 43  2  0
 29 44  2  0
 43 32  1  1
 44 33  1  6
 36 43  1  0
 36 44  1  0
 40 43  1  0
 41 44  1  0
  2 45  1  1
  3 46  1  0
  4 47  1  0
  5 48  1  6
  6 49  1  0
  7 50  1  6
  8 51  1  1
  9 52  1  0
 10 53  1  6
 11 54  1  1
 13 55  1  1
 14 56  1  6
 16 57  1  0
 16 58  1  0
 17 59  1  0
 17 60  1  0
 20 61  1  0
 21 62  1  0
 22 63  1  0
 25 64  1  0
 25 65  1  0
 30 66  1  0
 31 67  1  0
 35 68  1  0
 37 69  1  0
M  CHG  2  32  -1  33  -1
M  END
>  <filename_input>  (10) 
7F51_BA7_docked.sdf

>  <pdb_id>  (10) 
7F51_BA7

>  <pose_rank>  (10) 
9

>  <num_atoms_heavy>  (10) 
44

>  <num_torsions>  (10) 
12

>  <pose>  (10) 
[-4.251674449443073, 6.893754342398549, 8.557155981641126, 1.0215869113918379, 2.418726881844134, 3.211322514249446, -3.3408595230086453, -2.65770031392259, -11.416174867661608, 0.5418087733756295, -1.3463920684341548, -0.6320249403401464, -0.04204524595235112, 5.26256884136319, 1.034529921338858, -0.8114846948938838, -0.42967281862650913, -0.954626210136117]

>  <energy>  (10) 
-638.8859401664748

>  <inter_energy>  (10) 
-667.3696360711873

>  <intra_energy>  (10) 
31.530443454875645

>  <rmsd>  (10) 
4.3508

>  <sdf_rank>  (10) 
0

$$$$

     RDKit          3D

 69 73  0  0  0  0  0  0  0  0999 V2000
   -0.3192    6.3477    0.3419 C   0  0  0  0  0  0  0  0  0  0  0  0
   -3.3295   12.4257   12.3920 C   0  0  2  0  0  0  0  0  0  0  0  0
   -0.2738    5.9086   -2.0336 C   0  0  0  0  0  0  0  0  0  0  0  0
   -0.8545    6.5576   -0.9262 C   0  0  0  0  0  0  0  0  0  0  0  0
   -3.2268    7.2444    3.4563 C   0  0  2  0  0  0  0  0  0  0  0  0
   -2.1437   15.4605    9.4542 C   0  0  0  0  0  0  0  0  0  0  0  0
   -4.2626   11.9118   13.4644 C   0  0  1  0  0  0  0  0  0  0  0  0
   -1.7285    6.9428    3.6063 C   0  0  1  0  0  0  0  0  0  0  0  0
    0.7786    5.5327    0.5301 C   0  0  0  0  0  0  0  0  0  0  0  0
   -3.4500   10.7461   14.0724 C   0  0  1  0  0  0  0  0  0  0  0  0
   -1.7229    6.1107    4.9307 C   0  0  1  0  0  0  0  0  0  0  0  0
   -3.5760   13.7751   10.2894 C   0  0  0  0  0  0  0  0  0  0  0  0
   -2.6219   10.2443   12.9094 C   0  0  1  0  0  0  0  0  0  0  0  0
   -3.1140    5.4866    4.9439 C   0  0  1  0  0  0  0  0  0  0  0  0
   -4.3934   13.9102    9.2383 C   0  0  0  0  0  0  0  0  0  0  0  0
   -3.0849    8.8574   12.4652 C   0  0  0  0  0  0  0  0  0  0  0  0
   -3.5092    5.1126    6.3748 C   0  0  0  0  0  0  0  0  0  0  0  0
   -4.0735   14.8218    8.2869 C   0  0  0  0  0  0  0  0  0  0  0  0
   -0.8881    6.9881    1.4424 C   0  0  0  0  0  0  0  0  0  0  0  0
    1.3574    4.8803   -0.5540 C   0  0  0  0  0  0  0  0  0  0  0  0
   -5.1998   12.3669   10.5771 C   0  0  0  0  0  0  0  0  0  0  0  0
    0.8436    5.0707   -1.8125 C   0  0  0  0  0  0  0  0  0  0  0  0
   -2.9853   15.5784    8.3504 N   0  0  0  0  0  0  0  0  0  0  0  0
   -2.4529   14.5259   10.4160 N   0  0  0  0  0  0  0  0  0  0  0  0
   -4.8563   14.9621    7.2379 N   0  0  0  0  0  0  0  0  0  0  0  0
   -5.4206   13.0251    9.4280 N   0  0  0  0  0  0  0  0  0  0  0  0
   -4.0920   12.8676   11.1358 N   0  0  0  0  0  0  0  0  0  0  0  0
   -3.0665    6.0852   11.6590 O   0  0  0  0  0  0  0  0  0  0  0  0
   -4.4253    7.5575    8.9023 O   0  0  0  0  0  0  0  0  0  0  0  0
   -3.4151    8.6435    3.3790 O   0  0  0  0  0  0  0  0  0  0  0  0
   -4.4256   12.9643   14.3993 O   0  0  0  0  0  0  0  0  0  0  0  0
   -0.5560    6.6802   11.5552 O   0  0  0  0  0  0  0  0  0  0  0  0
   -4.0001    5.0165    9.2330 O   0  0  0  0  0  0  0  0  0  0  0  0
   -1.3504    6.2035    2.4524 O   0  0  0  0  0  0  0  0  0  0  0  0
   -2.5414   11.2093   15.0572 O   0  0  0  0  0  0  0  0  0  0  0  0
   -2.1795    6.6910    9.4958 O   0  0  0  0  0  0  0  0  0  0  0  0
   -0.7245    5.1406    4.8538 O   0  0  0  0  0  0  0  0  0  0  0  0
   -2.8504   11.1660   11.8074 O   0  0  0  0  0  0  0  0  0  0  0  0
   -3.9197    6.6170    4.6369 O   0  0  0  0  0  0  0  0  0  0  0  0
   -2.2173    8.4251   11.4107 O   0  0  0  0  0  0  0  0  0  0  0  0
   -2.9924    6.1442    7.2471 O   0  0  0  0  0  0  0  0  0  0  0  0
   -0.8807    8.2096    1.5010 O   0  0  0  0  0  0  0  0  0  0  0  0
   -1.9647    6.8858   11.0985 P   0  0  1  0  0  0  0  0  0  0  0  0
   -3.5279    6.3828    8.7573 P   0  0  2  0  0  0  0  0  0  0  0  0
   -2.6656   13.1918   12.8191 H   0  0  0  0  0  0  0  0  0  0  0  0
   -0.6800    6.0502   -3.0460 H   0  0  0  0  0  0  0  0  0  0  0  0
   -1.7204    7.2222   -1.0618 H   0  0  0  0  0  0  0  0  0  0  0  0
   -3.6534    6.8242    2.5336 H   0  0  0  0  0  0  0  0  0  0  0  0
   -1.2536   16.0990    9.5546 H   0  0  0  0  0  0  0  0  0  0  0  0
   -5.2611   11.5929   13.1306 H   0  0  0  0  0  0  0  0  0  0  0  0
   -1.0295    7.7899    3.6684 H   0  0  0  0  0  0  0  0  0  0  0  0
    1.1965    5.3986    1.5387 H   0  0  0  0  0  0  0  0  0  0  0  0
   -4.1100    9.9994   14.5381 H   0  0  0  0  0  0  0  0  0  0  0  0
   -1.5193    6.6945    5.8405 H   0  0  0  0  0  0  0  0  0  0  0  0
   -1.5636   10.1838   13.2033 H   0  0  0  0  0  0  0  0  0  0  0  0
   -3.1943    4.6045    4.2916 H   0  0  0  0  0  0  0  0  0  0  0  0
   -3.0269    8.1549   13.3096 H   0  0  0  0  0  0  0  0  0  0  0  0
   -4.1273    8.8931   12.1158 H   0  0  0  0  0  0  0  0  0  0  0  0
   -4.6045    5.0602    6.4613 H   0  0  0  0  0  0  0  0  0  0  0  0
   -3.0983    4.1295    6.6480 H   0  0  0  0  0  0  0  0  0  0  0  0
    2.2213    4.2161   -0.4034 H   0  0  0  0  0  0  0  0  0  0  0  0
   -5.8212   11.5573   10.9876 H   0  0  0  0  0  0  0  0  0  0  0  0
    1.3112    4.5605   -2.6676 H   0  0  0  0  0  0  0  0  0  0  0  0
   -4.6225   15.6516    6.5093 H   0  0  0  0  0  0  0  0  0  0  0  0
   -5.7027   14.3824    7.1456 H   0  0  0  0  0  0  0  0  0  0  0  0
   -3.4659    9.0207    4.2929 H   0  0  0  0  0  0  0  0  0  0  0  0
   -4.3693   12.6008   15.3184 H   0  0  0  0  0  0  0  0  0  0  0  0
   -2.9075   11.0226   15.9578 H   0  0  0  0  0  0  0  0  0  0  0  0
   -0.4513    4.8750    5.7675 H   0  0  0  0  0  0  0  0  0  0  0  0
  1  4  1  0
  1  9  2  0
  1 19  1  0
  2  7  1  0
  2 27  1  0
  2 38  1  0
  3  4  2  0
  3 22  1  0
  5  8  1  0
  5 30  1  0
  5 39  1  0
  6 23  2  0
  6 24  1  0
  7 10  1  0
  7 31  1  0
  8 11  1  0
  8 34  1  0
  9 20  1  0
 10 13  1  0
 10 35  1  0
 11 14  1  0
 11 37  1  0
 12 15  1  0
 12 24  2  0
 12 27  1  0
 13 16  1  0
 13 38  1  0
 14 17  1  0
 14 39  1  0
 15 18  2  0
 15 26  1  0
 16 40  1  0
 17 41  1  0
 18 23  1  0
 18 25  1  0
 19 34  1  0
 19 42  2  0
 20 22  2  0
 21 26  2  0
 21 27  1  0
 28 43  2  0
 29 44  2  0
 43 32  1  1
 44 33  1  1
 36 43  1  0
 36 44  1  0
 40 43  1  0
 41 44  1  0
  2 45  1  1
  3 46  1  0
  4 47  1  0
  5 48  1  6
  6 49  1  0
  7 50  1  6
  8 51  1  1
  9 52  1  0
 10 53  1  1
 11 54  1  1
 13 55  1  1
 14 56  1  6
 16 57  1  0
 16 58  1  0
 17 59  1  0
 17 60  1  0
 20 61  1  0
 21 62  1  0
 22 63  1  0
 25 64  1  0
 25 65  1  0
 30 66  1  0
 31 67  1  0
 35 68  1  0
 37 69  1  0
M  CHG  2  32  -1  33  -1
M  END
>  <filename_input>  (11) 
7F51_BA7_docked.sdf

>  <pdb_id>  (11) 
7F51_BA7

>  <pose_rank>  (11) 
10

>  <num_atoms_heavy>  (11) 
44

>  <num_torsions>  (11) 
12

>  <pose>  (11) 
[-2.1795181503293217, 6.690979252493943, 9.495828297422014, -4.380907961369911, -2.3663084219843777, -1.9187297899836726, 15.856297712976275, -11.493302673630831, 24.60840697558253, 29.588590829800413, -18.804851259441403, -4.543539152869144, -6.863883536080207, 5.4990133347088435, 5.931355652978424, 5.169002644008228, -12.720331679656839, 5.3065176093623885]

>  <energy>  (11) 
-661.064465922998

>  <inter_energy>  (11) 
-673.3141487138101

>  <intra_energy>  (11) 
16.556553675904176

>  <rmsd>  (11) 
7.52282

>  <sdf_rank>  (11) 
0

$$$$

     RDKit          3D

 69 73  0  0  0  0  0  0  0  0999 V2000
   -0.4551    7.2210   -0.1870 C   0  0  0  0  0  0  0  0  0  0  0  0
    4.7648    3.8341    7.3588 C   0  0  2  0  0  0  0  0  0  0  0  0
   -0.7365    6.0186   -2.2639 C   0  0  0  0  0  0  0  0  0  0  0  0
   -1.0663    7.1074   -1.4329 C   0  0  0  0  0  0  0  0  0  0  0  0
   -2.3466    9.3463    3.4508 C   0  0  2  0  0  0  0  0  0  0  0  0
    6.5396   -0.1422    7.8932 C   0  0  0  0  0  0  0  0  0  0  0  0
    4.4512    4.3679    5.9798 C   0  0  1  0  0  0  0  0  0  0  0  0
   -1.5018    8.2165    2.8440 C   0  0  1  0  0  0  0  0  0  0  0  0
    0.4794    6.2990    0.2390 C   0  0  0  0  0  0  0  0  0  0  0  0
    4.3821    5.8919    6.2281 C   0  0  1  0  0  0  0  0  0  0  0  0
   -1.9934    6.9923    3.6843 C   0  0  1  0  0  0  0  0  0  0  0  0
    4.7230    1.3700    7.8369 C   0  0  0  0  0  0  0  0  0  0  0  0
    3.8967    5.9984    7.6575 C   0  0  1  0  0  0  0  0  0  0  0  0
   -3.4093    7.3987    4.0777 C   0  0  1  0  0  0  0  0  0  0  0  0
    3.8636    0.3923    8.1478 C   0  0  0  0  0  0  0  0  0  0  0  0
    2.4773    6.5616    7.7137 C   0  0  0  0  0  0  0  0  0  0  0  0
   -3.8479    6.6331    5.3287 C   0  0  0  0  0  0  0  0  0  0  0  0
    4.3527   -0.8575    8.3410 C   0  0  0  0  0  0  0  0  0  0  0  0
   -0.7759    8.2969    0.6400 C   0  0  0  0  0  0  0  0  0  0  0  0
    0.8092    5.2152   -0.5688 C   0  0  0  0  0  0  0  0  0  0  0  0
    2.7513    2.2704    7.9027 C   0  0  0  0  0  0  0  0  0  0  0  0
    0.2161    5.0824   -1.7997 C   0  0  0  0  0  0  0  0  0  0  0  0
    5.6431   -1.1501    8.2413 N   0  0  0  0  0  0  0  0  0  0  0  0
    6.0530    1.1324    7.7116 N   0  0  0  0  0  0  0  0  0  0  0  0
    3.5270   -1.8318    8.6606 N   0  0  0  0  0  0  0  0  0  0  0  0
    2.6198    0.9635    8.1806 N   0  0  0  0  0  0  0  0  0  0  0  0
    4.0405    2.5103    7.6367 N   0  0  0  0  0  0  0  0  0  0  0  0
    0.0647    4.9671    5.3810 O   0  0  0  0  0  0  0  0  0  0  0  0
   -3.2926    5.3450    8.4295 O   0  0  0  0  0  0  0  0  0  0  0  0
   -1.4895   10.3648    3.9273 O   0  0  0  0  0  0  0  0  0  0  0  0
    5.5535    4.0335    5.1545 O   0  0  0  0  0  0  0  0  0  0  0  0
    0.2495    7.3331    6.3986 O   0  0  0  0  0  0  0  0  0  0  0  0
   -2.6774    3.9414    6.3322 O   0  0  0  0  0  0  0  0  0  0  0  0
   -1.8464    8.1533    1.4662 O   0  0  0  0  0  0  0  0  0  0  0  0
    5.6710    6.4806    6.1845 O   0  0  0  0  0  0  0  0  0  0  0  0
   -0.9827    5.3132    7.5295 O   0  0  0  0  0  0  0  0  0  0  0  0
   -1.9900    5.8559    2.8766 O   0  0  0  0  0  0  0  0  0  0  0  0
    3.8614    4.6440    8.1872 O   0  0  0  0  0  0  0  0  0  0  0  0
   -3.1918    8.7279    4.5329 O   0  0  0  0  0  0  0  0  0  0  0  0
    1.5809    5.5280    7.2900 O   0  0  0  0  0  0  0  0  0  0  0  0
   -2.6702    6.4305    6.1436 O   0  0  0  0  0  0  0  0  0  0  0  0
   -0.0531    9.2833    0.6558 O   0  0  0  0  0  0  0  0  0  0  0  0
    0.2072    5.8467    6.5537 P   0  0  1  0  0  0  0  0  0  0  0  0
   -2.5062    5.1947    7.1783 P   0  0  2  0  0  0  0  0  0  0  0  0
    5.8552    3.7991    7.4998 H   0  0  0  0  0  0  0  0  0  0  0  0
   -1.2088    5.8995   -3.2502 H   0  0  0  0  0  0  0  0  0  0  0  0
   -1.7981    7.8588   -1.7644 H   0  0  0  0  0  0  0  0  0  0  0  0
   -3.0107    9.8217    2.7139 H   0  0  0  0  0  0  0  0  0  0  0  0
    7.6104   -0.3598    7.7666 H   0  0  0  0  0  0  0  0  0  0  0  0
    3.5376    3.9825    5.5035 H   0  0  0  0  0  0  0  0  0  0  0  0
   -0.4061    8.3071    2.8804 H   0  0  0  0  0  0  0  0  0  0  0  0
    0.9643    6.4212    1.2188 H   0  0  0  0  0  0  0  0  0  0  0  0
    3.7511    6.3906    5.4776 H   0  0  0  0  0  0  0  0  0  0  0  0
   -1.3700    6.7538    4.5587 H   0  0  0  0  0  0  0  0  0  0  0  0
    4.5611    6.6634    8.2288 H   0  0  0  0  0  0  0  0  0  0  0  0
   -4.1398    7.2441    3.2700 H   0  0  0  0  0  0  0  0  0  0  0  0
    2.2363    6.8678    8.7424 H   0  0  0  0  0  0  0  0  0  0  0  0
    2.3862    7.4419    7.0604 H   0  0  0  0  0  0  0  0  0  0  0  0
   -4.5949    7.2180    5.8854 H   0  0  0  0  0  0  0  0  0  0  0  0
   -4.3035    5.6697    5.0560 H   0  0  0  0  0  0  0  0  0  0  0  0
    1.5405    4.4697   -0.2234 H   0  0  0  0  0  0  0  0  0  0  0  0
    1.9408    3.0140    7.8950 H   0  0  0  0  0  0  0  0  0  0  0  0
    0.4879    4.2292   -2.4386 H   0  0  0  0  0  0  0  0  0  0  0  0
    3.8882   -2.7848    8.8096 H   0  0  0  0  0  0  0  0  0  0  0  0
    2.5199   -1.6410    8.7617 H   0  0  0  0  0  0  0  0  0  0  0  0
   -1.4920   10.3618    4.9173 H   0  0  0  0  0  0  0  0  0  0  0  0
    6.3304    3.7978    5.7210 H   0  0  0  0  0  0  0  0  0  0  0  0
    5.9971    6.6296    7.1073 H   0  0  0  0  0  0  0  0  0  0  0  0
   -1.9877    5.0462    3.4463 H   0  0  0  0  0  0  0  0  0  0  0  0
  1  4  1  0
  1  9  2  0
  1 19  1  0
  2  7  1  0
  2 27  1  0
  2 38  1  0
  3  4  2  0
  3 22  1  0
  5  8  1  0
  5 30  1  0
  5 39  1  0
  6 23  2  0
  6 24  1  0
  7 10  1  0
  7 31  1  0
  8 11  1  0
  8 34  1  0
  9 20  1  0
 10 13  1  0
 10 35  1  0
 11 14  1  0
 11 37  1  0
 12 15  1  0
 12 24  2  0
 12 27  1  0
 13 16  1  0
 13 38  1  0
 14 17  1  0
 14 39  1  0
 15 18  2  0
 15 26  1  0
 16 40  1  0
 17 41  1  0
 18 23  1  0
 18 25  1  0
 19 34  1  0
 19 42  2  0
 20 22  2  0
 21 26  2  0
 21 27  1  0
 28 43  2  0
 29 44  2  0
 43 32  1  6
 44 33  1  6
 36 43  1  0
 36 44  1  0
 40 43  1  0
 41 44  1  0
  2 45  1  1
  3 46  1  0
  4 47  1  0
  5 48  1  6
  6 49  1  0
  7 50  1  6
  8 51  1  6
  9 52  1  0
 10 53  1  6
 11 54  1  1
 13 55  1  1
 14 56  1  6
 16 57  1  0
 16 58  1  0
 17 59  1  0
 17 60  1  0
 20 61  1  0
 21 62  1  0
 22 63  1  0
 25 64  1  0
 25 65  1  0
 30 66  1  0
 31 67  1  0
 35 68  1  0
 37 69  1  0
M  CHG  2  32  -1  33  -1
M  END
>  <filename_input>  (12) 
7F51_BA7_docked.sdf

>  <pdb_id>  (12) 
7F51_BA7

>  <pose_rank>  (12) 
11

>  <num_atoms_heavy>  (12) 
44

>  <num_torsions>  (12) 
12

>  <pose>  (12) 
[-0.9826985369045519, 5.3132357344198144, 7.529506363507298, 3.7302327763081964, 0.22734597330458003, 2.3544757956514655, 1.8548098965349185, -9.524415634492012, -5.827738410228623, -10.001242795767673, -0.6397549745070026, 10.497780743283911, -0.08060519304045052, 0.006392040290842765, -0.42036055920957716, -0.572237030858356, 5.184710249628888, -1.5782088068335052]

>  <energy>  (12) 
-678.5277201774973

>  <inter_energy>  (12) 
-683.10440164602

>  <intra_energy>  (12) 
13.178452734141125

>  <rmsd>  (12) 
7.76043

>  <sdf_rank>  (12) 
0

$$$$

     RDKit          3D

 69 73  0  0  0  0  0  0  0  0999 V2000
    4.2508    2.0987   19.2170 C   0  0  0  0  0  0  0  0  0  0  0  0
   -2.2361    8.0530    8.9223 C   0  0  2  0  0  0  0  0  0  0  0  0
    6.0231    3.4726   18.3171 C   0  0  0  0  0  0  0  0  0  0  0  0
    4.8873    2.6640   18.1151 C   0  0  0  0  0  0  0  0  0  0  0  0
    1.2052    3.9066   18.0352 C   0  0  2  0  0  0  0  0  0  0  0  0
   -1.0864    7.9000    4.6913 C   0  0  0  0  0  0  0  0  0  0  0  0
   -3.3332    8.9457    9.4555 C   0  0  1  0  0  0  0  0  0  0  0  0
    1.1948    2.5661   18.7844 C   0  0  1  0  0  0  0  0  0  0  0  0
    4.7003    2.3314   20.5010 C   0  0  0  0  0  0  0  0  0  0  0  0
   -2.9763    9.0400   10.9564 C   0  0  1  0  0  0  0  0  0  0  0  0
   -0.2773    2.0984   18.5384 C   0  0  1  0  0  0  0  0  0  0  0  0
   -2.2655    7.1269    6.5891 C   0  0  0  0  0  0  0  0  0  0  0  0
   -2.3078    7.7139   11.2476 C   0  0  1  0  0  0  0  0  0  0  0  0
   -0.6321    2.7773   17.2201 C   0  0  1  0  0  0  0  0  0  0  0  0
   -2.8166    6.1364    5.8776 C   0  0  0  0  0  0  0  0  0  0  0  0
   -3.1800    6.8482   12.1558 C   0  0  0  0  0  0  0  0  0  0  0  0
   -2.1513    2.9145   17.0912 C   0  0  0  0  0  0  0  0  0  0  0  0
   -2.4890    6.0261    4.5664 C   0  0  0  0  0  0  0  0  0  0  0  0
    3.1252    1.2984   19.0244 C   0  0  0  0  0  0  0  0  0  0  0  0
    5.8249    3.1224   20.7142 C   0  0  0  0  0  0  0  0  0  0  0  0
   -3.5563    6.0299    7.9430 C   0  0  0  0  0  0  0  0  0  0  0  0
    6.4693    3.6869   19.6417 C   0  0  0  0  0  0  0  0  0  0  0  0
   -1.6438    6.8518    3.9626 N   0  0  0  0  0  0  0  0  0  0  0  0
   -1.4012    8.0088    6.0268 N   0  0  0  0  0  0  0  0  0  0  0  0
   -3.0089    5.0512    3.8507 N   0  0  0  0  0  0  0  0  0  0  0  0
   -3.6362    5.4514    6.7340 N   0  0  0  0  0  0  0  0  0  0  0  0
   -2.7542    7.0959    7.8407 N   0  0  0  0  0  0  0  0  0  0  0  0
   -5.5505    6.6636   14.3993 O   0  0  0  0  0  0  0  0  0  0  0  0
   -2.0534    5.9472   16.7431 O   0  0  0  0  0  0  0  0  0  0  0  0
    1.5909    4.9350   18.9255 O   0  0  0  0  0  0  0  0  0  0  0  0
   -3.1833   10.2006    8.8142 O   0  0  0  0  0  0  0  0  0  0  0  0
   -3.7105    7.9276   15.6971 O   0  0  0  0  0  0  0  0  0  0  0  0
   -1.0225    5.1374   14.5007 O   0  0  0  0  0  0  0  0  0  0  0  0
    2.1772    1.7498   18.1602 O   0  0  0  0  0  0  0  0  0  0  0  0
   -2.0111   10.0505   11.1947 O   0  0  0  0  0  0  0  0  0  0  0  0
   -3.4710    5.4896   14.7612 O   0  0  0  0  0  0  0  0  0  0  0  0
   -0.2997    0.7090   18.4239 O   0  0  0  0  0  0  0  0  0  0  0  0
   -2.1714    7.0275    9.9723 O   0  0  0  0  0  0  0  0  0  0  0  0
   -0.1756    4.1009   17.4670 O   0  0  0  0  0  0  0  0  0  0  0  0
   -3.5148    7.6270   13.3102 O   0  0  0  0  0  0  0  0  0  0  0  0
   -2.4197    3.5399   15.8149 O   0  0  0  0  0  0  0  0  0  0  0  0
    3.0638    0.2024   19.5635 O   0  0  0  0  0  0  0  0  0  0  0  0
   -4.1283    6.9736   14.6246 P   0  0  1  0  0  0  0  0  0  0  0  0
   -2.1523    5.1103   15.5199 P   0  0  2  0  0  0  0  0  0  0  0  0
   -1.3773    8.6689    8.6170 H   0  0  0  0  0  0  0  0  0  0  0  0
    6.5501    3.9264   17.4649 H   0  0  0  0  0  0  0  0  0  0  0  0
    4.5078    2.4813   17.0989 H   0  0  0  0  0  0  0  0  0  0  0  0
    1.9316    3.9250   17.2094 H   0  0  0  0  0  0  0  0  0  0  0  0
   -0.4109    8.6233    4.2111 H   0  0  0  0  0  0  0  0  0  0  0  0
   -4.3650    8.6002    9.2944 H   0  0  0  0  0  0  0  0  0  0  0  0
    1.4358    2.5663   19.8577 H   0  0  0  0  0  0  0  0  0  0  0  0
    4.1686    1.8908   21.3572 H   0  0  0  0  0  0  0  0  0  0  0  0
   -3.8650    9.2635   11.5649 H   0  0  0  0  0  0  0  0  0  0  0  0
   -0.9825    2.3552   19.3426 H   0  0  0  0  0  0  0  0  0  0  0  0
   -1.3423    7.8843   11.7464 H   0  0  0  0  0  0  0  0  0  0  0  0
   -0.2292    2.2487   16.3436 H   0  0  0  0  0  0  0  0  0  0  0  0
   -4.0968    6.5532   11.6243 H   0  0  0  0  0  0  0  0  0  0  0  0
   -2.6418    5.9352   12.4502 H   0  0  0  0  0  0  0  0  0  0  0  0
   -2.6237    1.9219   17.1308 H   0  0  0  0  0  0  0  0  0  0  0  0
   -2.5590    3.5192   17.9147 H   0  0  0  0  0  0  0  0  0  0  0  0
    6.1952    3.2943   21.7356 H   0  0  0  0  0  0  0  0  0  0  0  0
   -4.0620    5.6872    8.8578 H   0  0  0  0  0  0  0  0  0  0  0  0
    7.3520    4.3197   19.8164 H   0  0  0  0  0  0  0  0  0  0  0  0
   -2.7667    4.9583    2.8539 H   0  0  0  0  0  0  0  0  0  0  0  0
   -3.6580    4.3812    4.2876 H   0  0  0  0  0  0  0  0  0  0  0  0
    1.4746    4.6247   19.8584 H   0  0  0  0  0  0  0  0  0  0  0  0
   -3.0983   10.9122    9.4972 H   0  0  0  0  0  0  0  0  0  0  0  0
   -1.8948   10.1723   12.1702 H   0  0  0  0  0  0  0  0  0  0  0  0
   -0.3063    0.3036   19.3270 H   0  0  0  0  0  0  0  0  0  0  0  0
  1  4  1  0
  1  9  2  0
  1 19  1  0
  2  7  1  0
  2 27  1  0
  2 38  1  0
  3  4  2  0
  3 22  1  0
  5  8  1  0
  5 30  1  0
  5 39  1  0
  6 23  2  0
  6 24  1  0
  7 10  1  0
  7 31  1  0
  8 11  1  0
  8 34  1  0
  9 20  1  0
 10 13  1  0
 10 35  1  0
 11 14  1  0
 11 37  1  0
 12 15  1  0
 12 24  2  0
 12 27  1  0
 13 16  1  0
 13 38  1  0
 14 17  1  0
 14 39  1  0
 15 18  2  0
 15 26  1  0
 16 40  1  0
 17 41  1  0
 18 23  1  0
 18 25  1  0
 19 34  1  0
 19 42  2  0
 20 22  2  0
 21 26  2  0
 21 27  1  0
 28 43  2  0
 29 44  2  0
 43 32  1  1
 44 33  1  6
 36 43  1  0
 36 44  1  0
 40 43  1  0
 41 44  1  0
  2 45  1  6
  3 46  1  0
  4 47  1  0
  5 48  1  6
  6 49  1  0
  7 50  1  1
  8 51  1  1
  9 52  1  0
 10 53  1  1
 11 54  1  1
 13 55  1  1
 14 56  1  6
 16 57  1  0
 16 58  1  0
 17 59  1  0
 17 60  1  0
 20 61  1  0
 21 62  1  0
 22 63  1  0
 25 64  1  0
 25 65  1  0
 30 66  1  0
 31 67  1  0
 35 68  1  0
 37 69  1  0
M  CHG  2  32  -1  33  -1
M  END
>  <filename_input>  (13) 
7F51_BA7_docked.sdf

>  <pdb_id>  (13) 
7F51_BA7

>  <pose_rank>  (13) 
12

>  <num_atoms_heavy>  (13) 
44

>  <num_torsions>  (13) 
12

>  <pose>  (13) 
[-3.4710407195655995, 5.4896051354705095, 14.761240842570336, 0.8853082806219762, -2.9595017565997788, -0.9668015730191957, -6.167458055823519, -44.602948238290594, -31.24070597252351, 6.622364761332343, -6.869218910622478, -11.348444110189318, -5.392723942258757, -4.891219066058304, 2.1598814111010194, 5.710448732907372, 1.5856021835194076, 2.39547520881034]

>  <energy>  (13) 
-619.2406775441258

>  <inter_energy>  (13) 
-662.5786913843059

>  <intra_energy>  (13) 
47.71060587611918

>  <rmsd>  (13) 
13.0819

>  <sdf_rank>  (13) 
0

$$$$

     RDKit          3D

 69 73  0  0  0  0  0  0  0  0999 V2000
   -9.7753   13.0050   13.5592 C   0  0  0  0  0  0  0  0  0  0  0  0
   -3.5776    4.3897   15.8316 C   0  0  2  0  0  0  0  0  0  0  0  0
  -11.4602   12.2103   12.0205 C   0  0  0  0  0  0  0  0  0  0  0  0
  -10.3976   11.9443   12.9064 C   0  0  0  0  0  0  0  0  0  0  0  0
   -5.4051   12.8270   14.5215 C   0  0  2  0  0  0  0  0  0  0  0  0
    0.5794    3.9136   17.1507 C   0  0  0  0  0  0  0  0  0  0  0  0
   -3.0966    5.6720   16.4714 C   0  0  1  0  0  0  0  0  0  0  0  0
   -6.5932   13.1212   13.5939 C   0  0  1  0  0  0  0  0  0  0  0  0
  -10.1923   14.3069   13.3689 C   0  0  0  0  0  0  0  0  0  0  0  0
   -3.0093    6.6280   15.2601 C   0  0  1  0  0  0  0  0  0  0  0  0
   -5.9390   12.8971   12.1910 C   0  0  1  0  0  0  0  0  0  0  0  0
   -1.6493    3.1720   16.8811 C   0  0  0  0  0  0  0  0  0  0  0  0
   -2.6826    5.7085   14.1034 C   0  0  1  0  0  0  0  0  0  0  0  0
   -4.8270   11.8981   12.4920 C   0  0  1  0  0  0  0  0  0  0  0  0
   -1.3645    2.0101   17.4812 C   0  0  0  0  0  0  0  0  0  0  0  0
   -1.2618    5.9502   13.5955 C   0  0  0  0  0  0  0  0  0  0  0  0
   -3.7431   11.9769   11.4140 C   0  0  0  0  0  0  0  0  0  0  0  0
   -0.0995    1.8081   17.9256 C   0  0  0  0  0  0  0  0  0  0  0  0
   -8.7238   12.7488   14.4385 C   0  0  0  0  0  0  0  0  0  0  0  0
  -11.2359   14.5843   12.4915 C   0  0  0  0  0  0  0  0  0  0  0  0
   -3.4791    2.0081   16.8868 C   0  0  0  0  0  0  0  0  0  0  0  0
  -11.8614   13.5536   11.8352 C   0  0  0  0  0  0  0  0  0  0  0  0
    0.8629    2.7125   17.7968 N   0  0  0  0  0  0  0  0  0  0  0  0
   -0.7064    4.1329   16.7114 N   0  0  0  0  0  0  0  0  0  0  0  0
    0.1995    0.6778   18.5307 N   0  0  0  0  0  0  0  0  0  0  0  0
   -2.5201    1.2758   17.4756 N   0  0  0  0  0  0  0  0  0  0  0  0
   -2.9291    3.1547   16.4710 N   0  0  0  0  0  0  0  0  0  0  0  0
   -0.0548    7.7873   10.5396 O   0  0  0  0  0  0  0  0  0  0  0  0
   -3.5280    8.8225   12.5927 O   0  0  0  0  0  0  0  0  0  0  0  0
   -5.1751   13.9467   15.3535 O   0  0  0  0  0  0  0  0  0  0  0  0
   -4.1101    6.0807   17.3737 O   0  0  0  0  0  0  0  0  0  0  0  0
    0.7706    7.6431   12.9821 O   0  0  0  0  0  0  0  0  0  0  0  0
   -2.6695    9.3012   10.1884 O   0  0  0  0  0  0  0  0  0  0  0  0
   -7.6030   12.1762   13.9232 O   0  0  0  0  0  0  0  0  0  0  0  0
   -4.2669    7.2178   14.9767 O   0  0  0  0  0  0  0  0  0  0  0  0
   -1.1274    9.2446   12.1393 O   0  0  0  0  0  0  0  0  0  0  0  0
   -6.8916   12.3610   11.3256 O   0  0  0  0  0  0  0  0  0  0  0  0
   -2.7475    4.3502   14.6201 O   0  0  0  0  0  0  0  0  0  0  0  0
   -4.2323   12.4938   13.6378 O   0  0  0  0  0  0  0  0  0  0  0  0
   -1.3560    6.6811   12.3675 O   0  0  0  0  0  0  0  0  0  0  0  0
   -2.6361   11.1578   11.8567 O   0  0  0  0  0  0  0  0  0  0  0  0
   -8.8078   13.1125   15.6031 O   0  0  0  0  0  0  0  0  0  0  0  0
   -0.3280    7.8338   11.9861 P   0  0  1  0  0  0  0  0  0  0  0  0
   -2.5983    9.5469   11.6886 P   0  0  2  0  0  0  0  0  0  0  0  0
   -4.6774    4.3758   15.8187 H   0  0  0  0  0  0  0  0  0  0  0  0
  -11.9658   11.3927   11.4857 H   0  0  0  0  0  0  0  0  0  0  0  0
  -10.0635   10.9108   13.0803 H   0  0  0  0  0  0  0  0  0  0  0  0
   -5.5924   11.9765   15.1935 H   0  0  0  0  0  0  0  0  0  0  0  0
    1.3642    4.6686   16.9953 H   0  0  0  0  0  0  0  0  0  0  0  0
   -2.1480    5.6151   17.0254 H   0  0  0  0  0  0  0  0  0  0  0  0
   -7.0700   14.1106   13.6546 H   0  0  0  0  0  0  0  0  0  0  0  0
   -9.6987   15.1265   13.9117 H   0  0  0  0  0  0  0  0  0  0  0  0
   -2.2840    7.4353   15.4399 H   0  0  0  0  0  0  0  0  0  0  0  0
   -5.5598   13.8100   11.7086 H   0  0  0  0  0  0  0  0  0  0  0  0
   -3.3859    5.8850   13.2762 H   0  0  0  0  0  0  0  0  0  0  0  0
   -5.1918   10.8641   12.5800 H   0  0  0  0  0  0  0  0  0  0  0  0
   -0.6936    6.5330   14.3356 H   0  0  0  0  0  0  0  0  0  0  0  0
   -0.7423    4.9939   13.4355 H   0  0  0  0  0  0  0  0  0  0  0  0
   -4.1340   11.5970   10.4585 H   0  0  0  0  0  0  0  0  0  0  0  0
   -3.4209   13.0174   11.2608 H   0  0  0  0  0  0  0  0  0  0  0  0
  -11.5578   15.6229   12.3249 H   0  0  0  0  0  0  0  0  0  0  0  0
   -4.5329    1.7163   16.7671 H   0  0  0  0  0  0  0  0  0  0  0  0
  -12.6926   13.7774   11.1504 H   0  0  0  0  0  0  0  0  0  0  0  0
    1.1574    0.5143   18.8721 H   0  0  0  0  0  0  0  0  0  0  0  0
   -0.5244   -0.0429   18.6626 H   0  0  0  0  0  0  0  0  0  0  0  0
   -5.2320   13.6700   16.3024 H   0  0  0  0  0  0  0  0  0  0  0  0
   -3.7950    5.9536   18.3036 H   0  0  0  0  0  0  0  0  0  0  0  0
   -4.7285    7.4343   15.8253 H   0  0  0  0  0  0  0  0  0  0  0  0
   -7.6220   11.9500   11.8525 H   0  0  0  0  0  0  0  0  0  0  0  0
  1  4  1  0
  1  9  2  0
  1 19  1  0
  2  7  1  0
  2 27  1  0
  2 38  1  0
  3  4  2  0
  3 22  1  0
  5  8  1  0
  5 30  1  0
  5 39  1  0
  6 23  2  0
  6 24  1  0
  7 10  1  0
  7 31  1  0
  8 11  1  0
  8 34  1  0
  9 20  1  0
 10 13  1  0
 10 35  1  0
 11 14  1  0
 11 37  1  0
 12 15  1  0
 12 24  2  0
 12 27  1  0
 13 16  1  0
 13 38  1  0
 14 17  1  0
 14 39  1  0
 15 18  2  0
 15 26  1  0
 16 40  1  0
 17 41  1  0
 18 23  1  0
 18 25  1  0
 19 34  1  0
 19 42  2  0
 20 22  2  0
 21 26  2  0
 21 27  1  0
 28 43  2  0
 29 44  2  0
 43 32  1  1
 44 33  1  6
 36 43  1  0
 36 44  1  0
 40 43  1  0
 41 44  1  0
  2 45  1  6
  3 46  1  0
  4 47  1  0
  5 48  1  1
  6 49  1  0
  7 50  1  1
  8 51  1  6
  9 52  1  0
 10 53  1  1
 11 54  1  6
 13 55  1  6
 14 56  1  1
 16 57  1  0
 16 58  1  0
 17 59  1  0
 17 60  1  0
 20 61  1  0
 21 62  1  0
 22 63  1  0
 25 64  1  0
 25 65  1  0
 30 66  1  0
 31 67  1  0
 35 68  1  0
 37 69  1  0
M  CHG  2  32  -1  33  -1
M  END
>  <filename_input>  (14) 
7F51_BA7_docked.sdf

>  <pdb_id>  (14) 
7F51_BA7

>  <pose_rank>  (14) 
13

>  <num_atoms_heavy>  (14) 
44

>  <num_torsions>  (14) 
12

>  <pose>  (14) 
[-1.1273748632548992, 9.244585616079895, 12.139327457019485, 2.5069275683083663, 0.33865671547797105, 1.1748744918151042, -2.187874421905829, -3.0779372172681327, -0.7395221499618932, -0.556987136201904, 2.9783837466805045, 1.8146097199889155, -0.01796359482545763, -2.1921855380867075, 1.997432376694768, -0.7103043174378187, -1.4660178970410789, -2.009861297308641]

>  <energy>  (14) 
-578.511631265744

>  <inter_energy>  (14) 
-619.2982430895986

>  <intra_energy>  (14) 
46.869305746283494

>  <rmsd>  (14) 
9.60281

>  <sdf_rank>  (14) 
0

$$$$

     RDKit          3D

 69 73  0  0  0  0  0  0  0  0999 V2000
   -0.3058    6.5875    0.4284 C   0  0  0  0  0  0  0  0  0  0  0  0
    5.5646    6.6637   12.3488 C   0  0  2  0  0  0  0  0  0  0  0  0
   -1.2018    6.6383   -1.8149 C   0  0  0  0  0  0  0  0  0  0  0  0
   -1.2350    7.0874   -0.4800 C   0  0  0  0  0  0  0  0  0  0  0  0
   -1.1914    5.8432    4.6589 C   0  0  2  0  0  0  0  0  0  0  0  0
    2.9274    9.0581   14.9098 C   0  0  0  0  0  0  0  0  0  0  0  0
    5.9335    5.2864   11.8469 C   0  0  1  0  0  0  0  0  0  0  0  0
   -0.0578    6.6647    4.0277 C   0  0  1  0  0  0  0  0  0  0  0  0
    0.6563    5.6769    0.0409 C   0  0  0  0  0  0  0  0  0  0  0  0
    7.3382    5.5235   11.2471 C   0  0  1  0  0  0  0  0  0  0  0  0
    1.1263    6.3303    4.9934 C   0  0  1  0  0  0  0  0  0  0  0  0
    3.4023    7.7688   12.9858 C   0  0  0  0  0  0  0  0  0  0  0  0
    7.2866    6.9607   10.7761 C   0  0  1  0  0  0  0  0  0  0  0  0
    0.7504    4.9513    5.5246 C   0  0  1  0  0  0  0  0  0  0  0  0
    2.1553    7.9385   12.5304 C   0  0  0  0  0  0  0  0  0  0  0  0
    7.3127    7.0386    9.2502 C   0  0  0  0  0  0  0  0  0  0  0  0
    1.4478    4.6950    6.8630 C   0  0  0  0  0  0  0  0  0  0  0  0
    1.2956    8.6822   13.2695 C   0  0  0  0  0  0  0  0  0  0  0  0
   -0.3319    7.0287    1.7510 C   0  0  0  0  0  0  0  0  0  0  0  0
    0.6960    5.2199   -1.2726 C   0  0  0  0  0  0  0  0  0  0  0  0
    3.2726    6.6929   11.1074 C   0  0  0  0  0  0  0  0  0  0  0  0
   -0.2128    5.6974   -2.1838 C   0  0  0  0  0  0  0  0  0  0  0  0
    1.6386    9.2518   14.4179 N   0  0  0  0  0  0  0  0  0  0  0  0
    3.8108    8.3181   14.1573 N   0  0  0  0  0  0  0  0  0  0  0  0
    0.0680    8.8731   12.8341 N   0  0  0  0  0  0  0  0  0  0  0  0
    2.0758    7.2515   11.3488 N   0  0  0  0  0  0  0  0  0  0  0  0
    4.0743    6.9657   12.1433 N   0  0  0  0  0  0  0  0  0  0  0  0
    7.4168    4.1560    7.0775 O   0  0  0  0  0  0  0  0  0  0  0  0
    3.7639    5.8102    8.6248 O   0  0  0  0  0  0  0  0  0  0  0  0
   -2.2720    6.7009    4.9681 O   0  0  0  0  0  0  0  0  0  0  0  0
    5.9985    4.4436   12.9843 O   0  0  0  0  0  0  0  0  0  0  0  0
    7.2964    6.6830    6.5607 O   0  0  0  0  0  0  0  0  0  0  0  0
    4.3222    3.3054    8.2235 O   0  0  0  0  0  0  0  0  0  0  0  0
    0.1102    6.1678    2.7064 O   0  0  0  0  0  0  0  0  0  0  0  0
    8.3436    5.4512   12.2439 O   0  0  0  0  0  0  0  0  0  0  0  0
    5.2168    5.0962    6.7470 O   0  0  0  0  0  0  0  0  0  0  0  0
    2.3128    6.2940    4.2623 O   0  0  0  0  0  0  0  0  0  0  0  0
    6.0147    7.5020   11.2295 O   0  0  0  0  0  0  0  0  0  0  0  0
   -0.6136    5.1574    5.8686 O   0  0  0  0  0  0  0  0  0  0  0  0
    6.6665    5.8655    8.7426 O   0  0  0  0  0  0  0  0  0  0  0  0
    2.8496    4.4752    6.5822 O   0  0  0  0  0  0  0  0  0  0  0  0
   -0.6674    8.1786    1.9978 O   0  0  0  0  0  0  0  0  0  0  0  0
    6.7373    5.4562    7.2069 P   0  0  1  0  0  0  0  0  0  0  0  0
    4.0217    4.6943    7.6789 P   0  0  2  0  0  0  0  0  0  0  0  0
    5.9190    6.7848   13.3831 H   0  0  0  0  0  0  0  0  0  0  0  0
   -1.9279    7.0107   -2.5526 H   0  0  0  0  0  0  0  0  0  0  0  0
   -1.9861    7.8243   -0.1592 H   0  0  0  0  0  0  0  0  0  0  0  0
   -1.5905    5.0777    3.9772 H   0  0  0  0  0  0  0  0  0  0  0  0
    3.2316    9.4862   15.8764 H   0  0  0  0  0  0  0  0  0  0  0  0
    5.2435    4.8302   11.1218 H   0  0  0  0  0  0  0  0  0  0  0  0
   -0.1934    7.7519    3.9297 H   0  0  0  0  0  0  0  0  0  0  0  0
    1.3929    5.3119    0.7718 H   0  0  0  0  0  0  0  0  0  0  0  0
    7.5711    4.7808   10.4699 H   0  0  0  0  0  0  0  0  0  0  0  0
    1.2816    7.0601    5.8016 H   0  0  0  0  0  0  0  0  0  0  0  0
    8.1514    7.5142   11.1707 H   0  0  0  0  0  0  0  0  0  0  0  0
    0.9868    4.1411    4.8191 H   0  0  0  0  0  0  0  0  0  0  0  0
    6.7766    7.9375    8.9118 H   0  0  0  0  0  0  0  0  0  0  0  0
    8.3488    7.0958    8.8853 H   0  0  0  0  0  0  0  0  0  0  0  0
    1.3282    5.5670    7.5228 H   0  0  0  0  0  0  0  0  0  0  0  0
    1.0104    3.8219    7.3693 H   0  0  0  0  0  0  0  0  0  0  0  0
    1.4507    4.4806   -1.5789 H   0  0  0  0  0  0  0  0  0  0  0  0
    3.5462    6.1124   10.2140 H   0  0  0  0  0  0  0  0  0  0  0  0
   -0.1708    5.3405   -3.2235 H   0  0  0  0  0  0  0  0  0  0  0  0
   -0.5931    9.4364   13.3878 H   0  0  0  0  0  0  0  0  0  0  0  0
   -0.2314    8.4592   11.9397 H   0  0  0  0  0  0  0  0  0  0  0  0
   -2.3644    6.7742    5.9511 H   0  0  0  0  0  0  0  0  0  0  0  0
    5.9561    4.9943   13.8059 H   0  0  0  0  0  0  0  0  0  0  0  0
    7.9231    5.4815   13.1396 H   0  0  0  0  0  0  0  0  0  0  0  0
    3.0829    6.2705    4.8840 H   0  0  0  0  0  0  0  0  0  0  0  0
  1  4  1  0
  1  9  2  0
  1 19  1  0
  2  7  1  0
  2 27  1  0
  2 38  1  0
  3  4  2  0
  3 22  1  0
  5  8  1  0
  5 30  1  0
  5 39  1  0
  6 23  2  0
  6 24  1  0
  7 10  1  0
  7 31  1  0
  8 11  1  0
  8 34  1  0
  9 20  1  0
 10 13  1  0
 10 35  1  0
 11 14  1  0
 11 37  1  0
 12 15  1  0
 12 24  2  0
 12 27  1  0
 13 16  1  0
 13 38  1  0
 14 17  1  0
 14 39  1  0
 15 18  2  0
 15 26  1  0
 16 40  1  0
 17 41  1  0
 18 23  1  0
 18 25  1  0
 19 34  1  0
 19 42  2  0
 20 22  2  0
 21 26  2  0
 21 27  1  0
 28 43  2  0
 29 44  2  0
 43 32  1  6
 44 33  1  1
 36 43  1  0
 36 44  1  0
 40 43  1  0
 41 44  1  0
  2 45  1  1
  3 46  1  0
  4 47  1  0
  5 48  1  6
  6 49  1  0
  7 50  1  6
  8 51  1  6
  9 52  1  0
 10 53  1  6
 11 54  1  1
 13 55  1  1
 14 56  1  6
 16 57  1  0
 16 58  1  0
 17 59  1  0
 17 60  1  0
 20 61  1  0
 21 62  1  0
 22 63  1  0
 25 64  1  0
 25 65  1  0
 30 66  1  0
 31 67  1  0
 35 68  1  0
 37 69  1  0
M  CHG  2  32  -1  33  -1
M  END
>  <filename_input>  (15) 
7F51_BA7_docked.sdf

>  <pdb_id>  (15) 
7F51_BA7

>  <pose_rank>  (15) 
14

>  <num_atoms_heavy>  (15) 
44

>  <num_torsions>  (15) 
12

>  <pose>  (15) 
[5.216833833877923, 5.096229148435478, 6.747027020698324, -2.157694970609508, -3.9962461611561904, 0.2528808650978732, -1.825531628037141, -3.520900267069073, 0.13234400442457975, 1.808913427591088, -0.06012736197297257, -4.6511555919560195, 0.6318010730273526, -0.8621863933919982, -2.263537282925188, -0.8350093481904757, 0.08366144691454884, -0.46483597691909945]

>  <energy>  (15) 
-540.073015949439

>  <inter_energy>  (15) 
-580.8216582649012

>  <intra_energy>  (15) 
41.46471855571481

>  <rmsd>  (15) 
7.90169

>  <sdf_rank>  (15) 
0

$$$$

     RDKit          3D

 69 73  0  0  0  0  0  0  0  0999 V2000
   -0.4922    6.4059    0.4352 C   0  0  0  0  0  0  0  0  0  0  0  0
   -1.1360    8.0712   12.9365 C   0  0  2  0  0  0  0  0  0  0  0  0
   -1.1363    6.7959   -1.8607 C   0  0  0  0  0  0  0  0  0  0  0  0
   -1.3559    6.9962   -0.4836 C   0  0  0  0  0  0  0  0  0  0  0  0
    1.3076    4.4343    3.3520 C   0  0  2  0  0  0  0  0  0  0  0  0
   -4.2964   11.0753   13.4192 C   0  0  0  0  0  0  0  0  0  0  0  0
   -1.0321    7.7490   11.4633 C   0  0  1  0  0  0  0  0  0  0  0  0
    0.2148    5.4809    3.6148 C   0  0  1  0  0  0  0  0  0  0  0  0
    0.5832    5.6461    0.0215 C   0  0  0  0  0  0  0  0  0  0  0  0
   -0.2767    6.4006   11.4769 C   0  0  1  0  0  0  0  0  0  0  0  0
    0.5878    5.9447    5.0613 C   0  0  1  0  0  0  0  0  0  0  0  0
   -2.0404   10.3688   13.3894 C   0  0  0  0  0  0  0  0  0  0  0  0
    0.5896    6.4900   12.7145 C   0  0  1  0  0  0  0  0  0  0  0  0
    2.0894    5.6873    5.1224 C   0  0  1  0  0  0  0  0  0  0  0  0
   -1.6211   11.6024   13.6954 C   0  0  0  0  0  0  0  0  0  0  0  0
    2.0680    6.5949   12.3421 C   0  0  0  0  0  0  0  0  0  0  0  0
    2.5387    5.5379    6.5781 C   0  0  0  0  0  0  0  0  0  0  0  0
   -2.5512   12.5730   13.8728 C   0  0  0  0  0  0  0  0  0  0  0  0
   -0.7029    6.6011    1.7998 C   0  0  0  0  0  0  0  0  0  0  0  0
    0.8076    5.4347   -1.3353 C   0  0  0  0  0  0  0  0  0  0  0  0
    0.1249   10.2879   13.4764 C   0  0  0  0  0  0  0  0  0  0  0  0
   -0.0337    6.0049   -2.2580 C   0  0  0  0  0  0  0  0  0  0  0  0
   -3.8548   12.3512   13.7622 N   0  0  0  0  0  0  0  0  0  0  0  0
   -3.3594   10.0809   13.2536 N   0  0  0  0  0  0  0  0  0  0  0  0
   -2.1619   13.7906   14.1873 N   0  0  0  0  0  0  0  0  0  0  0  0
   -0.2539   11.5484   13.7416 N   0  0  0  0  0  0  0  0  0  0  0  0
   -0.9731    9.5731   13.2050 N   0  0  0  0  0  0  0  0  0  0  0  0
    2.7341    4.2077    9.7338 O   0  0  0  0  0  0  0  0  0  0  0  0
    5.1214    4.1571    8.2537 O   0  0  0  0  0  0  0  0  0  0  0  0
    0.7012    3.1989    3.0280 O   0  0  0  0  0  0  0  0  0  0  0  0
   -2.3576    7.5881   10.9883 O   0  0  0  0  0  0  0  0  0  0  0  0
    4.2923    5.2890   11.4861 O   0  0  0  0  0  0  0  0  0  0  0  0
    6.0490    6.5365    7.7797 O   0  0  0  0  0  0  0  0  0  0  0  0
    0.3744    6.4857    2.6218 O   0  0  0  0  0  0  0  0  0  0  0  0
   -1.1654    5.3134   11.6722 O   0  0  0  0  0  0  0  0  0  0  0  0
    3.9378    6.1859    9.0474 O   0  0  0  0  0  0  0  0  0  0  0  0
    0.2925    7.3008    5.1941 O   0  0  0  0  0  0  0  0  0  0  0  0
    0.2129    7.7174   13.3985 O   0  0  0  0  0  0  0  0  0  0  0  0
    2.1591    4.3699    4.5923 O   0  0  0  0  0  0  0  0  0  0  0  0
    2.1842    6.3296   10.9394 O   0  0  0  0  0  0  0  0  0  0  0  0
    3.9564    5.8215    6.6218 O   0  0  0  0  0  0  0  0  0  0  0  0
   -1.8078    6.9422    2.1978 O   0  0  0  0  0  0  0  0  0  0  0  0
    3.3346    5.4062   10.3440 P   0  0  1  0  0  0  0  0  0  0  0  0
    4.8705    5.5869    7.9385 P   0  0  2  0  0  0  0  0  0  0  0  0
   -2.0566    7.6290   13.3451 H   0  0  0  0  0  0  0  0  0  0  0  0
   -1.8066    7.2442   -2.6089 H   0  0  0  0  0  0  0  0  0  0  0  0
   -2.1998    7.6116   -0.1383 H   0  0  0  0  0  0  0  0  0  0  0  0
    1.9490    4.6965    2.4978 H   0  0  0  0  0  0  0  0  0  0  0  0
   -5.3681   10.8677   13.2838 H   0  0  0  0  0  0  0  0  0  0  0  0
   -0.5318    8.4995   10.8337 H   0  0  0  0  0  0  0  0  0  0  0  0
   -0.8366    5.1624    3.5602 H   0  0  0  0  0  0  0  0  0  0  0  0
    1.2639    5.2070    0.7656 H   0  0  0  0  0  0  0  0  0  0  0  0
    0.2645    6.2365   10.5334 H   0  0  0  0  0  0  0  0  0  0  0  0
    0.0433    5.4280    5.8653 H   0  0  0  0  0  0  0  0  0  0  0  0
    0.4467    5.5936   13.3357 H   0  0  0  0  0  0  0  0  0  0  0  0
    2.6796    6.4731    4.6282 H   0  0  0  0  0  0  0  0  0  0  0  0
    2.4393    7.6062   12.5640 H   0  0  0  0  0  0  0  0  0  0  0  0
    2.6629    5.8731   12.9210 H   0  0  0  0  0  0  0  0  0  0  0  0
    1.9927    6.2490    7.2155 H   0  0  0  0  0  0  0  0  0  0  0  0
    2.3331    4.5222    6.9470 H   0  0  0  0  0  0  0  0  0  0  0  0
    1.6537    4.8146   -1.6663 H   0  0  0  0  0  0  0  0  0  0  0  0
    1.1576    9.9091   13.4812 H   0  0  0  0  0  0  0  0  0  0  0  0
    0.1540    5.8430   -3.3297 H   0  0  0  0  0  0  0  0  0  0  0  0
   -2.8602   14.5353   14.3243 H   0  0  0  0  0  0  0  0  0  0  0  0
   -1.1590   13.9986   14.2964 H   0  0  0  0  0  0  0  0  0  0  0  0
    0.4654    2.7185    3.8609 H   0  0  0  0  0  0  0  0  0  0  0  0
   -2.9768    7.5130   11.7571 H   0  0  0  0  0  0  0  0  0  0  0  0
   -1.2908    5.1600   12.6422 H   0  0  0  0  0  0  0  0  0  0  0  0
    0.2416    7.5348    6.1547 H   0  0  0  0  0  0  0  0  0  0  0  0
  1  4  1  0
  1  9  2  0
  1 19  1  0
  2  7  1  0
  2 27  1  0
  2 38  1  0
  3  4  2  0
  3 22  1  0
  5  8  1  0
  5 30  1  0
  5 39  1  0
  6 23  2  0
  6 24  1  0
  7 10  1  0
  7 31  1  0
  8 11  1  0
  8 34  1  0
  9 20  1  0
 10 13  1  0
 10 35  1  0
 11 14  1  0
 11 37  1  0
 12 15  1  0
 12 24  2  0
 12 27  1  0
 13 16  1  0
 13 38  1  0
 14 17  1  0
 14 39  1  0
 15 18  2  0
 15 26  1  0
 16 40  1  0
 17 41  1  0
 18 23  1  0
 18 25  1  0
 19 34  1  0
 19 42  2  0
 20 22  2  0
 21 26  2  0
 21 27  1  0
 28 43  2  0
 29 44  2  0
 43 32  1  1
 44 33  1  6
 36 43  1  0
 36 44  1  0
 40 43  1  0
 41 44  1  0
  2 45  1  1
  3 46  1  0
  4 47  1  0
  5 48  1  6
  6 49  1  0
  7 50  1  6
  8 51  1  1
  9 52  1  0
 10 53  1  6
 11 54  1  1
 13 55  1  1
 14 56  1  6
 16 57  1  0
 16 58  1  0
 17 59  1  0
 17 60  1  0
 20 61  1  0
 21 62  1  0
 22 63  1  0
 25 64  1  0
 25 65  1  0
 30 66  1  0
 31 67  1  0
 35 68  1  0
 37 69  1  0
M  CHG  2  32  -1  33  -1
M  END
>  <filename_input>  (16) 
7F51_BA7_docked.sdf

>  <pdb_id>  (16) 
7F51_BA7

>  <pose_rank>  (16) 
15

>  <num_atoms_heavy>  (16) 
44

>  <num_torsions>  (16) 
12

>  <pose>  (16) 
[3.9378026591684283, 6.185851439566855, 9.047405291745134, 0.19676819490980849, 0.2734232928026279, 2.2913200875244386, 1.9244930492875705, 2.730348570183804, 6.963355086313388, 1.08451475988057, -0.9400567192784783, 6.868000694144424, 2.483213442008813, -0.3183434073088131, 2.5259641004389937, 11.892349235974303, 13.594371926532327, 6.76232150147152]

>  <energy>  (16) 
-623.9277154176999

>  <inter_energy>  (16) 
-629.0792749495791

>  <intra_energy>  (16) 
14.296572068738872

>  <rmsd>  (16) 
6.78195

>  <sdf_rank>  (16) 
0

$$$$

     RDKit          3D

 69 73  0  0  0  0  0  0  0  0999 V2000
    3.0041    3.4959    5.0244 C   0  0  0  0  0  0  0  0  0  0  0  0
   -3.4200    6.7269    9.1766 C   0  0  2  0  0  0  0  0  0  0  0  0
    3.8437    3.1511    7.2637 C   0  0  0  0  0  0  0  0  0  0  0  0
    3.6754    3.9860    6.1415 C   0  0  0  0  0  0  0  0  0  0  0  0
   -0.5453    4.9752    4.3506 C   0  0  2  0  0  0  0  0  0  0  0  0
   -3.6515    5.5630   13.4002 C   0  0  0  0  0  0  0  0  0  0  0  0
   -4.3062    7.4886    8.2178 C   0  0  1  0  0  0  0  0  0  0  0  0
    0.5894    4.6036    3.3848 C   0  0  1  0  0  0  0  0  0  0  0  0
    2.4857    2.2169    5.0044 C   0  0  0  0  0  0  0  0  0  0  0  0
   -3.7837    7.0130    6.8431 C   0  0  1  0  0  0  0  0  0  0  0  0
    0.0926    5.2820    2.0659 C   0  0  1  0  0  0  0  0  0  0  0  0
   -3.1201    7.0576   11.6471 C   0  0  0  0  0  0  0  0  0  0  0  0
   -2.3205    6.7239    7.0987 C   0  0  1  0  0  0  0  0  0  0  0  0
   -0.7613    6.4360    2.5800 C   0  0  1  0  0  0  0  0  0  0  0  0
   -2.6615    7.9624   12.5202 C   0  0  0  0  0  0  0  0  0  0  0  0
   -1.4285    7.7364    6.3815 C   0  0  0  0  0  0  0  0  0  0  0  0
   -1.7665    6.8648    1.5081 C   0  0  0  0  0  0  0  0  0  0  0  0
   -2.6919    7.6558   13.8407 C   0  0  0  0  0  0  0  0  0  0  0  0
    2.8327    4.3173    3.9107 C   0  0  0  0  0  0  0  0  0  0  0  0
    2.6508    1.3796    6.1032 C   0  0  0  0  0  0  0  0  0  0  0  0
   -2.4727    8.7716   10.4870 C   0  0  0  0  0  0  0  0  0  0  0  0
    3.3122    1.8417    7.2138 C   0  0  0  0  0  0  0  0  0  0  0  0
   -3.1495    6.4988   14.3018 N   0  0  0  0  0  0  0  0  0  0  0  0
   -3.6090    5.8601   12.0570 N   0  0  0  0  0  0  0  0  0  0  0  0
   -2.2336    8.5256   14.7162 N   0  0  0  0  0  0  0  0  0  0  0  0
   -2.2612    9.0453   11.7843 N   0  0  0  0  0  0  0  0  0  0  0  0
   -3.0530    7.5687   10.4059 N   0  0  0  0  0  0  0  0  0  0  0  0
   -0.3941   10.2736    5.1752 O   0  0  0  0  0  0  0  0  0  0  0  0
   -0.9781   10.7160    1.6698 O   0  0  0  0  0  0  0  0  0  0  0  0
   -1.0875    3.7948    4.9088 O   0  0  0  0  0  0  0  0  0  0  0  0
   -5.6309    7.0393    8.4451 O   0  0  0  0  0  0  0  0  0  0  0  0
   -2.8802   10.8187    4.7394 O   0  0  0  0  0  0  0  0  0  0  0  0
   -3.3305    9.6303    1.8548 O   0  0  0  0  0  0  0  0  0  0  0  0
    1.7760    5.1734    3.9216 O   0  0  0  0  0  0  0  0  0  0  0  0
   -4.3857    5.7886    6.4580 O   0  0  0  0  0  0  0  0  0  0  0  0
   -1.4890    9.0322    3.4164 O   0  0  0  0  0  0  0  0  0  0  0  0
    1.1959    5.7392    1.3465 O   0  0  0  0  0  0  0  0  0  0  0  0
   -2.1096    6.8773    8.5298 O   0  0  0  0  0  0  0  0  0  0  0  0
   -1.5488    5.7729    3.5605 O   0  0  0  0  0  0  0  0  0  0  0  0
   -2.2723    8.7719    5.8648 O   0  0  0  0  0  0  0  0  0  0  0  0
   -1.4189    8.2102    1.1064 O   0  0  0  0  0  0  0  0  0  0  0  0
    3.6646    4.3013    3.0144 O   0  0  0  0  0  0  0  0  0  0  0  0
   -1.7524    9.8396    4.8063 P   0  0  1  0  0  0  0  0  0  0  0  0
   -1.8163    9.5256    1.9646 P   0  0  2  0  0  0  0  0  0  0  0  0
   -3.8789    5.7541    9.4070 H   0  0  0  0  0  0  0  0  0  0  0  0
    4.3759    3.5092    8.1573 H   0  0  0  0  0  0  0  0  0  0  0  0
    4.0696    5.0129    6.1477 H   0  0  0  0  0  0  0  0  0  0  0  0
   -0.1984    5.5858    5.1973 H   0  0  0  0  0  0  0  0  0  0  0  0
   -4.0718    4.6097   13.7532 H   0  0  0  0  0  0  0  0  0  0  0  0
   -4.2961    8.5847    8.3099 H   0  0  0  0  0  0  0  0  0  0  0  0
    0.8088    3.5379    3.2231 H   0  0  0  0  0  0  0  0  0  0  0  0
    1.9411    1.8590    4.1182 H   0  0  0  0  0  0  0  0  0  0  0  0
   -3.9873    7.7574    6.0592 H   0  0  0  0  0  0  0  0  0  0  0  0
   -0.4665    4.6190    1.3893 H   0  0  0  0  0  0  0  0  0  0  0  0
   -2.0701    5.7162    6.7355 H   0  0  0  0  0  0  0  0  0  0  0  0
   -0.1635    7.3024    2.8995 H   0  0  0  0  0  0  0  0  0  0  0  0
   -0.7024    8.1632    7.0891 H   0  0  0  0  0  0  0  0  0  0  0  0
   -0.8724    7.2503    5.5664 H   0  0  0  0  0  0  0  0  0  0  0  0
   -1.7075    6.1868    0.6439 H   0  0  0  0  0  0  0  0  0  0  0  0
   -2.7935    6.8285    1.9004 H   0  0  0  0  0  0  0  0  0  0  0  0
    2.2540    0.3539    6.0821 H   0  0  0  0  0  0  0  0  0  0  0  0
   -2.2140    9.4226    9.6389 H   0  0  0  0  0  0  0  0  0  0  0  0
    3.4312    1.1791    8.0837 H   0  0  0  0  0  0  0  0  0  0  0  0
   -2.2520    8.3027   15.7216 H   0  0  0  0  0  0  0  0  0  0  0  0
   -1.8567    9.4290   14.3958 H   0  0  0  0  0  0  0  0  0  0  0  0
   -1.0602    3.8541    5.8967 H   0  0  0  0  0  0  0  0  0  0  0  0
   -5.7976    6.9828    9.4193 H   0  0  0  0  0  0  0  0  0  0  0  0
   -4.6377    5.2761    7.2666 H   0  0  0  0  0  0  0  0  0  0  0  0
    1.9020    6.0318    1.9757 H   0  0  0  0  0  0  0  0  0  0  0  0
  1  4  1  0
  1  9  2  0
  1 19  1  0
  2  7  1  0
  2 27  1  0
  2 38  1  0
  3  4  2  0
  3 22  1  0
  5  8  1  0
  5 30  1  0
  5 39  1  0
  6 23  2  0
  6 24  1  0
  7 10  1  0
  7 31  1  0
  8 11  1  0
  8 34  1  0
  9 20  1  0
 10 13  1  0
 10 35  1  0
 11 14  1  0
 11 37  1  0
 12 15  1  0
 12 24  2  0
 12 27  1  0
 13 16  1  0
 13 38  1  0
 14 17  1  0
 14 39  1  0
 15 18  2  0
 15 26  1  0
 16 40  1  0
 17 41  1  0
 18 23  1  0
 18 25  1  0
 19 34  1  0
 19 42  2  0
 20 22  2  0
 21 26  2  0
 21 27  1  0
 28 43  2  0
 29 44  2  0
 43 32  1  6
 44 33  1  1
 36 43  1  0
 36 44  1  0
 40 43  1  0
 41 44  1  0
  2 45  1  1
  3 46  1  0
  4 47  1  0
  5 48  1  1
  6 49  1  0
  7 50  1  6
  8 51  1  6
  9 52  1  0
 10 53  1  6
 11 54  1  6
 13 55  1  6
 14 56  1  1
 16 57  1  0
 16 58  1  0
 17 59  1  0
 17 60  1  0
 20 61  1  0
 21 62  1  0
 22 63  1  0
 25 64  1  0
 25 65  1  0
 30 66  1  0
 31 67  1  0
 35 68  1  0
 37 69  1  0
M  CHG  2  32  -1  33  -1
M  END
>  <filename_input>  (17) 
7F51_BA7_docked.sdf

>  <pdb_id>  (17) 
7F51_BA7

>  <pose_rank>  (17) 
16

>  <num_atoms_heavy>  (17) 
44

>  <num_torsions>  (17) 
12

>  <pose>  (17) 
[-1.4890438145402562, 9.032236358660732, 3.416424594917183, -2.447543888362371, 3.4408717083155023, 3.217789742128046, 0.9850738146773634, 6.269858625588867, 0.15463110095287644, 1.4253618553938303, -0.3187318990602174, 1.7023163547100872, -2.2756817645763907, 1.2899217239389547, -3.0006066427558475, -0.37346487038319526, 1.5850042795888157, -4.567954130481227]

>  <energy>  (17) 
-567.4961000646072

>  <inter_energy>  (17) 
-588.6567283755998

>  <intra_energy>  (17) 
30.877752109080717

>  <rmsd>  (17) 
6.77673

>  <sdf_rank>  (17) 
0

$$$$

     RDKit          3D

 69 73  0  0  0  0  0  0  0  0999 V2000
    1.8381    2.0561   18.8104 C   0  0  0  0  0  0  0  0  0  0  0  0
   -3.2322   10.1192    7.6958 C   0  0  2  0  0  0  0  0  0  0  0  0
    1.1471   -0.2553   18.9451 C   0  0  0  0  0  0  0  0  0  0  0  0
    0.8856    1.0730   18.5555 C   0  0  0  0  0  0  0  0  0  0  0  0
   -1.6763    3.3038   16.9353 C   0  0  2  0  0  0  0  0  0  0  0  0
   -0.8584    8.1466    4.5781 C   0  0  0  0  0  0  0  0  0  0  0  0
   -4.5842   10.7534    7.9302 C   0  0  1  0  0  0  0  0  0  0  0  0
   -0.1432    3.3713   16.8771 C   0  0  1  0  0  0  0  0  0  0  0  0
    3.0383    1.7496   19.4191 C   0  0  0  0  0  0  0  0  0  0  0  0
   -4.3312   11.6016    9.1973 C   0  0  1  0  0  0  0  0  0  0  0  0
    0.0655    4.4982   15.8127 C   0  0  1  0  0  0  0  0  0  0  0  0
   -2.5184    8.1868    6.2611 C   0  0  0  0  0  0  0  0  0  0  0  0
   -3.2633   10.8261    9.9378 C   0  0  1  0  0  0  0  0  0  0  0  0
   -1.2015    5.3349   15.9530 C   0  0  1  0  0  0  0  0  0  0  0  0
   -2.7861    6.8899    6.0668 C   0  0  0  0  0  0  0  0  0  0  0  0
   -3.8208   10.2163   11.2232 C   0  0  0  0  0  0  0  0  0  0  0  0
   -1.4577    6.1215   14.6650 C   0  0  0  0  0  0  0  0  0  0  0  0
   -2.0750    6.2196    5.1268 C   0  0  0  0  0  0  0  0  0  0  0  0
    1.5865    3.3727   18.4261 C   0  0  0  0  0  0  0  0  0  0  0  0
    3.3064    0.4431   19.8153 C   0  0  0  0  0  0  0  0  0  0  0  0
   -4.1070    7.6642    7.6417 C   0  0  0  0  0  0  0  0  0  0  0  0
    2.3798   -0.5410   19.5763 C   0  0  0  0  0  0  0  0  0  0  0  0
   -1.1245    6.7911    4.3984 N   0  0  0  0  0  0  0  0  0  0  0  0
   -1.5645    8.8300    5.5418 N   0  0  0  0  0  0  0  0  0  0  0  0
   -2.3125    4.9401    4.9282 N   0  0  0  0  0  0  0  0  0  0  0  0
   -3.7944    6.5665    6.9347 N   0  0  0  0  0  0  0  0  0  0  0  0
   -3.3588    8.6767    7.1885 N   0  0  0  0  0  0  0  0  0  0  0  0
   -2.7277   10.6158   14.7959 O   0  0  0  0  0  0  0  0  0  0  0  0
   -3.2077    6.8388   12.2972 O   0  0  0  0  0  0  0  0  0  0  0  0
   -2.0959    1.9847   16.6475 O   0  0  0  0  0  0  0  0  0  0  0  0
   -4.8466   11.5770    6.8072 O   0  0  0  0  0  0  0  0  0  0  0  0
   -1.3425    9.2210   13.1215 O   0  0  0  0  0  0  0  0  0  0  0  0
   -5.0545    6.5928   14.1070 O   0  0  0  0  0  0  0  0  0  0  0  0
    0.2932    3.7176   18.1850 O   0  0  0  0  0  0  0  0  0  0  0  0
   -3.7739   12.8635    8.8705 O   0  0  0  0  0  0  0  0  0  0  0  0
   -3.8381    8.7353   13.7644 O   0  0  0  0  0  0  0  0  0  0  0  0
    1.2048    5.2306   16.1435 O   0  0  0  0  0  0  0  0  0  0  0  0
   -2.8596    9.7354    9.0640 O   0  0  0  0  0  0  0  0  0  0  0  0
   -2.1966    4.3194   15.9528 O   0  0  0  0  0  0  0  0  0  0  0  0
   -3.0500   10.7256   12.3176 O   0  0  0  0  0  0  0  0  0  0  0  0
   -2.6867    6.8613   14.8504 O   0  0  0  0  0  0  0  0  0  0  0  0
    2.5049    4.1797   18.3971 O   0  0  0  0  0  0  0  0  0  0  0  0
   -2.6404    9.8199   13.5597 P   0  0  1  0  0  0  0  0  0  0  0  0
   -3.7259    7.1757   13.6479 P   0  0  2  0  0  0  0  0  0  0  0  0
   -2.6231   10.7778    7.0593 H   0  0  0  0  0  0  0  0  0  0  0  0
    0.4099   -1.0512   18.7628 H   0  0  0  0  0  0  0  0  0  0  0  0
   -0.0599    1.3305   18.0557 H   0  0  0  0  0  0  0  0  0  0  0  0
   -2.0736    3.5432   17.9327 H   0  0  0  0  0  0  0  0  0  0  0  0
   -0.1023    8.6584    3.9647 H   0  0  0  0  0  0  0  0  0  0  0  0
   -5.4320   10.0635    8.0542 H   0  0  0  0  0  0  0  0  0  0  0  0
    0.4091    2.4605   16.6025 H   0  0  0  0  0  0  0  0  0  0  0  0
    3.7841    2.5397   19.5914 H   0  0  0  0  0  0  0  0  0  0  0  0
   -5.2630   11.7721    9.7564 H   0  0  0  0  0  0  0  0  0  0  0  0
    0.2155    4.1381   14.7842 H   0  0  0  0  0  0  0  0  0  0  0  0
   -2.4299   11.4949   10.1992 H   0  0  0  0  0  0  0  0  0  0  0  0
   -1.1681    6.0230   16.8105 H   0  0  0  0  0  0  0  0  0  0  0  0
   -4.8767   10.4996   11.3448 H   0  0  0  0  0  0  0  0  0  0  0  0
   -3.7592    9.1186   11.1868 H   0  0  0  0  0  0  0  0  0  0  0  0
   -0.6254    6.8155   14.4759 H   0  0  0  0  0  0  0  0  0  0  0  0
   -1.5378    5.4426   13.8033 H   0  0  0  0  0  0  0  0  0  0  0  0
    4.2549    0.2003   20.3167 H   0  0  0  0  0  0  0  0  0  0  0  0
   -4.8487    7.7212    8.4520 H   0  0  0  0  0  0  0  0  0  0  0  0
    2.6009   -1.5742   19.8824 H   0  0  0  0  0  0  0  0  0  0  0  0
   -1.7781    4.4214    4.2167 H   0  0  0  0  0  0  0  0  0  0  0  0
   -3.0328    4.4576    5.4844 H   0  0  0  0  0  0  0  0  0  0  0  0
   -2.2514    1.4957   17.4942 H   0  0  0  0  0  0  0  0  0  0  0  0
   -5.1323   12.4735    7.1150 H   0  0  0  0  0  0  0  0  0  0  0  0
   -3.5572   13.3540    9.7027 H   0  0  0  0  0  0  0  0  0  0  0  0
    1.2882    5.2842   17.1285 H   0  0  0  0  0  0  0  0  0  0  0  0
  1  4  1  0
  1  9  2  0
  1 19  1  0
  2  7  1  0
  2 27  1  0
  2 38  1  0
  3  4  2  0
  3 22  1  0
  5  8  1  0
  5 30  1  0
  5 39  1  0
  6 23  2  0
  6 24  1  0
  7 10  1  0
  7 31  1  0
  8 11  1  0
  8 34  1  0
  9 20  1  0
 10 13  1  0
 10 35  1  0
 11 14  1  0
 11 37  1  0
 12 15  1  0
 12 24  2  0
 12 27  1  0
 13 16  1  0
 13 38  1  0
 14 17  1  0
 14 39  1  0
 15 18  2  0
 15 26  1  0
 16 40  1  0
 17 41  1  0
 18 23  1  0
 18 25  1  0
 19 34  1  0
 19 42  2  0
 20 22  2  0
 21 26  2  0
 21 27  1  0
 28 43  2  0
 29 44  2  0
 43 32  1  6
 44 33  1  1
 36 43  1  0
 36 44  1  0
 40 43  1  0
 41 44  1  0
  2 45  1  6
  3 46  1  0
  4 47  1  0
  5 48  1  1
  6 49  1  0
  7 50  1  1
  8 51  1  6
  9 52  1  0
 10 53  1  1
 11 54  1  6
 13 55  1  1
 14 56  1  1
 16 57  1  0
 16 58  1  0
 17 59  1  0
 17 60  1  0
 20 61  1  0
 21 62  1  0
 22 63  1  0
 25 64  1  0
 25 65  1  0
 30 66  1  0
 31 67  1  0
 35 68  1  0
 37 69  1  0
M  CHG  2  32  -1  33  -1
M  END
>  <filename_input>  (18) 
7F51_BA7_docked.sdf

>  <pdb_id>  (18) 
7F51_BA7

>  <pose_rank>  (18) 
17

>  <num_atoms_heavy>  (18) 
44

>  <num_torsions>  (18) 
12

>  <pose>  (18) 
[-3.8380521021259892, 8.735271781723492, 13.764425357339173, 1.4864840914270818, 2.7898557624344416, 1.1638407564545805, 25.726229967987088, 4.5246962184282165, -49.65914100103764, -7.13465174459524, -0.18411749276040443, 37.27950047741841, -11.501642122410964, -12.45285347077957, -23.018029801123205, -50.224259808160866, -29.721413233049553, 3.5141132153224457]

>  <energy>  (18) 
-550.587849418212

>  <inter_energy>  (18) 
-590.7878671545902

>  <intra_energy>  (18) 
44.60024226017494

>  <rmsd>  (18) 
12.613

>  <sdf_rank>  (18) 
0

$$$$

     RDKit          3D

 69 73  0  0  0  0  0  0  0  0999 V2000
   -4.0427   13.0218    2.9764 C   0  0  0  0  0  0  0  0  0  0  0  0
   -3.0685    6.7618    9.5891 C   0  0  2  0  0  0  0  0  0  0  0  0
   -5.6705   13.6780    1.3157 C   0  0  0  0  0  0  0  0  0  0  0  0
   -4.8366   12.6931    1.8808 C   0  0  0  0  0  0  0  0  0  0  0  0
   -2.8154    8.9762    3.9600 C   0  0  2  0  0  0  0  0  0  0  0  0
   -3.5923    6.3512   13.9254 C   0  0  0  0  0  0  0  0  0  0  0  0
   -3.7159    7.2525    8.3144 C   0  0  1  0  0  0  0  0  0  0  0  0
   -1.9489   10.1112    3.3948 C   0  0  1  0  0  0  0  0  0  0  0  0
   -4.0725   14.2862    3.5288 C   0  0  0  0  0  0  0  0  0  0  0  0
   -2.8904    6.5255    7.2286 C   0  0  1  0  0  0  0  0  0  0  0  0
   -1.0194    9.3187    2.4179 C   0  0  1  0  0  0  0  0  0  0  0  0
   -3.1210    7.5806   11.9617 C   0  0  0  0  0  0  0  0  0  0  0  0
   -1.5228    6.3784    7.8597 C   0  0  1  0  0  0  0  0  0  0  0  0
   -1.8746    8.1143    2.0397 C   0  0  1  0  0  0  0  0  0  0  0  0
   -2.9287    8.6974   12.6738 C   0  0  0  0  0  0  0  0  0  0  0  0
   -0.4958    7.2632    7.1544 C   0  0  0  0  0  0  0  0  0  0  0  0
   -0.9828    6.9641    1.5653 C   0  0  0  0  0  0  0  0  0  0  0  0
   -3.0610    8.6323   14.0216 C   0  0  0  0  0  0  0  0  0  0  0  0
   -3.2159   12.0514    3.5415 C   0  0  0  0  0  0  0  0  0  0  0  0
   -4.8863   15.2702    2.9763 C   0  0  0  0  0  0  0  0  0  0  0  0
   -2.6431    9.1500   10.5435 C   0  0  0  0  0  0  0  0  0  0  0  0
   -5.6748   14.9684    1.8940 C   0  0  0  0  0  0  0  0  0  0  0  0
   -3.3660    7.5113   14.6628 N   0  0  0  0  0  0  0  0  0  0  0  0
   -3.4437    6.4054   12.5582 N   0  0  0  0  0  0  0  0  0  0  0  0
   -2.8633    9.7156   14.7429 N   0  0  0  0  0  0  0  0  0  0  0  0
   -2.6349    9.6867   11.7741 N   0  0  0  0  0  0  0  0  0  0  0  0
   -2.9968    7.8643   10.6539 N   0  0  0  0  0  0  0  0  0  0  0  0
    0.6984    4.4649    6.6817 O   0  0  0  0  0  0  0  0  0  0  0  0
   -1.8108    4.9447    4.2141 O   0  0  0  0  0  0  0  0  0  0  0  0
   -2.7072    8.9651    5.3697 O   0  0  0  0  0  0  0  0  0  0  0  0
   -5.0551    6.7894    8.3347 O   0  0  0  0  0  0  0  0  0  0  0  0
    2.1937    6.3606    5.7663 O   0  0  0  0  0  0  0  0  0  0  0  0
   -0.4385    4.0109    2.2162 O   0  0  0  0  0  0  0  0  0  0  0  0
   -2.8391   11.0123    2.7493 O   0  0  0  0  0  0  0  0  0  0  0  0
   -3.3819    5.2160    6.9975 O   0  0  0  0  0  0  0  0  0  0  0  0
    0.6641    4.8218    4.2932 O   0  0  0  0  0  0  0  0  0  0  0  0
   -0.7373   10.1174    1.3106 O   0  0  0  0  0  0  0  0  0  0  0  0
   -1.6457    6.8434    9.2325 O   0  0  0  0  0  0  0  0  0  0  0  0
   -2.3380    7.7003    3.3184 O   0  0  0  0  0  0  0  0  0  0  0  0
   -0.1979    6.6619    5.8891 O   0  0  0  0  0  0  0  0  0  0  0  0
   -0.2904    6.4499    2.7264 O   0  0  0  0  0  0  0  0  0  0  0  0
   -2.7983   12.2026    4.6810 O   0  0  0  0  0  0  0  0  0  0  0  0
    0.9340    5.5566    5.7215 P   0  0  1  0  0  0  0  0  0  0  0  0
   -0.5905    4.9932    3.3686 P   0  0  2  0  0  0  0  0  0  0  0  0
   -3.5628    5.8362    9.9194 H   0  0  0  0  0  0  0  0  0  0  0  0
   -6.3032   13.4487    0.4456 H   0  0  0  0  0  0  0  0  0  0  0  0
   -4.8130   11.6765    1.4613 H   0  0  0  0  0  0  0  0  0  0  0  0
   -3.8840    9.1057    3.7336 H   0  0  0  0  0  0  0  0  0  0  0  0
   -3.8827    5.4146   14.4239 H   0  0  0  0  0  0  0  0  0  0  0  0
   -3.7329    8.3420    8.1638 H   0  0  0  0  0  0  0  0  0  0  0  0
   -1.3589   10.7170    4.0983 H   0  0  0  0  0  0  0  0  0  0  0  0
   -3.4517   14.5164    4.4072 H   0  0  0  0  0  0  0  0  0  0  0  0
   -2.9132    7.0741    6.2755 H   0  0  0  0  0  0  0  0  0  0  0  0
   -0.0489    9.0236    2.8435 H   0  0  0  0  0  0  0  0  0  0  0  0
   -1.1908    5.3320    7.7911 H   0  0  0  0  0  0  0  0  0  0  0  0
   -2.6256    8.3465    1.2702 H   0  0  0  0  0  0  0  0  0  0  0  0
   -0.9110    8.2704    7.0019 H   0  0  0  0  0  0  0  0  0  0  0  0
    0.4166    7.3535    7.7621 H   0  0  0  0  0  0  0  0  0  0  0  0
   -1.5982    6.1725    1.1128 H   0  0  0  0  0  0  0  0  0  0  0  0
   -0.2662    7.3138    0.8075 H   0  0  0  0  0  0  0  0  0  0  0  0
   -4.8978   16.2836    3.4042 H   0  0  0  0  0  0  0  0  0  0  0  0
   -2.4013    9.6755    9.6078 H   0  0  0  0  0  0  0  0  0  0  0  0
   -6.3240   15.7472    1.4672 H   0  0  0  0  0  0  0  0  0  0  0  0
   -2.9613    9.6772   15.7675 H   0  0  0  0  0  0  0  0  0  0  0  0
   -2.6107   10.6018   14.2827 H   0  0  0  0  0  0  0  0  0  0  0  0
   -3.6077    9.0574    5.7705 H   0  0  0  0  0  0  0  0  0  0  0  0
   -5.3543    6.6859    9.2727 H   0  0  0  0  0  0  0  0  0  0  0  0
   -3.5498    4.7687    7.8646 H   0  0  0  0  0  0  0  0  0  0  0  0
   -0.4237   11.0055    1.6155 H   0  0  0  0  0  0  0  0  0  0  0  0
  1  4  1  0
  1  9  2  0
  1 19  1  0
  2  7  1  0
  2 27  1  0
  2 38  1  0
  3  4  2  0
  3 22  1  0
  5  8  1  0
  5 30  1  0
  5 39  1  0
  6 23  2  0
  6 24  1  0
  7 10  1  0
  7 31  1  0
  8 11  1  0
  8 34  1  0
  9 20  1  0
 10 13  1  0
 10 35  1  0
 11 14  1  0
 11 37  1  0
 12 15  1  0
 12 24  2  0
 12 27  1  0
 13 16  1  0
 13 38  1  0
 14 17  1  0
 14 39  1  0
 15 18  2  0
 15 26  1  0
 16 40  1  0
 17 41  1  0
 18 23  1  0
 18 25  1  0
 19 34  1  0
 19 42  2  0
 20 22  2  0
 21 26  2  0
 21 27  1  0
 28 43  2  0
 29 44  2  0
 43 32  1  6
 44 33  1  6
 36 43  1  0
 36 44  1  0
 40 43  1  0
 41 44  1  0
  2 45  1  1
  3 46  1  0
  4 47  1  0
  5 48  1  1
  6 49  1  0
  7 50  1  6
  8 51  1  1
  9 52  1  0
 10 53  1  6
 11 54  1  1
 13 55  1  1
 14 56  1  6
 16 57  1  0
 16 58  1  0
 17 59  1  0
 17 60  1  0
 20 61  1  0
 21 62  1  0
 22 63  1  0
 25 64  1  0
 25 65  1  0
 30 66  1  0
 31 67  1  0
 35 68  1  0
 37 69  1  0
M  CHG  2  32  -1  33  -1
M  END
>  <filename_input>  (19) 
7F51_BA7_docked.sdf

>  <pdb_id>  (19) 
7F51_BA7

>  <pose_rank>  (19) 
18

>  <num_atoms_heavy>  (19) 
44

>  <num_torsions>  (19) 
12

>  <pose>  (19) 
[0.6641400147759461, 4.821820374444344, 4.293246934804441, -4.763357269738422, -0.8879160921608302, 3.15093362241523, -1.617764712025652, 1.644099293561105, 1.5459121933653812, -0.021200756192122756, -0.11912567435156231, -0.20080270420774066, -0.14234520595799827, -1.6743939834942831, 0.24258375526104936, 5.223704492612052, -0.04980678730237876, -2.6866420115711858]

>  <energy>  (19) 
-532.5763152054117

>  <inter_energy>  (19) 
-570.1002063906975

>  <intra_energy>  (19) 
46.2464324046187

>  <rmsd>  (19) 
7.00571

>  <sdf_rank>  (19) 
0

$$$$

     RDKit          3D

 69 73  0  0  0  0  0  0  0  0999 V2000
    4.5395    2.2694    7.9438 C   0  0  0  0  0  0  0  0  0  0  0  0
   -1.6329    6.2670   14.0221 C   0  0  2  0  0  0  0  0  0  0  0  0
    4.5001   -0.1370    8.1577 C   0  0  0  0  0  0  0  0  0  0  0  0
    4.2969    1.0198    7.3797 C   0  0  0  0  0  0  0  0  0  0  0  0
    2.2271    4.4784    4.9025 C   0  0  2  0  0  0  0  0  0  0  0  0
   -3.5617    9.7863   12.2497 C   0  0  0  0  0  0  0  0  0  0  0  0
   -3.0087    6.3633   14.6408 C   0  0  1  0  0  0  0  0  0  0  0  0
    2.9550    4.9770    6.1595 C   0  0  1  0  0  0  0  0  0  0  0  0
    4.9925    2.3937    9.2416 C   0  0  0  0  0  0  0  0  0  0  0  0
   -3.7589    5.2018   13.9499 C   0  0  1  0  0  0  0  0  0  0  0  0
    1.9674    6.0832    6.6570 C   0  0  1  0  0  0  0  0  0  0  0  0
   -1.7526    8.6605   13.2741 C   0  0  0  0  0  0  0  0  0  0  0  0
   -3.0949    5.1057   12.5934 C   0  0  1  0  0  0  0  0  0  0  0  0
    0.6238    5.6043    6.1181 C   0  0  1  0  0  0  0  0  0  0  0  0
   -1.0089    9.7728   13.2468 C   0  0  0  0  0  0  0  0  0  0  0  0
   -4.0488    5.5463   11.4839 C   0  0  0  0  0  0  0  0  0  0  0  0
   -0.3465    6.7825    6.0021 C   0  0  0  0  0  0  0  0  0  0  0  0
   -1.5542   10.8992   12.7249 C   0  0  0  0  0  0  0  0  0  0  0  0
    4.3417    3.4186    7.1790 C   0  0  0  0  0  0  0  0  0  0  0  0
    5.1909    1.2598   10.0232 C   0  0  0  0  0  0  0  0  0  0  0  0
    0.1669    8.1488   14.1440 C   0  0  0  0  0  0  0  0  0  0  0  0
    4.9547    0.0181    9.4877 C   0  0  0  0  0  0  0  0  0  0  0  0
   -2.7913   10.9469   12.2474 N   0  0  0  0  0  0  0  0  0  0  0  0
   -3.0211    8.6430   12.7928 N   0  0  0  0  0  0  0  0  0  0  0  0
   -0.8453   12.0082   12.7001 N   0  0  0  0  0  0  0  0  0  0  0  0
    0.2041    9.4433   13.7897 N   0  0  0  0  0  0  0  0  0  0  0  0
   -1.0197    7.6519   13.7760 N   0  0  0  0  0  0  0  0  0  0  0  0
   -3.0249    7.8128    8.7943 O   0  0  0  0  0  0  0  0  0  0  0  0
   -3.7086    7.2981    5.8764 O   0  0  0  0  0  0  0  0  0  0  0  0
    3.0865    4.6015    3.7866 O   0  0  0  0  0  0  0  0  0  0  0  0
   -2.8488    6.1163   16.0270 O   0  0  0  0  0  0  0  0  0  0  0  0
   -5.3025    6.7779    9.4338 O   0  0  0  0  0  0  0  0  0  0  0  0
   -2.7694    4.8970    5.5607 O   0  0  0  0  0  0  0  0  0  0  0  0
    3.0636    3.8587    7.0305 O   0  0  0  0  0  0  0  0  0  0  0  0
   -3.5254    3.9705   14.6125 O   0  0  0  0  0  0  0  0  0  0  0  0
   -3.5876    5.7001    7.7681 O   0  0  0  0  0  0  0  0  0  0  0  0
    1.9819    6.1119    8.0508 O   0  0  0  0  0  0  0  0  0  0  0  0
   -1.9732    6.0318   12.6124 O   0  0  0  0  0  0  0  0  0  0  0  0
    0.9676    5.2937    4.7740 O   0  0  0  0  0  0  0  0  0  0  0  0
   -3.2612    5.8498   10.3268 O   0  0  0  0  0  0  0  0  0  0  0  0
   -1.4438    6.5266    6.9091 O   0  0  0  0  0  0  0  0  0  0  0  0
    5.3083    4.0278    6.7428 O   0  0  0  0  0  0  0  0  0  0  0  0
   -3.8582    6.6316    9.0765 P   0  0  1  0  0  0  0  0  0  0  0  0
   -2.9384    6.1466    6.4126 P   0  0  2  0  0  0  0  0  0  0  0  0
   -1.0078    5.5880   14.6206 H   0  0  0  0  0  0  0  0  0  0  0  0
    4.3098   -1.1369    7.7406 H   0  0  0  0  0  0  0  0  0  0  0  0
    3.9505    0.9368    6.3390 H   0  0  0  0  0  0  0  0  0  0  0  0
    1.9531    3.4149    4.9651 H   0  0  0  0  0  0  0  0  0  0  0  0
   -4.5776    9.7836   11.8277 H   0  0  0  0  0  0  0  0  0  0  0  0
   -3.5309    7.3242   14.5224 H   0  0  0  0  0  0  0  0  0  0  0  0
    3.9737    5.3770    6.0483 H   0  0  0  0  0  0  0  0  0  0  0  0
    5.1971    3.3907    9.6587 H   0  0  0  0  0  0  0  0  0  0  0  0
   -4.8439    5.3818   13.9319 H   0  0  0  0  0  0  0  0  0  0  0  0
    2.2113    7.1024    6.3226 H   0  0  0  0  0  0  0  0  0  0  0  0
   -2.7881    4.0670   12.4008 H   0  0  0  0  0  0  0  0  0  0  0  0
    0.1746    4.8094    6.7315 H   0  0  0  0  0  0  0  0  0  0  0  0
   -4.7556    4.7354   11.2538 H   0  0  0  0  0  0  0  0  0  0  0  0
   -4.6251    6.4284   11.7995 H   0  0  0  0  0  0  0  0  0  0  0  0
    0.1616    7.7176    6.2803 H   0  0  0  0  0  0  0  0  0  0  0  0
   -0.7110    6.8869    4.9695 H   0  0  0  0  0  0  0  0  0  0  0  0
    5.5347    1.3577   11.0634 H   0  0  0  0  0  0  0  0  0  0  0  0
    0.9714    7.5938   14.6486 H   0  0  0  0  0  0  0  0  0  0  0  0
    5.1227   -0.8757   10.1066 H   0  0  0  0  0  0  0  0  0  0  0  0
   -1.2500   12.8694   12.3059 H   0  0  0  0  0  0  0  0  0  0  0  0
    0.1141   12.0147   13.0750 H   0  0  0  0  0  0  0  0  0  0  0  0
    4.0163    4.7346    4.0993 H   0  0  0  0  0  0  0  0  0  0  0  0
   -3.3078    6.8252   16.5436 H   0  0  0  0  0  0  0  0  0  0  0  0
   -3.5523    4.1124   15.5919 H   0  0  0  0  0  0  0  0  0  0  0  0
    1.5663    5.2850    8.4023 H   0  0  0  0  0  0  0  0  0  0  0  0
  1  4  1  0
  1  9  2  0
  1 19  1  0
  2  7  1  0
  2 27  1  0
  2 38  1  0
  3  4  2  0
  3 22  1  0
  5  8  1  0
  5 30  1  0
  5 39  1  0
  6 23  2  0
  6 24  1  0
  7 10  1  0
  7 31  1  0
  8 11  1  0
  8 34  1  0
  9 20  1  0
 10 13  1  0
 10 35  1  0
 11 14  1  0
 11 37  1  0
 12 15  1  0
 12 24  2  0
 12 27  1  0
 13 16  1  0
 13 38  1  0
 14 17  1  0
 14 39  1  0
 15 18  2  0
 15 26  1  0
 16 40  1  0
 17 41  1  0
 18 23  1  0
 18 25  1  0
 19 34  1  0
 19 42  2  0
 20 22  2  0
 21 26  2  0
 21 27  1  0
 28 43  2  0
 29 44  2  0
 43 32  1  1
 44 33  1  6
 36 43  1  0
 36 44  1  0
 40 43  1  0
 41 44  1  0
  2 45  1  1
  3 46  1  0
  4 47  1  0
  5 48  1  1
  6 49  1  0
  7 50  1  1
  8 51  1  6
  9 52  1  0
 10 53  1  6
 11 54  1  6
 13 55  1  6
 14 56  1  1
 16 57  1  0
 16 58  1  0
 17 59  1  0
 17 60  1  0
 20 61  1  0
 21 62  1  0
 22 63  1  0
 25 64  1  0
 25 65  1  0
 30 66  1  0
 31 67  1  0
 35 68  1  0
 37 69  1  0
M  CHG  2  32  -1  33  -1
M  END
>  <filename_input>  (20) 
7F51_BA7_docked.sdf

>  <pdb_id>  (20) 
7F51_BA7

>  <pose_rank>  (20) 
19

>  <num_atoms_heavy>  (20) 
44

>  <num_torsions>  (20) 
12

>  <pose>  (20) 
[-3.587587426112161, 5.700131772457888, 7.768139808975851, 0.4078493979833282, -1.2039349109115756, -1.1557726720195194, 2.5585691230360736, 2.8940167043399114, 0.16100020769556603, -2.199878075896692, -3.4072101114295887, -0.3883886405902907, -0.08133749336081149, 0.7688483440689918, 3.2496046577639595, -0.7838505812076656, 0.0718903117510571, -1.717781678604634]

>  <energy>  (20) 
-563.4892936058216

>  <inter_energy>  (20) 
-609.522230094714

>  <intra_energy>  (20) 
49.004490093275486

>  <rmsd>  (20) 
6.88491

>  <sdf_rank>  (20) 
0

$$$$

     RDKit          3D

 69 73  0  0  0  0  0  0  0  0999 V2000
   -0.8719    6.2968   13.9746 C   0  0  0  0  0  0  0  0  0  0  0  0
    3.9880    3.5011    8.1565 C   0  0  2  0  0  0  0  0  0  0  0  0
    1.4223    7.0163   14.2136 C   0  0  0  0  0  0  0  0  0  0  0  0
    0.4130    6.3995   13.4483 C   0  0  0  0  0  0  0  0  0  0  0  0
   -2.6962    8.2788   11.3934 C   0  0  2  0  0  0  0  0  0  0  0  0
    7.0410    0.8674    9.8856 C   0  0  0  0  0  0  0  0  0  0  0  0
    4.6443    4.7026    7.5155 C   0  0  1  0  0  0  0  0  0  0  0  0
   -3.1752    6.8495   11.6871 C   0  0  1  0  0  0  0  0  0  0  0  0
   -1.1779    6.8040   15.2212 C   0  0  0  0  0  0  0  0  0  0  0  0
    3.4705    5.7038    7.4218 C   0  0  1  0  0  0  0  0  0  0  0  0
   -3.9133    6.5023   10.3525 C   0  0  1  0  0  0  0  0  0  0  0  0
    5.4279    1.4471    8.2572 C   0  0  0  0  0  0  0  0  0  0  0  0
    2.2561    4.8152    7.2617 C   0  0  1  0  0  0  0  0  0  0  0  0
   -3.1945    7.3768    9.3310 C   0  0  1  0  0  0  0  0  0  0  0  0
    5.6574    0.3123    7.5858 C   0  0  0  0  0  0  0  0  0  0  0  0
    1.6577    4.9517    5.8623 C   0  0  0  0  0  0  0  0  0  0  0  0
   -4.0944    7.6139    8.1156 C   0  0  0  0  0  0  0  0  0  0  0  0
    6.5795   -0.5516    8.0778 C   0  0  0  0  0  0  0  0  0  0  0  0
   -1.8761    5.6887   13.2220 C   0  0  0  0  0  0  0  0  0  0  0  0
   -0.1890    7.4094   15.9903 C   0  0  0  0  0  0  0  0  0  0  0  0
    4.1245    1.4732    6.5242 C   0  0  0  0  0  0  0  0  0  0  0  0
    1.0853    7.5184   15.4918 C   0  0  0  0  0  0  0  0  0  0  0  0
    7.2570   -0.3233    9.1957 N   0  0  0  0  0  0  0  0  0  0  0  0
    6.0948    1.7419    9.4015 N   0  0  0  0  0  0  0  0  0  0  0  0
    6.8118   -1.6800    7.4408 N   0  0  0  0  0  0  0  0  0  0  0  0
    4.8384    0.3367    6.4890 N   0  0  0  0  0  0  0  0  0  0  0  0
    4.5272    2.1834    7.5843 N   0  0  0  0  0  0  0  0  0  0  0  0
   -0.9673    5.1565    4.5087 O   0  0  0  0  0  0  0  0  0  0  0  0
   -2.8642    5.4687    6.2592 O   0  0  0  0  0  0  0  0  0  0  0  0
   -3.1915    9.1503   12.3905 O   0  0  0  0  0  0  0  0  0  0  0  0
    5.6334    5.1573    8.4228 O   0  0  0  0  0  0  0  0  0  0  0  0
    0.4621    7.1321    3.6594 O   0  0  0  0  0  0  0  0  0  0  0  0
   -3.7205    7.3061    4.6352 O   0  0  0  0  0  0  0  0  0  0  0  0
   -2.0066    6.0756   11.9248 O   0  0  0  0  0  0  0  0  0  0  0  0
    3.3032    6.4176    8.6351 O   0  0  0  0  0  0  0  0  0  0  0  0
   -1.3906    7.3149    5.5063 O   0  0  0  0  0  0  0  0  0  0  0  0
   -3.7432    5.1458   10.0787 O   0  0  0  0  0  0  0  0  0  0  0  0
    2.7193    3.4451    7.4180 O   0  0  0  0  0  0  0  0  0  0  0  0
   -3.1779    8.6260   10.0096 O   0  0  0  0  0  0  0  0  0  0  0  0
    0.9021    6.1679    5.8279 O   0  0  0  0  0  0  0  0  0  0  0  0
   -3.2332    7.9396    7.0000 O   0  0  0  0  0  0  0  0  0  0  0  0
   -2.5404    4.7887   13.7161 O   0  0  0  0  0  0  0  0  0  0  0  0
   -0.2521    6.4188    4.7623 P   0  0  1  0  0  0  0  0  0  0  0  0
   -2.8658    6.8887    5.8231 P   0  0  2  0  0  0  0  0  0  0  0  0
    4.0538    3.5871    9.2511 H   0  0  0  0  0  0  0  0  0  0  0  0
    2.4479    7.1051   13.8261 H   0  0  0  0  0  0  0  0  0  0  0  0
    0.6375    6.0037   12.4468 H   0  0  0  0  0  0  0  0  0  0  0  0
   -1.6005    8.3723   11.4186 H   0  0  0  0  0  0  0  0  0  0  0  0
    7.6128    1.1031   10.7953 H   0  0  0  0  0  0  0  0  0  0  0  0
    5.1256    4.5338    6.5409 H   0  0  0  0  0  0  0  0  0  0  0  0
   -3.8305    6.6870   12.5555 H   0  0  0  0  0  0  0  0  0  0  0  0
   -2.2052    6.7295   15.6073 H   0  0  0  0  0  0  0  0  0  0  0  0
    3.6310    6.4328    6.6137 H   0  0  0  0  0  0  0  0  0  0  0  0
   -4.9982    6.6829   10.3659 H   0  0  0  0  0  0  0  0  0  0  0  0
    1.4897    5.0938    8.0000 H   0  0  0  0  0  0  0  0  0  0  0  0
   -2.2322    6.9543    9.0064 H   0  0  0  0  0  0  0  0  0  0  0  0
    2.4621    4.9892    5.1130 H   0  0  0  0  0  0  0  0  0  0  0  0
    1.0121    4.0908    5.6340 H   0  0  0  0  0  0  0  0  0  0  0  0
   -4.6724    6.7050    7.8921 H   0  0  0  0  0  0  0  0  0  0  0  0
   -4.8052    8.4305    8.3104 H   0  0  0  0  0  0  0  0  0  0  0  0
   -0.4269    7.7981   16.9915 H   0  0  0  0  0  0  0  0  0  0  0  0
    3.3448    1.7689    5.8068 H   0  0  0  0  0  0  0  0  0  0  0  0
    1.8610    8.0069   16.0998 H   0  0  0  0  0  0  0  0  0  0  0  0
    7.5101   -2.3432    7.8060 H   0  0  0  0  0  0  0  0  0  0  0  0
    6.2952   -1.8996    6.5772 H   0  0  0  0  0  0  0  0  0  0  0  0
   -2.9819    8.7815   13.2850 H   0  0  0  0  0  0  0  0  0  0  0  0
    5.3208    5.0136    9.3511 H   0  0  0  0  0  0  0  0  0  0  0  0
    3.4465    5.8060    9.4003 H   0  0  0  0  0  0  0  0  0  0  0  0
   -3.6802    4.6429   10.9291 H   0  0  0  0  0  0  0  0  0  0  0  0
  1  4  1  0
  1  9  2  0
  1 19  1  0
  2  7  1  0
  2 27  1  0
  2 38  1  0
  3  4  2  0
  3 22  1  0
  5  8  1  0
  5 30  1  0
  5 39  1  0
  6 23  2  0
  6 24  1  0
  7 10  1  0
  7 31  1  0
  8 11  1  0
  8 34  1  0
  9 20  1  0
 10 13  1  0
 10 35  1  0
 11 14  1  0
 11 37  1  0
 12 15  1  0
 12 24  2  0
 12 27  1  0
 13 16  1  0
 13 38  1  0
 14 17  1  0
 14 39  1  0
 15 18  2  0
 15 26  1  0
 16 40  1  0
 17 41  1  0
 18 23  1  0
 18 25  1  0
 19 34  1  0
 19 42  2  0
 20 22  2  0
 21 26  2  0
 21 27  1  0
 28 43  2  0
 29 44  2  0
 43 32  1  6
 44 33  1  6
 36 43  1  0
 36 44  1  0
 40 43  1  0
 41 44  1  0
  2 45  1  1
  3 46  1  0
  4 47  1  0
  5 48  1  6
  6 49  1  0
  7 50  1  6
  8 51  1  1
  9 52  1  0
 10 53  1  6
 11 54  1  1
 13 55  1  1
 14 56  1  6
 16 57  1  0
 16 58  1  0
 17 59  1  0
 17 60  1  0
 20 61  1  0
 21 62  1  0
 22 63  1  0
 25 64  1  0
 25 65  1  0
 30 66  1  0
 31 67  1  0
 35 68  1  0
 37 69  1  0
M  CHG  2  32  -1  33  -1
M  END
>  <filename_input>  (21) 
7F51_BA7_docked.sdf

>  <pdb_id>  (21) 
7F51_BA7

>  <pose_rank>  (21) 
20

>  <num_atoms_heavy>  (21) 
44

>  <num_torsions>  (21) 
12

>  <pose>  (21) 
[-1.3905989956620564, 7.314922591900972, 5.506322078642583, 2.849466895866465, 1.0892040518764137, 0.677790323860576, 9.0903219968191, -4.941696612282793, 0.3054000002365138, 6.184565799785039, -0.88571605603355, 1.2707109425135514, -5.564515824570662, -1.8078814429613401, -3.737352895935628, -0.7991375858146395, -5.042965552214539, 2.3489271403617296]

>  <energy>  (21) 
-588.201974326621

>  <inter_energy>  (21) 
-595.685876082939

>  <intra_energy>  (21) 
19.34749502261025

>  <rmsd>  (21) 
10.385

>  <sdf_rank>  (21) 
0

$$$$

     RDKit          3D

 69 73  0  0  0  0  0  0  0  0999 V2000
   -1.3515    6.9170    4.6552 C   0  0  0  0  0  0  0  0  0  0  0  0
    0.5787    6.6192   12.2292 C   0  0  2  0  0  0  0  0  0  0  0  0
   -3.6399    6.8887    3.8802 C   0  0  0  0  0  0  0  0  0  0  0  0
   -2.6729    6.5164    4.8346 C   0  0  0  0  0  0  0  0  0  0  0  0
    2.0343    4.0608    5.1535 C   0  0  2  0  0  0  0  0  0  0  0  0
   -3.6289    6.4740   13.4629 C   0  0  0  0  0  0  0  0  0  0  0  0
    1.7623    7.5515   12.3504 C   0  0  1  0  0  0  0  0  0  0  0  0
    1.4291    5.1735    6.0219 C   0  0  1  0  0  0  0  0  0  0  0  0
   -0.9771    7.6860    3.5721 C   0  0  0  0  0  0  0  0  0  0  0  0
    2.6812    7.0619   11.2080 C   0  0  1  0  0  0  0  0  0  0  0  0
    2.7115    5.7435    6.7126 C   0  0  1  0  0  0  0  0  0  0  0  0
   -1.3110    6.1764   13.8215 C   0  0  0  0  0  0  0  0  0  0  0  0
    2.3661    5.5853   11.1053 C   0  0  1  0  0  0  0  0  0  0  0  0
    3.8090    5.4262    5.7028 C   0  0  1  0  0  0  0  0  0  0  0  0
   -1.5325    5.7277   15.0628 C   0  0  0  0  0  0  0  0  0  0  0  0
    3.5499    4.7387   11.5709 C   0  0  0  0  0  0  0  0  0  0  0  0
    5.1704    5.3833    6.4015 C   0  0  0  0  0  0  0  0  0  0  0  0
   -2.8139    5.6447   15.4983 C   0  0  0  0  0  0  0  0  0  0  0  0
   -0.3894    6.5531    5.5968 C   0  0  0  0  0  0  0  0  0  0  0  0
   -1.9207    8.0549    2.6184 C   0  0  0  0  0  0  0  0  0  0  0  0
    0.6308    5.7391   14.6823 C   0  0  0  0  0  0  0  0  0  0  0  0
   -3.2285    7.6680    2.7743 C   0  0  0  0  0  0  0  0  0  0  0  0
   -3.8540    5.9825   14.7467 N   0  0  0  0  0  0  0  0  0  0  0  0
   -2.3320    6.5458   13.0077 N   0  0  0  0  0  0  0  0  0  0  0  0
   -3.0557    5.1936   16.7112 N   0  0  0  0  0  0  0  0  0  0  0  0
   -0.3040    5.4603   15.6048 N   0  0  0  0  0  0  0  0  0  0  0  0
    0.0138    6.2326   13.6025 N   0  0  0  0  0  0  0  0  0  0  0  0
    3.1980    2.4138    8.8541 O   0  0  0  0  0  0  0  0  0  0  0  0
    6.6729    2.2849    8.3060 O   0  0  0  0  0  0  0  0  0  0  0  0
    1.4183    2.8300    5.4773 O   0  0  0  0  0  0  0  0  0  0  0  0
    1.2781    8.8582   12.0931 O   0  0  0  0  0  0  0  0  0  0  0  0
    4.8766    1.6229   10.6497 O   0  0  0  0  0  0  0  0  0  0  0  0
    7.1724    4.8317    8.4112 O   0  0  0  0  0  0  0  0  0  0  0  0
    0.7968    6.0807    5.1285 O   0  0  0  0  0  0  0  0  0  0  0  0
    2.3208    7.6486    9.9688 O   0  0  0  0  0  0  0  0  0  0  0  0
    5.0636    3.8752    9.3197 O   0  0  0  0  0  0  0  0  0  0  0  0
    2.5588    7.1177    6.8914 O   0  0  0  0  0  0  0  0  0  0  0  0
    1.2537    5.3333   12.0082 O   0  0  0  0  0  0  0  0  0  0  0  0
    3.5185    4.0662    5.4073 O   0  0  0  0  0  0  0  0  0  0  0  0
    3.3112    3.3891   11.1550 O   0  0  0  0  0  0  0  0  0  0  0  0
    5.3605    4.0353    6.8901 O   0  0  0  0  0  0  0  0  0  0  0  0
   -0.6058    6.7418    6.7856 O   0  0  0  0  0  0  0  0  0  0  0  0
    4.1198    2.7140    9.9629 P   0  0  1  0  0  0  0  0  0  0  0  0
    6.1850    3.6864    8.2403 P   0  0  2  0  0  0  0  0  0  0  0  0
   -0.1579    7.0492   11.5345 H   0  0  0  0  0  0  0  0  0  0  0  0
   -4.6899    6.5806    3.9925 H   0  0  0  0  0  0  0  0  0  0  0  0
   -2.9584    5.9164    5.7113 H   0  0  0  0  0  0  0  0  0  0  0  0
    1.8602    4.2197    4.0790 H   0  0  0  0  0  0  0  0  0  0  0  0
   -4.4673    6.7971   12.8283 H   0  0  0  0  0  0  0  0  0  0  0  0
    2.2773    7.5626   13.3223 H   0  0  0  0  0  0  0  0  0  0  0  0
    0.6678    4.8984    6.7666 H   0  0  0  0  0  0  0  0  0  0  0  0
    0.0691    8.0079    3.4626 H   0  0  0  0  0  0  0  0  0  0  0  0
    3.7345    7.3062   11.4103 H   0  0  0  0  0  0  0  0  0  0  0  0
    2.9250    5.3227    7.7062 H   0  0  0  0  0  0  0  0  0  0  0  0
    2.1368    5.3244   10.0616 H   0  0  0  0  0  0  0  0  0  0  0  0
    3.8410    6.1395    4.8660 H   0  0  0  0  0  0  0  0  0  0  0  0
    4.4793    5.1120   11.1160 H   0  0  0  0  0  0  0  0  0  0  0  0
    3.6545    4.7917   12.6647 H   0  0  0  0  0  0  0  0  0  0  0  0
    5.9676    5.6414    5.6888 H   0  0  0  0  0  0  0  0  0  0  0  0
    5.2061    6.1065    7.2296 H   0  0  0  0  0  0  0  0  0  0  0  0
   -1.6206    8.6526    1.7451 H   0  0  0  0  0  0  0  0  0  0  0  0
    1.7146    5.5882   14.7947 H   0  0  0  0  0  0  0  0  0  0  0  0
   -3.9724    7.9708    2.0228 H   0  0  0  0  0  0  0  0  0  0  0  0
   -4.0255    5.1266   17.0518 H   0  0  0  0  0  0  0  0  0  0  0  0
   -2.2753    4.9077   17.3194 H   0  0  0  0  0  0  0  0  0  0  0  0
    1.3702    2.7339    6.4614 H   0  0  0  0  0  0  0  0  0  0  0  0
    1.1064    9.3214   12.9510 H   0  0  0  0  0  0  0  0  0  0  0  0
    1.8099    8.4803   10.1336 H   0  0  0  0  0  0  0  0  0  0  0  0
    2.5359    7.3240    7.8594 H   0  0  0  0  0  0  0  0  0  0  0  0
  1  4  1  0
  1  9  2  0
  1 19  1  0
  2  7  1  0
  2 27  1  0
  2 38  1  0
  3  4  2  0
  3 22  1  0
  5  8  1  0
  5 30  1  0
  5 39  1  0
  6 23  2  0
  6 24  1  0
  7 10  1  0
  7 31  1  0
  8 11  1  0
  8 34  1  0
  9 20  1  0
 10 13  1  0
 10 35  1  0
 11 14  1  0
 11 37  1  0
 12 15  1  0
 12 24  2  0
 12 27  1  0
 13 16  1  0
 13 38  1  0
 14 17  1  0
 14 39  1  0
 15 18  2  0
 15 26  1  0
 16 40  1  0
 17 41  1  0
 18 23  1  0
 18 25  1  0
 19 34  1  0
 19 42  2  0
 20 22  2  0
 21 26  2  0
 21 27  1  0
 28 43  2  0
 29 44  2  0
 43 32  1  1
 44 33  1  1
 36 43  1  0
 36 44  1  0
 40 43  1  0
 41 44  1  0
  2 45  1  6
  3 46  1  0
  4 47  1  0
  5 48  1  6
  6 49  1  0
  7 50  1  1
  8 51  1  1
  9 52  1  0
 10 53  1  1
 11 54  1  1
 13 55  1  6
 14 56  1  6
 16 57  1  0
 16 58  1  0
 17 59  1  0
 17 60  1  0
 20 61  1  0
 21 62  1  0
 22 63  1  0
 25 64  1  0
 25 65  1  0
 30 66  1  0
 31 67  1  0
 35 68  1  0
 37 69  1  0
M  CHG  2  32  -1  33  -1
M  END
>  <filename_input>  (22) 
7F51_BA7_docked.sdf

>  <pdb_id>  (22) 
7F51_BA7

>  <pose_rank>  (22) 
21

>  <num_atoms_heavy>  (22) 
44

>  <num_torsions>  (22) 
12

>  <pose>  (22) 
[5.063602937295497, 3.8752454339594413, 9.31971664932827, 0.20429334317291598, -0.3995440429129969, 2.1928903979634318, 1.5381699921296768, -1.2970002631171818, -1.3423240681024733, -1.6400855894167568, -0.2521904296929174, 0.15389602659536836, -1.5467297496892374, 0.09619935674005278, 0.5291978315427419, -0.27499715327689517, 0.4976208919261542, -0.7461260313220713]

>  <energy>  (22) 
-529.9236685485737

>  <inter_energy>  (22) 
-537.6758008349508

>  <intra_energy>  (22) 
11.623883238956694

>  <rmsd>  (22) 
6.85239

>  <sdf_rank>  (22) 
0

$$$$

     RDKit          3D

 69 73  0  0  0  0  0  0  0  0999 V2000
    4.9558    3.7421   18.8873 C   0  0  0  0  0  0  0  0  0  0  0  0
   -4.5363    7.5297    7.9744 C   0  0  2  0  0  0  0  0  0  0  0  0
    4.3794    1.4590   19.4291 C   0  0  0  0  0  0  0  0  0  0  0  0
    4.1818    2.6109   18.6424 C   0  0  0  0  0  0  0  0  0  0  0  0
    2.7913    6.9962   16.4782 C   0  0  2  0  0  0  0  0  0  0  0  0
   -2.2743    9.5537   11.1420 C   0  0  0  0  0  0  0  0  0  0  0  0
   -3.1876    7.0167    7.5241 C   0  0  1  0  0  0  0  0  0  0  0  0
    2.8329    6.1145   17.7349 C   0  0  1  0  0  0  0  0  0  0  0  0
    5.9233    3.7486   19.8715 C   0  0  0  0  0  0  0  0  0  0  0  0
   -3.1399    5.6137    8.1710 C   0  0  1  0  0  0  0  0  0  0  0  0
    1.3115    5.8146   17.9393 C   0  0  1  0  0  0  0  0  0  0  0  0
   -3.7093    9.5189    9.2634 C   0  0  0  0  0  0  0  0  0  0  0  0
   -3.9657    5.7732    9.4291 C   0  0  1  0  0  0  0  0  0  0  0  0
    0.7529    5.9200   16.5244 C   0  0  1  0  0  0  0  0  0  0  0  0
   -3.7958   10.8545    9.2700 C   0  0  0  0  0  0  0  0  0  0  0  0
   -3.0868    5.6864   10.6761 C   0  0  0  0  0  0  0  0  0  0  0  0
   -0.7480    6.2176   16.5722 C   0  0  0  0  0  0  0  0  0  0  0  0
   -3.1068   11.5396   10.2157 C   0  0  0  0  0  0  0  0  0  0  0  0
    4.7664    4.8853   18.1114 C   0  0  0  0  0  0  0  0  0  0  0  0
    6.1241    2.6202   20.6603 C   0  0  0  0  0  0  0  0  0  0  0  0
   -5.0238   10.0669    7.6279 C   0  0  0  0  0  0  0  0  0  0  0  0
    5.3698    1.4951   20.4378 C   0  0  0  0  0  0  0  0  0  0  0  0
   -2.3484   10.9447   11.1278 N   0  0  0  0  0  0  0  0  0  0  0  0
   -2.9577    8.8519   10.1751 N   0  0  0  0  0  0  0  0  0  0  0  0
   -3.1668   12.8545   10.2327 N   0  0  0  0  0  0  0  0  0  0  0  0
   -4.6323   11.1953    8.2411 N   0  0  0  0  0  0  0  0  0  0  0  0
   -4.4991    9.0305    8.2918 N   0  0  0  0  0  0  0  0  0  0  0  0
   -4.2308    7.2750   13.9234 O   0  0  0  0  0  0  0  0  0  0  0  0
   -3.1272    3.5163   16.0990 O   0  0  0  0  0  0  0  0  0  0  0  0
    3.4182    8.2327   16.7556 O   0  0  0  0  0  0  0  0  0  0  0  0
   -3.2385    6.9269    6.1108 O   0  0  0  0  0  0  0  0  0  0  0  0
   -1.9162    6.8196   12.8732 O   0  0  0  0  0  0  0  0  0  0  0  0
   -3.6421    6.0430   16.4107 O   0  0  0  0  0  0  0  0  0  0  0  0
    3.6113    4.9733   17.3990 O   0  0  0  0  0  0  0  0  0  0  0  0
   -3.7975    4.6511    7.3643 O   0  0  0  0  0  0  0  0  0  0  0  0
   -3.3515    5.0375   14.1542 O   0  0  0  0  0  0  0  0  0  0  0  0
    1.1671    4.5273   18.4548 O   0  0  0  0  0  0  0  0  0  0  0  0
   -4.5435    7.1074    9.3815 O   0  0  0  0  0  0  0  0  0  0  0  0
    1.3430    7.1389   16.0916 O   0  0  0  0  0  0  0  0  0  0  0  0
   -3.9114    5.9726   11.8116 O   0  0  0  0  0  0  0  0  0  0  0  0
   -1.3838    5.3816   15.5777 O   0  0  0  0  0  0  0  0  0  0  0  0
    5.5883    5.7897   18.1575 O   0  0  0  0  0  0  0  0  0  0  0  0
   -3.2993    6.3736   13.2241 P   0  0  1  0  0  0  0  0  0  0  0  0
   -2.9353    4.9228   15.6615 P   0  0  2  0  0  0  0  0  0  0  0  0
   -5.3041    7.2338    7.2444 H   0  0  0  0  0  0  0  0  0  0  0  0
    3.7777    0.5533   19.2628 H   0  0  0  0  0  0  0  0  0  0  0  0
    3.4250    2.6165   17.8441 H   0  0  0  0  0  0  0  0  0  0  0  0
    3.3396    6.5552   15.6327 H   0  0  0  0  0  0  0  0  0  0  0  0
   -1.6840    9.0288   11.9075 H   0  0  0  0  0  0  0  0  0  0  0  0
   -2.3162    7.6301    7.7970 H   0  0  0  0  0  0  0  0  0  0  0  0
    3.2805    6.5305   18.6496 H   0  0  0  0  0  0  0  0  0  0  0  0
    6.5366    4.6474   20.0326 H   0  0  0  0  0  0  0  0  0  0  0  0
   -2.1031    5.2808    8.3267 H   0  0  0  0  0  0  0  0  0  0  0  0
    0.7993    6.4895   18.6409 H   0  0  0  0  0  0  0  0  0  0  0  0
   -4.7260    4.9799    9.4795 H   0  0  0  0  0  0  0  0  0  0  0  0
    0.9357    5.0173   15.9230 H   0  0  0  0  0  0  0  0  0  0  0  0
   -2.6633    4.6752   10.7662 H   0  0  0  0  0  0  0  0  0  0  0  0
   -2.2563    6.4049   10.6126 H   0  0  0  0  0  0  0  0  0  0  0  0
   -1.1464    5.9844   17.5706 H   0  0  0  0  0  0  0  0  0  0  0  0
   -0.9409    7.2811   16.3681 H   0  0  0  0  0  0  0  0  0  0  0  0
    6.8824    2.6296   21.4570 H   0  0  0  0  0  0  0  0  0  0  0  0
   -5.6641   10.0053    6.7356 H   0  0  0  0  0  0  0  0  0  0  0  0
    5.5395    0.6022   21.0575 H   0  0  0  0  0  0  0  0  0  0  0  0
   -2.6472   13.3846   10.9468 H   0  0  0  0  0  0  0  0  0  0  0  0
   -3.7333   13.3533    9.5318 H   0  0  0  0  0  0  0  0  0  0  0  0
    3.4817    8.3580   17.7356 H   0  0  0  0  0  0  0  0  0  0  0  0
   -3.7094    6.0962    5.8496 H   0  0  0  0  0  0  0  0  0  0  0  0
   -4.2501    3.9885    7.9441 H   0  0  0  0  0  0  0  0  0  0  0  0
    1.1714    4.5656   19.4440 H   0  0  0  0  0  0  0  0  0  0  0  0
  1  4  1  0
  1  9  2  0
  1 19  1  0
  2  7  1  0
  2 27  1  0
  2 38  1  0
  3  4  2  0
  3 22  1  0
  5  8  1  0
  5 30  1  0
  5 39  1  0
  6 23  2  0
  6 24  1  0
  7 10  1  0
  7 31  1  0
  8 11  1  0
  8 34  1  0
  9 20  1  0
 10 13  1  0
 10 35  1  0
 11 14  1  0
 11 37  1  0
 12 15  1  0
 12 24  2  0
 12 27  1  0
 13 16  1  0
 13 38  1  0
 14 17  1  0
 14 39  1  0
 15 18  2  0
 15 26  1  0
 16 40  1  0
 17 41  1  0
 18 23  1  0
 18 25  1  0
 19 34  1  0
 19 42  2  0
 20 22  2  0
 21 26  2  0
 21 27  1  0
 28 43  2  0
 29 44  2  0
 43 32  1  6
 44 33  1  1
 36 43  1  0
 36 44  1  0
 40 43  1  0
 41 44  1  0
  2 45  1  6
  3 46  1  0
  4 47  1  0
  5 48  1  6
  6 49  1  0
  7 50  1  6
  8 51  1  1
  9 52  1  0
 10 53  1  1
 11 54  1  1
 13 55  1  1
 14 56  1  6
 16 57  1  0
 16 58  1  0
 17 59  1  0
 17 60  1  0
 20 61  1  0
 21 62  1  0
 22 63  1  0
 25 64  1  0
 25 65  1  0
 30 66  1  0
 31 67  1  0
 35 68  1  0
 37 69  1  0
M  CHG  2  32  -1  33  -1
M  END
>  <filename_input>  (23) 
7F51_BA7_docked.sdf

>  <pdb_id>  (23) 
7F51_BA7

>  <pose_rank>  (23) 
22

>  <num_atoms_heavy>  (23) 
44

>  <num_torsions>  (23) 
12

>  <pose>  (23) 
[-3.351518867844809, 5.037458268533303, 14.154159429622977, -0.7018811886476349, 2.3529297177619792, 0.017377873259071575, 1.7441164341448676, -2.967825718844654, 0.23119718827315222, -1.9705538759775953, 2.545581782364302, -2.5480831966965223, -0.5732447676751439, -0.9034959234785475, 2.890142058076538, -0.7109603832975755, -1.0318052845434418, -2.800941316607616]

>  <energy>  (23) 
-500.42594003465723

>  <inter_energy>  (23) 
-563.5095468849507

>  <intra_energy>  (23) 
65.12568460918118

>  <rmsd>  (23) 
12.6407

>  <sdf_rank>  (23) 
0

$$$$

     RDKit          3D

 69 73  0  0  0  0  0  0  0  0999 V2000
    2.7280    3.8629   19.1290 C   0  0  0  0  0  0  0  0  0  0  0  0
   -4.2599    8.6209    7.9690 C   0  0  2  0  0  0  0  0  0  0  0  0
    4.9434    4.7997   18.8993 C   0  0  0  0  0  0  0  0  0  0  0  0
    4.0421    3.7381   18.6861 C   0  0  0  0  0  0  0  0  0  0  0  0
   -1.4568    2.1722   17.8420 C   0  0  2  0  0  0  0  0  0  0  0  0
   -2.8350   11.1388   11.2670 C   0  0  0  0  0  0  0  0  0  0  0  0
   -2.9058    8.1041    7.5398 C   0  0  1  0  0  0  0  0  0  0  0  0
    0.0001    2.5353   17.5191 C   0  0  1  0  0  0  0  0  0  0  0  0
    2.2891    5.0124   19.7543 C   0  0  0  0  0  0  0  0  0  0  0  0
   -2.7666    6.8158    8.3824 C   0  0  1  0  0  0  0  0  0  0  0  0
   -0.1966    3.5182   16.3183 C   0  0  1  0  0  0  0  0  0  0  0  0
   -3.7549   10.7961    9.1162 C   0  0  0  0  0  0  0  0  0  0  0  0
   -3.5516    7.1251    9.6387 C   0  0  1  0  0  0  0  0  0  0  0  0
   -1.5834    4.0964   16.5782 C   0  0  1  0  0  0  0  0  0  0  0  0
   -3.8224   12.1159    8.9044 C   0  0  0  0  0  0  0  0  0  0  0  0
   -2.6237    7.2613   10.8451 C   0  0  0  0  0  0  0  0  0  0  0  0
   -2.1858    4.6248   15.2739 C   0  0  0  0  0  0  0  0  0  0  0  0
   -3.3827   12.9479    9.8807 C   0  0  0  0  0  0  0  0  0  0  0  0
    1.8302    2.8166   18.9200 C   0  0  0  0  0  0  0  0  0  0  0  0
    3.1705    6.0656   19.9773 C   0  0  0  0  0  0  0  0  0  0  0  0
   -4.6112   11.0681    7.1425 C   0  0  0  0  0  0  0  0  0  0  0  0
    4.4714    5.9622   19.5515 C   0  0  0  0  0  0  0  0  0  0  0  0
   -2.8845   12.5107   11.0302 N   0  0  0  0  0  0  0  0  0  0  0  0
   -3.2642   10.2874   10.2744 N   0  0  0  0  0  0  0  0  0  0  0  0
   -3.4274   14.2494    9.6884 N   0  0  0  0  0  0  0  0  0  0  0  0
   -4.3704   12.2829    7.6610 N   0  0  0  0  0  0  0  0  0  0  0  0
   -4.2831   10.1524    8.0612 N   0  0  0  0  0  0  0  0  0  0  0  0
   -3.7399    9.2828   13.8304 O   0  0  0  0  0  0  0  0  0  0  0  0
   -5.2141    6.6464   14.3405 O   0  0  0  0  0  0  0  0  0  0  0  0
   -1.6131    0.7687   17.7746 O   0  0  0  0  0  0  0  0  0  0  0  0
   -3.0049    7.8037    6.1584 O   0  0  0  0  0  0  0  0  0  0  0  0
   -1.4347    8.7129   12.8159 O   0  0  0  0  0  0  0  0  0  0  0  0
   -4.0521    7.3386   16.5580 O   0  0  0  0  0  0  0  0  0  0  0  0
    0.5307    3.1441   18.6891 O   0  0  0  0  0  0  0  0  0  0  0  0
   -3.4067    5.7174    7.7551 O   0  0  0  0  0  0  0  0  0  0  0  0
   -2.7869    7.1447   14.4251 O   0  0  0  0  0  0  0  0  0  0  0  0
    0.7892    4.5026   16.3705 O   0  0  0  0  0  0  0  0  0  0  0  0
   -4.1943    8.4120    9.4217 O   0  0  0  0  0  0  0  0  0  0  0  0
   -2.3211    2.9134   16.8565 O   0  0  0  0  0  0  0  0  0  0  0  0
   -3.4245    7.6396   11.9707 O   0  0  0  0  0  0  0  0  0  0  0  0
   -3.5154    5.1062   15.5785 O   0  0  0  0  0  0  0  0  0  0  0  0
    2.2435    1.6666   18.8710 O   0  0  0  0  0  0  0  0  0  0  0  0
   -2.7957    8.2981   13.2752 P   0  0  1  0  0  0  0  0  0  0  0  0
   -4.0219    6.6040   15.2256 P   0  0  2  0  0  0  0  0  0  0  0  0
   -5.0393    8.1881    7.3247 H   0  0  0  0  0  0  0  0  0  0  0  0
    5.9892    4.7261   18.5664 H   0  0  0  0  0  0  0  0  0  0  0  0
    4.3727    2.8214   18.1758 H   0  0  0  0  0  0  0  0  0  0  0  0
   -1.7514    2.4669   18.8600 H   0  0  0  0  0  0  0  0  0  0  0  0
   -2.4619   10.7455   12.2241 H   0  0  0  0  0  0  0  0  0  0  0  0
   -2.0554    8.7873    7.6813 H   0  0  0  0  0  0  0  0  0  0  0  0
    0.6942    1.7235   17.2562 H   0  0  0  0  0  0  0  0  0  0  0  0
    1.2408    5.0959   20.0769 H   0  0  0  0  0  0  0  0  0  0  0  0
   -1.7099    6.5536    8.5394 H   0  0  0  0  0  0  0  0  0  0  0  0
   -0.1186    3.0527   15.3247 H   0  0  0  0  0  0  0  0  0  0  0  0
   -4.2705    6.3168    9.8381 H   0  0  0  0  0  0  0  0  0  0  0  0
   -1.5806    4.8922   17.3376 H   0  0  0  0  0  0  0  0  0  0  0  0
   -2.1262    6.3008   11.0453 H   0  0  0  0  0  0  0  0  0  0  0  0
   -1.8493    8.0183   10.6518 H   0  0  0  0  0  0  0  0  0  0  0  0
   -1.5692    5.4461   14.8800 H   0  0  0  0  0  0  0  0  0  0  0  0
   -2.2236    3.8316   14.5128 H   0  0  0  0  0  0  0  0  0  0  0  0
    2.8270    6.9753   20.4916 H   0  0  0  0  0  0  0  0  0  0  0  0
   -5.0088   10.8617    6.1378 H   0  0  0  0  0  0  0  0  0  0  0  0
    5.1615    6.8017   19.7213 H   0  0  0  0  0  0  0  0  0  0  0  0
   -3.0959   14.8903   10.4235 H   0  0  0  0  0  0  0  0  0  0  0  0
   -3.7939   14.6269    8.8029 H   0  0  0  0  0  0  0  0  0  0  0  0
   -1.6545    0.3969   18.6911 H   0  0  0  0  0  0  0  0  0  0  0  0
   -3.3132    6.8698    6.0451 H   0  0  0  0  0  0  0  0  0  0  0  0
   -3.7637    5.1049    8.4461 H   0  0  0  0  0  0  0  0  0  0  0  0
    0.9979    4.7110   17.3156 H   0  0  0  0  0  0  0  0  0  0  0  0
  1  4  1  0
  1  9  2  0
  1 19  1  0
  2  7  1  0
  2 27  1  0
  2 38  1  0
  3  4  2  0
  3 22  1  0
  5  8  1  0
  5 30  1  0
  5 39  1  0
  6 23  2  0
  6 24  1  0
  7 10  1  0
  7 31  1  0
  8 11  1  0
  8 34  1  0
  9 20  1  0
 10 13  1  0
 10 35  1  0
 11 14  1  0
 11 37  1  0
 12 15  1  0
 12 24  2  0
 12 27  1  0
 13 16  1  0
 13 38  1  0
 14 17  1  0
 14 39  1  0
 15 18  2  0
 15 26  1  0
 16 40  1  0
 17 41  1  0
 18 23  1  0
 18 25  1  0
 19 34  1  0
 19 42  2  0
 20 22  2  0
 21 26  2  0
 21 27  1  0
 28 43  2  0
 29 44  2  0
 43 32  1  6
 44 33  1  1
 36 43  1  0
 36 44  1  0
 40 43  1  0
 41 44  1  0
  2 45  1  6
  3 46  1  0
  4 47  1  0
  5 48  1  1
  6 49  1  0
  7 50  1  6
  8 51  1  6
  9 52  1  0
 10 53  1  1
 11 54  1  6
 13 55  1  1
 14 56  1  1
 16 57  1  0
 16 58  1  0
 17 59  1  0
 17 60  1  0
 20 61  1  0
 21 62  1  0
 22 63  1  0
 25 64  1  0
 25 65  1  0
 30 66  1  0
 31 67  1  0
 35 68  1  0
 37 69  1  0
M  CHG  2  32  -1  33  -1
M  END
>  <filename_input>  (24) 
7F51_BA7_docked.sdf

>  <pdb_id>  (24) 
7F51_BA7

>  <pose_rank>  (24) 
23

>  <num_atoms_heavy>  (24) 
44

>  <num_torsions>  (24) 
12

>  <pose>  (24) 
[-2.7869074138209347, 7.14470269450378, 14.425113343682934, 4.480239248320051, -1.5611539509227887, 0.293108336183916, -78.1510125319332, 9.5255871212933, -43.72204489079079, 10.624942762885219, -4.034101190624442, -42.82886274826322, -21.780339958079697, 11.152681362011112, -16.74840570638623, -0.23165000022021345, 17.94282415435468, -5.654343774882136]

>  <energy>  (24) 
-513.5481595996594

>  <inter_energy>  (24) 
-606.9469066718503

>  <intra_energy>  (24) 
95.22983709576457

>  <rmsd>  (24) 
12.7313

>  <sdf_rank>  (24) 
0

$$$$

     RDKit          3D

 69 73  0  0  0  0  0  0  0  0999 V2000
   -2.8696    7.1970    9.9784 C   0  0  0  0  0  0  0  0  0  0  0  0
    3.0161    7.0553   17.5606 C   0  0  2  0  0  0  0  0  0  0  0  0
   -3.4657    5.3528    8.5356 C   0  0  0  0  0  0  0  0  0  0  0  0
   -3.1806    5.8487    9.8230 C   0  0  0  0  0  0  0  0  0  0  0  0
   -4.1328    6.9138   13.6543 C   0  0  2  0  0  0  0  0  0  0  0  0
   -0.3132    9.3145   15.8118 C   0  0  0  0  0  0  0  0  0  0  0  0
    2.0147    7.4886   18.6067 C   0  0  1  0  0  0  0  0  0  0  0  0
   -2.6321    7.2112   13.5207 C   0  0  1  0  0  0  0  0  0  0  0  0
   -2.8544    8.0575    8.8995 C   0  0  0  0  0  0  0  0  0  0  0  0
    1.4304    6.1375   19.0780 C   0  0  1  0  0  0  0  0  0  0  0  0
   -2.0487    6.3236   14.6688 C   0  0  1  0  0  0  0  0  0  0  0  0
    1.9631    8.6986   15.9817 C   0  0  0  0  0  0  0  0  0  0  0  0
    1.5263    5.2597   17.8490 C   0  0  1  0  0  0  0  0  0  0  0  0
   -3.0787    5.2057   14.7887 C   0  0  1  0  0  0  0  0  0  0  0  0
    2.2933    9.5412   14.9957 C   0  0  0  0  0  0  0  0  0  0  0  0
    0.1391    4.9464   17.2898 C   0  0  0  0  0  0  0  0  0  0  0  0
   -3.0052    4.5696   16.1792 C   0  0  0  0  0  0  0  0  0  0  0  0
    1.3105   10.2801   14.4241 C   0  0  0  0  0  0  0  0  0  0  0  0
   -2.5877    7.6949   11.2502 C   0  0  0  0  0  0  0  0  0  0  0  0
   -3.1273    7.5795    7.6216 C   0  0  0  0  0  0  0  0  0  0  0  0
    4.1035    8.5084   15.6894 C   0  0  0  0  0  0  0  0  0  0  0  0
   -3.4333    6.2530    7.4455 C   0  0  0  0  0  0  0  0  0  0  0  0
    0.0410   10.2079   14.8034 N   0  0  0  0  0  0  0  0  0  0  0  0
    0.6812    8.5730   16.4083 N   0  0  0  0  0  0  0  0  0  0  0  0
    1.6147   11.1250   13.4615 N   0  0  0  0  0  0  0  0  0  0  0  0
    3.6436    9.4122   14.8095 N   0  0  0  0  0  0  0  0  0  0  0  0
    3.0595    8.0280   16.3747 N   0  0  0  0  0  0  0  0  0  0  0  0
    0.2499    2.8252   19.3223 O   0  0  0  0  0  0  0  0  0  0  0  0
   -4.2678    2.1197   17.7609 O   0  0  0  0  0  0  0  0  0  0  0  0
   -4.8332    8.1273   13.8440 O   0  0  0  0  0  0  0  0  0  0  0  0
    2.7534    8.1152   19.6411 O   0  0  0  0  0  0  0  0  0  0  0  0
    0.2922    1.1845   17.3288 O   0  0  0  0  0  0  0  0  0  0  0  0
   -2.4777    0.7349   16.4864 O   0  0  0  0  0  0  0  0  0  0  0  0
   -2.2553    6.7954   12.2145 O   0  0  0  0  0  0  0  0  0  0  0  0
    2.2444    5.5430   20.0749 O   0  0  0  0  0  0  0  0  0  0  0  0
   -1.8461    2.4367   18.1871 O   0  0  0  0  0  0  0  0  0  0  0  0
   -0.8028    5.8354   14.2776 O   0  0  0  0  0  0  0  0  0  0  0  0
    2.2500    6.0254   16.8460 O   0  0  0  0  0  0  0  0  0  0  0  0
   -4.2878    5.9535   14.8037 O   0  0  0  0  0  0  0  0  0  0  0  0
    0.1153    3.5591   16.9346 O   0  0  0  0  0  0  0  0  0  0  0  0
   -2.6667    3.1752   15.9966 O   0  0  0  0  0  0  0  0  0  0  0  0
   -2.5689    8.9036   11.4353 O   0  0  0  0  0  0  0  0  0  0  0  0
   -0.2294    2.4198   17.9900 P   0  0  1  0  0  0  0  0  0  0  0  0
   -2.9283    2.0413   17.1237 P   0  0  2  0  0  0  0  0  0  0  0  0
    3.9895    6.8703   18.0384 H   0  0  0  0  0  0  0  0  0  0  0  0
   -3.7078    4.2909    8.3820 H   0  0  0  0  0  0  0  0  0  0  0  0
   -3.2035    5.1787   10.6951 H   0  0  0  0  0  0  0  0  0  0  0  0
   -4.5555    6.4517   12.7500 H   0  0  0  0  0  0  0  0  0  0  0  0
   -1.3622    9.2043   16.1239 H   0  0  0  0  0  0  0  0  0  0  0  0
    1.2323    8.1864   18.2739 H   0  0  0  0  0  0  0  0  0  0  0  0
   -2.2962    8.2542   13.6174 H   0  0  0  0  0  0  0  0  0  0  0  0
   -2.6261    9.1230    9.0500 H   0  0  0  0  0  0  0  0  0  0  0  0
    0.4182    6.2622   19.4904 H   0  0  0  0  0  0  0  0  0  0  0  0
   -1.8911    6.8491   15.6223 H   0  0  0  0  0  0  0  0  0  0  0  0
    2.0239    4.3126   18.1047 H   0  0  0  0  0  0  0  0  0  0  0  0
   -2.9621    4.4308   14.0168 H   0  0  0  0  0  0  0  0  0  0  0  0
   -0.6270    5.1510   18.0521 H   0  0  0  0  0  0  0  0  0  0  0  0
   -0.0719    5.5726   16.4104 H   0  0  0  0  0  0  0  0  0  0  0  0
   -2.2319    5.0691   16.7813 H   0  0  0  0  0  0  0  0  0  0  0  0
   -3.9658    4.6716   16.7054 H   0  0  0  0  0  0  0  0  0  0  0  0
   -3.0980    8.2602    6.7581 H   0  0  0  0  0  0  0  0  0  0  0  0
    5.1549    8.2143   15.8235 H   0  0  0  0  0  0  0  0  0  0  0  0
   -3.6582    5.8822    6.4346 H   0  0  0  0  0  0  0  0  0  0  0  0
    0.8758   11.6911   13.0205 H   0  0  0  0  0  0  0  0  0  0  0  0
    2.5917   11.2200   13.1493 H   0  0  0  0  0  0  0  0  0  0  0  0
   -4.9341    8.3020   14.8133 H   0  0  0  0  0  0  0  0  0  0  0  0
    2.4059    7.8204   20.5200 H   0  0  0  0  0  0  0  0  0  0  0  0
    1.9038    5.7918   20.9706 H   0  0  0  0  0  0  0  0  0  0  0  0
   -0.2641    5.6242   15.0809 H   0  0  0  0  0  0  0  0  0  0  0  0
  1  4  1  0
  1  9  2  0
  1 19  1  0
  2  7  1  0
  2 27  1  0
  2 38  1  0
  3  4  2  0
  3 22  1  0
  5  8  1  0
  5 30  1  0
  5 39  1  0
  6 23  2  0
  6 24  1  0
  7 10  1  0
  7 31  1  0
  8 11  1  0
  8 34  1  0
  9 20  1  0
 10 13  1  0
 10 35  1  0
 11 14  1  0
 11 37  1  0
 12 15  1  0
 12 24  2  0
 12 27  1  0
 13 16  1  0
 13 38  1  0
 14 17  1  0
 14 39  1  0
 15 18  2  0
 15 26  1  0
 16 40  1  0
 17 41  1  0
 18 23  1  0
 18 25  1  0
 19 34  1  0
 19 42  2  0
 20 22  2  0
 21 26  2  0
 21 27  1  0
 28 43  2  0
 29 44  2  0
 43 32  1  6
 44 33  1  6
 36 43  1  0
 36 44  1  0
 40 43  1  0
 41 44  1  0
  2 45  1  1
  3 46  1  0
  4 47  1  0
  5 48  1  6
  6 49  1  0
  7 50  1  6
  8 51  1  1
  9 52  1  0
 10 53  1  1
 11 54  1  1
 13 55  1  1
 14 56  1  6
 16 57  1  0
 16 58  1  0
 17 59  1  0
 17 60  1  0
 20 61  1  0
 21 62  1  0
 22 63  1  0
 25 64  1  0
 25 65  1  0
 30 66  1  0
 31 67  1  0
 35 68  1  0
 37 69  1  0
M  CHG  2  32  -1  33  -1
M  END
>  <filename_input>  (25) 
7F51_BA7_docked.sdf

>  <pdb_id>  (25) 
7F51_BA7

>  <pose_rank>  (25) 
24

>  <num_atoms_heavy>  (25) 
44

>  <num_torsions>  (25) 
12

>  <pose>  (25) 
[-1.8461033008134065, 2.4367095557391996, 18.187058139127952, -1.7378110219197103, -0.7958683725332586, -1.6332007744906083, -0.27881040896516185, 0.14460486903847408, -1.7187815990427855, -1.1295247813658547, 3.0636804507987745, -2.628238934446965, 2.0183171866723875, -0.12254509647461988, 3.2037969129007133, -1.3361402224003176, 0.5200533813414935, -2.78009384331597]

>  <energy>  (25) 
-469.0236307872075

>  <inter_energy>  (25) 
-534.0943461489768

>  <intra_energy>  (25) 
65.34654814596492

>  <rmsd>  (25) 
9.15271

>  <sdf_rank>  (25) 
0

$$$$

     RDKit          3D

 69 73  0  0  0  0  0  0  0  0999 V2000
   -0.1590    6.2370    0.6610 C   0  0  0  0  0  0  0  0  0  0  0  0
   -3.5650    5.0080   15.7960 C   0  0  2  0  0  0  0  0  0  0  0  0
    0.9630    5.2740   -1.2500 C   0  0  0  0  0  0  0  0  0  0  0  0
    0.8790    5.4670    0.1430 C   0  0  0  0  0  0  0  0  0  0  0  0
   -1.9780    8.6890    4.2130 C   0  0  2  0  0  0  0  0  0  0  0  0
   -3.4480    1.1030   17.7920 C   0  0  0  0  0  0  0  0  0  0  0  0
   -3.3890    6.5080   15.8590 C   0  0  1  0  0  0  0  0  0  0  0  0
   -1.2580    7.3670    3.9090 C   0  0  1  0  0  0  0  0  0  0  0  0
   -1.1150    6.7970   -0.1620 C   0  0  0  0  0  0  0  0  0  0  0  0
   -4.0770    6.9720   14.5550 C   0  0  1  0  0  0  0  0  0  0  0  0
   -2.1850    6.3460    4.6470 C   0  0  1  0  0  0  0  0  0  0  0  0
   -2.4450    3.0400   16.8800 C   0  0  0  0  0  0  0  0  0  0  0  0
   -3.8630    5.8120   13.6070 C   0  0  1  0  0  0  0  0  0  0  0  0
   -3.5400    7.0450    4.6290 C   0  0  1  0  0  0  0  0  0  0  0  0
   -1.2240    2.5860   17.1870 C   0  0  0  0  0  0  0  0  0  0  0  0
   -2.8950    6.1910   12.4870 C   0  0  0  0  0  0  0  0  0  0  0  0
   -4.4260    6.5040    5.7540 C   0  0  0  0  0  0  0  0  0  0  0  0
   -1.1200    1.3770   17.7920 C   0  0  0  0  0  0  0  0  0  0  0  0
   -0.2490    6.4310    2.0390 C   0  0  0  0  0  0  0  0  0  0  0  0
   -1.0400    6.6200   -1.5400 C   0  0  0  0  0  0  0  0  0  0  0  0
   -1.0350    4.5540   16.2300 C   0  0  0  0  0  0  0  0  0  0  0  0
   -0.0230    5.8670   -2.0720 C   0  0  0  0  0  0  0  0  0  0  0  0
   -2.1730    0.6250   18.0860 N   0  0  0  0  0  0  0  0  0  0  0  0
   -3.5610    2.3220   17.1630 N   0  0  0  0  0  0  0  0  0  0  0  0
    0.0720    0.9050   18.0910 N   0  0  0  0  0  0  0  0  0  0  0  0
   -0.3380    3.5480   16.7820 N   0  0  0  0  0  0  0  0  0  0  0  0
   -2.3370    4.2660   16.3400 N   0  0  0  0  0  0  0  0  0  0  0  0
   -1.5030    7.9400   10.5030 O   0  0  0  0  0  0  0  0  0  0  0  0
   -5.2500    5.9910    8.9770 O   0  0  0  0  0  0  0  0  0  0  0  0
   -1.0780    9.5740    4.8500 O   0  0  0  0  0  0  0  0  0  0  0  0
   -4.1020    6.9530   17.0000 O   0  0  0  0  0  0  0  0  0  0  0  0
   -3.8800    8.6720    9.8090 O   0  0  0  0  0  0  0  0  0  0  0  0
   -3.5220    4.3850    7.8900 O   0  0  0  0  0  0  0  0  0  0  0  0
   -1.2510    7.2300    2.4940 O   0  0  0  0  0  0  0  0  0  0  0  0
   -5.4770    7.1090   14.7310 O   0  0  0  0  0  0  0  0  0  0  0  0
   -2.8110    6.3440    9.2480 O   0  0  0  0  0  0  0  0  0  0  0  0
   -2.2120    5.1530    3.9260 O   0  0  0  0  0  0  0  0  0  0  0  0
   -3.2510    4.7460   14.3850 O   0  0  0  0  0  0  0  0  0  0  0  0
   -3.1760    8.3500    5.0600 O   0  0  0  0  0  0  0  0  0  0  0  0
   -3.5810    7.0830   11.6010 O   0  0  0  0  0  0  0  0  0  0  0  0
   -3.7150    6.7080    6.9970 O   0  0  0  0  0  0  0  0  0  0  0  0
    0.5080    5.8260    2.7850 O   0  0  0  0  0  0  0  0  0  0  0  0
   -2.9190    7.6180   10.2570 P   0  0  1  0  0  0  0  0  0  0  0  0
   -3.9380    5.7870    8.3110 P   0  0  2  0  0  0  0  0  0  0  0  0
   -4.5172    4.7297   16.2713 H   0  0  0  0  0  0  0  0  0  0  0  0
    1.7761    4.6763   -1.6877 H   0  0  0  0  0  0  0  0  0  0  0  0
    1.6246    5.0148    0.8135 H   0  0  0  0  0  0  0  0  0  0  0  0
   -2.3237    9.2023    3.3036 H   0  0  0  0  0  0  0  0  0  0  0  0
   -4.3428    0.5203   18.0561 H   0  0  0  0  0  0  0  0  0  0  0  0
   -2.3550    6.8752   15.9369 H   0  0  0  0  0  0  0  0  0  0  0  0
   -0.2121    7.2565    4.2313 H   0  0  0  0  0  0  0  0  0  0  0  0
   -1.9376    7.3842    0.2722 H   0  0  0  0  0  0  0  0  0  0  0  0
   -3.6774    7.9387   14.2148 H   0  0  0  0  0  0  0  0  0  0  0  0
   -1.8638    6.0857    5.6664 H   0  0  0  0  0  0  0  0  0  0  0  0
   -4.8221    5.5159   13.1570 H   0  0  0  0  0  0  0  0  0  0  0  0
   -4.0599    6.9476    3.6645 H   0  0  0  0  0  0  0  0  0  0  0  0
   -2.0102    6.6897   12.9095 H   0  0  0  0  0  0  0  0  0  0  0  0
   -2.5609    5.2930   11.9466 H   0  0  0  0  0  0  0  0  0  0  0  0
   -5.3825    7.0468    5.7740 H   0  0  0  0  0  0  0  0  0  0  0  0
   -4.6429    5.4367    5.5999 H   0  0  0  0  0  0  0  0  0  0  0  0
   -1.7909    7.0805   -2.1989 H   0  0  0  0  0  0  0  0  0  0  0  0
   -0.6099    5.4572   15.7680 H   0  0  0  0  0  0  0  0  0  0  0  0
    0.0260    5.7218   -3.1613 H   0  0  0  0  0  0  0  0  0  0  0  0
    0.1623   -0.0123   18.5506 H   0  0  0  0  0  0  0  0  0  0  0  0
    0.9144    1.4530   17.8653 H   0  0  0  0  0  0  0  0  0  0  0  0
   -1.1678    9.4857    5.8320 H   0  0  0  0  0  0  0  0  0  0  0  0
   -3.6305    6.6587   17.8193 H   0  0  0  0  0  0  0  0  0  0  0  0
   -5.6876    7.1296   15.6981 H   0  0  0  0  0  0  0  0  0  0  0  0
   -2.2293    4.3881    4.5542 H   0  0  0  0  0  0  0  0  0  0  0  0
  1  4  1  0
  1  9  2  0
  1 19  1  0
  2  7  1  0
  2 27  1  0
  2 38  1  0
  3  4  2  0
  3 22  1  0
  5  8  1  0
  5 30  1  0
  5 39  1  0
  6 23  2  0
  6 24  1  0
  7 10  1  0
  7 31  1  0
  8 11  1  0
  8 34  1  0
  9 20  1  0
 10 13  1  0
 10 35  1  0
 11 14  1  0
 11 37  1  0
 12 15  1  0
 12 24  2  0
 12 27  1  0
 13 16  1  0
 13 38  1  0
 14 17  1  0
 14 39  1  0
 15 18  2  0
 15 26  1  0
 16 40  1  0
 17 41  1  0
 18 23  1  0
 18 25  1  0
 19 34  1  0
 19 42  2  0
 20 22  2  0
 21 26  2  0
 21 27  1  0
 28 43  2  0
 29 44  2  0
 43 32  1  6
 44 33  1  6
 36 43  1  0
 36 44  1  0
 40 43  1  0
 41 44  1  0
  2 45  1  1
  3 46  1  0
  4 47  1  0
  5 48  1  6
  6 49  1  0
  7 50  1  1
  8 51  1  1
  9 52  1  0
 10 53  1  6
 11 54  1  1
 13 55  1  6
 14 56  1  6
 16 57  1  0
 16 58  1  0
 17 59  1  0
 17 60  1  0
 20 61  1  0
 21 62  1  0
 22 63  1  0
 25 64  1  0
 25 65  1  0
 30 66  1  0
 31 67  1  0
 35 68  1  0
 37 69  1  0
M  CHG  2  32  -1  33  -1
M  END
>  <filename_input>  (26) 
7F51_BA7_docked.sdf

>  <pdb_id>  (26) 
7F51_BA7

>  <pose_rank>  (26) 
25

>  <num_atoms_heavy>  (26) 
44

>  <num_torsions>  (26) 
12

>  <pose>  (26) 
[-2.811, 6.344, 9.248, 1e-06, 1e-06, 1e-06, 0.0, 0.0, 0.0, 0.0, 0.0, 0.0, 0.0, 0.0, 0.0, 0.0, 0.0, 0.0]

>  <energy>  (26) 
-1182.2543580569968

>  <inter_energy>  (26) 
-1205.7725934663822

>  <intra_energy>  (26) 
19.778968178939316

>  <rmsd>  (26) 
0.0

>  <sdf_rank>  (26) 
0

$$$$
