
     RDKit          3D

 35 37  0  0  0  0  0  0  0  0999 V2000
   10.1820   -6.9116   31.2444 C   0  0  0  0  0  0  0  0  0  0  0  0
   11.5289   -6.4631   29.4794 C   0  0  0  0  0  0  0  0  0  0  0  0
    7.6290   -2.9446   26.0859 C   0  0  0  0  0  0  0  0  0  0  0  0
    5.6484   -4.0448   27.8610 C   0  0  0  0  0  0  0  0  0  0  0  0
    4.3004   -4.4643   29.6094 C   0  0  0  0  0  0  0  0  0  0  0  0
    5.3606   -5.0840   30.2736 C   0  0  0  0  0  0  0  0  0  0  0  0
    6.5889   -5.1359   29.6216 C   0  0  0  0  0  0  0  0  0  0  0  0
    7.8407   -5.7731   30.2181 C   0  0  0  0  0  0  0  0  0  0  0  0
    9.0208   -5.7527   29.4753 C   0  0  0  0  0  0  0  0  0  0  0  0
   10.2047   -6.3319   30.0020 C   0  0  0  0  0  0  0  0  0  0  0  0
    8.9765   -6.9263   32.0032 C   0  0  0  0  0  0  0  0  0  0  0  0
    7.8155   -6.3563   31.4847 C   0  0  0  0  0  0  0  0  0  0  0  0
   12.2360   -7.1283   30.4817 C   0  0  0  0  0  0  0  0  0  0  0  0
    2.8076   -4.0845   31.6183 C   0  0  0  0  0  0  0  0  0  0  0  0
    4.4652   -3.9599   28.4016 N   0  0  0  0  0  0  0  0  0  0  0  0
    6.6876   -4.6068   28.4294 N   0  0  0  0  0  0  0  0  0  0  0  0
   11.4327   -7.3820   31.5054 N   0  0  0  0  0  0  0  0  0  0  0  0
    2.9831   -4.3540   30.1993 N   0  0  0  0  0  0  0  0  0  0  0  0
    5.0678   -2.1371   26.0840 O   0  0  0  0  0  0  0  0  0  0  0  0
    5.4490   -4.3204   25.2431 O   0  0  0  0  0  0  0  0  0  0  0  0
    5.8762   -3.3409   26.2363 S   0  0  1  0  0  0  0  0  0  0  0  0
   11.9058   -6.1172   28.5056 H   0  0  0  0  0  0  0  0  0  0  0  0
    8.0697   -2.8449   27.0889 H   0  0  0  0  0  0  0  0  0  0  0  0
    8.1413   -3.7496   25.5386 H   0  0  0  0  0  0  0  0  0  0  0  0
    7.7452   -1.9975   25.5386 H   0  0  0  0  0  0  0  0  0  0  0  0
    5.2296   -5.5160   31.2767 H   0  0  0  0  0  0  0  0  0  0  0  0
    9.0341   -5.2866   28.4790 H   0  0  0  0  0  0  0  0  0  0  0  0
    8.9621   -7.3889   33.0011 H   0  0  0  0  0  0  0  0  0  0  0  0
    6.8847   -6.3662   32.0709 H   0  0  0  0  0  0  0  0  0  0  0  0
   13.3004   -7.4012   30.4302 H   0  0  0  0  0  0  0  0  0  0  0  0
    3.3152   -4.8643   32.2051 H   0  0  0  0  0  0  0  0  0  0  0  0
    3.2402   -3.1028   31.8613 H   0  0  0  0  0  0  0  0  0  0  0  0
    1.7348   -4.0827   31.8613 H   0  0  0  0  0  0  0  0  0  0  0  0
   11.7135   -7.8642   32.3711 H   0  0  0  0  0  0  0  0  0  0  0  0
    2.1521   -4.4688   29.6016 H   0  0  0  0  0  0  0  0  0  0  0  0
  1 10  2  0
  1 11  1  0
  1 17  1  0
  2 10  1  0
  2 13  2  0
 21  3  1  6
  4 15  2  0
  4 16  1  0
  4 21  1  0
  5  6  2  0
  5 15  1  0
  5 18  1  0
  6  7  1  0
  7  8  1  0
  7 16  2  0
  8  9  2  0
  8 12  1  0
  9 10  1  0
 11 12  2  0
 13 17  1  0
 14 18  1  0
 19 21  2  0
 20 21  2  0
  2 22  1  0
  3 23  1  0
  3 24  1  0
  3 25  1  0
  6 26  1  0
  9 27  1  0
 11 28  1  0
 12 29  1  0
 13 30  1  0
 14 31  1  0
 14 32  1  0
 14 33  1  0
 17 34  1  0
 18 35  1  0
M  END
>  <filename_input>  (1) 
7F5D_EUO_docked.sdf

>  <pdb_id>  (1) 
7F5D_EUO

>  <pose_rank>  (1) 
0

>  <num_atoms_heavy>  (1) 
21

>  <num_torsions>  (1) 
3

>  <pose>  (1) 
[5.648360152780653, -4.044796442034994, 27.861046531246323, 5.036231056638354, 3.2379287858506083, -1.6816443170666597, -12.581080142562554, -0.7345191602218843, 0.5256467082174707]

>  <energy>  (1) 
-701.2058068544014

>  <inter_energy>  (1) 
-676.7136600351333

>  <intra_energy>  (1) 
0.0

>  <rmsd>  (1) 
0.639256

>  <sdf_rank>  (1) 
0

$$$$

     RDKit          3D

 35 37  0  0  0  0  0  0  0  0999 V2000
    4.1923   -5.9715   33.8694 C   0  0  0  0  0  0  0  0  0  0  0  0
    2.2959   -5.6066   32.6859 C   0  0  0  0  0  0  0  0  0  0  0  0
    6.3113   -2.2694   27.2290 C   0  0  0  0  0  0  0  0  0  0  0  0
    7.2349   -4.7068   28.4499 C   0  0  0  0  0  0  0  0  0  0  0  0
    9.0756   -5.4626   29.4940 C   0  0  0  0  0  0  0  0  0  0  0  0
    8.3218   -5.6974   30.6455 C   0  0  0  0  0  0  0  0  0  0  0  0
    6.9644   -5.3942   30.6014 C   0  0  0  0  0  0  0  0  0  0  0  0
    6.0097   -5.6000   31.7741 C   0  0  0  0  0  0  0  0  0  0  0  0
    4.6386   -5.4807   31.5496 C   0  0  0  0  0  0  0  0  0  0  0  0
    3.7224   -5.6704   32.6169 C   0  0  0  0  0  0  0  0  0  0  0  0
    5.5932   -6.0980   34.0946 C   0  0  0  0  0  0  0  0  0  0  0  0
    6.4910   -5.9122   33.0453 C   0  0  0  0  0  0  0  0  0  0  0  0
    1.9972   -5.8911   34.0189 C   0  0  0  0  0  0  0  0  0  0  0  0
   11.1931   -6.3624   30.5498 C   0  0  0  0  0  0  0  0  0  0  0  0
    8.5133   -4.9593   28.4120 N   0  0  0  0  0  0  0  0  0  0  0  0
    6.4672   -4.9080   29.4934 N   0  0  0  0  0  0  0  0  0  0  0  0
    3.1178   -6.1017   34.6952 N   0  0  0  0  0  0  0  0  0  0  0  0
   10.4939   -5.7457   29.4328 N   0  0  0  0  0  0  0  0  0  0  0  0
    5.1592   -4.6513   26.7699 O   0  0  0  0  0  0  0  0  0  0  0  0
    7.3181   -4.3657   25.8334 O   0  0  0  0  0  0  0  0  0  0  0  0
    6.4702   -4.0480   26.9773 S   0  0  1  0  0  0  0  0  0  0  0  0
    1.5917   -5.3832   31.8709 H   0  0  0  0  0  0  0  0  0  0  0  0
    6.2919   -2.0519   28.3071 H   0  0  0  0  0  0  0  0  0  0  0  0
    7.1671   -1.7557   26.7667 H   0  0  0  0  0  0  0  0  0  0  0  0
    5.3780   -1.9156   26.7667 H   0  0  0  0  0  0  0  0  0  0  0  0
    8.7845   -6.1075   31.5553 H   0  0  0  0  0  0  0  0  0  0  0  0
    4.2663   -5.2389   30.5432 H   0  0  0  0  0  0  0  0  0  0  0  0
    5.9673   -6.3430   35.0996 H   0  0  0  0  0  0  0  0  0  0  0  0
    7.5728   -6.0112   33.2185 H   0  0  0  0  0  0  0  0  0  0  0  0
    0.9838   -5.9341   34.4447 H   0  0  0  0  0  0  0  0  0  0  0  0
   10.7722   -5.9912   31.4959 H   0  0  0  0  0  0  0  0  0  0  0  0
   11.0737   -7.4548   30.4991 H   0  0  0  0  0  0  0  0  0  0  0  0
   12.2620   -6.1077   30.4991 H   0  0  0  0  0  0  0  0  0  0  0  0
    3.1682   -6.3304   35.6982 H   0  0  0  0  0  0  0  0  0  0  0  0
   11.0194   -5.5054   28.5801 H   0  0  0  0  0  0  0  0  0  0  0  0
  1 10  2  0
  1 11  1  0
  1 17  1  0
  2 10  1  0
  2 13  2  0
 21  3  1  1
  4 15  2  0
  4 16  1  0
  4 21  1  0
  5  6  2  0
  5 15  1  0
  5 18  1  0
  6  7  1  0
  7  8  1  0
  7 16  2  0
  8  9  2  0
  8 12  1  0
  9 10  1  0
 11 12  2  0
 13 17  1  0
 14 18  1  0
 19 21  2  0
 20 21  2  0
  2 22  1  0
  3 23  1  0
  3 24  1  0
  3 25  1  0
  6 26  1  0
  9 27  1  0
 11 28  1  0
 12 29  1  0
 13 30  1  0
 14 31  1  0
 14 32  1  0
 14 33  1  0
 17 34  1  0
 18 35  1  0
M  END
>  <filename_input>  (2) 
7F5D_EUO_docked.sdf

>  <pdb_id>  (2) 
7F5D_EUO

>  <pose_rank>  (2) 
1

>  <num_atoms_heavy>  (2) 
21

>  <num_torsions>  (2) 
3

>  <pose>  (2) 
[7.234899107779163, -4.706783770615068, 28.449886299982264, -0.5191843332075063, 1.3168460666821642, -2.7339676576974288, 0.16357415311540513, 1.094886495846748, -0.0827373546988]

>  <energy>  (2) 
-559.2073098071551

>  <inter_energy>  (2) 
-564.2992752757723

>  <intra_energy>  (2) 
0.0

>  <rmsd>  (2) 
5.58639

>  <sdf_rank>  (2) 
0

$$$$

     RDKit          3D

 35 37  0  0  0  0  0  0  0  0999 V2000
   10.9805   -6.7700   31.9575 C   0  0  0  0  0  0  0  0  0  0  0  0
   13.0547   -6.0550   31.3943 C   0  0  0  0  0  0  0  0  0  0  0  0
    4.9584   -4.2719   29.4863 C   0  0  0  0  0  0  0  0  0  0  0  0
    7.0665   -4.3882   27.5300 C   0  0  0  0  0  0  0  0  0  0  0  0
    8.7924   -4.7206   26.1298 C   0  0  0  0  0  0  0  0  0  0  0  0
    9.5473   -5.2318   27.1872 C   0  0  0  0  0  0  0  0  0  0  0  0
    8.9466   -5.2881   28.4412 C   0  0  0  0  0  0  0  0  0  0  0  0
    9.6386   -5.8249   29.6909 C   0  0  0  0  0  0  0  0  0  0  0  0
   11.0110   -5.6240   29.8345 C   0  0  0  0  0  0  0  0  0  0  0  0
   11.6853   -6.1060   30.9867 C   0  0  0  0  0  0  0  0  0  0  0  0
    9.5776   -6.9691   31.8107 C   0  0  0  0  0  0  0  0  0  0  0  0
    8.9173   -6.4944   30.6792 C   0  0  0  0  0  0  0  0  0  0  0  0
   13.0768   -6.7074   32.6276 C   0  0  0  0  0  0  0  0  0  0  0  0
   10.1790   -5.6560   24.2297 C   0  0  0  0  0  0  0  0  0  0  0  0
    7.5585   -4.2973   26.3263 N   0  0  0  0  0  0  0  0  0  0  0  0
    7.7160   -4.8623   28.5656 N   0  0  0  0  0  0  0  0  0  0  0  0
   11.8557   -7.1182   32.9404 N   0  0  0  0  0  0  0  0  0  0  0  0
    9.3207   -4.6210   24.7858 N   0  0  0  0  0  0  0  0  0  0  0  0
    4.4851   -4.4934   26.8522 O   0  0  0  0  0  0  0  0  0  0  0  0
    5.3335   -2.3970   27.5627 O   0  0  0  0  0  0  0  0  0  0  0  0
    5.3884   -3.8371   27.7898 S   0  0  1  0  0  0  0  0  0  0  0  0
   13.9010   -5.6029   30.8564 H   0  0  0  0  0  0  0  0  0  0  0  0
    5.5570   -3.6666   30.1829 H   0  0  0  0  0  0  0  0  0  0  0  0
    3.8894   -4.0756   29.6554 H   0  0  0  0  0  0  0  0  0  0  0  0
    5.1666   -5.3387   29.6554 H   0  0  0  0  0  0  0  0  0  0  0  0
   10.5802   -5.5778   27.0344 H   0  0  0  0  0  0  0  0  0  0  0  0
   11.5723   -5.0908   29.0530 H   0  0  0  0  0  0  0  0  0  0  0  0
    9.0141   -7.4991   32.5927 H   0  0  0  0  0  0  0  0  0  0  0  0
    7.8338   -6.6467   30.5662 H   0  0  0  0  0  0  0  0  0  0  0  0
   13.9731   -6.8583   33.2473 H   0  0  0  0  0  0  0  0  0  0  0  0
   10.6483   -6.2219   25.0479 H   0  0  0  0  0  0  0  0  0  0  0  0
    9.5775   -6.3376   23.6104 H   0  0  0  0  0  0  0  0  0  0  0  0
   10.9601   -5.1909   23.6104 H   0  0  0  0  0  0  0  0  0  0  0  0
   11.6059   -7.6262   33.8009 H   0  0  0  0  0  0  0  0  0  0  0  0
    9.0839   -3.7999   24.2107 H   0  0  0  0  0  0  0  0  0  0  0  0
  1 10  2  0
  1 11  1  0
  1 17  1  0
  2 10  1  0
  2 13  2  0
 21  3  1  1
  4 15  2  0
  4 16  1  0
  4 21  1  0
  5  6  2  0
  5 15  1  0
  5 18  1  0
  6  7  1  0
  7  8  1  0
  7 16  2  0
  8  9  2  0
  8 12  1  0
  9 10  1  0
 11 12  2  0
 13 17  1  0
 14 18  1  0
 19 21  2  0
 20 21  2  0
  2 22  1  0
  3 23  1  0
  3 24  1  0
  3 25  1  0
  6 26  1  0
  9 27  1  0
 11 28  1  0
 12 29  1  0
 13 30  1  0
 14 31  1  0
 14 32  1  0
 14 33  1  0
 17 34  1  0
 18 35  1  0
M  END
>  <filename_input>  (3) 
7F5D_EUO_docked.sdf

>  <pdb_id>  (3) 
7F5D_EUO

>  <pose_rank>  (3) 
2

>  <num_atoms_heavy>  (3) 
21

>  <num_torsions>  (3) 
3

>  <pose>  (3) 
[7.066486208118935, -4.38824577368551, 27.530039890068544, -2.20365236638417, 1.5199380614300195, -2.027248048747715, -2.5761092700218127, -0.41339764263702444, 0.5261490985762498]

>  <energy>  (3) 
-550.3822654667094

>  <inter_energy>  (3) 
-544.1732897297329

>  <intra_energy>  (3) 
0.0

>  <rmsd>  (3) 
3.90261

>  <sdf_rank>  (3) 
0

$$$$

     RDKit          3D

 35 37  0  0  0  0  0  0  0  0999 V2000
   11.7910   -6.2371   30.3842 C   0  0  0  0  0  0  0  0  0  0  0  0
   11.8051   -5.5142   32.5307 C   0  0  0  0  0  0  0  0  0  0  0  0
    4.3277   -3.5618   25.8906 C   0  0  0  0  0  0  0  0  0  0  0  0
    6.3411   -4.0801   27.8810 C   0  0  0  0  0  0  0  0  0  0  0  0
    5.4980   -4.4713   29.9269 C   0  0  0  0  0  0  0  0  0  0  0  0
    6.7457   -4.9347   30.3487 C   0  0  0  0  0  0  0  0  0  0  0  0
    7.7833   -4.9300   29.4214 C   0  0  0  0  0  0  0  0  0  0  0  0
    9.2019   -5.3991   29.7319 C   0  0  0  0  0  0  0  0  0  0  0  0
    9.7148   -5.1790   31.0098 C   0  0  0  0  0  0  0  0  0  0  0  0
   11.0288   -5.6068   31.3339 C   0  0  0  0  0  0  0  0  0  0  0  0
   11.2625   -6.4653   29.0811 C   0  0  0  0  0  0  0  0  0  0  0  0
    9.9719   -6.0454   28.7652 C   0  0  0  0  0  0  0  0  0  0  0  0
   13.0186   -6.1232   32.2083 C   0  0  0  0  0  0  0  0  0  0  0  0
    3.0231   -4.7954   30.3488 C   0  0  0  0  0  0  0  0  0  0  0  0
    5.3172   -4.0573   28.6875 N   0  0  0  0  0  0  0  0  0  0  0  0
    7.5397   -4.4961   28.2115 N   0  0  0  0  0  0  0  0  0  0  0  0
   12.9917   -6.5396   30.9499 N   0  0  0  0  0  0  0  0  0  0  0  0
    4.3534   -4.4313   30.8123 N   0  0  0  0  0  0  0  0  0  0  0  0
    6.8194   -4.3453   25.2666 O   0  0  0  0  0  0  0  0  0  0  0  0
    6.6263   -2.1398   26.1138 O   0  0  0  0  0  0  0  0  0  0  0  0
    6.1012   -3.4974   26.2106 S   0  0  1  0  0  0  0  0  0  0  0  0
   11.5118   -5.0640   33.4905 H   0  0  0  0  0  0  0  0  0  0  0  0
    3.7831   -3.5816   26.8461 H   0  0  0  0  0  0  0  0  0  0  0  0
    4.0265   -2.6740   25.3152 H   0  0  0  0  0  0  0  0  0  0  0  0
    4.0916   -4.4691   25.3152 H   0  0  0  0  0  0  0  0  0  0  0  0
    6.9029   -5.2909   31.3774 H   0  0  0  0  0  0  0  0  0  0  0  0
    9.0997   -4.6729   31.7684 H   0  0  0  0  0  0  0  0  0  0  0  0
   11.8749   -6.9744   28.3223 H   0  0  0  0  0  0  0  0  0  0  0  0
    9.5630   -6.2226   27.7596 H   0  0  0  0  0  0  0  0  0  0  0  0
   13.8697   -6.2402   32.8953 H   0  0  0  0  0  0  0  0  0  0  0  0
    2.3693   -4.9744   31.2151 H   0  0  0  0  0  0  0  0  0  0  0  0
    2.6101   -3.9773   29.7405 H   0  0  0  0  0  0  0  0  0  0  0  0
    3.0843   -5.7099   29.7405 H   0  0  0  0  0  0  0  0  0  0  0  0
   13.7658   -7.0213   30.4707 H   0  0  0  0  0  0  0  0  0  0  0  0
    4.4835   -4.1388   31.7913 H   0  0  0  0  0  0  0  0  0  0  0  0
  1 10  2  0
  1 11  1  0
  1 17  1  0
  2 10  1  0
  2 13  2  0
 21  3  1  6
  4 15  2  0
  4 16  1  0
  4 21  1  0
  5  6  2  0
  5 15  1  0
  5 18  1  0
  6  7  1  0
  7  8  1  0
  7 16  2  0
  8  9  2  0
  8 12  1  0
  9 10  1  0
 11 12  2  0
 13 17  1  0
 14 18  1  0
 19 21  2  0
 20 21  2  0
  2 22  1  0
  3 23  1  0
  3 24  1  0
  3 25  1  0
  6 26  1  0
  9 27  1  0
 11 28  1  0
 12 29  1  0
 13 30  1  0
 14 31  1  0
 14 32  1  0
 14 33  1  0
 17 34  1  0
 18 35  1  0
M  END
>  <filename_input>  (4) 
7F5D_EUO_docked.sdf

>  <pdb_id>  (4) 
7F5D_EUO

>  <pose_rank>  (4) 
3

>  <num_atoms_heavy>  (4) 
21

>  <num_torsions>  (4) 
3

>  <pose>  (4) 
[6.3411424363801165, -4.080069081313643, 27.88100513452609, -0.12062703283481103, 0.2076705480457582, 0.12511300672041611, 2.5183459354398363, 2.492647714240747, 3.6968995844805117]

>  <energy>  (4) 
-654.6042451281189

>  <inter_energy>  (4) 
-653.3197473353681

>  <intra_energy>  (4) 
0.0

>  <rmsd>  (4) 
1.93758

>  <sdf_rank>  (4) 
0

$$$$

     RDKit          3D

 35 37  0  0  0  0  0  0  0  0999 V2000
    6.6751   -3.3045   25.1653 C   0  0  0  0  0  0  0  0  0  0  0  0
    8.2772   -4.5655   24.1787 C   0  0  0  0  0  0  0  0  0  0  0  0
   10.7333   -3.8549   32.3209 C   0  0  0  0  0  0  0  0  0  0  0  0
    8.7384   -5.2970   30.8293 C   0  0  0  0  0  0  0  0  0  0  0  0
    6.5753   -5.7045   31.2819 C   0  0  0  0  0  0  0  0  0  0  0  0
    6.2244   -5.2262   30.0181 C   0  0  0  0  0  0  0  0  0  0  0  0
    7.2498   -4.7859   29.1867 C   0  0  0  0  0  0  0  0  0  0  0  0
    7.0272   -4.2424   27.7783 C   0  0  0  0  0  0  0  0  0  0  0  0
    7.8138   -4.7366   26.7382 C   0  0  0  0  0  0  0  0  0  0  0  0
    7.6298   -4.2564   25.4152 C   0  0  0  0  0  0  0  0  0  0  0  0
    5.8694   -2.8054   26.2288 C   0  0  0  0  0  0  0  0  0  0  0  0
    6.0509   -3.2787   27.5268 C   0  0  0  0  0  0  0  0  0  0  0  0
    7.6393   -3.7558   23.2381 C   0  0  0  0  0  0  0  0  0  0  0  0
    5.6773   -5.8828   33.6420 C   0  0  0  0  0  0  0  0  0  0  0  0
    7.8363   -5.7225   31.6688 N   0  0  0  0  0  0  0  0  0  0  0  0
    8.4803   -4.8411   29.6275 N   0  0  0  0  0  0  0  0  0  0  0  0
    6.7060   -3.0260   23.8330 N   0  0  0  0  0  0  0  0  0  0  0  0
    5.5869   -6.1885   32.2223 N   0  0  0  0  0  0  0  0  0  0  0  0
   11.3294   -5.3691   30.1847 O   0  0  0  0  0  0  0  0  0  0  0  0
   10.6624   -6.5590   32.1234 O   0  0  0  0  0  0  0  0  0  0  0  0
   10.4469   -5.3440   31.3450 S   0  0  1  0  0  0  0  0  0  0  0  0
    9.0948   -5.2811   24.0071 H   0  0  0  0  0  0  0  0  0  0  0  0
   10.6855   -4.1033   33.3915 H   0  0  0  0  0  0  0  0  0  0  0  0
   11.7265   -3.4461   32.0833 H   0  0  0  0  0  0  0  0  0  0  0  0
    9.9625   -3.1069   32.0833 H   0  0  0  0  0  0  0  0  0  0  0  0
    5.1745   -5.1984   29.6910 H   0  0  0  0  0  0  0  0  0  0  0  0
    8.5785   -5.5001   26.9435 H   0  0  0  0  0  0  0  0  0  0  0  0
    5.1018   -2.0443   26.0248 H   0  0  0  0  0  0  0  0  0  0  0  0
    5.4281   -2.8945   28.3480 H   0  0  0  0  0  0  0  0  0  0  0  0
    7.8755   -3.7272   22.1642 H   0  0  0  0  0  0  0  0  0  0  0  0
    5.4131   -6.7762   34.2270 H   0  0  0  0  0  0  0  0  0  0  0  0
    6.7049   -5.5753   33.8862 H   0  0  0  0  0  0  0  0  0  0  0  0
    4.9823   -5.0659   33.8862 H   0  0  0  0  0  0  0  0  0  0  0  0
    6.0940   -2.3479   23.3571 H   0  0  0  0  0  0  0  0  0  0  0  0
    4.8029   -6.7615   31.8791 H   0  0  0  0  0  0  0  0  0  0  0  0
  1 10  2  0
  1 11  1  0
  1 17  1  0
  2 10  1  0
  2 13  2  0
 21  3  1  1
  4 15  2  0
  4 16  1  0
  4 21  1  0
  5  6  2  0
  5 15  1  0
  5 18  1  0
  6  7  1  0
  7  8  1  0
  7 16  2  0
  8  9  2  0
  8 12  1  0
  9 10  1  0
 11 12  2  0
 13 17  1  0
 14 18  1  0
 19 21  2  0
 20 21  2  0
  2 22  1  0
  3 23  1  0
  3 24  1  0
  3 25  1  0
  6 26  1  0
  9 27  1  0
 11 28  1  0
 12 29  1  0
 13 30  1  0
 14 31  1  0
 14 32  1  0
 14 33  1  0
 17 34  1  0
 18 35  1  0
M  END
>  <filename_input>  (5) 
7F5D_EUO_docked.sdf

>  <pdb_id>  (5) 
7F5D_EUO

>  <pose_rank>  (5) 
4

>  <num_atoms_heavy>  (5) 
21

>  <num_torsions>  (5) 
3

>  <pose>  (5) 
[8.73835971759788, -5.297041517827259, 30.829298800262144, 2.3626468718821423, 0.4517334106592338, -1.5267454597272838, 0.821786798896653, 1.392062657095524, -2.579302640539829]

>  <energy>  (5) 
-540.2811141986297

>  <inter_energy>  (5) 
-537.2648922181583

>  <intra_energy>  (5) 
0.0

>  <rmsd>  (5) 
6.02394

>  <sdf_rank>  (5) 
0

$$$$

     RDKit          3D

 35 37  0  0  0  0  0  0  0  0999 V2000
    5.7283   -4.3650   26.7051 C   0  0  0  0  0  0  0  0  0  0  0  0
    7.5167   -4.4081   25.3158 C   0  0  0  0  0  0  0  0  0  0  0  0
   12.0367   -5.2521   29.4769 C   0  0  0  0  0  0  0  0  0  0  0  0
    9.8760   -5.5621   31.3529 C   0  0  0  0  0  0  0  0  0  0  0  0
    8.0936   -6.2174   32.5544 C   0  0  0  0  0  0  0  0  0  0  0  0
    7.2595   -5.9110   31.4777 C   0  0  0  0  0  0  0  0  0  0  0  0
    7.8537   -5.4139   30.3217 C   0  0  0  0  0  0  0  0  0  0  0  0
    7.0784   -5.0389   29.0619 C   0  0  0  0  0  0  0  0  0  0  0  0
    7.7711   -4.9335   27.8563 C   0  0  0  0  0  0  0  0  0  0  0  0
    7.0801   -4.5913   26.6647 C   0  0  0  0  0  0  0  0  0  0  0  0
    5.0223   -4.4786   27.9372 C   0  0  0  0  0  0  0  0  0  0  0  0
    5.7024   -4.8155   29.1058 C   0  0  0  0  0  0  0  0  0  0  0  0
    6.3558   -4.0808   24.6140 C   0  0  0  0  0  0  0  0  0  0  0  0
    7.7566   -6.0285   35.0562 C   0  0  0  0  0  0  0  0  0  0  0  0
    9.3965   -6.0270   32.4725 N   0  0  0  0  0  0  0  0  0  0  0  0
    9.1526   -5.2592   30.3023 N   0  0  0  0  0  0  0  0  0  0  0  0
    5.3209   -4.0606   25.4423 N   0  0  0  0  0  0  0  0  0  0  0  0
    7.5781   -6.7425   33.8011 N   0  0  0  0  0  0  0  0  0  0  0  0
   12.3472   -6.4353   31.8676 O   0  0  0  0  0  0  0  0  0  0  0  0
   11.9921   -4.0923   31.9282 O   0  0  0  0  0  0  0  0  0  0  0  0
   11.6418   -5.3272   31.2348 S   0  0  1  0  0  0  0  0  0  0  0  0
    8.5385   -4.5036   24.9199 H   0  0  0  0  0  0  0  0  0  0  0  0
   13.1102   -5.0481   29.3507 H   0  0  0  0  0  0  0  0  0  0  0  0
   11.7882   -6.2136   29.0039 H   0  0  0  0  0  0  0  0  0  0  0  0
   11.4527   -4.4489   29.0039 H   0  0  0  0  0  0  0  0  0  0  0  0
    6.1711   -6.0573   31.5408 H   0  0  0  0  0  0  0  0  0  0  0  0
    8.8556   -5.1159   27.8287 H   0  0  0  0  0  0  0  0  0  0  0  0
    3.9373   -4.2999   27.9661 H   0  0  0  0  0  0  0  0  0  0  0  0
    5.1573   -4.9047   30.0571 H   0  0  0  0  0  0  0  0  0  0  0  0
    6.3068   -3.8710   23.5353 H   0  0  0  0  0  0  0  0  0  0  0  0
    7.5846   -6.7165   35.8971 H   0  0  0  0  0  0  0  0  0  0  0  0
    8.7813   -5.6323   35.1103 H   0  0  0  0  0  0  0  0  0  0  0  0
    7.0386   -5.1968   35.1103 H   0  0  0  0  0  0  0  0  0  0  0  0
    4.3509   -3.8461   25.1703 H   0  0  0  0  0  0  0  0  0  0  0  0
    7.0742   -7.6408   33.7995 H   0  0  0  0  0  0  0  0  0  0  0  0
  1 10  2  0
  1 11  1  0
  1 17  1  0
  2 10  1  0
  2 13  2  0
 21  3  1  6
  4 15  2  0
  4 16  1  0
  4 21  1  0
  5  6  2  0
  5 15  1  0
  5 18  1  0
  6  7  1  0
  7  8  1  0
  7 16  2  0
  8  9  2  0
  8 12  1  0
  9 10  1  0
 11 12  2  0
 13 17  1  0
 14 18  1  0
 19 21  2  0
 20 21  2  0
  2 22  1  0
  3 23  1  0
  3 24  1  0
  3 25  1  0
  6 26  1  0
  9 27  1  0
 11 28  1  0
 12 29  1  0
 13 30  1  0
 14 31  1  0
 14 32  1  0
 14 33  1  0
 17 34  1  0
 18 35  1  0
M  END
>  <filename_input>  (6) 
7F5D_EUO_docked.sdf

>  <pdb_id>  (6) 
7F5D_EUO

>  <pose_rank>  (6) 
5

>  <num_atoms_heavy>  (6) 
21

>  <num_torsions>  (6) 
3

>  <pose>  (6) 
[9.875979394189905, -5.562135924217068, 31.352936091130434, -2.4770804860340596, -0.7993469398970462, 2.354060869705593, 0.3006193588193302, -0.6401563101264612, -2.2265577826695453]

>  <energy>  (6) 
-604.9381309725835

>  <inter_energy>  (6) 
-580.6346174084191

>  <intra_energy>  (6) 
0.0

>  <rmsd>  (6) 
6.11874

>  <sdf_rank>  (6) 
0

$$$$

     RDKit          3D

 35 37  0  0  0  0  0  0  0  0999 V2000
   10.7685   -6.0673   31.9039 C   0  0  0  0  0  0  0  0  0  0  0  0
   12.6366   -6.9645   30.9898 C   0  0  0  0  0  0  0  0  0  0  0  0
    4.3824   -4.0895   25.9877 C   0  0  0  0  0  0  0  0  0  0  0  0
    7.0252   -4.1131   27.1277 C   0  0  0  0  0  0  0  0  0  0  0  0
    8.6896   -4.8533   25.8118 C   0  0  0  0  0  0  0  0  0  0  0  0
    9.4110   -5.2346   26.9447 C   0  0  0  0  0  0  0  0  0  0  0  0
    8.8284   -5.0073   28.1878 C   0  0  0  0  0  0  0  0  0  0  0  0
    9.4878   -5.3732   29.5145 C   0  0  0  0  0  0  0  0  0  0  0  0
   10.7401   -5.9863   29.4927 C   0  0  0  0  0  0  0  0  0  0  0  0
   11.3841   -6.3356   30.7084 C   0  0  0  0  0  0  0  0  0  0  0  0
    9.4916   -5.4361   31.9234 C   0  0  0  0  0  0  0  0  0  0  0  0
    8.8615   -5.0931   30.7288 C   0  0  0  0  0  0  0  0  0  0  0  0
   12.6921   -7.0254   32.3828 C   0  0  0  0  0  0  0  0  0  0  0  0
   10.6151   -4.8727   24.1684 C   0  0  0  0  0  0  0  0  0  0  0  0
    7.5037   -4.2872   25.9277 N   0  0  0  0  0  0  0  0  0  0  0  0
    7.6448   -4.4521   28.2323 N   0  0  0  0  0  0  0  0  0  0  0  0
   11.5919   -6.4962   32.8997 N   0  0  0  0  0  0  0  0  0  0  0  0
    9.2029   -5.0476   24.4723 N   0  0  0  0  0  0  0  0  0  0  0  0
    5.4969   -1.9226   27.1166 O   0  0  0  0  0  0  0  0  0  0  0  0
    4.8931   -3.6567   28.6160 O   0  0  0  0  0  0  0  0  0  0  0  0
    5.4100   -3.3686   27.2824 S   0  0  1  0  0  0  0  0  0  0  0  0
   13.3881   -7.3206   30.2698 H   0  0  0  0  0  0  0  0  0  0  0  0
    3.5639   -4.6637   26.4463 H   0  0  0  0  0  0  0  0  0  0  0  0
    3.9624   -3.2870   25.3635 H   0  0  0  0  0  0  0  0  0  0  0  0
    4.9941   -4.7575   25.3635 H   0  0  0  0  0  0  0  0  0  0  0  0
   10.4047   -5.6982   26.8577 H   0  0  0  0  0  0  0  0  0  0  0  0
   11.2300   -6.1997   28.5312 H   0  0  0  0  0  0  0  0  0  0  0  0
    9.0017   -5.2188   32.8840 H   0  0  0  0  0  0  0  0  0  0  0  0
    7.8761   -4.6044   30.7434 H   0  0  0  0  0  0  0  0  0  0  0  0
   13.5240   -7.4490   32.9648 H   0  0  0  0  0  0  0  0  0  0  0  0
   11.1859   -4.8020   25.1061 H   0  0  0  0  0  0  0  0  0  0  0  0
   10.9739   -5.7332   23.5848 H   0  0  0  0  0  0  0  0  0  0  0  0
   10.7531   -3.9506   23.5848 H   0  0  0  0  0  0  0  0  0  0  0  0
   11.3897   -6.4207   33.9068 H   0  0  0  0  0  0  0  0  0  0  0  0
    8.5545   -5.3153   23.7181 H   0  0  0  0  0  0  0  0  0  0  0  0
  1 10  2  0
  1 11  1  0
  1 17  1  0
  2 10  1  0
  2 13  2  0
 21  3  1  6
  4 15  2  0
  4 16  1  0
  4 21  1  0
  5  6  2  0
  5 15  1  0
  5 18  1  0
  6  7  1  0
  7  8  1  0
  7 16  2  0
  8  9  2  0
  8 12  1  0
  9 10  1  0
 11 12  2  0
 13 17  1  0
 14 18  1  0
 19 21  2  0
 20 21  2  0
  2 22  1  0
  3 23  1  0
  3 24  1  0
  3 25  1  0
  6 26  1  0
  9 27  1  0
 11 28  1  0
 12 29  1  0
 13 30  1  0
 14 31  1  0
 14 32  1  0
 14 33  1  0
 17 34  1  0
 18 35  1  0
M  END
>  <filename_input>  (7) 
7F5D_EUO_docked.sdf

>  <pdb_id>  (7) 
7F5D_EUO

>  <pose_rank>  (7) 
6

>  <num_atoms_heavy>  (7) 
21

>  <num_torsions>  (7) 
3

>  <pose>  (7) 
[7.02519471889107, -4.11314779351352, 27.127698167391692, 1.7374603115268894, -1.1859052964239867, 1.7648892700309964, -3.1822902521305076, -2.7268405342480717, -0.7934169347470426]

>  <energy>  (7) 
-544.5004985608387

>  <inter_energy>  (7) 
-540.9064985196753

>  <intra_energy>  (7) 
0.0

>  <rmsd>  (7) 
3.9513

>  <sdf_rank>  (7) 
0

$$$$

     RDKit          3D

 35 37  0  0  0  0  0  0  0  0999 V2000
    6.7041   -4.1758   26.5987 C   0  0  0  0  0  0  0  0  0  0  0  0
    4.7031   -4.0965   27.6571 C   0  0  0  0  0  0  0  0  0  0  0  0
    6.5817   -5.8485   33.5697 C   0  0  0  0  0  0  0  0  0  0  0  0
    9.1369   -5.3815   32.3299 C   0  0  0  0  0  0  0  0  0  0  0  0
   11.0442   -5.8629   31.2435 C   0  0  0  0  0  0  0  0  0  0  0  0
   10.4195   -5.5781   30.0278 C   0  0  0  0  0  0  0  0  0  0  0  0
    9.0868   -5.1795   30.0646 C   0  0  0  0  0  0  0  0  0  0  0  0
    8.2706   -4.8289   28.8237 C   0  0  0  0  0  0  0  0  0  0  0  0
    6.8933   -4.6553   28.9558 C   0  0  0  0  0  0  0  0  0  0  0  0
    6.1047   -4.3241   27.8230 C   0  0  0  0  0  0  0  0  0  0  0  0
    8.1120   -4.3485   26.4678 C   0  0  0  0  0  0  0  0  0  0  0  0
    8.8845   -4.6728   27.5812 C   0  0  0  0  0  0  0  0  0  0  0  0
    4.5537   -3.8099   26.2997 C   0  0  0  0  0  0  0  0  0  0  0  0
   13.0758   -6.5378   32.5946 C   0  0  0  0  0  0  0  0  0  0  0  0
   10.3815   -5.7661   32.3800 N   0  0  0  0  0  0  0  0  0  0  0  0
    8.4910   -5.0931   31.2260 N   0  0  0  0  0  0  0  0  0  0  0  0
    5.7336   -3.8607   25.6974 N   0  0  0  0  0  0  0  0  0  0  0  0
   12.4277   -6.2825   31.3171 N   0  0  0  0  0  0  0  0  0  0  0  0
    8.2024   -3.8343   34.2964 O   0  0  0  0  0  0  0  0  0  0  0  0
    8.9467   -6.0059   34.8879 O   0  0  0  0  0  0  0  0  0  0  0  0
    8.2479   -5.2280   33.8705 S   0  0  1  0  0  0  0  0  0  0  0  0
    3.9185   -4.1381   28.4269 H   0  0  0  0  0  0  0  0  0  0  0  0
    6.0807   -6.0350   34.5311 H   0  0  0  0  0  0  0  0  0  0  0  0
    6.0105   -5.1027   32.9973 H   0  0  0  0  0  0  0  0  0  0  0  0
    6.6373   -6.7861   32.9973 H   0  0  0  0  0  0  0  0  0  0  0  0
   10.9616   -5.6657   29.0747 H   0  0  0  0  0  0  0  0  0  0  0  0
    6.4168   -4.7754   29.9399 H   0  0  0  0  0  0  0  0  0  0  0  0
    8.5907   -4.2255   25.4851 H   0  0  0  0  0  0  0  0  0  0  0  0
    9.9720   -4.8049   27.4808 H   0  0  0  0  0  0  0  0  0  0  0  0
    3.5999   -3.5767   25.8037 H   0  0  0  0  0  0  0  0  0  0  0  0
   12.3920   -6.2684   33.4130 H   0  0  0  0  0  0  0  0  0  0  0  0
   13.3334   -7.6047   32.6682 H   0  0  0  0  0  0  0  0  0  0  0  0
   13.9919   -5.9335   32.6682 H   0  0  0  0  0  0  0  0  0  0  0  0
    5.8928   -3.6872   24.6946 H   0  0  0  0  0  0  0  0  0  0  0  0
   12.9648   -6.4029   30.4465 H   0  0  0  0  0  0  0  0  0  0  0  0
  1 10  2  0
  1 11  1  0
  1 17  1  0
  2 10  1  0
  2 13  2  0
 21  3  1  6
  4 15  2  0
  4 16  1  0
  4 21  1  0
  5  6  2  0
  5 15  1  0
  5 18  1  0
  6  7  1  0
  7  8  1  0
  7 16  2  0
  8  9  2  0
  8 12  1  0
  9 10  1  0
 11 12  2  0
 13 17  1  0
 14 18  1  0
 19 21  2  0
 20 21  2  0
  2 22  1  0
  3 23  1  0
  3 24  1  0
  3 25  1  0
  6 26  1  0
  9 27  1  0
 11 28  1  0
 12 29  1  0
 13 30  1  0
 14 31  1  0
 14 32  1  0
 14 33  1  0
 17 34  1  0
 18 35  1  0
M  END
>  <filename_input>  (8) 
7F5D_EUO_docked.sdf

>  <pdb_id>  (8) 
7F5D_EUO

>  <pose_rank>  (8) 
7

>  <num_atoms_heavy>  (8) 
21

>  <num_torsions>  (8) 
3

>  <pose>  (8) 
[9.13690217417157, -5.381542218818251, 32.32989847561202, -0.8787036482770165, -3.4412516920742675, -0.9941078733476214, -6.490356703014617, 0.3892598350675394, -3.317516368498564]

>  <energy>  (8) 
-458.2869540711577

>  <inter_energy>  (8) 
-474.7554000554583

>  <intra_energy>  (8) 
0.0

>  <rmsd>  (8) 
6.9864

>  <sdf_rank>  (8) 
0

$$$$

     RDKit          3D

 35 37  0  0  0  0  0  0  0  0999 V2000
    6.0772   -3.7371   25.1690 C   0  0  0  0  0  0  0  0  0  0  0  0
    8.2244   -3.9731   24.4876 C   0  0  0  0  0  0  0  0  0  0  0  0
    3.6997   -6.9596   31.9746 C   0  0  0  0  0  0  0  0  0  0  0  0
    5.8654   -5.1596   31.3794 C   0  0  0  0  0  0  0  0  0  0  0  0
    8.1075   -5.1729   31.2296 C   0  0  0  0  0  0  0  0  0  0  0  0
    8.0152   -4.8588   29.8724 C   0  0  0  0  0  0  0  0  0  0  0  0
    6.7428   -4.7034   29.3308 C   0  0  0  0  0  0  0  0  0  0  0  0
    6.4789   -4.3551   27.8686 C   0  0  0  0  0  0  0  0  0  0  0  0
    7.5494   -4.3639   26.9749 C   0  0  0  0  0  0  0  0  0  0  0  0
    7.3384   -4.0495   25.6069 C   0  0  0  0  0  0  0  0  0  0  0  0
    4.9847   -3.7341   26.0831 C   0  0  0  0  0  0  0  0  0  0  0  0
    5.1936   -4.0439   27.4255 C   0  0  0  0  0  0  0  0  0  0  0  0
    7.4045   -3.6155   23.4165 C   0  0  0  0  0  0  0  0  0  0  0  0
    9.4788   -5.4313   33.3417 C   0  0  0  0  0  0  0  0  0  0  0  0
    7.0202   -5.3267   31.9606 N   0  0  0  0  0  0  0  0  0  0  0  0
    5.7061   -4.8588   30.1133 N   0  0  0  0  0  0  0  0  0  0  0  0
    6.1532   -3.4822   23.8338 N   0  0  0  0  0  0  0  0  0  0  0  0
    9.3820   -5.3530   31.8920 N   0  0  0  0  0  0  0  0  0  0  0  0
    3.4368   -4.2888   32.0708 O   0  0  0  0  0  0  0  0  0  0  0  0
    4.7721   -5.2440   33.7808 O   0  0  0  0  0  0  0  0  0  0  0  0
    4.3951   -5.3447   32.3751 S   0  0  1  0  0  0  0  0  0  0  0  0
    9.3091   -4.1554   24.4737 H   0  0  0  0  0  0  0  0  0  0  0  0
    3.4672   -7.4995   32.9044 H   0  0  0  0  0  0  0  0  0  0  0  0
    2.7789   -6.8270   31.3876 H   0  0  0  0  0  0  0  0  0  0  0  0
    4.4287   -7.5374   31.3876 H   0  0  0  0  0  0  0  0  0  0  0  0
    8.9163   -4.7384   29.2531 H   0  0  0  0  0  0  0  0  0  0  0  0
    8.5594   -4.6150   27.3309 H   0  0  0  0  0  0  0  0  0  0  0  0
    3.9733   -3.4866   25.7283 H   0  0  0  0  0  0  0  0  0  0  0  0
    4.3500   -4.0431   28.1314 H   0  0  0  0  0  0  0  0  0  0  0  0
    7.7453   -3.4665   22.3813 H   0  0  0  0  0  0  0  0  0  0  0  0
    8.6996   -4.8016   33.7958 H   0  0  0  0  0  0  0  0  0  0  0  0
    9.3406   -6.4743   33.6626 H   0  0  0  0  0  0  0  0  0  0  0  0
   10.4696   -5.0772   33.6626 H   0  0  0  0  0  0  0  0  0  0  0  0
    5.3555   -3.2238   23.2356 H   0  0  0  0  0  0  0  0  0  0  0  0
   10.2386   -5.4274   31.3249 H   0  0  0  0  0  0  0  0  0  0  0  0
  1 10  2  0
  1 11  1  0
  1 17  1  0
  2 10  1  0
  2 13  2  0
 21  3  1  1
  4 15  2  0
  4 16  1  0
  4 21  1  0
  5  6  2  0
  5 15  1  0
  5 18  1  0
  6  7  1  0
  7  8  1  0
  7 16  2  0
  8  9  2  0
  8 12  1  0
  9 10  1  0
 11 12  2  0
 13 17  1  0
 14 18  1  0
 19 21  2  0
 20 21  2  0
  2 22  1  0
  3 23  1  0
  3 24  1  0
  3 25  1  0
  6 26  1  0
  9 27  1  0
 11 28  1  0
 12 29  1  0
 13 30  1  0
 14 31  1  0
 14 32  1  0
 14 33  1  0
 17 34  1  0
 18 35  1  0
M  END
>  <filename_input>  (9) 
7F5D_EUO_docked.sdf

>  <pdb_id>  (9) 
7F5D_EUO

>  <pose_rank>  (9) 
8

>  <num_atoms_heavy>  (9) 
21

>  <num_torsions>  (9) 
3

>  <pose>  (9) 
[5.865352165711891, -5.159603627242532, 31.379367363240938, -0.3863865288507259, -3.665648751078721, -1.6196316907761619, -3.013014223103185, 1.041455241597764, -3.488827306997415]

>  <energy>  (9) 
-518.2217810729971

>  <inter_energy>  (9) 
-521.0989067531327

>  <intra_energy>  (9) 
0.0

>  <rmsd>  (9) 
6.20448

>  <sdf_rank>  (9) 
0

$$$$

     RDKit          3D

 35 37  0  0  0  0  0  0  0  0999 V2000
    5.2435   -4.9177   27.3943 C   0  0  0  0  0  0  0  0  0  0  0  0
    5.8340   -3.0117   26.3223 C   0  0  0  0  0  0  0  0  0  0  0  0
    9.8031   -5.8479   34.5823 C   0  0  0  0  0  0  0  0  0  0  0  0
    9.7889   -4.9494   31.8479 C   0  0  0  0  0  0  0  0  0  0  0  0
   11.0997   -5.7781   30.2216 C   0  0  0  0  0  0  0  0  0  0  0  0
   10.0187   -5.7456   29.3386 C   0  0  0  0  0  0  0  0  0  0  0  0
    8.8031   -5.2727   29.8234 C   0  0  0  0  0  0  0  0  0  0  0  0
    7.5346   -5.1710   28.9812 C   0  0  0  0  0  0  0  0  0  0  0  0
    7.4040   -4.1029   28.0943 C   0  0  0  0  0  0  0  0  0  0  0  0
    6.2393   -3.9805   27.2923 C   0  0  0  0  0  0  0  0  0  0  0  0
    5.3820   -6.0107   28.2973 C   0  0  0  0  0  0  0  0  0  0  0  0
    6.5266   -6.1295   29.0831 C   0  0  0  0  0  0  0  0  0  0  0  0
    4.5836   -3.4534   25.8883 C   0  0  0  0  0  0  0  0  0  0  0  0
   13.1523   -7.2036   30.6254 C   0  0  0  0  0  0  0  0  0  0  0  0
   10.9594   -5.3835   31.4726 N   0  0  0  0  0  0  0  0  0  0  0  0
    8.7345   -4.8864   31.0713 N   0  0  0  0  0  0  0  0  0  0  0  0
    4.2551   -4.5686   26.5256 N   0  0  0  0  0  0  0  0  0  0  0  0
   12.4078   -6.2489   29.8183 N   0  0  0  0  0  0  0  0  0  0  0  0
    8.2913   -3.7964   33.7352 O   0  0  0  0  0  0  0  0  0  0  0  0
   10.6247   -3.3837   33.8022 O   0  0  0  0  0  0  0  0  0  0  0  0
    9.6063   -4.3935   33.5346 S   0  0  1  0  0  0  0  0  0  0  0  0
    6.3845   -2.1184   25.9922 H   0  0  0  0  0  0  0  0  0  0  0  0
    9.7623   -5.5465   35.6394 H   0  0  0  0  0  0  0  0  0  0  0  0
    8.9934   -6.5627   34.3733 H   0  0  0  0  0  0  0  0  0  0  0  0
   10.7735   -6.3218   34.3733 H   0  0  0  0  0  0  0  0  0  0  0  0
   10.1242   -6.0819   28.2966 H   0  0  0  0  0  0  0  0  0  0  0  0
    8.2054   -3.3534   28.0160 H   0  0  0  0  0  0  0  0  0  0  0  0
    4.5831   -6.7630   28.3745 H   0  0  0  0  0  0  0  0  0  0  0  0
    6.6345   -6.9741   29.7795 H   0  0  0  0  0  0  0  0  0  0  0  0
    3.9634   -2.9516   25.1309 H   0  0  0  0  0  0  0  0  0  0  0  0
   12.9861   -6.9905   31.6917 H   0  0  0  0  0  0  0  0  0  0  0  0
   12.8085   -8.2233   30.3973 H   0  0  0  0  0  0  0  0  0  0  0  0
   14.2250   -7.1187   30.3973 H   0  0  0  0  0  0  0  0  0  0  0  0
    3.3804   -5.0938   26.3843 H   0  0  0  0  0  0  0  0  0  0  0  0
   12.8204   -5.9006   28.9412 H   0  0  0  0  0  0  0  0  0  0  0  0
  1 10  2  0
  1 11  1  0
  1 17  1  0
  2 10  1  0
  2 13  2  0
 21  3  1  1
  4 15  2  0
  4 16  1  0
  4 21  1  0
  5  6  2  0
  5 15  1  0
  5 18  1  0
  6  7  1  0
  7  8  1  0
  7 16  2  0
  8  9  2  0
  8 12  1  0
  9 10  1  0
 11 12  2  0
 13 17  1  0
 14 18  1  0
 19 21  2  0
 20 21  2  0
  2 22  1  0
  3 23  1  0
  3 24  1  0
  3 25  1  0
  6 26  1  0
  9 27  1  0
 11 28  1  0
 12 29  1  0
 13 30  1  0
 14 31  1  0
 14 32  1  0
 14 33  1  0
 17 34  1  0
 18 35  1  0
M  END
>  <filename_input>  (10) 
7F5D_EUO_docked.sdf

>  <pdb_id>  (10) 
7F5D_EUO

>  <pose_rank>  (10) 
9

>  <num_atoms_heavy>  (10) 
21

>  <num_torsions>  (10) 
3

>  <pose>  (10) 
[9.788910007680634, -4.9494399920728736, 31.847899394948193, 0.7345097493918943, 2.8337487021402143, 0.27983652972925255, 1.7467416672712965, 1.6744649733986023, -2.4508041161138543]

>  <energy>  (10) 
-590.2963925369222

>  <inter_energy>  (10) 
-562.4874018641556

>  <intra_energy>  (10) 
0.0

>  <rmsd>  (10) 
6.96659

>  <sdf_rank>  (10) 
0

$$$$

     RDKit          3D

 35 37  0  0  0  0  0  0  0  0999 V2000
    5.5126   -5.3768   29.9625 C   0  0  0  0  0  0  0  0  0  0  0  0
    6.8897   -4.0222   28.7797 C   0  0  0  0  0  0  0  0  0  0  0  0
   12.5958   -6.7430   35.4760 C   0  0  0  0  0  0  0  0  0  0  0  0
   10.0936   -5.9147   34.3197 C   0  0  0  0  0  0  0  0  0  0  0  0
    8.4478   -5.7103   35.8360 C   0  0  0  0  0  0  0  0  0  0  0  0
    7.5138   -5.6077   34.8034 C   0  0  0  0  0  0  0  0  0  0  0  0
    7.9864   -5.6762   33.4963 C   0  0  0  0  0  0  0  0  0  0  0  0
    7.0912   -5.5859   32.2637 C   0  0  0  0  0  0  0  0  0  0  0  0
    7.5213   -4.8225   31.1789 C   0  0  0  0  0  0  0  0  0  0  0  0
    6.7156   -4.7209   30.0148 C   0  0  0  0  0  0  0  0  0  0  0  0
    5.0783   -6.1602   31.0702 C   0  0  0  0  0  0  0  0  0  0  0  0
    5.8711   -6.2595   32.2118 C   0  0  0  0  0  0  0  0  0  0  0  0
    5.7437   -4.3236   28.0429 C   0  0  0  0  0  0  0  0  0  0  0  0
    6.7385   -5.2030   37.6330 C   0  0  0  0  0  0  0  0  0  0  0  0
    9.7320   -5.8546   35.5707 N   0  0  0  0  0  0  0  0  0  0  0  0
    9.2708   -5.8312   33.3023 N   0  0  0  0  0  0  0  0  0  0  0  0
    4.9506   -5.1165   28.7502 N   0  0  0  0  0  0  0  0  0  0  0  0
    8.0618   -5.6544   37.2301 N   0  0  0  0  0  0  0  0  0  0  0  0
   12.4308   -4.8678   33.5608 O   0  0  0  0  0  0  0  0  0  0  0  0
   11.9586   -7.0832   32.8618 O   0  0  0  0  0  0  0  0  0  0  0  0
   11.8289   -6.1338   33.9619 S   0  0  1  0  0  0  0  0  0  0  0  0
    7.7371   -3.3891   28.4779 H   0  0  0  0  0  0  0  0  0  0  0  0
   12.0699   -6.3252   36.3472 H   0  0  0  0  0  0  0  0  0  0  0  0
   12.5340   -7.8410   35.5023 H   0  0  0  0  0  0  0  0  0  0  0  0
   13.6513   -6.4344   35.5023 H   0  0  0  0  0  0  0  0  0  0  0  0
    6.4424   -5.4773   35.0155 H   0  0  0  0  0  0  0  0  0  0  0  0
    8.4870   -4.2979   31.2254 H   0  0  0  0  0  0  0  0  0  0  0  0
    4.1144   -6.6883   31.0242 H   0  0  0  0  0  0  0  0  0  0  0  0
    5.5368   -6.8655   33.0668 H   0  0  0  0  0  0  0  0  0  0  0  0
    5.5302   -3.9582   27.0276 H   0  0  0  0  0  0  0  0  0  0  0  0
    6.6769   -5.1819   38.7311 H   0  0  0  0  0  0  0  0  0  0  0  0
    6.5591   -4.1928   37.2363 H   0  0  0  0  0  0  0  0  0  0  0  0
    5.9792   -5.8929   37.2363 H   0  0  0  0  0  0  0  0  0  0  0  0
    4.0426   -5.4818   28.4294 H   0  0  0  0  0  0  0  0  0  0  0  0
    8.7383   -5.9402   37.9522 H   0  0  0  0  0  0  0  0  0  0  0  0
  1 10  2  0
  1 11  1  0
  1 17  1  0
  2 10  1  0
  2 13  2  0
 21  3  1  1
  4 15  2  0
  4 16  1  0
  4 21  1  0
  5  6  2  0
  5 15  1  0
  5 18  1  0
  6  7  1  0
  7  8  1  0
  7 16  2  0
  8  9  2  0
  8 12  1  0
  9 10  1  0
 11 12  2  0
 13 17  1  0
 14 18  1  0
 19 21  2  0
 20 21  2  0
  2 22  1  0
  3 23  1  0
  3 24  1  0
  3 25  1  0
  6 26  1  0
  9 27  1  0
 11 28  1  0
 12 29  1  0
 13 30  1  0
 14 31  1  0
 14 32  1  0
 14 33  1  0
 17 34  1  0
 18 35  1  0
M  END
>  <filename_input>  (11) 
7F5D_EUO_docked.sdf

>  <pdb_id>  (11) 
7F5D_EUO

>  <pose_rank>  (11) 
10

>  <num_atoms_heavy>  (11) 
21

>  <num_torsions>  (11) 
3

>  <pose>  (11) 
[10.093585783448043, -5.914690993807223, 34.319655759419014, -2.294953199631039, -0.1513251142015259, 2.7536716860354646, 5.5232044620951095, -3.131342869237112, -0.3798348398902294]

>  <energy>  (11) 
-294.7127635445389

>  <inter_energy>  (11) 
-291.4371077173748

>  <intra_energy>  (11) 
0.0

>  <rmsd>  (11) 
6.94106

>  <sdf_rank>  (11) 
0

$$$$

     RDKit          3D

 35 37  0  0  0  0  0  0  0  0999 V2000
    9.8522   -5.5311   31.4665 C   0  0  0  0  0  0  0  0  0  0  0  0
    8.1393   -5.0543   32.8697 C   0  0  0  0  0  0  0  0  0  0  0  0
   10.4736   -4.8171   24.5267 C   0  0  0  0  0  0  0  0  0  0  0  0
    7.7735   -4.6339   25.5068 C   0  0  0  0  0  0  0  0  0  0  0  0
    5.7973   -4.2179   26.4924 C   0  0  0  0  0  0  0  0  0  0  0  0
    6.3768   -4.4450   27.7421 C   0  0  0  0  0  0  0  0  0  0  0  0
    7.7284   -4.7741   27.7768 C   0  0  0  0  0  0  0  0  0  0  0  0
    8.5038   -5.0450   29.0630 C   0  0  0  0  0  0  0  0  0  0  0  0
    7.8495   -4.8881   30.2844 C   0  0  0  0  0  0  0  0  0  0  0  0
    8.5394   -5.1365   31.4997 C   0  0  0  0  0  0  0  0  0  0  0  0
   10.5165   -5.6957   30.2172 C   0  0  0  0  0  0  0  0  0  0  0  0
    9.8371   -5.4523   29.0251 C   0  0  0  0  0  0  0  0  0  0  0  0
    9.2760   -5.4256   33.5889 C   0  0  0  0  0  0  0  0  0  0  0  0
    3.6387   -4.2645   25.1708 C   0  0  0  0  0  0  0  0  0  0  0  0
    6.5122   -4.3263   25.3890 N   0  0  0  0  0  0  0  0  0  0  0  0
    8.3824   -4.8543   26.6467 N   0  0  0  0  0  0  0  0  0  0  0  0
   10.2668   -5.7008   32.7521 N   0  0  0  0  0  0  0  0  0  0  0  0
    4.4006   -3.8671   26.3449 N   0  0  0  0  0  0  0  0  0  0  0  0
    8.5098   -3.6028   23.1554 O   0  0  0  0  0  0  0  0  0  0  0  0
    8.3443   -5.9632   23.2985 O   0  0  0  0  0  0  0  0  0  0  0  0
    8.7456   -4.7570   24.0144 S   0  0  1  0  0  0  0  0  0  0  0  0
    7.1558   -4.7636   33.2677 H   0  0  0  0  0  0  0  0  0  0  0  0
   10.5305   -4.8190   25.6252 H   0  0  0  0  0  0  0  0  0  0  0  0
   10.9410   -5.7320   24.1337 H   0  0  0  0  0  0  0  0  0  0  0  0
   11.0034   -3.9368   24.1337 H   0  0  0  0  0  0  0  0  0  0  0  0
    5.7858   -4.3665   28.6666 H   0  0  0  0  0  0  0  0  0  0  0  0
    6.7963   -4.5712   30.3061 H   0  0  0  0  0  0  0  0  0  0  0  0
   11.5686   -6.0158   30.1933 H   0  0  0  0  0  0  0  0  0  0  0  0
   10.3493   -5.5806   28.0602 H   0  0  0  0  0  0  0  0  0  0  0  0
    9.3403   -5.4816   34.6856 H   0  0  0  0  0  0  0  0  0  0  0  0
    2.7047   -4.7517   25.4874 H   0  0  0  0  0  0  0  0  0  0  0  0
    3.4023   -3.3748   24.5686 H   0  0  0  0  0  0  0  0  0  0  0  0
    4.2331   -4.9675   24.5686 H   0  0  0  0  0  0  0  0  0  0  0  0
   11.2117   -5.9992   33.0334 H   0  0  0  0  0  0  0  0  0  0  0  0
    3.9363   -3.3245   27.0871 H   0  0  0  0  0  0  0  0  0  0  0  0
  1 10  2  0
  1 11  1  0
  1 17  1  0
  2 10  1  0
  2 13  2  0
 21  3  1  1
  4 15  2  0
  4 16  1  0
  4 21  1  0
  5  6  2  0
  5 15  1  0
  5 18  1  0
  6  7  1  0
  7  8  1  0
  7 16  2  0
  8  9  2  0
  8 12  1  0
  9 10  1  0
 11 12  2  0
 13 17  1  0
 14 18  1  0
 19 21  2  0
 20 21  2  0
  2 22  1  0
  3 23  1  0
  3 24  1  0
  3 25  1  0
  6 26  1  0
  9 27  1  0
 11 28  1  0
 12 29  1  0
 13 30  1  0
 14 31  1  0
 14 32  1  0
 14 33  1  0
 17 34  1  0
 18 35  1  0
M  END
>  <filename_input>  (12) 
7F5D_EUO_docked.sdf

>  <pdb_id>  (12) 
7F5D_EUO

>  <pose_rank>  (12) 
11

>  <num_atoms_heavy>  (12) 
21

>  <num_torsions>  (12) 
3

>  <pose>  (12) 
[7.77352045053647, -4.633866067296959, 25.50677536635125, -0.5325729909106378, -0.46985773396848984, -0.0804103141228368, 3.0533662192131112, -0.51972100565323, -2.740926704102721]

>  <energy>  (12) 
-519.7514332602017

>  <inter_energy>  (12) 
-496.6190542206892

>  <intra_energy>  (12) 
0.0

>  <rmsd>  (12) 
3.78094

>  <sdf_rank>  (12) 
0

$$$$

     RDKit          3D

 35 37  0  0  0  0  0  0  0  0999 V2000
   12.1465   -6.0554   30.7682 C   0  0  0  0  0  0  0  0  0  0  0  0
   12.0573   -4.7828   32.6398 C   0  0  0  0  0  0  0  0  0  0  0  0
    3.5443   -4.1465   30.8844 C   0  0  0  0  0  0  0  0  0  0  0  0
    5.9701   -5.0922   29.6573 C   0  0  0  0  0  0  0  0  0  0  0  0
    6.6399   -4.1472   27.7317 C   0  0  0  0  0  0  0  0  0  0  0  0
    7.9686   -4.4157   28.0662 C   0  0  0  0  0  0  0  0  0  0  0  0
    8.2123   -5.0609   29.2748 C   0  0  0  0  0  0  0  0  0  0  0  0
    9.6064   -5.4272   29.7759 C   0  0  0  0  0  0  0  0  0  0  0  0
   10.0543   -4.8714   30.9739 C   0  0  0  0  0  0  0  0  0  0  0  0
   11.3438   -5.1944   31.4714 C   0  0  0  0  0  0  0  0  0  0  0  0
   11.6843   -6.6258   29.5474 C   0  0  0  0  0  0  0  0  0  0  0  0
   10.4176   -6.3081   29.0611 C   0  0  0  0  0  0  0  0  0  0  0  0
   13.2779   -5.4541   32.5586 C   0  0  0  0  0  0  0  0  0  0  0  0
    5.7245   -2.1374   26.4943 C   0  0  0  0  0  0  0  0  0  0  0  0
    5.6588   -4.4865   28.5457 N   0  0  0  0  0  0  0  0  0  0  0  0
    7.1934   -5.3800   30.0306 N   0  0  0  0  0  0  0  0  0  0  0  0
   13.3118   -6.1930   31.4584 N   0  0  0  0  0  0  0  0  0  0  0  0
    6.2770   -3.4834   26.4975 N   0  0  0  0  0  0  0  0  0  0  0  0
    5.1620   -5.9405   32.0577 O   0  0  0  0  0  0  0  0  0  0  0  0
    3.9636   -6.7293   30.1706 O   0  0  0  0  0  0  0  0  0  0  0  0
    4.6399   -5.5722   30.7471 S   0  0  1  0  0  0  0  0  0  0  0  0
   11.7198   -4.0918   33.4264 H   0  0  0  0  0  0  0  0  0  0  0  0
    3.3697   -3.9193   31.9464 H   0  0  0  0  0  0  0  0  0  0  0  0
    4.0096   -3.2781   30.3953 H   0  0  0  0  0  0  0  0  0  0  0  0
    2.5853   -4.3726   30.3953 H   0  0  0  0  0  0  0  0  0  0  0  0
    8.7935   -4.1274   27.3980 H   0  0  0  0  0  0  0  0  0  0  0  0
    9.4068   -4.1811   31.5345 H   0  0  0  0  0  0  0  0  0  0  0  0
   12.3290   -7.3189   28.9871 H   0  0  0  0  0  0  0  0  0  0  0  0
   10.0598   -6.7495   28.1192 H   0  0  0  0  0  0  0  0  0  0  0  0
   14.0902   -5.3811   33.2968 H   0  0  0  0  0  0  0  0  0  0  0  0
    5.5844   -1.7961   27.5306 H   0  0  0  0  0  0  0  0  0  0  0  0
    6.4165   -1.4581   25.9750 H   0  0  0  0  0  0  0  0  0  0  0  0
    4.7548   -2.1403   25.9750 H   0  0  0  0  0  0  0  0  0  0  0  0
   14.1037   -6.7845   31.1684 H   0  0  0  0  0  0  0  0  0  0  0  0
    6.4128   -3.9745   25.6023 H   0  0  0  0  0  0  0  0  0  0  0  0
  1 10  2  0
  1 11  1  0
  1 17  1  0
  2 10  1  0
  2 13  2  0
 21  3  1  1
  4 15  2  0
  4 16  1  0
  4 21  1  0
  5  6  2  0
  5 15  1  0
  5 18  1  0
  6  7  1  0
  7  8  1  0
  7 16  2  0
  8  9  2  0
  8 12  1  0
  9 10  1  0
 11 12  2  0
 13 17  1  0
 14 18  1  0
 19 21  2  0
 20 21  2  0
  2 22  1  0
  3 23  1  0
  3 24  1  0
  3 25  1  0
  6 26  1  0
  9 27  1  0
 11 28  1  0
 12 29  1  0
 13 30  1  0
 14 31  1  0
 14 32  1  0
 14 33  1  0
 17 34  1  0
 18 35  1  0
M  END
>  <filename_input>  (13) 
7F5D_EUO_docked.sdf

>  <pdb_id>  (13) 
7F5D_EUO

>  <pose_rank>  (13) 
12

>  <num_atoms_heavy>  (13) 
21

>  <num_torsions>  (13) 
3

>  <pose>  (13) 
[5.970056631408909, -5.0922093750053765, 29.657267352475273, -2.667815385270957, 1.0612202067818395, -1.0086432370771292, -1.0956118744965175, -4.256457612260491, -2.0871216754289894]

>  <energy>  (13) 
-549.181892011864

>  <inter_energy>  (13) 
-542.3990682646846

>  <intra_energy>  (13) 
0.0

>  <rmsd>  (13) 
3.83212

>  <sdf_rank>  (13) 
0

$$$$

     RDKit          3D

 35 37  0  0  0  0  0  0  0  0999 V2000
    2.5045   -4.9896   32.7144 C   0  0  0  0  0  0  0  0  0  0  0  0
    3.5487   -5.9315   34.4901 C   0  0  0  0  0  0  0  0  0  0  0  0
    9.9284   -4.4365   32.2656 C   0  0  0  0  0  0  0  0  0  0  0  0
    8.2358   -4.9698   29.9996 C   0  0  0  0  0  0  0  0  0  0  0  0
    7.1940   -4.1695   28.1764 C   0  0  0  0  0  0  0  0  0  0  0  0
    5.9757   -4.2156   28.8567 C   0  0  0  0  0  0  0  0  0  0  0  0
    5.9870   -4.6724   30.1711 C   0  0  0  0  0  0  0  0  0  0  0  0
    4.7405   -4.7750   31.0454 C   0  0  0  0  0  0  0  0  0  0  0  0
    4.8627   -5.3181   32.3239 C   0  0  0  0  0  0  0  0  0  0  0  0
    3.7244   -5.4239   33.1653 C   0  0  0  0  0  0  0  0  0  0  0  0
    2.3836   -4.4303   31.4099 C   0  0  0  0  0  0  0  0  0  0  0  0
    3.5025   -4.3265   30.5858 C   0  0  0  0  0  0  0  0  0  0  0  0
    2.1903   -5.7536   34.7553 C   0  0  0  0  0  0  0  0  0  0  0  0
    6.1607   -3.0960   26.1299 C   0  0  0  0  0  0  0  0  0  0  0  0
    8.3087   -4.5593   28.7644 N   0  0  0  0  0  0  0  0  0  0  0  0
    7.1284   -5.0333   30.6986 N   0  0  0  0  0  0  0  0  0  0  0  0
    1.5964   -5.2018   33.7063 N   0  0  0  0  0  0  0  0  0  0  0  0
    7.2933   -3.7081   26.8079 N   0  0  0  0  0  0  0  0  0  0  0  0
   10.8855   -5.2936   29.9074 O   0  0  0  0  0  0  0  0  0  0  0  0
    9.6420   -6.8890   31.1435 O   0  0  0  0  0  0  0  0  0  0  0  0
    9.7486   -5.4746   30.8021 S   0  0  1  0  0  0  0  0  0  0  0  0
    4.3128   -6.3650   35.1520 H   0  0  0  0  0  0  0  0  0  0  0  0
    9.8213   -5.0548   33.1691 H   0  0  0  0  0  0  0  0  0  0  0  0
   10.9218   -3.9641   32.2603 H   0  0  0  0  0  0  0  0  0  0  0  0
    9.1519   -3.6574   32.2603 H   0  0  0  0  0  0  0  0  0  0  0  0
    5.0399   -3.9019   28.3709 H   0  0  0  0  0  0  0  0  0  0  0  0
    5.8434   -5.6653   32.6813 H   0  0  0  0  0  0  0  0  0  0  0  0
    1.4044   -4.0795   31.0521 H   0  0  0  0  0  0  0  0  0  0  0  0
    3.4098   -3.8934   29.5789 H   0  0  0  0  0  0  0  0  0  0  0  0
    1.6876   -6.0298   35.6939 H   0  0  0  0  0  0  0  0  0  0  0  0
    5.4502   -2.7119   26.8766 H   0  0  0  0  0  0  0  0  0  0  0  0
    6.5150   -2.2665   25.5002 H   0  0  0  0  0  0  0  0  0  0  0  0
    5.6608   -3.8467   25.5002 H   0  0  0  0  0  0  0  0  0  0  0  0
    0.5949   -4.9679   33.6499 H   0  0  0  0  0  0  0  0  0  0  0  0
    8.1848   -3.8155   26.3034 H   0  0  0  0  0  0  0  0  0  0  0  0
  1 10  2  0
  1 11  1  0
  1 17  1  0
  2 10  1  0
  2 13  2  0
 21  3  1  1
  4 15  2  0
  4 16  1  0
  4 21  1  0
  5  6  2  0
  5 15  1  0
  5 18  1  0
  6  7  1  0
  7  8  1  0
  7 16  2  0
  8  9  2  0
  8 12  1  0
  9 10  1  0
 11 12  2  0
 13 17  1  0
 14 18  1  0
 19 21  2  0
 20 21  2  0
  2 22  1  0
  3 23  1  0
  3 24  1  0
  3 25  1  0
  6 26  1  0
  9 27  1  0
 11 28  1  0
 12 29  1  0
 13 30  1  0
 14 31  1  0
 14 32  1  0
 14 33  1  0
 17 34  1  0
 18 35  1  0
M  END
>  <filename_input>  (14) 
7F5D_EUO_docked.sdf

>  <pdb_id>  (14) 
7F5D_EUO

>  <pose_rank>  (14) 
13

>  <num_atoms_heavy>  (14) 
21

>  <num_torsions>  (14) 
3

>  <pose>  (14) 
[8.23581430953597, -4.969803426515873, 29.999558583065262, -0.5305399175731466, -1.8470788237600324, -0.7001061461465125, -0.08830835689060924, 4.969135462265959, 0.005612572591436316]

>  <energy>  (14) 
-479.0726235681251

>  <inter_energy>  (14) 
-479.425730409916

>  <intra_energy>  (14) 
0.0

>  <rmsd>  (14) 
6.4883

>  <sdf_rank>  (14) 
0

$$$$

     RDKit          3D

 35 37  0  0  0  0  0  0  0  0999 V2000
    6.4276   -2.9785   27.1775 C   0  0  0  0  0  0  0  0  0  0  0  0
    8.4274   -3.7650   26.4613 C   0  0  0  0  0  0  0  0  0  0  0  0
    2.6439   -6.5837   32.4466 C   0  0  0  0  0  0  0  0  0  0  0  0
    5.3248   -5.6254   32.8695 C   0  0  0  0  0  0  0  0  0  0  0  0
    7.5528   -5.9129   32.9266 C   0  0  0  0  0  0  0  0  0  0  0  0
    7.6593   -5.3091   31.6723 C   0  0  0  0  0  0  0  0  0  0  0  0
    6.4865   -4.8703   31.0653 C   0  0  0  0  0  0  0  0  0  0  0  0
    6.4402   -4.1878   29.7012 C   0  0  0  0  0  0  0  0  0  0  0  0
    7.5068   -4.3751   28.8226 C   0  0  0  0  0  0  0  0  0  0  0  0
    7.4939   -3.7588   27.5441 C   0  0  0  0  0  0  0  0  0  0  0  0
    5.3369   -2.7933   28.0749 C   0  0  0  0  0  0  0  0  0  0  0  0
    5.3511   -3.3999   29.3293 C   0  0  0  0  0  0  0  0  0  0  0  0
    7.8332   -2.9671   25.4828 C   0  0  0  0  0  0  0  0  0  0  0  0
    9.4995   -5.5253   34.4977 C   0  0  0  0  0  0  0  0  0  0  0  0
    6.3756   -6.0679   33.5015 N   0  0  0  0  0  0  0  0  0  0  0  0
    5.3529   -5.0446   31.6944 N   0  0  0  0  0  0  0  0  0  0  0  0
    6.6651   -2.5165   25.9191 N   0  0  0  0  0  0  0  0  0  0  0  0
    8.7104   -6.4016   33.6453 N   0  0  0  0  0  0  0  0  0  0  0  0
    3.2092   -4.5161   34.0645 O   0  0  0  0  0  0  0  0  0  0  0  0
    3.9036   -6.6430   34.8478 O   0  0  0  0  0  0  0  0  0  0  0  0
    3.7348   -5.8143   33.6590 S   0  0  1  0  0  0  0  0  0  0  0  0
    9.3966   -4.2827   26.4109 H   0  0  0  0  0  0  0  0  0  0  0  0
    1.8523   -7.1420   32.9678 H   0  0  0  0  0  0  0  0  0  0  0  0
    2.1893   -5.8052   31.8163 H   0  0  0  0  0  0  0  0  0  0  0  0
    3.2247   -7.2731   31.8163 H   0  0  0  0  0  0  0  0  0  0  0  0
    8.6358   -5.1848   31.1812 H   0  0  0  0  0  0  0  0  0  0  0  0
    8.3601   -5.0018   29.1212 H   0  0  0  0  0  0  0  0  0  0  0  0
    4.4812   -2.1697   27.7769 H   0  0  0  0  0  0  0  0  0  0  0  0
    4.5085   -3.2582   30.0221 H   0  0  0  0  0  0  0  0  0  0  0  0
    8.2686   -2.7453   24.4973 H   0  0  0  0  0  0  0  0  0  0  0  0
    9.2918   -5.7559   35.5530 H   0  0  0  0  0  0  0  0  0  0  0  0
   10.5691   -5.6797   34.2922 H   0  0  0  0  0  0  0  0  0  0  0  0
    9.2342   -4.4777   34.2922 H   0  0  0  0  0  0  0  0  0  0  0  0
    6.0305   -1.9064   25.3844 H   0  0  0  0  0  0  0  0  0  0  0  0
    8.9814   -7.3909   33.5513 H   0  0  0  0  0  0  0  0  0  0  0  0
  1 10  2  0
  1 11  1  0
  1 17  1  0
  2 10  1  0
  2 13  2  0
 21  3  1  6
  4 15  2  0
  4 16  1  0
  4 21  1  0
  5  6  2  0
  5 15  1  0
  5 18  1  0
  6  7  1  0
  7  8  1  0
  7 16  2  0
  8  9  2  0
  8 12  1  0
  9 10  1  0
 11 12  2  0
 13 17  1  0
 14 18  1  0
 19 21  2  0
 20 21  2  0
  2 22  1  0
  3 23  1  0
  3 24  1  0
  3 25  1  0
  6 26  1  0
  9 27  1  0
 11 28  1  0
 12 29  1  0
 13 30  1  0
 14 31  1  0
 14 32  1  0
 14 33  1  0
 17 34  1  0
 18 35  1  0
M  END
>  <filename_input>  (15) 
7F5D_EUO_docked.sdf

>  <pdb_id>  (15) 
7F5D_EUO

>  <pose_rank>  (15) 
14

>  <num_atoms_heavy>  (15) 
21

>  <num_torsions>  (15) 
3

>  <pose>  (15) 
[5.32482602724282, -5.625376380757622, 32.8694939400886, -0.7830747359776108, -3.5308298047387607, -2.0258841305567334, -9.079952835199249, 0.5866057168560723, 1.3543407166684647]

>  <energy>  (15) 
-464.84897864494684

>  <inter_energy>  (15) 
-454.3497384081007

>  <intra_energy>  (15) 
0.0

>  <rmsd>  (15) 
6.20048

>  <sdf_rank>  (15) 
0

$$$$

     RDKit          3D

 35 37  0  0  0  0  0  0  0  0999 V2000
   11.7992   -5.5463   30.6004 C   0  0  0  0  0  0  0  0  0  0  0  0
   12.3405   -6.0219   28.4530 C   0  0  0  0  0  0  0  0  0  0  0  0
    6.5468   -4.1481   25.8231 C   0  0  0  0  0  0  0  0  0  0  0  0
    5.8918   -4.3500   28.6186 C   0  0  0  0  0  0  0  0  0  0  0  0
    5.2270   -5.3910   30.4958 C   0  0  0  0  0  0  0  0  0  0  0  0
    6.5616   -5.6010   30.8479 C   0  0  0  0  0  0  0  0  0  0  0  0
    7.5406   -5.1233   29.9819 C   0  0  0  0  0  0  0  0  0  0  0  0
    9.0391   -5.2699   30.2303 C   0  0  0  0  0  0  0  0  0  0  0  0
    9.8694   -5.5752   29.1524 C   0  0  0  0  0  0  0  0  0  0  0  0
   11.2685   -5.7139   29.3472 C   0  0  0  0  0  0  0  0  0  0  0  0
   10.9493   -5.2291   31.6987 C   0  0  0  0  0  0  0  0  0  0  0  0
    9.5761   -5.0925   31.5052 C   0  0  0  0  0  0  0  0  0  0  0  0
   13.4809   -6.0098   29.2571 C   0  0  0  0  0  0  0  0  0  0  0  0
    2.8650   -5.1309   31.3685 C   0  0  0  0  0  0  0  0  0  0  0  0
    4.9161   -4.7714   29.3735 N   0  0  0  0  0  0  0  0  0  0  0  0
    7.1646   -4.5077   28.8906 N   0  0  0  0  0  0  0  0  0  0  0  0
   13.1450   -5.7299   30.5087 N   0  0  0  0  0  0  0  0  0  0  0  0
    4.1322   -5.8448   31.3271 N   0  0  0  0  0  0  0  0  0  0  0  0
    5.6799   -2.0562   27.2667 O   0  0  0  0  0  0  0  0  0  0  0  0
    4.0602   -3.7289   26.8217 O   0  0  0  0  0  0  0  0  0  0  0  0
    5.4701   -3.4907   27.1116 S   0  0  1  0  0  0  0  0  0  0  0  0
   12.2800   -6.2233   27.3733 H   0  0  0  0  0  0  0  0  0  0  0  0
    7.3982   -4.6680   26.2867 H   0  0  0  0  0  0  0  0  0  0  0  0
    5.9814   -4.8553   25.1984 H   0  0  0  0  0  0  0  0  0  0  0  0
    6.9176   -3.3222   25.1984 H   0  0  0  0  0  0  0  0  0  0  0  0
    6.8298   -6.1254   31.7769 H   0  0  0  0  0  0  0  0  0  0  0  0
    9.4391   -5.7089   28.1489 H   0  0  0  0  0  0  0  0  0  0  0  0
   11.3781   -5.0917   32.7023 H   0  0  0  0  0  0  0  0  0  0  0  0
    8.9196   -4.8462   32.3528 H   0  0  0  0  0  0  0  0  0  0  0  0
   14.5050   -6.2035   28.9052 H   0  0  0  0  0  0  0  0  0  0  0  0
    2.5713   -4.9655   32.4156 H   0  0  0  0  0  0  0  0  0  0  0  0
    2.9736   -4.1613   30.8606 H   0  0  0  0  0  0  0  0  0  0  0  0
    2.0920   -5.7264   30.8606 H   0  0  0  0  0  0  0  0  0  0  0  0
   13.8054   -5.6613   31.2961 H   0  0  0  0  0  0  0  0  0  0  0  0
    4.2529   -6.6911   31.9017 H   0  0  0  0  0  0  0  0  0  0  0  0
  1 10  2  0
  1 11  1  0
  1 17  1  0
  2 10  1  0
  2 13  2  0
 21  3  1  6
  4 15  2  0
  4 16  1  0
  4 21  1  0
  5  6  2  0
  5 15  1  0
  5 18  1  0
  6  7  1  0
  7  8  1  0
  7 16  2  0
  8  9  2  0
  8 12  1  0
  9 10  1  0
 11 12  2  0
 13 17  1  0
 14 18  1  0
 19 21  2  0
 20 21  2  0
  2 22  1  0
  3 23  1  0
  3 24  1  0
  3 25  1  0
  6 26  1  0
  9 27  1  0
 11 28  1  0
 12 29  1  0
 13 30  1  0
 14 31  1  0
 14 32  1  0
 14 33  1  0
 17 34  1  0
 18 35  1  0
M  END
>  <filename_input>  (16) 
7F5D_EUO_docked.sdf

>  <pdb_id>  (16) 
7F5D_EUO

>  <pose_rank>  (16) 
15

>  <num_atoms_heavy>  (16) 
21

>  <num_torsions>  (16) 
3

>  <pose>  (16) 
[5.891812588355321, -4.350026056845711, 28.618604911041015, 2.2815957843515378, 4.9238343418782575, 11.829944518712635, 5.557147484897103, 0.4677577029478548, -3.8199525333321684]

>  <energy>  (16) 
-567.5371579174312

>  <inter_energy>  (16) 
-579.5456545379352

>  <intra_energy>  (16) 
0.0

>  <rmsd>  (16) 
1.44789

>  <sdf_rank>  (16) 
0

$$$$

     RDKit          3D

 35 37  0  0  0  0  0  0  0  0999 V2000
    5.5073   -4.2470   25.4635 C   0  0  0  0  0  0  0  0  0  0  0  0
    7.6721   -3.6578   25.1520 C   0  0  0  0  0  0  0  0  0  0  0  0
    9.3322   -7.2197   30.9631 C   0  0  0  0  0  0  0  0  0  0  0  0
    7.1132   -5.4604   31.4784 C   0  0  0  0  0  0  0  0  0  0  0  0
    4.9496   -5.0928   31.9614 C   0  0  0  0  0  0  0  0  0  0  0  0
    4.6943   -4.8432   30.6117 C   0  0  0  0  0  0  0  0  0  0  0  0
    5.7630   -4.9336   29.7250 C   0  0  0  0  0  0  0  0  0  0  0  0
    5.6425   -4.6954   28.2225 C   0  0  0  0  0  0  0  0  0  0  0  0
    6.7759   -4.2955   27.5153 C   0  0  0  0  0  0  0  0  0  0  0  0
    6.7002   -4.0699   26.1160 C   0  0  0  0  0  0  0  0  0  0  0  0
    4.3524   -4.6607   26.1876 C   0  0  0  0  0  0  0  0  0  0  0  0
    4.4290   -4.8826   27.5611 C   0  0  0  0  0  0  0  0  0  0  0  0
    6.9735   -3.6222   23.9445 C   0  0  0  0  0  0  0  0  0  0  0  0
    4.1648   -5.4008   34.3484 C   0  0  0  0  0  0  0  0  0  0  0  0
    6.1671   -5.3908   32.3725 N   0  0  0  0  0  0  0  0  0  0  0  0
    6.9430   -5.2443   30.1965 N   0  0  0  0  0  0  0  0  0  0  0  0
    5.7101   -3.9698   24.1462 N   0  0  0  0  0  0  0  0  0  0  0  0
    3.9087   -5.0283   32.9653 N   0  0  0  0  0  0  0  0  0  0  0  0
    8.7270   -6.3268   33.4225 O   0  0  0  0  0  0  0  0  0  0  0  0
    9.6003   -4.7015   31.9341 O   0  0  0  0  0  0  0  0  0  0  0  0
    8.7558   -5.8870   32.0326 S   0  0  1  0  0  0  0  0  0  0  0  0
    8.7326   -3.4216   25.3236 H   0  0  0  0  0  0  0  0  0  0  0  0
    9.6935   -8.0552   31.5807 H   0  0  0  0  0  0  0  0  0  0  0  0
    8.5029   -7.5649   30.3282 H   0  0  0  0  0  0  0  0  0  0  0  0
   10.1516   -6.8518   30.3282 H   0  0  0  0  0  0  0  0  0  0  0  0
    3.6841   -4.5844   30.2615 H   0  0  0  0  0  0  0  0  0  0  0  0
    7.7307   -4.1546   28.0431 H   0  0  0  0  0  0  0  0  0  0  0  0
    3.3975   -4.8054   25.6610 H   0  0  0  0  0  0  0  0  0  0  0  0
    3.5377   -5.2034   28.1204 H   0  0  0  0  0  0  0  0  0  0  0  0
    7.4063   -3.3472   22.9713 H   0  0  0  0  0  0  0  0  0  0  0  0
    3.6708   -4.6824   35.0191 H   0  0  0  0  0  0  0  0  0  0  0  0
    3.7686   -6.4097   34.5358 H   0  0  0  0  0  0  0  0  0  0  0  0
    5.2487   -5.3918   34.5358 H   0  0  0  0  0  0  0  0  0  0  0  0
    4.9880   -4.0223   23.4136 H   0  0  0  0  0  0  0  0  0  0  0  0
    2.9665   -4.7120   32.6948 H   0  0  0  0  0  0  0  0  0  0  0  0
  1 10  2  0
  1 11  1  0
  1 17  1  0
  2 10  1  0
  2 13  2  0
 21  3  1  6
  4 15  2  0
  4 16  1  0
  4 21  1  0
  5  6  2  0
  5 15  1  0
  5 18  1  0
  6  7  1  0
  7  8  1  0
  7 16  2  0
  8  9  2  0
  8 12  1  0
  9 10  1  0
 11 12  2  0
 13 17  1  0
 14 18  1  0
 19 21  2  0
 20 21  2  0
  2 22  1  0
  3 23  1  0
  3 24  1  0
  3 25  1  0
  6 26  1  0
  9 27  1  0
 11 28  1  0
 12 29  1  0
 13 30  1  0
 14 31  1  0
 14 32  1  0
 14 33  1  0
 17 34  1  0
 18 35  1  0
M  END
>  <filename_input>  (17) 
7F5D_EUO_docked.sdf

>  <pdb_id>  (17) 
7F5D_EUO

>  <pose_rank>  (17) 
16

>  <num_atoms_heavy>  (17) 
21

>  <num_torsions>  (17) 
3

>  <pose>  (17) 
[7.113216643249895, -5.46035022968013, 31.478416464121814, -2.8380159535397773, 0.11231514210700244, 1.9872248056007518, 5.823730985628082, -1.1738128191475456, 2.9053365316561983]

>  <energy>  (17) 
-509.6798689991208

>  <inter_energy>  (17) 
-517.6263293480399

>  <intra_energy>  (17) 
0.0

>  <rmsd>  (17) 
5.87317

>  <sdf_rank>  (17) 
0

$$$$

     RDKit          3D

 35 37  0  0  0  0  0  0  0  0999 V2000
   15.6676  -10.5975   32.0384 C   0  0  0  0  0  0  0  0  0  0  0  0
   16.5042   -9.8576   30.0678 C   0  0  0  0  0  0  0  0  0  0  0  0
    9.3783   -4.3965   31.4681 C   0  0  0  0  0  0  0  0  0  0  0  0
   11.3729   -5.9707   32.8202 C   0  0  0  0  0  0  0  0  0  0  0  0
   13.0314   -4.8735   33.8666 C   0  0  0  0  0  0  0  0  0  0  0  0
   13.8794   -5.9627   33.6573 C   0  0  0  0  0  0  0  0  0  0  0  0
   13.3608   -7.0644   32.9837 C   0  0  0  0  0  0  0  0  0  0  0  0
   14.1627   -8.3254   32.6743 C   0  0  0  0  0  0  0  0  0  0  0  0
   14.9078   -8.3725   31.4965 C   0  0  0  0  0  0  0  0  0  0  0  0
   15.6689   -9.5280   31.1802 C   0  0  0  0  0  0  0  0  0  0  0  0
   14.9099  -10.5445   33.2435 C   0  0  0  0  0  0  0  0  0  0  0  0
   14.1640   -9.4088   33.5527 C   0  0  0  0  0  0  0  0  0  0  0  0
   16.9689  -11.1431   30.3483 C   0  0  0  0  0  0  0  0  0  0  0  0
   13.9598   -3.7256   35.9230 C   0  0  0  0  0  0  0  0  0  0  0  0
   11.7810   -4.9032   33.4473 N   0  0  0  0  0  0  0  0  0  0  0  0
   12.1157   -7.0250   32.5846 N   0  0  0  0  0  0  0  0  0  0  0  0
   16.4697  -11.5589   31.5040 N   0  0  0  0  0  0  0  0  0  0  0  0
   13.4715   -3.6775   34.5532 N   0  0  0  0  0  0  0  0  0  0  0  0
    8.7649   -6.2224   33.3393 O   0  0  0  0  0  0  0  0  0  0  0  0
    9.5484   -7.0968   31.2800 O   0  0  0  0  0  0  0  0  0  0  0  0
    9.6874   -6.0003   32.2323 S   0  0  1  0  0  0  0  0  0  0  0  0
   16.7299   -9.2370   29.1881 H   0  0  0  0  0  0  0  0  0  0  0  0
    9.2323   -3.6388   32.2521 H   0  0  0  0  0  0  0  0  0  0  0  0
   10.2390   -4.1162   30.8430 H   0  0  0  0  0  0  0  0  0  0  0  0
    8.4752   -4.4561   30.8430 H   0  0  0  0  0  0  0  0  0  0  0  0
   14.9205   -5.9503   34.0122 H   0  0  0  0  0  0  0  0  0  0  0  0
   14.9056   -7.5122   30.8110 H   0  0  0  0  0  0  0  0  0  0  0  0
   14.9135  -11.4025   33.9319 H   0  0  0  0  0  0  0  0  0  0  0  0
   13.5798   -9.3669   34.4838 H   0  0  0  0  0  0  0  0  0  0  0  0
   17.6477  -11.7243   29.7068 H   0  0  0  0  0  0  0  0  0  0  0  0
   13.1113   -3.6419   36.6179 H   0  0  0  0  0  0  0  0  0  0  0  0
   14.4805   -4.6795   36.0933 H   0  0  0  0  0  0  0  0  0  0  0  0
   14.6569   -2.8919   36.0933 H   0  0  0  0  0  0  0  0  0  0  0  0
   16.6607  -12.4750   31.9343 H   0  0  0  0  0  0  0  0  0  0  0  0
   13.4383   -2.7730   34.0615 H   0  0  0  0  0  0  0  0  0  0  0  0
  1 10  2  0
  1 11  1  0
  1 17  1  0
  2 10  1  0
  2 13  2  0
 21  3  1  6
  4 15  2  0
  4 16  1  0
  4 21  1  0
  5  6  2  0
  5 15  1  0
  5 18  1  0
  6  7  1  0
  7  8  1  0
  7 16  2  0
  8  9  2  0
  8 12  1  0
  9 10  1  0
 11 12  2  0
 13 17  1  0
 14 18  1  0
 19 21  2  0
 20 21  2  0
  2 22  1  0
  3 23  1  0
  3 24  1  0
  3 25  1  0
  6 26  1  0
  9 27  1  0
 11 28  1  0
 12 29  1  0
 13 30  1  0
 14 31  1  0
 14 32  1  0
 14 33  1  0
 17 34  1  0
 18 35  1  0
M  END
>  <filename_input>  (18) 
7F5D_EUO_docked.sdf

>  <pdb_id>  (18) 
7F5D_EUO

>  <pose_rank>  (18) 
17

>  <num_atoms_heavy>  (18) 
21

>  <num_torsions>  (18) 
3

>  <pose>  (18) 
[11.372877051599046, -5.970692946028938, 32.820170416211226, 2.2941266634384294, -3.6911482980635766, 1.2857748567760832, 1.5863182707176582, 3.6161529847151748, -1.1853474205602794]

>  <energy>  (18) 
-232.58374898739942

>  <inter_energy>  (18) 
-246.5666505531423

>  <intra_energy>  (18) 
0.0

>  <rmsd>  (18) 
7.68542

>  <sdf_rank>  (18) 
0

$$$$

     RDKit          3D

 35 37  0  0  0  0  0  0  0  0999 V2000
    9.9875   -3.0276   37.2552 C   0  0  0  0  0  0  0  0  0  0  0  0
    7.9196   -3.8616   36.8573 C   0  0  0  0  0  0  0  0  0  0  0  0
   11.9975   -7.7917   29.7514 C   0  0  0  0  0  0  0  0  0  0  0  0
   11.9337   -6.5372   32.3411 C   0  0  0  0  0  0  0  0  0  0  0  0
   13.9406   -6.5441   33.3519 C   0  0  0  0  0  0  0  0  0  0  0  0
   13.4211   -5.7568   34.3812 C   0  0  0  0  0  0  0  0  0  0  0  0
   12.0800   -5.3937   34.3022 C   0  0  0  0  0  0  0  0  0  0  0  0
   11.3673   -4.5430   35.3497 C   0  0  0  0  0  0  0  0  0  0  0  0
    9.9907   -4.6956   35.5118 C   0  0  0  0  0  0  0  0  0  0  0  0
    9.2972   -3.9237   36.4803 C   0  0  0  0  0  0  0  0  0  0  0  0
   11.3946   -2.8777   37.0911 C   0  0  0  0  0  0  0  0  0  0  0  0
   12.0738   -3.6370   36.1404 C   0  0  0  0  0  0  0  0  0  0  0  0
    7.8777   -2.9054   37.8727 C   0  0  0  0  0  0  0  0  0  0  0  0
   16.3878   -6.1038   32.8767 C   0  0  0  0  0  0  0  0  0  0  0  0
   13.1814   -6.9148   32.3388 N   0  0  0  0  0  0  0  0  0  0  0  0
   11.3798   -5.8039   33.2762 N   0  0  0  0  0  0  0  0  0  0  0  0
    9.0955   -2.4292   38.0916 N   0  0  0  0  0  0  0  0  0  0  0  0
   15.3213   -6.9790   33.3389 N   0  0  0  0  0  0  0  0  0  0  0  0
   10.1897   -5.9198   30.4146 O   0  0  0  0  0  0  0  0  0  0  0  0
    9.9235   -8.0185   31.4843 O   0  0  0  0  0  0  0  0  0  0  0  0
   10.9010   -7.0593   30.9815 S   0  0  1  0  0  0  0  0  0  0  0  0
    7.0807   -4.4383   36.4404 H   0  0  0  0  0  0  0  0  0  0  0  0
   12.8087   -8.3336   30.2595 H   0  0  0  0  0  0  0  0  0  0  0  0
   11.4274   -8.4909   29.1221 H   0  0  0  0  0  0  0  0  0  0  0  0
   12.4251   -6.9972   29.1221 H   0  0  0  0  0  0  0  0  0  0  0  0
   14.0495   -5.4349   35.2247 H   0  0  0  0  0  0  0  0  0  0  0  0
    9.4411   -5.4156   34.8878 H   0  0  0  0  0  0  0  0  0  0  0  0
   11.9465   -2.1606   37.7166 H   0  0  0  0  0  0  0  0  0  0  0  0
   13.1605   -3.5226   36.0143 H   0  0  0  0  0  0  0  0  0  0  0  0
    6.9704   -2.5935   38.4108 H   0  0  0  0  0  0  0  0  0  0  0  0
   16.9112   -5.6742   33.7436 H   0  0  0  0  0  0  0  0  0  0  0  0
   17.0990   -6.6820   32.2685 H   0  0  0  0  0  0  0  0  0  0  0  0
   15.9595   -5.2934   32.2685 H   0  0  0  0  0  0  0  0  0  0  0  0
    9.3320   -1.7118   38.7918 H   0  0  0  0  0  0  0  0  0  0  0  0
   15.5537   -7.9284   33.6638 H   0  0  0  0  0  0  0  0  0  0  0  0
  1 10  2  0
  1 11  1  0
  1 17  1  0
  2 10  1  0
  2 13  2  0
 21  3  1  6
  4 15  2  0
  4 16  1  0
  4 21  1  0
  5  6  2  0
  5 15  1  0
  5 18  1  0
  6  7  1  0
  7  8  1  0
  7 16  2  0
  8  9  2  0
  8 12  1  0
  9 10  1  0
 11 12  2  0
 13 17  1  0
 14 18  1  0
 19 21  2  0
 20 21  2  0
  2 22  1  0
  3 23  1  0
  3 24  1  0
  3 25  1  0
  6 26  1  0
  9 27  1  0
 11 28  1  0
 12 29  1  0
 13 30  1  0
 14 31  1  0
 14 32  1  0
 14 33  1  0
 17 34  1  0
 18 35  1  0
M  END
>  <filename_input>  (19) 
7F5D_EUO_docked.sdf

>  <pdb_id>  (19) 
7F5D_EUO

>  <pose_rank>  (19) 
18

>  <num_atoms_heavy>  (19) 
21

>  <num_torsions>  (19) 
3

>  <pose>  (19) 
[11.933687658640823, -6.53717040511723, 32.341089570679024, -0.7705415878504944, 0.13458525780509212, -3.2725363275724537, 0.44581439358395825, 2.671574478360235, -1.5635188901437607]

>  <energy>  (19) 
-167.57181895102846

>  <inter_energy>  (19) 
-159.82854705500475

>  <intra_energy>  (19) 
0.0

>  <rmsd>  (19) 
8.42016

>  <sdf_rank>  (19) 
0

$$$$

     RDKit          3D

 35 37  0  0  0  0  0  0  0  0999 V2000
    6.0721   -4.6801   29.1108 C   0  0  0  0  0  0  0  0  0  0  0  0
    4.5461   -5.1857   30.7064 C   0  0  0  0  0  0  0  0  0  0  0  0
    9.8575   -3.4504   35.7028 C   0  0  0  0  0  0  0  0  0  0  0  0
   10.4478   -5.3786   33.6489 C   0  0  0  0  0  0  0  0  0  0  0  0
   11.8896   -5.7819   31.9732 C   0  0  0  0  0  0  0  0  0  0  0  0
   10.8580   -5.6084   31.0485 C   0  0  0  0  0  0  0  0  0  0  0  0
    9.5931   -5.3037   31.5421 C   0  0  0  0  0  0  0  0  0  0  0  0
    8.3684   -5.0796   30.6596 C   0  0  0  0  0  0  0  0  0  0  0  0
    7.1020   -5.2689   31.2118 C   0  0  0  0  0  0  0  0  0  0  0  0
    5.9415   -5.0644   30.4206 C   0  0  0  0  0  0  0  0  0  0  0  0
    7.3670   -4.4824   28.5508 C   0  0  0  0  0  0  0  0  0  0  0  0
    8.5050   -4.6828   29.3296 C   0  0  0  0  0  0  0  0  0  0  0  0
    3.9133   -4.8468   29.5098 C   0  0  0  0  0  0  0  0  0  0  0  0
   13.5386   -6.5694   30.2213 C   0  0  0  0  0  0  0  0  0  0  0  0
   11.6596   -5.6708   33.2674 N   0  0  0  0  0  0  0  0  0  0  0  0
    9.4351   -5.1968   32.8362 N   0  0  0  0  0  0  0  0  0  0  0  0
    4.8210   -4.5541   28.5890 N   0  0  0  0  0  0  0  0  0  0  0  0
   13.2422   -6.0980   31.5656 N   0  0  0  0  0  0  0  0  0  0  0  0
   11.2909   -5.6736   36.1661 O   0  0  0  0  0  0  0  0  0  0  0  0
    8.9826   -6.0172   35.7501 O   0  0  0  0  0  0  0  0  0  0  0  0
   10.1427   -5.2050   35.3994 S   0  0  1  0  0  0  0  0  0  0  0  0
    4.0765   -5.4803   31.6566 H   0  0  0  0  0  0  0  0  0  0  0  0
    9.8275   -3.2659   36.7868 H   0  0  0  0  0  0  0  0  0  0  0  0
   10.6720   -2.8634   35.2533 H   0  0  0  0  0  0  0  0  0  0  0  0
    8.8990   -3.1516   35.2533 H   0  0  0  0  0  0  0  0  0  0  0  0
   11.0388   -5.7090   29.9682 H   0  0  0  0  0  0  0  0  0  0  0  0
    7.0022   -5.5773   32.2630 H   0  0  0  0  0  0  0  0  0  0  0  0
    7.4687   -4.1707   27.5008 H   0  0  0  0  0  0  0  0  0  0  0  0
    9.5050   -4.5289   28.8979 H   0  0  0  0  0  0  0  0  0  0  0  0
    2.8246   -4.8255   29.3540 H   0  0  0  0  0  0  0  0  0  0  0  0
   14.1234   -7.4992   30.2795 H   0  0  0  0  0  0  0  0  0  0  0  0
   12.5980   -6.7607   29.6841 H   0  0  0  0  0  0  0  0  0  0  0  0
   14.1186   -5.8045   29.6841 H   0  0  0  0  0  0  0  0  0  0  0  0
    4.6106   -4.2728   27.6207 H   0  0  0  0  0  0  0  0  0  0  0  0
   14.0112   -5.9868   32.2417 H   0  0  0  0  0  0  0  0  0  0  0  0
  1 10  2  0
  1 11  1  0
  1 17  1  0
  2 10  1  0
  2 13  2  0
 21  3  1  6
  4 15  2  0
  4 16  1  0
  4 21  1  0
  5  6  2  0
  5 15  1  0
  5 18  1  0
  6  7  1  0
  7  8  1  0
  7 16  2  0
  8  9  2  0
  8 12  1  0
  9 10  1  0
 11 12  2  0
 13 17  1  0
 14 18  1  0
 19 21  2  0
 20 21  2  0
  2 22  1  0
  3 23  1  0
  3 24  1  0
  3 25  1  0
  6 26  1  0
  9 27  1  0
 11 28  1  0
 12 29  1  0
 13 30  1  0
 14 31  1  0
 14 32  1  0
 14 33  1  0
 17 34  1  0
 18 35  1  0
M  END
>  <filename_input>  (20) 
7F5D_EUO_docked.sdf

>  <pdb_id>  (20) 
7F5D_EUO

>  <pose_rank>  (20) 
19

>  <num_atoms_heavy>  (20) 
21

>  <num_torsions>  (20) 
3

>  <pose>  (20) 
[10.447757591659542, -5.378550965978366, 33.648942301393696, -0.7742880794887466, -3.174943576805984, -0.693603423251101, -6.717253753966817, -1.5341967334822355, -0.40925814255552856]

>  <energy>  (20) 
-375.3284705802791

>  <inter_energy>  (20) 
-372.73699695603165

>  <intra_energy>  (20) 
0.0

>  <rmsd>  (20) 
7.55833

>  <sdf_rank>  (20) 
0

$$$$

     RDKit          3D

 35 37  0  0  0  0  0  0  0  0999 V2000
    6.2784   -5.7137   29.2743 C   0  0  0  0  0  0  0  0  0  0  0  0
    6.4224   -4.0442   27.7503 C   0  0  0  0  0  0  0  0  0  0  0  0
   13.6082   -7.0724   30.5264 C   0  0  0  0  0  0  0  0  0  0  0  0
   11.9404   -5.3948   32.1660 C   0  0  0  0  0  0  0  0  0  0  0  0
   11.3157   -3.3076   32.7163 C   0  0  0  0  0  0  0  0  0  0  0  0
   10.0996   -3.5019   32.0586 C   0  0  0  0  0  0  0  0  0  0  0  0
    9.8812   -4.7376   31.4572 C   0  0  0  0  0  0  0  0  0  0  0  0
    8.6031   -5.1034   30.7078 C   0  0  0  0  0  0  0  0  0  0  0  0
    8.2272   -4.3310   29.6093 C   0  0  0  0  0  0  0  0  0  0  0  0
    7.0469   -4.6463   28.8867 C   0  0  0  0  0  0  0  0  0  0  0  0
    6.6677   -6.5042   30.3936 C   0  0  0  0  0  0  0  0  0  0  0  0
    7.8273   -6.1936   31.1012 C   0  0  0  0  0  0  0  0  0  0  0  0
    5.2875   -4.8232   27.5215 C   0  0  0  0  0  0  0  0  0  0  0  0
   10.6133   -1.2394   33.9961 C   0  0  0  0  0  0  0  0  0  0  0  0
   12.2235   -4.2641   32.7498 N   0  0  0  0  0  0  0  0  0  0  0  0
   10.8182   -5.6469   31.5367 N   0  0  0  0  0  0  0  0  0  0  0  0
    5.2201   -5.7940   28.4218 N   0  0  0  0  0  0  0  0  0  0  0  0
   11.6418   -2.0614   33.3768 N   0  0  0  0  0  0  0  0  0  0  0  0
   12.6099   -7.8785   32.8855 O   0  0  0  0  0  0  0  0  0  0  0  0
   14.3019   -6.2227   33.0069 O   0  0  0  0  0  0  0  0  0  0  0  0
   13.1602   -6.6968   32.2323 S   0  0  1  0  0  0  0  0  0  0  0  0
    6.7607   -3.1643   27.1834 H   0  0  0  0  0  0  0  0  0  0  0  0
   14.4512   -7.7791   30.5158 H   0  0  0  0  0  0  0  0  0  0  0  0
   12.7465   -7.5220   30.0114 H   0  0  0  0  0  0  0  0  0  0  0  0
   13.9004   -6.1454   30.0114 H   0  0  0  0  0  0  0  0  0  0  0  0
    9.3410   -2.7064   32.0174 H   0  0  0  0  0  0  0  0  0  0  0  0
    8.8467   -3.4756   29.3021 H   0  0  0  0  0  0  0  0  0  0  0  0
    6.0513   -7.3621   30.7003 H   0  0  0  0  0  0  0  0  0  0  0  0
    8.1290   -6.8046   31.9647 H   0  0  0  0  0  0  0  0  0  0  0  0
    4.5581   -4.6566   26.7151 H   0  0  0  0  0  0  0  0  0  0  0  0
   10.6989   -1.3079   35.0906 H   0  0  0  0  0  0  0  0  0  0  0  0
   10.7423   -0.1929   33.6829 H   0  0  0  0  0  0  0  0  0  0  0  0
    9.6209   -1.5962   33.6829 H   0  0  0  0  0  0  0  0  0  0  0  0
    4.4761   -6.5048   28.4693 H   0  0  0  0  0  0  0  0  0  0  0  0
   12.6231   -1.7499   33.4090 H   0  0  0  0  0  0  0  0  0  0  0  0
  1 10  2  0
  1 11  1  0
  1 17  1  0
  2 10  1  0
  2 13  2  0
 21  3  1  6
  4 15  2  0
  4 16  1  0
  4 21  1  0
  5  6  2  0
  5 15  1  0
  5 18  1  0
  6  7  1  0
  7  8  1  0
  7 16  2  0
  8  9  2  0
  8 12  1  0
  9 10  1  0
 11 12  2  0
 13 17  1  0
 14 18  1  0
 19 21  2  0
 20 21  2  0
  2 22  1  0
  3 23  1  0
  3 24  1  0
  3 25  1  0
  6 26  1  0
  9 27  1  0
 11 28  1  0
 12 29  1  0
 13 30  1  0
 14 31  1  0
 14 32  1  0
 14 33  1  0
 17 34  1  0
 18 35  1  0
M  END
>  <filename_input>  (21) 
7F5D_EUO_docked.sdf

>  <pdb_id>  (21) 
7F5D_EUO

>  <pose_rank>  (21) 
20

>  <num_atoms_heavy>  (21) 
21

>  <num_torsions>  (21) 
3

>  <pose>  (21) 
[11.940427912043099, -5.39480323229189, 32.16603040631228, 0.8873782244003428, -1.2171857274773525, -2.0825591062077606, 4.143820281333499, 0.75607251671244, 0.4141709437894221]

>  <energy>  (21) 
-433.69932400269295

>  <inter_energy>  (21) 
-437.09987568087956

>  <intra_energy>  (21) 
0.0

>  <rmsd>  (21) 
6.97652

>  <sdf_rank>  (21) 
0

$$$$

     RDKit          3D

 35 37  0  0  0  0  0  0  0  0999 V2000
    7.4240   -4.8109   29.6526 C   0  0  0  0  0  0  0  0  0  0  0  0
    6.1411   -3.6096   28.2237 C   0  0  0  0  0  0  0  0  0  0  0  0
    2.0947   -2.3690   35.0595 C   0  0  0  0  0  0  0  0  0  0  0  0
    3.2393   -4.9353   34.4360 C   0  0  0  0  0  0  0  0  0  0  0  0
    2.5244   -6.8561   33.5146 C   0  0  0  0  0  0  0  0  0  0  0  0
    3.4937   -6.7344   32.5172 C   0  0  0  0  0  0  0  0  0  0  0  0
    4.3343   -5.6265   32.5657 C   0  0  0  0  0  0  0  0  0  0  0  0
    5.4437   -5.3572   31.5529 C   0  0  0  0  0  0  0  0  0  0  0  0
    5.1451   -4.6042   30.4178 C   0  0  0  0  0  0  0  0  0  0  0  0
    6.1544   -4.3309   29.4580 C   0  0  0  0  0  0  0  0  0  0  0  0
    7.7274   -5.5753   30.8157 C   0  0  0  0  0  0  0  0  0  0  0  0
    6.7354   -5.8418   31.7573 C   0  0  0  0  0  0  0  0  0  0  0  0
    7.4503   -3.7030   27.7501 C   0  0  0  0  0  0  0  0  0  0  0  0
    1.4705   -8.8003   34.7466 C   0  0  0  0  0  0  0  0  0  0  0  0
    2.4102   -5.9410   34.4579 N   0  0  0  0  0  0  0  0  0  0  0  0
    4.1752   -4.7618   33.5343 N   0  0  0  0  0  0  0  0  0  0  0  0
    8.1855   -4.4085   28.5983 N   0  0  0  0  0  0  0  0  0  0  0  0
    1.6022   -7.9711   33.5583 N   0  0  0  0  0  0  0  0  0  0  0  0
    4.4177   -3.2166   36.1069 O   0  0  0  0  0  0  0  0  0  0  0  0
    2.4786   -4.3322   36.8910 O   0  0  0  0  0  0  0  0  0  0  0  0
    3.0993   -3.7097   35.7266 S   0  0  1  0  0  0  0  0  0  0  0  0
    5.2897   -3.0962   27.7530 H   0  0  0  0  0  0  0  0  0  0  0  0
    1.6603   -1.7894   35.8873 H   0  0  0  0  0  0  0  0  0  0  0  0
    2.7242   -1.7114   34.4421 H   0  0  0  0  0  0  0  0  0  0  0  0
    1.2867   -2.7885   34.4421 H   0  0  0  0  0  0  0  0  0  0  0  0
    3.5895   -7.4876   31.7213 H   0  0  0  0  0  0  0  0  0  0  0  0
    4.1251   -4.2213   30.2659 H   0  0  0  0  0  0  0  0  0  0  0  0
    8.7476   -5.9562   30.9710 H   0  0  0  0  0  0  0  0  0  0  0  0
    6.9696   -6.4308   32.6563 H   0  0  0  0  0  0  0  0  0  0  0  0
    7.8174   -3.2581   26.8134 H   0  0  0  0  0  0  0  0  0  0  0  0
    1.5701   -8.1728   35.6446 H   0  0  0  0  0  0  0  0  0  0  0  0
    0.4839   -9.2868   34.7469 H   0  0  0  0  0  0  0  0  0  0  0  0
    2.2580   -9.5683   34.7469 H   0  0  0  0  0  0  0  0  0  0  0  0
    9.1861   -4.6208   28.4775 H   0  0  0  0  0  0  0  0  0  0  0  0
    1.0268   -8.1819   32.7304 H   0  0  0  0  0  0  0  0  0  0  0  0
  1 10  2  0
  1 11  1  0
  1 17  1  0
  2 10  1  0
  2 13  2  0
 21  3  1  6
  4 15  2  0
  4 16  1  0
  4 21  1  0
  5  6  2  0
  5 15  1  0
  5 18  1  0
  6  7  1  0
  7  8  1  0
  7 16  2  0
  8  9  2  0
  8 12  1  0
  9 10  1  0
 11 12  2  0
 13 17  1  0
 14 18  1  0
 19 21  2  0
 20 21  2  0
  2 22  1  0
  3 23  1  0
  3 24  1  0
  3 25  1  0
  6 26  1  0
  9 27  1  0
 11 28  1  0
 12 29  1  0
 13 30  1  0
 14 31  1  0
 14 32  1  0
 14 33  1  0
 17 34  1  0
 18 35  1  0
M  END
>  <filename_input>  (22) 
7F5D_EUO_docked.sdf

>  <pdb_id>  (22) 
7F5D_EUO

>  <pose_rank>  (22) 
21

>  <num_atoms_heavy>  (22) 
21

>  <num_torsions>  (22) 
3

>  <pose>  (22) 
[3.239308522859749, -4.935259731640568, 34.435982295310524, -4.156940975443708, -1.1280424368100674, -0.29864922410358236, -7.873375723304375, -5.121483328819503, -4.238149212005885]

>  <energy>  (22) 
-356.3027936100382

>  <inter_energy>  (22) 
-352.72838249424757

>  <intra_energy>  (22) 
0.0

>  <rmsd>  (22) 
6.27905

>  <sdf_rank>  (22) 
0

$$$$

     RDKit          3D

 35 37  0  0  0  0  0  0  0  0999 V2000
    6.4485   -5.8114   29.9236 C   0  0  0  0  0  0  0  0  0  0  0  0
    7.8533   -7.0289   31.2177 C   0  0  0  0  0  0  0  0  0  0  0  0
    2.4025   -2.0795   34.4027 C   0  0  0  0  0  0  0  0  0  0  0  0
    1.5571   -4.7786   33.8692 C   0  0  0  0  0  0  0  0  0  0  0  0
    1.3806   -7.0186   33.9030 C   0  0  0  0  0  0  0  0  0  0  0  0
    2.4553   -7.1131   33.0169 C   0  0  0  0  0  0  0  0  0  0  0  0
    3.0491   -5.9280   32.5934 C   0  0  0  0  0  0  0  0  0  0  0  0
    4.2335   -5.8674   31.6331 C   0  0  0  0  0  0  0  0  0  0  0  0
    5.4179   -6.5112   31.9900 C   0  0  0  0  0  0  0  0  0  0  0  0
    6.5375   -6.4788   31.1181 C   0  0  0  0  0  0  0  0  0  0  0  0
    5.2356   -5.1591   29.5593 C   0  0  0  0  0  0  0  0  0  0  0  0
    4.1373   -5.1928   30.4162 C   0  0  0  0  0  0  0  0  0  0  0  0
    8.4824   -6.6473   30.0321 C   0  0  0  0  0  0  0  0  0  0  0  0
   -0.7508   -8.2075   34.5754 C   0  0  0  0  0  0  0  0  0  0  0  0
    0.9437   -5.8417   34.3085 N   0  0  0  0  0  0  0  0  0  0  0  0
    2.5742   -4.7947   33.0422 N   0  0  0  0  0  0  0  0  0  0  0  0
    7.6460   -5.9367   29.2883 N   0  0  0  0  0  0  0  0  0  0  0  0
    0.6944   -8.1894   34.4069 N   0  0  0  0  0  0  0  0  0  0  0  0
    0.4489   -3.2910   35.7910 O   0  0  0  0  0  0  0  0  0  0  0  0
   -0.0863   -2.7375   33.5490 O   0  0  0  0  0  0  0  0  0  0  0  0
    0.9801   -3.1874   34.4371 S   0  0  1  0  0  0  0  0  0  0  0  0
    8.2751   -7.6203   32.0437 H   0  0  0  0  0  0  0  0  0  0  0  0
    2.7074   -1.8421   35.4326 H   0  0  0  0  0  0  0  0  0  0  0  0
    3.2358   -2.5689   33.8773 H   0  0  0  0  0  0  0  0  0  0  0  0
    2.1320   -1.1518   33.8773 H   0  0  0  0  0  0  0  0  0  0  0  0
    2.8198   -8.0899   32.6660 H   0  0  0  0  0  0  0  0  0  0  0  0
    5.4847   -7.0453   32.9493 H   0  0  0  0  0  0  0  0  0  0  0  0
    5.1658   -4.6274   28.5989 H   0  0  0  0  0  0  0  0  0  0  0  0
    3.2001   -4.6905   30.1346 H   0  0  0  0  0  0  0  0  0  0  0  0
    9.5172   -6.8984   29.7559 H   0  0  0  0  0  0  0  0  0  0  0  0
   -0.9948   -8.2106   35.6480 H   0  0  0  0  0  0  0  0  0  0  0  0
   -1.1863   -7.3148   34.1029 H   0  0  0  0  0  0  0  0  0  0  0  0
   -1.1637   -9.1109   34.1029 H   0  0  0  0  0  0  0  0  0  0  0  0
    7.8695   -5.5379   28.3653 H   0  0  0  0  0  0  0  0  0  0  0  0
    1.2408   -9.0276   34.6513 H   0  0  0  0  0  0  0  0  0  0  0  0
  1 10  2  0
  1 11  1  0
  1 17  1  0
  2 10  1  0
  2 13  2  0
 21  3  1  1
  4 15  2  0
  4 16  1  0
  4 21  1  0
  5  6  2  0
  5 15  1  0
  5 18  1  0
  6  7  1  0
  7  8  1  0
  7 16  2  0
  8  9  2  0
  8 12  1  0
  9 10  1  0
 11 12  2  0
 13 17  1  0
 14 18  1  0
 19 21  2  0
 20 21  2  0
  2 22  1  0
  3 23  1  0
  3 24  1  0
  3 25  1  0
  6 26  1  0
  9 27  1  0
 11 28  1  0
 12 29  1  0
 13 30  1  0
 14 31  1  0
 14 32  1  0
 14 33  1  0
 17 34  1  0
 18 35  1  0
M  END
>  <filename_input>  (23) 
7F5D_EUO_docked.sdf

>  <pdb_id>  (23) 
7F5D_EUO

>  <pose_rank>  (23) 
22

>  <num_atoms_heavy>  (23) 
21

>  <num_torsions>  (23) 
3

>  <pose>  (23) 
[1.557092928979087, -4.778607695457802, 33.8692408552805, 1.356275773625114, 0.6229981094951494, 0.24678614245452501, 2.0858841602061813, -0.797297987657505, -2.6015706887847663]

>  <energy>  (23) 
-436.9580210715644

>  <inter_energy>  (23) 
-420.95428516367394

>  <intra_energy>  (23) 
0.0

>  <rmsd>  (23) 
6.31397

>  <sdf_rank>  (23) 
0

$$$$

     RDKit          3D

 35 37  0  0  0  0  0  0  0  0999 V2000
    8.4434   -6.1330   30.7261 C   0  0  0  0  0  0  0  0  0  0  0  0
    8.2245   -4.6711   29.0099 C   0  0  0  0  0  0  0  0  0  0  0  0
    4.3687   -7.1591   36.3868 C   0  0  0  0  0  0  0  0  0  0  0  0
    3.0658   -5.9137   34.1427 C   0  0  0  0  0  0  0  0  0  0  0  0
    2.3311   -4.5752   32.4940 C   0  0  0  0  0  0  0  0  0  0  0  0
    3.5601   -4.7061   31.8448 C   0  0  0  0  0  0  0  0  0  0  0  0
    4.5275   -5.5035   32.4486 C   0  0  0  0  0  0  0  0  0  0  0  0
    5.9143   -5.7484   31.8606 C   0  0  0  0  0  0  0  0  0  0  0  0
    6.2932   -5.0384   30.7218 C   0  0  0  0  0  0  0  0  0  0  0  0
    7.5775   -5.2384   30.1516 C   0  0  0  0  0  0  0  0  0  0  0  0
    8.0557   -6.8530   31.8926 C   0  0  0  0  0  0  0  0  0  0  0  0
    6.7946   -6.6546   32.4513 C   0  0  0  0  0  0  0  0  0  0  0  0
    9.4800   -5.2793   28.9813 C   0  0  0  0  0  0  0  0  0  0  0  0
    0.6010   -2.7442   32.7449 C   0  0  0  0  0  0  0  0  0  0  0  0
    2.1097   -5.1806   33.6450 N   0  0  0  0  0  0  0  0  0  0  0  0
    4.2398   -6.0848   33.5846 N   0  0  0  0  0  0  0  0  0  0  0  0
    9.5899   -6.1304   29.9920 N   0  0  0  0  0  0  0  0  0  0  0  0
    1.2562   -3.7722   31.9504 N   0  0  0  0  0  0  0  0  0  0  0  0
    1.9784   -7.9640   35.4648 O   0  0  0  0  0  0  0  0  0  0  0  0
    1.9943   -5.8590   36.5548 O   0  0  0  0  0  0  0  0  0  0  0  0
    2.7568   -6.7516   35.6886 S   0  0  1  0  0  0  0  0  0  0  0  0
    7.8226   -3.9229   28.3108 H   0  0  0  0  0  0  0  0  0  0  0  0
    4.3071   -7.1435   37.4850 H   0  0  0  0  0  0  0  0  0  0  0  0
    4.6710   -8.1619   36.0507 H   0  0  0  0  0  0  0  0  0  0  0  0
    5.1112   -6.4204   36.0507 H   0  0  0  0  0  0  0  0  0  0  0  0
    3.7567   -4.1969   30.8897 H   0  0  0  0  0  0  0  0  0  0  0  0
    5.5951   -4.3219   30.2643 H   0  0  0  0  0  0  0  0  0  0  0  0
    8.7536   -7.5674   32.3534 H   0  0  0  0  0  0  0  0  0  0  0  0
    6.4954   -7.2093   33.3528 H   0  0  0  0  0  0  0  0  0  0  0  0
   10.2614   -5.0823   28.2326 H   0  0  0  0  0  0  0  0  0  0  0  0
    0.7403   -2.9627   33.8139 H   0  0  0  0  0  0  0  0  0  0  0  0
    1.0412   -1.7637   32.5106 H   0  0  0  0  0  0  0  0  0  0  0  0
   -0.4736   -2.7291   32.5106 H   0  0  0  0  0  0  0  0  0  0  0  0
   10.4208   -6.7052   30.1923 H   0  0  0  0  0  0  0  0  0  0  0  0
    0.9486   -3.9320   30.9805 H   0  0  0  0  0  0  0  0  0  0  0  0
  1 10  2  0
  1 11  1  0
  1 17  1  0
  2 10  1  0
  2 13  2  0
 21  3  1  1
  4 15  2  0
  4 16  1  0
  4 21  1  0
  5  6  2  0
  5 15  1  0
  5 18  1  0
  6  7  1  0
  7  8  1  0
  7 16  2  0
  8  9  2  0
  8 12  1  0
  9 10  1  0
 11 12  2  0
 13 17  1  0
 14 18  1  0
 19 21  2  0
 20 21  2  0
  2 22  1  0
  3 23  1  0
  3 24  1  0
  3 25  1  0
  6 26  1  0
  9 27  1  0
 11 28  1  0
 12 29  1  0
 13 30  1  0
 14 31  1  0
 14 32  1  0
 14 33  1  0
 17 34  1  0
 18 35  1  0
M  END
>  <filename_input>  (24) 
7F5D_EUO_docked.sdf

>  <pdb_id>  (24) 
7F5D_EUO

>  <pose_rank>  (24) 
23

>  <num_atoms_heavy>  (24) 
21

>  <num_torsions>  (24) 
3

>  <pose>  (24) 
[3.0658201013194533, -5.913696450960993, 34.14271173098146, 3.0044991993187136, -1.0989753499655335, -0.09305085228666525, 3.227820226334685, 0.04572268651447452, -2.3684836495313517]

>  <energy>  (24) 
-434.2638000909625

>  <inter_energy>  (24) 
-408.5386255184054

>  <intra_energy>  (24) 
0.0

>  <rmsd>  (24) 
5.82638

>  <sdf_rank>  (24) 
0

$$$$

     RDKit          3D

 35 37  0  0  0  0  0  0  0  0999 V2000
    6.6870   -5.5208   29.5760 C   0  0  0  0  0  0  0  0  0  0  0  0
    7.9787   -6.9342   30.7862 C   0  0  0  0  0  0  0  0  0  0  0  0
    4.6621   -6.3193   36.2331 C   0  0  0  0  0  0  0  0  0  0  0  0
    2.5224   -5.9749   34.3391 C   0  0  0  0  0  0  0  0  0  0  0  0
    1.0150   -5.1624   32.8839 C   0  0  0  0  0  0  0  0  0  0  0  0
    2.0064   -5.0882   31.9037 C   0  0  0  0  0  0  0  0  0  0  0  0
    3.2888   -5.5031   32.2499 C   0  0  0  0  0  0  0  0  0  0  0  0
    4.4747   -5.4875   31.2894 C   0  0  0  0  0  0  0  0  0  0  0  0
    5.5977   -6.2535   31.6005 C   0  0  0  0  0  0  0  0  0  0  0  0
    6.7163   -6.2658   30.7268 C   0  0  0  0  0  0  0  0  0  0  0  0
    5.5363   -4.7435   29.2582 C   0  0  0  0  0  0  0  0  0  0  0  0
    4.4388   -4.7335   30.1167 C   0  0  0  0  0  0  0  0  0  0  0  0
    8.6396   -6.5370   29.6233 C   0  0  0  0  0  0  0  0  0  0  0  0
   -1.4705   -5.6411   32.9216 C   0  0  0  0  0  0  0  0  0  0  0  0
    1.2976   -5.6005   34.0957 N   0  0  0  0  0  0  0  0  0  0  0  0
    3.4995   -5.9373   33.4657 N   0  0  0  0  0  0  0  0  0  0  0  0
    7.8693   -5.7113   28.9286 N   0  0  0  0  0  0  0  0  0  0  0  0
   -0.3514   -4.7590   32.6273 N   0  0  0  0  0  0  0  0  0  0  0  0
    2.5822   -8.0099   36.0680 O   0  0  0  0  0  0  0  0  0  0  0  0
    2.0837   -5.8626   36.9399 O   0  0  0  0  0  0  0  0  0  0  0  0
    2.8984   -6.5898   35.9724 S   0  0  1  0  0  0  0  0  0  0  0  0
    8.3464   -7.6100   31.5724 H   0  0  0  0  0  0  0  0  0  0  0  0
    4.8725   -6.2870   37.3123 H   0  0  0  0  0  0  0  0  0  0  0  0
    5.2310   -7.1407   35.7730 H   0  0  0  0  0  0  0  0  0  0  0  0
    4.9586   -5.3651   35.7730 H   0  0  0  0  0  0  0  0  0  0  0  0
    1.7818   -4.7149   30.8937 H   0  0  0  0  0  0  0  0  0  0  0  0
    5.6167   -6.8494   32.5249 H   0  0  0  0  0  0  0  0  0  0  0  0
    5.5141   -4.1497   28.3326 H   0  0  0  0  0  0  0  0  0  0  0  0
    3.5495   -4.1345   29.8710 H   0  0  0  0  0  0  0  0  0  0  0  0
    9.6485   -6.8604   29.3273 H   0  0  0  0  0  0  0  0  0  0  0  0
   -1.5878   -5.7336   34.0114 H   0  0  0  0  0  0  0  0  0  0  0  0
   -2.3909   -5.2229   32.4879 H   0  0  0  0  0  0  0  0  0  0  0  0
   -1.2789   -6.6337   32.4879 H   0  0  0  0  0  0  0  0  0  0  0  0
    8.1275   -5.2777   28.0307 H   0  0  0  0  0  0  0  0  0  0  0  0
   -0.5353   -3.8276   32.2279 H   0  0  0  0  0  0  0  0  0  0  0  0
  1 10  2  0
  1 11  1  0
  1 17  1  0
  2 10  1  0
  2 13  2  0
 21  3  1  1
  4 15  2  0
  4 16  1  0
  4 21  1  0
  5  6  2  0
  5 15  1  0
  5 18  1  0
  6  7  1  0
  7  8  1  0
  7 16  2  0
  8  9  2  0
  8 12  1  0
  9 10  1  0
 11 12  2  0
 13 17  1  0
 14 18  1  0
 19 21  2  0
 20 21  2  0
  2 22  1  0
  3 23  1  0
  3 24  1  0
  3 25  1  0
  6 26  1  0
  9 27  1  0
 11 28  1  0
 12 29  1  0
 13 30  1  0
 14 31  1  0
 14 32  1  0
 14 33  1  0
 17 34  1  0
 18 35  1  0
M  END
>  <filename_input>  (25) 
7F5D_EUO_docked.sdf

>  <pdb_id>  (25) 
7F5D_EUO

>  <pose_rank>  (25) 
24

>  <num_atoms_heavy>  (25) 
21

>  <num_torsions>  (25) 
3

>  <pose>  (25) 
[2.5223596534705868, -5.974874452386916, 34.339063064871084, 2.865087798032813, -0.6305540802694506, -0.4412590971244663, 0.2828322309006526, 0.13196855509103864, 2.0872123750333915]

>  <energy>  (25) 
-430.3852914572465

>  <inter_energy>  (25) 
-418.873322491655

>  <intra_energy>  (25) 
0.0

>  <rmsd>  (25) 
6.48545

>  <sdf_rank>  (25) 
0

$$$$

     RDKit          3D

 35 37  0  0  0  0  0  0  0  0999 V2000
   10.4540   -6.9840   31.3940 C   0  0  0  0  0  0  0  0  0  0  0  0
   11.7590   -6.4380   29.6250 C   0  0  0  0  0  0  0  0  0  0  0  0
    7.5350   -3.7860   25.9760 C   0  0  0  0  0  0  0  0  0  0  0  0
    5.8640   -3.8710   28.3180 C   0  0  0  0  0  0  0  0  0  0  0  0
    4.5670   -4.3590   30.0870 C   0  0  0  0  0  0  0  0  0  0  0  0
    5.6370   -5.0300   30.6820 C   0  0  0  0  0  0  0  0  0  0  0  0
    6.8420   -5.0680   29.9870 C   0  0  0  0  0  0  0  0  0  0  0  0
    8.1010   -5.7560   30.5070 C   0  0  0  0  0  0  0  0  0  0  0  0
    9.2610   -5.7010   29.7350 C   0  0  0  0  0  0  0  0  0  0  0  0
   10.4510   -6.3260   30.1910 C   0  0  0  0  0  0  0  0  0  0  0  0
    9.2690   -7.0340   32.1830 C   0  0  0  0  0  0  0  0  0  0  0  0
    8.1020   -6.4190   31.7340 C   0  0  0  0  0  0  0  0  0  0  0  0
   12.4840   -7.1740   30.5630 C   0  0  0  0  0  0  0  0  0  0  0  0
    3.0670   -4.6970   32.0980 C   0  0  0  0  0  0  0  0  0  0  0  0
    4.7010   -3.7950   28.9020 N   0  0  0  0  0  0  0  0  0  0  0  0
    6.9110   -4.4790   28.8210 N   0  0  0  0  0  0  0  0  0  0  0  0
   11.7050   -7.4840   31.5900 N   0  0  0  0  0  0  0  0  0  0  0  0
    3.2720   -4.2580   30.7260 N   0  0  0  0  0  0  0  0  0  0  0  0
    6.1910   -1.6440   26.8800 O   0  0  0  0  0  0  0  0  0  0  0  0
    4.8570   -3.3590   25.9320 O   0  0  0  0  0  0  0  0  0  0  0  0
    6.0510   -3.0870   26.7250 S   0  0  1  0  0  0  0  0  0  0  0  0
   12.1142   -6.0345   28.6653 H   0  0  0  0  0  0  0  0  0  0  0  0
    8.2264   -4.1117   26.7671 H   0  0  0  0  0  0  0  0  0  0  0  0
    7.2592   -4.6489   25.3520 H   0  0  0  0  0  0  0  0  0  0  0  0
    8.0246   -3.0238   25.3520 H   0  0  0  0  0  0  0  0  0  0  0  0
    5.5313   -5.5116   31.6653 H   0  0  0  0  0  0  0  0  0  0  0  0
    9.2538   -5.1721   28.7705 H   0  0  0  0  0  0  0  0  0  0  0  0
    9.2752   -7.5595   33.1493 H   0  0  0  0  0  0  0  0  0  0  0  0
    7.1871   -6.4562   32.3436 H   0  0  0  0  0  0  0  0  0  0  0  0
   13.5430   -7.4548   30.4650 H   0  0  0  0  0  0  0  0  0  0  0  0
    3.4291   -3.9216   32.7891 H   0  0  0  0  0  0  0  0  0  0  0  0
    1.9947   -4.8707   32.2711 H   0  0  0  0  0  0  0  0  0  0  0  0
    3.6223   -5.6307   32.2711 H   0  0  0  0  0  0  0  0  0  0  0  0
   12.0026   -8.0239   32.4151 H   0  0  0  0  0  0  0  0  0  0  0  0
    2.4787   -3.8670   30.1981 H   0  0  0  0  0  0  0  0  0  0  0  0
  1 10  2  0
  1 11  1  0
  1 17  1  0
  2 10  1  0
  2 13  2  0
 21  3  1  6
  4 15  2  0
  4 16  1  0
  4 21  1  0
  5  6  2  0
  5 15  1  0
  5 18  1  0
  6  7  1  0
  7  8  1  0
  7 16  2  0
  8  9  2  0
  8 12  1  0
  9 10  1  0
 11 12  2  0
 13 17  1  0
 14 18  1  0
 19 21  2  0
 20 21  2  0
  2 22  1  0
  3 23  1  0
  3 24  1  0
  3 25  1  0
  6 26  1  0
  9 27  1  0
 11 28  1  0
 12 29  1  0
 13 30  1  0
 14 31  1  0
 14 32  1  0
 14 33  1  0
 17 34  1  0
 18 35  1  0
M  END
>  <filename_input>  (26) 
7F5D_EUO_docked.sdf

>  <pdb_id>  (26) 
7F5D_EUO

>  <pose_rank>  (26) 
25

>  <num_atoms_heavy>  (26) 
21

>  <num_torsions>  (26) 
3

>  <pose>  (26) 
[5.864, -3.871, 28.318, 1e-06, 1e-06, 1e-06, 0.0, 0.0, 0.0]

>  <energy>  (26) 
-634.1984803930932

>  <inter_energy>  (26) 
-620.5649960833225

>  <intra_energy>  (26) 
0.0

>  <rmsd>  (26) 
0.0

>  <sdf_rank>  (26) 
0

$$$$
