
     RDKit          3D

 84 89  0  0  0  0  0  0  0  0999 V2000
   24.5429   24.3389   94.7184 P   0  0  1  0  0  0  0  0  0  0  0  0
   24.6649   25.5967   94.0430 O   0  0  0  0  0  0  0  0  0  0  0  0
   24.4728   23.1116   93.6664 O   0  0  0  0  0  0  0  0  0  0  0  0
   25.7706   24.1158   95.8352 O   0  0  0  0  0  0  0  0  0  0  0  0
   27.0549   23.6382   95.3918 C   0  0  0  0  0  0  0  0  0  0  0  0
   27.3956   22.4728   96.1439 C   0  0  1  0  0  0  0  0  0  0  0  0
   27.8391   21.4421   95.3042 O   0  0  0  0  0  0  0  0  0  0  0  0
   28.4193   22.6953   97.0001 C   0  0  1  0  0  0  0  0  0  0  0  0
   28.0110   23.4003   98.1488 O   0  0  0  0  0  0  0  0  0  0  0  0
   28.8767   21.4214   97.2752 C   0  0  1  0  0  0  0  0  0  0  0  0
   28.0325   20.7648   98.2143 O   0  0  0  0  0  0  0  0  0  0  0  0
   28.8446   20.7803   96.0779 C   0  0  2  0  0  0  0  0  0  0  0  0
   30.0642   20.8529   95.4584 N   0  0  0  0  0  0  0  0  0  0  0  0
   30.3055   21.5638   94.4260 C   0  0  0  0  0  0  0  0  0  0  0  0
   31.5872   21.4121   94.0831 N   0  0  0  0  0  0  0  0  0  0  0  0
   32.1527   20.5331   94.9900 C   0  0  0  0  0  0  0  0  0  0  0  0
   33.3994   19.9568   95.2137 C   0  0  0  0  0  0  0  0  0  0  0  0
   34.5242   20.2577   94.3525 N   0  0  0  0  0  0  0  0  0  0  0  0
   33.5698   19.1273   96.2234 N   0  0  0  0  0  0  0  0  0  0  0  0
   32.5672   18.8281   97.0287 C   0  0  0  0  0  0  0  0  0  0  0  0
   31.3475   19.3434   96.8727 N   0  0  0  0  0  0  0  0  0  0  0  0
   31.0959   20.1897   95.8779 C   0  0  0  0  0  0  0  0  0  0  0  0
   23.5754   25.1268  102.6211 N   0  0  0  0  0  0  0  0  0  0  0  0
   22.5456   25.5948  103.3672 C   0  0  0  0  0  0  0  0  0  0  0  0
   21.3036   25.5930  102.8589 O   0  0  0  0  0  0  0  0  0  0  0  0
   22.7766   26.0535  104.5851 N   0  0  0  0  0  0  0  0  0  0  0  0
   23.9661   26.0453  105.1192 C   0  0  0  0  0  0  0  0  0  0  0  0
   24.0960   26.5599  106.3490 O   0  0  0  0  0  0  0  0  0  0  0  0
   25.0351   25.6314  104.3692 C   0  0  0  0  0  0  0  0  0  0  0  0
   26.2271   25.6981  104.9120 N   0  0  0  0  0  0  0  0  0  0  0  0
   27.2178   25.0253  104.3184 C   0  0  0  0  0  0  0  0  0  0  0  0
   28.4083   24.8911  105.0061 C   0  0  0  0  0  0  0  0  0  0  0  0
   29.4658   24.2130  104.4219 C   0  0  0  0  0  0  0  0  0  0  0  0
   30.8010   24.0618  105.1814 C   0  0  0  0  0  0  0  0  0  0  0  0
   29.3039   23.6713  103.1380 C   0  0  0  0  0  0  0  0  0  0  0  0
   30.4640   22.9086  102.4553 C   0  0  0  0  0  0  0  0  0  0  0  0
   28.1118   23.8107  102.4542 C   0  0  0  0  0  0  0  0  0  0  0  0
   27.0172   24.5069  103.0206 C   0  0  0  0  0  0  0  0  0  0  0  0
   25.8682   24.6530  102.4226 N   0  0  0  0  0  0  0  0  0  0  0  0
   24.8513   25.1333  103.1001 C   0  0  0  0  0  0  0  0  0  0  0  0
   25.6205   24.0642  101.0574 C   0  0  0  0  0  0  0  0  0  0  0  0
   25.0571   22.6547  101.1394 C   0  0  2  0  0  0  0  0  0  0  0  0
   25.9349   21.8047  100.7769 O   0  0  0  0  0  0  0  0  0  0  0  0
   23.8671   22.4872  100.3660 C   0  0  2  0  0  0  0  0  0  0  0  0
   24.0131   21.4294   99.5337 O   0  0  0  0  0  0  0  0  0  0  0  0
   23.5451   23.6675   99.6285 C   0  0  2  0  0  0  0  0  0  0  0  0
   22.5179   24.2990  100.0699 O   0  0  0  0  0  0  0  0  0  0  0  0
   23.2331   23.2220   98.2477 C   0  0  0  0  0  0  0  0  0  0  0  0
   22.1947   23.9525   97.5740 O   0  0  0  0  0  0  0  0  0  0  0  0
   21.9477   23.6512   95.9259 P   0  0  1  0  0  0  0  0  0  0  0  0
   22.1436   22.2717   95.5269 O   0  0  0  0  0  0  0  0  0  0  0  0
   20.4740   24.2981   95.6386 O   0  0  0  0  0  0  0  0  0  0  0  0
   23.1466   24.6555   95.4954 O   0  0  0  0  0  0  0  0  0  0  0  0
   27.0071   23.3872   94.3219 H   0  0  0  0  0  0  0  0  0  0  0  0
   27.8166   24.4173   95.5429 H   0  0  0  0  0  0  0  0  0  0  0  0
   26.4774   22.2033   96.6864 H   0  0  0  0  0  0  0  0  0  0  0  0
   29.2057   23.3397   96.5801 H   0  0  0  0  0  0  0  0  0  0  0  0
   28.2969   22.9066   98.9579 H   0  0  0  0  0  0  0  0  0  0  0  0
   29.8821   21.4330   97.7214 H   0  0  0  0  0  0  0  0  0  0  0  0
   28.3229   20.9907   99.1334 H   0  0  0  0  0  0  0  0  0  0  0  0
   28.6158   19.7112   96.1987 H   0  0  0  0  0  0  0  0  0  0  0  0
   29.5754   22.1990   93.9032 H   0  0  0  0  0  0  0  0  0  0  0  0
   35.4406   19.8229   94.5314 H   0  0  0  0  0  0  0  0  0  0  0  0
   34.4078   20.9066   93.5611 H   0  0  0  0  0  0  0  0  0  0  0  0
   32.7447   18.1282   97.8585 H   0  0  0  0  0  0  0  0  0  0  0  0
   21.9892   26.4307  105.1316 H   0  0  0  0  0  0  0  0  0  0  0  0
   28.5161   25.3206  106.0130 H   0  0  0  0  0  0  0  0  0  0  0  0
   30.6111   24.0833  106.2647 H   0  0  0  0  0  0  0  0  0  0  0  0
   31.2706   23.1047  104.9104 H   0  0  0  0  0  0  0  0  0  0  0  0
   31.4728   24.8896  104.9104 H   0  0  0  0  0  0  0  0  0  0  0  0
   31.1214   22.4765  103.2242 H   0  0  0  0  0  0  0  0  0  0  0  0
   30.0544   22.1030  101.8282 H   0  0  0  0  0  0  0  0  0  0  0  0
   31.0412   23.6040  101.8282 H   0  0  0  0  0  0  0  0  0  0  0  0
   28.0112   23.3722  101.4504 H   0  0  0  0  0  0  0  0  0  0  0  0
   24.9037   24.7025  100.5199 H   0  0  0  0  0  0  0  0  0  0  0  0
   26.5837   24.0152  100.5284 H   0  0  0  0  0  0  0  0  0  0  0  0
   24.7861   22.4835  102.1917 H   0  0  0  0  0  0  0  0  0  0  0  0
   26.3529   21.3999  101.5778 H   0  0  0  0  0  0  0  0  0  0  0  0
   23.0312   22.2977  101.0555 H   0  0  0  0  0  0  0  0  0  0  0  0
   24.1271   20.6031  100.0670 H   0  0  0  0  0  0  0  0  0  0  0  0
   24.3984   24.3575   99.7050 H   0  0  0  0  0  0  0  0  0  0  0  0
   22.5272   24.2932  101.0598 H   0  0  0  0  0  0  0  0  0  0  0  0
   24.1515   23.3112   97.6487 H   0  0  0  0  0  0  0  0  0  0  0  0
   22.8595   22.1919   98.3436 H   0  0  0  0  0  0  0  0  0  0  0  0
  1  2  2  0
  1  3  1  6
  1  4  1  0
  1 53  1  0
  4  5  1  0
  6  5  1  0
  6  7  1  0
  6  8  1  0
  7 12  1  0
  8  9  1  0
  8 10  1  0
 10 11  1  0
 10 12  1  0
 12 13  1  0
 13 14  1  0
 13 22  1  0
 14 15  2  0
 15 16  1  0
 16 17  2  0
 16 22  1  0
 17 18  1  0
 17 19  1  0
 19 20  2  0
 20 21  1  0
 21 22  2  0
 23 24  1  0
 23 40  2  0
 24 25  2  0
 24 26  1  0
 26 27  1  0
 27 28  2  0
 27 29  1  0
 29 30  2  0
 29 40  1  0
 30 31  1  0
 31 32  1  0
 31 38  2  0
 32 33  2  0
 33 34  1  0
 33 35  1  0
 35 36  1  0
 35 37  2  0
 37 38  1  0
 38 39  1  0
 39 40  1  0
 39 41  1  0
 41 42  1  0
 42 43  1  0
 42 44  1  0
 44 45  1  0
 44 46  1  0
 46 47  1  0
 46 48  1  0
 48 49  1  0
 49 50  1  0
 50 51  2  0
 50 52  1  6
 50 53  1  0
  5 54  1  0
  5 55  1  0
  6 56  1  1
  8 57  1  6
  9 58  1  0
 10 59  1  1
 11 60  1  0
 12 61  1  1
 14 62  1  0
 18 63  1  0
 18 64  1  0
 20 65  1  0
 26 66  1  0
 32 67  1  0
 34 68  1  0
 34 69  1  0
 34 70  1  0
 36 71  1  0
 36 72  1  0
 36 73  1  0
 37 74  1  0
 41 75  1  0
 41 76  1  0
 42 77  1  1
 43 78  1  0
 44 79  1  1
 45 80  1  0
 46 81  1  6
 47 82  1  0
 48 83  1  0
 48 84  1  0
M  CHG  2   3  -1  52  -1
M  END
>  <filename_input>  (1) 
7F8T_FAD_docked.sdf

>  <pdb_id>  (1) 
7F8T_FAD

>  <pose_rank>  (1) 
0

>  <num_atoms_heavy>  (1) 
53

>  <num_torsions>  (1) 
13

>  <pose>  (1) 
[22.19468863958158, 23.952531662513223, 97.57396087874197, 0.6713241828766849, -0.05747895834044682, 1.364754004369044, -0.26061703258366503, -1.1459940695879762, 0.07873503657320732, -4.6777457264931455, 0.15173400713783974, 3.1586455689502304, -0.34763090672113967, -5.281138366800807, -0.4168260201316247, -0.7449847954253463, 3.0264070013653157, -2.759357198943664, 3.22074810508453]

>  <energy>  (1) 
-939.042857915682

>  <inter_energy>  (1) 
-983.8127949178512

>  <intra_energy>  (1) 
47.583348418580314

>  <rmsd>  (1) 
4.81273

>  <sdf_rank>  (1) 
0

$$$$

     RDKit          3D

 84 89  0  0  0  0  0  0  0  0999 V2000
   27.0916   22.3556   95.5341 P   0  0  1  0  0  0  0  0  0  0  0  0
   27.9069   22.5761   94.3766 O   0  0  0  0  0  0  0  0  0  0  0  0
   26.9796   23.6933   96.4372 O   0  0  0  0  0  0  0  0  0  0  0  0
   25.5783   21.7695   95.1212 O   0  0  0  0  0  0  0  0  0  0  0  0
   24.6343   21.4481   96.1603 C   0  0  0  0  0  0  0  0  0  0  0  0
   23.5142   22.3275   96.0506 C   0  0  1  0  0  0  0  0  0  0  0  0
   23.6948   23.4748   96.8349 O   0  0  0  0  0  0  0  0  0  0  0  0
   23.3429   22.7859   94.7893 C   0  0  1  0  0  0  0  0  0  0  0  0
   22.7555   21.8228   93.9463 O   0  0  0  0  0  0  0  0  0  0  0  0
   22.5553   23.9061   94.9701 C   0  0  1  0  0  0  0  0  0  0  0  0
   21.1954   23.5474   95.1880 O   0  0  0  0  0  0  0  0  0  0  0  0
   23.0695   24.5116   96.0722 C   0  0  2  0  0  0  0  0  0  0  0  0
   23.9789   25.4719   95.7155 N   0  0  0  0  0  0  0  0  0  0  0  0
   24.0481   26.0020   94.5563 C   0  0  0  0  0  0  0  0  0  0  0  0
   25.0357   26.9008   94.5470 N   0  0  0  0  0  0  0  0  0  0  0  0
   25.6016   26.9008   95.8098 C   0  0  0  0  0  0  0  0  0  0  0  0
   26.6315   27.5655   96.4684 C   0  0  0  0  0  0  0  0  0  0  0  0
   27.4264   28.5668   95.7880 N   0  0  0  0  0  0  0  0  0  0  0  0
   26.8921   27.2898   97.7304 N   0  0  0  0  0  0  0  0  0  0  0  0
   26.1897   26.3820   98.3827 C   0  0  0  0  0  0  0  0  0  0  0  0
   25.1900   25.7079   97.8138 N   0  0  0  0  0  0  0  0  0  0  0  0
   24.8645   25.9304   96.5435 C   0  0  0  0  0  0  0  0  0  0  0  0
   23.9767   24.9046  103.0669 N   0  0  0  0  0  0  0  0  0  0  0  0
   22.9902   25.6972  103.5518 C   0  0  0  0  0  0  0  0  0  0  0  0
   21.7257   25.5059  103.1455 O   0  0  0  0  0  0  0  0  0  0  0  0
   23.2853   26.6537  104.4150 N   0  0  0  0  0  0  0  0  0  0  0  0
   24.4986   26.8496  104.8507 C   0  0  0  0  0  0  0  0  0  0  0  0
   24.6942   27.8647  105.7023 O   0  0  0  0  0  0  0  0  0  0  0  0
   25.5248   26.1020  104.3361 C   0  0  0  0  0  0  0  0  0  0  0  0
   26.7420   26.3684  104.7451 N   0  0  0  0  0  0  0  0  0  0  0  0
   27.6937   25.4650  104.4909 C   0  0  0  0  0  0  0  0  0  0  0  0
   28.9135   25.6191  105.1207 C   0  0  0  0  0  0  0  0  0  0  0  0
   29.9323   24.7129  104.8749 C   0  0  0  0  0  0  0  0  0  0  0  0
   31.2997   24.8798  105.5710 C   0  0  0  0  0  0  0  0  0  0  0  0
   29.7019   23.6501  103.9886 C   0  0  0  0  0  0  0  0  0  0  0  0
   30.8173   22.6202  103.6905 C   0  0  0  0  0  0  0  0  0  0  0  0
   28.4808   23.5024  103.3600 C   0  0  0  0  0  0  0  0  0  0  0  0
   27.4244   24.4178  103.5830 C   0  0  0  0  0  0  0  0  0  0  0  0
   26.2504   24.3138  103.0259 N   0  0  0  0  0  0  0  0  0  0  0  0
   25.2738   25.0855  103.4438 C   0  0  0  0  0  0  0  0  0  0  0  0
   25.9298   23.1749  102.0922 C   0  0  0  0  0  0  0  0  0  0  0  0
   27.0062   22.9852  101.0356 C   0  0  2  0  0  0  0  0  0  0  0  0
   27.4840   24.1126  100.6822 O   0  0  0  0  0  0  0  0  0  0  0  0
   26.5380   22.2726   99.8888 C   0  0  2  0  0  0  0  0  0  0  0  0
   25.2979   21.7871  100.1324 O   0  0  0  0  0  0  0  0  0  0  0  0
   27.4286   21.2176   99.5217 C   0  0  2  0  0  0  0  0  0  0  0  0
   27.5649   20.3091  100.4188 O   0  0  0  0  0  0  0  0  0  0  0  0
   28.7576   21.8470   99.3215 C   0  0  0  0  0  0  0  0  0  0  0  0
   29.0285   22.3286   97.9946 O   0  0  0  0  0  0  0  0  0  0  0  0
   29.4787   21.2018   96.8133 P   0  0  1  0  0  0  0  0  0  0  0  0
   30.5019   21.6628   95.8960 O   0  0  0  0  0  0  0  0  0  0  0  0
   29.8194   19.8585   97.6807 O   0  0  0  0  0  0  0  0  0  0  0  0
   27.9819   21.1591   96.1897 O   0  0  0  0  0  0  0  0  0  0  0  0
   24.2994   20.4065   96.0466 H   0  0  0  0  0  0  0  0  0  0  0  0
   25.1079   21.5662   97.1460 H   0  0  0  0  0  0  0  0  0  0  0  0
   22.6489   21.7314   96.3761 H   0  0  0  0  0  0  0  0  0  0  0  0
   24.2889   23.0187   94.2785 H   0  0  0  0  0  0  0  0  0  0  0  0
   22.3270   21.1201   94.4965 H   0  0  0  0  0  0  0  0  0  0  0  0
   22.5625   24.5608   94.0862 H   0  0  0  0  0  0  0  0  0  0  0  0
   21.0182   23.5006   96.1609 H   0  0  0  0  0  0  0  0  0  0  0  0
   22.2873   25.0196   96.6554 H   0  0  0  0  0  0  0  0  0  0  0  0
   23.3988   25.7577   93.7026 H   0  0  0  0  0  0  0  0  0  0  0  0
   28.1853   29.0500   96.2895 H   0  0  0  0  0  0  0  0  0  0  0  0
   27.2329   28.7958   94.8026 H   0  0  0  0  0  0  0  0  0  0  0  0
   26.4383   26.1743   99.4339 H   0  0  0  0  0  0  0  0  0  0  0  0
   22.5303   27.2659  104.7555 H   0  0  0  0  0  0  0  0  0  0  0  0
   29.0752   26.4574  105.8142 H   0  0  0  0  0  0  0  0  0  0  0  0
   31.1602   24.8627  106.6620 H   0  0  0  0  0  0  0  0  0  0  0  0
   31.9655   24.0562  105.2736 H   0  0  0  0  0  0  0  0  0  0  0  0
   31.7479   25.8393  105.2736 H   0  0  0  0  0  0  0  0  0  0  0  0
   31.2284   22.2405  104.6375 H   0  0  0  0  0  0  0  0  0  0  0  0
   30.3989   21.7840  103.1110 H   0  0  0  0  0  0  0  0  0  0  0  0
   31.6175   23.1037  103.1110 H   0  0  0  0  0  0  0  0  0  0  0  0
   28.3263   22.6573  102.6731 H   0  0  0  0  0  0  0  0  0  0  0  0
   25.8408   22.2488  102.6790 H   0  0  0  0  0  0  0  0  0  0  0  0
   24.9867   23.4120  101.5780 H   0  0  0  0  0  0  0  0  0  0  0  0
   27.7966   22.3742  101.4960 H   0  0  0  0  0  0  0  0  0  0  0  0
   27.7088   24.6429  101.4874 H   0  0  0  0  0  0  0  0  0  0  0  0
   26.4971   22.9720   99.0408 H   0  0  0  0  0  0  0  0  0  0  0  0
   25.1520   21.7299  101.1099 H   0  0  0  0  0  0  0  0  0  0  0  0
   27.0173   20.7229   98.6294 H   0  0  0  0  0  0  0  0  0  0  0  0
   27.5032   20.7205  101.3172 H   0  0  0  0  0  0  0  0  0  0  0  0
   28.8346   22.6996  100.0122 H   0  0  0  0  0  0  0  0  0  0  0  0
   29.4952   21.0524   99.5071 H   0  0  0  0  0  0  0  0  0  0  0  0
  1  2  2  0
  1  3  1  1
  1  4  1  0
  1 53  1  0
  4  5  1  0
  6  5  1  0
  6  7  1  0
  6  8  1  0
  7 12  1  0
  8  9  1  0
  8 10  1  0
 10 11  1  0
 10 12  1  0
 12 13  1  0
 13 14  1  0
 13 22  1  0
 14 15  2  0
 15 16  1  0
 16 17  2  0
 16 22  1  0
 17 18  1  0
 17 19  1  0
 19 20  2  0
 20 21  1  0
 21 22  2  0
 23 24  1  0
 23 40  2  0
 24 25  2  0
 24 26  1  0
 26 27  1  0
 27 28  2  0
 27 29  1  0
 29 30  2  0
 29 40  1  0
 30 31  1  0
 31 32  1  0
 31 38  2  0
 32 33  2  0
 33 34  1  0
 33 35  1  0
 35 36  1  0
 35 37  2  0
 37 38  1  0
 38 39  1  0
 39 40  1  0
 39 41  1  0
 41 42  1  0
 42 43  1  0
 42 44  1  0
 44 45  1  0
 44 46  1  0
 46 47  1  0
 46 48  1  0
 48 49  1  0
 49 50  1  0
 50 51  2  0
 50 52  1  1
 50 53  1  0
  5 54  1  0
  5 55  1  0
  6 56  1  1
  8 57  1  6
  9 58  1  0
 10 59  1  6
 11 60  1  0
 12 61  1  1
 14 62  1  0
 18 63  1  0
 18 64  1  0
 20 65  1  0
 26 66  1  0
 32 67  1  0
 34 68  1  0
 34 69  1  0
 34 70  1  0
 36 71  1  0
 36 72  1  0
 36 73  1  0
 37 74  1  0
 41 75  1  0
 41 76  1  0
 42 77  1  1
 43 78  1  0
 44 79  1  6
 45 80  1  0
 46 81  1  6
 47 82  1  0
 48 83  1  0
 48 84  1  0
M  CHG  2   3  -1  52  -1
M  END
>  <filename_input>  (2) 
7F8T_FAD_docked.sdf

>  <pdb_id>  (2) 
7F8T_FAD

>  <pose_rank>  (2) 
1

>  <num_atoms_heavy>  (2) 
53

>  <num_torsions>  (2) 
13

>  <pose>  (2) 
[29.02847793002745, 22.328614696870194, 97.99460139527129, 1.4564205637392096, 2.534170616628775, -4.34050901236842, -34.7730417429245, -8.415703876949262, 30.06911185691505, -6.420881632651526, -27.062075602876945, -13.31175211704818, 1.8845137608879858, -91.32212528609574, -10.774688558235772, -60.59339491396954, 19.510156452247358, 4.794106013179836, -99.73682358369396]

>  <energy>  (2) 
-848.9164424155784

>  <inter_energy>  (2) 
-971.0214618276133

>  <intra_energy>  (2) 
124.77022937995886

>  <rmsd>  (2) 
4.60168

>  <sdf_rank>  (2) 
0

$$$$

     RDKit          3D

 84 89  0  0  0  0  0  0  0  0999 V2000
   22.6854   22.5865   95.4388 P   0  0  1  0  0  0  0  0  0  0  0  0
   21.5050   22.6728   94.6311 O   0  0  0  0  0  0  0  0  0  0  0  0
   24.0103   22.4137   94.5263 O   0  0  0  0  0  0  0  0  0  0  0  0
   22.8234   23.8964   96.4730 O   0  0  0  0  0  0  0  0  0  0  0  0
   22.9026   25.2265   95.9264 C   0  0  0  0  0  0  0  0  0  0  0  0
   24.0493   25.8794   96.4728 C   0  0  1  0  0  0  0  0  0  0  0  0
   24.7081   25.0547   97.3948 O   0  0  0  0  0  0  0  0  0  0  0  0
   24.9762   26.1644   95.5293 C   0  0  1  0  0  0  0  0  0  0  0  0
   24.6222   27.2860   94.7548 O   0  0  0  0  0  0  0  0  0  0  0  0
   26.1261   26.3537   96.2707 C   0  0  1  0  0  0  0  0  0  0  0  0
   26.1347   27.6373   96.8854 O   0  0  0  0  0  0  0  0  0  0  0  0
   26.0906   25.3758   97.2130 C   0  0  2  0  0  0  0  0  0  0  0  0
   26.7964   24.2781   96.7965 N   0  0  0  0  0  0  0  0  0  0  0  0
   26.8811   23.8958   95.5815 C   0  0  0  0  0  0  0  0  0  0  0  0
   27.6452   22.8023   95.5217 N   0  0  0  0  0  0  0  0  0  0  0  0
   28.0454   22.5108   96.8139 C   0  0  0  0  0  0  0  0  0  0  0  0
   28.8212   21.5472   97.4509 C   0  0  0  0  0  0  0  0  0  0  0  0
   29.4605   20.4884   96.6973 N   0  0  0  0  0  0  0  0  0  0  0  0
   28.9860   21.5926   98.7576 N   0  0  0  0  0  0  0  0  0  0  0  0
   28.4175   22.5420   99.4776 C   0  0  0  0  0  0  0  0  0  0  0  0
   27.6620   23.4960   98.9330 N   0  0  0  0  0  0  0  0  0  0  0  0
   27.4494   23.5197   97.6203 C   0  0  0  0  0  0  0  0  0  0  0  0
   23.4799   24.7683  103.2217 N   0  0  0  0  0  0  0  0  0  0  0  0
   22.5806   25.5983  103.8036 C   0  0  0  0  0  0  0  0  0  0  0  0
   21.2740   25.4553  103.5329 O   0  0  0  0  0  0  0  0  0  0  0  0
   23.0007   26.5435  104.6265 N   0  0  0  0  0  0  0  0  0  0  0  0
   24.2596   26.6932  104.9316 C   0  0  0  0  0  0  0  0  0  0  0  0
   24.5817   27.7008  105.7532 O   0  0  0  0  0  0  0  0  0  0  0  0
   25.1969   25.9065  104.3159 C   0  0  0  0  0  0  0  0  0  0  0  0
   26.4596   26.1266  104.5937 N   0  0  0  0  0  0  0  0  0  0  0  0
   27.3444   25.1872  104.2455 C   0  0  0  0  0  0  0  0  0  0  0  0
   28.6285   25.2951  104.7432 C   0  0  0  0  0  0  0  0  0  0  0  0
   29.5808   24.3504  104.3963 C   0  0  0  0  0  0  0  0  0  0  0  0
   31.0191   24.4655  104.9445 C   0  0  0  0  0  0  0  0  0  0  0  0
   29.2185   23.2965  103.5442 C   0  0  0  0  0  0  0  0  0  0  0  0
   30.2565   22.2245  103.1357 C   0  0  0  0  0  0  0  0  0  0  0  0
   27.9334   23.1951  103.0478 C   0  0  0  0  0  0  0  0  0  0  0  0
   26.9418   24.1505  103.3759 C   0  0  0  0  0  0  0  0  0  0  0  0
   25.7127   24.0910  102.9455 N   0  0  0  0  0  0  0  0  0  0  0  0
   24.8154   24.8997  103.4597 C   0  0  0  0  0  0  0  0  0  0  0  0
   25.2529   22.9644  102.0559 C   0  0  0  0  0  0  0  0  0  0  0  0
   25.2272   23.3704  100.5912 C   0  0  2  0  0  0  0  0  0  0  0  0
   25.3595   24.6330  100.4787 O   0  0  0  0  0  0  0  0  0  0  0  0
   24.0417   22.9421   99.9178 C   0  0  2  0  0  0  0  0  0  0  0  0
   23.0525   23.8430  100.1252 O   0  0  0  0  0  0  0  0  0  0  0  0
   23.6338   21.6402  100.3413 C   0  0  2  0  0  0  0  0  0  0  0  0
   24.3516   20.6855   99.8698 O   0  0  0  0  0  0  0  0  0  0  0  0
   22.2531   21.4513   99.8312 C   0  0  0  0  0  0  0  0  0  0  0  0
   21.9805   22.0174   98.5385 O   0  0  0  0  0  0  0  0  0  0  0  0
   21.1171   21.0802   97.4231 P   0  0  1  0  0  0  0  0  0  0  0  0
   20.8872   19.7095   97.8340 O   0  0  0  0  0  0  0  0  0  0  0  0
   19.7928   21.9866   97.1105 O   0  0  0  0  0  0  0  0  0  0  0  0
   22.2600   21.2620   96.2864 O   0  0  0  0  0  0  0  0  0  0  0  0
   22.9945   25.1718   94.8317 H   0  0  0  0  0  0  0  0  0  0  0  0
   21.9934   25.7908   96.1814 H   0  0  0  0  0  0  0  0  0  0  0  0
   23.6618   26.7982   96.9373 H   0  0  0  0  0  0  0  0  0  0  0  0
   25.0903   25.3697   94.7774 H   0  0  0  0  0  0  0  0  0  0  0  0
   24.3848   28.0384   95.3529 H   0  0  0  0  0  0  0  0  0  0  0  0
   27.0304   26.3061   95.6462 H   0  0  0  0  0  0  0  0  0  0  0  0
   26.1340   27.5318   97.8698 H   0  0  0  0  0  0  0  0  0  0  0  0
   26.5507   25.7070   98.1557 H   0  0  0  0  0  0  0  0  0  0  0  0
   26.4019   24.3879   94.7223 H   0  0  0  0  0  0  0  0  0  0  0  0
   30.0316   19.7826   97.1837 H   0  0  0  0  0  0  0  0  0  0  0  0
   29.3439   20.4411   95.6750 H   0  0  0  0  0  0  0  0  0  0  0  0
   28.5728   22.5461  100.5666 H   0  0  0  0  0  0  0  0  0  0  0  0
   22.3093   27.1844  105.0413 H   0  0  0  0  0  0  0  0  0  0  0  0
   28.8938   26.1272  105.4119 H   0  0  0  0  0  0  0  0  0  0  0  0
   30.9936   24.4634  106.0442 H   0  0  0  0  0  0  0  0  0  0  0  0
   31.6159   23.6122  104.5900 H   0  0  0  0  0  0  0  0  0  0  0  0
   31.4727   25.4028  104.5900 H   0  0  0  0  0  0  0  0  0  0  0  0
   30.6930   21.7737  104.0392 H   0  0  0  0  0  0  0  0  0  0  0  0
   29.7621   21.4440  102.5388 H   0  0  0  0  0  0  0  0  0  0  0  0
   31.0525   22.6936  102.5388 H   0  0  0  0  0  0  0  0  0  0  0  0
   27.6758   22.3560  102.3848 H   0  0  0  0  0  0  0  0  0  0  0  0
   25.9395   22.1135  102.1767 H   0  0  0  0  0  0  0  0  0  0  0  0
   24.2286   22.6940  102.3518 H   0  0  0  0  0  0  0  0  0  0  0  0
   26.0752   22.8632  100.1078 H   0  0  0  0  0  0  0  0  0  0  0  0
   25.4023   25.0418  101.3793 H   0  0  0  0  0  0  0  0  0  0  0  0
   24.2597   22.8793   98.8414 H   0  0  0  0  0  0  0  0  0  0  0  0
   22.9171   23.9663  101.0981 H   0  0  0  0  0  0  0  0  0  0  0  0
   23.7273   21.5960  101.4364 H   0  0  0  0  0  0  0  0  0  0  0  0
   24.7420   20.1662  100.6168 H   0  0  0  0  0  0  0  0  0  0  0  0
   22.0596   20.3700   99.7736 H   0  0  0  0  0  0  0  0  0  0  0  0
   21.5988   21.9862  100.5354 H   0  0  0  0  0  0  0  0  0  0  0  0
  1  2  2  0
  1  3  1  6
  1  4  1  0
  1 53  1  0
  4  5  1  0
  6  5  1  0
  6  7  1  0
  6  8  1  0
  7 12  1  0
  8  9  1  0
  8 10  1  0
 10 11  1  0
 10 12  1  0
 12 13  1  0
 13 14  1  0
 13 22  1  0
 14 15  2  0
 15 16  1  0
 16 17  2  0
 16 22  1  0
 17 18  1  0
 17 19  1  0
 19 20  2  0
 20 21  1  0
 21 22  2  0
 23 24  1  0
 23 40  2  0
 24 25  2  0
 24 26  1  0
 26 27  1  0
 27 28  2  0
 27 29  1  0
 29 30  2  0
 29 40  1  0
 30 31  1  0
 31 32  1  0
 31 38  2  0
 32 33  2  0
 33 34  1  0
 33 35  1  0
 35 36  1  0
 35 37  2  0
 37 38  1  0
 38 39  1  0
 39 40  1  0
 39 41  1  0
 41 42  1  0
 42 43  1  0
 42 44  1  0
 44 45  1  0
 44 46  1  0
 46 47  1  0
 46 48  1  0
 48 49  1  0
 49 50  1  0
 50 51  2  0
 50 52  1  6
 50 53  1  0
  5 54  1  0
  5 55  1  0
  6 56  1  1
  8 57  1  6
  9 58  1  0
 10 59  1  6
 11 60  1  0
 12 61  1  1
 14 62  1  0
 18 63  1  0
 18 64  1  0
 20 65  1  0
 26 66  1  0
 32 67  1  0
 34 68  1  0
 34 69  1  0
 34 70  1  0
 36 71  1  0
 36 72  1  0
 36 73  1  0
 37 74  1  0
 41 75  1  0
 41 76  1  0
 42 77  1  6
 43 78  1  0
 44 79  1  6
 45 80  1  0
 46 81  1  1
 47 82  1  0
 48 83  1  0
 48 84  1  0
M  CHG  2   3  -1  52  -1
M  END
>  <filename_input>  (3) 
7F8T_FAD_docked.sdf

>  <pdb_id>  (3) 
7F8T_FAD

>  <pose_rank>  (3) 
2

>  <num_atoms_heavy>  (3) 
53

>  <num_torsions>  (3) 
13

>  <pose>  (3) 
[21.98045188208011, 22.017442786015597, 98.53851978277608, 1.234540609885156, -1.5696491919361808, -5.519586961028307, -7.306873797093949, -4.403975392602468, 2.5470610237944458, -23.14004111245241, -6.169460687533011, 19.662489040720924, 7.247423258978236, 0.3808974604025575, 10.268783079739631, 6.125437681496635, 2.2815942808605065, 11.488613001821188, -0.08934762333210429]

>  <energy>  (3) 
-876.0664139509421

>  <inter_energy>  (3) 
-981.6901943780705

>  <intra_energy>  (3) 
102.85804742539423

>  <rmsd>  (3) 
3.87947

>  <sdf_rank>  (3) 
0

$$$$

     RDKit          3D

 84 89  0  0  0  0  0  0  0  0999 V2000
   24.1778   24.4045   94.3992 P   0  0  1  0  0  0  0  0  0  0  0  0
   24.4417   25.7662   94.0395 O   0  0  0  0  0  0  0  0  0  0  0  0
   23.4943   23.5956   93.1761 O   0  0  0  0  0  0  0  0  0  0  0  0
   25.5589   23.6312   94.9459 O   0  0  0  0  0  0  0  0  0  0  0  0
   26.7712   23.7134   94.1726 C   0  0  0  0  0  0  0  0  0  0  0  0
   27.6078   22.6068   94.5122 C   0  0  1  0  0  0  0  0  0  0  0  0
   28.4088   22.2279   93.4263 O   0  0  0  0  0  0  0  0  0  0  0  0
   28.4774   22.9059   95.5045 C   0  0  1  0  0  0  0  0  0  0  0  0
   27.8603   22.9152   96.7704 O   0  0  0  0  0  0  0  0  0  0  0  0
   29.4442   21.9279   95.3756 C   0  0  1  0  0  0  0  0  0  0  0  0
   29.0017   20.6931   95.9278 O   0  0  0  0  0  0  0  0  0  0  0  0
   29.6337   21.8086   94.0357 C   0  0  2  0  0  0  0  0  0  0  0  0
   30.6780   22.5936   93.6239 N   0  0  0  0  0  0  0  0  0  0  0  0
   30.5446   23.7371   93.0725 C   0  0  0  0  0  0  0  0  0  0  0  0
   31.7543   24.2339   92.8025 N   0  0  0  0  0  0  0  0  0  0  0  0
   32.6844   23.3023   93.2291 C   0  0  0  0  0  0  0  0  0  0  0  0
   34.0702   23.1785   93.2534 C   0  0  0  0  0  0  0  0  0  0  0  0
   34.9207   24.2271   92.7295 N   0  0  0  0  0  0  0  0  0  0  0  0
   34.6260   22.0972   93.7619 N   0  0  0  0  0  0  0  0  0  0  0  0
   33.8827   21.1199   94.2473 C   0  0  0  0  0  0  0  0  0  0  0  0
   32.5505   21.1724   94.2558 N   0  0  0  0  0  0  0  0  0  0  0  0
   31.9149   22.2311   93.7618 C   0  0  0  0  0  0  0  0  0  0  0  0
   26.6454   21.5795  100.0344 N   0  0  0  0  0  0  0  0  0  0  0  0
   27.0656   21.0587   98.8560 C   0  0  0  0  0  0  0  0  0  0  0  0
   26.1622   20.6562   97.9490 O   0  0  0  0  0  0  0  0  0  0  0  0
   28.3605   20.9474   98.6155 N   0  0  0  0  0  0  0  0  0  0  0  0
   29.2644   21.3527   99.4633 C   0  0  0  0  0  0  0  0  0  0  0  0
   30.5494   21.1672   99.1340 O   0  0  0  0  0  0  0  0  0  0  0  0
   28.8711   21.8306  100.6855 C   0  0  0  0  0  0  0  0  0  0  0  0
   29.8059   22.1675  101.5414 N   0  0  0  0  0  0  0  0  0  0  0  0
   29.4453   22.9065  102.5951 C   0  0  0  0  0  0  0  0  0  0  0  0
   30.4478   23.4652  103.3639 C   0  0  0  0  0  0  0  0  0  0  0  0
   30.1183   24.2271  104.4732 C   0  0  0  0  0  0  0  0  0  0  0  0
   31.2321   24.8517  105.3403 C   0  0  0  0  0  0  0  0  0  0  0  0
   28.7659   24.4187  104.7929 C   0  0  0  0  0  0  0  0  0  0  0  0
   28.3620   25.2631  106.0248 C   0  0  0  0  0  0  0  0  0  0  0  0
   27.7678   23.8557  104.0217 C   0  0  0  0  0  0  0  0  0  0  0  0
   28.0734   23.0640  102.8887 C   0  0  0  0  0  0  0  0  0  0  0  0
   27.1687   22.5235  102.1214 N   0  0  0  0  0  0  0  0  0  0  0  0
   27.5367   21.9791  100.9848 C   0  0  0  0  0  0  0  0  0  0  0  0
   25.6992   22.7217  102.3916 C   0  0  0  0  0  0  0  0  0  0  0  0
   25.0501   23.6360  101.3651 C   0  0  2  0  0  0  0  0  0  0  0  0
   25.0307   24.8372  101.7907 O   0  0  0  0  0  0  0  0  0  0  0  0
   23.7288   23.2225  101.0110 C   0  0  2  0  0  0  0  0  0  0  0  0
   23.7962   22.1912  100.1362 O   0  0  0  0  0  0  0  0  0  0  0  0
   22.9668   24.2991  100.4623 C   0  0  2  0  0  0  0  0  0  0  0  0
   22.0138   24.7077  101.2197 O   0  0  0  0  0  0  0  0  0  0  0  0
   22.3517   23.7794   99.2158 C   0  0  0  0  0  0  0  0  0  0  0  0
   22.9408   24.2395   97.9881 O   0  0  0  0  0  0  0  0  0  0  0  0
   22.2752   23.6931   96.5299 P   0  0  1  0  0  0  0  0  0  0  0  0
   22.5004   22.2889   96.2505 O   0  0  0  0  0  0  0  0  0  0  0  0
   20.7186   24.1859   96.6152 O   0  0  0  0  0  0  0  0  0  0  0  0
   23.1877   24.7105   95.6562 O   0  0  0  0  0  0  0  0  0  0  0  0
   26.5290   23.6788   93.1002 H   0  0  0  0  0  0  0  0  0  0  0  0
   27.2917   24.6574   94.3916 H   0  0  0  0  0  0  0  0  0  0  0  0
   26.9162   21.8083   94.8192 H   0  0  0  0  0  0  0  0  0  0  0  0
   28.8961   23.9200   95.4252 H   0  0  0  0  0  0  0  0  0  0  0  0
   28.5546   22.9048   97.4760 H   0  0  0  0  0  0  0  0  0  0  0  0
   30.3684   22.1904   95.9113 H   0  0  0  0  0  0  0  0  0  0  0  0
   29.0212   20.7477   96.9161 H   0  0  0  0  0  0  0  0  0  0  0  0
   29.8861   20.7755   93.7544 H   0  0  0  0  0  0  0  0  0  0  0  0
   29.5873   24.2333   92.8548 H   0  0  0  0  0  0  0  0  0  0  0  0
   35.9449   24.1203   92.7548 H   0  0  0  0  0  0  0  0  0  0  0  0
   34.5015   25.0797   92.3317 H   0  0  0  0  0  0  0  0  0  0  0  0
   34.3807   20.2300   94.6596 H   0  0  0  0  0  0  0  0  0  0  0  0
   28.6663   20.5255   97.7270 H   0  0  0  0  0  0  0  0  0  0  0  0
   31.5029   23.3060  103.0967 H   0  0  0  0  0  0  0  0  0  0  0  0
   30.9885   24.7151  106.4043 H   0  0  0  0  0  0  0  0  0  0  0  0
   32.1901   24.3592  105.1173 H   0  0  0  0  0  0  0  0  0  0  0  0
   31.3114   25.9260  105.1173 H   0  0  0  0  0  0  0  0  0  0  0  0
   28.6226   24.7183  106.9442 H   0  0  0  0  0  0  0  0  0  0  0  0
   28.8984   26.2232  106.0031 H   0  0  0  0  0  0  0  0  0  0  0  0
   27.2779   25.4482  106.0031 H   0  0  0  0  0  0  0  0  0  0  0  0
   26.7155   24.0258  104.2931 H   0  0  0  0  0  0  0  0  0  0  0  0
   25.1976   21.7431  102.3632 H   0  0  0  0  0  0  0  0  0  0  0  0
   25.5957   23.1929  103.3802 H   0  0  0  0  0  0  0  0  0  0  0  0
   25.6637   23.5742  100.4542 H   0  0  0  0  0  0  0  0  0  0  0  0
   25.0307   24.8365  102.7807 H   0  0  0  0  0  0  0  0  0  0  0  0
   23.2134   22.8936  101.9254 H   0  0  0  0  0  0  0  0  0  0  0  0
   23.8519   21.3382  100.6355 H   0  0  0  0  0  0  0  0  0  0  0  0
   23.6444   25.1533  100.3167 H   0  0  0  0  0  0  0  0  0  0  0  0
   22.2749   24.5958  102.1681 H   0  0  0  0  0  0  0  0  0  0  0  0
   22.4258   22.6820   99.2351 H   0  0  0  0  0  0  0  0  0  0  0  0
   21.3190   24.1583   99.2119 H   0  0  0  0  0  0  0  0  0  0  0  0
  1  2  2  0
  1  3  1  6
  1  4  1  0
  1 53  1  0
  4  5  1  0
  6  5  1  0
  6  7  1  0
  6  8  1  0
  7 12  1  0
  8  9  1  0
  8 10  1  0
 10 11  1  0
 10 12  1  0
 12 13  1  0
 13 14  1  0
 13 22  1  0
 14 15  2  0
 15 16  1  0
 16 17  2  0
 16 22  1  0
 17 18  1  0
 17 19  1  0
 19 20  2  0
 20 21  1  0
 21 22  2  0
 23 24  1  0
 23 40  2  0
 24 25  2  0
 24 26  1  0
 26 27  1  0
 27 28  2  0
 27 29  1  0
 29 30  2  0
 29 40  1  0
 30 31  1  0
 31 32  1  0
 31 38  2  0
 32 33  2  0
 33 34  1  0
 33 35  1  0
 35 36  1  0
 35 37  2  0
 37 38  1  0
 38 39  1  0
 39 40  1  0
 39 41  1  0
 41 42  1  0
 42 43  1  0
 42 44  1  0
 44 45  1  0
 44 46  1  0
 46 47  1  0
 46 48  1  0
 48 49  1  0
 49 50  1  0
 50 51  2  0
 50 52  1  1
 50 53  1  0
  5 54  1  0
  5 55  1  0
  6 56  1  1
  8 57  1  6
  9 58  1  0
 10 59  1  1
 11 60  1  0
 12 61  1  1
 14 62  1  0
 18 63  1  0
 18 64  1  0
 20 65  1  0
 26 66  1  0
 32 67  1  0
 34 68  1  0
 34 69  1  0
 34 70  1  0
 36 71  1  0
 36 72  1  0
 36 73  1  0
 37 74  1  0
 41 75  1  0
 41 76  1  0
 42 77  1  6
 43 78  1  0
 44 79  1  1
 45 80  1  0
 46 81  1  6
 47 82  1  0
 48 83  1  0
 48 84  1  0
M  CHG  2   3  -1  52  -1
M  END
>  <filename_input>  (4) 
7F8T_FAD_docked.sdf

>  <pdb_id>  (4) 
7F8T_FAD

>  <pose_rank>  (4) 
3

>  <num_atoms_heavy>  (4) 
53

>  <num_torsions>  (4) 
13

>  <pose>  (4) 
[22.94077288241818, 24.239517026931775, 97.988112056932, 2.447325087769728, 4.792967428483027, 2.445702556826766, -2.1035792612759083, -0.9735894782337399, 0.4756149819067179, 2.174481079592267, -0.40619650170821514, -2.8141201707413543, -0.1969994666455304, 1.1674316924398527, 1.5068467905993241, -0.7768835426755967, -0.5589040213889422, -2.5165711398775907, 3.5366788614467657]

>  <energy>  (4) 
-838.4111116489187

>  <inter_energy>  (4) 
-945.3276925436589

>  <intra_energy>  (4) 
106.78759054724077

>  <rmsd>  (4) 
6.53045

>  <sdf_rank>  (4) 
0

$$$$

     RDKit          3D

 84 89  0  0  0  0  0  0  0  0999 V2000
   25.9901   22.5150   96.4831 P   0  0  1  0  0  0  0  0  0  0  0  0
   25.9525   22.2754   95.0709 O   0  0  0  0  0  0  0  0  0  0  0  0
   26.0283   24.0992   96.8094 O   0  0  0  0  0  0  0  0  0  0  0  0
   24.7204   21.7600   97.2719 O   0  0  0  0  0  0  0  0  0  0  0  0
   24.4392   22.0934   98.6444 C   0  0  0  0  0  0  0  0  0  0  0  0
   23.0516   22.4098   98.7646 C   0  0  1  0  0  0  0  0  0  0  0  0
   22.7349   23.5713   98.0471 O   0  0  0  0  0  0  0  0  0  0  0  0
   22.2582   21.4459   98.2433 C   0  0  1  0  0  0  0  0  0  0  0  0
   22.1467   20.3286   99.0934 O   0  0  0  0  0  0  0  0  0  0  0  0
   21.0596   22.1033   98.0459 C   0  0  1  0  0  0  0  0  0  0  0  0
   20.3446   22.2448   99.2683 O   0  0  0  0  0  0  0  0  0  0  0  0
   21.4134   23.3210   97.5586 C   0  0  2  0  0  0  0  0  0  0  0  0
   21.3913   23.3180   96.1890 N   0  0  0  0  0  0  0  0  0  0  0  0
   22.4183   23.4985   95.4525 C   0  0  0  0  0  0  0  0  0  0  0  0
   22.0519   23.4290   94.1703 N   0  0  0  0  0  0  0  0  0  0  0  0
   20.6893   23.1889   94.1459 C   0  0  0  0  0  0  0  0  0  0  0  0
   19.6996   23.0118   93.1838 C   0  0  0  0  0  0  0  0  0  0  0  0
   20.0170   23.0589   91.7716 N   0  0  0  0  0  0  0  0  0  0  0  0
   18.4537   22.7934   93.5533 N   0  0  0  0  0  0  0  0  0  0  0  0
   18.1265   22.7453   94.8314 C   0  0  0  0  0  0  0  0  0  0  0  0
   19.0231   22.9064   95.8049 N   0  0  0  0  0  0  0  0  0  0  0  0
   20.3015   23.1292   95.5131 C   0  0  0  0  0  0  0  0  0  0  0  0
   24.1619   24.1621  102.5990 N   0  0  0  0  0  0  0  0  0  0  0  0
   23.0627   24.8714  102.9527 C   0  0  0  0  0  0  0  0  0  0  0  0
   21.8723   24.5611  102.4167 O   0  0  0  0  0  0  0  0  0  0  0  0
   23.1764   25.8650  103.8170 N   0  0  0  0  0  0  0  0  0  0  0  0
   24.3125   26.1759  104.3763 C   0  0  0  0  0  0  0  0  0  0  0  0
   24.3237   27.2187  105.2168 O   0  0  0  0  0  0  0  0  0  0  0  0
   25.4503   25.5144  103.9962 C   0  0  0  0  0  0  0  0  0  0  0  0
   26.5871   25.8955  104.5276 N   0  0  0  0  0  0  0  0  0  0  0  0
   27.6360   25.0766  104.4024 C   0  0  0  0  0  0  0  0  0  0  0  0
   28.7607   25.3498  105.1565 C   0  0  0  0  0  0  0  0  0  0  0  0
   29.8754   24.5343  105.0470 C   0  0  0  0  0  0  0  0  0  0  0  0
   31.1378   24.8345  105.8827 C   0  0  0  0  0  0  0  0  0  0  0  0
   29.8376   23.4402  104.1696 C   0  0  0  0  0  0  0  0  0  0  0  0
   31.0644   22.5092  104.0218 C   0  0  0  0  0  0  0  0  0  0  0  0
   28.7109   23.1733  103.4164 C   0  0  0  0  0  0  0  0  0  0  0  0
   27.5607   23.9943  103.4989 C   0  0  0  0  0  0  0  0  0  0  0  0
   26.4690   23.7764  102.8207 N   0  0  0  0  0  0  0  0  0  0  0  0
   25.3888   24.4646  103.1095 C   0  0  0  0  0  0  0  0  0  0  0  0
   26.3537   22.5977  101.8884 C   0  0  0  0  0  0  0  0  0  0  0  0
   27.4129   22.6288  100.7984 C   0  0  2  0  0  0  0  0  0  0  0  0
   27.1452   23.5375   99.9458 O   0  0  0  0  0  0  0  0  0  0  0  0
   27.5666   21.3705  100.1385 C   0  0  2  0  0  0  0  0  0  0  0  0
   27.0012   20.3944  100.8872 O   0  0  0  0  0  0  0  0  0  0  0  0
   28.9396   21.0740   99.8781 C   0  0  2  0  0  0  0  0  0  0  0  0
   29.7254   22.0833   99.9898 O   0  0  0  0  0  0  0  0  0  0  0  0
   29.0049   20.6139   98.4687 C   0  0  0  0  0  0  0  0  0  0  0  0
   29.6382   21.5149   97.5450 O   0  0  0  0  0  0  0  0  0  0  0  0
   28.8353   21.8663   96.0960 P   0  0  1  0  0  0  0  0  0  0  0  0
   29.1145   23.1808   95.5529 O   0  0  0  0  0  0  0  0  0  0  0  0
   29.1925   20.5860   95.1441 O   0  0  0  0  0  0  0  0  0  0  0  0
   27.3774   21.7186   96.7914 O   0  0  0  0  0  0  0  0  0  0  0  0
   24.6805   21.2363   99.2903 H   0  0  0  0  0  0  0  0  0  0  0  0
   25.0480   22.9562   98.9525 H   0  0  0  0  0  0  0  0  0  0  0  0
   22.8766   22.5255   99.8444 H   0  0  0  0  0  0  0  0  0  0  0  0
   22.6543   21.0117   97.3136 H   0  0  0  0  0  0  0  0  0  0  0  0
   22.1765   20.6274  100.0367 H   0  0  0  0  0  0  0  0  0  0  0  0
   20.3957   21.5519   97.3637 H   0  0  0  0  0  0  0  0  0  0  0  0
   20.9652   22.1219  100.0298 H   0  0  0  0  0  0  0  0  0  0  0  0
   20.7129   24.1045   97.8832 H   0  0  0  0  0  0  0  0  0  0  0  0
   23.4403   23.6817   95.8156 H   0  0  0  0  0  0  0  0  0  0  0  0
   19.2730   22.9258   91.0718 H   0  0  0  0  0  0  0  0  0  0  0  0
   20.9868   23.2255   91.4669 H   0  0  0  0  0  0  0  0  0  0  0  0
   17.0758   22.5658   95.1031 H   0  0  0  0  0  0  0  0  0  0  0  0
   22.3379   26.4130  104.0571 H   0  0  0  0  0  0  0  0  0  0  0  0
   28.7713   26.2109  105.8409 H   0  0  0  0  0  0  0  0  0  0  0  0
   30.8914   24.7759  106.9532 H   0  0  0  0  0  0  0  0  0  0  0  0
   31.9187   24.0970  105.6453 H   0  0  0  0  0  0  0  0  0  0  0  0
   31.5031   25.8446  105.6453 H   0  0  0  0  0  0  0  0  0  0  0  0
   31.4341   22.2287  105.0192 H   0  0  0  0  0  0  0  0  0  0  0  0
   30.7728   21.6031  103.4706 H   0  0  0  0  0  0  0  0  0  0  0  0
   31.8586   23.0340  103.4706 H   0  0  0  0  0  0  0  0  0  0  0  0
   28.7074   22.3062  102.7395 H   0  0  0  0  0  0  0  0  0  0  0  0
   26.4701   21.6716  102.4705 H   0  0  0  0  0  0  0  0  0  0  0  0
   25.3667   22.6420  101.4047 H   0  0  0  0  0  0  0  0  0  0  0  0
   28.3692   22.8536  101.2934 H   0  0  0  0  0  0  0  0  0  0  0  0
   26.8993   24.3717  100.4189 H   0  0  0  0  0  0  0  0  0  0  0  0
   27.0570   21.4268   99.1652 H   0  0  0  0  0  0  0  0  0  0  0  0
   27.1221   20.6032  101.8474 H   0  0  0  0  0  0  0  0  0  0  0  0
   29.2712   20.3306  100.6181 H   0  0  0  0  0  0  0  0  0  0  0  0
   29.8775   22.2787  100.9483 H   0  0  0  0  0  0  0  0  0  0  0  0
   29.5605   19.6648   98.4490 H   0  0  0  0  0  0  0  0  0  0  0  0
   27.9606   20.5283   98.1339 H   0  0  0  0  0  0  0  0  0  0  0  0
  1  2  2  0
  1  3  1  6
  1  4  1  0
  1 53  1  0
  4  5  1  0
  6  5  1  0
  6  7  1  0
  6  8  1  0
  7 12  1  0
  8  9  1  0
  8 10  1  0
 10 11  1  0
 10 12  1  0
 12 13  1  0
 13 14  1  0
 13 22  1  0
 14 15  2  0
 15 16  1  0
 16 17  2  0
 16 22  1  0
 17 18  1  0
 17 19  1  0
 19 20  2  0
 20 21  1  0
 21 22  2  0
 23 24  1  0
 23 40  2  0
 24 25  2  0
 24 26  1  0
 26 27  1  0
 27 28  2  0
 27 29  1  0
 29 30  2  0
 29 40  1  0
 30 31  1  0
 31 32  1  0
 31 38  2  0
 32 33  2  0
 33 34  1  0
 33 35  1  0
 35 36  1  0
 35 37  2  0
 37 38  1  0
 38 39  1  0
 39 40  1  0
 39 41  1  0
 41 42  1  0
 42 43  1  0
 42 44  1  0
 44 45  1  0
 44 46  1  0
 46 47  1  0
 46 48  1  0
 48 49  1  0
 49 50  1  0
 50 51  2  0
 50 52  1  6
 50 53  1  0
  5 54  1  0
  5 55  1  0
  6 56  1  1
  8 57  1  6
  9 58  1  0
 10 59  1  6
 11 60  1  0
 12 61  1  1
 14 62  1  0
 18 63  1  0
 18 64  1  0
 20 65  1  0
 26 66  1  0
 32 67  1  0
 34 68  1  0
 34 69  1  0
 34 70  1  0
 36 71  1  0
 36 72  1  0
 36 73  1  0
 37 74  1  0
 41 75  1  0
 41 76  1  0
 42 77  1  1
 43 78  1  0
 44 79  1  6
 45 80  1  0
 46 81  1  1
 47 82  1  0
 48 83  1  0
 48 84  1  0
M  CHG  2   3  -1  52  -1
M  END
>  <filename_input>  (5) 
7F8T_FAD_docked.sdf

>  <pdb_id>  (5) 
7F8T_FAD

>  <pose_rank>  (5) 
4

>  <num_atoms_heavy>  (5) 
53

>  <num_torsions>  (5) 
13

>  <pose>  (5) 
[29.63820101542496, 21.51486880698762, 97.54503497649047, -3.3636537139610105, 1.7227818039679978, 4.3286637755904485, -10.827757717062301, -0.6280285017748399, -1.5986845334136992, 0.10596805022912131, 4.589857578301361, -0.292557841792439, -0.48458954754215666, 2.0111827235438238, -1.0262207999513842, 0.8857767544065333, 0.5203810412486429, -2.136628638758808, -5.67127726404448]

>  <energy>  (5) 
-873.5496667214886

>  <inter_energy>  (5) 
-924.6979006692198

>  <intra_energy>  (5) 
49.51055499082967

>  <rmsd>  (5) 
4.67405

>  <sdf_rank>  (5) 
0

$$$$

     RDKit          3D

 84 89  0  0  0  0  0  0  0  0999 V2000
   26.9192   24.5745   98.8306 P   0  0  1  0  0  0  0  0  0  0  0  0
   26.8425   25.0528  100.1791 O   0  0  0  0  0  0  0  0  0  0  0  0
   27.1753   25.7873   97.7908 O   0  0  0  0  0  0  0  0  0  0  0  0
   28.0756   23.3747   98.6655 O   0  0  0  0  0  0  0  0  0  0  0  0
   28.9790   23.4096   97.5444 C   0  0  0  0  0  0  0  0  0  0  0  0
   28.6337   22.3560   96.6440 C   0  0  1  0  0  0  0  0  0  0  0  0
   27.3125   21.9336   96.8447 O   0  0  0  0  0  0  0  0  0  0  0  0
   28.6858   22.7485   95.3503 C   0  0  1  0  0  0  0  0  0  0  0  0
   30.0066   22.8203   94.8670 O   0  0  0  0  0  0  0  0  0  0  0  0
   27.9197   21.7968   94.7059 C   0  0  1  0  0  0  0  0  0  0  0  0
   28.6477   20.5868   94.5277 O   0  0  0  0  0  0  0  0  0  0  0  0
   26.8587   21.5961   95.5302 C   0  0  2  0  0  0  0  0  0  0  0  0
   25.8031   22.3866   95.1598 N   0  0  0  0  0  0  0  0  0  0  0  0
   25.9154   23.4747   94.5017 C   0  0  0  0  0  0  0  0  0  0  0  0
   24.6998   23.9905   94.3030 N   0  0  0  0  0  0  0  0  0  0  0  0
   23.7893   23.1344   94.8972 C   0  0  0  0  0  0  0  0  0  0  0  0
   22.4095   23.0653   95.0641 C   0  0  0  0  0  0  0  0  0  0  0  0
   21.5419   24.0918   94.5247 N   0  0  0  0  0  0  0  0  0  0  0  0
   21.8751   22.0532   95.7173 N   0  0  0  0  0  0  0  0  0  0  0  0
   22.6345   21.0996   96.2243 C   0  0  0  0  0  0  0  0  0  0  0  0
   23.9621   21.1028   96.1019 N   0  0  0  0  0  0  0  0  0  0  0  0
   24.5765   22.0892   95.4551 C   0  0  0  0  0  0  0  0  0  0  0  0
   27.3638   24.7590  104.5620 N   0  0  0  0  0  0  0  0  0  0  0  0
   28.5387   25.1478  105.1141 C   0  0  0  0  0  0  0  0  0  0  0  0
   28.5347   26.0030  106.1483 O   0  0  0  0  0  0  0  0  0  0  0  0
   29.6758   24.6853  104.6241 N   0  0  0  0  0  0  0  0  0  0  0  0
   29.7146   23.8333  103.6378 C   0  0  0  0  0  0  0  0  0  0  0  0
   30.9202   23.4497  103.1982 O   0  0  0  0  0  0  0  0  0  0  0  0
   28.5469   23.4659  103.0228 C   0  0  0  0  0  0  0  0  0  0  0  0
   28.6249   22.6598  101.9912 N   0  0  0  0  0  0  0  0  0  0  0  0
   27.5006   22.0629  101.5836 C   0  0  0  0  0  0  0  0  0  0  0  0
   27.6117   21.0382  100.6639 C   0  0  0  0  0  0  0  0  0  0  0  0
   26.4703   20.4015  100.2044 C   0  0  0  0  0  0  0  0  0  0  0  0
   26.5848   19.2584   99.1736 C   0  0  0  0  0  0  0  0  0  0  0  0
   25.2185   20.8111  100.6874 C   0  0  0  0  0  0  0  0  0  0  0  0
   23.9232   20.1227  100.1954 C   0  0  0  0  0  0  0  0  0  0  0  0
   25.1134   21.8379  101.6054 C   0  0  0  0  0  0  0  0  0  0  0  0
   26.2606   22.5142  102.0854 C   0  0  0  0  0  0  0  0  0  0  0  0
   26.2153   23.4783  102.9616 N   0  0  0  0  0  0  0  0  0  0  0  0
   27.3340   23.9076  103.4982 C   0  0  0  0  0  0  0  0  0  0  0  0
   24.9042   23.9399  103.5444 C   0  0  0  0  0  0  0  0  0  0  0  0
   24.4190   25.2298  102.9028 C   0  0  2  0  0  0  0  0  0  0  0  0
   25.0905   26.2216  103.3386 O   0  0  0  0  0  0  0  0  0  0  0  0
   23.0230   25.4591  103.1052 C   0  0  2  0  0  0  0  0  0  0  0  0
   22.5541   24.6001  104.0409 O   0  0  0  0  0  0  0  0  0  0  0  0
   22.2842   25.3314  101.8892 C   0  0  2  0  0  0  0  0  0  0  0  0
   21.0099   25.3268  102.0467 O   0  0  0  0  0  0  0  0  0  0  0  0
   22.6647   24.0200  101.3080 C   0  0  0  0  0  0  0  0  0  0  0  0
   23.9237   23.9839  100.6154 O   0  0  0  0  0  0  0  0  0  0  0  0
   23.9825   24.5899   99.0352 P   0  0  1  0  0  0  0  0  0  0  0  0
   22.9223   24.1187   98.1665 O   0  0  0  0  0  0  0  0  0  0  0  0
   24.0916   26.2066   99.2526 O   0  0  0  0  0  0  0  0  0  0  0  0
   25.4315   23.9145   98.7601 O   0  0  0  0  0  0  0  0  0  0  0  0
   28.8936   24.3784   97.0304 H   0  0  0  0  0  0  0  0  0  0  0  0
   30.0140   23.2797   97.8934 H   0  0  0  0  0  0  0  0  0  0  0  0
   29.3624   21.5570   96.8450 H   0  0  0  0  0  0  0  0  0  0  0  0
   28.3069   23.7685   95.1892 H   0  0  0  0  0  0  0  0  0  0  0  0
   30.6360   22.8545   95.6304 H   0  0  0  0  0  0  0  0  0  0  0  0
   27.6174   22.1244   93.7002 H   0  0  0  0  0  0  0  0  0  0  0  0
   28.8767   20.2062   95.4124 H   0  0  0  0  0  0  0  0  0  0  0  0
   26.5041   20.5558   95.4853 H   0  0  0  0  0  0  0  0  0  0  0  0
   26.8611   23.9163   94.1543 H   0  0  0  0  0  0  0  0  0  0  0  0
   20.5225   24.0262   94.6568 H   0  0  0  0  0  0  0  0  0  0  0  0
   21.9442   24.8875   94.0090 H   0  0  0  0  0  0  0  0  0  0  0  0
   22.1543   20.2724   96.7676 H   0  0  0  0  0  0  0  0  0  0  0  0
   30.5626   25.0093  105.0359 H   0  0  0  0  0  0  0  0  0  0  0  0
   28.6020   20.7292  100.2981 H   0  0  0  0  0  0  0  0  0  0  0  0
   26.6811   18.2977   99.7007 H   0  0  0  0  0  0  0  0  0  0  0  0
   25.6838   19.2418   98.5428 H   0  0  0  0  0  0  0  0  0  0  0  0
   27.4712   19.4209   98.5428 H   0  0  0  0  0  0  0  0  0  0  0  0
   23.3250   19.8047  101.0620 H   0  0  0  0  0  0  0  0  0  0  0  0
   23.3404   20.8300   99.5871 H   0  0  0  0  0  0  0  0  0  0  0  0
   24.1834   19.2438   99.5871 H   0  0  0  0  0  0  0  0  0  0  0  0
   24.1194   22.1357  101.9703 H   0  0  0  0  0  0  0  0  0  0  0  0
   24.1485   23.1569  103.3833 H   0  0  0  0  0  0  0  0  0  0  0  0
   25.0571   24.1302  104.6170 H   0  0  0  0  0  0  0  0  0  0  0  0
   24.5756   25.1222  101.8193 H   0  0  0  0  0  0  0  0  0  0  0  0
   25.0854   26.2141  104.3285 H   0  0  0  0  0  0  0  0  0  0  0  0
   22.8906   26.4925  103.4580 H   0  0  0  0  0  0  0  0  0  0  0  0
   22.7489   24.9569  104.9436 H   0  0  0  0  0  0  0  0  0  0  0  0
   22.5222   26.1990  101.2562 H   0  0  0  0  0  0  0  0  0  0  0  0
   20.7969   25.3260  103.0136 H   0  0  0  0  0  0  0  0  0  0  0  0
   22.7094   23.2879  102.1277 H   0  0  0  0  0  0  0  0  0  0  0  0
   21.9001   23.7965  100.5494 H   0  0  0  0  0  0  0  0  0  0  0  0
  1  2  2  0
  1  3  1  6
  1  4  1  0
  1 53  1  0
  4  5  1  0
  6  5  1  0
  6  7  1  0
  6  8  1  0
  7 12  1  0
  8  9  1  0
  8 10  1  0
 10 11  1  0
 10 12  1  0
 12 13  1  0
 13 14  1  0
 13 22  1  0
 14 15  2  0
 15 16  1  0
 16 17  2  0
 16 22  1  0
 17 18  1  0
 17 19  1  0
 19 20  2  0
 20 21  1  0
 21 22  2  0
 23 24  1  0
 23 40  2  0
 24 25  2  0
 24 26  1  0
 26 27  1  0
 27 28  2  0
 27 29  1  0
 29 30  2  0
 29 40  1  0
 30 31  1  0
 31 32  1  0
 31 38  2  0
 32 33  2  0
 33 34  1  0
 33 35  1  0
 35 36  1  0
 35 37  2  0
 37 38  1  0
 38 39  1  0
 39 40  1  0
 39 41  1  0
 41 42  1  0
 42 43  1  0
 42 44  1  0
 44 45  1  0
 44 46  1  0
 46 47  1  0
 46 48  1  0
 48 49  1  0
 49 50  1  0
 50 51  2  0
 50 52  1  1
 50 53  1  0
  5 54  1  0
  5 55  1  0
  6 56  1  6
  8 57  1  1
  9 58  1  0
 10 59  1  6
 11 60  1  0
 12 61  1  1
 14 62  1  0
 18 63  1  0
 18 64  1  0
 20 65  1  0
 26 66  1  0
 32 67  1  0
 34 68  1  0
 34 69  1  0
 34 70  1  0
 36 71  1  0
 36 72  1  0
 36 73  1  0
 37 74  1  0
 41 75  1  0
 41 76  1  0
 42 77  1  6
 43 78  1  0
 44 79  1  1
 45 80  1  0
 46 81  1  6
 47 82  1  0
 48 83  1  0
 48 84  1  0
M  CHG  2   3  -1  52  -1
M  END
>  <filename_input>  (6) 
7F8T_FAD_docked.sdf

>  <pdb_id>  (6) 
7F8T_FAD

>  <pose_rank>  (6) 
5

>  <num_atoms_heavy>  (6) 
53

>  <num_torsions>  (6) 
13

>  <pose>  (6) 
[23.923652707177595, 23.98391940314666, 100.61544991908448, -0.8087956293307177, 2.0344083704452336, 4.4062530807765645, -8.00165016424057, -17.46862406810773, -7.821390505691514, 6.957078961331522, 19.289874684317688, 13.779278194283238, -5.154358394711158, 2.9151909259331226, 8.247091587391889, -2.164779365836627, -11.543610983151051, 4.0988084995397625, 18.717876499938576]

>  <energy>  (6) 
-774.0827898560468

>  <inter_energy>  (6) 
-942.5133855401589

>  <intra_energy>  (6) 
164.04502342231785

>  <rmsd>  (6) 
5.9184

>  <sdf_rank>  (6) 
0

$$$$

     RDKit          3D

 84 89  0  0  0  0  0  0  0  0999 V2000
   23.2561   23.1264   94.6117 P   0  0  1  0  0  0  0  0  0  0  0  0
   21.9661   23.2167   93.9946 O   0  0  0  0  0  0  0  0  0  0  0  0
   23.8171   21.6092   94.5812 O   0  0  0  0  0  0  0  0  0  0  0  0
   24.3466   24.1942   93.9226 O   0  0  0  0  0  0  0  0  0  0  0  0
   25.5429   24.5491   94.6417 C   0  0  0  0  0  0  0  0  0  0  0  0
   26.2951   23.3618   94.8950 C   0  0  1  0  0  0  0  0  0  0  0  0
   27.0765   23.0131   93.7849 O   0  0  0  0  0  0  0  0  0  0  0  0
   27.1752   23.5183   95.9106 C   0  0  1  0  0  0  0  0  0  0  0  0
   26.5493   23.4720   97.1713 O   0  0  0  0  0  0  0  0  0  0  0  0
   28.0706   22.4864   95.7075 C   0  0  1  0  0  0  0  0  0  0  0  0
   27.5361   21.2469   96.1586 O   0  0  0  0  0  0  0  0  0  0  0  0
   28.2629   22.4598   94.3629 C   0  0  2  0  0  0  0  0  0  0  0  0
   29.3642   23.1976   94.0179 N   0  0  0  0  0  0  0  0  0  0  0  0
   29.3993   24.4736   94.0022 C   0  0  0  0  0  0  0  0  0  0  0  0
   30.6181   24.8709   93.6283 N   0  0  0  0  0  0  0  0  0  0  0  0
   31.3688   23.7309   93.4007 C   0  0  0  0  0  0  0  0  0  0  0  0
   32.6666   23.4240   93.0032 C   0  0  0  0  0  0  0  0  0  0  0  0
   33.6234   24.4714   92.7116 N   0  0  0  0  0  0  0  0  0  0  0  0
   33.0409   22.1655   92.8915 N   0  0  0  0  0  0  0  0  0  0  0  0
   32.1957   21.1839   93.1474 C   0  0  0  0  0  0  0  0  0  0  0  0
   30.9387   21.4058   93.5323 N   0  0  0  0  0  0  0  0  0  0  0  0
   30.4857   22.6487   93.6698 C   0  0  0  0  0  0  0  0  0  0  0  0
   27.2118   24.9305  104.9193 N   0  0  0  0  0  0  0  0  0  0  0  0
   27.9619   25.5783  105.8435 C   0  0  0  0  0  0  0  0  0  0  0  0
   27.3575   26.2681  106.8231 O   0  0  0  0  0  0  0  0  0  0  0  0
   29.2805   25.5285  105.7663 N   0  0  0  0  0  0  0  0  0  0  0  0
   29.8996   24.8463  104.8435 C   0  0  0  0  0  0  0  0  0  0  0  0
   31.2384   24.8857  104.8379 O   0  0  0  0  0  0  0  0  0  0  0  0
   29.1693   24.2284  103.8629 C   0  0  0  0  0  0  0  0  0  0  0  0
   29.8235   23.6065  102.9115 N   0  0  0  0  0  0  0  0  0  0  0  0
   29.1376   22.7591  102.1382 C   0  0  0  0  0  0  0  0  0  0  0  0
   29.8542   21.9263  101.3009 C   0  0  0  0  0  0  0  0  0  0  0  0
   29.1821   21.0422  100.4726 C   0  0  0  0  0  0  0  0  0  0  0  0
   29.9747   20.1109   99.5308 C   0  0  0  0  0  0  0  0  0  0  0  0
   27.7800   21.0089  100.5035 C   0  0  0  0  0  0  0  0  0  0  0  0
   26.9972   20.0346   99.5916 C   0  0  0  0  0  0  0  0  0  0  0  0
   27.0686   21.8457  101.3413 C   0  0  0  0  0  0  0  0  0  0  0  0
   27.7268   22.7667  102.1913 C   0  0  0  0  0  0  0  0  0  0  0  0
   27.1020   23.5663  103.0095 N   0  0  0  0  0  0  0  0  0  0  0  0
   27.7942   24.2378  103.9003 C   0  0  0  0  0  0  0  0  0  0  0  0
   25.5985   23.5534  103.1145 C   0  0  0  0  0  0  0  0  0  0  0  0
   24.9683   24.7402  102.4036 C   0  0  2  0  0  0  0  0  0  0  0  0
   23.8793   25.0728  102.9761 O   0  0  0  0  0  0  0  0  0  0  0  0
   24.7344   24.4946  101.0153 C   0  0  2  0  0  0  0  0  0  0  0  0
   24.2977   25.6305  100.4218 O   0  0  0  0  0  0  0  0  0  0  0  0
   23.8012   23.4315  100.8160 C   0  0  2  0  0  0  0  0  0  0  0  0
   24.3246   22.3517  100.3589 O   0  0  0  0  0  0  0  0  0  0  0  0
   22.8291   23.9165   99.8050 C   0  0  0  0  0  0  0  0  0  0  0  0
   23.2480   23.8129   98.4339 O   0  0  0  0  0  0  0  0  0  0  0  0
   22.3374   22.8352   97.3933 P   0  0  1  0  0  0  0  0  0  0  0  0
   22.7151   21.4359   97.3927 O   0  0  0  0  0  0  0  0  0  0  0  0
   20.7928   23.1801   97.8034 O   0  0  0  0  0  0  0  0  0  0  0  0
   22.8188   23.6654   96.0856 O   0  0  0  0  0  0  0  0  0  0  0  0
   26.1436   25.2463   94.0392 H   0  0  0  0  0  0  0  0  0  0  0  0
   25.2781   25.0345   95.5927 H   0  0  0  0  0  0  0  0  0  0  0  0
   25.5455   22.5935   95.1355 H   0  0  0  0  0  0  0  0  0  0  0  0
   27.6661   24.5026   95.9133 H   0  0  0  0  0  0  0  0  0  0  0  0
   27.2359   23.5227   97.8826 H   0  0  0  0  0  0  0  0  0  0  0  0
   29.0065   22.6385   96.2651 H   0  0  0  0  0  0  0  0  0  0  0  0
   27.5293   21.2312   97.1484 H   0  0  0  0  0  0  0  0  0  0  0  0
   28.4432   21.4367   94.0013 H   0  0  0  0  0  0  0  0  0  0  0  0
   28.5606   25.1387   94.2557 H   0  0  0  0  0  0  0  0  0  0  0  0
   34.5803   24.2278   92.4185 H   0  0  0  0  0  0  0  0  0  0  0  0
   33.3470   25.4599   92.7974 H   0  0  0  0  0  0  0  0  0  0  0  0
   32.5413   20.1453   93.0390 H   0  0  0  0  0  0  0  0  0  0  0  0
   29.8386   26.0470  106.4595 H   0  0  0  0  0  0  0  0  0  0  0  0
   30.9535   21.9649  101.2919 H   0  0  0  0  0  0  0  0  0  0  0  0
   30.5731   19.4078  100.1288 H   0  0  0  0  0  0  0  0  0  0  0  0
   29.2739   19.5485   98.8963 H   0  0  0  0  0  0  0  0  0  0  0  0
   30.6419   20.7127   98.8963 H   0  0  0  0  0  0  0  0  0  0  0  0
   26.4288   19.3271  100.2132 H   0  0  0  0  0  0  0  0  0  0  0  0
   26.3029   20.6045   98.9566 H   0  0  0  0  0  0  0  0  0  0  0  0
   27.7033   19.4794   98.9566 H   0  0  0  0  0  0  0  0  0  0  0  0
   25.9698   21.7954  101.3480 H   0  0  0  0  0  0  0  0  0  0  0  0
   25.2187   22.6256  102.6619 H   0  0  0  0  0  0  0  0  0  0  0  0
   25.3315   23.6144  104.1799 H   0  0  0  0  0  0  0  0  0  0  0  0
   25.6904   25.5674  102.4688 H   0  0  0  0  0  0  0  0  0  0  0  0
   23.9983   25.0364  103.9582 H   0  0  0  0  0  0  0  0  0  0  0  0
   25.6838   24.1830  100.5552 H   0  0  0  0  0  0  0  0  0  0  0  0
   24.0445   26.2892  101.1160 H   0  0  0  0  0  0  0  0  0  0  0  0
   23.3600   23.1814  101.7921 H   0  0  0  0  0  0  0  0  0  0  0  0
   24.6040   21.7752  101.1136 H   0  0  0  0  0  0  0  0  0  0  0  0
   21.9035   23.3335   99.9200 H   0  0  0  0  0  0  0  0  0  0  0  0
   22.7077   24.9924   99.9996 H   0  0  0  0  0  0  0  0  0  0  0  0
  1  2  2  0
  1  3  1  1
  1  4  1  0
  1 53  1  0
  4  5  1  0
  6  5  1  0
  6  7  1  0
  6  8  1  0
  7 12  1  0
  8  9  1  0
  8 10  1  0
 10 11  1  0
 10 12  1  0
 12 13  1  0
 13 14  1  0
 13 22  1  0
 14 15  2  0
 15 16  1  0
 16 17  2  0
 16 22  1  0
 17 18  1  0
 17 19  1  0
 19 20  2  0
 20 21  1  0
 21 22  2  0
 23 24  1  0
 23 40  2  0
 24 25  2  0
 24 26  1  0
 26 27  1  0
 27 28  2  0
 27 29  1  0
 29 30  2  0
 29 40  1  0
 30 31  1  0
 31 32  1  0
 31 38  2  0
 32 33  2  0
 33 34  1  0
 33 35  1  0
 35 36  1  0
 35 37  2  0
 37 38  1  0
 38 39  1  0
 39 40  1  0
 39 41  1  0
 41 42  1  0
 42 43  1  0
 42 44  1  0
 44 45  1  0
 44 46  1  0
 46 47  1  0
 46 48  1  0
 48 49  1  0
 49 50  1  0
 50 51  2  0
 50 52  1  1
 50 53  1  0
  5 54  1  0
  5 55  1  0
  6 56  1  1
  8 57  1  6
  9 58  1  0
 10 59  1  1
 11 60  1  0
 12 61  1  6
 14 62  1  0
 18 63  1  0
 18 64  1  0
 20 65  1  0
 26 66  1  0
 32 67  1  0
 34 68  1  0
 34 69  1  0
 34 70  1  0
 36 71  1  0
 36 72  1  0
 36 73  1  0
 37 74  1  0
 41 75  1  0
 41 76  1  0
 42 77  1  6
 43 78  1  0
 44 79  1  6
 45 80  1  0
 46 81  1  1
 47 82  1  0
 48 83  1  0
 48 84  1  0
M  CHG  2   3  -1  52  -1
M  END
>  <filename_input>  (7) 
7F8T_FAD_docked.sdf

>  <pdb_id>  (7) 
7F8T_FAD

>  <pose_rank>  (7) 
6

>  <num_atoms_heavy>  (7) 
53

>  <num_torsions>  (7) 
13

>  <pose>  (7) 
[23.24795063406183, 23.81292291283245, 98.43391706668955, 5.194467316368253, 1.6689522211326528, 1.5265453481725162, 3.888041445284136, -0.7666349826307466, -0.9020395393319229, -0.43221323386019644, 3.377565764343527, 2.2959217340809928, 0.24188546640460032, 0.08216010469898972, -1.5123922508936847, -0.7463954292157373, 4.057282008732267, -3.4810848155487637, -0.16916145567427368]

>  <energy>  (7) 
-791.8217898856599

>  <inter_energy>  (7) 
-852.2186060205968

>  <intra_energy>  (7) 
64.34341986488901

>  <rmsd>  (7) 
6.04471

>  <sdf_rank>  (7) 
0

$$$$

     RDKit          3D

 84 89  0  0  0  0  0  0  0  0999 V2000
   22.0300   22.4937   98.4856 P   0  0  1  0  0  0  0  0  0  0  0  0
   21.6774   22.8821   99.8190 O   0  0  0  0  0  0  0  0  0  0  0  0
   20.8963   21.5426   97.8315 O   0  0  0  0  0  0  0  0  0  0  0  0
   22.3437   23.8235   97.5174 O   0  0  0  0  0  0  0  0  0  0  0  0
   21.3925   24.2045   96.5054 C   0  0  0  0  0  0  0  0  0  0  0  0
   22.0686   24.2933   95.2505 C   0  0  1  0  0  0  0  0  0  0  0  0
   23.4001   24.6956   95.4221 O   0  0  0  0  0  0  0  0  0  0  0  0
   22.1396   23.0985   94.6198 C   0  0  1  0  0  0  0  0  0  0  0  0
   20.9194   22.7412   94.0142 O   0  0  0  0  0  0  0  0  0  0  0  0
   23.1646   23.2862   93.7132 C   0  0  1  0  0  0  0  0  0  0  0  0
   22.7207   24.0289   92.5833 O   0  0  0  0  0  0  0  0  0  0  0  0
   24.1059   23.9840   94.4007 C   0  0  2  0  0  0  0  0  0  0  0  0
   25.0324   23.1359   94.9473 N   0  0  0  0  0  0  0  0  0  0  0  0
   24.7506   22.1816   95.7470 C   0  0  0  0  0  0  0  0  0  0  0  0
   25.8776   21.5502   96.0853 N   0  0  0  0  0  0  0  0  0  0  0  0
   26.9168   22.1878   95.4307 C   0  0  0  0  0  0  0  0  0  0  0  0
   28.2990   22.0570   95.3366 C   0  0  0  0  0  0  0  0  0  0  0  0
   28.9991   21.0144   96.0579 N   0  0  0  0  0  0  0  0  0  0  0  0
   28.9889   22.8863   94.5797 N   0  0  0  0  0  0  0  0  0  0  0  0
   28.3853   23.8499   93.9088 C   0  0  0  0  0  0  0  0  0  0  0  0
   27.0653   24.0326   93.9532 N   0  0  0  0  0  0  0  0  0  0  0  0
   26.2995   23.2358   94.6931 C   0  0  0  0  0  0  0  0  0  0  0  0
   28.7210   24.0865  103.4884 N   0  0  0  0  0  0  0  0  0  0  0  0
   28.5596   24.2043  104.8288 C   0  0  0  0  0  0  0  0  0  0  0  0
   29.5247   23.7699  105.6538 O   0  0  0  0  0  0  0  0  0  0  0  0
   27.4507   24.7400  105.3088 N   0  0  0  0  0  0  0  0  0  0  0  0
   26.5052   25.1960  104.5354 C   0  0  0  0  0  0  0  0  0  0  0  0
   25.4098   25.6935  105.1242 O   0  0  0  0  0  0  0  0  0  0  0  0
   26.6146   25.0395  103.1788 C   0  0  0  0  0  0  0  0  0  0  0  0
   25.6167   25.4482  102.4323 N   0  0  0  0  0  0  0  0  0  0  0  0
   25.8366   25.5805  101.1206 C   0  0  0  0  0  0  0  0  0  0  0  0
   24.8791   26.2336  100.3691 C   0  0  0  0  0  0  0  0  0  0  0  0
   25.0607   26.3806   99.0035 C   0  0  0  0  0  0  0  0  0  0  0  0
   23.9939   27.1053   98.1555 C   0  0  0  0  0  0  0  0  0  0  0  0
   26.2212   25.8627   98.4093 C   0  0  0  0  0  0  0  0  0  0  0  0
   26.4561   26.0083   96.8870 C   0  0  0  0  0  0  0  0  0  0  0  0
   27.1743   25.2085   99.1655 C   0  0  0  0  0  0  0  0  0  0  0  0
   27.0117   25.0337  100.5608 C   0  0  0  0  0  0  0  0  0  0  0  0
   27.8879   24.4373  101.3197 N   0  0  0  0  0  0  0  0  0  0  0  0
   27.7516   24.4993  102.6240 C   0  0  0  0  0  0  0  0  0  0  0  0
   29.1705   23.8908  100.7469 C   0  0  0  0  0  0  0  0  0  0  0  0
   29.3343   22.4067  101.0325 C   0  0  2  0  0  0  0  0  0  0  0  0
   30.5693   22.1076  101.1296 O   0  0  0  0  0  0  0  0  0  0  0  0
   28.7080   21.5803  100.0490 C   0  0  2  0  0  0  0  0  0  0  0  0
   28.4411   22.3151   98.9435 O   0  0  0  0  0  0  0  0  0  0  0  0
   27.5159   20.9730  100.5498 C   0  0  2  0  0  0  0  0  0  0  0  0
   27.5496   19.6896  100.5722 O   0  0  0  0  0  0  0  0  0  0  0  0
   26.4263   21.3726   99.6249 C   0  0  0  0  0  0  0  0  0  0  0  0
   25.3291   20.4507   99.5149 O   0  0  0  0  0  0  0  0  0  0  0  0
   23.8379   20.9025  100.1783 P   0  0  1  0  0  0  0  0  0  0  0  0
   22.9545   19.7967  100.4905 O   0  0  0  0  0  0  0  0  0  0  0  0
   24.2557   21.8831  101.4180 O   0  0  0  0  0  0  0  0  0  0  0  0
   23.4276   21.7411   98.8518 O   0  0  0  0  0  0  0  0  0  0  0  0
   20.5954   23.4490   96.4436 H   0  0  0  0  0  0  0  0  0  0  0  0
   20.9450   25.1768   96.7592 H   0  0  0  0  0  0  0  0  0  0  0  0
   21.4864   25.0177   94.6619 H   0  0  0  0  0  0  0  0  0  0  0  0
   22.3339   22.2574   95.3015 H   0  0  0  0  0  0  0  0  0  0  0  0
   20.2483   22.5446   94.7149 H   0  0  0  0  0  0  0  0  0  0  0  0
   23.5477   22.3319   93.3225 H   0  0  0  0  0  0  0  0  0  0  0  0
   22.2375   24.8372   92.8888 H   0  0  0  0  0  0  0  0  0  0  0  0
   24.6578   24.6722   93.7436 H   0  0  0  0  0  0  0  0  0  0  0  0
   23.7420   21.9214   96.1006 H   0  0  0  0  0  0  0  0  0  0  0  0
   30.0226   20.9308   95.9777 H   0  0  0  0  0  0  0  0  0  0  0  0
   28.4735   20.3564   96.6510 H   0  0  0  0  0  0  0  0  0  0  0  0
   28.9935   24.5267   93.2907 H   0  0  0  0  0  0  0  0  0  0  0  0
   27.3293   24.7994  106.3299 H   0  0  0  0  0  0  0  0  0  0  0  0
   23.9764   26.6351  100.8528 H   0  0  0  0  0  0  0  0  0  0  0  0
   23.2692   27.5977   98.8206 H   0  0  0  0  0  0  0  0  0  0  0  0
   24.4809   27.8603   97.5208 H   0  0  0  0  0  0  0  0  0  0  0  0
   23.4715   26.3745   97.5208 H   0  0  0  0  0  0  0  0  0  0  0  0
   27.3792   26.5803   96.7116 H   0  0  0  0  0  0  0  0  0  0  0  0
   26.5513   25.0106   96.4336 H   0  0  0  0  0  0  0  0  0  0  0  0
   25.6050   26.5374   96.4336 H   0  0  0  0  0  0  0  0  0  0  0  0
   28.0767   24.8160   98.6741 H   0  0  0  0  0  0  0  0  0  0  0  0
   29.1671   24.0447   99.6577 H   0  0  0  0  0  0  0  0  0  0  0  0
   30.0085   24.4228  101.2210 H   0  0  0  0  0  0  0  0  0  0  0  0
   28.8281   22.2113  101.9894 H   0  0  0  0  0  0  0  0  0  0  0  0
   30.8200   22.0469  102.0854 H   0  0  0  0  0  0  0  0  0  0  0  0
   29.4016   20.7670   99.7892 H   0  0  0  0  0  0  0  0  0  0  0  0
   28.1159   23.2105   99.2130 H   0  0  0  0  0  0  0  0  0  0  0  0
   27.3783   21.3048  101.5895 H   0  0  0  0  0  0  0  0  0  0  0  0
   27.5578   19.3760  101.5113 H   0  0  0  0  0  0  0  0  0  0  0  0
   26.0243   22.3355   99.9730 H   0  0  0  0  0  0  0  0  0  0  0  0
   26.8833   21.4134   98.6251 H   0  0  0  0  0  0  0  0  0  0  0  0
  1  2  2  0
  1  3  1  6
  1  4  1  0
  1 53  1  0
  4  5  1  0
  6  5  1  0
  6  7  1  0
  6  8  1  0
  7 12  1  0
  8  9  1  0
  8 10  1  0
 10 11  1  0
 10 12  1  0
 12 13  1  0
 13 14  1  0
 13 22  1  0
 14 15  2  0
 15 16  1  0
 16 17  2  0
 16 22  1  0
 17 18  1  0
 17 19  1  0
 19 20  2  0
 20 21  1  0
 21 22  2  0
 23 24  1  0
 23 40  2  0
 24 25  2  0
 24 26  1  0
 26 27  1  0
 27 28  2  0
 27 29  1  0
 29 30  2  0
 29 40  1  0
 30 31  1  0
 31 32  1  0
 31 38  2  0
 32 33  2  0
 33 34  1  0
 33 35  1  0
 35 36  1  0
 35 37  2  0
 37 38  1  0
 38 39  1  0
 39 40  1  0
 39 41  1  0
 41 42  1  0
 42 43  1  0
 42 44  1  0
 44 45  1  0
 44 46  1  0
 46 47  1  0
 46 48  1  0
 48 49  1  0
 49 50  1  0
 50 51  2  0
 50 52  1  1
 50 53  1  0
  5 54  1  0
  5 55  1  0
  6 56  1  6
  8 57  1  1
  9 58  1  0
 10 59  1  6
 11 60  1  0
 12 61  1  6
 14 62  1  0
 18 63  1  0
 18 64  1  0
 20 65  1  0
 26 66  1  0
 32 67  1  0
 34 68  1  0
 34 69  1  0
 34 70  1  0
 36 71  1  0
 36 72  1  0
 36 73  1  0
 37 74  1  0
 41 75  1  0
 41 76  1  0
 42 77  1  1
 43 78  1  0
 44 79  1  6
 45 80  1  0
 46 81  1  1
 47 82  1  0
 48 83  1  0
 48 84  1  0
M  CHG  2   3  -1  52  -1
M  END
>  <filename_input>  (8) 
7F8T_FAD_docked.sdf

>  <pdb_id>  (8) 
7F8T_FAD

>  <pose_rank>  (8) 
7

>  <num_atoms_heavy>  (8) 
53

>  <num_torsions>  (8) 
13

>  <pose>  (8) 
[25.329084735970774, 20.450658967213368, 99.51491854734321, 3.414211057320939, -1.4746697762922154, 1.546751058322507, -9.922939523698918, -0.1362735257015128, -89.90340324533965, -42.81387804304954, -56.413833332623284, -75.09897475238274, -24.583237673292203, 56.48176915911328, -0.2895706585953661, 5.368237390004293, 19.94329117923689, 34.21951635987348, 12.059761241628472]

>  <energy>  (8) 
-764.1728286438899

>  <inter_energy>  (8) 
-809.7208431934007

>  <intra_energy>  (8) 
55.21318681780326

>  <rmsd>  (8) 
5.57931

>  <sdf_rank>  (8) 
0

$$$$

     RDKit          3D

 84 89  0  0  0  0  0  0  0  0999 V2000
   24.5011   23.7161   94.5194 P   0  0  1  0  0  0  0  0  0  0  0  0
   23.5530   23.1111   93.6316 O   0  0  0  0  0  0  0  0  0  0  0  0
   25.9842   23.1089   94.2974 O   0  0  0  0  0  0  0  0  0  0  0  0
   24.4982   25.3850   94.3824 O   0  0  0  0  0  0  0  0  0  0  0  0
   24.2749   26.1926   95.5537 C   0  0  0  0  0  0  0  0  0  0  0  0
   25.4799   26.2334   96.3193 C   0  0  1  0  0  0  0  0  0  0  0  0
   26.5514   26.7056   95.5491 O   0  0  0  0  0  0  0  0  0  0  0  0
   25.3948   27.0866   97.3658 C   0  0  1  0  0  0  0  0  0  0  0  0
   24.6534   26.5478   98.4351 O   0  0  0  0  0  0  0  0  0  0  0  0
   26.7183   27.3221   97.6832 C   0  0  1  0  0  0  0  0  0  0  0  0
   27.2711   26.2352   98.4172 O   0  0  0  0  0  0  0  0  0  0  0  0
   27.3405   27.4499   96.4823 C   0  0  2  0  0  0  0  0  0  0  0  0
   27.4169   28.7676   96.1159 N   0  0  0  0  0  0  0  0  0  0  0  0
   26.8024   29.7161   96.7094 C   0  0  0  0  0  0  0  0  0  0  0  0
   27.0974   30.8704   96.1062 N   0  0  0  0  0  0  0  0  0  0  0  0
   27.9594   30.5792   95.0636 C   0  0  0  0  0  0  0  0  0  0  0  0
   28.6315   31.2800   94.0668 C   0  0  0  0  0  0  0  0  0  0  0  0
   28.5039   32.7181   93.9523 N   0  0  0  0  0  0  0  0  0  0  0  0
   29.4007   30.6354   93.2129 N   0  0  0  0  0  0  0  0  0  0  0  0
   29.5401   29.3245   93.2853 C   0  0  0  0  0  0  0  0  0  0  0  0
   28.9259   28.5911   94.2141 N   0  0  0  0  0  0  0  0  0  0  0  0
   28.1339   29.1684   95.1131 C   0  0  0  0  0  0  0  0  0  0  0  0
   26.6161   21.8660   99.5545 N   0  0  0  0  0  0  0  0  0  0  0  0
   26.9913   21.6182   98.2761 C   0  0  0  0  0  0  0  0  0  0  0  0
   26.0600   21.3179   97.3578 O   0  0  0  0  0  0  0  0  0  0  0  0
   28.2710   21.6690   97.9493 N   0  0  0  0  0  0  0  0  0  0  0  0
   29.1986   21.9833   98.8102 C   0  0  0  0  0  0  0  0  0  0  0  0
   30.4678   21.9776   98.3823 O   0  0  0  0  0  0  0  0  0  0  0  0
   28.8563   22.1832  100.1215 C   0  0  0  0  0  0  0  0  0  0  0  0
   29.8203   22.4318  100.9753 N   0  0  0  0  0  0  0  0  0  0  0  0
   29.4790   22.9220  102.1710 C   0  0  0  0  0  0  0  0  0  0  0  0
   30.4874   23.4099  102.9793 C   0  0  0  0  0  0  0  0  0  0  0  0
   30.1792   23.9146  104.2322 C   0  0  0  0  0  0  0  0  0  0  0  0
   31.3001   24.4581  105.1436 C   0  0  0  0  0  0  0  0  0  0  0  0
   28.8417   23.9222  104.6554 C   0  0  0  0  0  0  0  0  0  0  0  0
   28.4619   24.4777  106.0485 C   0  0  0  0  0  0  0  0  0  0  0  0
   27.8379   23.4308  103.8437 C   0  0  0  0  0  0  0  0  0  0  0  0
   28.1229   22.8993  102.5630 C   0  0  0  0  0  0  0  0  0  0  0  0
   27.2105   22.4375  101.7546 N   0  0  0  0  0  0  0  0  0  0  0  0
   27.5386   22.1540  100.5153 C   0  0  0  0  0  0  0  0  0  0  0  0
   25.7526   22.4506  102.1369 C   0  0  0  0  0  0  0  0  0  0  0  0
   24.9977   23.5848  101.4626 C   0  0  2  0  0  0  0  0  0  0  0  0
   25.0292   24.6317  102.1888 O   0  0  0  0  0  0  0  0  0  0  0  0
   23.6441   23.2446  101.1555 C   0  0  2  0  0  0  0  0  0  0  0  0
   23.5905   21.9730  100.6935 O   0  0  0  0  0  0  0  0  0  0  0  0
   23.0733   24.1489  100.2083 C   0  0  2  0  0  0  0  0  0  0  0  0
   21.8721   24.5094  100.4841 O   0  0  0  0  0  0  0  0  0  0  0  0
   23.0332   23.4239   98.9141 C   0  0  0  0  0  0  0  0  0  0  0  0
   22.5949   24.1909   97.7803 O   0  0  0  0  0  0  0  0  0  0  0  0
   22.2241   23.3615   96.3512 P   0  0  1  0  0  0  0  0  0  0  0  0
   21.5841   22.0758   96.5463 O   0  0  0  0  0  0  0  0  0  0  0  0
   21.4003   24.4677   95.4734 O   0  0  0  0  0  0  0  0  0  0  0  0
   23.7846   23.2801   95.9160 O   0  0  0  0  0  0  0  0  0  0  0  0
   23.9936   27.2123   95.2520 H   0  0  0  0  0  0  0  0  0  0  0  0
   23.4625   25.7610   96.1568 H   0  0  0  0  0  0  0  0  0  0  0  0
   25.6363   25.2001   96.6627 H   0  0  0  0  0  0  0  0  0  0  0  0
   24.8510   28.0130   97.1289 H   0  0  0  0  0  0  0  0  0  0  0  0
   25.0529   26.8382   99.2931 H   0  0  0  0  0  0  0  0  0  0  0  0
   26.8368   28.2130   98.3174 H   0  0  0  0  0  0  0  0  0  0  0  0
   27.1810   26.4123   99.3870 H   0  0  0  0  0  0  0  0  0  0  0  0
   28.3734   27.0734   96.5210 H   0  0  0  0  0  0  0  0  0  0  0  0
   26.1372   29.6012   97.5779 H   0  0  0  0  0  0  0  0  0  0  0  0
   29.0080   33.2223   93.2089 H   0  0  0  0  0  0  0  0  0  0  0  0
   27.9090   33.2367   94.6142 H   0  0  0  0  0  0  0  0  0  0  0  0
   30.1865   28.8189   92.5528 H   0  0  0  0  0  0  0  0  0  0  0  0
   28.5453   21.4526   96.9803 H   0  0  0  0  0  0  0  0  0  0  0  0
   31.5303   23.3979  102.6297 H   0  0  0  0  0  0  0  0  0  0  0  0
   31.0154   24.3201  106.1971 H   0  0  0  0  0  0  0  0  0  0  0  0
   32.2338   23.9127  104.9416 H   0  0  0  0  0  0  0  0  0  0  0  0
   31.4500   25.5290  104.9416 H   0  0  0  0  0  0  0  0  0  0  0  0
   28.8990   23.8384  106.8298 H   0  0  0  0  0  0  0  0  0  0  0  0
   28.8496   25.5017  106.1532 H   0  0  0  0  0  0  0  0  0  0  0  0
   27.3669   24.4877  106.1532 H   0  0  0  0  0  0  0  0  0  0  0  0
   26.7972   23.4529  104.1993 H   0  0  0  0  0  0  0  0  0  0  0  0
   25.2984   21.4944  101.8380 H   0  0  0  0  0  0  0  0  0  0  0  0
   25.6878   22.5986  103.2250 H   0  0  0  0  0  0  0  0  0  0  0  0
   25.5073   23.7795  100.5074 H   0  0  0  0  0  0  0  0  0  0  0  0
   25.0214   24.3711  103.1439 H   0  0  0  0  0  0  0  0  0  0  0  0
   23.0504   23.3241  102.0781 H   0  0  0  0  0  0  0  0  0  0  0  0
   23.5639   21.3449  101.4583 H   0  0  0  0  0  0  0  0  0  0  0  0
   23.6851   25.0630  100.2022 H   0  0  0  0  0  0  0  0  0  0  0  0
   21.7554   24.5445  101.4666 H   0  0  0  0  0  0  0  0  0  0  0  0
   24.0482   23.0571   98.7013 H   0  0  0  0  0  0  0  0  0  0  0  0
   22.2866   22.6262   99.0416 H   0  0  0  0  0  0  0  0  0  0  0  0
  1  2  2  0
  1  3  1  1
  1  4  1  0
  1 53  1  0
  4  5  1  0
  6  5  1  0
  6  7  1  0
  6  8  1  0
  7 12  1  0
  8  9  1  0
  8 10  1  0
 10 11  1  0
 10 12  1  0
 12 13  1  0
 13 14  1  0
 13 22  1  0
 14 15  2  0
 15 16  1  0
 16 17  2  0
 16 22  1  0
 17 18  1  0
 17 19  1  0
 19 20  2  0
 20 21  1  0
 21 22  2  0
 23 24  1  0
 23 40  2  0
 24 25  2  0
 24 26  1  0
 26 27  1  0
 27 28  2  0
 27 29  1  0
 29 30  2  0
 29 40  1  0
 30 31  1  0
 31 32  1  0
 31 38  2  0
 32 33  2  0
 33 34  1  0
 33 35  1  0
 35 36  1  0
 35 37  2  0
 37 38  1  0
 38 39  1  0
 39 40  1  0
 39 41  1  0
 41 42  1  0
 42 43  1  0
 42 44  1  0
 44 45  1  0
 44 46  1  0
 46 47  1  0
 46 48  1  0
 48 49  1  0
 49 50  1  0
 50 51  2  0
 50 52  1  6
 50 53  1  0
  5 54  1  0
  5 55  1  0
  6 56  1  1
  8 57  1  6
  9 58  1  0
 10 59  1  1
 11 60  1  0
 12 61  1  1
 14 62  1  0
 18 63  1  0
 18 64  1  0
 20 65  1  0
 26 66  1  0
 32 67  1  0
 34 68  1  0
 34 69  1  0
 34 70  1  0
 36 71  1  0
 36 72  1  0
 36 73  1  0
 37 74  1  0
 41 75  1  0
 41 76  1  0
 42 77  1  6
 43 78  1  0
 44 79  1  1
 45 80  1  0
 46 81  1  6
 47 82  1  0
 48 83  1  0
 48 84  1  0
M  CHG  2   3  -1  52  -1
M  END
>  <filename_input>  (9) 
7F8T_FAD_docked.sdf

>  <pdb_id>  (9) 
7F8T_FAD

>  <pose_rank>  (9) 
8

>  <num_atoms_heavy>  (9) 
53

>  <num_torsions>  (9) 
13

>  <pose>  (9) 
[22.594875595994132, 24.190905657998375, 97.78032023240455, 0.154399351593806, -0.056659377010664536, 0.8064869785433603, -0.24499974512087075, 0.8662853424788887, -3.3146042250441745, -1.0750946698429074, -2.5874039896242382, 1.8290773059617687, 1.3656881556266225, 1.3717402283632676, 0.2930034874467618, -1.242633839716739, 0.10283897190371193, -2.4350126922541424, 3.424271783650393]

>  <energy>  (9) 
-793.6892373208817

>  <inter_energy>  (9) 
-837.786923650351

>  <intra_energy>  (9) 
47.71326445217266

>  <rmsd>  (9) 
6.89026

>  <sdf_rank>  (9) 
0

$$$$

     RDKit          3D

 84 89  0  0  0  0  0  0  0  0999 V2000
   25.4946   25.5224   98.0170 P   0  0  1  0  0  0  0  0  0  0  0  0
   26.0987   24.2646   98.3428 O   0  0  0  0  0  0  0  0  0  0  0  0
   26.3939   26.7600   98.5433 O   0  0  0  0  0  0  0  0  0  0  0  0
   25.1804   25.6504   96.3771 O   0  0  0  0  0  0  0  0  0  0  0  0
   26.1465   25.1582   95.4291 C   0  0  0  0  0  0  0  0  0  0  0  0
   25.4716   24.3501   94.4640 C   0  0  1  0  0  0  0  0  0  0  0  0
   25.7271   22.9889   94.6783 O   0  0  0  0  0  0  0  0  0  0  0  0
   24.1265   24.4731   94.5417 C   0  0  1  0  0  0  0  0  0  0  0  0
   23.6655   25.6707   93.9617 O   0  0  0  0  0  0  0  0  0  0  0  0
   23.6731   23.3418   93.8918 C   0  0  1  0  0  0  0  0  0  0  0  0
   23.7586   23.4927   92.4792 O   0  0  0  0  0  0  0  0  0  0  0  0
   24.4994   22.3499   94.3147 C   0  0  2  0  0  0  0  0  0  0  0  0
   23.9553   21.6919   95.3858 N   0  0  0  0  0  0  0  0  0  0  0  0
   24.6369   21.1026   96.2901 C   0  0  0  0  0  0  0  0  0  0  0  0
   23.8024   20.5703   97.1865 N   0  0  0  0  0  0  0  0  0  0  0  0
   22.5151   20.8685   96.7756 C   0  0  0  0  0  0  0  0  0  0  0  0
   21.2187   20.6309   97.2221 C   0  0  0  0  0  0  0  0  0  0  0  0
   20.9754   19.8835   98.4386 N   0  0  0  0  0  0  0  0  0  0  0  0
   20.1915   21.0919   96.5374 N   0  0  0  0  0  0  0  0  0  0  0  0
   20.3745   21.7760   95.4231 C   0  0  0  0  0  0  0  0  0  0  0  0
   21.5880   22.0400   94.9381 N   0  0  0  0  0  0  0  0  0  0  0  0
   22.6751   21.6103   95.5725 C   0  0  0  0  0  0  0  0  0  0  0  0
   27.7841   24.5200  104.8627 N   0  0  0  0  0  0  0  0  0  0  0  0
   28.5556   25.1708  105.7670 C   0  0  0  0  0  0  0  0  0  0  0  0
   27.9910   25.6928  106.8668 O   0  0  0  0  0  0  0  0  0  0  0  0
   29.8544   25.2895  105.5528 N   0  0  0  0  0  0  0  0  0  0  0  0
   30.4390   24.7717  104.5085 C   0  0  0  0  0  0  0  0  0  0  0  0
   31.7558   24.9748  104.3721 O   0  0  0  0  0  0  0  0  0  0  0  0
   29.6775   24.1578  103.5493 C   0  0  0  0  0  0  0  0  0  0  0  0
   30.2868   23.7066  102.4793 N   0  0  0  0  0  0  0  0  0  0  0  0
   29.6180   22.8530  101.6979 C   0  0  0  0  0  0  0  0  0  0  0  0
   30.3253   22.1908  100.7133 C   0  0  0  0  0  0  0  0  0  0  0  0
   29.6681   21.3075   99.8722 C   0  0  0  0  0  0  0  0  0  0  0  0
   30.4498   20.5664   98.7667 C   0  0  0  0  0  0  0  0  0  0  0  0
   28.2909   21.1006  100.0407 C   0  0  0  0  0  0  0  0  0  0  0  0
   27.5252   20.1218   99.1190 C   0  0  0  0  0  0  0  0  0  0  0  0
   27.5884   21.7673  101.0256 C   0  0  0  0  0  0  0  0  0  0  0  0
   28.2301   22.6835  101.8932 C   0  0  0  0  0  0  0  0  0  0  0  0
   27.6151   23.3258  102.8463 N   0  0  0  0  0  0  0  0  0  0  0  0
   28.3229   23.9959  103.7259 C   0  0  0  0  0  0  0  0  0  0  0  0
   26.1437   23.1201  103.1004 C   0  0  0  0  0  0  0  0  0  0  0  0
   25.3488   24.4018  102.9097 C   0  0  2  0  0  0  0  0  0  0  0  0
   25.2066   25.0051  104.0234 O   0  0  0  0  0  0  0  0  0  0  0  0
   24.0714   24.1781  102.3094 C   0  0  2  0  0  0  0  0  0  0  0  0
   24.0500   22.9529  101.7335 O   0  0  0  0  0  0  0  0  0  0  0  0
   23.7521   25.1897  101.3526 C   0  0  2  0  0  0  0  0  0  0  0  0
   23.9753   26.3870  101.7596 O   0  0  0  0  0  0  0  0  0  0  0  0
   22.2952   25.0726  101.0952 C   0  0  0  0  0  0  0  0  0  0  0  0
   21.9140   24.9094   99.7190 O   0  0  0  0  0  0  0  0  0  0  0  0
   22.9932   24.1192   98.6805 P   0  0  1  0  0  0  0  0  0  0  0  0
   23.4339   22.8178   99.1419 O   0  0  0  0  0  0  0  0  0  0  0  0
   22.2326   24.1681   97.2341 O   0  0  0  0  0  0  0  0  0  0  0  0
   24.0986   25.2974   98.8260 O   0  0  0  0  0  0  0  0  0  0  0  0
   26.6356   26.0051   94.9257 H   0  0  0  0  0  0  0  0  0  0  0  0
   26.9104   24.5612   95.9488 H   0  0  0  0  0  0  0  0  0  0  0  0
   25.8451   24.6964   93.4890 H   0  0  0  0  0  0  0  0  0  0  0  0
   23.7545   24.5385   95.5748 H   0  0  0  0  0  0  0  0  0  0  0  0
   23.4193   26.3101   94.6763 H   0  0  0  0  0  0  0  0  0  0  0  0
   22.6161   23.1351   94.1153 H   0  0  0  0  0  0  0  0  0  0  0  0
   24.2354   24.3336   92.2654 H   0  0  0  0  0  0  0  0  0  0  0  0
   24.6593   21.5959   93.5299 H   0  0  0  0  0  0  0  0  0  0  0  0
   25.7347   21.0430   96.3253 H   0  0  0  0  0  0  0  0  0  0  0  0
   20.0098   19.7161   98.7557 H   0  0  0  0  0  0  0  0  0  0  0  0
   21.7678   19.5194   98.9866 H   0  0  0  0  0  0  0  0  0  0  0  0
   19.4937   22.1415   94.8749 H   0  0  0  0  0  0  0  0  0  0  0  0
   30.4250   25.8094  106.2348 H   0  0  0  0  0  0  0  0  0  0  0  0
   31.4054   22.3641  100.5975 H   0  0  0  0  0  0  0  0  0  0  0  0
   31.1745   19.8792   99.2278 H   0  0  0  0  0  0  0  0  0  0  0  0
   29.7480   19.9941   98.1422 H   0  0  0  0  0  0  0  0  0  0  0  0
   30.9839   21.2976   98.1422 H   0  0  0  0  0  0  0  0  0  0  0  0
   26.9630   19.4033   99.7335 H   0  0  0  0  0  0  0  0  0  0  0  0
   26.8267   20.6866   98.4841 H   0  0  0  0  0  0  0  0  0  0  0  0
   28.2415   19.5798   98.4841 H   0  0  0  0  0  0  0  0  0  0  0  0
   26.5098   21.5828  101.1379 H   0  0  0  0  0  0  0  0  0  0  0  0
   25.7652   22.3601  102.4010 H   0  0  0  0  0  0  0  0  0  0  0  0
   26.0209   22.7961  104.1444 H   0  0  0  0  0  0  0  0  0  0  0  0
   25.9263   25.0316  102.2169 H   0  0  0  0  0  0  0  0  0  0  0  0
   25.3570   24.3675  104.7656 H   0  0  0  0  0  0  0  0  0  0  0  0
   23.3063   24.2250  103.0983 H   0  0  0  0  0  0  0  0  0  0  0  0
   24.0379   22.2573  102.4379 H   0  0  0  0  0  0  0  0  0  0  0  0
   24.3872   25.0317  100.4686 H   0  0  0  0  0  0  0  0  0  0  0  0
   23.9785   26.4039  102.7494 H   0  0  0  0  0  0  0  0  0  0  0  0
   21.9228   24.2014  101.6541 H   0  0  0  0  0  0  0  0  0  0  0  0
   21.8576   26.0299  101.4148 H   0  0  0  0  0  0  0  0  0  0  0  0
  1  2  2  0
  1  3  1  1
  1  4  1  0
  1 53  1  0
  4  5  1  0
  6  5  1  0
  6  7  1  0
  6  8  1  0
  7 12  1  0
  8  9  1  0
  8 10  1  0
 10 11  1  0
 10 12  1  0
 12 13  1  0
 13 14  1  0
 13 22  1  0
 14 15  2  0
 15 16  1  0
 16 17  2  0
 16 22  1  0
 17 18  1  0
 17 19  1  0
 19 20  2  0
 20 21  1  0
 21 22  2  0
 23 24  1  0
 23 40  2  0
 24 25  2  0
 24 26  1  0
 26 27  1  0
 27 28  2  0
 27 29  1  0
 29 30  2  0
 29 40  1  0
 30 31  1  0
 31 32  1  0
 31 38  2  0
 32 33  2  0
 33 34  1  0
 33 35  1  0
 35 36  1  0
 35 37  2  0
 37 38  1  0
 38 39  1  0
 39 40  1  0
 39 41  1  0
 41 42  1  0
 42 43  1  0
 42 44  1  0
 44 45  1  0
 44 46  1  0
 46 47  1  0
 46 48  1  0
 48 49  1  0
 49 50  1  0
 50 51  2  0
 50 52  1  6
 50 53  1  0
  5 54  1  0
  5 55  1  0
  6 56  1  6
  8 57  1  1
  9 58  1  0
 10 59  1  6
 11 60  1  0
 12 61  1  6
 14 62  1  0
 18 63  1  0
 18 64  1  0
 20 65  1  0
 26 66  1  0
 32 67  1  0
 34 68  1  0
 34 69  1  0
 34 70  1  0
 36 71  1  0
 36 72  1  0
 36 73  1  0
 37 74  1  0
 41 75  1  0
 41 76  1  0
 42 77  1  6
 43 78  1  0
 44 79  1  1
 45 80  1  0
 46 81  1  6
 47 82  1  0
 48 83  1  0
 48 84  1  0
M  CHG  2   3  -1  52  -1
M  END
>  <filename_input>  (10) 
7F8T_FAD_docked.sdf

>  <pdb_id>  (10) 
7F8T_FAD

>  <pose_rank>  (10) 
9

>  <num_atoms_heavy>  (10) 
53

>  <num_torsions>  (10) 
13

>  <pose>  (10) 
[21.913961086522956, 24.90942196354667, 99.71899640795901, 0.5521013225715489, 0.3272794331573697, -4.286432974670214, -94.20714862545918, 0.095097493445588, -22.364102512325804, -3.952659930693864, 17.20522282733223, -0.9943156507588506, -1.1078066950102836, -58.00809893473011, 32.57623738249084, 19.1934647267739, 13.083315573028154, 22.624162547475898, -0.42151878270139587]

>  <energy>  (10) 
-752.2394223997567

>  <inter_energy>  (10) 
-927.5980798157544

>  <intra_energy>  (10) 
176.8656615207246

>  <rmsd>  (10) 
5.04057

>  <sdf_rank>  (10) 
0

$$$$

     RDKit          3D

 84 89  0  0  0  0  0  0  0  0999 V2000
   23.3912   22.9814   94.1539 P   0  0  1  0  0  0  0  0  0  0  0  0
   23.8294   23.0252   92.7904 O   0  0  0  0  0  0  0  0  0  0  0  0
   21.7977   22.7188   94.2508 O   0  0  0  0  0  0  0  0  0  0  0  0
   24.2508   21.8523   95.0430 O   0  0  0  0  0  0  0  0  0  0  0  0
   23.5531   20.9986   95.9696 C   0  0  0  0  0  0  0  0  0  0  0  0
   23.7509   21.4990   97.2926 C   0  0  1  0  0  0  0  0  0  0  0  0
   22.9532   22.6266   97.5301 O   0  0  0  0  0  0  0  0  0  0  0  0
   23.3873   20.6040   98.2398 C   0  0  1  0  0  0  0  0  0  0  0  0
   24.3457   19.5861   98.4085 O   0  0  0  0  0  0  0  0  0  0  0  0
   23.2226   21.3903   99.3634 C   0  0  1  0  0  0  0  0  0  0  0  0
   24.4782   21.7251   99.9439 O   0  0  0  0  0  0  0  0  0  0  0  0
   22.5956   22.5072   98.9105 C   0  0  2  0  0  0  0  0  0  0  0  0
   21.2384   22.3913   99.0552 N   0  0  0  0  0  0  0  0  0  0  0  0
   20.5200   21.5337   98.4403 C   0  0  0  0  0  0  0  0  0  0  0  0
   19.2464   21.6867   98.8116 N   0  0  0  0  0  0  0  0  0  0  0  0
   19.2075   22.7267   99.7235 C   0  0  0  0  0  0  0  0  0  0  0  0
   18.2442   23.3888  100.4785 C   0  0  0  0  0  0  0  0  0  0  0  0
   16.8496   23.0041  100.4089 N   0  0  0  0  0  0  0  0  0  0  0  0
   18.5966   24.3785  101.2741 N   0  0  0  0  0  0  0  0  0  0  0  0
   19.8580   24.7581  101.3623 C   0  0  0  0  0  0  0  0  0  0  0  0
   20.8316   24.1684  100.6681 N   0  0  0  0  0  0  0  0  0  0  0  0
   20.5567   23.1609   99.8446 C   0  0  0  0  0  0  0  0  0  0  0  0
   29.1182   22.8816  101.9579 N   0  0  0  0  0  0  0  0  0  0  0  0
   30.4200   22.8917  102.3343 C   0  0  0  0  0  0  0  0  0  0  0  0
   31.3384   22.2908  101.5621 O   0  0  0  0  0  0  0  0  0  0  0  0
   30.7699   23.4881  103.4607 N   0  0  0  0  0  0  0  0  0  0  0  0
   29.9075   24.1039  104.2206 C   0  0  0  0  0  0  0  0  0  0  0  0
   30.3622   24.6510  105.3554 O   0  0  0  0  0  0  0  0  0  0  0  0
   28.5773   24.0619  103.8957 C   0  0  0  0  0  0  0  0  0  0  0  0
   27.7280   24.6334  104.7154 N   0  0  0  0  0  0  0  0  0  0  0  0
   26.4903   24.8626  104.2659 C   0  0  0  0  0  0  0  0  0  0  0  0
   25.6685   25.6729  105.0252 C   0  0  0  0  0  0  0  0  0  0  0  0
   24.3734   25.9254  104.6029 C   0  0  0  0  0  0  0  0  0  0  0  0
   23.4469   26.8262  105.4471 C   0  0  0  0  0  0  0  0  0  0  0  0
   23.9217   25.3520  103.4049 C   0  0  0  0  0  0  0  0  0  0  0  0
   22.4812   25.6121  102.9038 C   0  0  0  0  0  0  0  0  0  0  0  0
   24.7472   24.5407  102.6510 C   0  0  0  0  0  0  0  0  0  0  0  0
   26.0716   24.2561  103.0618 C   0  0  0  0  0  0  0  0  0  0  0  0
   26.8936   23.5094  102.3791 N   0  0  0  0  0  0  0  0  0  0  0  0
   28.1582   23.4652  102.7293 C   0  0  0  0  0  0  0  0  0  0  0  0
   26.4795   22.8937  101.0671 C   0  0  0  0  0  0  0  0  0  0  0  0
   27.0085   23.6792   99.8779 C   0  0  2  0  0  0  0  0  0  0  0  0
   28.2123   24.0420  100.0864 O   0  0  0  0  0  0  0  0  0  0  0  0
   26.2035   24.8172   99.5627 C   0  0  2  0  0  0  0  0  0  0  0  0
   24.9252   24.5877   99.9453 O   0  0  0  0  0  0  0  0  0  0  0  0
   26.2630   25.1382   98.1720 C   0  0  2  0  0  0  0  0  0  0  0  0
   26.9015   26.2209   97.9095 O   0  0  0  0  0  0  0  0  0  0  0  0
   24.8595   25.3322   97.7303 C   0  0  0  0  0  0  0  0  0  0  0  0
   24.6868   25.8085   96.3853 O   0  0  0  0  0  0  0  0  0  0  0  0
   23.2012   25.5252   95.6232 P   0  0  1  0  0  0  0  0  0  0  0  0
   22.1815   24.9522   96.4792 O   0  0  0  0  0  0  0  0  0  0  0  0
   22.8532   26.9618   94.9246 O   0  0  0  0  0  0  0  0  0  0  0  0
   23.8646   24.4831   94.5720 O   0  0  0  0  0  0  0  0  0  0  0  0
   22.4791   20.9946   95.7323 H   0  0  0  0  0  0  0  0  0  0  0  0
   23.9397   19.9714   95.8962 H   0  0  0  0  0  0  0  0  0  0  0  0
   24.8252   21.7271   97.3551 H   0  0  0  0  0  0  0  0  0  0  0  0
   22.4748   20.0456   97.9836 H   0  0  0  0  0  0  0  0  0  0  0  0
   24.4937   19.4289   99.3747 H   0  0  0  0  0  0  0  0  0  0  0  0
   22.6500   20.8728  100.1471 H   0  0  0  0  0  0  0  0  0  0  0  0
   24.4015   21.7046  100.9307 H   0  0  0  0  0  0  0  0  0  0  0  0
   22.8981   23.3985   99.4796 H   0  0  0  0  0  0  0  0  0  0  0  0
   20.8903   20.7888   97.7207 H   0  0  0  0  0  0  0  0  0  0  0  0
   16.1486   23.5042  100.9741 H   0  0  0  0  0  0  0  0  0  0  0  0
   16.5589   22.2305   99.7943 H   0  0  0  0  0  0  0  0  0  0  0  0
   20.1151   25.5912  102.0331 H   0  0  0  0  0  0  0  0  0  0  0  0
   31.7586   23.4657  103.7485 H   0  0  0  0  0  0  0  0  0  0  0  0
   26.0408   26.1156  105.9608 H   0  0  0  0  0  0  0  0  0  0  0  0
   23.6335   26.6447  106.5159 H   0  0  0  0  0  0  0  0  0  0  0  0
   23.6496   27.8818  105.2135 H   0  0  0  0  0  0  0  0  0  0  0  0
   22.3974   26.5940  105.2135 H   0  0  0  0  0  0  0  0  0  0  0  0
   21.8093   25.7335  103.7662 H   0  0  0  0  0  0  0  0  0  0  0  0
   22.4647   26.5278  102.2944 H   0  0  0  0  0  0  0  0  0  0  0  0
   22.1455   24.7601  102.2944 H   0  0  0  0  0  0  0  0  0  0  0  0
   24.3682   24.1076  101.7135 H   0  0  0  0  0  0  0  0  0  0  0  0
   26.8711   21.8670  101.0172 H   0  0  0  0  0  0  0  0  0  0  0  0
   25.3806   22.9029  101.0190 H   0  0  0  0  0  0  0  0  0  0  0  0
   26.9686   23.0041   99.0103 H   0  0  0  0  0  0  0  0  0  0  0  0
   28.3778   24.0919  101.0612 H   0  0  0  0  0  0  0  0  0  0  0  0
   26.6002   25.6834  100.1125 H   0  0  0  0  0  0  0  0  0  0  0  0
   24.8732   24.5783  100.9338 H   0  0  0  0  0  0  0  0  0  0  0  0
   26.7957   24.3238   97.6593 H   0  0  0  0  0  0  0  0  0  0  0  0
   27.1625   26.6635   98.7557 H   0  0  0  0  0  0  0  0  0  0  0  0
   24.3425   24.3649   97.8148 H   0  0  0  0  0  0  0  0  0  0  0  0
   24.4478   26.1181   98.3806 H   0  0  0  0  0  0  0  0  0  0  0  0
  1  2  2  0
  1  3  1  6
  1  4  1  0
  1 53  1  0
  4  5  1  0
  6  5  1  0
  6  7  1  0
  6  8  1  0
  7 12  1  0
  8  9  1  0
  8 10  1  0
 10 11  1  0
 10 12  1  0
 12 13  1  0
 13 14  1  0
 13 22  1  0
 14 15  2  0
 15 16  1  0
 16 17  2  0
 16 22  1  0
 17 18  1  0
 17 19  1  0
 19 20  2  0
 20 21  1  0
 21 22  2  0
 23 24  1  0
 23 40  2  0
 24 25  2  0
 24 26  1  0
 26 27  1  0
 27 28  2  0
 27 29  1  0
 29 30  2  0
 29 40  1  0
 30 31  1  0
 31 32  1  0
 31 38  2  0
 32 33  2  0
 33 34  1  0
 33 35  1  0
 35 36  1  0
 35 37  2  0
 37 38  1  0
 38 39  1  0
 39 40  1  0
 39 41  1  0
 41 42  1  0
 42 43  1  0
 42 44  1  0
 44 45  1  0
 44 46  1  0
 46 47  1  0
 46 48  1  0
 48 49  1  0
 49 50  1  0
 50 51  2  0
 50 52  1  6
 50 53  1  0
  5 54  1  0
  5 55  1  0
  6 56  1  1
  8 57  1  6
  9 58  1  0
 10 59  1  1
 11 60  1  0
 12 61  1  1
 14 62  1  0
 18 63  1  0
 18 64  1  0
 20 65  1  0
 26 66  1  0
 32 67  1  0
 34 68  1  0
 34 69  1  0
 34 70  1  0
 36 71  1  0
 36 72  1  0
 36 73  1  0
 37 74  1  0
 41 75  1  0
 41 76  1  0
 42 77  1  6
 43 78  1  0
 44 79  1  1
 45 80  1  0
 46 81  1  6
 47 82  1  0
 48 83  1  0
 48 84  1  0
M  CHG  2   3  -1  52  -1
M  END
>  <filename_input>  (11) 
7F8T_FAD_docked.sdf

>  <pdb_id>  (11) 
7F8T_FAD

>  <pose_rank>  (11) 
10

>  <num_atoms_heavy>  (11) 
53

>  <num_torsions>  (11) 
13

>  <pose>  (11) 
[24.68677981140005, 25.80849827377754, 96.38526563831238, 2.1277881306619264, -4.16982142039237, 3.408038971294502, -0.768370975082395, -0.9094553286072276, 0.05556869096766704, 0.6371853532029604, 0.5624795534302568, 2.1824359165346223, 0.4192361290043577, 0.7751910149443676, 0.0904708810952462, -0.7623841715281036, 0.32291668873358614, -0.13774600681229673, -2.8913058829646756]

>  <energy>  (11) 
-726.3407420243268

>  <inter_energy>  (11) 
-941.8352391703539

>  <intra_energy>  (11) 
227.89689971160922

>  <rmsd>  (11) 
4.7163

>  <sdf_rank>  (11) 
0

$$$$

     RDKit          3D

 84 89  0  0  0  0  0  0  0  0999 V2000
   24.1704   24.7251  102.1158 P   0  0  1  0  0  0  0  0  0  0  0  0
   22.8344   24.4268  101.6923 O   0  0  0  0  0  0  0  0  0  0  0  0
   24.1740   25.5863  103.4855 O   0  0  0  0  0  0  0  0  0  0  0  0
   25.0954   23.3372  102.2653 O   0  0  0  0  0  0  0  0  0  0  0  0
   26.1575   23.2938  103.2371 C   0  0  0  0  0  0  0  0  0  0  0  0
   27.3795   22.9805  102.5675 C   0  0  1  0  0  0  0  0  0  0  0  0
   28.2783   24.0540  102.6292 O   0  0  0  0  0  0  0  0  0  0  0  0
   28.0292   21.9429  103.1435 C   0  0  1  0  0  0  0  0  0  0  0  0
   27.4511   20.7017  102.8138 O   0  0  0  0  0  0  0  0  0  0  0  0
   29.3203   22.0857  102.6740 C   0  0  1  0  0  0  0  0  0  0  0  0
   29.4349   21.6136  101.3362 O   0  0  0  0  0  0  0  0  0  0  0  0
   29.5584   23.4220  102.7284 C   0  0  2  0  0  0  0  0  0  0  0  0
   30.1776   23.7547  103.9042 N   0  0  0  0  0  0  0  0  0  0  0  0
   31.3366   23.3448  104.2479 C   0  0  0  0  0  0  0  0  0  0  0  0
   31.6431   23.8576  105.4422 N   0  0  0  0  0  0  0  0  0  0  0  0
   30.5712   24.6367  105.8409 C   0  0  0  0  0  0  0  0  0  0  0  0
   30.2326   25.4263  106.9355 C   0  0  0  0  0  0  0  0  0  0  0  0
   31.1441   25.5849  108.0497 N   0  0  0  0  0  0  0  0  0  0  0  0
   29.0699   26.0460  106.9660 N   0  0  0  0  0  0  0  0  0  0  0  0
   28.2127   25.9238  105.9694 C   0  0  0  0  0  0  0  0  0  0  0  0
   28.4720   25.1840  104.8909 N   0  0  0  0  0  0  0  0  0  0  0  0
   29.6246   24.5289  104.7846 C   0  0  0  0  0  0  0  0  0  0  0  0
   25.6088   21.4531   95.4226 N   0  0  0  0  0  0  0  0  0  0  0  0
   26.5515   22.0320   94.6399 C   0  0  0  0  0  0  0  0  0  0  0  0
   27.7411   21.4317   94.4804 O   0  0  0  0  0  0  0  0  0  0  0  0
   26.2913   23.1844   94.0473 N   0  0  0  0  0  0  0  0  0  0  0  0
   25.1374   23.7812   94.1596 C   0  0  0  0  0  0  0  0  0  0  0  0
   24.9873   24.9598   93.5414 O   0  0  0  0  0  0  0  0  0  0  0  0
   24.1853   23.2494   94.9888 C   0  0  0  0  0  0  0  0  0  0  0  0
   23.0606   23.9084   95.1325 N   0  0  0  0  0  0  0  0  0  0  0  0
   22.0283   23.2616   95.6825 C   0  0  0  0  0  0  0  0  0  0  0  0
   20.7846   23.8594   95.6176 C   0  0  0  0  0  0  0  0  0  0  0  0
   19.6898   23.2296   96.1871 C   0  0  0  0  0  0  0  0  0  0  0  0
   18.2973   23.8922   96.1229 C   0  0  0  0  0  0  0  0  0  0  0  0
   19.8674   21.9898   96.8190 C   0  0  0  0  0  0  0  0  0  0  0  0
   18.6671   21.2589   97.4660 C   0  0  0  0  0  0  0  0  0  0  0  0
   21.1139   21.3980   96.8827 C   0  0  0  0  0  0  0  0  0  0  0  0
   22.2529   22.0218   96.3194 C   0  0  0  0  0  0  0  0  0  0  0  0
   23.4464   21.4981   96.3406 N   0  0  0  0  0  0  0  0  0  0  0  0
   24.3981   22.0465   95.6213 C   0  0  0  0  0  0  0  0  0  0  0  0
   23.6953   20.1529   96.9732 C   0  0  0  0  0  0  0  0  0  0  0  0
   24.6081   20.2540   98.1846 C   0  0  2  0  0  0  0  0  0  0  0  0
   25.5077   19.3524   98.1384 O   0  0  0  0  0  0  0  0  0  0  0  0
   23.8982   20.1718   99.4222 C   0  0  2  0  0  0  0  0  0  0  0  0
   22.7340   19.5070   99.2332 O   0  0  0  0  0  0  0  0  0  0  0  0
   23.6550   21.4646   99.9794 C   0  0  2  0  0  0  0  0  0  0  0  0
   22.4110   21.7541  100.1117 O   0  0  0  0  0  0  0  0  0  0  0  0
   24.2401   22.4429   99.0291 C   0  0  0  0  0  0  0  0  0  0  0  0
   25.0173   23.4991   99.6176 O   0  0  0  0  0  0  0  0  0  0  0  0
   24.6144   25.0975   99.2296 P   0  0  1  0  0  0  0  0  0  0  0  0
   25.5823   25.7798   98.3940 O   0  0  0  0  0  0  0  0  0  0  0  0
   23.0935   24.9736   98.6428 O   0  0  0  0  0  0  0  0  0  0  0  0
   24.6297   25.5489  100.7876 O   0  0  0  0  0  0  0  0  0  0  0  0
   26.2469   24.2724  103.7314 H   0  0  0  0  0  0  0  0  0  0  0  0
   25.9394   22.5281  103.9961 H   0  0  0  0  0  0  0  0  0  0  0  0
   27.0868   22.7401  101.5347 H   0  0  0  0  0  0  0  0  0  0  0  0
   27.9807   21.9550  104.2423 H   0  0  0  0  0  0  0  0  0  0  0  0
   27.2234   20.2128  103.6440 H   0  0  0  0  0  0  0  0  0  0  0  0
   30.0404   21.5037  103.2679 H   0  0  0  0  0  0  0  0  0  0  0  0
   29.6686   20.6516  101.3446 H   0  0  0  0  0  0  0  0  0  0  0  0
   30.2273   23.7460  101.9175 H   0  0  0  0  0  0  0  0  0  0  0  0
   31.9794   22.6768  103.6557 H   0  0  0  0  0  0  0  0  0  0  0  0
   30.8786   26.1729  108.8526 H   0  0  0  0  0  0  0  0  0  0  0  0
   32.0578   25.1096  108.0392 H   0  0  0  0  0  0  0  0  0  0  0  0
   27.2496   26.4515  106.0310 H   0  0  0  0  0  0  0  0  0  0  0  0
   27.0258   23.6266   93.4765 H   0  0  0  0  0  0  0  0  0  0  0  0
   20.6641   24.8309   95.1161 H   0  0  0  0  0  0  0  0  0  0  0  0
   17.9275   24.0682   97.1439 H   0  0  0  0  0  0  0  0  0  0  0  0
   18.3718   24.8514   95.5896 H   0  0  0  0  0  0  0  0  0  0  0  0
   17.6000   23.2293   95.5896 H   0  0  0  0  0  0  0  0  0  0  0  0
   18.7531   21.3113   98.5614 H   0  0  0  0  0  0  0  0  0  0  0  0
   17.7303   21.7401   97.1484 H   0  0  0  0  0  0  0  0  0  0  0  0
   18.6644   20.2058   97.1484 H   0  0  0  0  0  0  0  0  0  0  0  0
   21.2236   20.4233   97.3808 H   0  0  0  0  0  0  0  0  0  0  0  0
   22.7323   19.7250   97.2887 H   0  0  0  0  0  0  0  0  0  0  0  0
   24.1896   19.5127   96.2276 H   0  0  0  0  0  0  0  0  0  0  0  0
   25.0762   21.2487   98.1454 H   0  0  0  0  0  0  0  0  0  0  0  0
   25.7646   19.0950   99.0592 H   0  0  0  0  0  0  0  0  0  0  0  0
   24.5216   19.6208  100.1417 H   0  0  0  0  0  0  0  0  0  0  0  0
   22.3370   19.2803  100.1113 H   0  0  0  0  0  0  0  0  0  0  0  0
   24.0946   21.4865  100.9875 H   0  0  0  0  0  0  0  0  0  0  0  0
   22.1850   21.8067  101.0741 H   0  0  0  0  0  0  0  0  0  0  0  0
   24.8912   21.8912   98.3351 H   0  0  0  0  0  0  0  0  0  0  0  0
   23.3848   22.9362   98.5441 H   0  0  0  0  0  0  0  0  0  0  0  0
  1  2  2  0
  1  3  1  1
  1  4  1  0
  1 53  1  0
  4  5  1  0
  6  5  1  0
  6  7  1  0
  6  8  1  0
  7 12  1  0
  8  9  1  0
  8 10  1  0
 10 11  1  0
 10 12  1  0
 12 13  1  0
 13 14  1  0
 13 22  1  0
 14 15  2  0
 15 16  1  0
 16 17  2  0
 16 22  1  0
 17 18  1  0
 17 19  1  0
 19 20  2  0
 20 21  1  0
 21 22  2  0
 23 24  1  0
 23 40  2  0
 24 25  2  0
 24 26  1  0
 26 27  1  0
 27 28  2  0
 27 29  1  0
 29 30  2  0
 29 40  1  0
 30 31  1  0
 31 32  1  0
 31 38  2  0
 32 33  2  0
 33 34  1  0
 33 35  1  0
 35 36  1  0
 35 37  2  0
 37 38  1  0
 38 39  1  0
 39 40  1  0
 39 41  1  0
 41 42  1  0
 42 43  1  0
 42 44  1  0
 44 45  1  0
 44 46  1  0
 46 47  1  0
 46 48  1  0
 48 49  1  0
 49 50  1  0
 50 51  2  0
 50 52  1  6
 50 53  1  0
  5 54  1  0
  5 55  1  0
  6 56  1  6
  8 57  1  1
  9 58  1  0
 10 59  1  1
 11 60  1  0
 12 61  1  6
 14 62  1  0
 18 63  1  0
 18 64  1  0
 20 65  1  0
 26 66  1  0
 32 67  1  0
 34 68  1  0
 34 69  1  0
 34 70  1  0
 36 71  1  0
 36 72  1  0
 36 73  1  0
 37 74  1  0
 41 75  1  0
 41 76  1  0
 42 77  1  1
 43 78  1  0
 44 79  1  1
 45 80  1  0
 46 81  1  1
 47 82  1  0
 48 83  1  0
 48 84  1  0
M  CHG  2   3  -1  52  -1
M  END
>  <filename_input>  (12) 
7F8T_FAD_docked.sdf

>  <pdb_id>  (12) 
7F8T_FAD

>  <pose_rank>  (12) 
11

>  <num_atoms_heavy>  (12) 
53

>  <num_torsions>  (12) 
13

>  <pose>  (12) 
[25.017297466249474, 23.499063847603733, 99.61762998931235, 1.5023665527699075, -0.22402853082977103, -0.4951867772888619, -46.79005587969725, 27.60387610449476, 59.350104722982664, 19.273071629325965, -100.34664208895775, -53.70417202384751, -22.475863115935827, -29.3203006255468, 0.990059829493742, -9.34480096543883, 13.80648208188951, -3.2034327181389184, 12.193545608176317]

>  <energy>  (12) 
-624.2588889135525

>  <inter_energy>  (12) 
-740.2069974129977

>  <intra_energy>  (12) 
116.98535720708679

>  <rmsd>  (12) 
9.02758

>  <sdf_rank>  (12) 
0

$$$$

     RDKit          3D

 84 89  0  0  0  0  0  0  0  0999 V2000
   23.9077   24.7781  101.1166 P   0  0  1  0  0  0  0  0  0  0  0  0
   23.3546   25.8065  101.9470 O   0  0  0  0  0  0  0  0  0  0  0  0
   23.1076   23.3835  101.2972 O   0  0  0  0  0  0  0  0  0  0  0  0
   23.9643   25.2454   99.5096 O   0  0  0  0  0  0  0  0  0  0  0  0
   25.0453   26.0793   99.0509 C   0  0  0  0  0  0  0  0  0  0  0  0
   25.7705   25.3762   98.0413 C   0  0  1  0  0  0  0  0  0  0  0  0
   25.1672   24.1448   97.7517 O   0  0  0  0  0  0  0  0  0  0  0  0
   25.7914   26.0440   96.8648 C   0  0  1  0  0  0  0  0  0  0  0  0
   26.7078   27.1133   96.8742 O   0  0  0  0  0  0  0  0  0  0  0  0
   26.1130   25.0575   95.9532 C   0  0  1  0  0  0  0  0  0  0  0  0
   27.5050   24.7626   95.9859 O   0  0  0  0  0  0  0  0  0  0  0  0
   25.3891   23.9778   96.3479 C   0  0  2  0  0  0  0  0  0  0  0  0
   24.2008   23.9187   95.6691 N   0  0  0  0  0  0  0  0  0  0  0  0
   24.0182   24.3886   94.4963 C   0  0  0  0  0  0  0  0  0  0  0  0
   22.7550   24.1606   94.1280 N   0  0  0  0  0  0  0  0  0  0  0  0
   22.1358   23.5006   95.1748 C   0  0  0  0  0  0  0  0  0  0  0  0
   20.8740   22.9846   95.4544 C   0  0  0  0  0  0  0  0  0  0  0  0
   19.7999   23.0790   94.4875 N   0  0  0  0  0  0  0  0  0  0  0  0
   20.6446   22.3962   96.6110 N   0  0  0  0  0  0  0  0  0  0  0  0
   21.5989   22.2929   97.5175 C   0  0  0  0  0  0  0  0  0  0  0  0
   22.8295   22.7646   97.3161 N   0  0  0  0  0  0  0  0  0  0  0  0
   23.1402   23.3702   96.1735 C   0  0  0  0  0  0  0  0  0  0  0  0
   30.4982   21.5487   97.8784 N   0  0  0  0  0  0  0  0  0  0  0  0
   30.9262   21.6064   96.5939 C   0  0  0  0  0  0  0  0  0  0  0  0
   32.2381   21.7221   96.3365 O   0  0  0  0  0  0  0  0  0  0  0  0
   30.0463   21.5543   95.6090 N   0  0  0  0  0  0  0  0  0  0  0  0
   28.7676   21.4155   95.8231 C   0  0  0  0  0  0  0  0  0  0  0  0
   27.9590   21.4028   94.7554 O   0  0  0  0  0  0  0  0  0  0  0  0
   28.2998   21.4115   97.1107 C   0  0  0  0  0  0  0  0  0  0  0  0
   27.0029   21.3379   97.2914 N   0  0  0  0  0  0  0  0  0  0  0  0
   26.5634   21.0292   98.5153 C   0  0  0  0  0  0  0  0  0  0  0  0
   25.2262   20.7139   98.6595 C   0  0  0  0  0  0  0  0  0  0  0  0
   24.7260   20.4012   99.9131 C   0  0  0  0  0  0  0  0  0  0  0  0
   23.2324   20.0517  100.0840 C   0  0  0  0  0  0  0  0  0  0  0  0
   25.5932   20.4087  101.0158 C   0  0  0  0  0  0  0  0  0  0  0  0
   25.0684   20.0652  102.4301 C   0  0  0  0  0  0  0  0  0  0  0  0
   26.9290   20.7270  100.8658 C   0  0  0  0  0  0  0  0  0  0  0  0
   27.4669   21.0608   99.5997 C   0  0  0  0  0  0  0  0  0  0  0  0
   28.7219   21.3540   99.4040 N   0  0  0  0  0  0  0  0  0  0  0  0
   29.1714   21.4513   98.1743 C   0  0  0  0  0  0  0  0  0  0  0  0
   29.7102   21.3450  100.5419 C   0  0  0  0  0  0  0  0  0  0  0  0
   30.0695   22.7510  100.9946 C   0  0  2  0  0  0  0  0  0  0  0  0
   31.1587   22.7390  101.6563 O   0  0  0  0  0  0  0  0  0  0  0  0
   29.0362   23.3659  101.7669 C   0  0  2  0  0  0  0  0  0  0  0  0
   28.8208   24.6239  101.3152 O   0  0  0  0  0  0  0  0  0  0  0  0
   29.3532   23.3785  103.1598 C   0  0  2  0  0  0  0  0  0  0  0  0
   29.0406   22.2982  103.7796 O   0  0  0  0  0  0  0  0  0  0  0  0
   28.5570   24.4793  103.7569 C   0  0  0  0  0  0  0  0  0  0  0  0
   27.4634   24.9642  102.9601 O   0  0  0  0  0  0  0  0  0  0  0  0
   25.9404   24.2575  103.1814 P   0  0  1  0  0  0  0  0  0  0  0  0
   25.9571   22.8148  103.3204 O   0  0  0  0  0  0  0  0  0  0  0  0
   25.3038   25.1090  104.4234 O   0  0  0  0  0  0  0  0  0  0  0  0
   25.4110   24.7914  101.7440 O   0  0  0  0  0  0  0  0  0  0  0  0
   24.6407   27.0131   98.6334 H   0  0  0  0  0  0  0  0  0  0  0  0
   25.7129   26.3225   99.8907 H   0  0  0  0  0  0  0  0  0  0  0  0
   26.7859   25.2581   98.4475 H   0  0  0  0  0  0  0  0  0  0  0  0
   24.8373   26.5371   96.6273 H   0  0  0  0  0  0  0  0  0  0  0  0
   26.9186   27.3592   97.8097 H   0  0  0  0  0  0  0  0  0  0  0  0
   25.8877   25.3626   94.9206 H   0  0  0  0  0  0  0  0  0  0  0  0
   27.8067   24.6987   96.9266 H   0  0  0  0  0  0  0  0  0  0  0  0
   25.9195   23.0375   96.1369 H   0  0  0  0  0  0  0  0  0  0  0  0
   24.7787   24.8991   93.8872 H   0  0  0  0  0  0  0  0  0  0  0  0
   18.8715   22.6921   94.7096 H   0  0  0  0  0  0  0  0  0  0  0  0
   19.9644   23.5331   93.5777 H   0  0  0  0  0  0  0  0  0  0  0  0
   21.3703   21.7997   98.4738 H   0  0  0  0  0  0  0  0  0  0  0  0
   30.3826   21.6259   94.6381 H   0  0  0  0  0  0  0  0  0  0  0  0
   24.5616   20.7110   97.7830 H   0  0  0  0  0  0  0  0  0  0  0  0
   22.9894   19.9948  101.1554 H   0  0  0  0  0  0  0  0  0  0  0  0
   22.6170   20.8301   99.6093 H   0  0  0  0  0  0  0  0  0  0  0  0
   23.0262   19.0811   99.6093 H   0  0  0  0  0  0  0  0  0  0  0  0
   25.7373   20.5029  103.1857 H   0  0  0  0  0  0  0  0  0  0  0  0
   24.0556   20.4758  102.5550 H   0  0  0  0  0  0  0  0  0  0  0  0
   25.0392   18.9727  102.5550 H   0  0  0  0  0  0  0  0  0  0  0  0
   27.5873   20.7210  101.7471 H   0  0  0  0  0  0  0  0  0  0  0  0
   29.2703   20.8002  101.3902 H   0  0  0  0  0  0  0  0  0  0  0  0
   30.6302   20.8558  100.1893 H   0  0  0  0  0  0  0  0  0  0  0  0
   30.1948   23.3541  100.0832 H   0  0  0  0  0  0  0  0  0  0  0  0
   30.9561   22.7412  102.6253 H   0  0  0  0  0  0  0  0  0  0  0  0
   28.1175   22.7724  101.6490 H   0  0  0  0  0  0  0  0  0  0  0  0
   28.7158   25.2375  102.0850 H   0  0  0  0  0  0  0  0  0  0  0  0
   30.4425   23.4962  103.2577 H   0  0  0  0  0  0  0  0  0  0  0  0
   29.0855   22.4533  104.7563 H   0  0  0  0  0  0  0  0  0  0  0  0
   28.1454   24.1189  104.7112 H   0  0  0  0  0  0  0  0  0  0  0  0
   29.2501   25.3272  103.8601 H   0  0  0  0  0  0  0  0  0  0  0  0
  1  2  2  0
  1  3  1  6
  1  4  1  0
  1 53  1  0
  4  5  1  0
  6  5  1  0
  6  7  1  0
  6  8  1  0
  7 12  1  0
  8  9  1  0
  8 10  1  0
 10 11  1  0
 10 12  1  0
 12 13  1  0
 13 14  1  0
 13 22  1  0
 14 15  2  0
 15 16  1  0
 16 17  2  0
 16 22  1  0
 17 18  1  0
 17 19  1  0
 19 20  2  0
 20 21  1  0
 21 22  2  0
 23 24  1  0
 23 40  2  0
 24 25  2  0
 24 26  1  0
 26 27  1  0
 27 28  2  0
 27 29  1  0
 29 30  2  0
 29 40  1  0
 30 31  1  0
 31 32  1  0
 31 38  2  0
 32 33  2  0
 33 34  1  0
 33 35  1  0
 35 36  1  0
 35 37  2  0
 37 38  1  0
 38 39  1  0
 39 40  1  0
 39 41  1  0
 41 42  1  0
 42 43  1  0
 42 44  1  0
 44 45  1  0
 44 46  1  0
 46 47  1  0
 46 48  1  0
 48 49  1  0
 49 50  1  0
 50 51  2  0
 50 52  1  1
 50 53  1  0
  5 54  1  0
  5 55  1  0
  6 56  1  1
  8 57  1  6
  9 58  1  0
 10 59  1  6
 11 60  1  0
 12 61  1  1
 14 62  1  0
 18 63  1  0
 18 64  1  0
 20 65  1  0
 26 66  1  0
 32 67  1  0
 34 68  1  0
 34 69  1  0
 34 70  1  0
 36 71  1  0
 36 72  1  0
 36 73  1  0
 37 74  1  0
 41 75  1  0
 41 76  1  0
 42 77  1  6
 43 78  1  0
 44 79  1  1
 45 80  1  0
 46 81  1  6
 47 82  1  0
 48 83  1  0
 48 84  1  0
M  CHG  2   3  -1  52  -1
M  END
>  <filename_input>  (13) 
7F8T_FAD_docked.sdf

>  <pdb_id>  (13) 
7F8T_FAD

>  <pose_rank>  (13) 
12

>  <num_atoms_heavy>  (13) 
53

>  <num_torsions>  (13) 
13

>  <pose>  (13) 
[27.463362732793012, 24.96417435284353, 102.96012063074835, -0.14409745821102274, 1.0151793642133176, 0.11493656211574685, -7.906232408733052, 0.12228201707216961, -1.252683457220805, 4.455875537752476, -8.14968861106794, -11.65299956132421, 2.0387298492913897, -0.38688087777597946, 3.6356931696351973, -0.3290667523054389, 4.77292744742015, 2.605559951044297, 6.105175676575415]

>  <energy>  (13) 
-761.0934401917635

>  <inter_energy>  (13) 
-880.9391679143735

>  <intra_energy>  (13) 
119.52296542180002

>  <rmsd>  (13) 
7.42667

>  <sdf_rank>  (13) 
0

$$$$

     RDKit          3D

 84 89  0  0  0  0  0  0  0  0999 V2000
   21.8933   23.8183   99.0481 P   0  0  1  0  0  0  0  0  0  0  0  0
   20.6930   23.4489   98.3582 O   0  0  0  0  0  0  0  0  0  0  0  0
   22.5518   22.5477   99.8028 O   0  0  0  0  0  0  0  0  0  0  0  0
   22.9927   24.5563   98.0230 O   0  0  0  0  0  0  0  0  0  0  0  0
   24.3853   24.1970   98.0990 C   0  0  0  0  0  0  0  0  0  0  0  0
   24.7904   23.6611   96.8386 C   0  0  1  0  0  0  0  0  0  0  0  0
   24.2587   22.3794   96.6410 O   0  0  0  0  0  0  0  0  0  0  0  0
   24.3351   24.3961   95.7980 C   0  0  1  0  0  0  0  0  0  0  0  0
   25.0799   25.5767   95.6120 O   0  0  0  0  0  0  0  0  0  0  0  0
   24.4272   23.5194   94.7346 C   0  0  1  0  0  0  0  0  0  0  0  0
   25.7688   23.4138   94.2714 O   0  0  0  0  0  0  0  0  0  0  0  0
   24.0019   22.3298   95.2341 C   0  0  2  0  0  0  0  0  0  0  0  0
   22.6662   22.1523   94.9874 N   0  0  0  0  0  0  0  0  0  0  0  0
   22.1140   21.0168   94.7993 C   0  0  0  0  0  0  0  0  0  0  0  0
   20.8071   21.1973   94.5928 N   0  0  0  0  0  0  0  0  0  0  0  0
   20.5654   22.5580   94.6624 C   0  0  0  0  0  0  0  0  0  0  0  0
   19.4706   23.4091   94.5454 C   0  0  0  0  0  0  0  0  0  0  0  0
   18.1459   22.8864   94.2821 N   0  0  0  0  0  0  0  0  0  0  0  0
   19.6309   24.7103   94.6786 N   0  0  0  0  0  0  0  0  0  0  0  0
   20.8237   25.2232   94.9175 C   0  0  0  0  0  0  0  0  0  0  0  0
   21.9147   24.4670   95.0413 N   0  0  0  0  0  0  0  0  0  0  0  0
   21.8350   23.1448   94.9216 C   0  0  0  0  0  0  0  0  0  0  0  0
   27.8201   23.8155   99.0338 N   0  0  0  0  0  0  0  0  0  0  0  0
   28.4521   23.3108   97.9465 C   0  0  0  0  0  0  0  0  0  0  0  0
   27.9022   23.4591   96.7314 O   0  0  0  0  0  0  0  0  0  0  0  0
   29.6000   22.6726   98.0955 N   0  0  0  0  0  0  0  0  0  0  0  0
   30.1747   22.5337   99.2576 C   0  0  0  0  0  0  0  0  0  0  0  0
   31.3225   21.8448   99.3022 O   0  0  0  0  0  0  0  0  0  0  0  0
   29.5326   22.9832  100.3812 C   0  0  0  0  0  0  0  0  0  0  0  0
   30.1054   22.7688  101.5414 N   0  0  0  0  0  0  0  0  0  0  0  0
   29.6521   23.4569  102.5938 C   0  0  0  0  0  0  0  0  0  0  0  0
   30.3967   23.4209  103.7567 C   0  0  0  0  0  0  0  0  0  0  0  0
   29.9560   24.1089  104.8756 C   0  0  0  0  0  0  0  0  0  0  0  0
   30.7796   24.0708  106.1805 C   0  0  0  0  0  0  0  0  0  0  0  0
   28.7573   24.8341  104.8032 C   0  0  0  0  0  0  0  0  0  0  0  0
   28.2351   25.6132  106.0336 C   0  0  0  0  0  0  0  0  0  0  0  0
   28.0157   24.8645  103.6382 C   0  0  0  0  0  0  0  0  0  0  0  0
   28.4349   24.1633  102.4821 C   0  0  0  0  0  0  0  0  0  0  0  0
   27.7787   24.1725  101.3558 N   0  0  0  0  0  0  0  0  0  0  0  0
   28.3416   23.6645  100.2839 C   0  0  0  0  0  0  0  0  0  0  0  0
   26.5031   24.9609  101.2041 C   0  0  0  0  0  0  0  0  0  0  0  0
   25.3860   24.4086  102.0746 C   0  0  2  0  0  0  0  0  0  0  0  0
   25.1984   23.1731  101.8241 O   0  0  0  0  0  0  0  0  0  0  0  0
   24.1602   25.1280  101.9264 C   0  0  2  0  0  0  0  0  0  0  0  0
   24.3489   26.1772  101.0917 O   0  0  0  0  0  0  0  0  0  0  0  0
   23.6516   25.5716  103.1856 C   0  0  2  0  0  0  0  0  0  0  0  0
   23.9634   24.8141  104.1744 O   0  0  0  0  0  0  0  0  0  0  0  0
   22.1726   25.5573  103.0642 C   0  0  0  0  0  0  0  0  0  0  0  0
   21.6144   24.4456  102.3443 O   0  0  0  0  0  0  0  0  0  0  0  0
   20.2843   24.7346  101.3367 P   0  0  1  0  0  0  0  0  0  0  0  0
   19.3477   23.6327  101.2400 O   0  0  0  0  0  0  0  0  0  0  0  0
   19.6935   26.1563  101.8867 O   0  0  0  0  0  0  0  0  0  0  0  0
   21.2307   24.9329  100.0343 O   0  0  0  0  0  0  0  0  0  0  0  0
   24.9854   25.0890   98.3319 H   0  0  0  0  0  0  0  0  0  0  0  0
   24.5361   23.4478   98.8903 H   0  0  0  0  0  0  0  0  0  0  0  0
   25.8899   23.6566   96.8692 H   0  0  0  0  0  0  0  0  0  0  0  0
   23.3107   24.7693   95.9439 H   0  0  0  0  0  0  0  0  0  0  0  0
   25.3202   25.9577   96.4936 H   0  0  0  0  0  0  0  0  0  0  0  0
   23.8301   23.8536   93.8733 H   0  0  0  0  0  0  0  0  0  0  0  0
   26.3827   23.3654   95.0466 H   0  0  0  0  0  0  0  0  0  0  0  0
   24.5243   21.4843   94.7627 H   0  0  0  0  0  0  0  0  0  0  0  0
   22.6314   20.0461   94.8062 H   0  0  0  0  0  0  0  0  0  0  0  0
   17.3458   23.5295   94.1982 H   0  0  0  0  0  0  0  0  0  0  0  0
   18.0039   21.8715   94.1786 H   0  0  0  0  0  0  0  0  0  0  0  0
   20.9210   26.3143   95.0181 H   0  0  0  0  0  0  0  0  0  0  0  0
   30.0566   22.2709   97.2642 H   0  0  0  0  0  0  0  0  0  0  0  0
   31.3354   22.8486  103.7942 H   0  0  0  0  0  0  0  0  0  0  0  0
   30.0995   24.1022  107.0444 H   0  0  0  0  0  0  0  0  0  0  0  0
   31.3717   23.1443  106.2134 H   0  0  0  0  0  0  0  0  0  0  0  0
   31.4546   24.9387  106.2134 H   0  0  0  0  0  0  0  0  0  0  0  0
   28.5705   25.1127  106.9539 H   0  0  0  0  0  0  0  0  0  0  0  0
   28.6279   26.6405  106.0108 H   0  0  0  0  0  0  0  0  0  0  0  0
   27.1357   25.6405  106.0108 H   0  0  0  0  0  0  0  0  0  0  0  0
   27.0816   25.4447  103.6083 H   0  0  0  0  0  0  0  0  0  0  0  0
   26.6945   26.0052  101.4919 H   0  0  0  0  0  0  0  0  0  0  0  0
   26.1826   24.8903  100.1542 H   0  0  0  0  0  0  0  0  0  0  0  0
   25.7091   24.5312  103.1189 H   0  0  0  0  0  0  0  0  0  0  0  0
   25.1223   22.6718  102.6744 H   0  0  0  0  0  0  0  0  0  0  0  0
   23.4107   24.4479  101.4956 H   0  0  0  0  0  0  0  0  0  0  0  0
   24.4968   26.9993  101.6231 H   0  0  0  0  0  0  0  0  0  0  0  0
   24.0841   26.5610  103.3955 H   0  0  0  0  0  0  0  0  0  0  0  0
   23.7700   25.2841  105.0240 H   0  0  0  0  0  0  0  0  0  0  0  0
   21.7508   25.5475  104.0801 H   0  0  0  0  0  0  0  0  0  0  0  0
   21.9123   26.4524  102.4801 H   0  0  0  0  0  0  0  0  0  0  0  0
  1  2  2  0
  1  3  1  1
  1  4  1  0
  1 53  1  0
  4  5  1  0
  6  5  1  0
  6  7  1  0
  6  8  1  0
  7 12  1  0
  8  9  1  0
  8 10  1  0
 10 11  1  0
 10 12  1  0
 12 13  1  0
 13 14  1  0
 13 22  1  0
 14 15  2  0
 15 16  1  0
 16 17  2  0
 16 22  1  0
 17 18  1  0
 17 19  1  0
 19 20  2  0
 20 21  1  0
 21 22  2  0
 23 24  1  0
 23 40  2  0
 24 25  2  0
 24 26  1  0
 26 27  1  0
 27 28  2  0
 27 29  1  0
 29 30  2  0
 29 40  1  0
 30 31  1  0
 31 32  1  0
 31 38  2  0
 32 33  2  0
 33 34  1  0
 33 35  1  0
 35 36  1  0
 35 37  2  0
 37 38  1  0
 38 39  1  0
 39 40  1  0
 39 41  1  0
 41 42  1  0
 42 43  1  0
 42 44  1  0
 44 45  1  0
 44 46  1  0
 46 47  1  0
 46 48  1  0
 48 49  1  0
 49 50  1  0
 50 51  2  0
 50 52  1  1
 50 53  1  0
  5 54  1  0
  5 55  1  0
  6 56  1  1
  8 57  1  1
  9 58  1  0
 10 59  1  6
 11 60  1  0
 12 61  1  6
 14 62  1  0
 18 63  1  0
 18 64  1  0
 20 65  1  0
 26 66  1  0
 32 67  1  0
 34 68  1  0
 34 69  1  0
 34 70  1  0
 36 71  1  0
 36 72  1  0
 36 73  1  0
 37 74  1  0
 41 75  1  0
 41 76  1  0
 42 77  1  1
 43 78  1  0
 44 79  1  6
 45 80  1  0
 46 81  1  1
 47 82  1  0
 48 83  1  0
 48 84  1  0
M  CHG  2   3  -1  52  -1
M  END
>  <filename_input>  (14) 
7F8T_FAD_docked.sdf

>  <pdb_id>  (14) 
7F8T_FAD

>  <pose_rank>  (14) 
13

>  <num_atoms_heavy>  (14) 
53

>  <num_torsions>  (14) 
13

>  <pose>  (14) 
[21.614388508788423, 24.44560373114062, 102.34429349026402, -1.4012864272901726, 0.024581861892145694, -1.7276165306719011, 2.8217803612156986, 4.533994393505309, -1.228588312933753, 0.6506087119456292, 4.42062395115523, -0.4209115603867106, -2.137406097318449, 1.8237735713316572, -2.2450233324157978, 0.6337447328347172, 0.7488839551696899, 4.448132599278075, 0.4893265598113822]

>  <energy>  (14) 
-747.5999810375522

>  <inter_energy>  (14) 
-872.3687385883902

>  <intra_energy>  (14) 
129.1227590022871

>  <rmsd>  (14) 
5.96873

>  <sdf_rank>  (14) 
0

$$$$

     RDKit          3D

 84 89  0  0  0  0  0  0  0  0999 V2000
   23.9909   22.3225   99.2863 P   0  0  1  0  0  0  0  0  0  0  0  0
   25.1970   22.7330   98.6306 O   0  0  0  0  0  0  0  0  0  0  0  0
   23.7157   20.7423   99.0746 O   0  0  0  0  0  0  0  0  0  0  0  0
   24.0025   22.7275  100.9111 O   0  0  0  0  0  0  0  0  0  0  0  0
   23.1604   23.7970  101.3817 C   0  0  0  0  0  0  0  0  0  0  0  0
   23.7733   24.3941  102.5252 C   0  0  1  0  0  0  0  0  0  0  0  0
   24.5201   23.4529  103.2467 O   0  0  0  0  0  0  0  0  0  0  0  0
   24.6568   25.3616  102.1878 C   0  0  1  0  0  0  0  0  0  0  0  0
   24.0191   26.5617  101.8183 O   0  0  0  0  0  0  0  0  0  0  0  0
   25.4331   25.4833  103.3237 C   0  0  1  0  0  0  0  0  0  0  0  0
   24.7598   26.2349  104.3273 O   0  0  0  0  0  0  0  0  0  0  0  0
   25.6324   24.2057  103.7404 C   0  0  2  0  0  0  0  0  0  0  0  0
   26.8121   23.7151  103.2463 N   0  0  0  0  0  0  0  0  0  0  0  0
   26.9196   23.0671  102.1517 C   0  0  0  0  0  0  0  0  0  0  0  0
   28.2007   22.7413  101.9629 N   0  0  0  0  0  0  0  0  0  0  0  0
   28.9129   23.2375  103.0407 C   0  0  0  0  0  0  0  0  0  0  0  0
   30.2365   23.2571  103.4695 C   0  0  0  0  0  0  0  0  0  0  0  0
   31.2827   22.6340  102.6854 N   0  0  0  0  0  0  0  0  0  0  0  0
   30.5532   23.8522  104.6018 N   0  0  0  0  0  0  0  0  0  0  0  0
   29.6263   24.4295  105.3440 C   0  0  0  0  0  0  0  0  0  0  0  0
   28.3400   24.4482  104.9937 N   0  0  0  0  0  0  0  0  0  0  0  0
   27.9410   23.8705  103.8641 C   0  0  0  0  0  0  0  0  0  0  0  0
   28.0450   21.5244   98.0731 N   0  0  0  0  0  0  0  0  0  0  0  0
   28.0200   20.4068   98.8391 C   0  0  0  0  0  0  0  0  0  0  0  0
   26.9833   20.1907   99.6634 O   0  0  0  0  0  0  0  0  0  0  0  0
   29.0198   19.5450   98.7704 N   0  0  0  0  0  0  0  0  0  0  0  0
   30.0289   19.7109   97.9615 C   0  0  0  0  0  0  0  0  0  0  0  0
   31.0034   18.7925   97.9910 O   0  0  0  0  0  0  0  0  0  0  0  0
   30.1099   20.8580   97.2170 C   0  0  0  0  0  0  0  0  0  0  0  0
   31.1702   21.0260   96.4636 N   0  0  0  0  0  0  0  0  0  0  0  0
   31.1179   21.9718   95.5206 C   0  0  0  0  0  0  0  0  0  0  0  0
   32.1236   21.9946   94.5740 C   0  0  0  0  0  0  0  0  0  0  0  0
   32.1154   22.9667   93.5869 C   0  0  0  0  0  0  0  0  0  0  0  0
   33.2374   23.0022   92.5276 C   0  0  0  0  0  0  0  0  0  0  0  0
   31.0785   23.9115   93.5675 C   0  0  0  0  0  0  0  0  0  0  0  0
   31.0383   25.0113   92.4801 C   0  0  0  0  0  0  0  0  0  0  0  0
   30.0766   23.8851   94.5181 C   0  0  0  0  0  0  0  0  0  0  0  0
   30.0638   22.9107   95.5448 C   0  0  0  0  0  0  0  0  0  0  0  0
   29.1340   22.8349   96.4553 N   0  0  0  0  0  0  0  0  0  0  0  0
   29.0924   21.7835   97.2406 C   0  0  0  0  0  0  0  0  0  0  0  0
   27.9752   23.7987   96.4672 C   0  0  0  0  0  0  0  0  0  0  0  0
   26.7494   23.2231   95.7765 C   0  0  2  0  0  0  0  0  0  0  0  0
   27.0887   22.2932   94.9737 O   0  0  0  0  0  0  0  0  0  0  0  0
   25.9880   24.2133   95.0822 C   0  0  2  0  0  0  0  0  0  0  0  0
   25.7776   25.2752   95.8953 O   0  0  0  0  0  0  0  0  0  0  0  0
   24.7468   23.6892   94.6072 C   0  0  2  0  0  0  0  0  0  0  0  0
   24.3022   24.2679   93.5506 O   0  0  0  0  0  0  0  0  0  0  0  0
   23.7577   23.9193   95.6893 C   0  0  0  0  0  0  0  0  0  0  0  0
   23.0609   22.7531   96.1587 O   0  0  0  0  0  0  0  0  0  0  0  0
   21.8707   22.9587   97.3457 P   0  0  1  0  0  0  0  0  0  0  0  0
   20.9238   24.0222   97.0753 O   0  0  0  0  0  0  0  0  0  0  0  0
   21.2555   21.4553   97.5306 O   0  0  0  0  0  0  0  0  0  0  0  0
   22.9727   23.3087   98.4834 O   0  0  0  0  0  0  0  0  0  0  0  0
   23.0422   24.5508  100.5893 H   0  0  0  0  0  0  0  0  0  0  0  0
   22.1696   23.4025  101.6510 H   0  0  0  0  0  0  0  0  0  0  0  0
   22.9406   24.8063  103.1141 H   0  0  0  0  0  0  0  0  0  0  0  0
   25.2545   25.1142  101.2981 H   0  0  0  0  0  0  0  0  0  0  0  0
   23.7548   27.0591  102.6325 H   0  0  0  0  0  0  0  0  0  0  0  0
   26.3755   26.0139  103.1228 H   0  0  0  0  0  0  0  0  0  0  0  0
   25.0428   25.9190  105.2218 H   0  0  0  0  0  0  0  0  0  0  0  0
   25.7004   24.1448  104.8366 H   0  0  0  0  0  0  0  0  0  0  0  0
   26.0905   22.8175  101.4733 H   0  0  0  0  0  0  0  0  0  0  0  0
   32.2577   22.6572  103.0165 H   0  0  0  0  0  0  0  0  0  0  0  0
   31.0516   22.1677  101.7965 H   0  0  0  0  0  0  0  0  0  0  0  0
   29.9262   24.9127  106.2856 H   0  0  0  0  0  0  0  0  0  0  0  0
   29.0011   18.7130   99.3773 H   0  0  0  0  0  0  0  0  0  0  0  0
   32.9275   21.2443   94.6038 H   0  0  0  0  0  0  0  0  0  0  0  0
   34.2154   23.0330   93.0303 H   0  0  0  0  0  0  0  0  0  0  0  0
   33.1766   22.1017   91.8988 H   0  0  0  0  0  0  0  0  0  0  0  0
   33.1200   23.8971   91.8988 H   0  0  0  0  0  0  0  0  0  0  0  0
   31.0022   26.0004   92.9601 H   0  0  0  0  0  0  0  0  0  0  0  0
   31.9396   24.9405   91.8535 H   0  0  0  0  0  0  0  0  0  0  0  0
   30.1445   24.8750   91.8535 H   0  0  0  0  0  0  0  0  0  0  0  0
   29.2735   24.6356   94.4765 H   0  0  0  0  0  0  0  0  0  0  0  0
   27.7181   24.0322   97.5109 H   0  0  0  0  0  0  0  0  0  0  0  0
   28.2800   24.7034   95.9208 H   0  0  0  0  0  0  0  0  0  0  0  0
   26.1038   22.8141   96.5676 H   0  0  0  0  0  0  0  0  0  0  0  0
   27.3780   21.5000   95.4907 H   0  0  0  0  0  0  0  0  0  0  0  0
   26.5623   24.5353   94.2010 H   0  0  0  0  0  0  0  0  0  0  0  0
   25.8352   24.9841   96.8398 H   0  0  0  0  0  0  0  0  0  0  0  0
   24.9034   22.6318   94.3474 H   0  0  0  0  0  0  0  0  0  0  0  0
   23.7199   25.0255   93.8096 H   0  0  0  0  0  0  0  0  0  0  0  0
   24.2898   24.3614   96.5444 H   0  0  0  0  0  0  0  0  0  0  0  0
   22.9869   24.5731   95.2551 H   0  0  0  0  0  0  0  0  0  0  0  0
  1  2  2  0
  1  3  1  1
  1  4  1  0
  1 53  1  0
  4  5  1  0
  6  5  1  0
  6  7  1  0
  6  8  1  0
  7 12  1  0
  8  9  1  0
  8 10  1  0
 10 11  1  0
 10 12  1  0
 12 13  1  0
 13 14  1  0
 13 22  1  0
 14 15  2  0
 15 16  1  0
 16 17  2  0
 16 22  1  0
 17 18  1  0
 17 19  1  0
 19 20  2  0
 20 21  1  0
 21 22  2  0
 23 24  1  0
 23 40  2  0
 24 25  2  0
 24 26  1  0
 26 27  1  0
 27 28  2  0
 27 29  1  0
 29 30  2  0
 29 40  1  0
 30 31  1  0
 31 32  1  0
 31 38  2  0
 32 33  2  0
 33 34  1  0
 33 35  1  0
 35 36  1  0
 35 37  2  0
 37 38  1  0
 38 39  1  0
 39 40  1  0
 39 41  1  0
 41 42  1  0
 42 43  1  0
 42 44  1  0
 44 45  1  0
 44 46  1  0
 46 47  1  0
 46 48  1  0
 48 49  1  0
 49 50  1  0
 50 51  2  0
 50 52  1  1
 50 53  1  0
  5 54  1  0
  5 55  1  0
  6 56  1  1
  8 57  1  6
  9 58  1  0
 10 59  1  6
 11 60  1  0
 12 61  1  1
 14 62  1  0
 18 63  1  0
 18 64  1  0
 20 65  1  0
 26 66  1  0
 32 67  1  0
 34 68  1  0
 34 69  1  0
 34 70  1  0
 36 71  1  0
 36 72  1  0
 36 73  1  0
 37 74  1  0
 41 75  1  0
 41 76  1  0
 42 77  1  1
 43 78  1  0
 44 79  1  6
 45 80  1  0
 46 81  1  6
 47 82  1  0
 48 83  1  0
 48 84  1  0
M  CHG  2   3  -1  52  -1
M  END
>  <filename_input>  (15) 
7F8T_FAD_docked.sdf

>  <pdb_id>  (15) 
7F8T_FAD

>  <pose_rank>  (15) 
14

>  <num_atoms_heavy>  (15) 
53

>  <num_torsions>  (15) 
13

>  <pose>  (15) 
[23.060896837383794, 22.753092329771594, 96.15867746174169, 3.6154177795636615, -1.065485330572126, 0.5597557985665493, -0.049764510949617896, 1.7795279653129776, -0.6342574541129878, -1.3640455901109338, -0.3011715979411046, 0.30891238435539514, -0.05894251355922149, 1.203746972511848, 1.1742764575139202, -1.4931403600899698, -0.03682445160335573, -1.2503052282446394, -2.9591559523204336]

>  <energy>  (15) 
-772.9461915090088

>  <inter_energy>  (15) 
-834.4880404633001

>  <intra_energy>  (15) 
62.466425330430795

>  <rmsd>  (15) 
7.59347

>  <sdf_rank>  (15) 
0

$$$$

     RDKit          3D

 84 89  0  0  0  0  0  0  0  0999 V2000
   24.9969   23.1093  101.0446 P   0  0  1  0  0  0  0  0  0  0  0  0
   23.8861   23.4855  101.8679 O   0  0  0  0  0  0  0  0  0  0  0  0
   25.1737   24.1241   99.7970 O   0  0  0  0  0  0  0  0  0  0  0  0
   26.4102   22.9833  101.9338 O   0  0  0  0  0  0  0  0  0  0  0  0
   27.6804   23.0164  101.2557 C   0  0  0  0  0  0  0  0  0  0  0  0
   28.6617   23.5502  102.1456 C   0  0  1  0  0  0  0  0  0  0  0  0
   28.3086   24.8374  102.5728 O   0  0  0  0  0  0  0  0  0  0  0  0
   28.7770   22.8214  103.2797 C   0  0  1  0  0  0  0  0  0  0  0  0
   29.5064   21.6336  103.0791 O   0  0  0  0  0  0  0  0  0  0  0  0
   29.3916   23.6988  104.1516 C   0  0  1  0  0  0  0  0  0  0  0  0
   30.7871   23.7916  103.8874 O   0  0  0  0  0  0  0  0  0  0  0  0
   28.7841   24.8919  103.9214 C   0  0  2  0  0  0  0  0  0  0  0  0
   27.7483   25.0833  104.7972 N   0  0  0  0  0  0  0  0  0  0  0  0
   27.8004   24.8114  106.0434 C   0  0  0  0  0  0  0  0  0  0  0  0
   26.6295   25.1213  106.6057 N   0  0  0  0  0  0  0  0  0  0  0  0
   25.8128   25.6173  105.6047 C   0  0  0  0  0  0  0  0  0  0  0  0
   24.5152   26.1073  105.4931 C   0  0  0  0  0  0  0  0  0  0  0  0
   23.6487   26.1912  106.6506 N   0  0  0  0  0  0  0  0  0  0  0  0
   24.0606   26.5071  104.3226 N   0  0  0  0  0  0  0  0  0  0  0  0
   24.8210   26.4441  103.2451 C   0  0  0  0  0  0  0  0  0  0  0  0
   26.0725   25.9859  103.2799 N   0  0  0  0  0  0  0  0  0  0  0  0
   26.6043   25.5652  104.4240 C   0  0  0  0  0  0  0  0  0  0  0  0
   26.6353   25.8289   96.7872 N   0  0  0  0  0  0  0  0  0  0  0  0
   26.8566   27.1184   97.1400 C   0  0  0  0  0  0  0  0  0  0  0  0
   28.1044   27.6110   97.1045 O   0  0  0  0  0  0  0  0  0  0  0  0
   25.8421   27.8750   97.5211 N   0  0  0  0  0  0  0  0  0  0  0  0
   24.6144   27.4362   97.5418 C   0  0  0  0  0  0  0  0  0  0  0  0
   23.6639   28.2762   97.9720 O   0  0  0  0  0  0  0  0  0  0  0  0
   24.3670   26.1218   97.2453 C   0  0  0  0  0  0  0  0  0  0  0  0
   23.1307   25.6944   97.3402 N   0  0  0  0  0  0  0  0  0  0  0  0
   22.8338   24.5225   96.7701 C   0  0  0  0  0  0  0  0  0  0  0  0
   21.5002   24.1816   96.6542 C   0  0  0  0  0  0  0  0  0  0  0  0
   21.1487   22.9698   96.0819 C   0  0  0  0  0  0  0  0  0  0  0  0
   19.6611   22.5790   95.9521 C   0  0  0  0  0  0  0  0  0  0  0  0
   22.1600   22.1105   95.6269 C   0  0  0  0  0  0  0  0  0  0  0  0
   21.8034   20.7495   94.9834 C   0  0  0  0  0  0  0  0  0  0  0  0
   23.4920   22.4558   95.7476 C   0  0  0  0  0  0  0  0  0  0  0  0
   23.8824   23.6821   96.3371 C   0  0  0  0  0  0  0  0  0  0  0  0
   25.1239   24.0598   96.4607 N   0  0  0  0  0  0  0  0  0  0  0  0
   25.3833   25.2923   96.8315 C   0  0  0  0  0  0  0  0  0  0  0  0
   26.2538   23.1971   95.9598 C   0  0  0  0  0  0  0  0  0  0  0  0
   27.1511   22.7217   97.0910 C   0  0  2  0  0  0  0  0  0  0  0  0
   28.3761   22.8009   96.7483 O   0  0  0  0  0  0  0  0  0  0  0  0
   26.8487   21.3915   97.5171 C   0  0  2  0  0  0  0  0  0  0  0  0
   25.5226   21.2872   97.7692 O   0  0  0  0  0  0  0  0  0  0  0  0
   27.6106   21.0182   98.6664 C   0  0  2  0  0  0  0  0  0  0  0  0
   28.7406   20.4728   98.3932 O   0  0  0  0  0  0  0  0  0  0  0  0
   26.7972   20.0134   99.3952 C   0  0  0  0  0  0  0  0  0  0  0  0
   26.4793   20.3359  100.7594 O   0  0  0  0  0  0  0  0  0  0  0  0
   24.8703   20.1763  101.2628 P   0  0  1  0  0  0  0  0  0  0  0  0
   24.1628   19.0529  100.6811 O   0  0  0  0  0  0  0  0  0  0  0  0
   24.9775   20.2135  102.8937 O   0  0  0  0  0  0  0  0  0  0  0  0
   24.4655   21.6214  100.6472 O   0  0  0  0  0  0  0  0  0  0  0  0
   27.9670   21.9973  100.9570 H   0  0  0  0  0  0  0  0  0  0  0  0
   27.6084   23.6459  100.3565 H   0  0  0  0  0  0  0  0  0  0  0  0
   29.6012   23.5434  101.5735 H   0  0  0  0  0  0  0  0  0  0  0  0
   27.8123   22.4583  103.6637 H   0  0  0  0  0  0  0  0  0  0  0  0
   29.7469   21.2420  103.9560 H   0  0  0  0  0  0  0  0  0  0  0  0
   29.2980   23.3720  105.1977 H   0  0  0  0  0  0  0  0  0  0  0  0
   31.2835   23.8246  104.7433 H   0  0  0  0  0  0  0  0  0  0  0  0
   29.4783   25.7327  104.0660 H   0  0  0  0  0  0  0  0  0  0  0  0
   28.6697   24.3899  106.5693 H   0  0  0  0  0  0  0  0  0  0  0  0
   22.6907   26.5563  106.5515 H   0  0  0  0  0  0  0  0  0  0  0  0
   23.9905   25.8856  107.5730 H   0  0  0  0  0  0  0  0  0  0  0  0
   24.4068   26.7821  102.2837 H   0  0  0  0  0  0  0  0  0  0  0  0
   26.0278   28.8455   97.8120 H   0  0  0  0  0  0  0  0  0  0  0  0
   20.7209   24.8692   97.0146 H   0  0  0  0  0  0  0  0  0  0  0  0
   19.2234   22.4640   96.9547 H   0  0  0  0  0  0  0  0  0  0  0  0
   19.1217   23.3659   95.4046 H   0  0  0  0  0  0  0  0  0  0  0  0
   19.5782   21.6286   95.4046 H   0  0  0  0  0  0  0  0  0  0  0  0
   21.6097   20.0096   95.7741 H   0  0  0  0  0  0  0  0  0  0  0  0
   20.9048   20.8631   94.3594 H   0  0  0  0  0  0  0  0  0  0  0  0
   22.6424   20.4080   94.3594 H   0  0  0  0  0  0  0  0  0  0  0  0
   24.2640   21.7647   95.3785 H   0  0  0  0  0  0  0  0  0  0  0  0
   25.8311   22.3195   95.4489 H   0  0  0  0  0  0  0  0  0  0  0  0
   26.8642   23.8015   95.2727 H   0  0  0  0  0  0  0  0  0  0  0  0
   26.9606   23.3867   97.9463 H   0  0  0  0  0  0  0  0  0  0  0  0
   28.9438   22.8376   97.5586 H   0  0  0  0  0  0  0  0  0  0  0  0
   27.1229   20.6991   96.7075 H   0  0  0  0  0  0  0  0  0  0  0  0
   25.3726   21.2754   98.7477 H   0  0  0  0  0  0  0  0  0  0  0  0
   27.8297   21.9318   99.2384 H   0  0  0  0  0  0  0  0  0  0  0  0
   29.2098   20.2463   99.2350 H   0  0  0  0  0  0  0  0  0  0  0  0
   25.8507   19.8854   98.8495 H   0  0  0  0  0  0  0  0  0  0  0  0
   27.4149   19.1043   99.4394 H   0  0  0  0  0  0  0  0  0  0  0  0
  1  2  2  0
  1  3  1  6
  1  4  1  0
  1 53  1  0
  4  5  1  0
  6  5  1  0
  6  7  1  0
  6  8  1  0
  7 12  1  0
  8  9  1  0
  8 10  1  0
 10 11  1  0
 10 12  1  0
 12 13  1  0
 13 14  1  0
 13 22  1  0
 14 15  2  0
 15 16  1  0
 16 17  2  0
 16 22  1  0
 17 18  1  0
 17 19  1  0
 19 20  2  0
 20 21  1  0
 21 22  2  0
 23 24  1  0
 23 40  2  0
 24 25  2  0
 24 26  1  0
 26 27  1  0
 27 28  2  0
 27 29  1  0
 29 30  2  0
 29 40  1  0
 30 31  1  0
 31 32  1  0
 31 38  2  0
 32 33  2  0
 33 34  1  0
 33 35  1  0
 35 36  1  0
 35 37  2  0
 37 38  1  0
 38 39  1  0
 39 40  1  0
 39 41  1  0
 41 42  1  0
 42 43  1  0
 42 44  1  0
 44 45  1  0
 44 46  1  0
 46 47  1  0
 46 48  1  0
 48 49  1  0
 49 50  1  0
 50 51  2  0
 50 52  1  1
 50 53  1  0
  5 54  1  0
  5 55  1  0
  6 56  1  6
  8 57  1  1
  9 58  1  0
 10 59  1  1
 11 60  1  0
 12 61  1  6
 14 62  1  0
 18 63  1  0
 18 64  1  0
 20 65  1  0
 26 66  1  0
 32 67  1  0
 34 68  1  0
 34 69  1  0
 34 70  1  0
 36 71  1  0
 36 72  1  0
 36 73  1  0
 37 74  1  0
 41 75  1  0
 41 76  1  0
 42 77  1  1
 43 78  1  0
 44 79  1  6
 45 80  1  0
 46 81  1  1
 47 82  1  0
 48 83  1  0
 48 84  1  0
M  CHG  2   3  -1  52  -1
M  END
>  <filename_input>  (16) 
7F8T_FAD_docked.sdf

>  <pdb_id>  (16) 
7F8T_FAD

>  <pose_rank>  (16) 
15

>  <num_atoms_heavy>  (16) 
53

>  <num_torsions>  (16) 
13

>  <pose>  (16) 
[26.47933765843456, 20.335873660465797, 100.75939758740978, -3.323898659664275, -1.7799631323111846, -0.8220805112926722, -0.24892980465468723, -4.2857330579629584, 2.030277104198239, 0.22162690983109926, -1.2994158465903587, 6.1095029814257575, -3.9920867678610996, 0.3105549240603096, 1.2065291052144291, -0.4127103174864334, -0.08048813253248563, -3.27214250862498, 5.901743161643927]

>  <energy>  (16) 
-677.9802246240426

>  <inter_energy>  (16) 
-778.7501196642986

>  <intra_energy>  (16) 
103.14112588867926

>  <rmsd>  (16) 
8.47674

>  <sdf_rank>  (16) 
0

$$$$

     RDKit          3D

 84 89  0  0  0  0  0  0  0  0999 V2000
   28.4947   22.2315  101.1409 P   0  0  1  0  0  0  0  0  0  0  0  0
   28.8089   21.7962  102.4694 O   0  0  0  0  0  0  0  0  0  0  0  0
   28.4127   23.8451  101.0554 O   0  0  0  0  0  0  0  0  0  0  0  0
   29.5729   21.6150  100.0176 O   0  0  0  0  0  0  0  0  0  0  0  0
   30.0374   22.4557   98.9445 C   0  0  0  0  0  0  0  0  0  0  0  0
   29.5761   21.9151   97.7056 C   0  0  1  0  0  0  0  0  0  0  0  0
   29.8329   22.7942   96.6447 O   0  0  0  0  0  0  0  0  0  0  0  0
   30.2145   20.7687   97.3761 C   0  0  1  0  0  0  0  0  0  0  0  0
   29.7425   19.6644   98.1117 O   0  0  0  0  0  0  0  0  0  0  0  0
   29.9797   20.6613   96.0192 C   0  0  1  0  0  0  0  0  0  0  0  0
   28.6642   20.1825   95.7625 O   0  0  0  0  0  0  0  0  0  0  0  0
   30.1260   21.9261   95.5455 C   0  0  2  0  0  0  0  0  0  0  0  0
   31.4026   22.1270   95.0913 N   0  0  0  0  0  0  0  0  0  0  0  0
   32.4331   21.5336   95.5556 C   0  0  0  0  0  0  0  0  0  0  0  0
   33.5127   21.9513   94.8899 N   0  0  0  0  0  0  0  0  0  0  0  0
   33.0840   22.8739   93.9518 C   0  0  0  0  0  0  0  0  0  0  0  0
   33.6573   23.6701   92.9650 C   0  0  0  0  0  0  0  0  0  0  0  0
   35.0847   23.6418   92.7214 N   0  0  0  0  0  0  0  0  0  0  0  0
   32.8984   24.4613   92.2339 N   0  0  0  0  0  0  0  0  0  0  0  0
   31.5936   24.5149   92.4283 C   0  0  0  0  0  0  0  0  0  0  0  0
   30.9789   23.7801   93.3555 N   0  0  0  0  0  0  0  0  0  0  0  0
   31.6755   22.9557   94.1327 C   0  0  0  0  0  0  0  0  0  0  0  0
   21.3795   22.7679   95.4956 N   0  0  0  0  0  0  0  0  0  0  0  0
   21.1909   22.7628   94.1537 C   0  0  0  0  0  0  0  0  0  0  0  0
   20.0342   22.3076   93.6481 O   0  0  0  0  0  0  0  0  0  0  0  0
   22.1507   23.2006   93.3573 N   0  0  0  0  0  0  0  0  0  0  0  0
   23.2757   23.6739   93.8162 C   0  0  0  0  0  0  0  0  0  0  0  0
   24.1933   24.0649   92.9223 O   0  0  0  0  0  0  0  0  0  0  0  0
   23.5177   23.6392   95.1642 C   0  0  0  0  0  0  0  0  0  0  0  0
   24.6849   24.0606   95.5883 N   0  0  0  0  0  0  0  0  0  0  0  0
   24.8160   24.3150   96.8939 C   0  0  0  0  0  0  0  0  0  0  0  0
   25.9519   24.9819   97.3098 C   0  0  0  0  0  0  0  0  0  0  0  0
   26.1341   25.2537   98.6561 C   0  0  0  0  0  0  0  0  0  0  0  0
   27.4023   25.9948   99.1302 C   0  0  0  0  0  0  0  0  0  0  0  0
   25.1545   24.8459   99.5738 C   0  0  0  0  0  0  0  0  0  0  0  0
   25.3259   25.1322  101.0846 C   0  0  0  0  0  0  0  0  0  0  0  0
   24.0218   24.1773   99.1523 C   0  0  0  0  0  0  0  0  0  0  0  0
   23.8126   23.8763   97.7850 C   0  0  0  0  0  0  0  0  0  0  0  0
   22.7548   23.2611   97.3357 N   0  0  0  0  0  0  0  0  0  0  0  0
   22.5499   23.2048   96.0400 C   0  0  0  0  0  0  0  0  0  0  0  0
   21.6510   22.8291   98.2667 C   0  0  0  0  0  0  0  0  0  0  0  0
   21.7178   21.3425   98.5771 C   0  0  2  0  0  0  0  0  0  0  0  0
   20.7506   20.7290   98.0182 O   0  0  0  0  0  0  0  0  0  0  0  0
   21.7239   21.0686   99.9797 C   0  0  2  0  0  0  0  0  0  0  0  0
   22.0186   22.2009  100.6610 O   0  0  0  0  0  0  0  0  0  0  0  0
   22.6441   20.0274  100.3114 C   0  0  2  0  0  0  0  0  0  0  0  0
   22.7275   19.7809  101.5688 O   0  0  0  0  0  0  0  0  0  0  0  0
   23.9789   20.4940   99.8608 C   0  0  0  0  0  0  0  0  0  0  0  0
   25.0821   20.1567  100.7182 O   0  0  0  0  0  0  0  0  0  0  0  0
   26.6442   20.2099  100.0665 P   0  0  1  0  0  0  0  0  0  0  0  0
   27.4291   19.0097  100.2773 O   0  0  0  0  0  0  0  0  0  0  0  0
   26.3930   20.6616   98.5154 O   0  0  0  0  0  0  0  0  0  0  0  0
   27.0638   21.4649  101.0046 O   0  0  0  0  0  0  0  0  0  0  0  0
   29.6417   23.4738   99.0742 H   0  0  0  0  0  0  0  0  0  0  0  0
   31.1367   22.4958   98.9493 H   0  0  0  0  0  0  0  0  0  0  0  0
   28.4999   21.7409   97.8521 H   0  0  0  0  0  0  0  0  0  0  0  0
   31.2883   20.7846   97.6141 H   0  0  0  0  0  0  0  0  0  0  0  0
   29.8235   19.8540   99.0800 H   0  0  0  0  0  0  0  0  0  0  0  0
   30.6655   19.9482   95.5385 H   0  0  0  0  0  0  0  0  0  0  0  0
   28.2010   20.0139   96.6210 H   0  0  0  0  0  0  0  0  0  0  0  0
   29.4552   22.1186   94.6952 H   0  0  0  0  0  0  0  0  0  0  0  0
   32.4319   20.7968   96.3724 H   0  0  0  0  0  0  0  0  0  0  0  0
   35.4937   24.2373   91.9872 H   0  0  0  0  0  0  0  0  0  0  0  0
   35.6908   23.0263   93.2823 H   0  0  0  0  0  0  0  0  0  0  0  0
   30.9918   25.1903   91.8025 H   0  0  0  0  0  0  0  0  0  0  0  0
   22.0049   23.1666   92.3382 H   0  0  0  0  0  0  0  0  0  0  0  0
   26.7083   25.2959   96.5755 H   0  0  0  0  0  0  0  0  0  0  0  0
   27.4286   26.0102  100.2298 H   0  0  0  0  0  0  0  0  0  0  0  0
   28.2943   25.4758   98.7494 H   0  0  0  0  0  0  0  0  0  0  0  0
   27.3879   27.0267   98.7494 H   0  0  0  0  0  0  0  0  0  0  0  0
   24.8464   24.3312  101.6663 H   0  0  0  0  0  0  0  0  0  0  0  0
   26.3972   25.1732  101.3308 H   0  0  0  0  0  0  0  0  0  0  0  0
   24.8560   26.0959  101.3308 H   0  0  0  0  0  0  0  0  0  0  0  0
   23.2678   23.8729   99.8932 H   0  0  0  0  0  0  0  0  0  0  0  0
   21.7387   23.3927   99.2073 H   0  0  0  0  0  0  0  0  0  0  0  0
   20.6899   23.0300   97.7709 H   0  0  0  0  0  0  0  0  0  0  0  0
   22.6732   20.9777   98.1720 H   0  0  0  0  0  0  0  0  0  0  0  0
   20.1545   20.3508   98.7123 H   0  0  0  0  0  0  0  0  0  0  0  0
   20.7214   20.7189  100.2674 H   0  0  0  0  0  0  0  0  0  0  0  0
   21.9722   22.0224  101.6336 H   0  0  0  0  0  0  0  0  0  0  0  0
   22.2959   19.1020   99.8293 H   0  0  0  0  0  0  0  0  0  0  0  0
   22.4561   20.5833  102.0812 H   0  0  0  0  0  0  0  0  0  0  0  0
   24.1737   20.0545   98.8715 H   0  0  0  0  0  0  0  0  0  0  0  0
   23.9265   21.5928   99.8600 H   0  0  0  0  0  0  0  0  0  0  0  0
  1  2  2  0
  1  3  1  1
  1  4  1  0
  1 53  1  0
  4  5  1  0
  6  5  1  0
  6  7  1  0
  6  8  1  0
  7 12  1  0
  8  9  1  0
  8 10  1  0
 10 11  1  0
 10 12  1  0
 12 13  1  0
 13 14  1  0
 13 22  1  0
 14 15  2  0
 15 16  1  0
 16 17  2  0
 16 22  1  0
 17 18  1  0
 17 19  1  0
 19 20  2  0
 20 21  1  0
 21 22  2  0
 23 24  1  0
 23 40  2  0
 24 25  2  0
 24 26  1  0
 26 27  1  0
 27 28  2  0
 27 29  1  0
 29 30  2  0
 29 40  1  0
 30 31  1  0
 31 32  1  0
 31 38  2  0
 32 33  2  0
 33 34  1  0
 33 35  1  0
 35 36  1  0
 35 37  2  0
 37 38  1  0
 38 39  1  0
 39 40  1  0
 39 41  1  0
 41 42  1  0
 42 43  1  0
 42 44  1  0
 44 45  1  0
 44 46  1  0
 46 47  1  0
 46 48  1  0
 48 49  1  0
 49 50  1  0
 50 51  2  0
 50 52  1  6
 50 53  1  0
  5 54  1  0
  5 55  1  0
  6 56  1  1
  8 57  1  6
  9 58  1  0
 10 59  1  6
 11 60  1  0
 12 61  1  6
 14 62  1  0
 18 63  1  0
 18 64  1  0
 20 65  1  0
 26 66  1  0
 32 67  1  0
 34 68  1  0
 34 69  1  0
 34 70  1  0
 36 71  1  0
 36 72  1  0
 36 73  1  0
 37 74  1  0
 41 75  1  0
 41 76  1  0
 42 77  1  6
 43 78  1  0
 44 79  1  1
 45 80  1  0
 46 81  1  6
 47 82  1  0
 48 83  1  0
 48 84  1  0
M  CHG  2   3  -1  52  -1
M  END
>  <filename_input>  (17) 
7F8T_FAD_docked.sdf

>  <pdb_id>  (17) 
7F8T_FAD

>  <pose_rank>  (17) 
16

>  <num_atoms_heavy>  (17) 
53

>  <num_torsions>  (17) 
13

>  <pose>  (17) 
[25.08206410875549, 20.156698377489118, 100.71820489001642, -1.1886032672311528, 3.2564056014525358, 2.174468282216074, -15.698523353214638, -6.37889566857419, -4.455388060537971, 0.6017701547908174, 0.32300030932505097, -2.442082430878458, 1.0294065141811881, -11.73801706010409, -13.023462072409089, 4.245362523674533, -5.749174763324668, 9.785305953301876, -0.13232330149187124]

>  <energy>  (17) 
-749.7852617834238

>  <inter_energy>  (17) 
-817.5527758685372

>  <intra_energy>  (17) 
56.94169299210393

>  <rmsd>  (17) 
8.71535

>  <sdf_rank>  (17) 
0

$$$$

     RDKit          3D

 84 89  0  0  0  0  0  0  0  0999 V2000
   24.2022   23.6278   96.1614 P   0  0  1  0  0  0  0  0  0  0  0  0
   23.1441   24.5107   95.7691 O   0  0  0  0  0  0  0  0  0  0  0  0
   24.2239   22.2938   95.2462 O   0  0  0  0  0  0  0  0  0  0  0  0
   25.6879   24.4004   96.1492 O   0  0  0  0  0  0  0  0  0  0  0  0
   26.3725   24.6019   94.8982 C   0  0  0  0  0  0  0  0  0  0  0  0
   27.4093   23.6267   94.7804 C   0  0  1  0  0  0  0  0  0  0  0  0
   27.9593   23.6283   93.4913 O   0  0  0  0  0  0  0  0  0  0  0  0
   28.4492   23.8804   95.6079 C   0  0  1  0  0  0  0  0  0  0  0  0
   28.1705   23.5221   96.9410 O   0  0  0  0  0  0  0  0  0  0  0  0
   29.4772   23.1465   95.0489 C   0  0  1  0  0  0  0  0  0  0  0  0
   29.3574   21.7659   95.3734 O   0  0  0  0  0  0  0  0  0  0  0  0
   29.3424   23.3335   93.7101 C   0  0  2  0  0  0  0  0  0  0  0  0
   30.1353   24.3663   93.2845 N   0  0  0  0  0  0  0  0  0  0  0  0
   29.7051   25.5348   93.0032 C   0  0  0  0  0  0  0  0  0  0  0  0
   30.7341   26.2987   92.6280 N   0  0  0  0  0  0  0  0  0  0  0  0
   31.8717   25.5133   92.6904 C   0  0  0  0  0  0  0  0  0  0  0  0
   33.2330   25.6645   92.4448 C   0  0  0  0  0  0  0  0  0  0  0  0
   33.7727   26.9319   91.9977 N   0  0  0  0  0  0  0  0  0  0  0  0
   34.0513   24.6469   92.6226 N   0  0  0  0  0  0  0  0  0  0  0  0
   33.5953   23.4760   93.0278 C   0  0  0  0  0  0  0  0  0  0  0  0
   32.3042   23.2612   93.2814 N   0  0  0  0  0  0  0  0  0  0  0  0
   31.4156   24.2387   93.1273 C   0  0  0  0  0  0  0  0  0  0  0  0
   25.9513   21.6581  101.1374 N   0  0  0  0  0  0  0  0  0  0  0  0
   26.1716   20.6885  100.2166 C   0  0  0  0  0  0  0  0  0  0  0  0
   25.1485   20.2282   99.4803 O   0  0  0  0  0  0  0  0  0  0  0  0
   27.3906   20.2025  100.0583 N   0  0  0  0  0  0  0  0  0  0  0  0
   28.4114   20.6453  100.7380 C   0  0  0  0  0  0  0  0  0  0  0  0
   29.5985   20.0642  100.5212 O   0  0  0  0  0  0  0  0  0  0  0  0
   28.2100   21.5842  101.7151 C   0  0  0  0  0  0  0  0  0  0  0  0
   29.2457   21.9600  102.4266 N   0  0  0  0  0  0  0  0  0  0  0  0
   29.1258   23.0728  103.1571 C   0  0  0  0  0  0  0  0  0  0  0  0
   30.2727   23.6059  103.7127 C   0  0  0  0  0  0  0  0  0  0  0  0
   30.1915   24.7509  104.4885 C   0  0  0  0  0  0  0  0  0  0  0  0
   31.4674   25.3510  105.1165 C   0  0  0  0  0  0  0  0  0  0  0  0
   28.9396   25.3502  104.6926 C   0  0  0  0  0  0  0  0  0  0  0  0
   28.8121   26.6291  105.5539 C   0  0  0  0  0  0  0  0  0  0  0  0
   27.7958   24.8113  104.1364 C   0  0  0  0  0  0  0  0  0  0  0  0
   27.8456   23.6367  103.3479 C   0  0  0  0  0  0  0  0  0  0  0  0
   26.7980   23.0979  102.7898 N   0  0  0  0  0  0  0  0  0  0  0  0
   26.9646   22.1330  101.9152 C   0  0  0  0  0  0  0  0  0  0  0  0
   25.4309   23.7140  102.9426 C   0  0  0  0  0  0  0  0  0  0  0  0
   25.0495   24.5584  101.7374 C   0  0  2  0  0  0  0  0  0  0  0  0
   26.0944   25.0070  101.1618 O   0  0  0  0  0  0  0  0  0  0  0  0
   24.1747   25.6381  102.0712 C   0  0  2  0  0  0  0  0  0  0  0  0
   23.8538   25.5713  103.3848 O   0  0  0  0  0  0  0  0  0  0  0  0
   22.9961   25.6329  101.2640 C   0  0  2  0  0  0  0  0  0  0  0  0
   21.9885   25.0530  101.8092 O   0  0  0  0  0  0  0  0  0  0  0  0
   23.3367   24.8709  100.0369 C   0  0  0  0  0  0  0  0  0  0  0  0
   22.2476   24.6212   99.1328 O   0  0  0  0  0  0  0  0  0  0  0  0
   22.2289   23.1507   98.2931 P   0  0  1  0  0  0  0  0  0  0  0  0
   22.0991   21.9762   99.1325 O   0  0  0  0  0  0  0  0  0  0  0  0
   21.0730   23.3759   97.1591 O   0  0  0  0  0  0  0  0  0  0  0  0
   23.7185   23.3954   97.6995 O   0  0  0  0  0  0  0  0  0  0  0  0
   25.6624   24.4894   94.0656 H   0  0  0  0  0  0  0  0  0  0  0  0
   26.8041   25.6131   94.8663 H   0  0  0  0  0  0  0  0  0  0  0  0
   26.9306   22.6680   95.0287 H   0  0  0  0  0  0  0  0  0  0  0  0
   28.6936   24.9502   95.6844 H   0  0  0  0  0  0  0  0  0  0  0  0
   28.6477   24.1355   97.5542 H   0  0  0  0  0  0  0  0  0  0  0  0
   30.4611   23.4658   95.4231 H   0  0  0  0  0  0  0  0  0  0  0  0
   29.3480   21.6578   96.3574 H   0  0  0  0  0  0  0  0  0  0  0  0
   29.6548   22.4430   93.1449 H   0  0  0  0  0  0  0  0  0  0  0  0
   28.6558   25.8600   93.0607 H   0  0  0  0  0  0  0  0  0  0  0  0
   34.7828   27.0276   91.8202 H   0  0  0  0  0  0  0  0  0  0  0  0
   33.1465   27.7375   91.8572 H   0  0  0  0  0  0  0  0  0  0  0  0
   34.3066   22.6475   93.1609 H   0  0  0  0  0  0  0  0  0  0  0  0
   27.5393   19.4474   99.3737 H   0  0  0  0  0  0  0  0  0  0  0  0
   31.2460   23.1234  103.5399 H   0  0  0  0  0  0  0  0  0  0  0  0
   31.3886   25.3140  106.2131 H   0  0  0  0  0  0  0  0  0  0  0  0
   32.3436   24.7707  104.7921 H   0  0  0  0  0  0  0  0  0  0  0  0
   31.5791   26.3961  104.7921 H   0  0  0  0  0  0  0  0  0  0  0  0
   28.8392   26.3577  106.6195 H   0  0  0  0  0  0  0  0  0  0  0  0
   29.6470   27.3085  105.3272 H   0  0  0  0  0  0  0  0  0  0  0  0
   27.8596   27.1304  105.3272 H   0  0  0  0  0  0  0  0  0  0  0  0
   26.8278   25.3044  104.3094 H   0  0  0  0  0  0  0  0  0  0  0  0
   24.6900   22.9096  103.0615 H   0  0  0  0  0  0  0  0  0  0  0  0
   25.4504   24.3703  103.8251 H   0  0  0  0  0  0  0  0  0  0  0  0
   24.5007   23.8980  101.0498 H   0  0  0  0  0  0  0  0  0  0  0  0
   26.7523   25.2894  101.8456 H   0  0  0  0  0  0  0  0  0  0  0  0
   24.7008   26.5831  101.8706 H   0  0  0  0  0  0  0  0  0  0  0  0
   24.6622   25.7395  103.9310 H   0  0  0  0  0  0  0  0  0  0  0  0
   22.7027   26.6782  101.0871 H   0  0  0  0  0  0  0  0  0  0  0  0
   22.0730   25.1016  102.7944 H   0  0  0  0  0  0  0  0  0  0  0  0
   24.1056   25.4370   99.4908 H   0  0  0  0  0  0  0  0  0  0  0  0
   23.6704   23.8815  100.3828 H   0  0  0  0  0  0  0  0  0  0  0  0
  1  2  2  0
  1  3  1  6
  1  4  1  0
  1 53  1  0
  4  5  1  0
  6  5  1  0
  6  7  1  0
  6  8  1  0
  7 12  1  0
  8  9  1  0
  8 10  1  0
 10 11  1  0
 10 12  1  0
 12 13  1  0
 13 14  1  0
 13 22  1  0
 14 15  2  0
 15 16  1  0
 16 17  2  0
 16 22  1  0
 17 18  1  0
 17 19  1  0
 19 20  2  0
 20 21  1  0
 21 22  2  0
 23 24  1  0
 23 40  2  0
 24 25  2  0
 24 26  1  0
 26 27  1  0
 27 28  2  0
 27 29  1  0
 29 30  2  0
 29 40  1  0
 30 31  1  0
 31 32  1  0
 31 38  2  0
 32 33  2  0
 33 34  1  0
 33 35  1  0
 35 36  1  0
 35 37  2  0
 37 38  1  0
 38 39  1  0
 39 40  1  0
 39 41  1  0
 41 42  1  0
 42 43  1  0
 42 44  1  0
 44 45  1  0
 44 46  1  0
 46 47  1  0
 46 48  1  0
 48 49  1  0
 49 50  1  0
 50 51  2  0
 50 52  1  6
 50 53  1  0
  5 54  1  0
  5 55  1  0
  6 56  1  1
  8 57  1  1
  9 58  1  0
 10 59  1  1
 11 60  1  0
 12 61  1  6
 14 62  1  0
 18 63  1  0
 18 64  1  0
 20 65  1  0
 26 66  1  0
 32 67  1  0
 34 68  1  0
 34 69  1  0
 34 70  1  0
 36 71  1  0
 36 72  1  0
 36 73  1  0
 37 74  1  0
 41 75  1  0
 41 76  1  0
 42 77  1  6
 43 78  1  0
 44 79  1  1
 45 80  1  0
 46 81  1  6
 47 82  1  0
 48 83  1  0
 48 84  1  0
M  CHG  2   3  -1  52  -1
M  END
>  <filename_input>  (18) 
7F8T_FAD_docked.sdf

>  <pdb_id>  (18) 
7F8T_FAD

>  <pose_rank>  (18) 
17

>  <num_atoms_heavy>  (18) 
53

>  <num_torsions>  (18) 
13

>  <pose>  (18) 
[22.247575868631504, 24.621230676144304, 99.13280007521526, 0.16237461524011806, -1.7647090013873719, -4.381684758176856, 88.19260704403993, 38.801544844106154, 10.786386058542012, -48.606035948083516, 13.125119898159843, -52.73314250643211, -0.2548284982158988, -42.20817295116309, -43.88439498221078, -3.458607748897032, 7.032918872958212, -13.901906387496153, 34.78021058594517]

>  <energy>  (18) 
-716.6298099211103

>  <inter_energy>  (18) 
-790.7865744276755

>  <intra_energy>  (18) 
79.06615569150182

>  <rmsd>  (18) 
6.75431

>  <sdf_rank>  (18) 
0

$$$$

     RDKit          3D

 84 89  0  0  0  0  0  0  0  0999 V2000
   27.7982   21.7987   99.5644 P   0  0  1  0  0  0  0  0  0  0  0  0
   27.8473   23.0362  100.2850 O   0  0  0  0  0  0  0  0  0  0  0  0
   26.7288   21.8668   98.3522 O   0  0  0  0  0  0  0  0  0  0  0  0
   29.3133   21.3423   99.0166 O   0  0  0  0  0  0  0  0  0  0  0  0
   29.7104   21.6715   97.6719 C   0  0  0  0  0  0  0  0  0  0  0  0
   29.6913   20.4808   96.8834 C   0  0  1  0  0  0  0  0  0  0  0  0
   29.3822   20.7658   95.5464 O   0  0  0  0  0  0  0  0  0  0  0  0
   30.8987   19.8716   96.8441 C   0  0  1  0  0  0  0  0  0  0  0  0
   31.1783   19.1637   98.0290 O   0  0  0  0  0  0  0  0  0  0  0  0
   30.8001   19.0579   95.7324 C   0  0  1  0  0  0  0  0  0  0  0  0
   30.0468   17.8851   96.0202 O   0  0  0  0  0  0  0  0  0  0  0  0
   30.1596   19.8189   94.8071 C   0  0  2  0  0  0  0  0  0  0  0  0
   31.0622   20.4547   93.9962 N   0  0  0  0  0  0  0  0  0  0  0  0
   31.5262   21.6238   94.2142 C   0  0  0  0  0  0  0  0  0  0  0  0
   32.3829   21.9405   93.2400 N   0  0  0  0  0  0  0  0  0  0  0  0
   32.4278   20.8664   92.3686 C   0  0  0  0  0  0  0  0  0  0  0  0
   33.0851   20.5350   91.1877 C   0  0  0  0  0  0  0  0  0  0  0  0
   34.0158   21.4565   90.5696 N   0  0  0  0  0  0  0  0  0  0  0  0
   32.8671   19.3668   90.6183 N   0  0  0  0  0  0  0  0  0  0  0  0
   32.0244   18.5017   91.1519 C   0  0  0  0  0  0  0  0  0  0  0  0
   31.3614   18.7538   92.2808 N   0  0  0  0  0  0  0  0  0  0  0  0
   31.5284   19.9101   92.9163 C   0  0  0  0  0  0  0  0  0  0  0  0
   22.8600   23.2288   95.5910 N   0  0  0  0  0  0  0  0  0  0  0  0
   23.5121   23.4348   94.4211 C   0  0  0  0  0  0  0  0  0  0  0  0
   23.0410   22.8817   93.2928 O   0  0  0  0  0  0  0  0  0  0  0  0
   24.6084   24.1730   94.4052 N   0  0  0  0  0  0  0  0  0  0  0  0
   25.0784   24.7464   95.4779 C   0  0  0  0  0  0  0  0  0  0  0  0
   26.2119   25.4496   95.3578 O   0  0  0  0  0  0  0  0  0  0  0  0
   24.4736   24.5103   96.6842 C   0  0  0  0  0  0  0  0  0  0  0  0
   25.0096   25.0473   97.7539 N   0  0  0  0  0  0  0  0  0  0  0  0
   24.2723   25.0789   98.8683 C   0  0  0  0  0  0  0  0  0  0  0  0
   24.7274   25.8494   99.9207 C   0  0  0  0  0  0  0  0  0  0  0  0
   24.0008   25.8995  101.0993 C   0  0  0  0  0  0  0  0  0  0  0  0
   24.5040   26.7545  102.2817 C   0  0  0  0  0  0  0  0  0  0  0  0
   22.8099   25.1647  101.1991 C   0  0  0  0  0  0  0  0  0  0  0  0
   21.9739   25.1970  102.5006 C   0  0  0  0  0  0  0  0  0  0  0  0
   22.3610   24.3942  100.1443 C   0  0  0  0  0  0  0  0  0  0  0  0
   23.0868   24.3149   98.9315 C   0  0  0  0  0  0  0  0  0  0  0  0
   22.6982   23.6144   97.9031 N   0  0  0  0  0  0  0  0  0  0  0  0
   23.3233   23.7595   96.7577 C   0  0  0  0  0  0  0  0  0  0  0  0
   21.4105   22.8318   97.9357 C   0  0  0  0  0  0  0  0  0  0  0  0
   21.6371   21.3521   97.6707 C   0  0  2  0  0  0  0  0  0  0  0  0
   20.5779   20.8179   97.2049 O   0  0  0  0  0  0  0  0  0  0  0  0
   22.0723   20.6412   98.8316 C   0  0  2  0  0  0  0  0  0  0  0  0
   21.4969   21.1779   99.9334 O   0  0  0  0  0  0  0  0  0  0  0  0
   23.4956   20.6475   98.9530 C   0  0  2  0  0  0  0  0  0  0  0  0
   24.0854   19.7353   98.2682 O   0  0  0  0  0  0  0  0  0  0  0  0
   23.7913   20.3894  100.3842 C   0  0  0  0  0  0  0  0  0  0  0  0
   25.1356   19.9763  100.6810 O   0  0  0  0  0  0  0  0  0  0  0  0
   26.0411   20.9201  101.7568 P   0  0  1  0  0  0  0  0  0  0  0  0
   25.5239   22.2568  101.9720 O   0  0  0  0  0  0  0  0  0  0  0  0
   26.1803   19.9639  103.0756 O   0  0  0  0  0  0  0  0  0  0  0  0
   27.3585   20.8493  100.8131 O   0  0  0  0  0  0  0  0  0  0  0  0
   29.0100   22.4067   97.2488 H   0  0  0  0  0  0  0  0  0  0  0  0
   30.7225   22.1023   97.6752 H   0  0  0  0  0  0  0  0  0  0  0  0
   28.9374   19.8352   97.3575 H   0  0  0  0  0  0  0  0  0  0  0  0
   31.7399   20.5768   96.7720 H   0  0  0  0  0  0  0  0  0  0  0  0
   30.9554   19.7282   98.8111 H   0  0  0  0  0  0  0  0  0  0  0  0
   31.7857   18.7129   95.3867 H   0  0  0  0  0  0  0  0  0  0  0  0
   29.9742   17.7720   97.0010 H   0  0  0  0  0  0  0  0  0  0  0  0
   29.5238   19.2062   94.1510 H   0  0  0  0  0  0  0  0  0  0  0  0
   31.2628   22.2666   95.0670 H   0  0  0  0  0  0  0  0  0  0  0  0
   34.4943   21.1963   89.6955 H   0  0  0  0  0  0  0  0  0  0  0  0
   34.1992   22.3722   91.0043 H   0  0  0  0  0  0  0  0  0  0  0  0
   31.8635   17.5380   90.6466 H   0  0  0  0  0  0  0  0  0  0  0  0
   25.1091   24.2998   93.5141 H   0  0  0  0  0  0  0  0  0  0  0  0
   25.6624   26.4206   99.8233 H   0  0  0  0  0  0  0  0  0  0  0  0
   24.2206   26.2729  103.2292 H   0  0  0  0  0  0  0  0  0  0  0  0
   25.5991   26.8444  102.2293 H   0  0  0  0  0  0  0  0  0  0  0  0
   24.0510   27.7555  102.2293 H   0  0  0  0  0  0  0  0  0  0  0  0
   22.6476   25.1710  103.3698 H   0  0  0  0  0  0  0  0  0  0  0  0
   21.3747   26.1190  102.5286 H   0  0  0  0  0  0  0  0  0  0  0  0
   21.3053   24.3241  102.5286 H   0  0  0  0  0  0  0  0  0  0  0  0
   21.4216   23.8315  100.2486 H   0  0  0  0  0  0  0  0  0  0  0  0
   20.9489   22.9485   98.9274 H   0  0  0  0  0  0  0  0  0  0  0  0
   20.7549   23.2226   97.1435 H   0  0  0  0  0  0  0  0  0  0  0  0
   22.4454   21.2844   96.9277 H   0  0  0  0  0  0  0  0  0  0  0  0
   19.9991   20.5259   97.9532 H   0  0  0  0  0  0  0  0  0  0  0  0
   21.7602   19.5912   98.7304 H   0  0  0  0  0  0  0  0  0  0  0  0
   21.9122   20.7905  100.7444 H   0  0  0  0  0  0  0  0  0  0  0  0
   23.8629   21.6136   98.5768 H   0  0  0  0  0  0  0  0  0  0  0  0
   24.5072   19.0828   98.8818 H   0  0  0  0  0  0  0  0  0  0  0  0
   23.5921   21.3161  100.9424 H   0  0  0  0  0  0  0  0  0  0  0  0
   23.1486   19.5452  100.6744 H   0  0  0  0  0  0  0  0  0  0  0  0
  1  2  2  0
  1  3  1  6
  1  4  1  0
  1 53  1  0
  4  5  1  0
  6  5  1  0
  6  7  1  0
  6  8  1  0
  7 12  1  0
  8  9  1  0
  8 10  1  0
 10 11  1  0
 10 12  1  0
 12 13  1  0
 13 14  1  0
 13 22  1  0
 14 15  2  0
 15 16  1  0
 16 17  2  0
 16 22  1  0
 17 18  1  0
 17 19  1  0
 19 20  2  0
 20 21  1  0
 21 22  2  0
 23 24  1  0
 23 40  2  0
 24 25  2  0
 24 26  1  0
 26 27  1  0
 27 28  2  0
 27 29  1  0
 29 30  2  0
 29 40  1  0
 30 31  1  0
 31 32  1  0
 31 38  2  0
 32 33  2  0
 33 34  1  0
 33 35  1  0
 35 36  1  0
 35 37  2  0
 37 38  1  0
 38 39  1  0
 39 40  1  0
 39 41  1  0
 41 42  1  0
 42 43  1  0
 42 44  1  0
 44 45  1  0
 44 46  1  0
 46 47  1  0
 46 48  1  0
 48 49  1  0
 49 50  1  0
 50 51  2  0
 50 52  1  1
 50 53  1  0
  5 54  1  0
  5 55  1  0
  6 56  1  1
  8 57  1  6
  9 58  1  0
 10 59  1  6
 11 60  1  0
 12 61  1  6
 14 62  1  0
 18 63  1  0
 18 64  1  0
 20 65  1  0
 26 66  1  0
 32 67  1  0
 34 68  1  0
 34 69  1  0
 34 70  1  0
 36 71  1  0
 36 72  1  0
 36 73  1  0
 37 74  1  0
 41 75  1  0
 41 76  1  0
 42 77  1  6
 43 78  1  0
 44 79  1  6
 45 80  1  0
 46 81  1  6
 47 82  1  0
 48 83  1  0
 48 84  1  0
M  CHG  2   3  -1  52  -1
M  END
>  <filename_input>  (19) 
7F8T_FAD_docked.sdf

>  <pdb_id>  (19) 
7F8T_FAD

>  <pose_rank>  (19) 
18

>  <num_atoms_heavy>  (19) 
53

>  <num_torsions>  (19) 
13

>  <pose>  (19) 
[25.13560896007261, 19.976310956599754, 100.68100776617919, 2.204544172482349, -0.028027452098969254, -1.7695715787659843, -1.191450339467543, -1.6731224000011362, -1.4700651965863456, 1.3667783259345045, 0.47589305465708, 3.4572236774438894, -0.057172664015618845, 0.140507101666091, -0.09315443948782509, -0.31150379205127937, 1.403421788666122, 2.7064604104995165, -0.4881839261770058]

>  <energy>  (19) 
-716.8545399911933

>  <inter_energy>  (19) 
-767.9714474512689

>  <intra_energy>  (19) 
46.20232342504903

>  <rmsd>  (19) 
8.5418

>  <sdf_rank>  (19) 
0

$$$$

     RDKit          3D

 84 89  0  0  0  0  0  0  0  0999 V2000
   27.9845   24.1660  104.7178 P   0  0  1  0  0  0  0  0  0  0  0  0
   28.2481   24.8820  105.9307 O   0  0  0  0  0  0  0  0  0  0  0  0
   27.5317   22.6427  105.0214 O   0  0  0  0  0  0  0  0  0  0  0  0
   26.8587   24.9588  103.7648 O   0  0  0  0  0  0  0  0  0  0  0  0
   25.6003   25.3603  104.3388 C   0  0  0  0  0  0  0  0  0  0  0  0
   24.6569   25.5564  103.2845 C   0  0  1  0  0  0  0  0  0  0  0  0
   25.1091   24.9808  102.0893 O   0  0  0  0  0  0  0  0  0  0  0  0
   23.4711   24.9564  103.5384 C   0  0  1  0  0  0  0  0  0  0  0  0
   22.6928   25.6814  104.4614 O   0  0  0  0  0  0  0  0  0  0  0  0
   22.8932   24.8687  102.2870 C   0  0  1  0  0  0  0  0  0  0  0  0
   22.3478   26.1203  101.8848 O   0  0  0  0  0  0  0  0  0  0  0  0
   23.9120   24.5078  101.4640 C   0  0  2  0  0  0  0  0  0  0  0  0
   23.9474   23.1475  101.3073 N   0  0  0  0  0  0  0  0  0  0  0  0
   24.6488   22.3586  102.0252 C   0  0  0  0  0  0  0  0  0  0  0  0
   24.4497   21.1037  101.6147 N   0  0  0  0  0  0  0  0  0  0  0  0
   23.5545   21.1545  100.5607 C   0  0  0  0  0  0  0  0  0  0  0  0
   22.9357   20.2525   99.7005 C   0  0  0  0  0  0  0  0  0  0  0  0
   23.1876   18.8302   99.8063 N   0  0  0  0  0  0  0  0  0  0  0  0
   22.1041   20.6886   98.7760 N   0  0  0  0  0  0  0  0  0  0  0  0
   21.8513   21.9781   98.6486 C   0  0  0  0  0  0  0  0  0  0  0  0
   22.4087   22.8967   99.4379 N   0  0  0  0  0  0  0  0  0  0  0  0
   23.2577   22.5359  100.3960 C   0  0  0  0  0  0  0  0  0  0  0  0
   25.1662   24.1556   97.1992 N   0  0  0  0  0  0  0  0  0  0  0  0
   24.0795   24.6503   96.5583 C   0  0  0  0  0  0  0  0  0  0  0  0
   23.2643   25.5038   97.1968 O   0  0  0  0  0  0  0  0  0  0  0  0
   23.8313   24.2820   95.3134 N   0  0  0  0  0  0  0  0  0  0  0  0
   24.6166   23.4757   94.6551 C   0  0  0  0  0  0  0  0  0  0  0  0
   24.2580   23.1435   93.4081 O   0  0  0  0  0  0  0  0  0  0  0  0
   25.6907   22.9153   95.2946 C   0  0  0  0  0  0  0  0  0  0  0  0
   26.4225   22.0567   94.6258 N   0  0  0  0  0  0  0  0  0  0  0  0
   27.6230   21.7444   95.1236 C   0  0  0  0  0  0  0  0  0  0  0  0
   28.4920   21.0377   94.3151 C   0  0  0  0  0  0  0  0  0  0  0  0
   29.7413   20.6815   94.7965 C   0  0  0  0  0  0  0  0  0  0  0  0
   30.7171   19.8882   93.9015 C   0  0  0  0  0  0  0  0  0  0  0  0
   30.1011   21.0504   96.1013 C   0  0  0  0  0  0  0  0  0  0  0  0
   31.4878   20.6686   96.6713 C   0  0  0  0  0  0  0  0  0  0  0  0
   29.2271   21.7551   96.9059 C   0  0  0  0  0  0  0  0  0  0  0  0
   27.9402   22.1241   96.4458 C   0  0  0  0  0  0  0  0  0  0  0  0
   27.0856   22.8010   97.1605 N   0  0  0  0  0  0  0  0  0  0  0  0
   26.0028   23.2716   96.5861 C   0  0  0  0  0  0  0  0  0  0  0  0
   27.4260   23.2567   98.5563 C   0  0  0  0  0  0  0  0  0  0  0  0
   26.9654   22.2606   99.6082 C   0  0  2  0  0  0  0  0  0  0  0  0
   26.6753   22.8636  100.6929 O   0  0  0  0  0  0  0  0  0  0  0  0
   27.9294   21.2365   99.8620 C   0  0  2  0  0  0  0  0  0  0  0  0
   27.3398   20.2139  100.5252 O   0  0  0  0  0  0  0  0  0  0  0  0
   29.0488   21.7343  100.5968 C   0  0  2  0  0  0  0  0  0  0  0  0
   30.1523   21.1261  100.3492 O   0  0  0  0  0  0  0  0  0  0  0  0
   28.7340   21.5170  102.0307 C   0  0  0  0  0  0  0  0  0  0  0  0
   29.5854   22.1965  102.9684 O   0  0  0  0  0  0  0  0  0  0  0  0
   30.0274   23.7960  102.6308 P   0  0  1  0  0  0  0  0  0  0  0  0
   31.4477   24.0014  102.4278 O   0  0  0  0  0  0  0  0  0  0  0  0
   29.0402   24.2097  101.3950 O   0  0  0  0  0  0  0  0  0  0  0  0
   29.4663   24.3218  104.0591 O   0  0  0  0  0  0  0  0  0  0  0  0
   25.2370   24.5762  105.0193 H   0  0  0  0  0  0  0  0  0  0  0  0
   25.7283   26.2945  104.9052 H   0  0  0  0  0  0  0  0  0  0  0  0
   24.5395   26.6471  103.2042 H   0  0  0  0  0  0  0  0  0  0  0  0
   23.5752   23.9730  104.0201 H   0  0  0  0  0  0  0  0  0  0  0  0
   22.9581   25.4343  105.3826 H   0  0  0  0  0  0  0  0  0  0  0  0
   22.0603   24.1504  102.2682 H   0  0  0  0  0  0  0  0  0  0  0  0
   22.1160   26.6523  102.6869 H   0  0  0  0  0  0  0  0  0  0  0  0
   23.7903   24.9376  100.4588 H   0  0  0  0  0  0  0  0  0  0  0  0
   25.3106   22.6635  102.8493 H   0  0  0  0  0  0  0  0  0  0  0  0
   22.7217   18.1754   99.1620 H   0  0  0  0  0  0  0  0  0  0  0  0
   23.8325   18.4735  100.5258 H   0  0  0  0  0  0  0  0  0  0  0  0
   21.1554   22.3066   97.8626 H   0  0  0  0  0  0  0  0  0  0  0  0
   22.9877   24.6448   94.8468 H   0  0  0  0  0  0  0  0  0  0  0  0
   28.1933   20.7590   93.2938 H   0  0  0  0  0  0  0  0  0  0  0  0
   31.4155   19.3204   94.5338 H   0  0  0  0  0  0  0  0  0  0  0  0
   30.1490   19.1926   93.2664 H   0  0  0  0  0  0  0  0  0  0  0  0
   31.2821   20.5864   93.2664 H   0  0  0  0  0  0  0  0  0  0  0  0
   31.4481   20.6796   97.7705 H   0  0  0  0  0  0  0  0  0  0  0  0
   31.7623   19.6615   96.3243 H   0  0  0  0  0  0  0  0  0  0  0  0
   32.2390   21.3934   96.3243 H   0  0  0  0  0  0  0  0  0  0  0  0
   29.5369   22.0349   97.9236 H   0  0  0  0  0  0  0  0  0  0  0  0
   28.5166   23.3772   98.6346 H   0  0  0  0  0  0  0  0  0  0  0  0
   26.9066   24.2089   98.7392 H   0  0  0  0  0  0  0  0  0  0  0  0
   26.0682   21.7678   99.2054 H   0  0  0  0  0  0  0  0  0  0  0  0
   26.9446   22.3038  101.4638 H   0  0  0  0  0  0  0  0  0  0  0  0
   28.3109   20.8746   98.8959 H   0  0  0  0  0  0  0  0  0  0  0  0
   27.4245   20.3607  101.5005 H   0  0  0  0  0  0  0  0  0  0  0  0
   29.1971   22.7873  100.3152 H   0  0  0  0  0  0  0  0  0  0  0  0
   30.5935   20.8829  101.2015 H   0  0  0  0  0  0  0  0  0  0  0  0
   27.7021   21.8561  102.2048 H   0  0  0  0  0  0  0  0  0  0  0  0
   28.8886   20.4429  102.2109 H   0  0  0  0  0  0  0  0  0  0  0  0
  1  2  2  0
  1  3  1  1
  1  4  1  0
  1 53  1  0
  4  5  1  0
  6  5  1  0
  6  7  1  0
  6  8  1  0
  7 12  1  0
  8  9  1  0
  8 10  1  0
 10 11  1  0
 10 12  1  0
 12 13  1  0
 13 14  1  0
 13 22  1  0
 14 15  2  0
 15 16  1  0
 16 17  2  0
 16 22  1  0
 17 18  1  0
 17 19  1  0
 19 20  2  0
 20 21  1  0
 21 22  2  0
 23 24  1  0
 23 40  2  0
 24 25  2  0
 24 26  1  0
 26 27  1  0
 27 28  2  0
 27 29  1  0
 29 30  2  0
 29 40  1  0
 30 31  1  0
 31 32  1  0
 31 38  2  0
 32 33  2  0
 33 34  1  0
 33 35  1  0
 35 36  1  0
 35 37  2  0
 37 38  1  0
 38 39  1  0
 39 40  1  0
 39 41  1  0
 41 42  1  0
 42 43  1  0
 42 44  1  0
 44 45  1  0
 44 46  1  0
 46 47  1  0
 46 48  1  0
 48 49  1  0
 49 50  1  0
 50 51  2  0
 50 52  1  6
 50 53  1  0
  5 54  1  0
  5 55  1  0
  6 56  1  6
  8 57  1  1
  9 58  1  0
 10 59  1  1
 11 60  1  0
 12 61  1  6
 14 62  1  0
 18 63  1  0
 18 64  1  0
 20 65  1  0
 26 66  1  0
 32 67  1  0
 34 68  1  0
 34 69  1  0
 34 70  1  0
 36 71  1  0
 36 72  1  0
 36 73  1  0
 37 74  1  0
 41 75  1  0
 41 76  1  0
 42 77  1  6
 43 78  1  0
 44 79  1  6
 45 80  1  0
 46 81  1  1
 47 82  1  0
 48 83  1  0
 48 84  1  0
M  CHG  2   3  -1  52  -1
M  END
>  <filename_input>  (20) 
7F8T_FAD_docked.sdf

>  <pdb_id>  (20) 
7F8T_FAD

>  <pose_rank>  (20) 
19

>  <num_atoms_heavy>  (20) 
53

>  <num_torsions>  (20) 
13

>  <pose>  (20) 
[29.585412599499776, 22.196479972888014, 102.96839658891295, -3.7123051858613705, 2.02341460531965, 1.2687832824694893, -2.9234785738513756, 14.692456003666969, 13.211790338765601, 2.129645677284497, 5.842026971819715, 7.400531498631283, -0.07037549899545405, -26.385496428976232, -18.421356016705815, -26.597773157082756, 10.510983440112891, 27.93855258813442, 43.999670748851685]

>  <energy>  (20) 
-654.429111156142

>  <inter_energy>  (20) 
-838.9226008461604

>  <intra_energy>  (20) 
182.0693930372508

>  <rmsd>  (20) 
7.82051

>  <sdf_rank>  (20) 
0

$$$$

     RDKit          3D

 84 89  0  0  0  0  0  0  0  0999 V2000
   30.6618   22.5540  102.8429 P   0  0  1  0  0  0  0  0  0  0  0  0
   30.1270   21.6970  103.8590 O   0  0  0  0  0  0  0  0  0  0  0  0
   32.2231   22.8817  103.1125 O   0  0  0  0  0  0  0  0  0  0  0  0
   30.4275   21.9177  101.3118 O   0  0  0  0  0  0  0  0  0  0  0  0
   29.1023   21.8950  100.7481 C   0  0  0  0  0  0  0  0  0  0  0  0
   29.2087   21.9327   99.3244 C   0  0  1  0  0  0  0  0  0  0  0  0
   30.5087   21.6166   98.9069 O   0  0  0  0  0  0  0  0  0  0  0  0
   28.4134   21.0164   98.7256 C   0  0  1  0  0  0  0  0  0  0  0  0
   27.0629   21.4149   98.7032 O   0  0  0  0  0  0  0  0  0  0  0  0
   28.9688   20.8985   97.4665 C   0  0  1  0  0  0  0  0  0  0  0  0
   28.5939   21.9918   96.6359 O   0  0  0  0  0  0  0  0  0  0  0  0
   30.3100   20.9037   97.6822 C   0  0  2  0  0  0  0  0  0  0  0  0
   30.7885   19.6238   97.7788 N   0  0  0  0  0  0  0  0  0  0  0  0
   30.2413   18.7015   98.4713 C   0  0  0  0  0  0  0  0  0  0  0  0
   30.9544   17.5798   98.3432 N   0  0  0  0  0  0  0  0  0  0  0  0
   32.0174   17.8637   97.5039 C   0  0  0  0  0  0  0  0  0  0  0  0
   33.1061   17.1832   96.9672 C   0  0  0  0  0  0  0  0  0  0  0  0
   33.3322   15.7847   97.2683 N   0  0  0  0  0  0  0  0  0  0  0  0
   33.9467   17.8106   96.1694 N   0  0  0  0  0  0  0  0  0  0  0  0
   33.7737   19.0856   95.8737 C   0  0  0  0  0  0  0  0  0  0  0  0
   32.7532   19.7978   96.3523 N   0  0  0  0  0  0  0  0  0  0  0  0
   31.8609   19.2357   97.1627 C   0  0  0  0  0  0  0  0  0  0  0  0
   20.8353   22.7238   99.7315 N   0  0  0  0  0  0  0  0  0  0  0  0
   19.6653   22.0622   99.5590 C   0  0  0  0  0  0  0  0  0  0  0  0
   18.9390   21.7087  100.6306 O   0  0  0  0  0  0  0  0  0  0  0  0
   19.2554   21.7671   98.3376 N   0  0  0  0  0  0  0  0  0  0  0  0
   19.9230   22.1187   97.2741 C   0  0  0  0  0  0  0  0  0  0  0  0
   19.4341   21.7445   96.0846 O   0  0  0  0  0  0  0  0  0  0  0  0
   21.1364   22.7379   97.4184 C   0  0  0  0  0  0  0  0  0  0  0  0
   21.8143   23.0185   96.3314 N   0  0  0  0  0  0  0  0  0  0  0  0
   22.8318   23.8784   96.4392 C   0  0  0  0  0  0  0  0  0  0  0  0
   23.3928   24.3628   95.2735 C   0  0  0  0  0  0  0  0  0  0  0  0
   24.4585   25.2456   95.3397 C   0  0  0  0  0  0  0  0  0  0  0  0
   25.0940   25.7886   94.0421 C   0  0  0  0  0  0  0  0  0  0  0  0
   24.9467   25.6337   96.5963 C   0  0  0  0  0  0  0  0  0  0  0  0
   26.1358   26.6174   96.7072 C   0  0  0  0  0  0  0  0  0  0  0  0
   24.3832   25.1443   97.7586 C   0  0  0  0  0  0  0  0  0  0  0  0
   23.3005   24.2331   97.7228 C   0  0  0  0  0  0  0  0  0  0  0  0
   22.7254   23.7544   98.7903 N   0  0  0  0  0  0  0  0  0  0  0  0
   21.6063   23.0794   98.6654 C   0  0  0  0  0  0  0  0  0  0  0  0
   23.1810   24.1601  100.1686 C   0  0  0  0  0  0  0  0  0  0  0  0
   24.4165   23.3914  100.6086 C   0  0  2  0  0  0  0  0  0  0  0  0
   24.1281   22.1664  100.8100 O   0  0  0  0  0  0  0  0  0  0  0  0
   25.0290   23.9465  101.7744 C   0  0  2  0  0  0  0  0  0  0  0  0
   24.0705   24.3819  102.6258 O   0  0  0  0  0  0  0  0  0  0  0  0
   25.9292   25.0058  101.4455 C   0  0  2  0  0  0  0  0  0  0  0  0
   26.0419   25.2274  100.1857 O   0  0  0  0  0  0  0  0  0  0  0  0
   27.2629   24.5870  101.9437 C   0  0  0  0  0  0  0  0  0  0  0  0
   27.6199   25.0628  103.2522 O   0  0  0  0  0  0  0  0  0  0  0  0
   28.5489   24.0512  104.2429 P   0  0  1  0  0  0  0  0  0  0  0  0
   29.0678   24.6854  105.4384 O   0  0  0  0  0  0  0  0  0  0  0  0
   27.5880   22.7464  104.4602 O   0  0  0  0  0  0  0  0  0  0  0  0
   29.6487   23.8083  103.0756 O   0  0  0  0  0  0  0  0  0  0  0  0
   28.5850   20.9745  101.0563 H   0  0  0  0  0  0  0  0  0  0  0  0
   28.5292   22.7639  101.1039 H   0  0  0  0  0  0  0  0  0  0  0  0
   28.9167   22.9550   99.0422 H   0  0  0  0  0  0  0  0  0  0  0  0
   28.3795   20.0548   99.2587 H   0  0  0  0  0  0  0  0  0  0  0  0
   26.7322   21.5125   99.6312 H   0  0  0  0  0  0  0  0  0  0  0  0
   28.6274   19.9892   96.9501 H   0  0  0  0  0  0  0  0  0  0  0  0
   28.3303   22.7605   97.2014 H   0  0  0  0  0  0  0  0  0  0  0  0
   30.8505   21.3801   96.8510 H   0  0  0  0  0  0  0  0  0  0  0  0
   29.3292   18.8129   99.0761 H   0  0  0  0  0  0  0  0  0  0  0  0
   34.1428   15.2952   96.8631 H   0  0  0  0  0  0  0  0  0  0  0  0
   32.6823   15.2797   97.8875 H   0  0  0  0  0  0  0  0  0  0  0  0
   34.4978   19.5783   95.2082 H   0  0  0  0  0  0  0  0  0  0  0  0
   18.3776   21.2408   98.2217 H   0  0  0  0  0  0  0  0  0  0  0  0
   22.9951   24.0489   94.2971 H   0  0  0  0  0  0  0  0  0  0  0  0
   25.9078   26.4839   94.2955 H   0  0  0  0  0  0  0  0  0  0  0  0
   25.4970   24.9516   93.4530 H   0  0  0  0  0  0  0  0  0  0  0  0
   24.3301   26.3173   93.4530 H   0  0  0  0  0  0  0  0  0  0  0  0
   26.3603   26.8031   97.7679 H   0  0  0  0  0  0  0  0  0  0  0  0
   27.0187   26.1822   96.2163 H   0  0  0  0  0  0  0  0  0  0  0  0
   25.8737   27.5662   96.2163 H   0  0  0  0  0  0  0  0  0  0  0  0
   24.7835   25.4688   98.7304 H   0  0  0  0  0  0  0  0  0  0  0  0
   23.4145   25.2350  100.1635 H   0  0  0  0  0  0  0  0  0  0  0  0
   22.3695   23.9328  100.8755 H   0  0  0  0  0  0  0  0  0  0  0  0
   25.1468   23.4717   99.7899 H   0  0  0  0  0  0  0  0  0  0  0  0
   24.0872   21.9928  101.7838 H   0  0  0  0  0  0  0  0  0  0  0  0
   25.6209   23.1579  102.2620 H   0  0  0  0  0  0  0  0  0  0  0  0
   24.3713   24.2452  103.5590 H   0  0  0  0  0  0  0  0  0  0  0  0
   25.5419   25.9312  101.8967 H   0  0  0  0  0  0  0  0  0  0  0  0
   26.4858   26.1007  100.0426 H   0  0  0  0  0  0  0  0  0  0  0  0
   27.2843   23.4874  101.9670 H   0  0  0  0  0  0  0  0  0  0  0  0
   27.9934   25.0344  101.2537 H   0  0  0  0  0  0  0  0  0  0  0  0
  1  2  2  0
  1  3  1  1
  1  4  1  0
  1 53  1  0
  4  5  1  0
  6  5  1  0
  6  7  1  0
  6  8  1  0
  7 12  1  0
  8  9  1  0
  8 10  1  0
 10 11  1  0
 10 12  1  0
 12 13  1  0
 13 14  1  0
 13 22  1  0
 14 15  2  0
 15 16  1  0
 16 17  2  0
 16 22  1  0
 17 18  1  0
 17 19  1  0
 19 20  2  0
 20 21  1  0
 21 22  2  0
 23 24  1  0
 23 40  2  0
 24 25  2  0
 24 26  1  0
 26 27  1  0
 27 28  2  0
 27 29  1  0
 29 30  2  0
 29 40  1  0
 30 31  1  0
 31 32  1  0
 31 38  2  0
 32 33  2  0
 33 34  1  0
 33 35  1  0
 35 36  1  0
 35 37  2  0
 37 38  1  0
 38 39  1  0
 39 40  1  0
 39 41  1  0
 41 42  1  0
 42 43  1  0
 42 44  1  0
 44 45  1  0
 44 46  1  0
 46 47  1  0
 46 48  1  0
 48 49  1  0
 49 50  1  0
 50 51  2  0
 50 52  1  1
 50 53  1  0
  5 54  1  0
  5 55  1  0
  6 56  1  6
  8 57  1  1
  9 58  1  0
 10 59  1  6
 11 60  1  0
 12 61  1  6
 14 62  1  0
 18 63  1  0
 18 64  1  0
 20 65  1  0
 26 66  1  0
 32 67  1  0
 34 68  1  0
 34 69  1  0
 34 70  1  0
 36 71  1  0
 36 72  1  0
 36 73  1  0
 37 74  1  0
 41 75  1  0
 41 76  1  0
 42 77  1  6
 43 78  1  0
 44 79  1  1
 45 80  1  0
 46 81  1  1
 47 82  1  0
 48 83  1  0
 48 84  1  0
M  CHG  2   3  -1  52  -1
M  END
>  <filename_input>  (21) 
7F8T_FAD_docked.sdf

>  <pdb_id>  (21) 
7F8T_FAD

>  <pose_rank>  (21) 
20

>  <num_atoms_heavy>  (21) 
53

>  <num_torsions>  (21) 
13

>  <pose>  (21) 
[27.61991506809562, 25.06278383822143, 103.25219067493285, 0.6457393399427571, 3.255612011445009, 0.23636641769338357, 2.069768000082201, 0.4039031478774599, -2.3759388857365447, -1.9979732116902067, -1.2776958466399435, 1.1295271108252976, 0.7480193651203749, 0.5526564503700535, 1.6931124223888074, 1.1195874442505802, 1.4723036828849816, -2.0697786225534283, 0.2367752668089619]

>  <energy>  (21) 
-688.1087434721959

>  <inter_energy>  (21) 
-746.831180869603

>  <intra_energy>  (21) 
66.45549557323558

>  <rmsd>  (21) 
8.40085

>  <sdf_rank>  (21) 
0

$$$$

     RDKit          3D

 84 89  0  0  0  0  0  0  0  0999 V2000
   29.6234   20.9168   98.0253 P   0  0  1  0  0  0  0  0  0  0  0  0
   31.0409   21.1251   98.0117 O   0  0  0  0  0  0  0  0  0  0  0  0
   29.2614   19.3399   98.0373 O   0  0  0  0  0  0  0  0  0  0  0  0
   28.8931   21.7202   99.3002 O   0  0  0  0  0  0  0  0  0  0  0  0
   27.4720   21.5945   99.4973 C   0  0  0  0  0  0  0  0  0  0  0  0
   27.2218   21.3350  100.8793 C   0  0  1  0  0  0  0  0  0  0  0  0
   28.4200   21.2423  101.6003 O   0  0  0  0  0  0  0  0  0  0  0  0
   26.5296   22.3348  101.4724 C   0  0  1  0  0  0  0  0  0  0  0  0
   25.1596   22.3012  101.1480 O   0  0  0  0  0  0  0  0  0  0  0  0
   26.7778   22.1301  102.8156 C   0  0  1  0  0  0  0  0  0  0  0  0
   25.9812   21.0680  103.3285 O   0  0  0  0  0  0  0  0  0  0  0  0
   28.0959   21.8068  102.8747 C   0  0  2  0  0  0  0  0  0  0  0  0
   28.8553   22.9194  103.1235 N   0  0  0  0  0  0  0  0  0  0  0  0
   29.8856   23.2530  102.4477 C   0  0  0  0  0  0  0  0  0  0  0  0
   30.3855   24.3861  102.9471 N   0  0  0  0  0  0  0  0  0  0  0  0
   29.5825   24.7536  104.0126 C   0  0  0  0  0  0  0  0  0  0  0  0
   29.5297   25.7856  104.9445 C   0  0  0  0  0  0  0  0  0  0  0  0
   30.5101   26.8516  104.9315 N   0  0  0  0  0  0  0  0  0  0  0  0
   28.5755   25.8043  105.8531 N   0  0  0  0  0  0  0  0  0  0  0  0
   27.6653   24.8489  105.8968 C   0  0  0  0  0  0  0  0  0  0  0  0
   27.6562   23.8312  105.0356 N   0  0  0  0  0  0  0  0  0  0  0  0
   28.5852   23.7422  104.0880 C   0  0  0  0  0  0  0  0  0  0  0  0
   23.4597   22.3247   95.5791 N   0  0  0  0  0  0  0  0  0  0  0  0
   22.8808   21.7432   94.5006 C   0  0  0  0  0  0  0  0  0  0  0  0
   23.6513   21.1790   93.5578 O   0  0  0  0  0  0  0  0  0  0  0  0
   21.5640   21.7435   94.3862 N   0  0  0  0  0  0  0  0  0  0  0  0
   20.7852   22.2591   95.2962 C   0  0  0  0  0  0  0  0  0  0  0  0
   19.4655   22.2324   95.0689 O   0  0  0  0  0  0  0  0  0  0  0  0
   21.3426   22.9036   96.3688 C   0  0  0  0  0  0  0  0  0  0  0  0
   20.5333   23.4698   97.2317 N   0  0  0  0  0  0  0  0  0  0  0  0
   21.0401   23.8268   98.4159 C   0  0  0  0  0  0  0  0  0  0  0  0
   20.1556   24.1970   99.4103 C   0  0  0  0  0  0  0  0  0  0  0  0
   20.6392   24.5874  100.6486 C   0  0  0  0  0  0  0  0  0  0  0  0
   19.6583   25.0065  101.7642 C   0  0  0  0  0  0  0  0  0  0  0  0
   22.0246   24.5962  100.8689 C   0  0  0  0  0  0  0  0  0  0  0  0
   22.5992   25.0271  102.2392 C   0  0  0  0  0  0  0  0  0  0  0  0
   22.9043   24.2272   99.8699 C   0  0  0  0  0  0  0  0  0  0  0  0
   22.4409   23.8336   98.5916 C   0  0  0  0  0  0  0  0  0  0  0  0
   23.2289   23.4630   97.6215 N   0  0  0  0  0  0  0  0  0  0  0  0
   22.7068   22.9239   96.5442 C   0  0  0  0  0  0  0  0  0  0  0  0
   24.7240   23.4174   97.8071 C   0  0  0  0  0  0  0  0  0  0  0  0
   25.3772   24.7539   97.4936 C   0  0  2  0  0  0  0  0  0  0  0  0
   25.1573   25.0813   96.2817 O   0  0  0  0  0  0  0  0  0  0  0  0
   26.7825   24.7586   97.7529 C   0  0  2  0  0  0  0  0  0  0  0  0
   27.0717   25.7172   98.6642 O   0  0  0  0  0  0  0  0  0  0  0  0
   27.5403   24.9550   96.5579 C   0  0  2  0  0  0  0  0  0  0  0  0
   27.3641   26.1012   96.0066 O   0  0  0  0  0  0  0  0  0  0  0  0
   27.0751   23.9239   95.5972 C   0  0  0  0  0  0  0  0  0  0  0  0
   28.0913   23.0530   95.0731 O   0  0  0  0  0  0  0  0  0  0  0  0
   28.0869   21.4334   95.5680 P   0  0  1  0  0  0  0  0  0  0  0  0
   26.8423   20.9850   96.1603 O   0  0  0  0  0  0  0  0  0  0  0  0
   28.6014   20.6297   94.2405 O   0  0  0  0  0  0  0  0  0  0  0  0
   29.2876   21.6859   96.6290 O   0  0  0  0  0  0  0  0  0  0  0  0
   26.9732   22.5287   99.2000 H   0  0  0  0  0  0  0  0  0  0  0  0
   27.0806   20.7691   98.8845 H   0  0  0  0  0  0  0  0  0  0  0  0
   26.6512   20.3947  100.8955 H   0  0  0  0  0  0  0  0  0  0  0  0
   26.8392   23.3361  101.1384 H   0  0  0  0  0  0  0  0  0  0  0  0
   24.6237   22.2881  101.9803 H   0  0  0  0  0  0  0  0  0  0  0  0
   26.5328   23.0168  103.4187 H   0  0  0  0  0  0  0  0  0  0  0  0
   25.9983   21.0909  104.3181 H   0  0  0  0  0  0  0  0  0  0  0  0
   28.3010   21.0968  103.6894 H   0  0  0  0  0  0  0  0  0  0  0  0
   30.2956   22.6968  101.5919 H   0  0  0  0  0  0  0  0  0  0  0  0
   30.4573   27.6084  105.6281 H   0  0  0  0  0  0  0  0  0  0  0  0
   31.2602   26.8528  104.2255 H   0  0  0  0  0  0  0  0  0  0  0  0
   26.8862   24.8942  106.6720 H   0  0  0  0  0  0  0  0  0  0  0  0
   21.1380   21.3215   93.5488 H   0  0  0  0  0  0  0  0  0  0  0  0
   19.0723   24.1818   99.2199 H   0  0  0  0  0  0  0  0  0  0  0  0
   20.1146   24.8116  102.7459 H   0  0  0  0  0  0  0  0  0  0  0  0
   19.4336   26.0793  101.6709 H   0  0  0  0  0  0  0  0  0  0  0  0
   18.7277   24.4275  101.6709 H   0  0  0  0  0  0  0  0  0  0  0  0
   22.0006   24.5781  103.0454 H   0  0  0  0  0  0  0  0  0  0  0  0
   23.6417   24.6864  102.3232 H   0  0  0  0  0  0  0  0  0  0  0  0
   22.5639   26.1234  102.3232 H   0  0  0  0  0  0  0  0  0  0  0  0
   23.9856   24.2394  100.0716 H   0  0  0  0  0  0  0  0  0  0  0  0
   24.9444   23.1505   98.8512 H   0  0  0  0  0  0  0  0  0  0  0  0
   25.1303   22.6688   97.1110 H   0  0  0  0  0  0  0  0  0  0  0  0
   24.9212   25.4942   98.1674 H   0  0  0  0  0  0  0  0  0  0  0  0
   24.6055   25.9030   96.2568 H   0  0  0  0  0  0  0  0  0  0  0  0
   27.0624   23.7741   98.1560 H   0  0  0  0  0  0  0  0  0  0  0  0
   26.9607   25.3494   99.5766 H   0  0  0  0  0  0  0  0  0  0  0  0
   28.6068   24.8893   96.8190 H   0  0  0  0  0  0  0  0  0  0  0  0
   27.2580   26.7919   96.7078 H   0  0  0  0  0  0  0  0  0  0  0  0
   26.3266   23.3002   96.1079 H   0  0  0  0  0  0  0  0  0  0  0  0
   26.6813   24.4778   94.7322 H   0  0  0  0  0  0  0  0  0  0  0  0
  1  2  2  0
  1  3  1  6
  1  4  1  0
  1 53  1  0
  4  5  1  0
  6  5  1  0
  6  7  1  0
  6  8  1  0
  7 12  1  0
  8  9  1  0
  8 10  1  0
 10 11  1  0
 10 12  1  0
 12 13  1  0
 13 14  1  0
 13 22  1  0
 14 15  2  0
 15 16  1  0
 16 17  2  0
 16 22  1  0
 17 18  1  0
 17 19  1  0
 19 20  2  0
 20 21  1  0
 21 22  2  0
 23 24  1  0
 23 40  2  0
 24 25  2  0
 24 26  1  0
 26 27  1  0
 27 28  2  0
 27 29  1  0
 29 30  2  0
 29 40  1  0
 30 31  1  0
 31 32  1  0
 31 38  2  0
 32 33  2  0
 33 34  1  0
 33 35  1  0
 35 36  1  0
 35 37  2  0
 37 38  1  0
 38 39  1  0
 39 40  1  0
 39 41  1  0
 41 42  1  0
 42 43  1  0
 42 44  1  0
 44 45  1  0
 44 46  1  0
 46 47  1  0
 46 48  1  0
 48 49  1  0
 49 50  1  0
 50 51  2  0
 50 52  1  6
 50 53  1  0
  5 54  1  0
  5 55  1  0
  6 56  1  6
  8 57  1  6
  9 58  1  0
 10 59  1  1
 11 60  1  0
 12 61  1  1
 14 62  1  0
 18 63  1  0
 18 64  1  0
 20 65  1  0
 26 66  1  0
 32 67  1  0
 34 68  1  0
 34 69  1  0
 34 70  1  0
 36 71  1  0
 36 72  1  0
 36 73  1  0
 37 74  1  0
 41 75  1  0
 41 76  1  0
 42 77  1  1
 43 78  1  0
 44 79  1  1
 45 80  1  0
 46 81  1  1
 47 82  1  0
 48 83  1  0
 48 84  1  0
M  CHG  2   3  -1  52  -1
M  END
>  <filename_input>  (22) 
7F8T_FAD_docked.sdf

>  <pdb_id>  (22) 
7F8T_FAD

>  <pose_rank>  (22) 
21

>  <num_atoms_heavy>  (22) 
53

>  <num_torsions>  (22) 
13

>  <pose>  (22) 
[28.09130347771199, 23.052980240393776, 95.07311068972326, 4.0030260666377195, 1.764908701771693, -1.1053337327134178, -0.5860342612939872, -0.540930955943747, 0.12366954590776454, -0.07248053305797722, -1.6134121864542827, 0.8173100628258285, -0.7247244135755517, -0.06432039405655784, 1.1931164446708957, 2.281656373758727, -1.298028045666793, -1.9254672426256887, 0.1111838470505897]

>  <energy>  (22) 
-769.7761288993604

>  <inter_energy>  (22) 
-879.8561817247437

>  <intra_energy>  (22) 
117.07724452789992

>  <rmsd>  (22) 
7.6605

>  <sdf_rank>  (22) 
0

$$$$

     RDKit          3D

 84 89  0  0  0  0  0  0  0  0999 V2000
   24.9450   26.1508  104.5226 P   0  0  1  0  0  0  0  0  0  0  0  0
   23.9529   25.3637  105.1931 O   0  0  0  0  0  0  0  0  0  0  0  0
   24.9932   27.6583  105.1081 O   0  0  0  0  0  0  0  0  0  0  0  0
   26.4528   25.4248  104.5815 O   0  0  0  0  0  0  0  0  0  0  0  0
   27.3317   25.7034  105.6879 C   0  0  0  0  0  0  0  0  0  0  0  0
   28.6724   25.7782  105.2013 C   0  0  1  0  0  0  0  0  0  0  0  0
   28.8000   26.7759  104.2252 O   0  0  0  0  0  0  0  0  0  0  0  0
   29.5523   26.1188  106.1709 C   0  0  1  0  0  0  0  0  0  0  0  0
   29.8503   25.0391  107.0246 O   0  0  0  0  0  0  0  0  0  0  0  0
   30.6455   26.5665  105.4550 C   0  0  1  0  0  0  0  0  0  0  0  0
   31.4017   25.4771  104.9386 O   0  0  0  0  0  0  0  0  0  0  0  0
   30.1142   27.2989  104.4417 C   0  0  2  0  0  0  0  0  0  0  0  0
   30.0625   28.6253  104.7802 N   0  0  0  0  0  0  0  0  0  0  0  0
   29.2483   29.1196  105.6301 C   0  0  0  0  0  0  0  0  0  0  0  0
   29.4663   30.4334  105.7285 N   0  0  0  0  0  0  0  0  0  0  0  0
   30.4975   30.7438  104.8594 C   0  0  0  0  0  0  0  0  0  0  0  0
   31.2019   31.8801  104.4734 C   0  0  0  0  0  0  0  0  0  0  0  0
   30.8984   33.1749  105.0469 N   0  0  0  0  0  0  0  0  0  0  0  0
   32.1633   31.7861  103.5771 N   0  0  0  0  0  0  0  0  0  0  0  0
   32.4670   30.6229  103.0314 C   0  0  0  0  0  0  0  0  0  0  0  0
   31.8333   29.4952  103.3545 N   0  0  0  0  0  0  0  0  0  0  0  0
   30.8523   29.5073  104.2524 C   0  0  0  0  0  0  0  0  0  0  0  0
   27.3911   22.6546   95.5734 N   0  0  0  0  0  0  0  0  0  0  0  0
   27.7032   23.0907   94.3288 C   0  0  0  0  0  0  0  0  0  0  0  0
   28.9842   23.0940   93.9290 O   0  0  0  0  0  0  0  0  0  0  0  0
   26.7432   23.5136   93.5248 N   0  0  0  0  0  0  0  0  0  0  0  0
   25.4863   23.4990   93.8717 C   0  0  0  0  0  0  0  0  0  0  0  0
   24.5959   23.9766   92.9925 O   0  0  0  0  0  0  0  0  0  0  0  0
   25.1459   23.1175   95.1426 C   0  0  0  0  0  0  0  0  0  0  0  0
   23.8805   23.1776   95.4823 N   0  0  0  0  0  0  0  0  0  0  0  0
   23.5041   22.5318   96.5903 C   0  0  0  0  0  0  0  0  0  0  0  0
   22.1503   22.3866   96.8232 C   0  0  0  0  0  0  0  0  0  0  0  0
   21.7165   21.7358   97.9668 C   0  0  0  0  0  0  0  0  0  0  0  0
   20.2056   21.5726   98.2371 C   0  0  0  0  0  0  0  0  0  0  0  0
   22.6664   21.2325   98.8682 C   0  0  0  0  0  0  0  0  0  0  0  0
   22.2173   20.5011  100.1554 C   0  0  0  0  0  0  0  0  0  0  0  0
   24.0189   21.3828   98.6310 C   0  0  0  0  0  0  0  0  0  0  0  0
   24.4924   22.0520   97.4770 C   0  0  0  0  0  0  0  0  0  0  0  0
   25.7570   22.2067   97.2011 N   0  0  0  0  0  0  0  0  0  0  0  0
   26.1026   22.6572   96.0173 C   0  0  0  0  0  0  0  0  0  0  0  0
   26.8254   21.6581   98.1117 C   0  0  0  0  0  0  0  0  0  0  0  0
   27.4424   22.7412   98.9820 C   0  0  2  0  0  0  0  0  0  0  0  0
   28.3504   23.3628   98.3390 O   0  0  0  0  0  0  0  0  0  0  0  0
   27.9736   22.2324  100.2073 C   0  0  2  0  0  0  0  0  0  0  0  0
   28.0225   20.8805  100.1529 O   0  0  0  0  0  0  0  0  0  0  0  0
   27.2094   22.6637  101.3345 C   0  0  2  0  0  0  0  0  0  0  0  0
   26.0686   22.0851  101.4484 O   0  0  0  0  0  0  0  0  0  0  0  0
   26.9548   24.1119  101.1340 C   0  0  0  0  0  0  0  0  0  0  0  0
   26.1675   24.7555  102.1498 O   0  0  0  0  0  0  0  0  0  0  0  0
   24.4890   24.8223  101.9355 P   0  0  1  0  0  0  0  0  0  0  0  0
   24.0635   25.1640  100.5928 O   0  0  0  0  0  0  0  0  0  0  0  0
   23.9735   23.3884  102.5281 O   0  0  0  0  0  0  0  0  0  0  0  0
   24.3322   26.0193  103.0189 O   0  0  0  0  0  0  0  0  0  0  0  0
   27.0520   26.6614  106.1504 H   0  0  0  0  0  0  0  0  0  0  0  0
   27.2506   24.9054  106.4407 H   0  0  0  0  0  0  0  0  0  0  0  0
   28.8894   24.7756  104.8041 H   0  0  0  0  0  0  0  0  0  0  0  0
   29.1647   26.8818  106.8619 H   0  0  0  0  0  0  0  0  0  0  0  0
   29.7696   25.3316  107.9670 H   0  0  0  0  0  0  0  0  0  0  0  0
   31.3360   27.1503  106.0814 H   0  0  0  0  0  0  0  0  0  0  0  0
   31.7703   24.9462  105.6886 H   0  0  0  0  0  0  0  0  0  0  0  0
   30.7262   27.2301  103.5303 H   0  0  0  0  0  0  0  0  0  0  0  0
   28.4895   28.5544  106.1911 H   0  0  0  0  0  0  0  0  0  0  0  0
   31.4290   34.0065  104.7506 H   0  0  0  0  0  0  0  0  0  0  0  0
   30.1520   33.2642  105.7510 H   0  0  0  0  0  0  0  0  0  0  0  0
   33.2721   30.5826  102.2830 H   0  0  0  0  0  0  0  0  0  0  0  0
   26.9968   23.8671   92.5912 H   0  0  0  0  0  0  0  0  0  0  0  0
   21.4200   22.7858   96.1040 H   0  0  0  0  0  0  0  0  0  0  0  0
   20.0273   21.5533   99.3224 H   0  0  0  0  0  0  0  0  0  0  0  0
   19.6600   22.4170   97.7908 H   0  0  0  0  0  0  0  0  0  0  0  0
   19.8528   20.6311   97.7908 H   0  0  0  0  0  0  0  0  0  0  0  0
   22.5624   21.0631  101.0358 H   0  0  0  0  0  0  0  0  0  0  0  0
   21.1198   20.4299  100.1728 H   0  0  0  0  0  0  0  0  0  0  0  0
   22.6506   19.4901  100.1728 H   0  0  0  0  0  0  0  0  0  0  0  0
   24.7418   20.9746   99.3527 H   0  0  0  0  0  0  0  0  0  0  0  0
   26.3788   20.8915   98.7620 H   0  0  0  0  0  0  0  0  0  0  0  0
   27.6216   21.2320   97.4836 H   0  0  0  0  0  0  0  0  0  0  0  0
   26.6309   23.4358   99.2446 H   0  0  0  0  0  0  0  0  0  0  0  0
   28.9740   23.7898   98.9784 H   0  0  0  0  0  0  0  0  0  0  0  0
   28.9911   22.6306  100.3340 H   0  0  0  0  0  0  0  0  0  0  0  0
   28.0357   20.5135  101.0723 H   0  0  0  0  0  0  0  0  0  0  0  0
   27.7801   22.4208  102.2430 H   0  0  0  0  0  0  0  0  0  0  0  0
   25.8493   21.9739  102.4073 H   0  0  0  0  0  0  0  0  0  0  0  0
   27.9281   24.6223  101.0874 H   0  0  0  0  0  0  0  0  0  0  0  0
   26.3657   24.1861  100.2080 H   0  0  0  0  0  0  0  0  0  0  0  0
  1  2  2  0
  1  3  1  1
  1  4  1  0
  1 53  1  0
  4  5  1  0
  6  5  1  0
  6  7  1  0
  6  8  1  0
  7 12  1  0
  8  9  1  0
  8 10  1  0
 10 11  1  0
 10 12  1  0
 12 13  1  0
 13 14  1  0
 13 22  1  0
 14 15  2  0
 15 16  1  0
 16 17  2  0
 16 22  1  0
 17 18  1  0
 17 19  1  0
 19 20  2  0
 20 21  1  0
 21 22  2  0
 23 24  1  0
 23 40  2  0
 24 25  2  0
 24 26  1  0
 26 27  1  0
 27 28  2  0
 27 29  1  0
 29 30  2  0
 29 40  1  0
 30 31  1  0
 31 32  1  0
 31 38  2  0
 32 33  2  0
 33 34  1  0
 33 35  1  0
 35 36  1  0
 35 37  2  0
 37 38  1  0
 38 39  1  0
 39 40  1  0
 39 41  1  0
 41 42  1  0
 42 43  1  0
 42 44  1  0
 44 45  1  0
 44 46  1  0
 46 47  1  0
 46 48  1  0
 48 49  1  0
 49 50  1  0
 50 51  2  0
 50 52  1  1
 50 53  1  0
  5 54  1  0
  5 55  1  0
  6 56  1  6
  8 57  1  1
  9 58  1  0
 10 59  1  1
 11 60  1  0
 12 61  1  6
 14 62  1  0
 18 63  1  0
 18 64  1  0
 20 65  1  0
 26 66  1  0
 32 67  1  0
 34 68  1  0
 34 69  1  0
 34 70  1  0
 36 71  1  0
 36 72  1  0
 36 73  1  0
 37 74  1  0
 41 75  1  0
 41 76  1  0
 42 77  1  1
 43 78  1  0
 44 79  1  1
 45 80  1  0
 46 81  1  1
 47 82  1  0
 48 83  1  0
 48 84  1  0
M  CHG  2   3  -1  52  -1
M  END
>  <filename_input>  (23) 
7F8T_FAD_docked.sdf

>  <pdb_id>  (23) 
7F8T_FAD

>  <pose_rank>  (23) 
22

>  <num_atoms_heavy>  (23) 
53

>  <num_torsions>  (23) 
13

>  <pose>  (23) 
[26.167526992778665, 24.75552680603073, 102.14982522137741, -3.6457700360518537, -1.5921793405000597, -1.5099314017534138, -1.640252359508499, -4.0277117907345055, -3.9430366934054795, -4.800873582191349, 6.13813860968554, 8.158997354893897, 0.28911903582168463, -3.5799424191148788, 0.18236082998415953, 2.4284514201554597, 1.021255636003333, 3.9693709368040477, -6.417563575720967]

>  <energy>  (23) 
-701.0605611055084

>  <inter_energy>  (23) 
-774.4973958012864

>  <intra_energy>  (23) 
86.95391331166134

>  <rmsd>  (23) 
10.3107

>  <sdf_rank>  (23) 
0

$$$$

     RDKit          3D

 84 89  0  0  0  0  0  0  0  0999 V2000
   29.6525   22.8775  101.0316 P   0  0  1  0  0  0  0  0  0  0  0  0
   31.0186   22.5954  101.3591 O   0  0  0  0  0  0  0  0  0  0  0  0
   29.4486   24.4380  100.6562 O   0  0  0  0  0  0  0  0  0  0  0  0
   29.0908   21.8779   99.8111 O   0  0  0  0  0  0  0  0  0  0  0  0
   30.0330   21.1554   98.9959 C   0  0  0  0  0  0  0  0  0  0  0  0
   29.9940   21.6857   97.6704 C   0  0  1  0  0  0  0  0  0  0  0  0
   31.1632   21.3687   96.9656 O   0  0  0  0  0  0  0  0  0  0  0  0
   28.9863   21.1601   96.9364 C   0  0  1  0  0  0  0  0  0  0  0  0
   27.7365   21.7175   97.2691 O   0  0  0  0  0  0  0  0  0  0  0  0
   29.3752   21.4275   95.6383 C   0  0  1  0  0  0  0  0  0  0  0  0
   29.1210   22.7854   95.2960 O   0  0  0  0  0  0  0  0  0  0  0  0
   30.7099   21.1751   95.6221 C   0  0  2  0  0  0  0  0  0  0  0  0
   30.9541   19.8937   95.2041 N   0  0  0  0  0  0  0  0  0  0  0  0
   31.6022   19.0272   95.8813 C   0  0  0  0  0  0  0  0  0  0  0  0
   31.6531   17.8850   95.1915 N   0  0  0  0  0  0  0  0  0  0  0  0
   30.9785   18.0945   94.0015 C   0  0  0  0  0  0  0  0  0  0  0  0
   30.6612   17.3598   92.8632 C   0  0  0  0  0  0  0  0  0  0  0  0
   31.0734   15.9778   92.7301 N   0  0  0  0  0  0  0  0  0  0  0  0
   29.9726   17.9193   91.8889 N   0  0  0  0  0  0  0  0  0  0  0  0
   29.5810   19.1773   91.9742 C   0  0  0  0  0  0  0  0  0  0  0  0
   29.8501   19.9388   93.0350 N   0  0  0  0  0  0  0  0  0  0  0  0
   30.5392   19.4462   94.0604 C   0  0  0  0  0  0  0  0  0  0  0  0
   23.7278   24.0439  100.7278 N   0  0  0  0  0  0  0  0  0  0  0  0
   24.1860   25.0181  101.5509 C   0  0  0  0  0  0  0  0  0  0  0  0
   24.2184   24.8063  102.8756 O   0  0  0  0  0  0  0  0  0  0  0  0
   24.5902   26.1684  101.0403 N   0  0  0  0  0  0  0  0  0  0  0  0
   24.5968   26.3974   99.7567 C   0  0  0  0  0  0  0  0  0  0  0  0
   24.9990   27.6071   99.3458 O   0  0  0  0  0  0  0  0  0  0  0  0
   24.0868   25.4538   98.9045 C   0  0  0  0  0  0  0  0  0  0  0  0
   24.0458   25.7413   97.6256 N   0  0  0  0  0  0  0  0  0  0  0  0
   23.8419   24.7352   96.7696 C   0  0  0  0  0  0  0  0  0  0  0  0
   24.0366   24.9836   95.4248 C   0  0  0  0  0  0  0  0  0  0  0  0
   23.8230   23.9724   94.5020 C   0  0  0  0  0  0  0  0  0  0  0  0
   24.0341   24.2423   92.9970 C   0  0  0  0  0  0  0  0  0  0  0  0
   23.4139   22.7094   94.9554 C   0  0  0  0  0  0  0  0  0  0  0  0
   23.1655   21.5576   93.9527 C   0  0  0  0  0  0  0  0  0  0  0  0
   23.2186   22.4675   96.3012 C   0  0  0  0  0  0  0  0  0  0  0  0
   23.4187   23.4833   97.2666 C   0  0  0  0  0  0  0  0  0  0  0  0
   23.2620   23.3014   98.5479 N   0  0  0  0  0  0  0  0  0  0  0  0
   23.6631   24.2344   99.3799 C   0  0  0  0  0  0  0  0  0  0  0  0
   22.8580   21.9583   99.1000 C   0  0  0  0  0  0  0  0  0  0  0  0
   24.0515   21.0335   99.2768 C   0  0  2  0  0  0  0  0  0  0  0  0
   23.9563   20.0323   98.4940 O   0  0  0  0  0  0  0  0  0  0  0  0
   24.2111   20.5856  100.6245 C   0  0  2  0  0  0  0  0  0  0  0  0
   23.6770   21.4974  101.4710 O   0  0  0  0  0  0  0  0  0  0  0  0
   25.5828   20.3457  100.9432 C   0  0  2  0  0  0  0  0  0  0  0  0
   25.7622   19.4787  101.8733 O   0  0  0  0  0  0  0  0  0  0  0  0
   26.1283   21.6375  101.4290 C   0  0  0  0  0  0  0  0  0  0  0  0
   26.7697   21.6021  102.7148 O   0  0  0  0  0  0  0  0  0  0  0  0
   27.6619   22.9577  103.1988 P   0  0  1  0  0  0  0  0  0  0  0  0
   27.1581   24.2226  102.7020 O   0  0  0  0  0  0  0  0  0  0  0  0
   27.7561   22.7899  104.8224 O   0  0  0  0  0  0  0  0  0  0  0  0
   29.0006   22.4243  102.4541 O   0  0  0  0  0  0  0  0  0  0  0  0
   31.0453   21.2699   99.4107 H   0  0  0  0  0  0  0  0  0  0  0  0
   29.7718   20.0869   98.9796 H   0  0  0  0  0  0  0  0  0  0  0  0
   29.8657   22.7705   97.7994 H   0  0  0  0  0  0  0  0  0  0  0  0
   28.8336   20.0852   97.1135 H   0  0  0  0  0  0  0  0  0  0  0  0
   27.6450   21.7583   98.2540 H   0  0  0  0  0  0  0  0  0  0  0  0
   28.8211   20.8179   94.9093 H   0  0  0  0  0  0  0  0  0  0  0  0
   29.0208   23.3209   96.1226 H   0  0  0  0  0  0  0  0  0  0  0  0
   31.2379   21.8405   94.9231 H   0  0  0  0  0  0  0  0  0  0  0  0
   32.0471   19.1945   96.8733 H   0  0  0  0  0  0  0  0  0  0  0  0
   30.8307   15.4474   91.8811 H   0  0  0  0  0  0  0  0  0  0  0  0
   31.6094   15.5253   93.4844 H   0  0  0  0  0  0  0  0  0  0  0  0
   29.0121   19.6130   91.1397 H   0  0  0  0  0  0  0  0  0  0  0  0
   24.9113   26.9099  101.6790 H   0  0  0  0  0  0  0  0  0  0  0  0
   24.3597   25.9796   95.0880 H   0  0  0  0  0  0  0  0  0  0  0  0
   24.7073   25.1028   92.8697 H   0  0  0  0  0  0  0  0  0  0  0  0
   24.4801   23.3548   92.5244 H   0  0  0  0  0  0  0  0  0  0  0  0
   23.0653   24.4615   92.5244 H   0  0  0  0  0  0  0  0  0  0  0  0
   22.9650   20.6276   94.5048 H   0  0  0  0  0  0  0  0  0  0  0  0
   22.2995   21.8024   93.3201 H   0  0  0  0  0  0  0  0  0  0  0  0
   24.0555   21.4239   93.3201 H   0  0  0  0  0  0  0  0  0  0  0  0
   22.9016   21.4665   96.6291 H   0  0  0  0  0  0  0  0  0  0  0  0
   22.3755   22.1065  100.0773 H   0  0  0  0  0  0  0  0  0  0  0  0
   22.1680   21.4896   98.3829 H   0  0  0  0  0  0  0  0  0  0  0  0
   24.9464   21.6205   99.0226 H   0  0  0  0  0  0  0  0  0  0  0  0
   23.8774   19.2023   99.0278 H   0  0  0  0  0  0  0  0  0  0  0  0
   23.6804   19.6285  100.7352 H   0  0  0  0  0  0  0  0  0  0  0  0
   23.8417   21.2161  102.4058 H   0  0  0  0  0  0  0  0  0  0  0  0
   26.0752   19.9507  100.0424 H   0  0  0  0  0  0  0  0  0  0  0  0
   25.6713   19.9179  102.7559 H   0  0  0  0  0  0  0  0  0  0  0  0
   26.8661   21.9902  100.6934 H   0  0  0  0  0  0  0  0  0  0  0  0
   25.2602   22.3028  101.5467 H   0  0  0  0  0  0  0  0  0  0  0  0
  1  2  2  0
  1  3  1  6
  1  4  1  0
  1 53  1  0
  4  5  1  0
  6  5  1  0
  6  7  1  0
  6  8  1  0
  7 12  1  0
  8  9  1  0
  8 10  1  0
 10 11  1  0
 10 12  1  0
 12 13  1  0
 13 14  1  0
 13 22  1  0
 14 15  2  0
 15 16  1  0
 16 17  2  0
 16 22  1  0
 17 18  1  0
 17 19  1  0
 19 20  2  0
 20 21  1  0
 21 22  2  0
 23 24  1  0
 23 40  2  0
 24 25  2  0
 24 26  1  0
 26 27  1  0
 27 28  2  0
 27 29  1  0
 29 30  2  0
 29 40  1  0
 30 31  1  0
 31 32  1  0
 31 38  2  0
 32 33  2  0
 33 34  1  0
 33 35  1  0
 35 36  1  0
 35 37  2  0
 37 38  1  0
 38 39  1  0
 39 40  1  0
 39 41  1  0
 41 42  1  0
 42 43  1  0
 42 44  1  0
 44 45  1  0
 44 46  1  0
 46 47  1  0
 46 48  1  0
 48 49  1  0
 49 50  1  0
 50 51  2  0
 50 52  1  1
 50 53  1  0
  5 54  1  0
  5 55  1  0
  6 56  1  1
  8 57  1  6
  9 58  1  0
 10 59  1  6
 11 60  1  0
 12 61  1  6
 14 62  1  0
 18 63  1  0
 18 64  1  0
 20 65  1  0
 26 66  1  0
 32 67  1  0
 34 68  1  0
 34 69  1  0
 34 70  1  0
 36 71  1  0
 36 72  1  0
 36 73  1  0
 37 74  1  0
 41 75  1  0
 41 76  1  0
 42 77  1  6
 43 78  1  0
 44 79  1  6
 45 80  1  0
 46 81  1  6
 47 82  1  0
 48 83  1  0
 48 84  1  0
M  CHG  2   3  -1  52  -1
M  END
>  <filename_input>  (24) 
7F8T_FAD_docked.sdf

>  <pdb_id>  (24) 
7F8T_FAD

>  <pose_rank>  (24) 
23

>  <num_atoms_heavy>  (24) 
53

>  <num_torsions>  (24) 
13

>  <pose>  (24) 
[26.769738089665065, 21.602085743543554, 102.71479960847375, 1.9329834093021845, -1.2685759728461465, -0.770183264399192, -19.179258285471214, -1.4088939083979521, -12.448484124722475, 9.029448956940817, 31.804240093211376, 9.918214539387431, -0.5969681180141417, -43.02001325163149, -32.15082391406325, -7.811540756727786, 0.3468127440285485, 28.545101045100427, 21.95286875008763]

>  <energy>  (24) 
-699.9727211825875

>  <inter_energy>  (24) 
-774.1484069876336

>  <intra_energy>  (24) 
74.23369416383565

>  <rmsd>  (24) 
8.1843

>  <sdf_rank>  (24) 
0

$$$$

     RDKit          3D

 84 89  0  0  0  0  0  0  0  0999 V2000
   28.0517   23.4438  103.9941 P   0  0  1  0  0  0  0  0  0  0  0  0
   28.5159   23.3811  105.3483 O   0  0  0  0  0  0  0  0  0  0  0  0
   29.2709   23.7209  102.9674 O   0  0  0  0  0  0  0  0  0  0  0  0
   27.1973   22.0675  103.5696 O   0  0  0  0  0  0  0  0  0  0  0  0
   26.9920   21.0302  104.5474 C   0  0  0  0  0  0  0  0  0  0  0  0
   26.8479   19.7819  103.8686 C   0  0  1  0  0  0  0  0  0  0  0  0
   27.5549   18.7657  104.5255 O   0  0  0  0  0  0  0  0  0  0  0  0
   25.5636   19.3573  103.8416 C   0  0  1  0  0  0  0  0  0  0  0  0
   24.7940   20.0448  102.8833 O   0  0  0  0  0  0  0  0  0  0  0  0
   25.6881   18.0077  103.5756 C   0  0  1  0  0  0  0  0  0  0  0  0
   25.9533   17.7789  102.1962 O   0  0  0  0  0  0  0  0  0  0  0  0
   26.7401   17.6049  104.3350 C   0  0  2  0  0  0  0  0  0  0  0  0
   26.3068   17.1096  105.5364 N   0  0  0  0  0  0  0  0  0  0  0  0
   26.2161   17.7979  106.6077 C   0  0  0  0  0  0  0  0  0  0  0  0
   25.7573   17.0171  107.5890 N   0  0  0  0  0  0  0  0  0  0  0  0
   25.5618   15.7567  107.0524 C   0  0  0  0  0  0  0  0  0  0  0  0
   25.1199   14.5140  107.4961 C   0  0  0  0  0  0  0  0  0  0  0  0
   24.7108   14.3167  108.8713 N   0  0  0  0  0  0  0  0  0  0  0  0
   25.0655   13.4972  106.6596 N   0  0  0  0  0  0  0  0  0  0  0  0
   25.4318   13.6389  105.3991 C   0  0  0  0  0  0  0  0  0  0  0  0
   25.8647   14.8001  104.9073 N   0  0  0  0  0  0  0  0  0  0  0  0
   25.9468   15.8736  105.6880 C   0  0  0  0  0  0  0  0  0  0  0  0
   26.7540   21.5312   96.7101 N   0  0  0  0  0  0  0  0  0  0  0  0
   27.8911   21.6849   95.9892 C   0  0  0  0  0  0  0  0  0  0  0  0
   29.0493   21.2039   96.4667 O   0  0  0  0  0  0  0  0  0  0  0  0
   27.8480   22.3122   94.8266 N   0  0  0  0  0  0  0  0  0  0  0  0
   26.7359   22.7683   94.3213 C   0  0  0  0  0  0  0  0  0  0  0  0
   26.8071   23.4140   93.1500 O   0  0  0  0  0  0  0  0  0  0  0  0
   25.5807   22.6783   95.0522 C   0  0  0  0  0  0  0  0  0  0  0  0
   24.4922   23.2060   94.5455 N   0  0  0  0  0  0  0  0  0  0  0  0
   23.3227   22.8626   95.0940 C   0  0  0  0  0  0  0  0  0  0  0  0
   22.1679   23.2165   94.4238 C   0  0  0  0  0  0  0  0  0  0  0  0
   20.9339   22.8922   94.9639 C   0  0  0  0  0  0  0  0  0  0  0  0
   19.6383   23.2873   94.2239 C   0  0  0  0  0  0  0  0  0  0  0  0
   20.8827   22.2049   96.1858 C   0  0  0  0  0  0  0  0  0  0  0  0
   19.5220   21.8275   96.8182 C   0  0  0  0  0  0  0  0  0  0  0  0
   22.0409   21.8556   96.8526 C   0  0  0  0  0  0  0  0  0  0  0  0
   23.3157   22.1823   96.3310 C   0  0  0  0  0  0  0  0  0  0  0  0
   24.4369   21.8626   96.9141 N   0  0  0  0  0  0  0  0  0  0  0  0
   25.5653   22.0255   96.2630 C   0  0  0  0  0  0  0  0  0  0  0  0
   24.4488   21.0937   98.2104 C   0  0  0  0  0  0  0  0  0  0  0  0
   24.5816   22.0113   99.4151 C   0  0  2  0  0  0  0  0  0  0  0  0
   23.7839   22.9997   99.3095 O   0  0  0  0  0  0  0  0  0  0  0  0
   25.9172   22.4810   99.6098 C   0  0  2  0  0  0  0  0  0  0  0  0
   26.5044   21.7762  100.6056 O   0  0  0  0  0  0  0  0  0  0  0  0
   25.9494   23.8801   99.8966 C   0  0  2  0  0  0  0  0  0  0  0  0
   26.5296   24.5878   98.9958 O   0  0  0  0  0  0  0  0  0  0  0  0
   26.7302   24.0292  101.1498 C   0  0  0  0  0  0  0  0  0  0  0  0
   26.4568   25.2110  101.9207 O   0  0  0  0  0  0  0  0  0  0  0  0
   25.6455   25.0310  103.3963 P   0  0  1  0  0  0  0  0  0  0  0  0
   24.9620   26.2219  103.8604 O   0  0  0  0  0  0  0  0  0  0  0  0
   24.7268   23.6987  103.1641 O   0  0  0  0  0  0  0  0  0  0  0  0
   27.0209   24.6906  104.1860 O   0  0  0  0  0  0  0  0  0  0  0  0
   27.8567   20.9848  105.2258 H   0  0  0  0  0  0  0  0  0  0  0  0
   26.0870   21.2435  105.1351 H   0  0  0  0  0  0  0  0  0  0  0  0
   27.2263   19.9633  102.8517 H   0  0  0  0  0  0  0  0  0  0  0  0
   25.0218   19.5499  104.7793 H   0  0  0  0  0  0  0  0  0  0  0  0
   24.1400   20.6291  103.3426 H   0  0  0  0  0  0  0  0  0  0  0  0
   24.7647   17.4562  103.8065 H   0  0  0  0  0  0  0  0  0  0  0  0
   26.6998   17.1350  102.1060 H   0  0  0  0  0  0  0  0  0  0  0  0
   27.3045   16.7970  103.8463 H   0  0  0  0  0  0  0  0  0  0  0  0
   26.4743   18.8626  106.7065 H   0  0  0  0  0  0  0  0  0  0  0  0
   24.3861   13.3907  109.1842 H   0  0  0  0  0  0  0  0  0  0  0  0
   24.7446   15.1024  109.5365 H   0  0  0  0  0  0  0  0  0  0  0  0
   25.3777   12.7673  104.7303 H   0  0  0  0  0  0  0  0  0  0  0  0
   28.7239   22.4455   94.3012 H   0  0  0  0  0  0  0  0  0  0  0  0
   22.2276   23.7534   93.4655 H   0  0  0  0  0  0  0  0  0  0  0  0
   18.8549   23.5263   94.9582 H   0  0  0  0  0  0  0  0  0  0  0  0
   19.8303   24.1678   93.5931 H   0  0  0  0  0  0  0  0  0  0  0  0
   19.3063   22.4496   93.5931 H   0  0  0  0  0  0  0  0  0  0  0  0
   19.6080   21.8513   97.9145 H   0  0  0  0  0  0  0  0  0  0  0  0
   18.7553   22.5468   96.4948 H   0  0  0  0  0  0  0  0  0  0  0  0
   19.2354   20.8159   96.4948 H   0  0  0  0  0  0  0  0  0  0  0  0
   21.9713   21.3133   97.8071 H   0  0  0  0  0  0  0  0  0  0  0  0
   23.5093   20.5280   98.2966 H   0  0  0  0  0  0  0  0  0  0  0  0
   25.3186   20.4204   98.1984 H   0  0  0  0  0  0  0  0  0  0  0  0
   24.3169   21.4127  100.2991 H   0  0  0  0  0  0  0  0  0  0  0  0
   23.5288   23.3158  100.2123 H   0  0  0  0  0  0  0  0  0  0  0  0
   26.4763   22.3289   98.6748 H   0  0  0  0  0  0  0  0  0  0  0  0
   26.2081   22.1318  101.4807 H   0  0  0  0  0  0  0  0  0  0  0  0
   24.9106   24.2365   99.9594 H   0  0  0  0  0  0  0  0  0  0  0  0
   27.0938   25.2761   99.4295 H   0  0  0  0  0  0  0  0  0  0  0  0
   26.5194   23.1559  101.7846 H   0  0  0  0  0  0  0  0  0  0  0  0
   27.7818   24.1126  100.8382 H   0  0  0  0  0  0  0  0  0  0  0  0
  1  2  2  0
  1  3  1  6
  1  4  1  0
  1 53  1  0
  4  5  1  0
  6  5  1  0
  6  7  1  0
  6  8  1  0
  7 12  1  0
  8  9  1  0
  8 10  1  0
 10 11  1  0
 10 12  1  0
 12 13  1  0
 13 14  1  0
 13 22  1  0
 14 15  2  0
 15 16  1  0
 16 17  2  0
 16 22  1  0
 17 18  1  0
 17 19  1  0
 19 20  2  0
 20 21  1  0
 21 22  2  0
 23 24  1  0
 23 40  2  0
 24 25  2  0
 24 26  1  0
 26 27  1  0
 27 28  2  0
 27 29  1  0
 29 30  2  0
 29 40  1  0
 30 31  1  0
 31 32  1  0
 31 38  2  0
 32 33  2  0
 33 34  1  0
 33 35  1  0
 35 36  1  0
 35 37  2  0
 37 38  1  0
 38 39  1  0
 39 40  1  0
 39 41  1  0
 41 42  1  0
 42 43  1  0
 42 44  1  0
 44 45  1  0
 44 46  1  0
 46 47  1  0
 46 48  1  0
 48 49  1  0
 49 50  1  0
 50 51  2  0
 50 52  1  6
 50 53  1  0
  5 54  1  0
  5 55  1  0
  6 56  1  6
  8 57  1  1
  9 58  1  0
 10 59  1  1
 11 60  1  0
 12 61  1  6
 14 62  1  0
 18 63  1  0
 18 64  1  0
 20 65  1  0
 26 66  1  0
 32 67  1  0
 34 68  1  0
 34 69  1  0
 34 70  1  0
 36 71  1  0
 36 72  1  0
 36 73  1  0
 37 74  1  0
 41 75  1  0
 41 76  1  0
 42 77  1  1
 43 78  1  0
 44 79  1  6
 45 80  1  0
 46 81  1  1
 47 82  1  0
 48 83  1  0
 48 84  1  0
M  CHG  2   3  -1  52  -1
M  END
>  <filename_input>  (25) 
7F8T_FAD_docked.sdf

>  <pdb_id>  (25) 
7F8T_FAD

>  <pose_rank>  (25) 
24

>  <num_atoms_heavy>  (25) 
53

>  <num_torsions>  (25) 
13

>  <pose>  (25) 
[26.456757713218767, 25.21102470941099, 101.92071758470045, -1.7874332216822757, -3.589044040581263, 0.4938680003549016, 2.6471408430421235, 1.9987295545195791, 1.1454455385976556, 3.0626591237073892, -0.32524055337475744, 3.251574079787507, -0.0945773142524811, -0.06836297872578409, 0.6305098598865577, -0.8534128771513293, -0.9640788178127231, -0.06094399150265929, -0.038003720284175285]

>  <energy>  (25) 
-669.1855085658008

>  <inter_energy>  (25) 
-760.3572674019384

>  <intra_energy>  (25) 
85.17077686107388

>  <rmsd>  (25) 
9.16436

>  <sdf_rank>  (25) 
0

$$$$

     RDKit          3D

 84 89  0  0  0  0  0  0  0  0999 V2000
   24.1570   23.3970   94.1790 P   0  0  1  0  0  0  0  0  0  0  0  0
   25.5230   22.9880   94.0380 O   0  0  0  0  0  0  0  0  0  0  0  0
   23.5380   23.8760   92.7630 O   0  0  0  0  0  0  0  0  0  0  0  0
   23.2220   22.1970   94.8790 O   0  0  0  0  0  0  0  0  0  0  0  0
   21.7970   22.3780   94.9830 C   0  0  0  0  0  0  0  0  0  0  0  0
   21.3830   22.0120   96.3000 C   0  0  1  0  0  0  0  0  0  0  0  0
   21.9150   20.7690   96.6690 O   0  0  0  0  0  0  0  0  0  0  0  0
   21.8290   22.8790   97.2380 C   0  0  1  0  0  0  0  0  0  0  0  0
   21.0810   24.0720   97.2610 O   0  0  0  0  0  0  0  0  0  0  0  0
   21.7300   22.1500   98.4070 C   0  0  1  0  0  0  0  0  0  0  0  0
   20.3850   22.1030   98.8700 O   0  0  0  0  0  0  0  0  0  0  0  0
   22.1610   20.9060   98.0720 C   0  0  2  0  0  0  0  0  0  0  0  0
   23.4950   20.7660   98.3500 N   0  0  0  0  0  0  0  0  0  0  0  0
   24.4340   21.0580   97.5360 C   0  0  0  0  0  0  0  0  0  0  0  0
   25.6090   20.8100   98.1200 N   0  0  0  0  0  0  0  0  0  0  0  0
   25.3420   20.3270   99.3890 C   0  0  0  0  0  0  0  0  0  0  0  0
   26.0710   19.8880  100.4900 C   0  0  0  0  0  0  0  0  0  0  0  0
   27.5190   19.8720  100.4660 N   0  0  0  0  0  0  0  0  0  0  0  0
   25.4440   19.4830  101.5760 N   0  0  0  0  0  0  0  0  0  0  0  0
   24.1250   19.4820  101.6340 C   0  0  0  0  0  0  0  0  0  0  0  0
   23.3650   19.8890  100.6170 N   0  0  0  0  0  0  0  0  0  0  0  0
   23.9230   20.3140   99.4870 C   0  0  0  0  0  0  0  0  0  0  0  0
   24.0150   24.4930  102.5290 N   0  0  0  0  0  0  0  0  0  0  0  0
   22.9190   25.1200  103.0210 C   0  0  0  0  0  0  0  0  0  0  0  0
   21.7210   24.9020  102.4570 O   0  0  0  0  0  0  0  0  0  0  0  0
   23.0430   25.9440  104.0470 N   0  0  0  0  0  0  0  0  0  0  0  0
   24.1870   26.1580  104.6350 C   0  0  0  0  0  0  0  0  0  0  0  0
   24.2080   27.0340  105.6480 O   0  0  0  0  0  0  0  0  0  0  0  0
   25.3210   25.5830  104.1250 C   0  0  0  0  0  0  0  0  0  0  0  0
   26.4650   25.8710  104.6980 N   0  0  0  0  0  0  0  0  0  0  0  0
   27.5150   25.0950  104.4120 C   0  0  0  0  0  0  0  0  0  0  0  0
   28.6510   25.2370  105.1850 C   0  0  0  0  0  0  0  0  0  0  0  0
   29.7670   24.4620  104.9140 C   0  0  0  0  0  0  0  0  0  0  0  0
   31.0420   24.6170  105.7700 C   0  0  0  0  0  0  0  0  0  0  0  0
   29.7190   23.5420  103.8560 C   0  0  0  0  0  0  0  0  0  0  0  0
   30.9470   22.6610  103.5250 C   0  0  0  0  0  0  0  0  0  0  0  0
   28.5810   23.4060  103.0850 C   0  0  0  0  0  0  0  0  0  0  0  0
   27.4290   24.1910  103.3310 C   0  0  0  0  0  0  0  0  0  0  0  0
   26.3270   24.0900  102.6420 N   0  0  0  0  0  0  0  0  0  0  0  0
   25.2490   24.7080  103.0660 C   0  0  0  0  0  0  0  0  0  0  0  0
   26.2010   23.0960  101.5160 C   0  0  0  0  0  0  0  0  0  0  0  0
   26.5340   23.7170  100.1690 C   0  0  2  0  0  0  0  0  0  0  0  0
   27.6430   24.3420  100.2310 O   0  0  0  0  0  0  0  0  0  0  0  0
   25.5080   24.5900   99.6920 C   0  0  2  0  0  0  0  0  0  0  0  0
   24.3020   23.9910   99.8330 O   0  0  0  0  0  0  0  0  0  0  0  0
   25.7260   24.9690   98.3320 C   0  0  2  0  0  0  0  0  0  0  0  0
   26.7720   25.6910   98.1490 O   0  0  0  0  0  0  0  0  0  0  0  0
   24.5500   25.7820   97.9340 C   0  0  0  0  0  0  0  0  0  0  0  0
   24.6710   26.4900   96.6890 O   0  0  0  0  0  0  0  0  0  0  0  0
   23.6660   26.0270   95.4070 P   0  0  1  0  0  0  0  0  0  0  0  0
   22.2580   25.9450   95.7410 O   0  0  0  0  0  0  0  0  0  0  0  0
   24.0790   27.0600   94.2090 O   0  0  0  0  0  0  0  0  0  0  0  0
   24.4090   24.5930   95.2560 O   0  0  0  0  0  0  0  0  0  0  0  0
   21.5432   23.4316   94.7948 H   0  0  0  0  0  0  0  0  0  0  0  0
   21.2844   21.7483   94.2408 H   0  0  0  0  0  0  0  0  0  0  0  0
   20.2837   22.0008   96.2621 H   0  0  0  0  0  0  0  0  0  0  0  0
   22.8539   23.2324   97.0518 H   0  0  0  0  0  0  0  0  0  0  0  0
   20.9138   24.3386   98.1996 H   0  0  0  0  0  0  0  0  0  0  0  0
   22.3198   22.5965   99.2211 H   0  0  0  0  0  0  0  0  0  0  0  0
   20.3766   22.1027   99.8600 H   0  0  0  0  0  0  0  0  0  0  0  0
   21.6362   20.1288   98.6469 H   0  0  0  0  0  0  0  0  0  0  0  0
   24.2973   21.4506   96.5176 H   0  0  0  0  0  0  0  0  0  0  0  0
   28.0441   19.5441  101.2892 H   0  0  0  0  0  0  0  0  0  0  0  0
   28.0237   20.1885   99.6257 H   0  0  0  0  0  0  0  0  0  0  0  0
   23.6353   19.1326  102.5549 H   0  0  0  0  0  0  0  0  0  0  0  0
   22.2065   26.4344  104.3943 H   0  0  0  0  0  0  0  0  0  0  0  0
   28.6695   25.9621  106.0120 H   0  0  0  0  0  0  0  0  0  0  0  0
   30.7739   24.5844  106.8363 H   0  0  0  0  0  0  0  0  0  0  0  0
   31.7388   23.7969  105.5418 H   0  0  0  0  0  0  0  0  0  0  0  0
   31.5220   25.5801  105.5418 H   0  0  0  0  0  0  0  0  0  0  0  0
   31.4183   22.3229  104.4596 H   0  0  0  0  0  0  0  0  0  0  0  0
   30.6243   21.7871  102.9400 H   0  0  0  0  0  0  0  0  0  0  0  0
   31.6715   23.2466  102.9400 H   0  0  0  0  0  0  0  0  0  0  0  0
   28.5697   22.6737  102.2642 H   0  0  0  0  0  0  0  0  0  0  0  0
   26.8907   22.2595  101.7018 H   0  0  0  0  0  0  0  0  0  0  0  0
   25.1571   22.7507  101.4825 H   0  0  0  0  0  0  0  0  0  0  0  0
   26.6140   22.8883   99.4501 H   0  0  0  0  0  0  0  0  0  0  0  0
   27.8906   24.4815  101.1793 H   0  0  0  0  0  0  0  0  0  0  0  0
   25.5316   25.5111  100.2929 H   0  0  0  0  0  0  0  0  0  0  0  0
   24.0951   23.8882  100.7957 H   0  0  0  0  0  0  0  0  0  0  0  0
   25.8678   24.0506   97.7435 H   0  0  0  0  0  0  0  0  0  0  0  0
   27.1503   25.9521   99.0258 H   0  0  0  0  0  0  0  0  0  0  0  0
   23.6844   25.1077   97.8560 H   0  0  0  0  0  0  0  0  0  0  0  0
   24.4461   26.5559   98.7087 H   0  0  0  0  0  0  0  0  0  0  0  0
  1  2  2  0
  1  3  1  6
  1  4  1  0
  1 53  1  0
  4  5  1  0
  6  5  1  0
  6  7  1  0
  6  8  1  0
  7 12  1  0
  8  9  1  0
  8 10  1  0
 10 11  1  0
 10 12  1  0
 12 13  1  0
 13 14  1  0
 13 22  1  0
 14 15  2  0
 15 16  1  0
 16 17  2  0
 16 22  1  0
 17 18  1  0
 17 19  1  0
 19 20  2  0
 20 21  1  0
 21 22  2  0
 23 24  1  0
 23 40  2  0
 24 25  2  0
 24 26  1  0
 26 27  1  0
 27 28  2  0
 27 29  1  0
 29 30  2  0
 29 40  1  0
 30 31  1  0
 31 32  1  0
 31 38  2  0
 32 33  2  0
 33 34  1  0
 33 35  1  0
 35 36  1  0
 35 37  2  0
 37 38  1  0
 38 39  1  0
 39 40  1  0
 39 41  1  0
 41 42  1  0
 42 43  1  0
 42 44  1  0
 44 45  1  0
 44 46  1  0
 46 47  1  0
 46 48  1  0
 48 49  1  0
 49 50  1  0
 50 51  2  0
 50 52  1  6
 50 53  1  0
  5 54  1  0
  5 55  1  0
  6 56  1  6
  8 57  1  6
  9 58  1  0
 10 59  1  1
 11 60  1  0
 12 61  1  1
 14 62  1  0
 18 63  1  0
 18 64  1  0
 20 65  1  0
 26 66  1  0
 32 67  1  0
 34 68  1  0
 34 69  1  0
 34 70  1  0
 36 71  1  0
 36 72  1  0
 36 73  1  0
 37 74  1  0
 41 75  1  0
 41 76  1  0
 42 77  1  6
 43 78  1  0
 44 79  1  1
 45 80  1  0
 46 81  1  6
 47 82  1  0
 48 83  1  0
 48 84  1  0
M  CHG  2   3  -1  52  -1
M  END
>  <filename_input>  (26) 
7F8T_FAD_docked.sdf

>  <pdb_id>  (26) 
7F8T_FAD

>  <pose_rank>  (26) 
25

>  <num_atoms_heavy>  (26) 
53

>  <num_torsions>  (26) 
13

>  <pose>  (26) 
[24.671, 26.49, 96.689, 1e-06, 1e-06, 1e-06, 0.0, 0.0, 0.0, 0.0, 0.0, 0.0, 0.0, 0.0, 0.0, 0.0, 0.0, 0.0, 0.0]

>  <energy>  (26) 
-1005.9093504917162

>  <inter_energy>  (26) 
-1119.369792838196

>  <intra_energy>  (26) 
111.76086255106208

>  <rmsd>  (26) 
0.0

>  <sdf_rank>  (26) 
0

$$$$
