
     RDKit          3D

 19 19  0  0  0  0  0  0  0  0999 V2000
   13.4095   19.5642   40.6339 C   0  0  0  0  0  0  0  0  0  0  0  0
   14.5295   20.5922   40.7892 C   0  0  0  0  0  0  0  0  0  0  0  0
   15.6237   20.2821   41.5604 C   0  0  0  0  0  0  0  0  0  0  0  0
   16.6291   21.2535   41.6624 C   0  0  0  0  0  0  0  0  0  0  0  0
   15.4516   22.7124   40.2402 C   0  0  0  0  0  0  0  0  0  0  0  0
   14.4399   21.7702   40.1301 C   0  0  0  0  0  0  0  0  0  0  0  0
   17.9049   21.0306   42.4782 C   0  0  0  0  0  0  0  0  0  0  0  0
   16.5155   22.3978   41.0142 N   0  0  0  0  0  0  0  0  0  0  0  0
   13.3218   22.1528   39.2886 N   0  0  0  0  0  0  0  0  0  0  0  0
   13.0632   19.2462   41.6284 H   0  0  0  0  0  0  0  0  0  0  0  0
   12.5723   20.0148   40.0808 H   0  0  0  0  0  0  0  0  0  0  0  0
   13.7869   18.6915   40.0808 H   0  0  0  0  0  0  0  0  0  0  0  0
   15.7071   19.3136   42.0753 H   0  0  0  0  0  0  0  0  0  0  0  0
   15.3913   23.6786   39.7180 H   0  0  0  0  0  0  0  0  0  0  0  0
   17.6660   21.0723   43.5511 H   0  0  0  0  0  0  0  0  0  0  0  0
   18.3282   20.0449   42.2349 H   0  0  0  0  0  0  0  0  0  0  0  0
   18.6374   21.8144   42.2349 H   0  0  0  0  0  0  0  0  0  0  0  0
   13.3221   23.0684   38.8166 H   0  0  0  0  0  0  0  0  0  0  0  0
   12.5278   21.5089   39.1630 H   0  0  0  0  0  0  0  0  0  0  0  0
  1  2  1  0
  2  3  2  0
  2  6  1  0
  3  4  1  0
  4  7  1  0
  4  8  2  0
  5  6  2  0
  5  8  1  0
  6  9  1  0
  1 10  1  0
  1 11  1  0
  1 12  1  0
  3 13  1  0
  5 14  1  0
  7 15  1  0
  7 16  1  0
  7 17  1  0
  9 18  1  0
  9 19  1  0
M  END
>  <filename_input>  (1) 
7FB7_8NF_docked.sdf

>  <pdb_id>  (1) 
7FB7_8NF

>  <pose_rank>  (1) 
0

>  <num_atoms_heavy>  (1) 
9

>  <num_torsions>  (1) 
0

>  <pose>  (1) 
[13.409518549397822, 19.564155707383645, 40.633938485071546, 4.853490541491996, 3.749368225671883, 0.15607760784700975]

>  <energy>  (1) 
-504.6894681673263

>  <inter_energy>  (1) 
-474.31297422566684

>  <intra_energy>  (1) 
0.0

>  <rmsd>  (1) 
0.760021

>  <sdf_rank>  (1) 
0

$$$$

     RDKit          3D

 19 19  0  0  0  0  0  0  0  0999 V2000
   15.8995   20.7159   41.9525 C   0  0  0  0  0  0  0  0  0  0  0  0
   14.4421   21.0220   41.6096 C   0  0  0  0  0  0  0  0  0  0  0  0
   13.5189   20.0044   41.6318 C   0  0  0  0  0  0  0  0  0  0  0  0
   12.1933   20.3380   41.3211 C   0  0  0  0  0  0  0  0  0  0  0  0
   12.7635   22.6030   41.0357 C   0  0  0  0  0  0  0  0  0  0  0  0
   14.0831   22.2965   41.3321 C   0  0  0  0  0  0  0  0  0  0  0  0
   11.0656   19.3029   41.3222 C   0  0  0  0  0  0  0  0  0  0  0  0
   11.8693   21.5881   41.0479 N   0  0  0  0  0  0  0  0  0  0  0  0
   15.0034   23.4178   41.3076 N   0  0  0  0  0  0  0  0  0  0  0  0
   16.0214   20.6903   43.0455 H   0  0  0  0  0  0  0  0  0  0  0  0
   16.1785   19.7396   41.5295 H   0  0  0  0  0  0  0  0  0  0  0  0
   16.5477   21.4975   41.5295 H   0  0  0  0  0  0  0  0  0  0  0  0
   13.8075   18.9730   41.8826 H   0  0  0  0  0  0  0  0  0  0  0  0
   12.4556   23.6323   40.7996 H   0  0  0  0  0  0  0  0  0  0  0  0
   10.7960   19.0555   42.3596 H   0  0  0  0  0  0  0  0  0  0  0  0
   10.1879   19.7165   40.8039 H   0  0  0  0  0  0  0  0  0  0  0  0
   11.4025   18.3931   40.8039 H   0  0  0  0  0  0  0  0  0  0  0  0
   14.6578   24.3628   41.0877 H   0  0  0  0  0  0  0  0  0  0  0  0
   16.0022   23.2688   41.5102 H   0  0  0  0  0  0  0  0  0  0  0  0
  1  2  1  0
  2  3  2  0
  2  6  1  0
  3  4  1  0
  4  7  1  0
  4  8  2  0
  5  6  2  0
  5  8  1  0
  6  9  1  0
  1 10  1  0
  1 11  1  0
  1 12  1  0
  3 13  1  0
  5 14  1  0
  7 15  1  0
  7 16  1  0
  7 17  1  0
  9 18  1  0
  9 19  1  0
M  END
>  <filename_input>  (2) 
7FB7_8NF_docked.sdf

>  <pdb_id>  (2) 
7FB7_8NF

>  <pose_rank>  (2) 
1

>  <num_atoms_heavy>  (2) 
9

>  <num_torsions>  (2) 
0

>  <pose>  (2) 
[15.899505756521688, 20.715920385762463, 41.95253145693379, 0.5796309607471891, -2.766321746535363, 0.8825050449161465]

>  <energy>  (2) 
-228.29840653982782

>  <inter_energy>  (2) 
-232.03483805108667

>  <intra_energy>  (2) 
0.0

>  <rmsd>  (2) 
3.61439

>  <sdf_rank>  (2) 
0

$$$$

     RDKit          3D

 19 19  0  0  0  0  0  0  0  0999 V2000
   13.5432   22.6920   39.8257 C   0  0  0  0  0  0  0  0  0  0  0  0
   14.4405   21.7877   40.6695 C   0  0  0  0  0  0  0  0  0  0  0  0
   15.7513   22.1453   40.8752 C   0  0  0  0  0  0  0  0  0  0  0  0
   16.5304   21.2889   41.6656 C   0  0  0  0  0  0  0  0  0  0  0  0
   14.7037   19.8477   42.0165 C   0  0  0  0  0  0  0  0  0  0  0  0
   13.9146   20.6751   41.2314 C   0  0  0  0  0  0  0  0  0  0  0  0
   17.9998   21.5767   41.9830 C   0  0  0  0  0  0  0  0  0  0  0  0
   15.9954   20.2059   42.1979 N   0  0  0  0  0  0  0  0  0  0  0  0
   12.5373   20.2498   41.0677 N   0  0  0  0  0  0  0  0  0  0  0  0
   12.9245   23.3155   40.4878 H   0  0  0  0  0  0  0  0  0  0  0  0
   14.1671   23.3384   39.1909 H   0  0  0  0  0  0  0  0  0  0  0  0
   12.8920   22.0731   39.1909 H   0  0  0  0  0  0  0  0  0  0  0  0
   16.1709   23.0636   40.4387 H   0  0  0  0  0  0  0  0  0  0  0  0
   14.2946   18.9349   42.4741 H   0  0  0  0  0  0  0  0  0  0  0  0
   18.1408   21.6043   43.0736 H   0  0  0  0  0  0  0  0  0  0  0  0
   18.6300   20.7849   41.5518 H   0  0  0  0  0  0  0  0  0  0  0  0
   18.2848   22.5477   41.5518 H   0  0  0  0  0  0  0  0  0  0  0  0
   12.2060   19.3892   41.5266 H   0  0  0  0  0  0  0  0  0  0  0  0
   11.8907   20.8084   40.4926 H   0  0  0  0  0  0  0  0  0  0  0  0
  1  2  1  0
  2  3  2  0
  2  6  1  0
  3  4  1  0
  4  7  1  0
  4  8  2  0
  5  6  2  0
  5  8  1  0
  6  9  1  0
  1 10  1  0
  1 11  1  0
  1 12  1  0
  3 13  1  0
  5 14  1  0
  7 15  1  0
  7 16  1  0
  7 17  1  0
  9 18  1  0
  9 19  1  0
M  END
>  <filename_input>  (3) 
7FB7_8NF_docked.sdf

>  <pdb_id>  (3) 
7FB7_8NF

>  <pose_rank>  (3) 
2

>  <num_atoms_heavy>  (3) 
9

>  <num_torsions>  (3) 
0

>  <pose>  (3) 
[13.543165162157255, 22.692025395682375, 39.82566931625036, 2.71055525657459, 0.02747819034786382, 1.0224304043652381]

>  <energy>  (3) 
-359.62830586454373

>  <inter_energy>  (3) 
-350.34170540663894

>  <intra_energy>  (3) 
0.0

>  <rmsd>  (3) 
2.23135

>  <sdf_rank>  (3) 
0

$$$$

     RDKit          3D

 19 19  0  0  0  0  0  0  0  0999 V2000
    8.1718   20.0048   38.7370 C   0  0  0  0  0  0  0  0  0  0  0  0
    7.6034   21.1396   37.8858 C   0  0  0  0  0  0  0  0  0  0  0  0
    8.4648   21.9571   37.1946 C   0  0  0  0  0  0  0  0  0  0  0  0
    7.8943   22.9760   36.4192 C   0  0  0  0  0  0  0  0  0  0  0  0
    5.7209   22.3006   37.0168 C   0  0  0  0  0  0  0  0  0  0  0  0
    6.2619   21.2898   37.7972 C   0  0  0  0  0  0  0  0  0  0  0  0
    8.7395   23.9469   35.5909 C   0  0  0  0  0  0  0  0  0  0  0  0
    6.5823   23.1056   36.3537 N   0  0  0  0  0  0  0  0  0  0  0  0
    5.2985   20.4526   38.4869 N   0  0  0  0  0  0  0  0  0  0  0  0
    8.0495   20.2490   39.8026 H   0  0  0  0  0  0  0  0  0  0  0  0
    7.6345   19.0720   38.5106 H   0  0  0  0  0  0  0  0  0  0  0  0
    9.2405   19.8765   38.5106 H   0  0  0  0  0  0  0  0  0  0  0  0
    9.5547   21.8180   37.2474 H   0  0  0  0  0  0  0  0  0  0  0  0
    4.6328   22.4422   36.9399 H   0  0  0  0  0  0  0  0  0  0  0  0
    9.3105   24.6027   36.2646 H   0  0  0  0  0  0  0  0  0  0  0  0
    9.4351   23.3780   34.9564 H   0  0  0  0  0  0  0  0  0  0  0  0
    8.0803   24.5575   34.9564 H   0  0  0  0  0  0  0  0  0  0  0  0
    4.2897   20.6262   38.3719 H   0  0  0  0  0  0  0  0  0  0  0  0
    5.6232   19.6847   39.0917 H   0  0  0  0  0  0  0  0  0  0  0  0
  1  2  1  0
  2  3  2  0
  2  6  1  0
  3  4  1  0
  4  7  1  0
  4  8  2  0
  5  6  2  0
  5  8  1  0
  6  9  1  0
  1 10  1  0
  1 11  1  0
  1 12  1  0
  3 13  1  0
  5 14  1  0
  7 15  1  0
  7 16  1  0
  7 17  1  0
  9 18  1  0
  9 19  1  0
M  END
>  <filename_input>  (4) 
7FB7_8NF_docked.sdf

>  <pdb_id>  (4) 
7FB7_8NF

>  <pose_rank>  (4) 
3

>  <num_atoms_heavy>  (4) 
9

>  <num_torsions>  (4) 
0

>  <pose>  (4) 
[8.17177778788843, 20.004793311260247, 38.73700822876833, 10.74762563038066, -19.385365742006613, -20.138534805459766]

>  <energy>  (4) 
-57.35936410820398

>  <inter_energy>  (4) 
-53.85670246206076

>  <intra_energy>  (4) 
0.0

>  <rmsd>  (4) 
9.20775

>  <sdf_rank>  (4) 
0

$$$$

     RDKit          3D

 19 19  0  0  0  0  0  0  0  0999 V2000
    6.9534   22.1426   43.9889 C   0  0  0  0  0  0  0  0  0  0  0  0
    7.7008   23.4385   44.3011 C   0  0  0  0  0  0  0  0  0  0  0  0
    8.8885   23.3796   44.9897 C   0  0  0  0  0  0  0  0  0  0  0  0
    9.5416   24.5941   45.2415 C   0  0  0  0  0  0  0  0  0  0  0  0
    7.8677   25.8013   44.1110 C   0  0  0  0  0  0  0  0  0  0  0  0
    7.1988   24.6134   43.8564 C   0  0  0  0  0  0  0  0  0  0  0  0
   10.8768   24.6681   45.9862 C   0  0  0  0  0  0  0  0  0  0  0  0
    9.0282   25.7281   44.8021 N   0  0  0  0  0  0  0  0  0  0  0  0
    5.9608   24.7433   43.1113 N   0  0  0  0  0  0  0  0  0  0  0  0
    6.6682   21.6482   44.9292 H   0  0  0  0  0  0  0  0  0  0  0  0
    6.0490   22.3722   43.4064 H   0  0  0  0  0  0  0  0  0  0  0  0
    7.6050   21.4747   43.4064 H   0  0  0  0  0  0  0  0  0  0  0  0
    9.3085   22.4211   45.3287 H   0  0  0  0  0  0  0  0  0  0  0  0
    7.4696   26.7663   43.7642 H   0  0  0  0  0  0  0  0  0  0  0  0
   10.6929   24.6579   47.0707 H   0  0  0  0  0  0  0  0  0  0  0  0
   11.4982   23.8030   45.7116 H   0  0  0  0  0  0  0  0  0  0  0  0
   11.3989   25.5965   45.7116 H   0  0  0  0  0  0  0  0  0  0  0  0
    5.6396   25.6726   42.8043 H   0  0  0  0  0  0  0  0  0  0  0  0
    5.4030   23.9064   42.8894 H   0  0  0  0  0  0  0  0  0  0  0  0
  1  2  1  0
  2  3  2  0
  2  6  1  0
  3  4  1  0
  4  7  1  0
  4  8  2  0
  5  6  2  0
  5  8  1  0
  6  9  1  0
  1 10  1  0
  1 11  1  0
  1 12  1  0
  3 13  1  0
  5 14  1  0
  7 15  1  0
  7 16  1  0
  7 17  1  0
  9 18  1  0
  9 19  1  0
M  END
>  <filename_input>  (5) 
7FB7_8NF_docked.sdf

>  <pdb_id>  (5) 
7FB7_8NF

>  <pose_rank>  (5) 
4

>  <num_atoms_heavy>  (5) 
9

>  <num_torsions>  (5) 
0

>  <pose>  (5) 
[6.953389298373103, 22.14263959556986, 43.988924484076186, -2.5045966199885723, 2.380209433233737, -11.739263706529547]

>  <energy>  (5) 
-38.05442618516922

>  <inter_energy>  (5) 
-30.325755482580444

>  <intra_energy>  (5) 
0.0

>  <rmsd>  (5) 
7.94383

>  <sdf_rank>  (5) 
0

$$$$

     RDKit          3D

 19 19  0  0  0  0  0  0  0  0999 V2000
    8.5690   24.7884   46.2094 C   0  0  0  0  0  0  0  0  0  0  0  0
    8.7280   23.3459   46.6881 C   0  0  0  0  0  0  0  0  0  0  0  0
    7.6132   22.5517   46.8094 C   0  0  0  0  0  0  0  0  0  0  0  0
    7.8125   21.2330   47.2410 C   0  0  0  0  0  0  0  0  0  0  0  0
   10.1401   21.5569   47.3605 C   0  0  0  0  0  0  0  0  0  0  0  0
    9.9678   22.8679   46.9424 C   0  0  0  0  0  0  0  0  0  0  0  0
    6.6585   20.2409   47.4054 C   0  0  0  0  0  0  0  0  0  0  0  0
    9.0318   20.7920   47.4885 N   0  0  0  0  0  0  0  0  0  0  0  0
   11.1853   23.6471   46.8188 N   0  0  0  0  0  0  0  0  0  0  0  0
    8.4952   25.4574   47.0795 H   0  0  0  0  0  0  0  0  0  0  0  0
    9.4413   25.0715   45.6021 H   0  0  0  0  0  0  0  0  0  0  0  0
    7.6559   24.8747   45.6021 H   0  0  0  0  0  0  0  0  0  0  0  0
    6.6082   22.9341   46.5778 H   0  0  0  0  0  0  0  0  0  0  0  0
   11.1401   21.1543   47.5796 H   0  0  0  0  0  0  0  0  0  0  0  0
    6.4666   20.0759   48.4759 H   0  0  0  0  0  0  0  0  0  0  0  0
    5.7543   20.6480   46.9293 H   0  0  0  0  0  0  0  0  0  0  0  0
    6.9254   19.2859   46.9293 H   0  0  0  0  0  0  0  0  0  0  0  0
   12.0965   23.2157   47.0297 H   0  0  0  0  0  0  0  0  0  0  0  0
   11.1384   24.6318   46.5203 H   0  0  0  0  0  0  0  0  0  0  0  0
  1  2  1  0
  2  3  2  0
  2  6  1  0
  3  4  1  0
  4  7  1  0
  4  8  2  0
  5  6  2  0
  5  8  1  0
  6  9  1  0
  1 10  1  0
  1 11  1  0
  1 12  1  0
  3 13  1  0
  5 14  1  0
  7 15  1  0
  7 16  1  0
  7 17  1  0
  9 18  1  0
  9 19  1  0
M  END
>  <filename_input>  (6) 
7FB7_8NF_docked.sdf

>  <pdb_id>  (6) 
7FB7_8NF

>  <pose_rank>  (6) 
5

>  <num_atoms_heavy>  (6) 
9

>  <num_torsions>  (6) 
0

>  <pose>  (6) 
[8.568963281950337, 24.78841585442239, 46.20941767789871, -1.037240508167456, 0.9001078052315092, 3.9328266667079825]

>  <energy>  (6) 
-33.57451926747262

>  <inter_energy>  (6) 
-33.97626629013111

>  <intra_energy>  (6) 
0.0

>  <rmsd>  (6) 
9.04975

>  <sdf_rank>  (6) 
0

$$$$

     RDKit          3D

 19 19  0  0  0  0  0  0  0  0999 V2000
    6.4391   20.6576   37.3740 C   0  0  0  0  0  0  0  0  0  0  0  0
    6.7919   22.0652   37.8531 C   0  0  0  0  0  0  0  0  0  0  0  0
    7.2954   22.2370   39.1201 C   0  0  0  0  0  0  0  0  0  0  0  0
    7.6142   23.5456   39.5086 C   0  0  0  0  0  0  0  0  0  0  0  0
    6.9707   24.3930   37.4098 C   0  0  0  0  0  0  0  0  0  0  0  0
    6.6405   23.1083   37.0050 C   0  0  0  0  0  0  0  0  0  0  0  0
    8.1944   23.8734   40.8865 C   0  0  0  0  0  0  0  0  0  0  0  0
    7.4519   24.5474   38.6645 N   0  0  0  0  0  0  0  0  0  0  0  0
    6.1306   22.9937   35.6516 N   0  0  0  0  0  0  0  0  0  0  0  0
    6.2754   20.0045   38.2438 H   0  0  0  0  0  0  0  0  0  0  0  0
    5.5228   20.6960   36.7666 H   0  0  0  0  0  0  0  0  0  0  0  0
    7.2652   20.2593   36.7666 H   0  0  0  0  0  0  0  0  0  0  0  0
    7.4419   21.3847   39.7999 H   0  0  0  0  0  0  0  0  0  0  0  0
    6.8462   25.2536   36.7361 H   0  0  0  0  0  0  0  0  0  0  0  0
    7.5206   23.4926   41.6682 H   0  0  0  0  0  0  0  0  0  0  0  0
    9.1817   23.3995   40.9909 H   0  0  0  0  0  0  0  0  0  0  0  0
    8.2981   24.9635   40.9909 H   0  0  0  0  0  0  0  0  0  0  0  0
    6.0425   23.8334   35.0617 H   0  0  0  0  0  0  0  0  0  0  0  0
    5.8566   22.0727   35.2807 H   0  0  0  0  0  0  0  0  0  0  0  0
  1  2  1  0
  2  3  2  0
  2  6  1  0
  3  4  1  0
  4  7  1  0
  4  8  2  0
  5  6  2  0
  5  8  1  0
  6  9  1  0
  1 10  1  0
  1 11  1  0
  1 12  1  0
  3 13  1  0
  5 14  1  0
  7 15  1  0
  7 16  1  0
  7 17  1  0
  9 18  1  0
  9 19  1  0
M  END
>  <filename_input>  (7) 
7FB7_8NF_docked.sdf

>  <pdb_id>  (7) 
7FB7_8NF

>  <pose_rank>  (7) 
6

>  <num_atoms_heavy>  (7) 
9

>  <num_torsions>  (7) 
0

>  <pose>  (7) 
[6.4390947962716645, 20.657638995110613, 37.37397761758499, -1.6208239943598788, -5.952562084791631, 3.5519837956204725]

>  <energy>  (7) 
-69.54328034686661

>  <inter_energy>  (7) 
-68.67846941629996

>  <intra_energy>  (7) 
0.0

>  <rmsd>  (7) 
8.79039

>  <sdf_rank>  (7) 
0

$$$$

     RDKit          3D

 19 19  0  0  0  0  0  0  0  0999 V2000
   13.4289   24.4074   41.0857 C   0  0  0  0  0  0  0  0  0  0  0  0
   13.4395   22.8807   41.0207 C   0  0  0  0  0  0  0  0  0  0  0  0
   12.3123   22.1850   41.3863 C   0  0  0  0  0  0  0  0  0  0  0  0
   12.3680   20.7871   41.2984 C   0  0  0  0  0  0  0  0  0  0  0  0
   14.5725   20.8633   40.4790 C   0  0  0  0  0  0  0  0  0  0  0  0
   14.5444   22.2472   40.5647 C   0  0  0  0  0  0  0  0  0  0  0  0
   11.1789   19.8946   41.6624 C   0  0  0  0  0  0  0  0  0  0  0  0
   13.4601   20.1922   40.8559 N   0  0  0  0  0  0  0  0  0  0  0  0
   15.7596   22.9215   40.1483 N   0  0  0  0  0  0  0  0  0  0  0  0
   13.4266   24.7296   42.1374 H   0  0  0  0  0  0  0  0  0  0  0  0
   14.3243   24.8020   40.5832 H   0  0  0  0  0  0  0  0  0  0  0  0
   12.5281   24.7895   40.5832 H   0  0  0  0  0  0  0  0  0  0  0  0
   11.4056   22.7026   41.7329 H   0  0  0  0  0  0  0  0  0  0  0  0
   15.4654   20.3316   40.1184 H   0  0  0  0  0  0  0  0  0  0  0  0
   11.0913   19.8289   42.7569 H   0  0  0  0  0  0  0  0  0  0  0  0
   10.2563   20.3252   41.2459 H   0  0  0  0  0  0  0  0  0  0  0  0
   11.3345   18.8885   41.2459 H   0  0  0  0  0  0  0  0  0  0  0  0
   16.5634   22.3727   39.8111 H   0  0  0  0  0  0  0  0  0  0  0  0
   15.8186   23.9490   40.1898 H   0  0  0  0  0  0  0  0  0  0  0  0
  1  2  1  0
  2  3  2  0
  2  6  1  0
  3  4  1  0
  4  7  1  0
  4  8  2  0
  5  6  2  0
  5  8  1  0
  6  9  1  0
  1 10  1  0
  1 11  1  0
  1 12  1  0
  3 13  1  0
  5 14  1  0
  7 15  1  0
  7 16  1  0
  7 17  1  0
  9 18  1  0
  9 19  1  0
M  END
>  <filename_input>  (8) 
7FB7_8NF_docked.sdf

>  <pdb_id>  (8) 
7FB7_8NF

>  <pose_rank>  (8) 
7

>  <num_atoms_heavy>  (8) 
9

>  <num_torsions>  (8) 
0

>  <pose>  (8) 
[13.42888254171661, 24.407394131407607, 41.085654487017635, 0.2474811570823447, 0.10428608593858836, -2.2784694806074874]

>  <energy>  (8) 
-271.795375352065

>  <inter_energy>  (8) 
-256.6265357789455

>  <intra_energy>  (8) 
0.0

>  <rmsd>  (8) 
3.78606

>  <sdf_rank>  (8) 
0

$$$$

     RDKit          3D

 19 19  0  0  0  0  0  0  0  0999 V2000
   13.7977   20.0769   42.2298 C   0  0  0  0  0  0  0  0  0  0  0  0
   13.1541   21.3823   41.7642 C   0  0  0  0  0  0  0  0  0  0  0  0
   12.1214   21.9197   42.4941 C   0  0  0  0  0  0  0  0  0  0  0  0
   11.5720   23.1239   42.0325 C   0  0  0  0  0  0  0  0  0  0  0  0
   13.0871   23.1989   40.2336 C   0  0  0  0  0  0  0  0  0  0  0  0
   13.6421   22.0037   40.6661 C   0  0  0  0  0  0  0  0  0  0  0  0
   10.4274   23.8347   42.7589 C   0  0  0  0  0  0  0  0  0  0  0  0
   12.0621   23.7078   40.9549 N   0  0  0  0  0  0  0  0  0  0  0  0
   14.7387   21.4993   39.8612 N   0  0  0  0  0  0  0  0  0  0  0  0
   13.8124   20.0471   43.3293 H   0  0  0  0  0  0  0  0  0  0  0  0
   13.2165   19.2247   41.8476 H   0  0  0  0  0  0  0  0  0  0  0  0
   14.8276   20.0191   41.8476 H   0  0  0  0  0  0  0  0  0  0  0  0
   11.7422   21.4264   43.4013 H   0  0  0  0  0  0  0  0  0  0  0  0
   13.4660   23.7133   39.3382 H   0  0  0  0  0  0  0  0  0  0  0  0
   10.5714   23.7453   43.8458 H   0  0  0  0  0  0  0  0  0  0  0  0
   10.4180   24.8977   42.4765 H   0  0  0  0  0  0  0  0  0  0  0  0
    9.4704   23.3717   42.4765 H   0  0  0  0  0  0  0  0  0  0  0  0
   15.0578   22.0276   39.0366 H   0  0  0  0  0  0  0  0  0  0  0  0
   15.1982   20.6130   40.1144 H   0  0  0  0  0  0  0  0  0  0  0  0
  1  2  1  0
  2  3  2  0
  2  6  1  0
  3  4  1  0
  4  7  1  0
  4  8  2  0
  5  6  2  0
  5  8  1  0
  6  9  1  0
  1 10  1  0
  1 11  1  0
  1 12  1  0
  3 13  1  0
  5 14  1  0
  7 15  1  0
  7 16  1  0
  7 17  1  0
  9 18  1  0
  9 19  1  0
M  END
>  <filename_input>  (9) 
7FB7_8NF_docked.sdf

>  <pdb_id>  (9) 
7FB7_8NF

>  <pose_rank>  (9) 
8

>  <num_atoms_heavy>  (9) 
9

>  <num_torsions>  (9) 
0

>  <pose>  (9) 
[13.79773730871847, 20.07685420509316, 42.22978945430294, 7.232721962921117, 18.414638740061136, -11.667065692813631]

>  <energy>  (9) 
-174.00591783298813

>  <inter_energy>  (9) 
-171.2458237281941

>  <intra_energy>  (9) 
0.0

>  <rmsd>  (9) 
3.80232

>  <sdf_rank>  (9) 
0

$$$$

     RDKit          3D

 19 19  0  0  0  0  0  0  0  0999 V2000
    8.8294   18.6893   40.0927 C   0  0  0  0  0  0  0  0  0  0  0  0
    9.3271   20.1013   40.3990 C   0  0  0  0  0  0  0  0  0  0  0  0
   10.6003   20.2737   40.8863 C   0  0  0  0  0  0  0  0  0  0  0  0
   11.0141   21.5886   41.1406 C   0  0  0  0  0  0  0  0  0  0  0  0
    8.9538   22.4481   40.3966 C   0  0  0  0  0  0  0  0  0  0  0  0
    8.5186   21.1556   40.1444 C   0  0  0  0  0  0  0  0  0  0  0  0
   12.4107   21.9204   41.6720 C   0  0  0  0  0  0  0  0  0  0  0  0
   10.2043   22.6003   40.8894 N   0  0  0  0  0  0  0  0  0  0  0  0
    7.1723   21.0441   39.6156 N   0  0  0  0  0  0  0  0  0  0  0  0
    8.6409   18.1544   41.0353 H   0  0  0  0  0  0  0  0  0  0  0  0
    7.8975   18.7471   39.5112 H   0  0  0  0  0  0  0  0  0  0  0  0
    9.5916   18.1499   39.5112 H   0  0  0  0  0  0  0  0  0  0  0  0
   11.2658   19.4171   41.0690 H   0  0  0  0  0  0  0  0  0  0  0  0
    8.3066   23.3163   40.2033 H   0  0  0  0  0  0  0  0  0  0  0  0
   12.3949   21.9167   42.7719 H   0  0  0  0  0  0  0  0  0  0  0  0
   13.1280   21.1677   41.3130 H   0  0  0  0  0  0  0  0  0  0  0  0
   12.7128   22.9153   41.3130 H   0  0  0  0  0  0  0  0  0  0  0  0
    6.6135   21.8926   39.4464 H   0  0  0  0  0  0  0  0  0  0  0  0
    6.7751   20.1164   39.4095 H   0  0  0  0  0  0  0  0  0  0  0  0
  1  2  1  0
  2  3  2  0
  2  6  1  0
  3  4  1  0
  4  7  1  0
  4  8  2  0
  5  6  2  0
  5  8  1  0
  6  9  1  0
  1 10  1  0
  1 11  1  0
  1 12  1  0
  3 13  1  0
  5 14  1  0
  7 15  1  0
  7 16  1  0
  7 17  1  0
  9 18  1  0
  9 19  1  0
M  END
>  <filename_input>  (10) 
7FB7_8NF_docked.sdf

>  <pdb_id>  (10) 
7FB7_8NF

>  <pose_rank>  (10) 
9

>  <num_atoms_heavy>  (10) 
9

>  <num_torsions>  (10) 
0

>  <pose>  (10) 
[8.829402244152481, 18.689258993899276, 40.09271031045345, -3.670664009952075, -2.0725144871535264, -11.238290721593165]

>  <energy>  (10) 
-109.68872130755744

>  <inter_energy>  (10) 
-102.90417550250102

>  <intra_energy>  (10) 
0.0

>  <rmsd>  (10) 
5.53853

>  <sdf_rank>  (10) 
0

$$$$

     RDKit          3D

 19 19  0  0  0  0  0  0  0  0999 V2000
   12.6758   15.1844   46.2372 C   0  0  0  0  0  0  0  0  0  0  0  0
   13.8358   16.1551   46.4548 C   0  0  0  0  0  0  0  0  0  0  0  0
   14.9249   15.7470   47.1866 C   0  0  0  0  0  0  0  0  0  0  0  0
   15.9678   16.6696   47.3482 C   0  0  0  0  0  0  0  0  0  0  0  0
   14.8331   18.2745   46.0544 C   0  0  0  0  0  0  0  0  0  0  0  0
   13.7850   17.3819   45.8870 C   0  0  0  0  0  0  0  0  0  0  0  0
   17.2421   16.3382   48.1287 C   0  0  0  0  0  0  0  0  0  0  0  0
   15.8917   17.8630   46.7890 N   0  0  0  0  0  0  0  0  0  0  0  0
   12.6741   17.8685   45.0907 N   0  0  0  0  0  0  0  0  0  0  0  0
   12.2843   14.8567   47.2116 H   0  0  0  0  0  0  0  0  0  0  0  0
   11.8777   15.6876   45.6718 H   0  0  0  0  0  0  0  0  0  0  0  0
   13.0305   14.3100   45.6718 H   0  0  0  0  0  0  0  0  0  0  0  0
   14.9762   14.7401   47.6264 H   0  0  0  0  0  0  0  0  0  0  0  0
   14.8047   19.2790   45.6068 H   0  0  0  0  0  0  0  0  0  0  0  0
   17.0356   16.3920   49.2078 H   0  0  0  0  0  0  0  0  0  0  0  0
   17.5772   15.3231   47.8696 H   0  0  0  0  0  0  0  0  0  0  0  0
   18.0293   17.0615   47.8696 H   0  0  0  0  0  0  0  0  0  0  0  0
   12.7048   18.8163   44.6887 H   0  0  0  0  0  0  0  0  0  0  0  0
   11.8548   17.2661   44.9274 H   0  0  0  0  0  0  0  0  0  0  0  0
  1  2  1  0
  2  3  2  0
  2  6  1  0
  3  4  1  0
  4  7  1  0
  4  8  2  0
  5  6  2  0
  5  8  1  0
  6  9  1  0
  1 10  1  0
  1 11  1  0
  1 12  1  0
  3 13  1  0
  5 14  1  0
  7 15  1  0
  7 16  1  0
  7 17  1  0
  9 18  1  0
  9 19  1  0
M  END
>  <filename_input>  (11) 
7FB7_8NF_docked.sdf

>  <pdb_id>  (11) 
7FB7_8NF

>  <pose_rank>  (11) 
10

>  <num_atoms_heavy>  (11) 
9

>  <num_torsions>  (11) 
0

>  <pose>  (11) 
[12.67580969901115, 15.184372446262362, 46.23724052413921, 2.7393864870058913, 4.80068497924813, 2.773952234363578]

>  <energy>  (11) 
-175.5265370255122

>  <inter_energy>  (11) 
-146.44342653377998

>  <intra_energy>  (11) 
0.0

>  <rmsd>  (11) 
7.20024

>  <sdf_rank>  (11) 
0

$$$$

     RDKit          3D

 19 19  0  0  0  0  0  0  0  0999 V2000
   13.0753   22.0544   40.4553 C   0  0  0  0  0  0  0  0  0  0  0  0
   12.3529   20.9063   41.1591 C   0  0  0  0  0  0  0  0  0  0  0  0
   13.0020   20.2125   42.1518 C   0  0  0  0  0  0  0  0  0  0  0  0
   12.2931   19.1759   42.7747 C   0  0  0  0  0  0  0  0  0  0  0  0
   10.3910   19.5988   41.4555 C   0  0  0  0  0  0  0  0  0  0  0  0
   11.0744   20.6240   40.8189 C   0  0  0  0  0  0  0  0  0  0  0  0
   12.8941   18.3341   43.9030 C   0  0  0  0  0  0  0  0  0  0  0  0
   11.0482   18.9161   42.4207 N   0  0  0  0  0  0  0  0  0  0  0  0
   10.3274   21.3270   39.7930 N   0  0  0  0  0  0  0  0  0  0  0  0
   13.5030   22.7342   41.2070 H   0  0  0  0  0  0  0  0  0  0  0  0
   13.8817   21.6495   39.8262 H   0  0  0  0  0  0  0  0  0  0  0  0
   12.3613   22.6061   39.8262 H   0  0  0  0  0  0  0  0  0  0  0  0
   14.0329   20.4597   42.4450 H   0  0  0  0  0  0  0  0  0  0  0  0
    9.3539   19.3502   41.1858 H   0  0  0  0  0  0  0  0  0  0  0  0
   12.5939   18.7546   44.8741 H   0  0  0  0  0  0  0  0  0  0  0  0
   12.5293   17.2995   43.8229 H   0  0  0  0  0  0  0  0  0  0  0  0
   13.9912   18.3433   43.8229 H   0  0  0  0  0  0  0  0  0  0  0  0
    9.3550   21.0566   39.5875 H   0  0  0  0  0  0  0  0  0  0  0  0
   10.7694   22.0966   39.2703 H   0  0  0  0  0  0  0  0  0  0  0  0
  1  2  1  0
  2  3  2  0
  2  6  1  0
  3  4  1  0
  4  7  1  0
  4  8  2  0
  5  6  2  0
  5  8  1  0
  6  9  1  0
  1 10  1  0
  1 11  1  0
  1 12  1  0
  3 13  1  0
  5 14  1  0
  7 15  1  0
  7 16  1  0
  7 17  1  0
  9 18  1  0
  9 19  1  0
M  END
>  <filename_input>  (12) 
7FB7_8NF_docked.sdf

>  <pdb_id>  (12) 
7FB7_8NF

>  <pose_rank>  (12) 
11

>  <num_atoms_heavy>  (12) 
9

>  <num_torsions>  (12) 
0

>  <pose>  (12) 
[13.075333049681191, 22.054443995394223, 40.455318251705116, -2.367086510226799, 1.5329113984044032, -2.0241983188243946]

>  <energy>  (12) 
-169.86930861346914

>  <inter_energy>  (12) 
-168.14206646362894

>  <intra_energy>  (12) 
0.0

>  <rmsd>  (12) 
4.37161

>  <sdf_rank>  (12) 
0

$$$$

     RDKit          3D

 19 19  0  0  0  0  0  0  0  0999 V2000
   16.0402   15.1261   45.9635 C   0  0  0  0  0  0  0  0  0  0  0  0
   15.3953   16.4766   46.2725 C   0  0  0  0  0  0  0  0  0  0  0  0
   14.2156   16.8147   45.6541 C   0  0  0  0  0  0  0  0  0  0  0  0
   13.6579   18.0590   45.9793 C   0  0  0  0  0  0  0  0  0  0  0  0
   15.4019   18.5165   47.4914 C   0  0  0  0  0  0  0  0  0  0  0  0
   15.9773   17.2936   47.1801 C   0  0  0  0  0  0  0  0  0  0  0  0
   12.3418   18.5513   45.3725 C   0  0  0  0  0  0  0  0  0  0  0  0
   14.2483   18.8409   46.8639 N   0  0  0  0  0  0  0  0  0  0  0  0
   17.2117   16.9904   47.8795 N   0  0  0  0  0  0  0  0  0  0  0  0
   16.2854   14.6129   46.9050 H   0  0  0  0  0  0  0  0  0  0  0  0
   15.3394   14.5096   45.3815 H   0  0  0  0  0  0  0  0  0  0  0  0
   16.9603   15.2838   45.3815 H   0  0  0  0  0  0  0  0  0  0  0  0
   13.7301   16.1384   44.9352 H   0  0  0  0  0  0  0  0  0  0  0  0
   15.8660   19.1967   48.2207 H   0  0  0  0  0  0  0  0  0  0  0  0
   11.6414   18.8133   46.1793 H   0  0  0  0  0  0  0  0  0  0  0  0
   12.5336   19.4385   44.7511 H   0  0  0  0  0  0  0  0  0  0  0  0
   11.9043   17.7560   44.7511 H   0  0  0  0  0  0  0  0  0  0  0  0
   17.5970   17.6619   48.5589 H   0  0  0  0  0  0  0  0  0  0  0  0
   17.7028   16.1037   47.6965 H   0  0  0  0  0  0  0  0  0  0  0  0
  1  2  1  0
  2  3  2  0
  2  6  1  0
  3  4  1  0
  4  7  1  0
  4  8  2  0
  5  6  2  0
  5  8  1  0
  6  9  1  0
  1 10  1  0
  1 11  1  0
  1 12  1  0
  3 13  1  0
  5 14  1  0
  7 15  1  0
  7 16  1  0
  7 17  1  0
  9 18  1  0
  9 19  1  0
M  END
>  <filename_input>  (13) 
7FB7_8NF_docked.sdf

>  <pdb_id>  (13) 
7FB7_8NF

>  <pose_rank>  (13) 
12

>  <num_atoms_heavy>  (13) 
9

>  <num_torsions>  (13) 
0

>  <pose>  (13) 
[16.040238864365055, 15.12611328785254, 45.96348460026917, 0.623031790238073, 3.0368243650815794, 0.6002375980918713]

>  <energy>  (13) 
-162.12569761040098

>  <inter_energy>  (13) 
-155.66732482392376

>  <intra_energy>  (13) 
0.0

>  <rmsd>  (13) 
7.54618

>  <sdf_rank>  (13) 
0

$$$$

     RDKit          3D

 19 19  0  0  0  0  0  0  0  0999 V2000
   15.7588   14.0883   46.9100 C   0  0  0  0  0  0  0  0  0  0  0  0
   15.4521   15.5691   46.6897 C   0  0  0  0  0  0  0  0  0  0  0  0
   16.1563   16.5134   47.3972 C   0  0  0  0  0  0  0  0  0  0  0  0
   15.8461   17.8581   47.1513 C   0  0  0  0  0  0  0  0  0  0  0  0
   14.2390   17.2586   45.5404 C   0  0  0  0  0  0  0  0  0  0  0  0
   14.5226   15.9210   45.7719 C   0  0  0  0  0  0  0  0  0  0  0  0
   16.5642   19.0083   47.8616 C   0  0  0  0  0  0  0  0  0  0  0  0
   14.9307   18.1757   46.2548 N   0  0  0  0  0  0  0  0  0  0  0  0
   13.7565   14.9763   44.9810 N   0  0  0  0  0  0  0  0  0  0  0  0
   15.8021   13.8794   47.9891 H   0  0  0  0  0  0  0  0  0  0  0  0
   14.9681   13.4776   46.4497 H   0  0  0  0  0  0  0  0  0  0  0  0
   16.7271   13.8420   46.4497 H   0  0  0  0  0  0  0  0  0  0  0  0
   16.9298   16.2266   48.1248 H   0  0  0  0  0  0  0  0  0  0  0  0
   13.4805   17.5624   44.8039 H   0  0  0  0  0  0  0  0  0  0  0  0
   16.4814   18.8756   48.9504 H   0  0  0  0  0  0  0  0  0  0  0  0
   17.6255   19.0122   47.5723 H   0  0  0  0  0  0  0  0  0  0  0  0
   16.1018   19.9636   47.5723 H   0  0  0  0  0  0  0  0  0  0  0  0
   13.0639   15.3178   44.2994 H   0  0  0  0  0  0  0  0  0  0  0  0
   13.9051   13.9642   45.1012 H   0  0  0  0  0  0  0  0  0  0  0  0
  1  2  1  0
  2  3  2  0
  2  6  1  0
  3  4  1  0
  4  7  1  0
  4  8  2  0
  5  6  2  0
  5  8  1  0
  6  9  1  0
  1 10  1  0
  1 11  1  0
  1 12  1  0
  3 13  1  0
  5 14  1  0
  7 15  1  0
  7 16  1  0
  7 17  1  0
  9 18  1  0
  9 19  1  0
M  END
>  <filename_input>  (14) 
7FB7_8NF_docked.sdf

>  <pdb_id>  (14) 
7FB7_8NF

>  <pose_rank>  (14) 
13

>  <num_atoms_heavy>  (14) 
9

>  <num_torsions>  (14) 
0

>  <pose>  (14) 
[15.758839217072158, 14.088321599891948, 46.90999813335476, 1.599313736973652, 0.8354551766524093, -4.852743986026785]

>  <energy>  (14) 
-155.80530844953674

>  <inter_energy>  (14) 
-139.64875627832768

>  <intra_energy>  (14) 
0.0

>  <rmsd>  (14) 
7.57489

>  <sdf_rank>  (14) 
0

$$$$

     RDKit          3D

 19 19  0  0  0  0  0  0  0  0999 V2000
   24.0490   31.0959   48.8989 C   0  0  0  0  0  0  0  0  0  0  0  0
   23.1639   29.9087   49.2762 C   0  0  0  0  0  0  0  0  0  0  0  0
   22.0411   30.1236   50.0386 C   0  0  0  0  0  0  0  0  0  0  0  0
   21.2558   29.0045   50.3484 C   0  0  0  0  0  0  0  0  0  0  0  0
   22.6840   27.5860   49.1298 C   0  0  0  0  0  0  0  0  0  0  0  0
   23.4813   28.6766   48.8165 C   0  0  0  0  0  0  0  0  0  0  0  0
   19.9736   29.1070   51.1781 C   0  0  0  0  0  0  0  0  0  0  0  0
   21.5900   27.8116   49.8928 N   0  0  0  0  0  0  0  0  0  0  0  0
   24.6412   28.3844   47.9955 N   0  0  0  0  0  0  0  0  0  0  0  0
   24.4145   31.5861   49.8133 H   0  0  0  0  0  0  0  0  0  0  0  0
   24.9049   30.7413   48.3058 H   0  0  0  0  0  0  0  0  0  0  0  0
   23.4648   31.8150   48.3058 H   0  0  0  0  0  0  0  0  0  0  0  0
   21.7702   31.1300   50.3904 H   0  0  0  0  0  0  0  0  0  0  0  0
   22.9318   26.5759   48.7715 H   0  0  0  0  0  0  0  0  0  0  0  0
   20.2268   29.0868   52.2484 H   0  0  0  0  0  0  0  0  0  0  0  0
   19.4578   30.0492   50.9411 H   0  0  0  0  0  0  0  0  0  0  0  0
   19.3147   28.2586   50.9411 H   0  0  0  0  0  0  0  0  0  0  0  0
   24.8200   27.4199   47.6814 H   0  0  0  0  0  0  0  0  0  0  0  0
   25.2858   29.1415   47.7267 H   0  0  0  0  0  0  0  0  0  0  0  0
  1  2  1  0
  2  3  2  0
  2  6  1  0
  3  4  1  0
  4  7  1  0
  4  8  2  0
  5  6  2  0
  5  8  1  0
  6  9  1  0
  1 10  1  0
  1 11  1  0
  1 12  1  0
  3 13  1  0
  5 14  1  0
  7 15  1  0
  7 16  1  0
  7 17  1  0
  9 18  1  0
  9 19  1  0
M  END
>  <filename_input>  (15) 
7FB7_8NF_docked.sdf

>  <pdb_id>  (15) 
7FB7_8NF

>  <pose_rank>  (15) 
14

>  <num_atoms_heavy>  (15) 
9

>  <num_torsions>  (15) 
0

>  <pose>  (15) 
[24.049028774625924, 31.09593595278293, 48.89886548792501, -0.19781080405134838, -0.09215361023210876, -2.9447126549167804]

>  <energy>  (15) 
-96.82035875131731

>  <inter_energy>  (15) 
-73.55962564783651

>  <intra_energy>  (15) 
0.0

>  <rmsd>  (15) 
13.7479

>  <sdf_rank>  (15) 
0

$$$$

     RDKit          3D

 19 19  0  0  0  0  0  0  0  0999 V2000
    8.8308   29.3222   36.7975 C   0  0  0  0  0  0  0  0  0  0  0  0
    9.8597   29.1859   37.9192 C   0  0  0  0  0  0  0  0  0  0  0  0
    9.8873   28.0348   38.6691 C   0  0  0  0  0  0  0  0  0  0  0  0
   10.8567   27.9532   39.6784 C   0  0  0  0  0  0  0  0  0  0  0  0
   11.7046   30.0769   39.1231 C   0  0  0  0  0  0  0  0  0  0  0  0
   10.7494   30.1843   38.1234 C   0  0  0  0  0  0  0  0  0  0  0  0
   11.0039   26.7224   40.5763 C   0  0  0  0  0  0  0  0  0  0  0  0
   11.7098   28.9436   39.8618 N   0  0  0  0  0  0  0  0  0  0  0  0
   10.7850   31.4164   37.3583 N   0  0  0  0  0  0  0  0  0  0  0  0
    7.8293   29.4548   37.2327 H   0  0  0  0  0  0  0  0  0  0  0  0
    9.0792   30.1952   36.1762 H   0  0  0  0  0  0  0  0  0  0  0  0
    8.8434   28.4145   36.1762 H   0  0  0  0  0  0  0  0  0  0  0  0
    9.1796   27.2130   38.4853 H   0  0  0  0  0  0  0  0  0  0  0  0
   12.4303   30.8825   39.3084 H   0  0  0  0  0  0  0  0  0  0  0  0
   10.9669   27.0315   41.6313 H   0  0  0  0  0  0  0  0  0  0  0  0
   10.1835   26.0188   40.3714 H   0  0  0  0  0  0  0  0  0  0  0  0
   11.9671   26.2322   40.3714 H   0  0  0  0  0  0  0  0  0  0  0  0
   11.4927   32.1341   37.5703 H   0  0  0  0  0  0  0  0  0  0  0  0
   10.1025   31.5735   36.6030 H   0  0  0  0  0  0  0  0  0  0  0  0
  1  2  1  0
  2  3  2  0
  2  6  1  0
  3  4  1  0
  4  7  1  0
  4  8  2  0
  5  6  2  0
  5  8  1  0
  6  9  1  0
  1 10  1  0
  1 11  1  0
  1 12  1  0
  3 13  1  0
  5 14  1  0
  7 15  1  0
  7 16  1  0
  7 17  1  0
  9 18  1  0
  9 19  1  0
M  END
>  <filename_input>  (16) 
7FB7_8NF_docked.sdf

>  <pdb_id>  (16) 
7FB7_8NF

>  <pose_rank>  (16) 
15

>  <num_atoms_heavy>  (16) 
9

>  <num_torsions>  (16) 
0

>  <pose>  (16) 
[8.830843297084025, 29.322152861191245, 36.797528816231384, 0.3579148635402313, -0.6502305227763352, -0.7491476969469751]

>  <energy>  (16) 
-127.19130898326073

>  <inter_energy>  (16) 
-104.49818538980381

>  <intra_energy>  (16) 
0.0

>  <rmsd>  (16) 
9.17659

>  <sdf_rank>  (16) 
0

$$$$

     RDKit          3D

 19 19  0  0  0  0  0  0  0  0999 V2000
   22.5739   16.4123   34.2508 C   0  0  0  0  0  0  0  0  0  0  0  0
   21.8356   15.3076   33.4960 C   0  0  0  0  0  0  0  0  0  0  0  0
   20.5771   14.9390   33.9065 C   0  0  0  0  0  0  0  0  0  0  0  0
   19.9369   13.9293   33.1748 C   0  0  0  0  0  0  0  0  0  0  0  0
   21.7624   13.7525   31.7006 C   0  0  0  0  0  0  0  0  0  0  0  0
   22.4194   14.7443   32.4134 C   0  0  0  0  0  0  0  0  0  0  0  0
   18.5295   13.4348   33.5179 C   0  0  0  0  0  0  0  0  0  0  0  0
   20.5301   13.3911   32.1256 N   0  0  0  0  0  0  0  0  0  0  0  0
   23.7364   15.0981   31.9184 N   0  0  0  0  0  0  0  0  0  0  0  0
   22.4664   16.2514   35.3337 H   0  0  0  0  0  0  0  0  0  0  0  0
   23.6401   16.3913   33.9811 H   0  0  0  0  0  0  0  0  0  0  0  0
   22.1466   17.3894   33.9811 H   0  0  0  0  0  0  0  0  0  0  0  0
   20.0931   15.4157   34.7717 H   0  0  0  0  0  0  0  0  0  0  0  0
   22.2257   13.2780   30.8230 H   0  0  0  0  0  0  0  0  0  0  0  0
   18.4117   13.3934   34.6108 H   0  0  0  0  0  0  0  0  0  0  0  0
   17.7850   14.1252   33.0947 H   0  0  0  0  0  0  0  0  0  0  0  0
   18.3804   12.4305   33.0947 H   0  0  0  0  0  0  0  0  0  0  0  0
   24.1178   14.6259   31.0862 H   0  0  0  0  0  0  0  0  0  0  0  0
   24.2901   15.8215   32.3991 H   0  0  0  0  0  0  0  0  0  0  0  0
  1  2  1  0
  2  3  2  0
  2  6  1  0
  3  4  1  0
  4  7  1  0
  4  8  2  0
  5  6  2  0
  5  8  1  0
  6  9  1  0
  1 10  1  0
  1 11  1  0
  1 12  1  0
  3 13  1  0
  5 14  1  0
  7 15  1  0
  7 16  1  0
  7 17  1  0
  9 18  1  0
  9 19  1  0
M  END
>  <filename_input>  (17) 
7FB7_8NF_docked.sdf

>  <pdb_id>  (17) 
7FB7_8NF

>  <pose_rank>  (17) 
16

>  <num_atoms_heavy>  (17) 
9

>  <num_torsions>  (17) 
0

>  <pose>  (17) 
[22.573910373671644, 16.412294856657613, 34.25083656739777, 0.2477438297193447, 0.9505190892668329, -2.6686058155457535]

>  <energy>  (17) 
-119.05570946219893

>  <inter_energy>  (17) 
-105.08636079605775

>  <intra_energy>  (17) 
0.0

>  <rmsd>  (17) 
13.2287

>  <sdf_rank>  (17) 
0

$$$$

     RDKit          3D

 19 19  0  0  0  0  0  0  0  0999 V2000
   17.2997   13.2504   33.7671 C   0  0  0  0  0  0  0  0  0  0  0  0
   18.7033   13.8220   33.5712 C   0  0  0  0  0  0  0  0  0  0  0  0
   19.7672   13.2205   34.1994 C   0  0  0  0  0  0  0  0  0  0  0  0
   21.0356   13.7750   33.9792 C   0  0  0  0  0  0  0  0  0  0  0  0
   20.1413   15.4090   32.5413 C   0  0  0  0  0  0  0  0  0  0  0  0
   18.8750   14.8831   32.7499 C   0  0  0  0  0  0  0  0  0  0  0  0
   22.3047   13.1942   34.6076 C   0  0  0  0  0  0  0  0  0  0  0  0
   21.1763   14.8144   33.1778 N   0  0  0  0  0  0  0  0  0  0  0  0
   17.7987   15.5535   32.0450 N   0  0  0  0  0  0  0  0  0  0  0  0
   17.0860   13.1634   34.8426 H   0  0  0  0  0  0  0  0  0  0  0  0
   16.5626   13.9201   33.2998 H   0  0  0  0  0  0  0  0  0  0  0  0
   17.2400   12.2564   33.2998 H   0  0  0  0  0  0  0  0  0  0  0  0
   19.6294   12.3420   34.8469 H   0  0  0  0  0  0  0  0  0  0  0  0
   20.2980   16.2765   31.8834 H   0  0  0  0  0  0  0  0  0  0  0  0
   22.2215   13.2322   35.7038 H   0  0  0  0  0  0  0  0  0  0  0  0
   22.4286   12.1498   34.2854 H   0  0  0  0  0  0  0  0  0  0  0  0
   23.1761   13.7831   34.2854 H   0  0  0  0  0  0  0  0  0  0  0  0
   18.0048   16.3573   31.4348 H   0  0  0  0  0  0  0  0  0  0  0  0
   16.8285   15.2257   32.1548 H   0  0  0  0  0  0  0  0  0  0  0  0
  1  2  1  0
  2  3  2  0
  2  6  1  0
  3  4  1  0
  4  7  1  0
  4  8  2  0
  5  6  2  0
  5  8  1  0
  6  9  1  0
  1 10  1  0
  1 11  1  0
  1 12  1  0
  3 13  1  0
  5 14  1  0
  7 15  1  0
  7 16  1  0
  7 17  1  0
  9 18  1  0
  9 19  1  0
M  END
>  <filename_input>  (18) 
7FB7_8NF_docked.sdf

>  <pdb_id>  (18) 
7FB7_8NF

>  <pose_rank>  (18) 
17

>  <num_atoms_heavy>  (18) 
9

>  <num_torsions>  (18) 
0

>  <pose>  (18) 
[17.29967643002681, 13.250440303414495, 33.76710240785463, 3.4782840760289058, -1.5463680486786138, 4.421695444690556]

>  <energy>  (18) 
-112.97230404882195

>  <inter_energy>  (18) 
-81.03839632755945

>  <intra_energy>  (18) 
0.0

>  <rmsd>  (18) 
11.9276

>  <sdf_rank>  (18) 
0

$$$$

     RDKit          3D

 19 19  0  0  0  0  0  0  0  0999 V2000
   24.9843   29.0924   31.5871 C   0  0  0  0  0  0  0  0  0  0  0  0
   24.6263   29.5733   32.9928 C   0  0  0  0  0  0  0  0  0  0  0  0
   25.0062   28.8200   34.0774 C   0  0  0  0  0  0  0  0  0  0  0  0
   24.6644   29.3092   35.3459 C   0  0  0  0  0  0  0  0  0  0  0  0
   23.6594   31.2191   34.4082 C   0  0  0  0  0  0  0  0  0  0  0  0
   23.9794   30.7520   33.1422 C   0  0  0  0  0  0  0  0  0  0  0  0
   25.0386   28.5751   36.6358 C   0  0  0  0  0  0  0  0  0  0  0  0
   24.0277   30.4594   35.4650 N   0  0  0  0  0  0  0  0  0  0  0  0
   23.5651   31.6020   32.0419 N   0  0  0  0  0  0  0  0  0  0  0  0
   25.6397   28.2118   31.6567 H   0  0  0  0  0  0  0  0  0  0  0  0
   24.0649   28.8234   31.0464 H   0  0  0  0  0  0  0  0  0  0  0  0
   25.5058   29.8959   31.0464 H   0  0  0  0  0  0  0  0  0  0  0  0
   25.5545   27.8743   33.9557 H   0  0  0  0  0  0  0  0  0  0  0  0
   23.1264   32.1712   34.5476 H   0  0  0  0  0  0  0  0  0  0  0  0
   24.7313   29.1780   37.5031 H   0  0  0  0  0  0  0  0  0  0  0  0
   24.5264   27.6021   36.6657 H   0  0  0  0  0  0  0  0  0  0  0  0
   26.1268   28.4177   36.6657 H   0  0  0  0  0  0  0  0  0  0  0  0
   23.0754   32.4880   32.2317 H   0  0  0  0  0  0  0  0  0  0  0  0
   23.7605   31.3193   31.0709 H   0  0  0  0  0  0  0  0  0  0  0  0
  1  2  1  0
  2  3  2  0
  2  6  1  0
  3  4  1  0
  4  7  1  0
  4  8  2  0
  5  6  2  0
  5  8  1  0
  6  9  1  0
  1 10  1  0
  1 11  1  0
  1 12  1  0
  3 13  1  0
  5 14  1  0
  7 15  1  0
  7 16  1  0
  7 17  1  0
  9 18  1  0
  9 19  1  0
M  END
>  <filename_input>  (19) 
7FB7_8NF_docked.sdf

>  <pdb_id>  (19) 
7FB7_8NF

>  <pose_rank>  (19) 
18

>  <num_atoms_heavy>  (19) 
9

>  <num_torsions>  (19) 
0

>  <pose>  (19) 
[24.984263310507405, 29.092391778255372, 31.58711898426599, 0.7985470649612397, -1.080533934644262, 0.49816444791306896]

>  <energy>  (19) 
-106.49245160870919

>  <inter_energy>  (19) 
-76.67405209443614

>  <intra_energy>  (19) 
0.0

>  <rmsd>  (19) 
14.5716

>  <sdf_rank>  (19) 
0

$$$$

     RDKit          3D

 19 19  0  0  0  0  0  0  0  0999 V2000
   23.2070   25.4205   33.4370 C   0  0  0  0  0  0  0  0  0  0  0  0
   23.5955   26.8645   33.1223 C   0  0  0  0  0  0  0  0  0  0  0  0
   23.0348   27.8852   33.8518 C   0  0  0  0  0  0  0  0  0  0  0  0
   23.4319   29.1911   33.5327 C   0  0  0  0  0  0  0  0  0  0  0  0
   24.8980   28.4062   31.8678 C   0  0  0  0  0  0  0  0  0  0  0  0
   24.5151   27.1057   32.1598 C   0  0  0  0  0  0  0  0  0  0  0  0
   22.8942   30.4163   34.2761 C   0  0  0  0  0  0  0  0  0  0  0  0
   24.3267   29.4007   32.5851 N   0  0  0  0  0  0  0  0  0  0  0  0
   25.1561   26.0748   31.3654 N   0  0  0  0  0  0  0  0  0  0  0  0
   23.1693   25.2803   34.5274 H   0  0  0  0  0  0  0  0  0  0  0  0
   22.2187   25.2042   33.0051 H   0  0  0  0  0  0  0  0  0  0  0  0
   23.9533   24.7375   33.0051 H   0  0  0  0  0  0  0  0  0  0  0  0
   22.3061   27.6861   34.6513 H   0  0  0  0  0  0  0  0  0  0  0  0
   25.6381   28.6210   31.0829 H   0  0  0  0  0  0  0  0  0  0  0  0
   22.9678   30.2486   35.3607 H   0  0  0  0  0  0  0  0  0  0  0  0
   23.4866   31.3014   34.0009 H   0  0  0  0  0  0  0  0  0  0  0  0
   21.8418   30.5795   34.0009 H   0  0  0  0  0  0  0  0  0  0  0  0
   25.8489   26.3333   30.6484 H   0  0  0  0  0  0  0  0  0  0  0  0
   24.9185   25.0843   31.5185 H   0  0  0  0  0  0  0  0  0  0  0  0
  1  2  1  0
  2  3  2  0
  2  6  1  0
  3  4  1  0
  4  7  1  0
  4  8  2  0
  5  6  2  0
  5  8  1  0
  6  9  1  0
  1 10  1  0
  1 11  1  0
  1 12  1  0
  3 13  1  0
  5 14  1  0
  7 15  1  0
  7 16  1  0
  7 17  1  0
  9 18  1  0
  9 19  1  0
M  END
>  <filename_input>  (20) 
7FB7_8NF_docked.sdf

>  <pdb_id>  (20) 
7FB7_8NF

>  <pose_rank>  (20) 
19

>  <num_atoms_heavy>  (20) 
9

>  <num_torsions>  (20) 
0

>  <pose>  (20) 
[23.206989507097656, 25.420511892458354, 33.43704526421171, -1.1690215750038757, -1.4622198976786769, 0.4873688170233866]

>  <energy>  (20) 
-105.77818126092849

>  <inter_energy>  (20) 
-90.44779876892301

>  <intra_energy>  (20) 
0.0

>  <rmsd>  (20) 
13.917

>  <sdf_rank>  (20) 
0

$$$$

     RDKit          3D

 19 19  0  0  0  0  0  0  0  0999 V2000
   23.7930   13.2350   46.3941 C   0  0  0  0  0  0  0  0  0  0  0  0
   24.2132   13.7208   47.7807 C   0  0  0  0  0  0  0  0  0  0  0  0
   24.1389   12.8564   48.8463 C   0  0  0  0  0  0  0  0  0  0  0  0
   24.5465   13.3457   50.0951 C   0  0  0  0  0  0  0  0  0  0  0  0
   25.0943   15.4377   49.1674 C   0  0  0  0  0  0  0  0  0  0  0  0
   24.6894   14.9791   47.9228 C   0  0  0  0  0  0  0  0  0  0  0  0
   24.5263   12.4836   51.3597 C   0  0  0  0  0  0  0  0  0  0  0  0
   25.0019   14.5794   50.2088 N   0  0  0  0  0  0  0  0  0  0  0  0
   24.8087   15.9350   46.8380 N   0  0  0  0  0  0  0  0  0  0  0  0
   23.0765   12.4068   46.4973 H   0  0  0  0  0  0  0  0  0  0  0  0
   23.3207   14.0619   45.8434 H   0  0  0  0  0  0  0  0  0  0  0  0
   24.6792   12.8867   45.8434 H   0  0  0  0  0  0  0  0  0  0  0  0
   23.7755   11.8253   48.7246 H   0  0  0  0  0  0  0  0  0  0  0  0
   25.4760   16.4604   49.3025 H   0  0  0  0  0  0  0  0  0  0  0  0
   24.5415   13.1337   52.2469 H   0  0  0  0  0  0  0  0  0  0  0  0
   23.6136   11.8698   51.3705 H   0  0  0  0  0  0  0  0  0  0  0  0
   25.4094   11.8278   51.3705 H   0  0  0  0  0  0  0  0  0  0  0  0
   25.1810   16.8778   47.0210 H   0  0  0  0  0  0  0  0  0  0  0  0
   24.5212   15.6709   45.8849 H   0  0  0  0  0  0  0  0  0  0  0  0
  1  2  1  0
  2  3  2  0
  2  6  1  0
  3  4  1  0
  4  7  1  0
  4  8  2  0
  5  6  2  0
  5  8  1  0
  6  9  1  0
  1 10  1  0
  1 11  1  0
  1 12  1  0
  3 13  1  0
  5 14  1  0
  7 15  1  0
  7 16  1  0
  7 17  1  0
  9 18  1  0
  9 19  1  0
M  END
>  <filename_input>  (21) 
7FB7_8NF_docked.sdf

>  <pdb_id>  (21) 
7FB7_8NF

>  <pose_rank>  (21) 
20

>  <num_atoms_heavy>  (21) 
9

>  <num_torsions>  (21) 
0

>  <pose>  (21) 
[23.79296372102413, 13.234994286310236, 46.39406255309426, -1.3969278139687349, 4.767090387006366, 1.2527820882602019]

>  <energy>  (21) 
-56.111617391138715

>  <inter_energy>  (21) 
-60.914220389554046

>  <intra_energy>  (21) 
0.0

>  <rmsd>  (21) 
14.4176

>  <sdf_rank>  (21) 
0

$$$$

     RDKit          3D

 19 19  0  0  0  0  0  0  0  0999 V2000
    9.2787   28.8639   37.9046 C   0  0  0  0  0  0  0  0  0  0  0  0
    9.7109   28.2012   39.2120 C   0  0  0  0  0  0  0  0  0  0  0  0
    9.1233   27.0187   39.5920 C   0  0  0  0  0  0  0  0  0  0  0  0
    9.5620   26.4446   40.7932 C   0  0  0  0  0  0  0  0  0  0  0  0
   11.1159   28.1795   41.1284 C   0  0  0  0  0  0  0  0  0  0  0  0
   10.6932   28.7710   39.9473 C   0  0  0  0  0  0  0  0  0  0  0  0
    8.9998   25.1235   41.3239 C   0  0  0  0  0  0  0  0  0  0  0  0
   10.5179   27.0232   41.4959 N   0  0  0  0  0  0  0  0  0  0  0  0
   11.3650   30.0077   39.5952 N   0  0  0  0  0  0  0  0  0  0  0  0
    8.6902   29.7661   38.1279 H   0  0  0  0  0  0  0  0  0  0  0  0
   10.1696   29.1420   37.3224 H   0  0  0  0  0  0  0  0  0  0  0  0
    8.6651   28.1607   37.3224 H   0  0  0  0  0  0  0  0  0  0  0  0
    8.3425   26.5432   38.9801 H   0  0  0  0  0  0  0  0  0  0  0  0
   11.9074   28.6334   41.7428 H   0  0  0  0  0  0  0  0  0  0  0  0
    9.0060   25.1379   42.4238 H   0  0  0  0  0  0  0  0  0  0  0  0
    7.9683   24.9932   40.9646 H   0  0  0  0  0  0  0  0  0  0  0  0
    9.6212   24.2899   40.9646 H   0  0  0  0  0  0  0  0  0  0  0  0
   12.1057   30.3830   40.2047 H   0  0  0  0  0  0  0  0  0  0  0  0
   11.1012   30.5104   38.7358 H   0  0  0  0  0  0  0  0  0  0  0  0
  1  2  1  0
  2  3  2  0
  2  6  1  0
  3  4  1  0
  4  7  1  0
  4  8  2  0
  5  6  2  0
  5  8  1  0
  6  9  1  0
  1 10  1  0
  1 11  1  0
  1 12  1  0
  3 13  1  0
  5 14  1  0
  7 15  1  0
  7 16  1  0
  7 17  1  0
  9 18  1  0
  9 19  1  0
M  END
>  <filename_input>  (22) 
7FB7_8NF_docked.sdf

>  <pdb_id>  (22) 
7FB7_8NF

>  <pose_rank>  (22) 
21

>  <num_atoms_heavy>  (22) 
9

>  <num_torsions>  (22) 
0

>  <pose>  (22) 
[9.278683905737546, 28.863925255915984, 37.90459752780355, 0.6069339382651061, -0.9930332595816574, -1.0930582465320684]

>  <energy>  (22) 
-96.40435075659501

>  <inter_energy>  (22) 
-94.19749183343468

>  <intra_energy>  (22) 
0.0

>  <rmsd>  (22) 
8.34746

>  <sdf_rank>  (22) 
0

$$$$

     RDKit          3D

 19 19  0  0  0  0  0  0  0  0999 V2000
   12.1530   30.6165   38.3351 C   0  0  0  0  0  0  0  0  0  0  0  0
   11.4749   29.5548   39.2002 C   0  0  0  0  0  0  0  0  0  0  0  0
   10.6007   28.6702   38.6159 C   0  0  0  0  0  0  0  0  0  0  0  0
   10.0134   27.7082   39.4493 C   0  0  0  0  0  0  0  0  0  0  0  0
   11.1934   28.5151   41.3184 C   0  0  0  0  0  0  0  0  0  0  0  0
   11.7815   29.4812   40.5158 C   0  0  0  0  0  0  0  0  0  0  0  0
    9.0332   26.6566   38.9237 C   0  0  0  0  0  0  0  0  0  0  0  0
   10.3244   27.6607   40.7312 N   0  0  0  0  0  0  0  0  0  0  0  0
   12.7066   30.3722   41.1904 N   0  0  0  0  0  0  0  0  0  0  0  0
   12.6317   31.3660   38.9824 H   0  0  0  0  0  0  0  0  0  0  0  0
   12.9146   30.1403   37.7001 H   0  0  0  0  0  0  0  0  0  0  0  0
   11.4007   31.1072   37.7001 H   0  0  0  0  0  0  0  0  0  0  0  0
   10.3716   28.7151   37.5410 H   0  0  0  0  0  0  0  0  0  0  0  0
   11.4249   28.4461   42.3915 H   0  0  0  0  0  0  0  0  0  0  0  0
    8.5555   26.1442   39.7718 H   0  0  0  0  0  0  0  0  0  0  0  0
    8.2628   27.1473   38.3107 H   0  0  0  0  0  0  0  0  0  0  0  0
    9.5768   25.9226   38.3107 H   0  0  0  0  0  0  0  0  0  0  0  0
   12.8918   30.2562   42.1970 H   0  0  0  0  0  0  0  0  0  0  0  0
   13.1781   31.1207   40.6628 H   0  0  0  0  0  0  0  0  0  0  0  0
  1  2  1  0
  2  3  2  0
  2  6  1  0
  3  4  1  0
  4  7  1  0
  4  8  2  0
  5  6  2  0
  5  8  1  0
  6  9  1  0
  1 10  1  0
  1 11  1  0
  1 12  1  0
  3 13  1  0
  5 14  1  0
  7 15  1  0
  7 16  1  0
  7 17  1  0
  9 18  1  0
  9 19  1  0
M  END
>  <filename_input>  (23) 
7FB7_8NF_docked.sdf

>  <pdb_id>  (23) 
7FB7_8NF

>  <pose_rank>  (23) 
22

>  <num_atoms_heavy>  (23) 
9

>  <num_torsions>  (23) 
0

>  <pose>  (23) 
[12.1529985235175, 30.616450371688476, 38.33509697354765, -5.117440905756917, 6.444954962241134, 5.943161782657017]

>  <energy>  (23) 
-106.14027136841567

>  <inter_energy>  (23) 
-96.02383376506553

>  <intra_energy>  (23) 
0.0

>  <rmsd>  (23) 
8.96154

>  <sdf_rank>  (23) 
0

$$$$

     RDKit          3D

 19 19  0  0  0  0  0  0  0  0999 V2000
    7.3794   24.3058   36.9800 C   0  0  0  0  0  0  0  0  0  0  0  0
    8.4917   24.6990   37.9513 C   0  0  0  0  0  0  0  0  0  0  0  0
    9.3399   23.7293   38.4292 C   0  0  0  0  0  0  0  0  0  0  0  0
   10.3508   24.1420   39.3084 C   0  0  0  0  0  0  0  0  0  0  0  0
    9.6574   26.3852   39.1533 C   0  0  0  0  0  0  0  0  0  0  0  0
    8.6443   26.0004   38.2879 C   0  0  0  0  0  0  0  0  0  0  0  0
   11.3694   23.1660   39.9025 C   0  0  0  0  0  0  0  0  0  0  0  0
   10.4753   25.4171   39.6261 N   0  0  0  0  0  0  0  0  0  0  0  0
    7.7951   27.0739   37.8071 N   0  0  0  0  0  0  0  0  0  0  0  0
    6.4911   23.9917   37.5475 H   0  0  0  0  0  0  0  0  0  0  0  0
    7.1240   25.1681   36.3466 H   0  0  0  0  0  0  0  0  0  0  0  0
    7.7227   23.4745   36.3466 H   0  0  0  0  0  0  0  0  0  0  0  0
    9.2305   22.6752   38.1348 H   0  0  0  0  0  0  0  0  0  0  0  0
    9.7908   27.4377   39.4441 H   0  0  0  0  0  0  0  0  0  0  0  0
   11.3227   23.2108   41.0006 H   0  0  0  0  0  0  0  0  0  0  0  0
   11.1374   22.1445   39.5670 H   0  0  0  0  0  0  0  0  0  0  0  0
   12.3801   23.4415   39.5670 H   0  0  0  0  0  0  0  0  0  0  0  0
    7.9714   28.0435   38.1065 H   0  0  0  0  0  0  0  0  0  0  0  0
    7.0159   26.8664   37.1662 H   0  0  0  0  0  0  0  0  0  0  0  0
  1  2  1  0
  2  3  2  0
  2  6  1  0
  3  4  1  0
  4  7  1  0
  4  8  2  0
  5  6  2  0
  5  8  1  0
  6  9  1  0
  1 10  1  0
  1 11  1  0
  1 12  1  0
  3 13  1  0
  5 14  1  0
  7 15  1  0
  7 16  1  0
  7 17  1  0
  9 18  1  0
  9 19  1  0
M  END
>  <filename_input>  (24) 
7FB7_8NF_docked.sdf

>  <pdb_id>  (24) 
7FB7_8NF

>  <pose_rank>  (24) 
23

>  <num_atoms_heavy>  (24) 
9

>  <num_torsions>  (24) 
0

>  <pose>  (24) 
[7.379443045215166, 24.30580743896156, 36.97995155492835, 11.615709256325639, -5.228797633395843, -3.7867127488838745]

>  <energy>  (24) 
-88.92082920121561

>  <inter_energy>  (24) 
-88.92123409738514

>  <intra_energy>  (24) 
0.0

>  <rmsd>  (24) 
7.23359

>  <sdf_rank>  (24) 
0

$$$$

     RDKit          3D

 19 19  0  0  0  0  0  0  0  0999 V2000
    8.7303   29.4713   40.2439 C   0  0  0  0  0  0  0  0  0  0  0  0
    9.6532   28.6974   41.1844 C   0  0  0  0  0  0  0  0  0  0  0  0
    9.7225   27.3289   41.0816 C   0  0  0  0  0  0  0  0  0  0  0  0
   10.5920   26.6658   41.9587 C   0  0  0  0  0  0  0  0  0  0  0  0
   11.2736   28.7014   42.9225 C   0  0  0  0  0  0  0  0  0  0  0  0
   10.4146   29.3793   42.0706 C   0  0  0  0  0  0  0  0  0  0  0  0
   10.7731   25.1460   41.9406 C   0  0  0  0  0  0  0  0  0  0  0  0
   11.3200   27.3535   42.8187 N   0  0  0  0  0  0  0  0  0  0  0  0
   10.4013   30.8224   42.2190 N   0  0  0  0  0  0  0  0  0  0  0  0
    8.0198   30.0671   40.8356 H   0  0  0  0  0  0  0  0  0  0  0  0
    9.3304   30.1402   39.6095 H   0  0  0  0  0  0  0  0  0  0  0  0
    8.1763   28.7637   39.6095 H   0  0  0  0  0  0  0  0  0  0  0  0
    9.1217   26.7776   40.3432 H   0  0  0  0  0  0  0  0  0  0  0  0
   11.8936   29.2393   43.6548 H   0  0  0  0  0  0  0  0  0  0  0  0
   10.8180   24.7697   42.9732 H   0  0  0  0  0  0  0  0  0  0  0  0
    9.9240   24.6817   41.4177 H   0  0  0  0  0  0  0  0  0  0  0  0
   11.7077   24.8944   41.4177 H   0  0  0  0  0  0  0  0  0  0  0  0
   11.0097   31.2740   42.9167 H   0  0  0  0  0  0  0  0  0  0  0  0
    9.7835   31.3954   41.6266 H   0  0  0  0  0  0  0  0  0  0  0  0
  1  2  1  0
  2  3  2  0
  2  6  1  0
  3  4  1  0
  4  7  1  0
  4  8  2  0
  5  6  2  0
  5  8  1  0
  6  9  1  0
  1 10  1  0
  1 11  1  0
  1 12  1  0
  3 13  1  0
  5 14  1  0
  7 15  1  0
  7 16  1  0
  7 17  1  0
  9 18  1  0
  9 19  1  0
M  END
>  <filename_input>  (25) 
7FB7_8NF_docked.sdf

>  <pdb_id>  (25) 
7FB7_8NF

>  <pose_rank>  (25) 
24

>  <num_atoms_heavy>  (25) 
9

>  <num_torsions>  (25) 
0

>  <pose>  (25) 
[8.730280411978008, 29.471301620719423, 40.24387452365483, 5.531213713667206, -2.6561183653506246, -4.684754765453049]

>  <energy>  (25) 
-86.04457488904171

>  <inter_energy>  (25) 
-79.37857254368689

>  <intra_energy>  (25) 
0.0

>  <rmsd>  (25) 
8.32628

>  <sdf_rank>  (25) 
0

$$$$

     RDKit          3D

 19 19  0  0  0  0  0  0  0  0999 V2000
   13.1140   20.0530   41.0930 C   0  0  0  0  0  0  0  0  0  0  0  0
   14.2450   21.0660   41.2660 C   0  0  0  0  0  0  0  0  0  0  0  0
   15.4040   20.6780   41.8940 C   0  0  0  0  0  0  0  0  0  0  0  0
   16.4160   21.6400   42.0180 C   0  0  0  0  0  0  0  0  0  0  0  0
   15.1170   23.2440   40.8880 C   0  0  0  0  0  0  0  0  0  0  0  0
   14.0980   22.3120   40.7600 C   0  0  0  0  0  0  0  0  0  0  0  0
   17.7600   21.3350   42.6840 C   0  0  0  0  0  0  0  0  0  0  0  0
   16.2460   22.8510   41.5210 N   0  0  0  0  0  0  0  0  0  0  0  0
   12.9090   22.7800   40.0730 N   0  0  0  0  0  0  0  0  0  0  0  0
   12.7552   19.7316   42.0819 H   0  0  0  0  0  0  0  0  0  0  0  0
   12.2871   20.5181   40.5363 H   0  0  0  0  0  0  0  0  0  0  0  0
   13.4856   19.1801   40.5363 H   0  0  0  0  0  0  0  0  0  0  0  0
   15.5321   19.6569   42.2825 H   0  0  0  0  0  0  0  0  0  0  0  0
   15.0112   24.2640   40.4899 H   0  0  0  0  0  0  0  0  0  0  0  0
   17.6419   21.3618   43.7773 H   0  0  0  0  0  0  0  0  0  0  0  0
   18.1032   20.3361   42.3766 H   0  0  0  0  0  0  0  0  0  0  0  0
   18.5007   22.0879   42.3766 H   0  0  0  0  0  0  0  0  0  0  0  0
   12.8680   23.7443   39.7133 H   0  0  0  0  0  0  0  0  0  0  0  0
   12.1058   22.1480   39.9450 H   0  0  0  0  0  0  0  0  0  0  0  0
  1  2  1  0
  2  3  2  0
  2  6  1  0
  3  4  1  0
  4  7  1  0
  4  8  2  0
  5  6  2  0
  5  8  1  0
  6  9  1  0
  1 10  1  0
  1 11  1  0
  1 12  1  0
  3 13  1  0
  5 14  1  0
  7 15  1  0
  7 16  1  0
  7 17  1  0
  9 18  1  0
  9 19  1  0
M  END
>  <filename_input>  (26) 
7FB7_8NF_docked.sdf

>  <pdb_id>  (26) 
7FB7_8NF

>  <pose_rank>  (26) 
25

>  <num_atoms_heavy>  (26) 
9

>  <num_torsions>  (26) 
0

>  <pose>  (26) 
[13.114, 20.053, 41.093, 1e-06, 1e-06, 1e-06]

>  <energy>  (26) 
-362.92857198747214

>  <inter_energy>  (26) 
-362.6846505592072

>  <intra_energy>  (26) 
0.0

>  <rmsd>  (26) 
0.0

>  <sdf_rank>  (26) 
0

$$$$
