
     RDKit          3D

 39 41  0  0  0  0  0  0  0  0999 V2000
   -8.9554   -0.1072   -0.5431 S   0  0  2  0  0  0  0  0  0  0  0  0
   -8.6732    0.1061   -1.7697 O   0  0  0  0  0  0  0  0  0  0  0  0
  -10.1506   -0.5660   -0.4760 O   0  0  0  0  0  0  0  0  0  0  0  0
   -8.8051    0.9335    0.1876 O   0  0  0  0  0  0  0  0  0  0  0  0
   -6.5846   -1.5125   -0.1805 P   0  0  2  0  0  0  0  0  0  0  0  0
   -6.4291   -2.3631   -1.2256 O   0  0  0  0  0  0  0  0  0  0  0  0
   -6.1845   -1.9018    1.0803 O   0  0  0  0  0  0  0  0  0  0  0  0
   -8.1004   -1.2170   -0.0911 O   0  0  0  0  0  0  0  0  0  0  0  0
   -5.9238   -0.1696   -0.5565 O   0  0  0  0  0  0  0  0  0  0  0  0
   -4.7458    0.3443   -0.0102 C   0  0  0  0  0  0  0  0  0  0  0  0
   -4.0122    1.3676   -0.8849 C   0  0  1  0  0  0  0  0  0  0  0  0
   -2.9052    0.8244   -1.5365 O   0  0  0  0  0  0  0  0  0  0  0  0
   -4.9157    1.8920   -2.0187 C   0  0  1  0  0  0  0  0  0  0  0  0
   -4.5766    3.1957   -2.3038 O   0  0  0  0  0  0  0  0  0  0  0  0
   -4.6329    0.9452   -3.1513 C   0  0  1  0  0  0  0  0  0  0  0  0
   -4.8846    1.4388   -4.4165 O   0  0  0  0  0  0  0  0  0  0  0  0
   -3.1561    0.7659   -2.9099 C   0  0  2  0  0  0  0  0  0  0  0  0
   -2.4285   -0.4015   -3.3454 N   0  0  0  0  0  0  0  0  0  0  0  0
   -2.5631   -1.5956   -2.9128 C   0  0  0  0  0  0  0  0  0  0  0  0
   -1.6930   -2.3879   -3.4421 N   0  0  0  0  0  0  0  0  0  0  0  0
   -0.9264   -1.6824   -4.2302 C   0  0  0  0  0  0  0  0  0  0  0  0
    0.2184   -1.9040   -5.0985 C   0  0  0  0  0  0  0  0  0  0  0  0
    0.7646   -3.1172   -5.2212 N   0  0  0  0  0  0  0  0  0  0  0  0
    0.6943   -0.8508   -5.7665 N   0  0  0  0  0  0  0  0  0  0  0  0
    0.1913    0.3538   -5.6579 C   0  0  0  0  0  0  0  0  0  0  0  0
   -0.8464    0.6256   -4.8913 N   0  0  0  0  0  0  0  0  0  0  0  0
   -1.4239   -0.3295   -4.1549 C   0  0  0  0  0  0  0  0  0  0  0  0
   -4.9971    0.8305    0.9440 H   0  0  0  0  0  0  0  0  0  0  0  0
   -4.0617   -0.5102    0.0984 H   0  0  0  0  0  0  0  0  0  0  0  0
   -3.7123    2.1615   -0.1850 H   0  0  0  0  0  0  0  0  0  0  0  0
   -5.9896    1.9165   -1.7817 H   0  0  0  0  0  0  0  0  0  0  0  0
   -4.4467    3.6952   -1.4589 H   0  0  0  0  0  0  0  0  0  0  0  0
   -5.2648    0.0449   -3.1489 H   0  0  0  0  0  0  0  0  0  0  0  0
   -5.3333    2.3183   -4.3444 H   0  0  0  0  0  0  0  0  0  0  0  0
   -2.7871    1.5736   -3.5590 H   0  0  0  0  0  0  0  0  0  0  0  0
   -3.3236   -1.9086   -2.1823 H   0  0  0  0  0  0  0  0  0  0  0  0
    1.5755   -3.2566   -5.8408 H   0  0  0  0  0  0  0  0  0  0  0  0
    0.3748   -3.9130   -4.6961 H   0  0  0  0  0  0  0  0  0  0  0  0
    0.6536    1.1721   -6.2296 H   0  0  0  0  0  0  0  0  0  0  0  0
  1  2  2  0
  1  3  2  0
  1  4  1  1
  1  8  1  0
  5  6  2  0
  5  7  1  1
  5  8  1  0
  5  9  1  0
  9 10  1  0
 11 10  1  0
 11 12  1  0
 11 13  1  0
 12 17  1  0
 13 14  1  0
 13 15  1  0
 15 16  1  0
 15 17  1  0
 17 18  1  0
 18 19  1  0
 18 27  1  0
 19 20  2  0
 20 21  1  0
 21 22  2  0
 21 27  1  0
 22 23  1  0
 22 24  1  0
 24 25  2  0
 25 26  1  0
 26 27  2  0
 10 28  1  0
 10 29  1  0
 11 30  1  1
 13 31  1  1
 14 32  1  0
 15 33  1  1
 16 34  1  0
 17 35  1  6
 19 36  1  0
 23 37  1  0
 23 38  1  0
 25 39  1  0
M  CHG  2   4  -1   7  -1
M  END
>  <filename_input>  (1) 
7FHA_ADX_docked.sdf

>  <pdb_id>  (1) 
7FHA_ADX

>  <pose_rank>  (1) 
0

>  <num_atoms_heavy>  (1) 
27

>  <num_torsions>  (1) 
6

>  <pose>  (1) 
[-4.012207825133723, 1.3676483905361025, -0.8849359418996079, 2.0055820540571414, -2.614772440076359, -5.195465381864925, -0.03783086885294812, -0.899374659683925, -0.45797714183224886, 0.8268931529515844, 1.1353606211628955, -0.5632073207898429]

>  <energy>  (1) 
-1016.2281711738453

>  <inter_energy>  (1) 
-1007.0533302418946

>  <intra_energy>  (1) 
13.272680523055262

>  <rmsd>  (1) 
0.434368

>  <sdf_rank>  (1) 
0

$$$$

     RDKit          3D

 39 41  0  0  0  0  0  0  0  0999 V2000
   -7.2785   -1.9024   -3.0030 S   0  0  2  0  0  0  0  0  0  0  0  0
   -6.5551   -2.7765   -2.4180 O   0  0  0  0  0  0  0  0  0  0  0  0
   -8.2932   -2.4940   -3.5167 O   0  0  0  0  0  0  0  0  0  0  0  0
   -6.6300   -1.2279   -3.8772 O   0  0  0  0  0  0  0  0  0  0  0  0
   -7.4627   -0.7466   -0.4817 P   0  0  2  0  0  0  0  0  0  0  0  0
   -7.3177   -1.9571    0.1129 O   0  0  0  0  0  0  0  0  0  0  0  0
   -8.4030    0.1402   -0.0015 O   0  0  0  0  0  0  0  0  0  0  0  0
   -7.8395   -1.0354   -1.9540 O   0  0  0  0  0  0  0  0  0  0  0  0
   -6.0754   -0.0727   -0.5353 O   0  0  0  0  0  0  0  0  0  0  0  0
   -5.4879    0.5026   -1.6639 C   0  0  0  0  0  0  0  0  0  0  0  0
   -3.9885    0.7976   -1.5413 C   0  0  1  0  0  0  0  0  0  0  0  0
   -3.2016   -0.3461   -1.6755 O   0  0  0  0  0  0  0  0  0  0  0  0
   -3.5049    1.7395   -2.6619 C   0  0  1  0  0  0  0  0  0  0  0  0
   -2.4756    2.5205   -2.1864 O   0  0  0  0  0  0  0  0  0  0  0  0
   -3.0769    0.7925   -3.7479 C   0  0  1  0  0  0  0  0  0  0  0  0
   -2.1504    1.2922   -4.6421 O   0  0  0  0  0  0  0  0  0  0  0  0
   -2.4792   -0.2764   -2.8696 C   0  0  2  0  0  0  0  0  0  0  0  0
   -2.3611   -1.6534   -3.2837 N   0  0  0  0  0  0  0  0  0  0  0  0
   -3.2266   -2.5793   -3.1263 C   0  0  0  0  0  0  0  0  0  0  0  0
   -2.7715   -3.7201   -3.5221 N   0  0  0  0  0  0  0  0  0  0  0  0
   -1.5403   -3.5498   -3.9242 C   0  0  0  0  0  0  0  0  0  0  0  0
   -0.4614   -4.3632   -4.4607 C   0  0  0  0  0  0  0  0  0  0  0  0
   -0.6142   -5.6785   -4.6391 N   0  0  0  0  0  0  0  0  0  0  0  0
    0.6794   -3.7425   -4.7693 N   0  0  0  0  0  0  0  0  0  0  0  0
    0.8667   -2.4579   -4.5936 C   0  0  0  0  0  0  0  0  0  0  0  0
   -0.0680   -1.6612   -4.1140 N   0  0  0  0  0  0  0  0  0  0  0  0
   -1.2612   -2.1441   -3.7520 C   0  0  0  0  0  0  0  0  0  0  0  0
   -5.6312   -0.1854   -2.5102 H   0  0  0  0  0  0  0  0  0  0  0  0
   -5.9802    1.4767   -1.8010 H   0  0  0  0  0  0  0  0  0  0  0  0
   -3.8775    1.2422   -0.5413 H   0  0  0  0  0  0  0  0  0  0  0  0
   -4.2612    2.4484   -3.0300 H   0  0  0  0  0  0  0  0  0  0  0  0
   -2.4857    2.5128   -1.1964 H   0  0  0  0  0  0  0  0  0  0  0  0
   -3.8885    0.4995   -4.4302 H   0  0  0  0  0  0  0  0  0  0  0  0
   -1.3971    1.6984   -4.1444 H   0  0  0  0  0  0  0  0  0  0  0  0
   -1.4426    0.0913   -2.8505 H   0  0  0  0  0  0  0  0  0  0  0  0
   -4.2316   -2.4241   -2.7070 H   0  0  0  0  0  0  0  0  0  0  0  0
    0.1605   -6.2400   -5.0203 H   0  0  0  0  0  0  0  0  0  0  0  0
   -1.5068   -6.1310   -4.3953 H   0  0  0  0  0  0  0  0  0  0  0  0
    1.8436   -2.0263   -4.8570 H   0  0  0  0  0  0  0  0  0  0  0  0
  1  2  2  0
  1  3  2  0
  1  4  1  6
  1  8  1  0
  5  6  2  0
  5  7  1  1
  5  8  1  0
  5  9  1  0
  9 10  1  0
 11 10  1  0
 11 12  1  0
 11 13  1  0
 12 17  1  0
 13 14  1  0
 13 15  1  0
 15 16  1  0
 15 17  1  0
 17 18  1  0
 18 19  1  0
 18 27  1  0
 19 20  2  0
 20 21  1  0
 21 22  2  0
 21 27  1  0
 22 23  1  0
 22 24  1  0
 24 25  2  0
 25 26  1  0
 26 27  2  0
 10 28  1  0
 10 29  1  0
 11 30  1  1
 13 31  1  6
 14 32  1  0
 15 33  1  6
 16 34  1  0
 17 35  1  1
 19 36  1  0
 23 37  1  0
 23 38  1  0
 25 39  1  0
M  CHG  2   4  -1   7  -1
M  END
>  <filename_input>  (2) 
7FHA_ADX_docked.sdf

>  <pdb_id>  (2) 
7FHA_ADX

>  <pose_rank>  (2) 
1

>  <num_atoms_heavy>  (2) 
27

>  <num_torsions>  (2) 
6

>  <pose>  (2) 
[-3.9884620914621745, 0.7975933643756126, -1.5413222389376438, 0.15419847270938075, -0.6316414359828129, -0.571385699221285, -0.4283267716762502, 2.2316819011948654, 0.18951501275411844, -1.2789168179488977, 1.9984740642408096, -1.1009759639105257]

>  <energy>  (2) 
-600.5319381206403

>  <inter_energy>  (2) 
-631.5035630817888

>  <intra_energy>  (2) 
34.445645117851896

>  <rmsd>  (2) 
2.29608

>  <sdf_rank>  (2) 
0

$$$$

     RDKit          3D

 39 41  0  0  0  0  0  0  0  0999 V2000
   -9.4745    0.0407   -0.1605 S   0  0  2  0  0  0  0  0  0  0  0  0
   -9.3027   -0.1974    1.0818 O   0  0  0  0  0  0  0  0  0  0  0  0
   -9.8485    1.2599   -0.2916 O   0  0  0  0  0  0  0  0  0  0  0  0
  -10.2989   -0.7701   -0.7105 O   0  0  0  0  0  0  0  0  0  0  0  0
   -6.9670    0.9749   -0.9133 P   0  0  2  0  0  0  0  0  0  0  0  0
   -6.8473    1.5597    0.3048 O   0  0  0  0  0  0  0  0  0  0  0  0
   -7.2154    1.7554   -2.0224 O   0  0  0  0  0  0  0  0  0  0  0  0
   -8.1487   -0.0168   -0.7975 O   0  0  0  0  0  0  0  0  0  0  0  0
   -5.7165    0.1014   -1.1475 O   0  0  0  0  0  0  0  0  0  0  0  0
   -5.6341   -1.2790   -0.9527 C   0  0  0  0  0  0  0  0  0  0  0  0
   -5.5485   -2.1156   -2.2346 C   0  0  1  0  0  0  0  0  0  0  0  0
   -4.6952   -1.5576   -3.1863 O   0  0  0  0  0  0  0  0  0  0  0  0
   -4.9644   -3.5151   -1.9573 C   0  0  1  0  0  0  0  0  0  0  0  0
   -5.5203   -4.4210   -2.8325 O   0  0  0  0  0  0  0  0  0  0  0  0
   -3.4884   -3.3203   -2.1648 C   0  0  1  0  0  0  0  0  0  0  0  0
   -2.7773   -4.4597   -2.4869 O   0  0  0  0  0  0  0  0  0  0  0  0
   -3.5651   -2.3669   -3.3295 C   0  0  2  0  0  0  0  0  0  0  0  0
   -2.5104   -1.4355   -3.6485 N   0  0  0  0  0  0  0  0  0  0  0  0
   -2.4885   -0.1841   -3.3945 C   0  0  0  0  0  0  0  0  0  0  0  0
   -1.4431    0.3795   -3.8991 N   0  0  0  0  0  0  0  0  0  0  0  0
   -0.7630   -0.5292   -4.5458 C   0  0  0  0  0  0  0  0  0  0  0  0
    0.4574   -0.6027   -5.3324 C   0  0  0  0  0  0  0  0  0  0  0  0
    1.1971    0.4867   -5.5588 N   0  0  0  0  0  0  0  0  0  0  0  0
    0.8067   -1.7985   -5.8120 N   0  0  0  0  0  0  0  0  0  0  0  0
    0.0970   -2.8828   -5.6206 C   0  0  0  0  0  0  0  0  0  0  0  0
   -1.0178   -2.8889   -4.9165 N   0  0  0  0  0  0  0  0  0  0  0  0
   -1.4969   -1.7611   -4.3810 C   0  0  0  0  0  0  0  0  0  0  0  0
   -4.7361   -1.4847   -0.3516 H   0  0  0  0  0  0  0  0  0  0  0  0
   -6.5714   -1.5737   -0.4581 H   0  0  0  0  0  0  0  0  0  0  0  0
   -6.5838   -2.1577   -2.6040 H   0  0  0  0  0  0  0  0  0  0  0  0
   -5.1740   -3.9143   -0.9540 H   0  0  0  0  0  0  0  0  0  0  0  0
   -5.9639   -5.1438   -2.3217 H   0  0  0  0  0  0  0  0  0  0  0  0
   -2.9513   -2.9865   -1.2648 H   0  0  0  0  0  0  0  0  0  0  0  0
   -2.4921   -4.9166   -1.6562 H   0  0  0  0  0  0  0  0  0  0  0  0
   -3.5317   -3.1047   -4.1446 H   0  0  0  0  0  0  0  0  0  0  0  0
   -3.2619    0.3456   -2.8190 H   0  0  0  0  0  0  0  0  0  0  0  0
    2.0591    0.4168   -6.1183 H   0  0  0  0  0  0  0  0  0  0  0  0
    0.9054    1.3964   -5.1737 H   0  0  0  0  0  0  0  0  0  0  0  0
    0.4452   -3.8267   -6.0653 H   0  0  0  0  0  0  0  0  0  0  0  0
  1  2  2  0
  1  3  2  0
  1  4  1  6
  1  8  1  0
  5  6  2  0
  5  7  1  6
  5  8  1  0
  5  9  1  0
  9 10  1  0
 11 10  1  0
 11 12  1  0
 11 13  1  0
 12 17  1  0
 13 14  1  0
 13 15  1  0
 15 16  1  0
 15 17  1  0
 17 18  1  0
 18 19  1  0
 18 27  1  0
 19 20  2  0
 20 21  1  0
 21 22  2  0
 21 27  1  0
 22 23  1  0
 22 24  1  0
 24 25  2  0
 25 26  1  0
 26 27  2  0
 10 28  1  0
 10 29  1  0
 11 30  1  6
 13 31  1  1
 14 32  1  0
 15 33  1  1
 16 34  1  0
 17 35  1  6
 19 36  1  0
 23 37  1  0
 23 38  1  0
 25 39  1  0
M  CHG  2   4  -1   7  -1
M  END
>  <filename_input>  (3) 
7FHA_ADX_docked.sdf

>  <pdb_id>  (3) 
7FHA_ADX

>  <pose_rank>  (3) 
2

>  <num_atoms_heavy>  (3) 
27

>  <num_torsions>  (3) 
6

>  <pose>  (3) 
[-5.5484958817273515, -2.1155984761535622, -2.234588163373703, 2.503599344268326, -0.33306403566407083, -2.854382256998871, -0.6502824374454496, 1.622096960708048, -1.3073857569396345, -1.8287921723571183, 3.5887766352870796, 3.446818124506933]

>  <energy>  (3) 
-854.5182386815957

>  <inter_energy>  (3) 
-863.3217604529128

>  <intra_energy>  (3) 
7.401612604353309

>  <rmsd>  (3) 
3.41093

>  <sdf_rank>  (3) 
0

$$$$

     RDKit          3D

 39 41  0  0  0  0  0  0  0  0999 V2000
   -5.2661    2.8535   -1.8774 S   0  0  2  0  0  0  0  0  0  0  0  0
   -5.2922    2.8143   -3.1531 O   0  0  0  0  0  0  0  0  0  0  0  0
   -6.1326    3.7109   -1.4804 O   0  0  0  0  0  0  0  0  0  0  0  0
   -4.1001    3.1080   -1.4136 O   0  0  0  0  0  0  0  0  0  0  0  0
   -7.1302    1.0729   -0.8373 P   0  0  2  0  0  0  0  0  0  0  0  0
   -8.0813    1.6316   -1.6268 O   0  0  0  0  0  0  0  0  0  0  0  0
   -7.1198    1.3460    0.5141 O   0  0  0  0  0  0  0  0  0  0  0  0
   -5.7715    1.5573   -1.3962 O   0  0  0  0  0  0  0  0  0  0  0  0
   -7.1525   -0.4523   -1.0710 O   0  0  0  0  0  0  0  0  0  0  0  0
   -6.0479   -1.3050   -1.0164 C   0  0  0  0  0  0  0  0  0  0  0  0
   -5.8111   -2.1486   -2.2744 C   0  0  1  0  0  0  0  0  0  0  0  0
   -4.9145   -1.5533   -3.1615 O   0  0  0  0  0  0  0  0  0  0  0  0
   -5.1753   -3.5101   -1.9297 C   0  0  1  0  0  0  0  0  0  0  0  0
   -5.6066   -4.4548   -2.8338 O   0  0  0  0  0  0  0  0  0  0  0  0
   -3.7004   -3.2347   -2.0190 C   0  0  1  0  0  0  0  0  0  0  0  0
   -2.9033   -4.3356   -2.2651 O   0  0  0  0  0  0  0  0  0  0  0  0
   -3.7336   -2.2991   -3.2000 C   0  0  2  0  0  0  0  0  0  0  0  0
   -2.7092   -1.3132   -3.4458 N   0  0  0  0  0  0  0  0  0  0  0  0
   -2.7067   -0.0960   -3.0592 C   0  0  0  0  0  0  0  0  0  0  0  0
   -1.6893    0.5439   -3.5287 N   0  0  0  0  0  0  0  0  0  0  0  0
   -1.0094   -0.2732   -4.2879 C   0  0  0  0  0  0  0  0  0  0  0  0
    0.1882   -0.2321   -5.1111 C   0  0  0  0  0  0  0  0  0  0  0  0
    0.8971    0.8932   -5.2390 N   0  0  0  0  0  0  0  0  0  0  0  0
    0.5488   -1.3607   -5.7260 N   0  0  0  0  0  0  0  0  0  0  0  0
   -0.1313   -2.4764   -5.6329 C   0  0  0  0  0  0  0  0  0  0  0  0
   -1.2241   -2.5853   -4.9033 N   0  0  0  0  0  0  0  0  0  0  0  0
   -1.7112   -1.5335   -4.2366 C   0  0  0  0  0  0  0  0  0  0  0  0
   -5.1518   -0.6904   -0.8452 H   0  0  0  0  0  0  0  0  0  0  0  0
   -6.2532   -2.0186   -0.2048 H   0  0  0  0  0  0  0  0  0  0  0  0
   -6.8085   -2.2527   -2.7264 H   0  0  0  0  0  0  0  0  0  0  0  0
   -5.4444   -3.9102   -0.9410 H   0  0  0  0  0  0  0  0  0  0  0  0
   -5.9644   -5.2388   -2.3464 H   0  0  0  0  0  0  0  0  0  0  0  0
   -3.2584   -2.8620   -1.0832 H   0  0  0  0  0  0  0  0  0  0  0  0
   -2.6153   -4.7333   -1.4054 H   0  0  0  0  0  0  0  0  0  0  0  0
   -3.5925   -3.0423   -3.9987 H   0  0  0  0  0  0  0  0  0  0  0  0
   -3.4738    0.3498   -2.4091 H   0  0  0  0  0  0  0  0  0  0  0  0
    1.7433    0.9049   -5.8262 H   0  0  0  0  0  0  0  0  0  0  0  0
    0.5975    1.7490   -4.7504 H   0  0  0  0  0  0  0  0  0  0  0  0
    0.2237   -3.3584   -6.1861 H   0  0  0  0  0  0  0  0  0  0  0  0
  1  2  2  0
  1  3  2  0
  1  4  1  6
  1  8  1  0
  5  6  2  0
  5  7  1  1
  5  8  1  0
  5  9  1  0
  9 10  1  0
 11 10  1  0
 11 12  1  0
 11 13  1  0
 12 17  1  0
 13 14  1  0
 13 15  1  0
 15 16  1  0
 15 17  1  0
 17 18  1  0
 18 19  1  0
 18 27  1  0
 19 20  2  0
 20 21  1  0
 21 22  2  0
 21 27  1  0
 22 23  1  0
 22 24  1  0
 24 25  2  0
 25 26  1  0
 26 27  2  0
 10 28  1  0
 10 29  1  0
 11 30  1  6
 13 31  1  1
 14 32  1  0
 15 33  1  1
 16 34  1  0
 17 35  1  6
 19 36  1  0
 23 37  1  0
 23 38  1  0
 25 39  1  0
M  CHG  2   4  -1   7  -1
M  END
>  <filename_input>  (4) 
7FHA_ADX_docked.sdf

>  <pdb_id>  (4) 
7FHA_ADX

>  <pose_rank>  (4) 
3

>  <num_atoms_heavy>  (4) 
27

>  <num_torsions>  (4) 
6

>  <pose>  (4) 
[-5.811093048024892, -2.148617870948818, -2.274420611871921, 2.5860011636785463, -0.22210724601313817, -2.7311689078602788, -0.4836850423925598, -3.755055558211562, 0.9094749685304699, -0.9796534367956601, -2.664721060242109, -3.1932954199200347]

>  <energy>  (4) 
-771.6177789543381

>  <inter_energy>  (4) 
-782.6003197541315

>  <intra_energy>  (4) 
9.660772884165441

>  <rmsd>  (4) 
3.92382

>  <sdf_rank>  (4) 
0

$$$$

     RDKit          3D

 39 41  0  0  0  0  0  0  0  0999 V2000
   -6.7430   -2.8159   -2.7939 S   0  0  2  0  0  0  0  0  0  0  0  0
   -7.2697   -2.2031   -3.7822 O   0  0  0  0  0  0  0  0  0  0  0  0
   -5.5947   -3.2567   -3.1555 O   0  0  0  0  0  0  0  0  0  0  0  0
   -7.4882   -3.7519   -2.3377 O   0  0  0  0  0  0  0  0  0  0  0  0
   -5.8199   -1.8553   -0.3542 P   0  0  2  0  0  0  0  0  0  0  0  0
   -5.2762   -3.0919   -0.2311 O   0  0  0  0  0  0  0  0  0  0  0  0
   -6.7980   -1.4499    0.5291 O   0  0  0  0  0  0  0  0  0  0  0  0
   -6.4508   -1.8037   -1.7657 O   0  0  0  0  0  0  0  0  0  0  0  0
   -4.6680   -0.8286   -0.3792 O   0  0  0  0  0  0  0  0  0  0  0  0
   -4.7522    0.5060    0.0232 C   0  0  0  0  0  0  0  0  0  0  0  0
   -3.8915    1.4865   -0.7819 C   0  0  1  0  0  0  0  0  0  0  0  0
   -2.8205    0.8633   -1.4221 O   0  0  0  0  0  0  0  0  0  0  0  0
   -4.6986    2.1441   -1.9189 C   0  0  1  0  0  0  0  0  0  0  0  0
   -4.2237    3.4182   -2.1352 O   0  0  0  0  0  0  0  0  0  0  0  0
   -4.4697    1.2212   -3.0831 C   0  0  1  0  0  0  0  0  0  0  0  0
   -4.6270    1.7889   -4.3324 O   0  0  0  0  0  0  0  0  0  0  0  0
   -3.0271    0.8864   -2.8039 C   0  0  2  0  0  0  0  0  0  0  0  0
   -2.4022   -0.3285   -3.2678 N   0  0  0  0  0  0  0  0  0  0  0  0
   -2.6948   -1.5226   -2.9222 C   0  0  0  0  0  0  0  0  0  0  0  0
   -1.8815   -2.3762   -3.4466 N   0  0  0  0  0  0  0  0  0  0  0  0
   -0.9906   -1.7174   -4.1387 C   0  0  0  0  0  0  0  0  0  0  0  0
    0.1802   -2.0163   -4.9470 C   0  0  0  0  0  0  0  0  0  0  0  0
    0.5988   -3.2741   -5.1136 N   0  0  0  0  0  0  0  0  0  0  0  0
    0.8122   -0.9868   -5.5151 N   0  0  0  0  0  0  0  0  0  0  0  0
    0.4365    0.2586   -5.3604 C   0  0  0  0  0  0  0  0  0  0  0  0
   -0.6158    0.6010   -4.6436 N   0  0  0  0  0  0  0  0  0  0  0  0
   -1.3426   -0.3237   -4.0074 C   0  0  0  0  0  0  0  0  0  0  0  0
   -5.8019    0.8225   -0.0657 H   0  0  0  0  0  0  0  0  0  0  0  0
   -4.3688    0.5387    1.0537 H   0  0  0  0  0  0  0  0  0  0  0  0
   -3.5403    2.2172   -0.0385 H   0  0  0  0  0  0  0  0  0  0  0  0
   -5.7727    2.2653   -1.7148 H   0  0  0  0  0  0  0  0  0  0  0  0
   -4.0587    3.8610   -1.2652 H   0  0  0  0  0  0  0  0  0  0  0  0
   -5.1864    0.3887   -3.1404 H   0  0  0  0  0  0  0  0  0  0  0  0
   -4.8901    2.7381   -4.2329 H   0  0  0  0  0  0  0  0  0  0  0  0
   -2.5581    1.6796   -3.4047 H   0  0  0  0  0  0  0  0  0  0  0  0
   -3.5331   -1.7894   -2.2618 H   0  0  0  0  0  0  0  0  0  0  0  0
    1.4304   -3.4682   -5.6896 H   0  0  0  0  0  0  0  0  0  0  0  0
    0.0899   -4.0498   -4.6660 H   0  0  0  0  0  0  0  0  0  0  0  0
    1.0228    1.0510   -5.8486 H   0  0  0  0  0  0  0  0  0  0  0  0
  1  2  2  0
  1  3  2  0
  1  4  1  1
  1  8  1  0
  5  6  2  0
  5  7  1  1
  5  8  1  0
  5  9  1  0
  9 10  1  0
 11 10  1  0
 11 12  1  0
 11 13  1  0
 12 17  1  0
 13 14  1  0
 13 15  1  0
 15 16  1  0
 15 17  1  0
 17 18  1  0
 18 19  1  0
 18 27  1  0
 19 20  2  0
 20 21  1  0
 21 22  2  0
 21 27  1  0
 22 23  1  0
 22 24  1  0
 24 25  2  0
 25 26  1  0
 26 27  2  0
 10 28  1  0
 10 29  1  0
 11 30  1  1
 13 31  1  1
 14 32  1  0
 15 33  1  1
 16 34  1  0
 17 35  1  6
 19 36  1  0
 23 37  1  0
 23 38  1  0
 25 39  1  0
M  CHG  2   4  -1   7  -1
M  END
>  <filename_input>  (5) 
7FHA_ADX_docked.sdf

>  <pdb_id>  (5) 
7FHA_ADX

>  <pose_rank>  (5) 
4

>  <num_atoms_heavy>  (5) 
27

>  <num_torsions>  (5) 
6

>  <pose>  (5) 
[-3.8914739368447466, 1.4865098466310647, -0.7819489863423884, -0.2682070246363574, -5.46214579894358, -3.0425501125022754, 0.0009148675907105289, 0.49244673609528244, 0.5463960112935959, 0.05903966517828168, 3.0710595579988103, 1.7146785141458019]

>  <energy>  (5) 
-871.8908300825528

>  <inter_energy>  (5) 
-879.2767195149085

>  <intra_energy>  (5) 
15.13676150140502

>  <rmsd>  (5) 
1.83216

>  <sdf_rank>  (5) 
0

$$$$

     RDKit          3D

 39 41  0  0  0  0  0  0  0  0999 V2000
   -8.8689   -0.5387   -0.8088 S   0  0  2  0  0  0  0  0  0  0  0  0
   -8.5858    0.7044   -0.7430 O   0  0  0  0  0  0  0  0  0  0  0  0
  -10.1406   -0.6703   -0.7141 O   0  0  0  0  0  0  0  0  0  0  0  0
   -8.2531   -1.2340    0.0727 O   0  0  0  0  0  0  0  0  0  0  0  0
   -7.6314   -2.0853   -2.7591 P   0  0  2  0  0  0  0  0  0  0  0  0
   -8.0185   -2.2487   -4.0488 O   0  0  0  0  0  0  0  0  0  0  0  0
   -7.6954   -3.1522   -1.8880 O   0  0  0  0  0  0  0  0  0  0  0  0
   -8.5453   -0.9825   -2.1745 O   0  0  0  0  0  0  0  0  0  0  0  0
   -6.2096   -1.4852   -2.7606 O   0  0  0  0  0  0  0  0  0  0  0  0
   -5.0876   -2.0371   -2.1390 C   0  0  0  0  0  0  0  0  0  0  0  0
   -4.3217   -1.0873   -1.2107 C   0  0  1  0  0  0  0  0  0  0  0  0
   -3.0215   -0.8374   -1.6491 O   0  0  0  0  0  0  0  0  0  0  0  0
   -4.9882    0.3015   -1.1494 C   0  0  1  0  0  0  0  0  0  0  0  0
   -4.7857    0.8481    0.0979 O   0  0  0  0  0  0  0  0  0  0  0  0
   -4.3010    1.0629   -2.2483 C   0  0  1  0  0  0  0  0  0  0  0  0
   -4.3062    2.4374   -2.1132 O   0  0  0  0  0  0  0  0  0  0  0  0
   -2.9181    0.4929   -2.0642 C   0  0  2  0  0  0  0  0  0  0  0  0
   -1.9423    0.4494   -3.1262 N   0  0  0  0  0  0  0  0  0  0  0  0
   -1.3306    1.4417   -3.6477 C   0  0  0  0  0  0  0  0  0  0  0  0
   -0.5959    1.0710   -4.6417 N   0  0  0  0  0  0  0  0  0  0  0  0
   -0.7562   -0.2146   -4.8092 C   0  0  0  0  0  0  0  0  0  0  0  0
   -0.2726   -1.2513   -5.7062 C   0  0  0  0  0  0  0  0  0  0  0  0
    0.5706   -0.9620   -6.7015 N   0  0  0  0  0  0  0  0  0  0  0  0
   -0.7013   -2.4971   -5.4913 N   0  0  0  0  0  0  0  0  0  0  0  0
   -1.5383   -2.8120   -4.5341 C   0  0  0  0  0  0  0  0  0  0  0  0
   -2.0147   -1.9237   -3.6842 N   0  0  0  0  0  0  0  0  0  0  0  0
   -1.6801   -0.6327   -3.7820 C   0  0  0  0  0  0  0  0  0  0  0  0
   -5.4187   -2.9008   -1.5438 H   0  0  0  0  0  0  0  0  0  0  0  0
   -4.3901   -2.3016   -2.9475 H   0  0  0  0  0  0  0  0  0  0  0  0
   -4.3221   -1.5972   -0.2360 H   0  0  0  0  0  0  0  0  0  0  0  0
   -6.0790    0.2988   -1.2917 H   0  0  0  0  0  0  0  0  0  0  0  0
   -5.0310    0.1861    0.7920 H   0  0  0  0  0  0  0  0  0  0  0  0
   -4.7746    0.9483   -3.2345 H   0  0  0  0  0  0  0  0  0  0  0  0
   -4.3071    2.6746   -1.1520 H   0  0  0  0  0  0  0  0  0  0  0  0
   -2.5250    1.2456   -1.3649 H   0  0  0  0  0  0  0  0  0  0  0  0
   -1.4186    2.4798   -3.2947 H   0  0  0  0  0  0  0  0  0  0  0  0
    0.9034   -1.7088   -7.3280 H   0  0  0  0  0  0  0  0  0  0  0  0
    0.8877    0.0078   -6.8423 H   0  0  0  0  0  0  0  0  0  0  0  0
   -1.8567   -3.8603   -4.4354 H   0  0  0  0  0  0  0  0  0  0  0  0
  1  2  2  0
  1  3  2  0
  1  4  1  1
  1  8  1  0
  5  6  2  0
  5  7  1  1
  5  8  1  0
  5  9  1  0
  9 10  1  0
 11 10  1  0
 11 12  1  0
 11 13  1  0
 12 17  1  0
 13 14  1  0
 13 15  1  0
 15 16  1  0
 15 17  1  0
 17 18  1  0
 18 19  1  0
 18 27  1  0
 19 20  2  0
 20 21  1  0
 21 22  2  0
 21 27  1  0
 22 23  1  0
 22 24  1  0
 24 25  2  0
 25 26  1  0
 26 27  2  0
 10 28  1  0
 10 29  1  0
 11 30  1  1
 13 31  1  6
 14 32  1  0
 15 33  1  6
 16 34  1  0
 17 35  1  1
 19 36  1  0
 23 37  1  0
 23 38  1  0
 25 39  1  0
M  CHG  2   4  -1   7  -1
M  END
>  <filename_input>  (6) 
7FHA_ADX_docked.sdf

>  <pdb_id>  (6) 
7FHA_ADX

>  <pose_rank>  (6) 
5

>  <num_atoms_heavy>  (6) 
27

>  <num_torsions>  (6) 
6

>  <pose>  (6) 
[-4.321714304702198, -1.0872530907948743, -1.210677938657579, 1.246263442321085, -0.33092513226417014, 0.08650271973632295, 2.3509348135571146, -1.147785488470568, 0.8508088388659685, 0.5808977698423939, -0.556450170571155, 0.7229845159188641]

>  <energy>  (6) 
-678.1491907483042

>  <inter_energy>  (6) 
-732.1920085839802

>  <intra_energy>  (6) 
48.26800668721082

>  <rmsd>  (6) 
2.41466

>  <sdf_rank>  (6) 
0

$$$$

     RDKit          3D

 39 41  0  0  0  0  0  0  0  0999 V2000
   -7.5262   -0.0068   -0.5350 S   0  0  2  0  0  0  0  0  0  0  0  0
   -7.2727    0.6214    0.5470 O   0  0  0  0  0  0  0  0  0  0  0  0
   -7.6230    0.8470   -1.4864 O   0  0  0  0  0  0  0  0  0  0  0  0
   -8.5721   -0.7405   -0.4479 O   0  0  0  0  0  0  0  0  0  0  0  0
   -5.7856   -2.1692   -0.3892 P   0  0  2  0  0  0  0  0  0  0  0  0
   -6.5882   -3.1074   -0.9509 O   0  0  0  0  0  0  0  0  0  0  0  0
   -5.6791   -2.0971    0.9836 O   0  0  0  0  0  0  0  0  0  0  0  0
   -6.3308   -0.8010   -0.8623 O   0  0  0  0  0  0  0  0  0  0  0  0
   -4.3852   -2.2977   -1.0247 O   0  0  0  0  0  0  0  0  0  0  0  0
   -4.1008   -2.8560   -2.2727 C   0  0  0  0  0  0  0  0  0  0  0  0
   -3.8101   -1.8463   -3.3892 C   0  0  1  0  0  0  0  0  0  0  0  0
   -4.2837   -0.5677   -3.0960 O   0  0  0  0  0  0  0  0  0  0  0  0
   -2.2945   -1.6630   -3.6040 C   0  0  1  0  0  0  0  0  0  0  0  0
   -2.0541   -1.3847   -4.9308 O   0  0  0  0  0  0  0  0  0  0  0  0
   -1.9517   -0.5216   -2.6879 C   0  0  1  0  0  0  0  0  0  0  0  0
   -0.8186    0.1925   -3.0252 O   0  0  0  0  0  0  0  0  0  0  0  0
   -3.2024    0.2938   -2.8929 C   0  0  2  0  0  0  0  0  0  0  0  0
   -3.6900    1.2371   -1.9160 N   0  0  0  0  0  0  0  0  0  0  0  0
   -3.6800    1.1013   -0.6462 C   0  0  0  0  0  0  0  0  0  0  0  0
   -4.2793    2.0846   -0.0639 N   0  0  0  0  0  0  0  0  0  0  0  0
   -4.7377    2.8865   -0.9876 C   0  0  0  0  0  0  0  0  0  0  0  0
   -5.4911    4.1278   -1.0578 C   0  0  0  0  0  0  0  0  0  0  0  0
   -5.9190    4.7369    0.0517 N   0  0  0  0  0  0  0  0  0  0  0  0
   -5.7317    4.6314   -2.2705 N   0  0  0  0  0  0  0  0  0  0  0  0
   -5.3389    4.0523   -3.3779 C   0  0  0  0  0  0  0  0  0  0  0  0
   -4.6508    2.9277   -3.3879 N   0  0  0  0  0  0  0  0  0  0  0  0
   -4.3428    2.3020   -2.2470 C   0  0  0  0  0  0  0  0  0  0  0  0
   -3.2191   -3.5044   -2.1624 H   0  0  0  0  0  0  0  0  0  0  0  0
   -5.0085   -3.3965   -2.5791 H   0  0  0  0  0  0  0  0  0  0  0  0
   -4.3127   -2.2639   -4.2740 H   0  0  0  0  0  0  0  0  0  0  0  0
   -1.6838   -2.5495   -3.3778 H   0  0  0  0  0  0  0  0  0  0  0  0
   -1.4083   -0.6375   -4.9995 H   0  0  0  0  0  0  0  0  0  0  0  0
   -1.7053   -0.8315   -1.6616 H   0  0  0  0  0  0  0  0  0  0  0  0
   -0.3550    0.4846   -2.2006 H   0  0  0  0  0  0  0  0  0  0  0  0
   -2.8512    0.9217   -3.7250 H   0  0  0  0  0  0  0  0  0  0  0  0
   -3.2194    0.2544   -0.1165 H   0  0  0  0  0  0  0  0  0  0  0  0
   -6.4517    5.6159   -0.0161 H   0  0  0  0  0  0  0  0  0  0  0  0
   -5.7163    4.3275    0.9748 H   0  0  0  0  0  0  0  0  0  0  0  0
   -5.5935    4.5236   -4.3387 H   0  0  0  0  0  0  0  0  0  0  0  0
  1  2  2  0
  1  3  2  0
  1  4  1  1
  1  8  1  0
  5  6  2  0
  5  7  1  1
  5  8  1  0
  5  9  1  0
  9 10  1  0
 11 10  1  0
 11 12  1  0
 11 13  1  0
 12 17  1  0
 13 14  1  0
 13 15  1  0
 15 16  1  0
 15 17  1  0
 17 18  1  0
 18 19  1  0
 18 27  1  0
 19 20  2  0
 20 21  1  0
 21 22  2  0
 21 27  1  0
 22 23  1  0
 22 24  1  0
 24 25  2  0
 25 26  1  0
 26 27  2  0
 10 28  1  0
 10 29  1  0
 11 30  1  6
 13 31  1  1
 14 32  1  0
 15 33  1  1
 16 34  1  0
 17 35  1  6
 19 36  1  0
 23 37  1  0
 23 38  1  0
 25 39  1  0
M  CHG  2   4  -1   7  -1
M  END
>  <filename_input>  (7) 
7FHA_ADX_docked.sdf

>  <pdb_id>  (7) 
7FHA_ADX

>  <pose_rank>  (7) 
6

>  <num_atoms_heavy>  (7) 
27

>  <num_torsions>  (7) 
6

>  <pose>  (7) 
[-3.8100927487895775, -1.8462899027514532, -3.3891593376514373, 1.379571714673378, 2.1799633487924677, -2.240338382628787, -5.826722288561028, -30.86312023717403, -7.681198311466746, -15.70659425661062, -2.151110836585885, 6.279648478332075]

>  <energy>  (7) 
-670.3524860322523

>  <inter_energy>  (7) 
-680.2667486332193

>  <intra_energy>  (7) 
16.74132491754677

>  <rmsd>  (7) 
4.87035

>  <sdf_rank>  (7) 
0

$$$$

     RDKit          3D

 39 41  0  0  0  0  0  0  0  0999 V2000
   -6.8063   -3.1643   -2.9349 S   0  0  2  0  0  0  0  0  0  0  0  0
   -7.5039   -3.9521   -2.2122 O   0  0  0  0  0  0  0  0  0  0  0  0
   -7.5737   -2.6352   -3.8150 O   0  0  0  0  0  0  0  0  0  0  0  0
   -5.7997   -3.7460   -3.4716 O   0  0  0  0  0  0  0  0  0  0  0  0
   -6.8975   -1.4787   -0.7264 P   0  0  2  0  0  0  0  0  0  0  0  0
   -6.3645   -2.2717    0.2364 O   0  0  0  0  0  0  0  0  0  0  0  0
   -8.2674   -1.3667   -0.8357 O   0  0  0  0  0  0  0  0  0  0  0  0
   -6.3918   -2.0440   -2.0747 O   0  0  0  0  0  0  0  0  0  0  0  0
   -6.2585   -0.0798   -0.5996 O   0  0  0  0  0  0  0  0  0  0  0  0
   -4.9786    0.1944   -0.1128 C   0  0  0  0  0  0  0  0  0  0  0  0
   -4.1965    1.2569   -0.8937 C   0  0  1  0  0  0  0  0  0  0  0  0
   -3.0582    0.7413   -1.5130 O   0  0  0  0  0  0  0  0  0  0  0  0
   -5.0370    1.8440   -2.0450 C   0  0  1  0  0  0  0  0  0  0  0  0
   -4.6792    3.1585   -2.2442 O   0  0  0  0  0  0  0  0  0  0  0  0
   -4.6973    0.9549   -3.2084 C   0  0  1  0  0  0  0  0  0  0  0  0
   -4.8801    1.5141   -4.4581 O   0  0  0  0  0  0  0  0  0  0  0  0
   -3.2360    0.7548   -2.8989 C   0  0  2  0  0  0  0  0  0  0  0  0
   -2.4900   -0.3929   -3.3549 N   0  0  0  0  0  0  0  0  0  0  0  0
   -2.6041   -1.5961   -2.9422 C   0  0  0  0  0  0  0  0  0  0  0  0
   -1.7219   -2.3650   -3.4860 N   0  0  0  0  0  0  0  0  0  0  0  0
   -0.9684   -1.6338   -4.2631 C   0  0  0  0  0  0  0  0  0  0  0  0
    0.1785   -1.8218   -5.1366 C   0  0  0  0  0  0  0  0  0  0  0  0
    0.7445   -3.0236   -5.2804 N   0  0  0  0  0  0  0  0  0  0  0  0
    0.6358   -0.7499   -5.7875 N   0  0  0  0  0  0  0  0  0  0  0  0
    0.1132    0.4443   -5.6580 C   0  0  0  0  0  0  0  0  0  0  0  0
   -0.9276    0.6860   -4.8855 N   0  0  0  0  0  0  0  0  0  0  0  0
   -1.4880   -0.2908   -4.1645 C   0  0  0  0  0  0  0  0  0  0  0  0
   -5.0769    0.5399    0.9269 H   0  0  0  0  0  0  0  0  0  0  0  0
   -4.4073   -0.7402   -0.2134 H   0  0  0  0  0  0  0  0  0  0  0  0
   -3.9317    2.0120   -0.1389 H   0  0  0  0  0  0  0  0  0  0  0  0
   -6.1218    1.8625   -1.8642 H   0  0  0  0  0  0  0  0  0  0  0  0
   -4.5579    3.6039   -1.3684 H   0  0  0  0  0  0  0  0  0  0  0  0
   -5.3313    0.0593   -3.2858 H   0  0  0  0  0  0  0  0  0  0  0  0
   -5.1861    2.4504   -4.3590 H   0  0  0  0  0  0  0  0  0  0  0  0
   -2.8306    1.5926   -3.4851 H   0  0  0  0  0  0  0  0  0  0  0  0
   -3.3582   -1.9339   -2.2160 H   0  0  0  0  0  0  0  0  0  0  0  0
    1.5565   -3.1392   -5.9034 H   0  0  0  0  0  0  0  0  0  0  0  0
    0.3687   -3.8344   -4.7682 H   0  0  0  0  0  0  0  0  0  0  0  0
    0.5610    1.2795   -6.2165 H   0  0  0  0  0  0  0  0  0  0  0  0
  1  2  2  0
  1  3  2  0
  1  4  1  6
  1  8  1  0
  5  6  2  0
  5  7  1  6
  5  8  1  0
  5  9  1  0
  9 10  1  0
 11 10  1  0
 11 12  1  0
 11 13  1  0
 12 17  1  0
 13 14  1  0
 13 15  1  0
 15 16  1  0
 15 17  1  0
 17 18  1  0
 18 19  1  0
 18 27  1  0
 19 20  2  0
 20 21  1  0
 21 22  2  0
 21 27  1  0
 22 23  1  0
 22 24  1  0
 24 25  2  0
 25 26  1  0
 26 27  2  0
 10 28  1  0
 10 29  1  0
 11 30  1  1
 13 31  1  1
 14 32  1  0
 15 33  1  6
 16 34  1  0
 17 35  1  6
 19 36  1  0
 23 37  1  0
 23 38  1  0
 25 39  1  0
M  CHG  2   4  -1   7  -1
M  END
>  <filename_input>  (8) 
7FHA_ADX_docked.sdf

>  <pdb_id>  (8) 
7FHA_ADX

>  <pose_rank>  (8) 
7

>  <num_atoms_heavy>  (8) 
27

>  <num_torsions>  (8) 
6

>  <pose>  (8) 
[-4.1965040202499315, 1.2568990909002682, -0.8936639796352945, -0.34665609864513486, 0.006249447235002267, -6.167107410427512, -0.1057335242525866, -1.1242254461910068, -0.7840899469322673, -3.0424702641752224, -2.008199791701222, -1.7620656548998113]

>  <energy>  (8) 
-859.8937253982701

>  <inter_energy>  (8) 
-866.6269890940083

>  <intra_energy>  (8) 
10.3820454405912

>  <rmsd>  (8) 
2.01903

>  <sdf_rank>  (8) 
0

$$$$

     RDKit          3D

 39 41  0  0  0  0  0  0  0  0999 V2000
   -8.2082    0.4753   -0.7802 S   0  0  2  0  0  0  0  0  0  0  0  0
   -7.8064    0.6817   -1.9742 O   0  0  0  0  0  0  0  0  0  0  0  0
   -9.4893    0.4268   -0.7862 O   0  0  0  0  0  0  0  0  0  0  0  0
   -7.7705    1.3489    0.0473 O   0  0  0  0  0  0  0  0  0  0  0  0
   -6.4349   -1.6429   -0.4707 P   0  0  2  0  0  0  0  0  0  0  0  0
   -6.2621   -1.9997   -1.7680 O   0  0  0  0  0  0  0  0  0  0  0  0
   -6.4889   -2.6179    0.5027 O   0  0  0  0  0  0  0  0  0  0  0  0
   -7.7819   -0.8845   -0.4113 O   0  0  0  0  0  0  0  0  0  0  0  0
   -5.3566   -0.5974   -0.1163 O   0  0  0  0  0  0  0  0  0  0  0  0
   -4.0520   -0.5661   -0.6136 C   0  0  0  0  0  0  0  0  0  0  0  0
   -3.5239    0.8270   -0.9751 C   0  0  1  0  0  0  0  0  0  0  0  0
   -2.3218    0.7811   -1.6807 O   0  0  0  0  0  0  0  0  0  0  0  0
   -4.4972    1.5752   -1.9077 C   0  0  1  0  0  0  0  0  0  0  0  0
   -4.4199    2.9265   -1.6553 O   0  0  0  0  0  0  0  0  0  0  0  0
   -4.0155    1.2007   -3.2814 C   0  0  1  0  0  0  0  0  0  0  0  0
   -4.3421    2.0874   -4.2888 O   0  0  0  0  0  0  0  0  0  0  0  0
   -2.5362    1.2089   -2.9936 C   0  0  2  0  0  0  0  0  0  0  0  0
   -1.5850    0.4470   -3.7658 N   0  0  0  0  0  0  0  0  0  0  0  0
   -0.7787    0.8951   -4.6491 C   0  0  0  0  0  0  0  0  0  0  0  0
   -0.1313   -0.0622   -5.2231 N   0  0  0  0  0  0  0  0  0  0  0  0
   -0.5527   -1.1942   -4.7256 C   0  0  0  0  0  0  0  0  0  0  0  0
   -0.2889   -2.6126   -4.9043 C   0  0  0  0  0  0  0  0  0  0  0  0
    0.6010   -3.0391   -5.8050 N   0  0  0  0  0  0  0  0  0  0  0  0
   -0.9668   -3.4645   -4.1317 N   0  0  0  0  0  0  0  0  0  0  0  0
   -1.8558   -3.0803   -3.2496 C   0  0  0  0  0  0  0  0  0  0  0  0
   -2.1429   -1.8117   -3.0342 N   0  0  0  0  0  0  0  0  0  0  0  0
   -1.5484   -0.8444   -3.7408 C   0  0  0  0  0  0  0  0  0  0  0  0
   -3.3864   -0.9946    0.1502 H   0  0  0  0  0  0  0  0  0  0  0  0
   -4.0697   -1.1388   -1.5526 H   0  0  0  0  0  0  0  0  0  0  0  0
   -3.3979    1.3322   -0.0062 H   0  0  0  0  0  0  0  0  0  0  0  0
   -5.5578    1.3153   -1.7753 H   0  0  0  0  0  0  0  0  0  0  0  0
   -4.4111    3.0796   -0.6772 H   0  0  0  0  0  0  0  0  0  0  0  0
   -4.4559    0.2710   -3.6708 H   0  0  0  0  0  0  0  0  0  0  0  0
   -4.6554    2.9381   -3.8909 H   0  0  0  0  0  0  0  0  0  0  0  0
   -2.3258    2.2554   -3.2595 H   0  0  0  0  0  0  0  0  0  0  0  0
   -0.6523    1.9610   -4.8898 H   0  0  0  0  0  0  0  0  0  0  0  0
    0.7757   -4.0478   -5.9187 H   0  0  0  0  0  0  0  0  0  0  0  0
    1.1123   -2.3592   -6.3857 H   0  0  0  0  0  0  0  0  0  0  0  0
   -2.3843   -3.8475   -2.6647 H   0  0  0  0  0  0  0  0  0  0  0  0
  1  2  2  0
  1  3  2  0
  1  4  1  1
  1  8  1  0
  5  6  2  0
  5  7  1  1
  5  8  1  0
  5  9  1  0
  9 10  1  0
 11 10  1  0
 11 12  1  0
 11 13  1  0
 12 17  1  0
 13 14  1  0
 13 15  1  0
 15 16  1  0
 15 17  1  0
 17 18  1  0
 18 19  1  0
 18 27  1  0
 19 20  2  0
 20 21  1  0
 21 22  2  0
 21 27  1  0
 22 23  1  0
 22 24  1  0
 24 25  2  0
 25 26  1  0
 26 27  2  0
 10 28  1  0
 10 29  1  0
 11 30  1  1
 13 31  1  1
 14 32  1  0
 15 33  1  6
 16 34  1  0
 17 35  1  1
 19 36  1  0
 23 37  1  0
 23 38  1  0
 25 39  1  0
M  CHG  2   4  -1   7  -1
M  END
>  <filename_input>  (9) 
7FHA_ADX_docked.sdf

>  <pdb_id>  (9) 
7FHA_ADX

>  <pose_rank>  (9) 
8

>  <num_atoms_heavy>  (9) 
27

>  <num_torsions>  (9) 
6

>  <pose>  (9) 
[-3.523922513400453, 0.8269917400372483, -0.9751398315374209, -4.273069641167686, 0.30724963706953706, -3.9411092680867257, 9.229894079015672, -2.068078118133908, -0.7747856545248029, 2.1311129925954795, -4.7651257399326035, -0.5452837137459724]

>  <energy>  (9) 
-760.4446374100452

>  <inter_energy>  (9) 
-778.0753070381251

>  <intra_energy>  (9) 
21.092547015673482

>  <rmsd>  (9) 
1.73398

>  <sdf_rank>  (9) 
0

$$$$

     RDKit          3D

 39 41  0  0  0  0  0  0  0  0999 V2000
   -7.9707    1.7993   -0.7549 S   0  0  2  0  0  0  0  0  0  0  0  0
   -8.1039    0.9377    0.1776 O   0  0  0  0  0  0  0  0  0  0  0  0
   -8.6985    2.8166   -0.4739 O   0  0  0  0  0  0  0  0  0  0  0  0
   -8.2466    1.3237   -1.9114 O   0  0  0  0  0  0  0  0  0  0  0  0
   -5.6571    3.0285   -1.6839 P   0  0  2  0  0  0  0  0  0  0  0  0
   -4.5030    3.2690   -1.0128 O   0  0  0  0  0  0  0  0  0  0  0  0
   -6.3812    4.0849   -2.1945 O   0  0  0  0  0  0  0  0  0  0  0  0
   -6.5868    2.2965   -0.6875 O   0  0  0  0  0  0  0  0  0  0  0  0
   -5.3562    2.0032   -2.7973 O   0  0  0  0  0  0  0  0  0  0  0  0
   -5.2839    0.6179   -2.6366 C   0  0  0  0  0  0  0  0  0  0  0  0
   -3.9711    0.0970   -2.0402 C   0  0  1  0  0  0  0  0  0  0  0  0
   -4.0275   -1.2579   -1.7143 O   0  0  0  0  0  0  0  0  0  0  0  0
   -2.8096    0.2095   -3.0476 C   0  0  1  0  0  0  0  0  0  0  0  0
   -1.6355    0.4336   -2.3642 O   0  0  0  0  0  0  0  0  0  0  0  0
   -2.8384   -1.1154   -3.7569 C   0  0  1  0  0  0  0  0  0  0  0  0
   -1.6458   -1.5083   -4.3325 O   0  0  0  0  0  0  0  0  0  0  0  0
   -3.1937   -1.9783   -2.5736 C   0  0  2  0  0  0  0  0  0  0  0  0
   -3.8531   -3.2547   -2.7064 N   0  0  0  0  0  0  0  0  0  0  0  0
   -3.3067   -4.4085   -2.6701 C   0  0  0  0  0  0  0  0  0  0  0  0
   -4.1626   -5.3417   -2.9184 N   0  0  0  0  0  0  0  0  0  0  0  0
   -5.3161   -4.7807   -3.1658 C   0  0  0  0  0  0  0  0  0  0  0  0
   -6.6627   -5.1998   -3.5188 C   0  0  0  0  0  0  0  0  0  0  0  0
   -6.9597   -6.4915   -3.6871 N   0  0  0  0  0  0  0  0  0  0  0  0
   -7.5842   -4.2448   -3.6625 N   0  0  0  0  0  0  0  0  0  0  0  0
   -7.3230   -2.9692   -3.5187 C   0  0  0  0  0  0  0  0  0  0  0  0
   -6.1260   -2.5194   -3.1976 N   0  0  0  0  0  0  0  0  0  0  0  0
   -5.0998   -3.3601   -3.0297 C   0  0  0  0  0  0  0  0  0  0  0  0
   -6.1051    0.3091   -1.9731 H   0  0  0  0  0  0  0  0  0  0  0  0
   -5.3508    0.1896   -3.6476 H   0  0  0  0  0  0  0  0  0  0  0  0
   -3.8124    0.7157   -1.1447 H   0  0  0  0  0  0  0  0  0  0  0  0
   -2.8939    1.0426   -3.7610 H   0  0  0  0  0  0  0  0  0  0  0  0
   -1.8092    0.4005   -1.3901 H   0  0  0  0  0  0  0  0  0  0  0  0
   -3.5090   -1.1406   -4.6285 H   0  0  0  0  0  0  0  0  0  0  0  0
   -0.9915   -1.7239   -3.6215 H   0  0  0  0  0  0  0  0  0  0  0  0
   -2.1745   -2.2318   -2.2467 H   0  0  0  0  0  0  0  0  0  0  0  0
   -2.2424   -4.5842   -2.4548 H   0  0  0  0  0  0  0  0  0  0  0  0
   -7.9190   -6.7711   -3.9371 H   0  0  0  0  0  0  0  0  0  0  0  0
   -6.2294   -7.2078   -3.5667 H   0  0  0  0  0  0  0  0  0  0  0  0
   -8.1356   -2.2437   -3.6721 H   0  0  0  0  0  0  0  0  0  0  0  0
  1  2  2  0
  1  3  2  0
  1  4  1  6
  1  8  1  0
  5  6  2  0
  5  7  1  6
  5  8  1  0
  5  9  1  0
  9 10  1  0
 11 10  1  0
 11 12  1  0
 11 13  1  0
 12 17  1  0
 13 14  1  0
 13 15  1  0
 15 16  1  0
 15 17  1  0
 17 18  1  0
 18 19  1  0
 18 27  1  0
 19 20  2  0
 20 21  1  0
 21 22  2  0
 21 27  1  0
 22 23  1  0
 22 24  1  0
 24 25  2  0
 25 26  1  0
 26 27  2  0
 10 28  1  0
 10 29  1  0
 11 30  1  1
 13 31  1  6
 14 32  1  0
 15 33  1  6
 16 34  1  0
 17 35  1  1
 19 36  1  0
 23 37  1  0
 23 38  1  0
 25 39  1  0
M  CHG  2   4  -1   7  -1
M  END
>  <filename_input>  (10) 
7FHA_ADX_docked.sdf

>  <pdb_id>  (10) 
7FHA_ADX

>  <pose_rank>  (10) 
9

>  <num_atoms_heavy>  (10) 
27

>  <num_torsions>  (10) 
6

>  <pose>  (10) 
[-3.971115909099645, 0.0970037709270685, -2.04023547726484, 0.6918505741413453, 3.3155001753814286, 3.3593649919127593, -3.4139044867851265, -8.696589958480056, 7.985350075924872, -8.399456847112017, -0.31598458897036763, 1.3749477740313794]

>  <energy>  (10) 
-559.9875915913746

>  <inter_energy>  (10) 
-591.8031163226992

>  <intra_energy>  (10) 
35.613045297281516

>  <rmsd>  (10) 
4.81239

>  <sdf_rank>  (10) 
0

$$$$

     RDKit          3D

 39 41  0  0  0  0  0  0  0  0999 V2000
   -8.2306   -2.4634   -2.0781 S   0  0  2  0  0  0  0  0  0  0  0  0
   -7.5124   -2.4292   -3.1330 O   0  0  0  0  0  0  0  0  0  0  0  0
   -8.2340   -3.6642   -1.6289 O   0  0  0  0  0  0  0  0  0  0  0  0
   -9.4183   -2.0268   -2.2736 O   0  0  0  0  0  0  0  0  0  0  0  0
   -7.9313   -0.5107   -0.1225 P   0  0  2  0  0  0  0  0  0  0  0  0
   -8.7883   -1.0357    0.7885 O   0  0  0  0  0  0  0  0  0  0  0  0
   -8.3524    0.5150   -0.9421 O   0  0  0  0  0  0  0  0  0  0  0  0
   -7.5252   -1.6795   -1.0511 O   0  0  0  0  0  0  0  0  0  0  0  0
   -6.6397   -0.1035    0.6174 O   0  0  0  0  0  0  0  0  0  0  0  0
   -5.3482   -0.1349    0.0874 C   0  0  0  0  0  0  0  0  0  0  0  0
   -4.7282    1.2367   -0.2040 C   0  0  1  0  0  0  0  0  0  0  0  0
   -3.4367    1.1450   -0.7224 O   0  0  0  0  0  0  0  0  0  0  0  0
   -5.5279    2.0011   -1.2777 C   0  0  1  0  0  0  0  0  0  0  0  0
   -5.4459    3.3527   -1.0288 O   0  0  0  0  0  0  0  0  0  0  0  0
   -4.8598    1.5936   -2.5610 C   0  0  1  0  0  0  0  0  0  0  0  0
   -5.0048    2.4759   -3.6137 O   0  0  0  0  0  0  0  0  0  0  0  0
   -3.4401    1.5611   -2.0564 C   0  0  2  0  0  0  0  0  0  0  0  0
   -2.4095    0.7604   -2.6715 N   0  0  0  0  0  0  0  0  0  0  0  0
   -1.4635    1.1728   -3.4239 C   0  0  0  0  0  0  0  0  0  0  0  0
   -0.7698    0.1889   -3.8885 N   0  0  0  0  0  0  0  0  0  0  0  0
   -1.3007   -0.9235   -3.4558 C   0  0  0  0  0  0  0  0  0  0  0  0
   -1.0619   -2.3516   -3.5861 C   0  0  0  0  0  0  0  0  0  0  0  0
   -0.0608   -2.8163   -4.3391 N   0  0  0  0  0  0  0  0  0  0  0  0
   -1.8782   -3.1729   -2.9218 N   0  0  0  0  0  0  0  0  0  0  0  0
   -2.8771   -2.7508   -2.1869 C   0  0  0  0  0  0  0  0  0  0  0  0
   -3.1496   -1.4712   -2.0233 N   0  0  0  0  0  0  0  0  0  0  0  0
   -2.4217   -0.5312   -2.6355 C   0  0  0  0  0  0  0  0  0  0  0  0
   -4.6983   -0.6563    0.8055 H   0  0  0  0  0  0  0  0  0  0  0  0
   -5.4292   -0.6455   -0.8835 H   0  0  0  0  0  0  0  0  0  0  0  0
   -4.7313    1.7510    0.7683 H   0  0  0  0  0  0  0  0  0  0  0  0
   -6.6041    1.7751   -1.3024 H   0  0  0  0  0  0  0  0  0  0  0  0
   -5.4365    3.5083   -0.0511 H   0  0  0  0  0  0  0  0  0  0  0  0
   -5.2668    0.6723   -3.0033 H   0  0  0  0  0  0  0  0  0  0  0  0
   -5.1548    3.3887   -3.2610 H   0  0  0  0  0  0  0  0  0  0  0  0
   -3.1593    2.5970   -2.2974 H   0  0  0  0  0  0  0  0  0  0  0  0
   -1.2653    2.2315   -3.6473 H   0  0  0  0  0  0  0  0  0  0  0  0
    0.0942   -3.8313   -4.4204 H   0  0  0  0  0  0  0  0  0  0  0  0
    0.5559   -2.1595   -4.8383 H   0  0  0  0  0  0  0  0  0  0  0  0
   -3.5144   -3.4942   -1.6858 H   0  0  0  0  0  0  0  0  0  0  0  0
  1  2  2  0
  1  3  2  0
  1  4  1  6
  1  8  1  0
  5  6  2  0
  5  7  1  6
  5  8  1  0
  5  9  1  0
  9 10  1  0
 11 10  1  0
 11 12  1  0
 11 13  1  0
 12 17  1  0
 13 14  1  0
 13 15  1  0
 15 16  1  0
 15 17  1  0
 17 18  1  0
 18 19  1  0
 18 27  1  0
 19 20  2  0
 20 21  1  0
 21 22  2  0
 21 27  1  0
 22 23  1  0
 22 24  1  0
 24 25  2  0
 25 26  1  0
 26 27  2  0
 10 28  1  0
 10 29  1  0
 11 30  1  1
 13 31  1  6
 14 32  1  0
 15 33  1  6
 16 34  1  0
 17 35  1  1
 19 36  1  0
 23 37  1  0
 23 38  1  0
 25 39  1  0
M  CHG  2   4  -1   7  -1
M  END
>  <filename_input>  (11) 
7FHA_ADX_docked.sdf

>  <pdb_id>  (11) 
7FHA_ADX

>  <pose_rank>  (11) 
10

>  <num_atoms_heavy>  (11) 
27

>  <num_torsions>  (11) 
6

>  <pose>  (11) 
[-4.728165488215476, 1.2366540622968734, -0.2040453234106727, -3.7929267641134237, 2.178609565249622, -3.8359642994769194, 2.952905064185847, 4.021776366924253, 11.262374771039461, -0.9755409992043138, 4.09404453469856, 0.795994401165144]

>  <energy>  (11) 
-606.429057630672

>  <inter_energy>  (11) 
-625.5540589293386

>  <intra_energy>  (11) 
26.41780963955135

>  <rmsd>  (11) 
2.60894

>  <sdf_rank>  (11) 
0

$$$$

     RDKit          3D

 39 41  0  0  0  0  0  0  0  0999 V2000
   -8.5894   -0.0946   -0.8836 S   0  0  2  0  0  0  0  0  0  0  0  0
   -9.2445   -0.9404   -1.5801 O   0  0  0  0  0  0  0  0  0  0  0  0
   -9.4061    0.4992   -0.0936 O   0  0  0  0  0  0  0  0  0  0  0  0
   -7.9353    0.7385   -1.6033 O   0  0  0  0  0  0  0  0  0  0  0  0
   -6.3889   -1.6551   -0.2132 P   0  0  2  0  0  0  0  0  0  0  0  0
   -6.4712   -2.1845   -1.4593 O   0  0  0  0  0  0  0  0  0  0  0  0
   -6.2506   -2.4910    0.8746 O   0  0  0  0  0  0  0  0  0  0  0  0
   -7.7001   -0.8630    0.0026 O   0  0  0  0  0  0  0  0  0  0  0  0
   -5.2642   -0.5984   -0.2176 O   0  0  0  0  0  0  0  0  0  0  0  0
   -4.0000   -0.7509   -0.7908 C   0  0  0  0  0  0  0  0  0  0  0  0
   -3.2971    0.5549   -1.1795 C   0  0  1  0  0  0  0  0  0  0  0  0
   -2.0665    0.3405   -1.7997 O   0  0  0  0  0  0  0  0  0  0  0  0
   -4.1205    1.3546   -2.2087 C   0  0  1  0  0  0  0  0  0  0  0  0
   -3.9073    2.7008   -2.0139 O   0  0  0  0  0  0  0  0  0  0  0  0
   -3.6000    0.8573   -3.5283 C   0  0  1  0  0  0  0  0  0  0  0  0
   -3.7618    1.7197   -4.5950 O   0  0  0  0  0  0  0  0  0  0  0  0
   -2.1498    0.7190   -3.1422 C   0  0  2  0  0  0  0  0  0  0  0  0
   -1.2445   -0.1823   -3.8129 N   0  0  0  0  0  0  0  0  0  0  0  0
   -0.3150    0.1310   -4.6307 C   0  0  0  0  0  0  0  0  0  0  0  0
    0.2479   -0.9188   -5.1268 N   0  0  0  0  0  0  0  0  0  0  0  0
   -0.3582   -1.9713   -4.6460 C   0  0  0  0  0  0  0  0  0  0  0  0
   -0.2678   -3.4168   -4.7729 C   0  0  0  0  0  0  0  0  0  0  0  0
    0.6316   -3.9816   -5.5836 N   0  0  0  0  0  0  0  0  0  0  0  0
   -1.1139   -4.1502   -4.0462 N   0  0  0  0  0  0  0  0  0  0  0  0
   -2.0163   -3.6280   -3.2531 C   0  0  0  0  0  0  0  0  0  0  0  0
   -2.1524   -2.3269   -3.0888 N   0  0  0  0  0  0  0  0  0  0  0  0
   -1.3792   -1.4664   -3.7593 C   0  0  0  0  0  0  0  0  0  0  0  0
   -3.3606   -1.2796   -0.0686 H   0  0  0  0  0  0  0  0  0  0  0  0
   -4.1551   -1.3047   -1.7286 H   0  0  0  0  0  0  0  0  0  0  0  0
   -3.1751    1.0940   -0.2284 H   0  0  0  0  0  0  0  0  0  0  0  0
   -5.2098    1.2196   -2.1363 H   0  0  0  0  0  0  0  0  0  0  0  0
   -3.8768    2.8930   -1.0433 H   0  0  0  0  0  0  0  0  0  0  0  0
   -4.1174   -0.0380   -3.9034 H   0  0  0  0  0  0  0  0  0  0  0  0
   -3.9334    2.6343   -4.2569 H   0  0  0  0  0  0  0  0  0  0  0  0
   -1.8069    1.7205   -3.4410 H   0  0  0  0  0  0  0  0  0  0  0  0
   -0.0306    1.1639   -4.8804 H   0  0  0  0  0  0  0  0  0  0  0  0
    0.6820   -5.0074   -5.6616 H   0  0  0  0  0  0  0  0  0  0  0  0
    1.2744   -3.3913   -6.1305 H   0  0  0  0  0  0  0  0  0  0  0  0
   -2.6880   -4.3025   -2.7019 H   0  0  0  0  0  0  0  0  0  0  0  0
  1  2  2  0
  1  3  2  0
  1  4  1  6
  1  8  1  0
  5  6  2  0
  5  7  1  1
  5  8  1  0
  5  9  1  0
  9 10  1  0
 11 10  1  0
 11 12  1  0
 11 13  1  0
 12 17  1  0
 13 14  1  0
 13 15  1  0
 15 16  1  0
 15 17  1  0
 17 18  1  0
 18 19  1  0
 18 27  1  0
 19 20  2  0
 20 21  1  0
 21 22  2  0
 21 27  1  0
 22 23  1  0
 22 24  1  0
 24 25  2  0
 25 26  1  0
 26 27  2  0
 10 28  1  0
 10 29  1  0
 11 30  1  1
 13 31  1  6
 14 32  1  0
 15 33  1  6
 16 34  1  0
 17 35  1  1
 19 36  1  0
 23 37  1  0
 23 38  1  0
 25 39  1  0
M  CHG  2   4  -1   7  -1
M  END
>  <filename_input>  (12) 
7FHA_ADX_docked.sdf

>  <pdb_id>  (12) 
7FHA_ADX

>  <pose_rank>  (12) 
11

>  <num_atoms_heavy>  (12) 
27

>  <num_torsions>  (12) 
6

>  <pose>  (12) 
[-3.2971275355293166, 0.5549243465711436, -1.179477389383334, -4.512955447947728, 1.6061442939282626, -3.4776666093668975, 9.267333918134149, -2.2079924002729308, -0.4806805610680827, 1.9506032805983786, -3.994675339144539, -0.13229740808455093]

>  <energy>  (12) 
-749.706138888107

>  <inter_energy>  (12) 
-758.4289833822265

>  <intra_energy>  (12) 
18.136661280862597

>  <rmsd>  (12) 
1.87998

>  <sdf_rank>  (12) 
0

$$$$

     RDKit          3D

 39 41  0  0  0  0  0  0  0  0999 V2000
   -0.7113   -6.5381   -6.6530 S   0  0  2  0  0  0  0  0  0  0  0  0
   -1.2565   -6.3188   -7.7863 O   0  0  0  0  0  0  0  0  0  0  0  0
    0.4710   -6.9918   -6.8530 O   0  0  0  0  0  0  0  0  0  0  0  0
   -1.4023   -7.3240   -5.9150 O   0  0  0  0  0  0  0  0  0  0  0  0
   -0.2793   -4.7694   -4.5526 P   0  0  2  0  0  0  0  0  0  0  0  0
    0.9480   -4.1921   -4.5292 O   0  0  0  0  0  0  0  0  0  0  0  0
   -0.5335   -5.8624   -3.7515 O   0  0  0  0  0  0  0  0  0  0  0  0
   -0.5084   -5.2287   -6.0119 O   0  0  0  0  0  0  0  0  0  0  0  0
   -1.3292   -3.6676   -4.2970 O   0  0  0  0  0  0  0  0  0  0  0  0
   -1.1116   -2.4743   -3.6051 C   0  0  0  0  0  0  0  0  0  0  0  0
   -1.7303   -1.2260   -4.2451 C   0  0  1  0  0  0  0  0  0  0  0  0
   -3.0892   -1.0923   -3.9613 O   0  0  0  0  0  0  0  0  0  0  0  0
   -1.0875    0.0651   -3.7005 C   0  0  1  0  0  0  0  0  0  0  0  0
   -1.0908    1.0254   -4.6871 O   0  0  0  0  0  0  0  0  0  0  0  0
   -1.9602    0.4172   -2.5284 C   0  0  1  0  0  0  0  0  0  0  0  0
   -1.9571    1.7492   -2.1631 O   0  0  0  0  0  0  0  0  0  0  0  0
   -3.2834    0.0084   -3.1227 C   0  0  2  0  0  0  0  0  0  0  0  0
   -4.4202   -0.3663   -2.3171 N   0  0  0  0  0  0  0  0  0  0  0  0
   -4.8618   -1.5474   -2.1149 C   0  0  0  0  0  0  0  0  0  0  0  0
   -5.9526   -1.5295   -1.4256 N   0  0  0  0  0  0  0  0  0  0  0  0
   -6.2667   -0.2831   -1.1930 C   0  0  0  0  0  0  0  0  0  0  0  0
   -7.3245    0.4523   -0.5194 C   0  0  0  0  0  0  0  0  0  0  0  0
   -8.3424   -0.1863    0.0648 N   0  0  0  0  0  0  0  0  0  0  0  0
   -7.2332    1.7840   -0.5064 N   0  0  0  0  0  0  0  0  0  0  0  0
   -6.2567    2.4412   -1.0813 C   0  0  0  0  0  0  0  0  0  0  0  0
   -5.2648    1.8388   -1.7071 N   0  0  0  0  0  0  0  0  0  0  0  0
   -5.2268    0.5060   -1.8089 C   0  0  0  0  0  0  0  0  0  0  0  0
   -1.5346   -2.5843   -2.5957 H   0  0  0  0  0  0  0  0  0  0  0  0
   -0.0236   -2.3125   -3.6106 H   0  0  0  0  0  0  0  0  0  0  0  0
   -1.5598   -1.3580   -5.3237 H   0  0  0  0  0  0  0  0  0  0  0  0
   -0.0354   -0.0341   -3.3952 H   0  0  0  0  0  0  0  0  0  0  0  0
   -1.0938    1.9244   -4.2726 H   0  0  0  0  0  0  0  0  0  0  0  0
   -1.6540   -0.0586   -1.5850 H   0  0  0  0  0  0  0  0  0  0  0  0
   -1.9569    1.8206   -1.1756 H   0  0  0  0  0  0  0  0  0  0  0  0
   -3.5688    0.9756   -3.5620 H   0  0  0  0  0  0  0  0  0  0  0  0
   -4.3747   -2.4630   -2.4814 H   0  0  0  0  0  0  0  0  0  0  0  0
   -9.0836    0.3502    0.5377 H   0  0  0  0  0  0  0  0  0  0  0  0
   -8.3859   -1.2151    0.0422 H   0  0  0  0  0  0  0  0  0  0  0  0
   -6.2646    3.5404   -1.0403 H   0  0  0  0  0  0  0  0  0  0  0  0
  1  2  2  0
  1  3  2  0
  1  4  1  1
  1  8  1  0
  5  6  2  0
  5  7  1  1
  5  8  1  0
  5  9  1  0
  9 10  1  0
 11 10  1  0
 11 12  1  0
 11 13  1  0
 12 17  1  0
 13 14  1  0
 13 15  1  0
 15 16  1  0
 15 17  1  0
 17 18  1  0
 18 19  1  0
 18 27  1  0
 19 20  2  0
 20 21  1  0
 21 22  2  0
 21 27  1  0
 22 23  1  0
 22 24  1  0
 24 25  2  0
 25 26  1  0
 26 27  2  0
 10 28  1  0
 10 29  1  0
 11 30  1  6
 13 31  1  1
 14 32  1  0
 15 33  1  1
 16 34  1  0
 17 35  1  6
 19 36  1  0
 23 37  1  0
 23 38  1  0
 25 39  1  0
M  CHG  2   4  -1   7  -1
M  END
>  <filename_input>  (13) 
7FHA_ADX_docked.sdf

>  <pdb_id>  (13) 
7FHA_ADX

>  <pose_rank>  (13) 
12

>  <num_atoms_heavy>  (13) 
27

>  <num_torsions>  (13) 
6

>  <pose>  (13) 
[-1.7302622812033122, -1.2260152714623724, -4.245051506090677, 0.3362200824459363, 2.4356878118382146, -1.1761138205411863, -0.6912013574940845, 2.297206515576785, -0.8063598595057102, 2.285246538030121, -1.366386840599017, 1.3622252849169434]

>  <energy>  (13) 
-609.5106625293671

>  <inter_energy>  (13) 
-625.1487432864847

>  <intra_energy>  (13) 
13.589787088853608

>  <rmsd>  (13) 
7.58265

>  <sdf_rank>  (13) 
0

$$$$

     RDKit          3D

 39 41  0  0  0  0  0  0  0  0999 V2000
    0.1937   -0.3590   -4.6235 S   0  0  2  0  0  0  0  0  0  0  0  0
    0.0737   -1.2272   -5.5517 O   0  0  0  0  0  0  0  0  0  0  0  0
    0.0177    0.8047   -5.1319 O   0  0  0  0  0  0  0  0  0  0  0  0
    1.3137   -0.4434   -4.0086 O   0  0  0  0  0  0  0  0  0  0  0  0
   -2.2398   -1.3898   -3.7620 P   0  0  2  0  0  0  0  0  0  0  0  0
   -1.8484   -2.6849   -3.6650 O   0  0  0  0  0  0  0  0  0  0  0  0
   -2.9372   -0.9703   -4.8750 O   0  0  0  0  0  0  0  0  0  0  0  0
   -0.9443   -0.5461   -3.7087 O   0  0  0  0  0  0  0  0  0  0  0  0
   -3.0195   -1.0302   -2.4797 O   0  0  0  0  0  0  0  0  0  0  0  0
   -2.8209    0.1059   -1.6924 C   0  0  0  0  0  0  0  0  0  0  0  0
   -3.1341    1.4400   -2.3798 C   0  0  1  0  0  0  0  0  0  0  0  0
   -4.4940    1.6051   -2.6414 O   0  0  0  0  0  0  0  0  0  0  0  0
   -2.7591    2.6379   -1.4848 C   0  0  1  0  0  0  0  0  0  0  0  0
   -2.3701    3.6937   -2.2784 O   0  0  0  0  0  0  0  0  0  0  0  0
   -4.0248    2.9068   -0.7199 C   0  0  1  0  0  0  0  0  0  0  0  0
   -4.1658    4.1927   -0.2359 O   0  0  0  0  0  0  0  0  0  0  0  0
   -5.0040    2.6214   -1.8294 C   0  0  2  0  0  0  0  0  0  0  0  0
   -6.3674    2.2177   -1.5845 N   0  0  0  0  0  0  0  0  0  0  0  0
   -7.3550    2.9781   -1.3061 C   0  0  0  0  0  0  0  0  0  0  0  0
   -8.4178    2.2929   -1.0492 N   0  0  0  0  0  0  0  0  0  0  0  0
   -8.1125    1.0249   -1.1242 C   0  0  0  0  0  0  0  0  0  0  0  0
   -8.7804   -0.2547   -0.9507 C   0  0  0  0  0  0  0  0  0  0  0  0
  -10.0689   -0.3169   -0.6028 N   0  0  0  0  0  0  0  0  0  0  0  0
   -8.0565   -1.3571   -1.1567 N   0  0  0  0  0  0  0  0  0  0  0  0
   -6.7885   -1.3312   -1.4845 C   0  0  0  0  0  0  0  0  0  0  0  0
   -6.1215   -0.2075   -1.6601 N   0  0  0  0  0  0  0  0  0  0  0  0
   -6.7144    0.9774   -1.4797 C   0  0  0  0  0  0  0  0  0  0  0  0
   -3.4647    0.0213   -0.8045 H   0  0  0  0  0  0  0  0  0  0  0  0
   -1.7468    0.1293   -1.4561 H   0  0  0  0  0  0  0  0  0  0  0  0
   -2.5499    1.4120   -3.3114 H   0  0  0  0  0  0  0  0  0  0  0  0
   -1.9143    2.4604   -0.8030 H   0  0  0  0  0  0  0  0  0  0  0  0
   -2.0908    4.4515   -1.7058 H   0  0  0  0  0  0  0  0  0  0  0  0
   -4.1182    2.3232    0.2078 H   0  0  0  0  0  0  0  0  0  0  0  0
   -4.1639    4.1749    0.7539 H   0  0  0  0  0  0  0  0  0  0  0  0
   -5.0911    3.6406   -2.2340 H   0  0  0  0  0  0  0  0  0  0  0  0
   -7.3059    4.0769   -1.2878 H   0  0  0  0  0  0  0  0  0  0  0  0
  -10.5267   -1.2320   -0.4841 H   0  0  0  0  0  0  0  0  0  0  0  0
  -10.6045    0.5501   -0.4533 H   0  0  0  0  0  0  0  0  0  0  0  0
   -6.2586   -2.2857   -1.6188 H   0  0  0  0  0  0  0  0  0  0  0  0
  1  2  2  0
  1  3  2  0
  1  4  1  1
  1  8  1  0
  5  6  2  0
  5  7  1  6
  5  8  1  0
  5  9  1  0
  9 10  1  0
 11 10  1  0
 11 12  1  0
 11 13  1  0
 12 17  1  0
 13 14  1  0
 13 15  1  0
 15 16  1  0
 15 17  1  0
 17 18  1  0
 18 19  1  0
 18 27  1  0
 19 20  2  0
 20 21  1  0
 21 22  2  0
 21 27  1  0
 22 23  1  0
 22 24  1  0
 24 25  2  0
 25 26  1  0
 26 27  2  0
 10 28  1  0
 10 29  1  0
 11 30  1  6
 13 31  1  1
 14 32  1  0
 15 33  1  1
 16 34  1  0
 17 35  1  6
 19 36  1  0
 23 37  1  0
 23 38  1  0
 25 39  1  0
M  CHG  2   4  -1   7  -1
M  END
>  <filename_input>  (14) 
7FHA_ADX_docked.sdf

>  <pdb_id>  (14) 
7FHA_ADX

>  <pose_rank>  (14) 
13

>  <num_atoms_heavy>  (14) 
27

>  <num_torsions>  (14) 
6

>  <pose>  (14) 
[-3.1340979779332407, 1.4399737829913275, -2.3798012801987474, -0.9416788371034004, -3.494700652049065, 1.434630708002171, 2.5562176241960604, 2.073961584802298, -2.074684501369143, -1.2473106375539647, 4.067702451530061, -1.593847893034158]

>  <energy>  (14) 
-642.4275618385427

>  <inter_energy>  (14) 
-662.9592244462714

>  <intra_energy>  (14) 
40.47828825859491

>  <rmsd>  (14) 
6.99313

>  <sdf_rank>  (14) 
0

$$$$

     RDKit          3D

 39 41  0  0  0  0  0  0  0  0999 V2000
    0.3416   -0.3870   -5.4382 S   0  0  2  0  0  0  0  0  0  0  0  0
    1.1486   -1.3124   -5.0889 O   0  0  0  0  0  0  0  0  0  0  0  0
    0.1334   -0.4854   -6.6993 O   0  0  0  0  0  0  0  0  0  0  0  0
    0.7576    0.7803   -5.1158 O   0  0  0  0  0  0  0  0  0  0  0  0
   -1.4803   -0.6940   -3.3613 P   0  0  2  0  0  0  0  0  0  0  0  0
   -1.9029    0.5706   -3.1123 O   0  0  0  0  0  0  0  0  0  0  0  0
   -0.4817   -1.2439   -2.5858 O   0  0  0  0  0  0  0  0  0  0  0  0
   -0.9579   -0.6917   -4.8174 O   0  0  0  0  0  0  0  0  0  0  0  0
   -2.7170   -1.6171   -3.3679 O   0  0  0  0  0  0  0  0  0  0  0  0
   -2.7244   -2.9779   -3.0546 C   0  0  0  0  0  0  0  0  0  0  0  0
   -3.8188   -3.4167   -2.0748 C   0  0  1  0  0  0  0  0  0  0  0  0
   -4.5084   -2.3392   -1.5193 O   0  0  0  0  0  0  0  0  0  0  0  0
   -4.9040   -4.2551   -2.7791 C   0  0  1  0  0  0  0  0  0  0  0  0
   -5.4144   -5.1757   -1.8916 O   0  0  0  0  0  0  0  0  0  0  0  0
   -5.9111   -3.2253   -3.2087 C   0  0  1  0  0  0  0  0  0  0  0  0
   -7.1969   -3.6929   -3.3980 O   0  0  0  0  0  0  0  0  0  0  0  0
   -5.8197   -2.3274   -2.0018 C   0  0  2  0  0  0  0  0  0  0  0  0
   -6.1615   -0.9262   -2.0417 N   0  0  0  0  0  0  0  0  0  0  0  0
   -5.4698    0.0184   -2.5519 C   0  0  0  0  0  0  0  0  0  0  0  0
   -6.0126    1.1686   -2.3342 N   0  0  0  0  0  0  0  0  0  0  0  0
   -7.0892    0.9817   -1.6183 C   0  0  0  0  0  0  0  0  0  0  0  0
   -8.1379    1.7918   -1.0203 C   0  0  0  0  0  0  0  0  0  0  0  0
   -8.1303    3.1228   -1.1370 N   0  0  0  0  0  0  0  0  0  0  0  0
   -9.1043    1.1523   -0.3579 N   0  0  0  0  0  0  0  0  0  0  0  0
   -9.1337   -0.1493   -0.2130 C   0  0  0  0  0  0  0  0  0  0  0  0
   -8.2174   -0.9440   -0.7298 N   0  0  0  0  0  0  0  0  0  0  0  0
   -7.1825   -0.4441   -1.4133 C   0  0  0  0  0  0  0  0  0  0  0  0
   -2.8588   -3.5416   -3.9896 H   0  0  0  0  0  0  0  0  0  0  0  0
   -1.7667   -3.1806   -2.5529 H   0  0  0  0  0  0  0  0  0  0  0  0
   -3.2824   -3.9871   -1.3022 H   0  0  0  0  0  0  0  0  0  0  0  0
   -4.5497   -4.8448   -3.6375 H   0  0  0  0  0  0  0  0  0  0  0  0
   -5.2450   -4.8701   -0.9653 H   0  0  0  0  0  0  0  0  0  0  0  0
   -5.7034   -2.7814   -4.1936 H   0  0  0  0  0  0  0  0  0  0  0  0
   -7.6243   -3.8483   -2.5186 H   0  0  0  0  0  0  0  0  0  0  0  0
   -6.6186   -2.7848   -1.3995 H   0  0  0  0  0  0  0  0  0  0  0  0
   -4.5312   -0.1296   -3.1061 H   0  0  0  0  0  0  0  0  0  0  0  0
   -8.8812    3.6817   -0.7071 H   0  0  0  0  0  0  0  0  0  0  0  0
   -7.3737    3.5900   -1.6567 H   0  0  0  0  0  0  0  0  0  0  0  0
   -9.9565   -0.5975    0.3634 H   0  0  0  0  0  0  0  0  0  0  0  0
  1  2  2  0
  1  3  2  0
  1  4  1  6
  1  8  1  0
  5  6  2  0
  5  7  1  1
  5  8  1  0
  5  9  1  0
  9 10  1  0
 11 10  1  0
 11 12  1  0
 11 13  1  0
 12 17  1  0
 13 14  1  0
 13 15  1  0
 15 16  1  0
 15 17  1  0
 17 18  1  0
 18 19  1  0
 18 27  1  0
 19 20  2  0
 20 21  1  0
 21 22  2  0
 21 27  1  0
 22 23  1  0
 22 24  1  0
 24 25  2  0
 25 26  1  0
 26 27  2  0
 10 28  1  0
 10 29  1  0
 11 30  1  1
 13 31  1  6
 14 32  1  0
 15 33  1  6
 16 34  1  0
 17 35  1  1
 19 36  1  0
 23 37  1  0
 23 38  1  0
 25 39  1  0
M  CHG  2   4  -1   7  -1
M  END
>  <filename_input>  (15) 
7FHA_ADX_docked.sdf

>  <pdb_id>  (15) 
7FHA_ADX

>  <pose_rank>  (15) 
14

>  <num_atoms_heavy>  (15) 
27

>  <num_torsions>  (15) 
6

>  <pose>  (15) 
[-3.818838321486002, -3.4167409759296197, -2.0747892265786434, 1.7016509343243318, 0.28966922568952547, 2.1421049291760035, -19.03118414842884, 19.590830637183345, -13.461124972500754, 18.918868641774957, -8.176542463793567, -0.23152791086867514]

>  <energy>  (15) 
-630.0279466097353

>  <inter_energy>  (15) 
-635.6348309896903

>  <intra_energy>  (15) 
8.401606596776098

>  <rmsd>  (15) 
7.67076

>  <sdf_rank>  (15) 
0

$$$$

     RDKit          3D

 39 41  0  0  0  0  0  0  0  0999 V2000
   -0.0864   -0.9202   -5.3870 S   0  0  2  0  0  0  0  0  0  0  0  0
    1.0127   -0.8424   -4.7424 O   0  0  0  0  0  0  0  0  0  0  0  0
    0.1296   -1.5517   -6.4817 O   0  0  0  0  0  0  0  0  0  0  0  0
   -0.6190    0.2251   -5.5974 O   0  0  0  0  0  0  0  0  0  0  0  0
   -0.7906   -3.1576   -3.8953 P   0  0  2  0  0  0  0  0  0  0  0  0
   -0.0031   -2.9068   -2.8197 O   0  0  0  0  0  0  0  0  0  0  0  0
   -0.3700   -4.0557   -4.8532 O   0  0  0  0  0  0  0  0  0  0  0  0
   -0.9777   -1.8006   -4.6142 O   0  0  0  0  0  0  0  0  0  0  0  0
   -2.1916   -3.5481   -3.3796 O   0  0  0  0  0  0  0  0  0  0  0  0
   -3.2618   -2.6744   -3.1760 C   0  0  0  0  0  0  0  0  0  0  0  0
   -4.3374   -3.1742   -2.2045 C   0  0  1  0  0  0  0  0  0  0  0  0
   -4.6888   -2.2183   -1.2515 O   0  0  0  0  0  0  0  0  0  0  0  0
   -5.6539   -3.4985   -2.9380 C   0  0  1  0  0  0  0  0  0  0  0  0
   -6.2920   -4.5326   -2.2905 O   0  0  0  0  0  0  0  0  0  0  0  0
   -6.4125   -2.2024   -2.8750 C   0  0  1  0  0  0  0  0  0  0  0  0
   -7.7853   -2.3104   -2.9816 O   0  0  0  0  0  0  0  0  0  0  0  0
   -5.9953   -1.7833   -1.4888 C   0  0  2  0  0  0  0  0  0  0  0  0
   -5.9855   -0.4064   -1.0577 N   0  0  0  0  0  0  0  0  0  0  0  0
   -6.7003    0.1147   -0.1366 C   0  0  0  0  0  0  0  0  0  0  0  0
   -6.5190    1.3904   -0.0662 N   0  0  0  0  0  0  0  0  0  0  0  0
   -5.6770    1.7341   -1.0039 C   0  0  0  0  0  0  0  0  0  0  0  0
   -5.0550    2.9518   -1.4979 C   0  0  0  0  0  0  0  0  0  0  0  0
   -5.3326    4.1380   -0.9493 N   0  0  0  0  0  0  0  0  0  0  0  0
   -4.1971    2.8335   -2.5138 N   0  0  0  0  0  0  0  0  0  0  0  0
   -3.9139    1.6882   -3.0832 C   0  0  0  0  0  0  0  0  0  0  0  0
   -4.4392    0.5462   -2.6853 N   0  0  0  0  0  0  0  0  0  0  0  0
   -5.3230    0.5103   -1.6825 C   0  0  0  0  0  0  0  0  0  0  0  0
   -2.8594   -1.7297   -2.7814 H   0  0  0  0  0  0  0  0  0  0  0  0
   -3.7581   -2.5674   -4.1518 H   0  0  0  0  0  0  0  0  0  0  0  0
   -3.8895   -4.0611   -1.7324 H   0  0  0  0  0  0  0  0  0  0  0  0
   -5.5339   -3.8370   -3.9778 H   0  0  0  0  0  0  0  0  0  0  0  0
   -6.2144   -4.4068   -1.3116 H   0  0  0  0  0  0  0  0  0  0  0  0
   -6.1921   -1.5153   -3.7053 H   0  0  0  0  0  0  0  0  0  0  0  0
   -8.1852   -2.3419   -2.0765 H   0  0  0  0  0  0  0  0  0  0  0  0
   -6.8242   -2.2381   -0.9264 H   0  0  0  0  0  0  0  0  0  0  0  0
   -7.3833   -0.4515    0.5138 H   0  0  0  0  0  0  0  0  0  0  0  0
   -4.8829    4.9909   -1.3116 H   0  0  0  0  0  0  0  0  0  0  0  0
   -5.9963    4.1995   -0.1640 H   0  0  0  0  0  0  0  0  0  0  0  0
   -3.2090    1.6789   -3.9276 H   0  0  0  0  0  0  0  0  0  0  0  0
  1  2  2  0
  1  3  2  0
  1  4  1  6
  1  8  1  0
  5  6  2  0
  5  7  1  6
  5  8  1  0
  5  9  1  0
  9 10  1  0
 11 10  1  0
 11 12  1  0
 11 13  1  0
 12 17  1  0
 13 14  1  0
 13 15  1  0
 15 16  1  0
 15 17  1  0
 17 18  1  0
 18 19  1  0
 18 27  1  0
 19 20  2  0
 20 21  1  0
 21 22  2  0
 21 27  1  0
 22 23  1  0
 22 24  1  0
 24 25  2  0
 25 26  1  0
 26 27  2  0
 10 28  1  0
 10 29  1  0
 11 30  1  1
 13 31  1  6
 14 32  1  0
 15 33  1  6
 16 34  1  0
 17 35  1  1
 19 36  1  0
 23 37  1  0
 23 38  1  0
 25 39  1  0
M  CHG  2   4  -1   7  -1
M  END
>  <filename_input>  (16) 
7FHA_ADX_docked.sdf

>  <pdb_id>  (16) 
7FHA_ADX

>  <pose_rank>  (16) 
15

>  <num_atoms_heavy>  (16) 
27

>  <num_torsions>  (16) 
6

>  <pose>  (16) 
[-4.337381764918223, -3.174167541628635, -2.204458978227504, 1.9431902378400217, -0.21768896358841933, 1.9902027982244757, -3.126032314454575, 22.038408124055444, 38.01860124481089, 35.76329447033391, 16.651846919842097, -2.2114293770427285]

>  <energy>  (16) 
-618.3403859402447

>  <inter_energy>  (16) 
-631.0285997522965

>  <intra_energy>  (16) 
17.789146888673073

>  <rmsd>  (16) 
6.9036

>  <sdf_rank>  (16) 
0

$$$$

     RDKit          3D

 39 41  0  0  0  0  0  0  0  0999 V2000
    0.3937   -2.3817   -4.5378 S   0  0  2  0  0  0  0  0  0  0  0  0
    1.4407   -1.8363   -4.0520 O   0  0  0  0  0  0  0  0  0  0  0  0
   -0.3380   -2.7902   -3.5676 O   0  0  0  0  0  0  0  0  0  0  0  0
    0.6633   -3.3265   -5.3590 O   0  0  0  0  0  0  0  0  0  0  0  0
   -0.3323    0.2323   -5.1437 P   0  0  2  0  0  0  0  0  0  0  0  0
   -0.3014    0.6347   -6.4388 O   0  0  0  0  0  0  0  0  0  0  0  0
    0.7058    0.5682   -4.3008 O   0  0  0  0  0  0  0  0  0  0  0  0
   -0.3915   -1.3132   -5.1772 O   0  0  0  0  0  0  0  0  0  0  0  0
   -1.6772    0.6838   -4.5364 O   0  0  0  0  0  0  0  0  0  0  0  0
   -1.8358    1.4998   -3.4143 C   0  0  0  0  0  0  0  0  0  0  0  0
   -3.2871    1.8280   -3.0451 C   0  0  1  0  0  0  0  0  0  0  0  0
   -4.1404    0.7343   -3.1893 O   0  0  0  0  0  0  0  0  0  0  0  0
   -3.4151    2.2320   -1.5629 C   0  0  1  0  0  0  0  0  0  0  0  0
   -4.4364    3.1454   -1.4274 O   0  0  0  0  0  0  0  0  0  0  0  0
   -3.6927    0.9262   -0.8720 C   0  0  1  0  0  0  0  0  0  0  0  0
   -4.3457    1.0220    0.3413 O   0  0  0  0  0  0  0  0  0  0  0  0
   -4.5747    0.3138   -1.9295 C   0  0  2  0  0  0  0  0  0  0  0  0
   -4.7422   -1.1115   -2.0789 N   0  0  0  0  0  0  0  0  0  0  0  0
   -3.8299   -2.0027   -2.0130 C   0  0  0  0  0  0  0  0  0  0  0  0
   -4.2965   -3.1740   -2.2880 N   0  0  0  0  0  0  0  0  0  0  0  0
   -5.5625   -3.0484   -2.5845 C   0  0  0  0  0  0  0  0  0  0  0  0
   -6.6637   -3.9079   -2.9871 C   0  0  0  0  0  0  0  0  0  0  0  0
   -6.4851   -5.2210   -3.1576 N   0  0  0  0  0  0  0  0  0  0  0  0
   -7.8539   -3.3329   -3.1737 N   0  0  0  0  0  0  0  0  0  0  0  0
   -8.0594   -2.0473   -3.0288 C   0  0  0  0  0  0  0  0  0  0  0  0
   -7.1077   -1.2108   -2.6642 N   0  0  0  0  0  0  0  0  0  0  0  0
   -5.8603   -1.6424   -2.4501 C   0  0  0  0  0  0  0  0  0  0  0  0
   -1.3731    0.9912   -2.5557 H   0  0  0  0  0  0  0  0  0  0  0  0
   -1.3604    2.4594   -3.6653 H   0  0  0  0  0  0  0  0  0  0  0  0
   -3.5661    2.6434   -3.7288 H   0  0  0  0  0  0  0  0  0  0  0  0
   -2.5274    2.7238   -1.1383 H   0  0  0  0  0  0  0  0  0  0  0  0
   -4.6127    3.3030   -0.4661 H   0  0  0  0  0  0  0  0  0  0  0  0
   -2.7871    0.3750   -0.5788 H   0  0  0  0  0  0  0  0  0  0  0  0
   -3.6904    0.9259    1.0772 H   0  0  0  0  0  0  0  0  0  0  0  0
   -5.5467    0.6633   -1.5513 H   0  0  0  0  0  0  0  0  0  0  0  0
   -2.7804   -1.7981   -1.7549 H   0  0  0  0  0  0  0  0  0  0  0  0
   -7.2763   -5.8156   -3.4432 H   0  0  0  0  0  0  0  0  0  0  0  0
   -5.5563   -5.6387   -3.0036 H   0  0  0  0  0  0  0  0  0  0  0  0
   -9.0671   -1.6494   -3.2192 H   0  0  0  0  0  0  0  0  0  0  0  0
  1  2  2  0
  1  3  2  0
  1  4  1  6
  1  8  1  0
  5  6  2  0
  5  7  1  1
  5  8  1  0
  5  9  1  0
  9 10  1  0
 11 10  1  0
 11 12  1  0
 11 13  1  0
 12 17  1  0
 13 14  1  0
 13 15  1  0
 15 16  1  0
 15 17  1  0
 17 18  1  0
 18 19  1  0
 18 27  1  0
 19 20  2  0
 20 21  1  0
 21 22  2  0
 21 27  1  0
 22 23  1  0
 22 24  1  0
 24 25  2  0
 25 26  1  0
 26 27  2  0
 10 28  1  0
 10 29  1  0
 11 30  1  6
 13 31  1  1
 14 32  1  0
 15 33  1  1
 16 34  1  0
 17 35  1  1
 19 36  1  0
 23 37  1  0
 23 38  1  0
 25 39  1  0
M  CHG  2   4  -1   7  -1
M  END
>  <filename_input>  (17) 
7FHA_ADX_docked.sdf

>  <pdb_id>  (17) 
7FHA_ADX

>  <pose_rank>  (17) 
16

>  <num_atoms_heavy>  (17) 
27

>  <num_torsions>  (17) 
6

>  <pose>  (17) 
[-3.287117437807238, 1.8280401266974458, -3.0451384940912125, -0.514404369478832, 2.567445786559399, 0.3811145987275464, 0.39089828686290007, 1.5906409520983091, -0.08612121720654553, -5.689081095053236, -1.181929059343151, -1.6570276686446443]

>  <energy>  (17) 
-597.3428322899186

>  <inter_energy>  (17) 
-615.5490065189942

>  <intra_energy>  (17) 
22.884920881476106

>  <rmsd>  (17) 
6.69127

>  <sdf_rank>  (17) 
0

$$$$

     RDKit          3D

 39 41  0  0  0  0  0  0  0  0999 V2000
   -8.5537    3.7744   -1.8296 S   0  0  2  0  0  0  0  0  0  0  0  0
   -9.1104    4.2010   -0.7630 O   0  0  0  0  0  0  0  0  0  0  0  0
   -8.0845    4.7798   -2.4720 O   0  0  0  0  0  0  0  0  0  0  0  0
   -9.3441    3.0751   -2.5549 O   0  0  0  0  0  0  0  0  0  0  0  0
   -5.9226    3.3847   -1.0219 P   0  0  2  0  0  0  0  0  0  0  0  0
   -5.9544    3.6427    0.3095 O   0  0  0  0  0  0  0  0  0  0  0  0
   -5.5209    4.3710   -1.8976 O   0  0  0  0  0  0  0  0  0  0  0  0
   -7.3686    3.0041   -1.4186 O   0  0  0  0  0  0  0  0  0  0  0  0
   -5.0849    2.1072   -1.2399 O   0  0  0  0  0  0  0  0  0  0  0  0
   -5.4563    0.8122   -0.8726 C   0  0  0  0  0  0  0  0  0  0  0  0
   -5.6786   -0.1590   -2.0378 C   0  0  1  0  0  0  0  0  0  0  0  0
   -4.7622    0.0229   -3.0733 O   0  0  0  0  0  0  0  0  0  0  0  0
   -5.4857   -1.6236   -1.5967 C   0  0  1  0  0  0  0  0  0  0  0  0
   -6.3191   -2.4339   -2.3347 O   0  0  0  0  0  0  0  0  0  0  0  0
   -4.0278   -1.8748   -1.8624 C   0  0  1  0  0  0  0  0  0  0  0  0
   -3.6766   -3.1971   -2.0520 O   0  0  0  0  0  0  0  0  0  0  0  0
   -3.9079   -1.0810   -3.1378 C   0  0  2  0  0  0  0  0  0  0  0  0
   -2.6587   -0.5256   -3.5989 N   0  0  0  0  0  0  0  0  0  0  0  0
   -2.4318    0.6885   -3.9238 C   0  0  0  0  0  0  0  0  0  0  0  0
   -1.2362    0.8354   -4.3867 N   0  0  0  0  0  0  0  0  0  0  0  0
   -0.6595   -0.3366   -4.4038 C   0  0  0  0  0  0  0  0  0  0  0  0
    0.6229   -0.8991   -4.7942 C   0  0  0  0  0  0  0  0  0  0  0  0
    1.5837   -0.1283   -5.3119 N   0  0  0  0  0  0  0  0  0  0  0  0
    0.7992   -2.2095   -4.6104 N   0  0  0  0  0  0  0  0  0  0  0  0
   -0.1265   -2.9953   -4.1190 C   0  0  0  0  0  0  0  0  0  0  0  0
   -1.3100   -2.5525   -3.7427 N   0  0  0  0  0  0  0  0  0  0  0  0
   -1.6334   -1.2618   -3.8757 C   0  0  0  0  0  0  0  0  0  0  0  0
   -4.6627    0.3993   -0.2323 H   0  0  0  0  0  0  0  0  0  0  0  0
   -6.4272    0.9059   -0.3641 H   0  0  0  0  0  0  0  0  0  0  0  0
   -6.7055    0.0470   -2.3741 H   0  0  0  0  0  0  0  0  0  0  0  0
   -5.7378   -1.8281   -0.5457 H   0  0  0  0  0  0  0  0  0  0  0  0
   -6.8775   -2.9768   -1.7236 H   0  0  0  0  0  0  0  0  0  0  0  0
   -3.3680   -1.6015   -1.0257 H   0  0  0  0  0  0  0  0  0  0  0  0
   -3.5598   -3.6369   -1.1728 H   0  0  0  0  0  0  0  0  0  0  0  0
   -4.1260   -1.8888   -3.8519 H   0  0  0  0  0  0  0  0  0  0  0  0
   -3.1621    1.5047   -3.8220 H   0  0  0  0  0  0  0  0  0  0  0  0
    2.4866   -0.5432   -5.5832 H   0  0  0  0  0  0  0  0  0  0  0  0
    1.4215    0.8808   -5.4396 H   0  0  0  0  0  0  0  0  0  0  0  0
    0.0925   -4.0683   -4.0160 H   0  0  0  0  0  0  0  0  0  0  0  0
  1  2  2  0
  1  3  2  0
  1  4  1  6
  1  8  1  0
  5  6  2  0
  5  7  1  6
  5  8  1  0
  5  9  1  0
  9 10  1  0
 11 10  1  0
 11 12  1  0
 11 13  1  0
 12 17  1  0
 13 14  1  0
 13 15  1  0
 15 16  1  0
 15 17  1  0
 17 18  1  0
 18 19  1  0
 18 27  1  0
 19 20  2  0
 20 21  1  0
 21 22  2  0
 21 27  1  0
 22 23  1  0
 22 24  1  0
 24 25  2  0
 25 26  1  0
 26 27  2  0
 10 28  1  0
 10 29  1  0
 11 30  1  6
 13 31  1  1
 14 32  1  0
 15 33  1  1
 16 34  1  0
 17 35  1  6
 19 36  1  0
 23 37  1  0
 23 38  1  0
 25 39  1  0
M  CHG  2   4  -1   7  -1
M  END
>  <filename_input>  (18) 
7FHA_ADX_docked.sdf

>  <pdb_id>  (18) 
7FHA_ADX

>  <pose_rank>  (18) 
17

>  <num_atoms_heavy>  (18) 
27

>  <num_torsions>  (18) 
6

>  <pose>  (18) 
[-5.678642512249211, -0.15901897656990902, -2.0378024568504562, 2.582669890441751, -0.9329081340661758, -2.8099450963617447, -1.087130360548457, 1.5541949870881693, -1.201791281840384, -2.334917392967707, 4.384362877628758, 3.415157768785561]

>  <energy>  (18) 
-655.7270295228726

>  <inter_energy>  (18) 
-688.1088026634507

>  <intra_energy>  (18) 
29.660741598726723

>  <rmsd>  (18) 
3.73982

>  <sdf_rank>  (18) 
0

$$$$

     RDKit          3D

 39 41  0  0  0  0  0  0  0  0999 V2000
    0.8914   -0.9217   -3.8858 S   0  0  2  0  0  0  0  0  0  0  0  0
    0.8565   -1.9883   -4.5864 O   0  0  0  0  0  0  0  0  0  0  0  0
    1.6086   -0.0556   -4.5015 O   0  0  0  0  0  0  0  0  0  0  0  0
    1.3132   -1.1258   -2.6941 O   0  0  0  0  0  0  0  0  0  0  0  0
   -1.8852   -0.9642   -3.7628 P   0  0  2  0  0  0  0  0  0  0  0  0
   -1.7160   -2.2049   -3.2413 O   0  0  0  0  0  0  0  0  0  0  0  0
   -2.4894   -0.8190   -4.9937 O   0  0  0  0  0  0  0  0  0  0  0  0
   -0.4681   -0.3574   -3.8922 O   0  0  0  0  0  0  0  0  0  0  0  0
   -2.6100   -0.0994   -2.7100 O   0  0  0  0  0  0  0  0  0  0  0  0
   -2.6655    1.2959   -2.6945 C   0  0  0  0  0  0  0  0  0  0  0  0
   -4.0589    1.8916   -2.4622 C   0  0  1  0  0  0  0  0  0  0  0  0
   -5.0780    1.1024   -2.9949 O   0  0  0  0  0  0  0  0  0  0  0  0
   -4.3864    1.9922   -0.9591 C   0  0  1  0  0  0  0  0  0  0  0  0
   -5.1992    3.0824   -0.7432 O   0  0  0  0  0  0  0  0  0  0  0  0
   -5.0621    0.6822   -0.6647 C   0  0  1  0  0  0  0  0  0  0  0  0
   -5.9048    0.6799    0.4297 O   0  0  0  0  0  0  0  0  0  0  0  0
   -5.8289    0.5478   -1.9551 C   0  0  2  0  0  0  0  0  0  0  0  0
   -6.2597   -0.7252   -2.4800 N   0  0  0  0  0  0  0  0  0  0  0  0
   -7.3420   -0.9679   -3.1130 C   0  0  0  0  0  0  0  0  0  0  0  0
   -7.4700   -2.2282   -3.3588 N   0  0  0  0  0  0  0  0  0  0  0  0
   -6.4483   -2.8510   -2.8346 C   0  0  0  0  0  0  0  0  0  0  0  0
   -5.9657   -4.2173   -2.7169 C   0  0  0  0  0  0  0  0  0  0  0  0
   -6.6598   -5.2387   -3.2269 N   0  0  0  0  0  0  0  0  0  0  0  0
   -4.8049   -4.4053   -2.0852 N   0  0  0  0  0  0  0  0  0  0  0  0
   -4.1071   -3.4280   -1.5618 C   0  0  0  0  0  0  0  0  0  0  0  0
   -4.4839   -2.1665   -1.6332 N   0  0  0  0  0  0  0  0  0  0  0  0
   -5.6314   -1.8262   -2.2295 C   0  0  0  0  0  0  0  0  0  0  0  0
   -2.0043    1.6537   -1.8915 H   0  0  0  0  0  0  0  0  0  0  0  0
   -2.3566    1.6246   -3.6977 H   0  0  0  0  0  0  0  0  0  0  0  0
   -4.0209    2.8763   -2.9511 H   0  0  0  0  0  0  0  0  0  0  0  0
   -3.5159    2.1448   -0.3043 H   0  0  0  0  0  0  0  0  0  0  0  0
   -5.3065    3.2263    0.2304 H   0  0  0  0  0  0  0  0  0  0  0  0
   -4.3679   -0.1274   -0.3953 H   0  0  0  0  0  0  0  0  0  0  0  0
   -5.3666    0.6814    1.2606 H   0  0  0  0  0  0  0  0  0  0  0  0
   -6.7604    1.0417   -1.6416 H   0  0  0  0  0  0  0  0  0  0  0  0
   -8.0719   -0.2007   -3.4106 H   0  0  0  0  0  0  0  0  0  0  0  0
   -6.3034   -6.2006   -3.1346 H   0  0  0  0  0  0  0  0  0  0  0  0
   -7.5513   -5.0642   -3.7123 H   0  0  0  0  0  0  0  0  0  0  0  0
   -3.1685   -3.6696   -1.0416 H   0  0  0  0  0  0  0  0  0  0  0  0
  1  2  2  0
  1  3  2  0
  1  4  1  1
  1  8  1  0
  5  6  2  0
  5  7  1  6
  5  8  1  0
  5  9  1  0
  9 10  1  0
 11 10  1  0
 11 12  1  0
 11 13  1  0
 12 17  1  0
 13 14  1  0
 13 15  1  0
 15 16  1  0
 15 17  1  0
 17 18  1  0
 18 19  1  0
 18 27  1  0
 19 20  2  0
 20 21  1  0
 21 22  2  0
 21 27  1  0
 22 23  1  0
 22 24  1  0
 24 25  2  0
 25 26  1  0
 26 27  2  0
 10 28  1  0
 10 29  1  0
 11 30  1  6
 13 31  1  1
 14 32  1  0
 15 33  1  1
 16 34  1  0
 17 35  1  1
 19 36  1  0
 23 37  1  0
 23 38  1  0
 25 39  1  0
M  CHG  2   4  -1   7  -1
M  END
>  <filename_input>  (19) 
7FHA_ADX_docked.sdf

>  <pdb_id>  (19) 
7FHA_ADX

>  <pose_rank>  (19) 
18

>  <num_atoms_heavy>  (19) 
27

>  <num_torsions>  (19) 
6

>  <pose>  (19) 
[-4.058898753054481, 1.8916112813131358, -2.4621821809841684, 0.24074591920345598, -3.7773349134978313, -0.84389362285584, -2.6315764957485808, 0.32329039094318746, -0.88108656484307, 5.564450585716255, 3.166219680276603, 5.584851605052299]

>  <energy>  (19) 
-595.5239338646609

>  <inter_energy>  (19) 
-634.290266775238

>  <intra_energy>  (19) 
44.014749105589814

>  <rmsd>  (19) 
6.20792

>  <sdf_rank>  (19) 
0

$$$$

     RDKit          3D

 39 41  0  0  0  0  0  0  0  0999 V2000
   -4.8405   -1.5638    0.7313 S   0  0  2  0  0  0  0  0  0  0  0  0
   -6.1040   -1.4689    0.5751 O   0  0  0  0  0  0  0  0  0  0  0  0
   -4.6054   -1.8755    1.9524 O   0  0  0  0  0  0  0  0  0  0  0  0
   -4.2176   -0.5000    0.3850 O   0  0  0  0  0  0  0  0  0  0  0  0
   -4.8957   -3.4130   -1.3434 P   0  0  2  0  0  0  0  0  0  0  0  0
   -6.2502   -3.3520   -1.3018 O   0  0  0  0  0  0  0  0  0  0  0  0
   -4.2706   -4.6403   -1.4085 O   0  0  0  0  0  0  0  0  0  0  0  0
   -4.3967   -2.7316   -0.0473 O   0  0  0  0  0  0  0  0  0  0  0  0
   -4.4131   -2.5091   -2.4972 O   0  0  0  0  0  0  0  0  0  0  0  0
   -3.1413   -1.9451   -2.6181 C   0  0  0  0  0  0  0  0  0  0  0  0
   -3.0546   -0.7200   -3.5358 C   0  0  1  0  0  0  0  0  0  0  0  0
   -4.2124    0.0570   -3.5082 O   0  0  0  0  0  0  0  0  0  0  0  0
   -1.9297    0.2374   -3.0945 C   0  0  1  0  0  0  0  0  0  0  0  0
   -1.4073    0.8659   -4.2025 O   0  0  0  0  0  0  0  0  0  0  0  0
   -2.6274    1.1790   -2.1533 C   0  0  1  0  0  0  0  0  0  0  0  0
   -2.0331    2.4164   -2.0003 O   0  0  0  0  0  0  0  0  0  0  0  0
   -3.9371    1.2805   -2.8920 C   0  0  2  0  0  0  0  0  0  0  0  0
   -5.1772    1.6273   -2.2412 N   0  0  0  0  0  0  0  0  0  0  0  0
   -6.0845    0.8232   -1.8397 C   0  0  0  0  0  0  0  0  0  0  0  0
   -7.1110    1.4610   -1.3875 N   0  0  0  0  0  0  0  0  0  0  0  0
   -6.8901    2.7407   -1.5293 C   0  0  0  0  0  0  0  0  0  0  0  0
   -7.5859    3.9889   -1.2621 C   0  0  0  0  0  0  0  0  0  0  0  0
   -8.8138    3.9933   -0.7356 N   0  0  0  0  0  0  0  0  0  0  0  0
   -6.9474    5.1227   -1.5597 N   0  0  0  0  0  0  0  0  0  0  0  0
   -5.7497    5.1531   -2.0896 C   0  0  0  0  0  0  0  0  0  0  0  0
   -5.0612    4.0607   -2.3560 N   0  0  0  0  0  0  0  0  0  0  0  0
   -5.5771    2.8500   -2.1190 C   0  0  0  0  0  0  0  0  0  0  0  0
   -2.8063   -1.6431   -1.6149 H   0  0  0  0  0  0  0  0  0  0  0  0
   -2.5079   -2.7171   -3.0793 H   0  0  0  0  0  0  0  0  0  0  0  0
   -2.8806   -1.1398   -4.5376 H   0  0  0  0  0  0  0  0  0  0  0  0
   -1.0727   -0.2488   -2.6054 H   0  0  0  0  0  0  0  0  0  0  0  0
   -0.8020    1.5943   -3.9140 H   0  0  0  0  0  0  0  0  0  0  0  0
   -2.6538    0.8297   -1.1106 H   0  0  0  0  0  0  0  0  0  0  0  0
   -1.9359    2.6188   -1.0361 H   0  0  0  0  0  0  0  0  0  0  0  0
   -3.7034    2.1562   -3.5154 H   0  0  0  0  0  0  0  0  0  0  0  0
   -6.0015   -0.2731   -1.8748 H   0  0  0  0  0  0  0  0  0  0  0  0
   -9.2925    4.8867   -0.5526 H   0  0  0  0  0  0  0  0  0  0  0  0
   -9.2818    3.1032   -0.5126 H   0  0  0  0  0  0  0  0  0  0  0  0
   -5.3001    6.1298   -2.3217 H   0  0  0  0  0  0  0  0  0  0  0  0
  1  2  2  0
  1  3  2  0
  1  4  1  6
  1  8  1  0
  5  6  2  0
  5  7  1  6
  5  8  1  0
  5  9  1  0
  9 10  1  0
 11 10  1  0
 11 12  1  0
 11 13  1  0
 12 17  1  0
 13 14  1  0
 13 15  1  0
 15 16  1  0
 15 17  1  0
 17 18  1  0
 18 19  1  0
 18 27  1  0
 19 20  2  0
 20 21  1  0
 21 22  2  0
 21 27  1  0
 22 23  1  0
 22 24  1  0
 24 25  2  0
 25 26  1  0
 26 27  2  0
 10 28  1  0
 10 29  1  0
 11 30  1  6
 13 31  1  1
 14 32  1  0
 15 33  1  1
 16 34  1  0
 17 35  1  6
 19 36  1  0
 23 37  1  0
 23 38  1  0
 25 39  1  0
M  CHG  2   4  -1   7  -1
M  END
>  <filename_input>  (20) 
7FHA_ADX_docked.sdf

>  <pdb_id>  (20) 
7FHA_ADX

>  <pose_rank>  (20) 
19

>  <num_atoms_heavy>  (20) 
27

>  <num_torsions>  (20) 
6

>  <pose>  (20) 
[-3.0545669313348256, -0.7200275173374735, -3.5358090474425246, 0.9374052892225814, 2.1694376219232767, -1.5110872126784434, -0.5830615168446025, -11.09773550332176, 0.31167411142290496, 5.486066151353821, 2.2059989583575, -0.9009271619219112]

>  <energy>  (20) 
-622.1640367394526

>  <inter_energy>  (20) 
-638.8702616122488

>  <intra_energy>  (20) 
26.102583268894954

>  <rmsd>  (20) 
5.65608

>  <sdf_rank>  (20) 
0

$$$$

     RDKit          3D

 39 41  0  0  0  0  0  0  0  0999 V2000
   -1.3943   -0.0982   -4.5881 S   0  0  2  0  0  0  0  0  0  0  0  0
   -1.9806   -1.1876   -4.9031 O   0  0  0  0  0  0  0  0  0  0  0  0
   -1.9710    0.8658   -5.2060 O   0  0  0  0  0  0  0  0  0  0  0  0
   -0.1360   -0.1272   -4.8235 O   0  0  0  0  0  0  0  0  0  0  0  0
   -1.6724    1.4070   -2.2678 P   0  0  2  0  0  0  0  0  0  0  0  0
   -0.9370    2.3355   -2.9290 O   0  0  0  0  0  0  0  0  0  0  0  0
   -1.2805    0.9959   -1.0114 O   0  0  0  0  0  0  0  0  0  0  0  0
   -1.6755    0.1461   -3.1639 O   0  0  0  0  0  0  0  0  0  0  0  0
   -3.1365    1.8937   -2.2349 O   0  0  0  0  0  0  0  0  0  0  0  0
   -4.1619    1.3518   -1.4571 C   0  0  0  0  0  0  0  0  0  0  0  0
   -5.5829    1.7015   -1.9141 C   0  0  1  0  0  0  0  0  0  0  0  0
   -6.0906    0.7906   -2.8402 O   0  0  0  0  0  0  0  0  0  0  0  0
   -6.5797    1.6618   -0.7387 C   0  0  1  0  0  0  0  0  0  0  0  0
   -7.5712    2.5929   -0.9522 O   0  0  0  0  0  0  0  0  0  0  0  0
   -7.0827    0.2455   -0.7604 C   0  0  1  0  0  0  0  0  0  0  0  0
   -8.3216    0.0450   -0.1838 O   0  0  0  0  0  0  0  0  0  0  0  0
   -7.1311    0.0638   -2.2557 C   0  0  2  0  0  0  0  0  0  0  0  0
   -7.0486   -1.2297   -2.8895 N   0  0  0  0  0  0  0  0  0  0  0  0
   -7.7562   -1.6533   -3.8647 C   0  0  0  0  0  0  0  0  0  0  0  0
   -7.4985   -2.8896   -4.1299 N   0  0  0  0  0  0  0  0  0  0  0  0
   -6.6101   -3.3135   -3.2711 C   0  0  0  0  0  0  0  0  0  0  0  0
   -5.9001   -4.5479   -2.9783 C   0  0  0  0  0  0  0  0  0  0  0  0
   -6.1196   -5.6546   -3.6940 N   0  0  0  0  0  0  0  0  0  0  0  0
   -5.0222   -4.5266   -1.9729 N   0  0  0  0  0  0  0  0  0  0  0  0
   -4.7940   -3.4630   -1.2430 C   0  0  0  0  0  0  0  0  0  0  0  0
   -5.4001   -2.3113   -1.4540 N   0  0  0  0  0  0  0  0  0  0  0  0
   -6.3130   -2.1841   -2.4228 C   0  0  0  0  0  0  0  0  0  0  0  0
   -4.0590    0.2567   -1.4736 H   0  0  0  0  0  0  0  0  0  0  0  0
   -4.0477    1.7891   -0.4542 H   0  0  0  0  0  0  0  0  0  0  0  0
   -5.4902    2.7058   -2.3531 H   0  0  0  0  0  0  0  0  0  0  0  0
   -6.1502    1.9146    0.2419 H   0  0  0  0  0  0  0  0  0  0  0  0
   -7.9144    2.9152   -0.0813 H   0  0  0  0  0  0  0  0  0  0  0  0
   -6.4661   -0.4561   -0.1794 H   0  0  0  0  0  0  0  0  0  0  0  0
   -8.2330    0.0594    0.8021 H   0  0  0  0  0  0  0  0  0  0  0  0
   -8.1704    0.3827   -2.4235 H   0  0  0  0  0  0  0  0  0  0  0  0
   -8.4913   -1.0423   -4.4090 H   0  0  0  0  0  0  0  0  0  0  0  0
   -5.6078   -6.5207   -3.4731 H   0  0  0  0  0  0  0  0  0  0  0  0
   -6.8006   -5.6416   -4.4666 H   0  0  0  0  0  0  0  0  0  0  0  0
   -4.0670   -3.5337   -0.4205 H   0  0  0  0  0  0  0  0  0  0  0  0
  1  2  2  0
  1  3  2  0
  1  4  1  1
  1  8  1  0
  5  6  2  0
  5  7  1  1
  5  8  1  0
  5  9  1  0
  9 10  1  0
 11 10  1  0
 11 12  1  0
 11 13  1  0
 12 17  1  0
 13 14  1  0
 13 15  1  0
 15 16  1  0
 15 17  1  0
 17 18  1  0
 18 19  1  0
 18 27  1  0
 19 20  2  0
 20 21  1  0
 21 22  2  0
 21 27  1  0
 22 23  1  0
 22 24  1  0
 24 25  2  0
 25 26  1  0
 26 27  2  0
 10 28  1  0
 10 29  1  0
 11 30  1  6
 13 31  1  1
 14 32  1  0
 15 33  1  1
 16 34  1  0
 17 35  1  6
 19 36  1  0
 23 37  1  0
 23 38  1  0
 25 39  1  0
M  CHG  2   4  -1   7  -1
M  END
>  <filename_input>  (21) 
7FHA_ADX_docked.sdf

>  <pdb_id>  (21) 
7FHA_ADX

>  <pose_rank>  (21) 
20

>  <num_atoms_heavy>  (21) 
27

>  <num_torsions>  (21) 
6

>  <pose>  (21) 
[-5.582902890650351, 1.7014724111146902, -1.914073017645696, 0.9221760761485027, -4.04736185602582, -1.1374462700215198, -2.765815404638394, 2.4416878186602697, 0.2648229158261584, -0.2004339384135474, 2.5390386411628736, 2.0980920033461956]

>  <energy>  (21) 
-570.0930949576684

>  <inter_energy>  (21) 
-583.6481176206294

>  <intra_energy>  (21) 
18.138791587127816

>  <rmsd>  (21) 
5.99389

>  <sdf_rank>  (21) 
0

$$$$

     RDKit          3D

 39 41  0  0  0  0  0  0  0  0999 V2000
   -9.0346    0.0228   -0.4551 S   0  0  2  0  0  0  0  0  0  0  0  0
   -8.5037   -0.3406    0.6475 O   0  0  0  0  0  0  0  0  0  0  0  0
   -9.5312    1.1944   -0.2991 O   0  0  0  0  0  0  0  0  0  0  0  0
   -9.9088   -0.8099   -0.8818 O   0  0  0  0  0  0  0  0  0  0  0  0
   -6.5647    0.9121   -1.3693 P   0  0  2  0  0  0  0  0  0  0  0  0
   -6.7497    2.0367   -0.6338 O   0  0  0  0  0  0  0  0  0  0  0  0
   -6.1250    1.0147   -2.6721 O   0  0  0  0  0  0  0  0  0  0  0  0
   -7.9391    0.2041   -1.4216 O   0  0  0  0  0  0  0  0  0  0  0  0
   -5.6433   -0.0337   -0.5706 O   0  0  0  0  0  0  0  0  0  0  0  0
   -5.7929   -1.4172   -0.4548 C   0  0  0  0  0  0  0  0  0  0  0  0
   -5.7724   -2.1896   -1.7790 C   0  0  1  0  0  0  0  0  0  0  0  0
   -4.9569   -1.5912   -2.7392 O   0  0  0  0  0  0  0  0  0  0  0  0
   -5.1901   -3.6055   -1.5977 C   0  0  1  0  0  0  0  0  0  0  0  0
   -5.7931   -4.4625   -2.4908 O   0  0  0  0  0  0  0  0  0  0  0  0
   -3.7230   -3.4116   -1.8613 C   0  0  1  0  0  0  0  0  0  0  0  0
   -3.0379   -4.5388   -2.2709 O   0  0  0  0  0  0  0  0  0  0  0  0
   -3.8422   -2.4008   -2.9728 C   0  0  2  0  0  0  0  0  0  0  0  0
   -2.7937   -1.4625   -3.2924 N   0  0  0  0  0  0  0  0  0  0  0  0
   -2.8502   -0.1896   -3.2064 C   0  0  0  0  0  0  0  0  0  0  0  0
   -1.7749    0.3602   -3.6608 N   0  0  0  0  0  0  0  0  0  0  0  0
   -0.9884   -0.5858   -4.1002 C   0  0  0  0  0  0  0  0  0  0  0  0
    0.3185   -0.6936   -4.7278 C   0  0  0  0  0  0  0  0  0  0  0  0
    1.0373    0.3960   -5.0125 N   0  0  0  0  0  0  0  0  0  0  0  0
    0.7679   -1.9204   -5.0015 N   0  0  0  0  0  0  0  0  0  0  0  0
    0.0827   -3.0079   -4.7484 C   0  0  0  0  0  0  0  0  0  0  0  0
   -1.1065   -2.9838   -4.1797 N   0  0  0  0  0  0  0  0  0  0  0  0
   -1.6887   -1.8242   -3.8563 C   0  0  0  0  0  0  0  0  0  0  0  0
   -4.9733   -1.7967    0.1731 H   0  0  0  0  0  0  0  0  0  0  0  0
   -6.7906   -1.5810   -0.0216 H   0  0  0  0  0  0  0  0  0  0  0  0
   -6.8234   -2.2055   -2.1032 H   0  0  0  0  0  0  0  0  0  0  0  0
   -5.3588   -4.0526   -0.6070 H   0  0  0  0  0  0  0  0  0  0  0  0
   -6.2860   -5.1630   -1.9944 H   0  0  0  0  0  0  0  0  0  0  0  0
   -3.1433   -3.1271   -0.9708 H   0  0  0  0  0  0  0  0  0  0  0  0
   -2.7304   -5.0446   -1.4774 H   0  0  0  0  0  0  0  0  0  0  0  0
   -3.8521   -3.0973   -3.8241 H   0  0  0  0  0  0  0  0  0  0  0  0
   -3.7062    0.3670   -2.7972 H   0  0  0  0  0  0  0  0  0  0  0  0
    1.9615    0.3016   -5.4573 H   0  0  0  0  0  0  0  0  0  0  0  0
    0.6672    1.3305   -4.7872 H   0  0  0  0  0  0  0  0  0  0  0  0
    0.5173   -3.9808   -5.0216 H   0  0  0  0  0  0  0  0  0  0  0  0
  1  2  2  0
  1  3  2  0
  1  4  1  6
  1  8  1  0
  5  6  2  0
  5  7  1  6
  5  8  1  0
  5  9  1  0
  9 10  1  0
 11 10  1  0
 11 12  1  0
 11 13  1  0
 12 17  1  0
 13 14  1  0
 13 15  1  0
 15 16  1  0
 15 17  1  0
 17 18  1  0
 18 19  1  0
 18 27  1  0
 19 20  2  0
 20 21  1  0
 21 22  2  0
 21 27  1  0
 22 23  1  0
 22 24  1  0
 24 25  2  0
 25 26  1  0
 26 27  2  0
 10 28  1  0
 10 29  1  0
 11 30  1  6
 13 31  1  1
 14 32  1  0
 15 33  1  1
 16 34  1  0
 17 35  1  6
 19 36  1  0
 23 37  1  0
 23 38  1  0
 25 39  1  0
M  CHG  2   4  -1   7  -1
M  END
>  <filename_input>  (22) 
7FHA_ADX_docked.sdf

>  <pdb_id>  (22) 
7FHA_ADX

>  <pose_rank>  (22) 
21

>  <num_atoms_heavy>  (22) 
27

>  <num_torsions>  (22) 
6

>  <pose>  (22) 
[-5.772409622563204, -2.1895852507654747, -1.7789723055940565, 2.441228858501208, -0.30700795419690663, -2.956241258871699, -0.8983869755913242, 1.4418342612615256, -2.1736222112112533, -1.124415610755214, 2.2117849792612514, 4.037133757407549]

>  <energy>  (22) 
-781.6837483562457

>  <inter_energy>  (22) 
-821.0372778825209

>  <intra_energy>  (22) 
49.674000547236155

>  <rmsd>  (22) 
3.42442

>  <sdf_rank>  (22) 
0

$$$$

     RDKit          3D

 39 41  0  0  0  0  0  0  0  0999 V2000
   -6.4123   -7.0344   -5.6579 S   0  0  2  0  0  0  0  0  0  0  0  0
   -7.6429   -6.8664   -5.9530 O   0  0  0  0  0  0  0  0  0  0  0  0
   -5.7058   -6.7513   -6.6895 O   0  0  0  0  0  0  0  0  0  0  0  0
   -6.1642   -8.2125   -5.2218 O   0  0  0  0  0  0  0  0  0  0  0  0
   -6.0142   -5.9684   -3.1217 P   0  0  2  0  0  0  0  0  0  0  0  0
   -4.8158   -6.4986   -2.7716 O   0  0  0  0  0  0  0  0  0  0  0  0
   -7.1773   -6.5616   -2.6785 O   0  0  0  0  0  0  0  0  0  0  0  0
   -6.0622   -6.0031   -4.6675 O   0  0  0  0  0  0  0  0  0  0  0  0
   -6.0027   -4.4726   -2.7426 O   0  0  0  0  0  0  0  0  0  0  0  0
   -5.0748   -3.8470   -1.9073 C   0  0  0  0  0  0  0  0  0  0  0  0
   -5.6769   -2.9719   -0.8017 C   0  0  1  0  0  0  0  0  0  0  0  0
   -4.8741   -1.8765   -0.4843 O   0  0  0  0  0  0  0  0  0  0  0  0
   -7.0224   -2.3584   -1.2373 C   0  0  1  0  0  0  0  0  0  0  0  0
   -7.8351   -2.2164   -0.1349 O   0  0  0  0  0  0  0  0  0  0  0  0
   -6.6210   -1.0459   -1.8500 C   0  0  1  0  0  0  0  0  0  0  0  0
   -7.5996   -0.0713   -1.8636 O   0  0  0  0  0  0  0  0  0  0  0  0
   -5.5080   -0.7007   -0.8943 C   0  0  2  0  0  0  0  0  0  0  0  0
   -4.4176    0.1757   -1.2473 N   0  0  0  0  0  0  0  0  0  0  0  0
   -3.1765   -0.1224   -1.2911 C   0  0  0  0  0  0  0  0  0  0  0  0
   -2.4530    0.9148   -1.5480 N   0  0  0  0  0  0  0  0  0  0  0  0
   -3.2443    1.9499   -1.6416 C   0  0  0  0  0  0  0  0  0  0  0  0
   -3.1237    3.3776   -1.8884 C   0  0  0  0  0  0  0  0  0  0  0  0
   -1.9291    3.9446   -2.0793 N   0  0  0  0  0  0  0  0  0  0  0  0
   -4.2511    4.0917   -1.9199 N   0  0  0  0  0  0  0  0  0  0  0  0
   -5.4362    3.5695   -1.7227 C   0  0  0  0  0  0  0  0  0  0  0  0
   -5.6187    2.2836   -1.4959 N   0  0  0  0  0  0  0  0  0  0  0  0
   -4.5794    1.4450   -1.4274 C   0  0  0  0  0  0  0  0  0  0  0  0
   -4.4664   -4.6287   -1.4290 H   0  0  0  0  0  0  0  0  0  0  0  0
   -4.4939   -3.1694   -2.5502 H   0  0  0  0  0  0  0  0  0  0  0  0
   -5.7827   -3.6503    0.0577 H   0  0  0  0  0  0  0  0  0  0  0  0
   -7.6008   -2.9669   -1.9480 H   0  0  0  0  0  0  0  0  0  0  0  0
   -7.2937   -2.3110    0.6885 H   0  0  0  0  0  0  0  0  0  0  0  0
   -6.3750   -1.1096   -2.9203 H   0  0  0  0  0  0  0  0  0  0  0  0
   -7.8399    0.1680   -0.9335 H   0  0  0  0  0  0  0  0  0  0  0  0
   -6.0950   -0.1236   -0.1646 H   0  0  0  0  0  0  0  0  0  0  0  0
   -2.7756   -1.1341   -1.1305 H   0  0  0  0  0  0  0  0  0  0  0  0
   -1.8617    4.9576   -2.2529 H   0  0  0  0  0  0  0  0  0  0  0  0
   -1.0755    3.3687   -2.0528 H   0  0  0  0  0  0  0  0  0  0  0  0
   -6.3148    4.2308   -1.7474 H   0  0  0  0  0  0  0  0  0  0  0  0
  1  2  2  0
  1  3  2  0
  1  4  1  1
  1  8  1  0
  5  6  2  0
  5  7  1  1
  5  8  1  0
  5  9  1  0
  9 10  1  0
 11 10  1  0
 11 12  1  0
 11 13  1  0
 12 17  1  0
 13 14  1  0
 13 15  1  0
 15 16  1  0
 15 17  1  0
 17 18  1  0
 18 19  1  0
 18 27  1  0
 19 20  2  0
 20 21  1  0
 21 22  2  0
 21 27  1  0
 22 23  1  0
 22 24  1  0
 24 25  2  0
 25 26  1  0
 26 27  2  0
 10 28  1  0
 10 29  1  0
 11 30  1  1
 13 31  1  6
 14 32  1  0
 15 33  1  6
 16 34  1  0
 17 35  1  1
 19 36  1  0
 23 37  1  0
 23 38  1  0
 25 39  1  0
M  CHG  2   4  -1   7  -1
M  END
>  <filename_input>  (23) 
7FHA_ADX_docked.sdf

>  <pdb_id>  (23) 
7FHA_ADX

>  <pose_rank>  (23) 
22

>  <num_atoms_heavy>  (23) 
27

>  <num_torsions>  (23) 
6

>  <pose>  (23) 
[-5.676892098201427, -2.971929843933204, -0.8017170965528984, 1.4017019132246724, -0.36382441041208097, 1.0870225487097553, -7.215126773398011, 4.591514671311508, 7.086406194319563, 2.4883646616076933, -1.9651813763993518, 0.21799130190448662]

>  <energy>  (23) 
-608.6375447794385

>  <inter_energy>  (23) 
-614.2180654648206

>  <intra_energy>  (23) 
9.046412619748534

>  <rmsd>  (23) 
6.13939

>  <sdf_rank>  (23) 
0

$$$$

     RDKit          3D

 39 41  0  0  0  0  0  0  0  0999 V2000
    0.7756   -0.3057   -4.6650 S   0  0  2  0  0  0  0  0  0  0  0  0
    1.2347   -0.6970   -3.5399 O   0  0  0  0  0  0  0  0  0  0  0  0
    0.9096   -1.2594   -5.5113 O   0  0  0  0  0  0  0  0  0  0  0  0
    1.3273    0.7742   -5.0763 O   0  0  0  0  0  0  0  0  0  0  0  0
   -1.8128   -1.0685   -3.9979 P   0  0  2  0  0  0  0  0  0  0  0  0
   -1.2502   -1.8768   -3.0651 O   0  0  0  0  0  0  0  0  0  0  0  0
   -2.3986   -1.6231   -5.1161 O   0  0  0  0  0  0  0  0  0  0  0  0
   -0.6789   -0.1463   -4.5048 O   0  0  0  0  0  0  0  0  0  0  0  0
   -2.8128   -0.1372   -3.2809 O   0  0  0  0  0  0  0  0  0  0  0  0
   -2.8754    0.0925   -1.9048 C   0  0  0  0  0  0  0  0  0  0  0  0
   -4.2873    0.2778   -1.3370 C   0  0  1  0  0  0  0  0  0  0  0  0
   -5.2383   -0.5049   -1.9914 O   0  0  0  0  0  0  0  0  0  0  0  0
   -4.3649   -0.1631    0.1382 C   0  0  1  0  0  0  0  0  0  0  0  0
   -5.2972    0.6086    0.7947 O   0  0  0  0  0  0  0  0  0  0  0  0
   -4.7549   -1.6118    0.0453 C   0  0  1  0  0  0  0  0  0  0  0  0
   -5.3858   -2.1309    1.1589 O   0  0  0  0  0  0  0  0  0  0  0  0
   -5.6983   -1.4997   -1.1246 C   0  0  2  0  0  0  0  0  0  0  0  0
   -5.9968   -2.6088   -1.9978 N   0  0  0  0  0  0  0  0  0  0  0  0
   -6.8995   -2.6542   -2.9000 C   0  0  0  0  0  0  0  0  0  0  0  0
   -6.9696   -3.8259   -3.4360 N   0  0  0  0  0  0  0  0  0  0  0  0
   -6.1026   -4.5992   -2.8387 C   0  0  0  0  0  0  0  0  0  0  0  0
   -5.6657   -5.9839   -2.9124 C   0  0  0  0  0  0  0  0  0  0  0  0
   -6.2227   -6.8363   -3.7774 N   0  0  0  0  0  0  0  0  0  0  0  0
   -4.6877   -6.3630   -2.0867 N   0  0  0  0  0  0  0  0  0  0  0  0
   -4.1304   -5.5567   -1.2177 C   0  0  0  0  0  0  0  0  0  0  0  0
   -4.4758   -4.2899   -1.0985 N   0  0  0  0  0  0  0  0  0  0  0  0
   -5.4488   -3.7703   -1.8544 C   0  0  0  0  0  0  0  0  0  0  0  0
   -2.4137   -0.7661   -1.3953 H   0  0  0  0  0  0  0  0  0  0  0  0
   -2.3491    1.0425   -1.7300 H   0  0  0  0  0  0  0  0  0  0  0  0
   -4.4964    1.3500   -1.4669 H   0  0  0  0  0  0  0  0  0  0  0  0
   -3.4324   -0.0398    0.7084 H   0  0  0  0  0  0  0  0  0  0  0  0
   -5.1778    0.5098    1.7725 H   0  0  0  0  0  0  0  0  0  0  0  0
   -3.9010   -2.2987   -0.0500 H   0  0  0  0  0  0  0  0  0  0  0  0
   -4.9554   -1.7768    1.9771 H   0  0  0  0  0  0  0  0  0  0  0  0
   -6.6310   -1.3361   -0.5647 H   0  0  0  0  0  0  0  0  0  0  0  0
   -7.5361   -1.8032   -3.1839 H   0  0  0  0  0  0  0  0  0  0  0  0
   -5.9011   -7.8140   -3.8165 H   0  0  0  0  0  0  0  0  0  0  0  0
   -6.9737   -6.5156   -4.4052 H   0  0  0  0  0  0  0  0  0  0  0  0
   -3.3421   -5.9526   -0.5605 H   0  0  0  0  0  0  0  0  0  0  0  0
  1  2  2  0
  1  3  2  0
  1  4  1  6
  1  8  1  0
  5  6  2  0
  5  7  1  6
  5  8  1  0
  5  9  1  0
  9 10  1  0
 11 10  1  0
 11 12  1  0
 11 13  1  0
 12 17  1  0
 13 14  1  0
 13 15  1  0
 15 16  1  0
 15 17  1  0
 17 18  1  0
 18 19  1  0
 18 27  1  0
 19 20  2  0
 20 21  1  0
 21 22  2  0
 21 27  1  0
 22 23  1  0
 22 24  1  0
 24 25  2  0
 25 26  1  0
 26 27  2  0
 10 28  1  0
 10 29  1  0
 11 30  1  1
 13 31  1  1
 14 32  1  0
 15 33  1  6
 16 34  1  0
 17 35  1  1
 19 36  1  0
 23 37  1  0
 23 38  1  0
 25 39  1  0
M  CHG  2   4  -1   7  -1
M  END
>  <filename_input>  (24) 
7FHA_ADX_docked.sdf

>  <pdb_id>  (24) 
7FHA_ADX

>  <pose_rank>  (24) 
23

>  <num_atoms_heavy>  (24) 
27

>  <num_torsions>  (24) 
6

>  <pose>  (24) 
[-4.287326214704549, 0.2778489865751759, -1.3370063651802448, -0.18869941814385063, 2.3522446404471578, 1.039975975193521, -2.177240059255121, -4.795886809706669, -18.27681558824056, -3.275765408789499, -2.8751211514908097, -2.361092746475889]

>  <energy>  (24) 
-573.2716535022477

>  <inter_energy>  (24) 
-596.6399229040821

>  <intra_energy>  (24) 
32.04790002153011

>  <rmsd>  (24) 
6.63242

>  <sdf_rank>  (24) 
0

$$$$

     RDKit          3D

 39 41  0  0  0  0  0  0  0  0999 V2000
    0.3348   -5.9116   -5.5111 S   0  0  2  0  0  0  0  0  0  0  0  0
    1.1688   -6.1637   -4.5780 O   0  0  0  0  0  0  0  0  0  0  0  0
   -0.4788   -6.8979   -5.6049 O   0  0  0  0  0  0  0  0  0  0  0  0
    0.9049   -5.6590   -6.6295 O   0  0  0  0  0  0  0  0  0  0  0  0
   -0.2442   -3.2653   -4.8878 P   0  0  2  0  0  0  0  0  0  0  0  0
    0.0657   -2.7971   -6.1226 O   0  0  0  0  0  0  0  0  0  0  0  0
    0.6632   -3.1266   -3.8590 O   0  0  0  0  0  0  0  0  0  0  0  0
   -0.4930   -4.7829   -5.0556 O   0  0  0  0  0  0  0  0  0  0  0  0
   -1.6065   -2.6664   -4.4791 O   0  0  0  0  0  0  0  0  0  0  0  0
   -1.8076   -1.6636   -3.5284 C   0  0  0  0  0  0  0  0  0  0  0  0
   -2.7777   -2.0216   -2.3964 C   0  0  1  0  0  0  0  0  0  0  0  0
   -3.2765   -0.8976   -1.7386 O   0  0  0  0  0  0  0  0  0  0  0  0
   -4.0271   -2.7484   -2.9325 C   0  0  1  0  0  0  0  0  0  0  0  0
   -4.4791   -3.6361   -1.9820 O   0  0  0  0  0  0  0  0  0  0  0  0
   -4.9906   -1.6263   -3.2006 C   0  0  1  0  0  0  0  0  0  0  0  0
   -6.3270   -1.9754   -3.1956 O   0  0  0  0  0  0  0  0  0  0  0  0
   -4.6390   -0.7617   -2.0174 C   0  0  2  0  0  0  0  0  0  0  0  0
   -4.8556    0.6646   -1.9991 N   0  0  0  0  0  0  0  0  0  0  0  0
   -3.9760    1.5768   -2.1584 C   0  0  0  0  0  0  0  0  0  0  0  0
   -4.4815    2.7518   -1.9880 N   0  0  0  0  0  0  0  0  0  0  0  0
   -5.7397    2.6108   -1.6661 C   0  0  0  0  0  0  0  0  0  0  0  0
   -6.8671    3.4657   -1.3321 C   0  0  0  0  0  0  0  0  0  0  0  0
   -6.7337    4.7943   -1.2865 N   0  0  0  0  0  0  0  0  0  0  0  0
   -8.0345    2.8699   -1.0788 N   0  0  0  0  0  0  0  0  0  0  0  0
   -8.1956    1.5701   -1.1011 C   0  0  0  0  0  0  0  0  0  0  0  0
   -7.2180    0.7366   -1.3976 N   0  0  0  0  0  0  0  0  0  0  0  0
   -5.9886    1.1890   -1.6657 C   0  0  0  0  0  0  0  0  0  0  0  0
   -0.8337   -1.4215   -3.0779 H   0  0  0  0  0  0  0  0  0  0  0  0
   -2.2649   -0.8202   -4.0666 H   0  0  0  0  0  0  0  0  0  0  0  0
   -2.1848   -2.6507   -1.7162 H   0  0  0  0  0  0  0  0  0  0  0  0
   -3.8600   -3.3516   -3.8370 H   0  0  0  0  0  0  0  0  0  0  0  0
   -4.2951   -3.2747   -1.0789 H   0  0  0  0  0  0  0  0  0  0  0  0
   -4.8940   -1.1851   -4.2036 H   0  0  0  0  0  0  0  0  0  0  0  0
   -6.6430   -2.0579   -2.2610 H   0  0  0  0  0  0  0  0  0  0  0  0
   -5.3762   -1.1575   -1.3034 H   0  0  0  0  0  0  0  0  0  0  0  0
   -2.9222    1.3853   -2.4088 H   0  0  0  0  0  0  0  0  0  0  0  0
   -7.5430    5.3853   -1.0482 H   0  0  0  0  0  0  0  0  0  0  0  0
   -5.8217    5.2276   -1.4897 H   0  0  0  0  0  0  0  0  0  0  0  0
   -9.1869    1.1571   -0.8627 H   0  0  0  0  0  0  0  0  0  0  0  0
  1  2  2  0
  1  3  2  0
  1  4  1  6
  1  8  1  0
  5  6  2  0
  5  7  1  1
  5  8  1  0
  5  9  1  0
  9 10  1  0
 11 10  1  0
 11 12  1  0
 11 13  1  0
 12 17  1  0
 13 14  1  0
 13 15  1  0
 15 16  1  0
 15 17  1  0
 17 18  1  0
 18 19  1  0
 18 27  1  0
 19 20  2  0
 20 21  1  0
 21 22  2  0
 21 27  1  0
 22 23  1  0
 22 24  1  0
 24 25  2  0
 25 26  1  0
 26 27  2  0
 10 28  1  0
 10 29  1  0
 11 30  1  1
 13 31  1  6
 14 32  1  0
 15 33  1  6
 16 34  1  0
 17 35  1  1
 19 36  1  0
 23 37  1  0
 23 38  1  0
 25 39  1  0
M  CHG  2   4  -1   7  -1
M  END
>  <filename_input>  (25) 
7FHA_ADX_docked.sdf

>  <pdb_id>  (25) 
7FHA_ADX

>  <pose_rank>  (25) 
24

>  <num_atoms_heavy>  (25) 
27

>  <num_torsions>  (25) 
6

>  <pose>  (25) 
[-2.7776629902627126, -2.0216313873848812, -2.3964333799363353, -2.4470805607869637, -0.3158810553887207, -2.5904369498462656, 24.471381996954758, -8.198023272081926, -30.502435577716945, -11.69761861221542, -8.639970362165949, -0.14773247522120694]

>  <energy>  (25) 
-561.4561233508437

>  <inter_energy>  (25) 
-562.1089728588328

>  <intra_energy>  (25) 
6.539159077099644

>  <rmsd>  (25) 
7.8821

>  <sdf_rank>  (25) 
0

$$$$

     RDKit          3D

 39 41  0  0  0  0  0  0  0  0999 V2000
   -8.4840   -0.0720   -0.5490 S   0  0  2  0  0  0  0  0  0  0  0  0
   -8.1180    0.6920   -1.5040 O   0  0  0  0  0  0  0  0  0  0  0  0
   -9.7120   -0.3910   -0.7330 O   0  0  0  0  0  0  0  0  0  0  0  0
   -8.2980    0.4530    0.6040 O   0  0  0  0  0  0  0  0  0  0  0  0
   -6.3200   -1.7990   -0.3010 P   0  0  2  0  0  0  0  0  0  0  0  0
   -6.0860   -2.9340   -1.0060 O   0  0  0  0  0  0  0  0  0  0  0  0
   -6.2880   -1.8340    1.0770 O   0  0  0  0  0  0  0  0  0  0  0  0
   -7.7410   -1.3340   -0.6980 O   0  0  0  0  0  0  0  0  0  0  0  0
   -5.3660   -0.7060   -0.8270 O   0  0  0  0  0  0  0  0  0  0  0  0
   -4.9490    0.4250   -0.1220 C   0  0  0  0  0  0  0  0  0  0  0  0
   -4.0590    1.3940   -0.9090 C   0  0  1  0  0  0  0  0  0  0  0  0
   -2.9820    0.7570   -1.5250 O   0  0  0  0  0  0  0  0  0  0  0  0
   -4.8330    2.0600   -2.0640 C   0  0  1  0  0  0  0  0  0  0  0  0
   -4.3380    3.3280   -2.2710 O   0  0  0  0  0  0  0  0  0  0  0  0
   -4.5900    1.1330   -3.2220 C   0  0  1  0  0  0  0  0  0  0  0  0
   -4.7130    1.7010   -4.4750 O   0  0  0  0  0  0  0  0  0  0  0  0
   -3.1580    0.7810   -2.9110 C   0  0  2  0  0  0  0  0  0  0  0  0
   -2.5380   -0.4420   -3.3600 N   0  0  0  0  0  0  0  0  0  0  0  0
   -2.8520   -1.6320   -3.0190 C   0  0  0  0  0  0  0  0  0  0  0  0
   -2.0380   -2.4960   -3.5250 N   0  0  0  0  0  0  0  0  0  0  0  0
   -1.1250   -1.8490   -4.1990 C   0  0  0  0  0  0  0  0  0  0  0  0
    0.0590   -2.1630   -4.9820 C   0  0  0  0  0  0  0  0  0  0  0  0
    0.4660   -3.4260   -5.1380 N   0  0  0  0  0  0  0  0  0  0  0  0
    0.7150   -1.1420   -5.5380 N   0  0  0  0  0  0  0  0  0  0  0  0
    0.3510    0.1080   -5.3930 C   0  0  0  0  0  0  0  0  0  0  0  0
   -0.7120    0.4640   -4.6990 N   0  0  0  0  0  0  0  0  0  0  0  0
   -1.4630   -0.4510   -4.0770 C   0  0  0  0  0  0  0  0  0  0  0  0
   -5.8456    0.9736    0.2022 H   0  0  0  0  0  0  0  0  0  0  0  0
   -4.3344    0.0552    0.7119 H   0  0  0  0  0  0  0  0  0  0  0  0
   -3.7153    2.1213   -0.1587 H   0  0  0  0  0  0  0  0  0  0  0  0
   -5.9097    2.1945   -1.8835 H   0  0  0  0  0  0  0  0  0  0  0  0
   -4.1683    3.7626   -1.3978 H   0  0  0  0  0  0  0  0  0  0  0  0
   -5.3154    0.3092   -3.2942 H   0  0  0  0  0  0  0  0  0  0  0  0
   -4.9216    2.6643   -4.3816 H   0  0  0  0  0  0  0  0  0  0  0  0
   -2.6663    1.5677   -3.5021 H   0  0  0  0  0  0  0  0  0  0  0  0
   -3.7071   -1.8878   -2.3761 H   0  0  0  0  0  0  0  0  0  0  0  0
    1.3071   -3.6308   -5.6961 H   0  0  0  0  0  0  0  0  0  0  0  0
   -0.0614   -4.1948   -4.7002 H   0  0  0  0  0  0  0  0  0  0  0  0
    0.9569    0.8926   -5.8697 H   0  0  0  0  0  0  0  0  0  0  0  0
  1  2  2  0
  1  3  2  0
  1  4  1  1
  1  8  1  0
  5  6  2  0
  5  7  1  1
  5  8  1  0
  5  9  1  0
  9 10  1  0
 11 10  1  0
 11 12  1  0
 11 13  1  0
 12 17  1  0
 13 14  1  0
 13 15  1  0
 15 16  1  0
 15 17  1  0
 17 18  1  0
 18 19  1  0
 18 27  1  0
 19 20  2  0
 20 21  1  0
 21 22  2  0
 21 27  1  0
 22 23  1  0
 22 24  1  0
 24 25  2  0
 25 26  1  0
 26 27  2  0
 10 28  1  0
 10 29  1  0
 11 30  1  1
 13 31  1  1
 14 32  1  0
 15 33  1  6
 16 34  1  0
 17 35  1  6
 19 36  1  0
 23 37  1  0
 23 38  1  0
 25 39  1  0
M  CHG  2   4  -1   7  -1
M  END
>  <filename_input>  (26) 
7FHA_ADX_docked.sdf

>  <pdb_id>  (26) 
7FHA_ADX

>  <pose_rank>  (26) 
25

>  <num_atoms_heavy>  (26) 
27

>  <num_torsions>  (26) 
6

>  <pose>  (26) 
[-4.059, 1.394, -0.909, 1e-06, 1e-06, 1e-06, 0.0, 0.0, 0.0, 0.0, 0.0, 0.0]

>  <energy>  (26) 
-977.4751184711639

>  <inter_energy>  (26) 
-994.3841949663174

>  <intra_energy>  (26) 
17.981418087089917

>  <rmsd>  (26) 
0.0

>  <sdf_rank>  (26) 
0

$$$$
