
     RDKit          3D

 47 49  0  0  0  0  0  0  0  0999 V2000
   89.3132  -42.3377   65.7798 C   0  0  0  0  0  0  0  0  0  0  0  0
   80.0443  -45.3718   67.6477 O   0  0  0  0  0  0  0  0  0  0  0  0
   90.2920  -42.5938   66.6928 C   0  0  0  0  0  0  0  0  0  0  0  0
   83.6760  -44.6842   64.4777 C   0  0  0  0  0  0  0  0  0  0  0  0
   82.6108  -45.4306   64.9536 C   0  0  0  0  0  0  0  0  0  0  0  0
   78.2659  -44.3817   65.7012 C   0  0  0  0  0  0  0  0  0  0  0  0
   77.2083  -44.0059   64.8967 C   0  0  0  0  0  0  0  0  0  0  0  0
   76.2097  -43.1717   65.3275 O   0  0  0  0  0  0  0  0  0  0  0  0
   79.0914  -45.8012   63.9309 C   0  0  0  0  0  0  0  0  0  0  0  0
   77.0698  -44.5132   63.5671 C   0  0  0  0  0  0  0  0  0  0  0  0
   78.0452  -45.4237   63.0669 C   0  0  0  0  0  0  0  0  0  0  0  0
   81.7072  -44.8855   65.8308 C   0  0  0  0  0  0  0  0  0  0  0  0
   79.2217  -45.3034   65.2549 C   0  0  0  0  0  0  0  0  0  0  0  0
   81.8941  -43.5614   66.2253 C   0  0  0  0  0  0  0  0  0  0  0  0
   82.9494  -42.8044   65.7569 C   0  0  0  0  0  0  0  0  0  0  0  0
   76.0364  -44.1988   62.7539 O   0  0  0  0  0  0  0  0  0  0  0  0
   83.8492  -43.3855   64.8649 C   0  0  0  0  0  0  0  0  0  0  0  0
   88.3256  -40.7923   67.3628 C   0  0  0  0  0  0  0  0  0  0  0  0
   87.6983  -40.9449   63.6970 O   0  0  0  0  0  0  0  0  0  0  0  0
   89.3445  -41.0168   68.2892 C   0  0  0  0  0  0  0  0  0  0  0  0
   88.2955  -41.4438   66.0838 C   0  0  0  0  0  0  0  0  0  0  0  0
   85.0167  -42.7070   64.1841 C   0  0  0  0  0  0  0  0  0  0  0  0
   86.1466  -40.2231   65.4731 O   0  0  0  0  0  0  0  0  0  0  0  0
   87.0954  -41.1403   64.9623 S   0  0  1  0  0  0  0  0  0  0  0  0
   91.1618  -43.5977   66.4590 O   0  0  0  0  0  0  0  0  0  0  0  0
   90.3503  -41.9389   67.9533 C   0  0  0  0  0  0  0  0  0  0  0  0
   91.3052  -42.1546   68.8846 O   0  0  0  0  0  0  0  0  0  0  0  0
   86.2617  -42.5608   64.9265 N   0  0  0  0  0  0  0  0  0  0  0  0
   80.4280  -45.7918   66.3345 S   0  0  2  0  0  0  0  0  0  0  0  0
   80.7296  -47.1463   66.1305 O   0  0  0  0  0  0  0  0  0  0  0  0
   89.3296  -42.8398   64.8012 H   0  0  0  0  0  0  0  0  0  0  0  0
   84.3915  -45.1428   63.7793 H   0  0  0  0  0  0  0  0  0  0  0  0
   82.4877  -46.4729   64.6245 H   0  0  0  0  0  0  0  0  0  0  0  0
   78.3592  -43.9504   66.7088 H   0  0  0  0  0  0  0  0  0  0  0  0
   75.4699  -42.9283   64.7164 H   0  0  0  0  0  0  0  0  0  0  0  0
   79.8430  -46.5153   63.5632 H   0  0  0  0  0  0  0  0  0  0  0  0
   77.9833  -45.8179   62.0418 H   0  0  0  0  0  0  0  0  0  0  0  0
   81.1811  -43.1073   66.9292 H   0  0  0  0  0  0  0  0  0  0  0  0
   83.0779  -41.7614   66.0819 H   0  0  0  0  0  0  0  0  0  0  0  0
   75.9910  -44.5797   61.8412 H   0  0  0  0  0  0  0  0  0  0  0  0
   87.5176  -40.0921   67.6212 H   0  0  0  0  0  0  0  0  0  0  0  0
   89.3599  -40.4878   69.2535 H   0  0  0  0  0  0  0  0  0  0  0  0
   85.2451  -43.2855   63.2767 H   0  0  0  0  0  0  0  0  0  0  0  0
   84.6739  -41.6740   64.0246 H   0  0  0  0  0  0  0  0  0  0  0  0
   91.8778  -43.7949   67.1136 H   0  0  0  0  0  0  0  0  0  0  0  0
   91.2812  -41.6603   69.7420 H   0  0  0  0  0  0  0  0  0  0  0  0
   86.0419  -42.7909   65.9061 H   0  0  0  0  0  0  0  0  0  0  0  0
  1  3  2  0
  1 21  1  0
  2 29  2  0
  3 25  1  0
  3 26  1  0
  4  5  2  0
  4 17  1  0
  5 12  1  0
  6  7  2  0
  6 13  1  0
  7  8  1  0
  7 10  1  0
  9 11  1  0
  9 13  2  0
 10 11  2  0
 10 16  1  0
 12 14  2  0
 29 12  1  6
 13 29  1  0
 14 15  1  0
 15 17  2  0
 17 22  1  0
 18 20  1  0
 18 21  2  0
 19 24  2  0
 20 26  2  0
 21 24  1  0
 22 28  1  0
 23 24  2  0
 24 28  1  6
 26 27  1  0
 29 30  2  0
  1 31  1  0
  4 32  1  0
  5 33  1  0
  6 34  1  0
  8 35  1  0
  9 36  1  0
 11 37  1  0
 14 38  1  0
 15 39  1  0
 16 40  1  0
 18 41  1  0
 20 42  1  0
 22 43  1  0
 22 44  1  0
 25 45  1  0
 27 46  1  0
 28 47  1  0
M  END
>  <filename_input>  (1) 
7FRX_O88_docked.sdf

>  <pdb_id>  (1) 
7FRX_O88

>  <pose_rank>  (1) 
0

>  <num_atoms_heavy>  (1) 
30

>  <num_torsions>  (1) 
6

>  <pose>  (1) 
[83.6759790208923, -44.68422350541341, 64.47772093257907, 3.562947742876281, -1.8045439132256484, -4.66271531855516, -6.607656710176978, -0.079677882620243, -5.102037617010365, 0.8026131974701689, -7.946204634549177, 2.59413717290385]

>  <energy>  (1) 
-948.157925498071

>  <inter_energy>  (1) 
-944.2182624810678

>  <intra_energy>  (1) 
0.46219928118754816

>  <rmsd>  (1) 
1.4267

>  <sdf_rank>  (1) 
0

$$$$

     RDKit          3D

 47 49  0  0  0  0  0  0  0  0999 V2000
   78.2622  -44.2570   65.7743 C   0  0  0  0  0  0  0  0  0  0  0  0
   86.7937  -39.4468   64.6076 O   0  0  0  0  0  0  0  0  0  0  0  0
   77.2738  -43.8325   64.9377 C   0  0  0  0  0  0  0  0  0  0  0  0
   83.5524  -41.7161   65.9466 C   0  0  0  0  0  0  0  0  0  0  0  0
   84.7069  -41.0453   65.5790 C   0  0  0  0  0  0  0  0  0  0  0  0
   89.1671  -42.2293   65.2458 C   0  0  0  0  0  0  0  0  0  0  0  0
   90.0625  -42.7190   66.1760 C   0  0  0  0  0  0  0  0  0  0  0  0
   91.0003  -43.6713   65.8717 O   0  0  0  0  0  0  0  0  0  0  0  0
   88.1366  -40.8833   66.9652 C   0  0  0  0  0  0  0  0  0  0  0  0
   90.0273  -42.2885   67.5390 C   0  0  0  0  0  0  0  0  0  0  0  0
   89.0473  -41.3348   67.9401 C   0  0  0  0  0  0  0  0  0  0  0  0
   85.7101  -41.6922   64.9020 C   0  0  0  0  0  0  0  0  0  0  0  0
   88.1674  -41.3197   65.6139 C   0  0  0  0  0  0  0  0  0  0  0  0
   85.5303  -43.0405   64.5962 C   0  0  0  0  0  0  0  0  0  0  0  0
   84.3836  -43.7213   64.9535 C   0  0  0  0  0  0  0  0  0  0  0  0
   90.8621  -42.7618   68.4913 O   0  0  0  0  0  0  0  0  0  0  0  0
   83.3815  -43.0361   65.6384 C   0  0  0  0  0  0  0  0  0  0  0  0
   79.0763  -45.6807   63.9911 C   0  0  0  0  0  0  0  0  0  0  0  0
   80.5455  -47.1169   66.2167 O   0  0  0  0  0  0  0  0  0  0  0  0
   78.0927  -45.2234   63.1134 C   0  0  0  0  0  0  0  0  0  0  0  0
   79.1851  -45.1983   65.3389 C   0  0  0  0  0  0  0  0  0  0  0  0
   82.0303  -43.5778   66.0483 C   0  0  0  0  0  0  0  0  0  0  0  0
   80.2446  -45.1343   67.6528 O   0  0  0  0  0  0  0  0  0  0  0  0
   80.3896  -45.7190   66.3723 S   0  0  1  0  0  0  0  0  0  0  0  0
   76.2800  -43.0658   65.4312 O   0  0  0  0  0  0  0  0  0  0  0  0
   77.1670  -44.2812   63.5929 C   0  0  0  0  0  0  0  0  0  0  0  0
   76.2102  -43.8817   62.7264 O   0  0  0  0  0  0  0  0  0  0  0  0
   81.7321  -44.9768   65.7713 N   0  0  0  0  0  0  0  0  0  0  0  0
   87.0452  -40.8457   64.4411 S   0  0  2  0  0  0  0  0  0  0  0  0
   87.4532  -41.3031   63.1794 O   0  0  0  0  0  0  0  0  0  0  0  0
   78.3290  -43.8534   66.7954 H   0  0  0  0  0  0  0  0  0  0  0  0
   82.7632  -41.1794   66.4935 H   0  0  0  0  0  0  0  0  0  0  0  0
   84.8213  -39.9811   65.8329 H   0  0  0  0  0  0  0  0  0  0  0  0
   89.2399  -42.5590   64.1988 H   0  0  0  0  0  0  0  0  0  0  0  0
   91.6229  -43.9939   66.5705 H   0  0  0  0  0  0  0  0  0  0  0  0
   87.3651  -40.1586   67.2645 H   0  0  0  0  0  0  0  0  0  0  0  0
   89.0036  -40.9643   68.9749 H   0  0  0  0  0  0  0  0  0  0  0  0
   86.3240  -43.5767   64.0553 H   0  0  0  0  0  0  0  0  0  0  0  0
   84.2630  -44.7854   64.7023 H   0  0  0  0  0  0  0  0  0  0  0  0
   90.7931  -42.4277   69.4207 H   0  0  0  0  0  0  0  0  0  0  0  0
   79.7930  -46.4368   63.6381 H   0  0  0  0  0  0  0  0  0  0  0  0
   78.0435  -45.5894   62.0773 H   0  0  0  0  0  0  0  0  0  0  0  0
   81.9384  -43.4346   67.1350 H   0  0  0  0  0  0  0  0  0  0  0  0
   81.3151  -43.0203   65.4257 H   0  0  0  0  0  0  0  0  0  0  0  0
   75.5555  -42.7503   64.8349 H   0  0  0  0  0  0  0  0  0  0  0  0
   76.1989  -44.2380   61.8028 H   0  0  0  0  0  0  0  0  0  0  0  0
   81.6740  -45.0617   64.7465 H   0  0  0  0  0  0  0  0  0  0  0  0
  1  3  2  0
  1 21  1  0
  2 29  2  0
  3 25  1  0
  3 26  1  0
  4  5  2  0
  4 17  1  0
  5 12  1  0
  6  7  2  0
  6 13  1  0
  7  8  1  0
  7 10  1  0
  9 11  1  0
  9 13  2  0
 10 11  2  0
 10 16  1  0
 12 14  2  0
 29 12  1  1
 13 29  1  0
 14 15  1  0
 15 17  2  0
 17 22  1  0
 18 20  1  0
 18 21  2  0
 19 24  2  0
 20 26  2  0
 21 24  1  0
 22 28  1  0
 23 24  2  0
 24 28  1  6
 26 27  1  0
 29 30  2  0
  1 31  1  0
  4 32  1  0
  5 33  1  0
  6 34  1  0
  8 35  1  0
  9 36  1  0
 11 37  1  0
 14 38  1  0
 15 39  1  0
 16 40  1  0
 18 41  1  0
 20 42  1  0
 22 43  1  0
 22 44  1  0
 25 45  1  0
 27 46  1  0
 28 47  1  0
M  END
>  <filename_input>  (2) 
7FRX_O88_docked.sdf

>  <pdb_id>  (2) 
7FRX_O88

>  <pose_rank>  (2) 
1

>  <num_atoms_heavy>  (2) 
30

>  <num_torsions>  (2) 
6

>  <pose>  (2) 
[83.55239328135357, -41.716122808892315, 65.94662781729541, 1.4446224293357737, -1.0815788208849635, 2.5817657564806176, -3.164861546896946, -2.759936759133362, -0.19035615059735214, -0.1666073532451061, -3.2931691084069175, -6.757717001470435]

>  <energy>  (2) 
-920.4722273771588

>  <inter_energy>  (2) 
-907.0054614953576

>  <intra_energy>  (2) 
0.293149069946095

>  <rmsd>  (2) 
10.2967

>  <sdf_rank>  (2) 
0

$$$$

     RDKit          3D

 47 49  0  0  0  0  0  0  0  0999 V2000
   88.3236  -41.6949   67.0300 C   0  0  0  0  0  0  0  0  0  0  0  0
   79.3811  -45.3783   67.5442 O   0  0  0  0  0  0  0  0  0  0  0  0
   89.4541  -42.0587   67.6983 C   0  0  0  0  0  0  0  0  0  0  0  0
   82.3152  -42.5311   66.6338 C   0  0  0  0  0  0  0  0  0  0  0  0
   81.2594  -43.4141   66.7877 C   0  0  0  0  0  0  0  0  0  0  0  0
   78.4902  -45.7333   63.9697 C   0  0  0  0  0  0  0  0  0  0  0  0
   77.6216  -45.2756   62.9987 C   0  0  0  0  0  0  0  0  0  0  0  0
   77.4156  -45.9387   61.8169 O   0  0  0  0  0  0  0  0  0  0  0  0
   78.0330  -43.7634   65.2891 C   0  0  0  0  0  0  0  0  0  0  0  0
   76.9166  -44.0415   63.1549 C   0  0  0  0  0  0  0  0  0  0  0  0
   77.1174  -43.2729   64.3380 C   0  0  0  0  0  0  0  0  0  0  0  0
   81.1365  -44.5112   65.9726 C   0  0  0  0  0  0  0  0  0  0  0  0
   78.7395  -44.9850   65.1274 C   0  0  0  0  0  0  0  0  0  0  0  0
   82.1049  -44.7086   64.9893 C   0  0  0  0  0  0  0  0  0  0  0  0
   83.1644  -43.8386   64.8262 C   0  0  0  0  0  0  0  0  0  0  0  0
   76.0805  -43.5378   62.2194 O   0  0  0  0  0  0  0  0  0  0  0  0
   83.2632  -42.7345   65.6713 C   0  0  0  0  0  0  0  0  0  0  0  0
   89.4793  -42.1512   64.9503 C   0  0  0  0  0  0  0  0  0  0  0  0
   87.0278  -41.6644   63.4780 O   0  0  0  0  0  0  0  0  0  0  0  0
   90.6287  -42.5639   65.6251 C   0  0  0  0  0  0  0  0  0  0  0  0
   88.2990  -41.7160   65.6421 C   0  0  0  0  0  0  0  0  0  0  0  0
   84.3797  -41.7149   65.7038 C   0  0  0  0  0  0  0  0  0  0  0  0
   86.5340  -39.9424   65.1734 O   0  0  0  0  0  0  0  0  0  0  0  0
   86.9119  -41.2621   64.8298 S   0  0  1  0  0  0  0  0  0  0  0  0
   89.5245  -41.8542   69.0296 O   0  0  0  0  0  0  0  0  0  0  0  0
   90.6225  -42.5156   67.0295 C   0  0  0  0  0  0  0  0  0  0  0  0
   91.7613  -42.8940   67.6504 O   0  0  0  0  0  0  0  0  0  0  0  0
   85.7503  -42.1835   65.5481 N   0  0  0  0  0  0  0  0  0  0  0  0
   79.8933  -45.5622   66.2206 S   0  0  2  0  0  0  0  0  0  0  0  0
   80.3088  -46.8467   65.8402 O   0  0  0  0  0  0  0  0  0  0  0  0
   87.4297  -41.3842   67.5907 H   0  0  0  0  0  0  0  0  0  0  0  0
   82.3914  -41.6552   67.2948 H   0  0  0  0  0  0  0  0  0  0  0  0
   80.5103  -43.2338   67.5728 H   0  0  0  0  0  0  0  0  0  0  0  0
   78.9946  -46.7011   63.8320 H   0  0  0  0  0  0  0  0  0  0  0  0
   76.7830  -45.5740   61.1484 H   0  0  0  0  0  0  0  0  0  0  0  0
   78.2093  -43.1727   66.2001 H   0  0  0  0  0  0  0  0  0  0  0  0
   76.5762  -42.3294   64.5026 H   0  0  0  0  0  0  0  0  0  0  0  0
   82.0226  -45.5816   64.3251 H   0  0  0  0  0  0  0  0  0  0  0  0
   83.9171  -44.0135   64.0433 H   0  0  0  0  0  0  0  0  0  0  0  0
   75.6179  -42.6776   62.3806 H   0  0  0  0  0  0  0  0  0  0  0  0
   89.4774  -42.1596   63.8503 H   0  0  0  0  0  0  0  0  0  0  0  0
   91.5132  -42.9164   65.0743 H   0  0  0  0  0  0  0  0  0  0  0  0
   84.1875  -40.9962   64.8935 H   0  0  0  0  0  0  0  0  0  0  0  0
   84.3467  -41.3101   66.7261 H   0  0  0  0  0  0  0  0  0  0  0  0
   90.3397  -42.1136   69.5278 H   0  0  0  0  0  0  0  0  0  0  0  0
   92.5368  -43.2020   67.1176 H   0  0  0  0  0  0  0  0  0  0  0  0
   86.0933  -42.3919   66.4967 H   0  0  0  0  0  0  0  0  0  0  0  0
  1  3  2  0
  1 21  1  0
  2 29  2  0
  3 25  1  0
  3 26  1  0
  4  5  2  0
  4 17  1  0
  5 12  1  0
  6  7  2  0
  6 13  1  0
  7  8  1  0
  7 10  1  0
  9 11  1  0
  9 13  2  0
 10 11  2  0
 10 16  1  0
 12 14  2  0
 29 12  1  1
 13 29  1  0
 14 15  1  0
 15 17  2  0
 17 22  1  0
 18 20  1  0
 18 21  2  0
 19 24  2  0
 20 26  2  0
 21 24  1  0
 22 28  1  0
 23 24  2  0
 24 28  1  1
 26 27  1  0
 29 30  2  0
  1 31  1  0
  4 32  1  0
  5 33  1  0
  6 34  1  0
  8 35  1  0
  9 36  1  0
 11 37  1  0
 14 38  1  0
 15 39  1  0
 16 40  1  0
 18 41  1  0
 20 42  1  0
 22 43  1  0
 22 44  1  0
 25 45  1  0
 27 46  1  0
 28 47  1  0
M  END
>  <filename_input>  (3) 
7FRX_O88_docked.sdf

>  <pdb_id>  (3) 
7FRX_O88

>  <pose_rank>  (3) 
2

>  <num_atoms_heavy>  (3) 
30

>  <num_torsions>  (3) 
6

>  <pose>  (3) 
[82.31520319562915, -42.531127587242416, 66.63382438413653, 2.6506583382298685, 1.8732112508903502, -0.6550145049015065, 2.9966190665743535, -2.720705913730832, -0.9470840908077065, -0.5542674541377889, -2.1010999944343247, 0.48264355676220855]

>  <energy>  (3) 
-910.7902157580942

>  <inter_energy>  (3) 
-894.9988080762658

>  <intra_energy>  (3) 
1.5250161525846138

>  <rmsd>  (3) 
1.39419

>  <sdf_rank>  (3) 
0

$$$$

     RDKit          3D

 47 49  0  0  0  0  0  0  0  0999 V2000
   80.4906  -45.4619   64.5378 C   0  0  0  0  0  0  0  0  0  0  0  0
   87.1650  -39.2880   65.1161 O   0  0  0  0  0  0  0  0  0  0  0  0
   80.8698  -46.7373   64.2437 C   0  0  0  0  0  0  0  0  0  0  0  0
   84.1838  -43.1317   64.8936 C   0  0  0  0  0  0  0  0  0  0  0  0
   85.3749  -42.5042   64.5682 C   0  0  0  0  0  0  0  0  0  0  0  0
   89.1969  -42.3323   65.5709 C   0  0  0  0  0  0  0  0  0  0  0  0
   90.0054  -42.9996   66.4697 C   0  0  0  0  0  0  0  0  0  0  0  0
   90.8806  -43.9838   66.0899 O   0  0  0  0  0  0  0  0  0  0  0  0
   88.1907  -41.1163   67.3983 C   0  0  0  0  0  0  0  0  0  0  0  0
   89.9370  -42.7301   67.8723 C   0  0  0  0  0  0  0  0  0  0  0  0
   89.0152  -41.7523   68.3466 C   0  0  0  0  0  0  0  0  0  0  0  0
   85.7840  -41.3808   65.2418 C   0  0  0  0  0  0  0  0  0  0  0  0
   88.2537  -41.3926   66.0064 C   0  0  0  0  0  0  0  0  0  0  0  0
   84.9664  -40.8936   66.2606 C   0  0  0  0  0  0  0  0  0  0  0  0
   83.7781  -41.5103   66.5978 C   0  0  0  0  0  0  0  0  0  0  0  0
   90.6853  -43.3788   68.7927 O   0  0  0  0  0  0  0  0  0  0  0  0
   83.3908  -42.6512   65.8970 C   0  0  0  0  0  0  0  0  0  0  0  0
   79.7848  -46.2400   66.7208 C   0  0  0  0  0  0  0  0  0  0  0  0
   78.7284  -43.6148   67.3357 O   0  0  0  0  0  0  0  0  0  0  0  0
   80.2062  -47.5412   66.4452 C   0  0  0  0  0  0  0  0  0  0  0  0
   79.9274  -45.1712   65.7729 C   0  0  0  0  0  0  0  0  0  0  0  0
   82.1735  -43.5085   66.1624 C   0  0  0  0  0  0  0  0  0  0  0  0
   78.9589  -42.9582   64.9694 O   0  0  0  0  0  0  0  0  0  0  0  0
   79.4587  -43.6068   66.1236 S   0  0  1  0  0  0  0  0  0  0  0  0
   81.2378  -47.0385   62.9816 O   0  0  0  0  0  0  0  0  0  0  0  0
   80.7585  -47.8017   65.1796 C   0  0  0  0  0  0  0  0  0  0  0  0
   81.1289  -49.0779   64.9350 O   0  0  0  0  0  0  0  0  0  0  0  0
   80.8958  -42.8459   66.3883 N   0  0  0  0  0  0  0  0  0  0  0  0
   87.2300  -40.6938   64.8562 S   0  0  2  0  0  0  0  0  0  0  0  0
   87.5992  -41.1166   63.5707 O   0  0  0  0  0  0  0  0  0  0  0  0
   80.6309  -44.6620   63.7958 H   0  0  0  0  0  0  0  0  0  0  0  0
   83.8725  -44.0280   64.3372 H   0  0  0  0  0  0  0  0  0  0  0  0
   86.0004  -42.9113   63.7602 H   0  0  0  0  0  0  0  0  0  0  0  0
   89.2950  -42.5420   64.4955 H   0  0  0  0  0  0  0  0  0  0  0  0
   91.4416  -44.4362   66.7687 H   0  0  0  0  0  0  0  0  0  0  0  0
   87.4638  -40.3704   67.7522 H   0  0  0  0  0  0  0  0  0  0  0  0
   88.9498  -41.5031   69.4160 H   0  0  0  0  0  0  0  0  0  0  0  0
   85.2767  -39.9931   66.8108 H   0  0  0  0  0  0  0  0  0  0  0  0
   83.1483  -41.1084   67.4052 H   0  0  0  0  0  0  0  0  0  0  0  0
   90.5970  -43.1512   69.7521 H   0  0  0  0  0  0  0  0  0  0  0  0
   79.3275  -46.0256   67.6980 H   0  0  0  0  0  0  0  0  0  0  0  0
   80.1090  -48.3391   67.1960 H   0  0  0  0  0  0  0  0  0  0  0  0
   82.0470  -44.1716   65.2938 H   0  0  0  0  0  0  0  0  0  0  0  0
   82.3946  -44.0034   67.1195 H   0  0  0  0  0  0  0  0  0  0  0  0
   81.5156  -47.9610   62.7538 H   0  0  0  0  0  0  0  0  0  0  0  0
   81.0216  -49.7677   65.6370 H   0  0  0  0  0  0  0  0  0  0  0  0
   80.8915  -42.5575   67.3771 H   0  0  0  0  0  0  0  0  0  0  0  0
  1  3  2  0
  1 21  1  0
  2 29  2  0
  3 25  1  0
  3 26  1  0
  4  5  2  0
  4 17  1  0
  5 12  1  0
  6  7  2  0
  6 13  1  0
  7  8  1  0
  7 10  1  0
  9 11  1  0
  9 13  2  0
 10 11  2  0
 10 16  1  0
 12 14  2  0
 29 12  1  1
 13 29  1  0
 14 15  1  0
 15 17  2  0
 17 22  1  0
 18 20  1  0
 18 21  2  0
 19 24  2  0
 20 26  2  0
 21 24  1  0
 22 28  1  0
 23 24  2  0
 24 28  1  1
 26 27  1  0
 29 30  2  0
  1 31  1  0
  4 32  1  0
  5 33  1  0
  6 34  1  0
  8 35  1  0
  9 36  1  0
 11 37  1  0
 14 38  1  0
 15 39  1  0
 16 40  1  0
 18 41  1  0
 20 42  1  0
 22 43  1  0
 22 44  1  0
 25 45  1  0
 27 46  1  0
 28 47  1  0
M  END
>  <filename_input>  (4) 
7FRX_O88_docked.sdf

>  <pdb_id>  (4) 
7FRX_O88

>  <pose_rank>  (4) 
3

>  <num_atoms_heavy>  (4) 
30

>  <num_torsions>  (4) 
6

>  <pose>  (4) 
[84.18383688904328, -43.13167350143679, 64.89358920088655, -0.6362103007862152, 2.254783019417096, 2.0237046181742078, -0.32407881735795246, 3.6032049068596232, 6.836244352378638, -25.549041892038467, -10.853946583913318, 0.08180554520277043]

>  <energy>  (4) 
-791.0614689126024

>  <inter_energy>  (4) 
-796.2533614946516

>  <intra_energy>  (4) 
21.67195122162123

>  <rmsd>  (4) 
9.69177

>  <sdf_rank>  (4) 
0

$$$$

     RDKit          3D

 47 49  0  0  0  0  0  0  0  0999 V2000
   86.3935  -42.1264   62.2577 C   0  0  0  0  0  0  0  0  0  0  0  0
   79.8762  -46.4821   67.0895 O   0  0  0  0  0  0  0  0  0  0  0  0
   86.3019  -42.9374   61.1664 C   0  0  0  0  0  0  0  0  0  0  0  0
   83.5526  -44.0220   65.2875 C   0  0  0  0  0  0  0  0  0  0  0  0
   82.6254  -45.0505   65.2620 C   0  0  0  0  0  0  0  0  0  0  0  0
   78.6232  -45.8872   63.7306 C   0  0  0  0  0  0  0  0  0  0  0  0
   77.6334  -45.2672   62.9939 C   0  0  0  0  0  0  0  0  0  0  0  0
   77.2757  -45.6816   61.7372 O   0  0  0  0  0  0  0  0  0  0  0  0
   78.3382  -44.2417   65.4745 C   0  0  0  0  0  0  0  0  0  0  0  0
   76.9519  -44.1122   63.4896 C   0  0  0  0  0  0  0  0  0  0  0  0
   77.3044  -43.5950   64.7699 C   0  0  0  0  0  0  0  0  0  0  0  0
   81.4010  -44.9077   65.8651 C   0  0  0  0  0  0  0  0  0  0  0  0
   79.0205  -45.3834   64.9758 C   0  0  0  0  0  0  0  0  0  0  0  0
   81.1209  -43.6989   66.5008 C   0  0  0  0  0  0  0  0  0  0  0  0
   82.0342  -42.6640   66.5316 C   0  0  0  0  0  0  0  0  0  0  0  0
   75.9989  -43.4534   62.7926 O   0  0  0  0  0  0  0  0  0  0  0  0
   83.2684  -42.8384   65.9078 C   0  0  0  0  0  0  0  0  0  0  0  0
   87.1422  -44.0399   63.5411 C   0  0  0  0  0  0  0  0  0  0  0  0
   86.5182  -40.3413   64.4308 O   0  0  0  0  0  0  0  0  0  0  0  0
   87.0904  -44.8705   62.4212 C   0  0  0  0  0  0  0  0  0  0  0  0
   86.8021  -42.6465   63.4782 C   0  0  0  0  0  0  0  0  0  0  0  0
   84.3660  -41.8078   65.7657 C   0  0  0  0  0  0  0  0  0  0  0  0
   88.1058  -41.8789   65.5256 O   0  0  0  0  0  0  0  0  0  0  0  0
   86.9053  -41.6477   64.8130 S   0  0  1  0  0  0  0  0  0  0  0  0
   85.7273  -42.4631   60.0421 O   0  0  0  0  0  0  0  0  0  0  0  0
   86.6585  -44.3131   61.2057 C   0  0  0  0  0  0  0  0  0  0  0  0
   86.5919  -45.1516   60.1483 O   0  0  0  0  0  0  0  0  0  0  0  0
   85.7504  -42.2590   65.8164 N   0  0  0  0  0  0  0  0  0  0  0  0
   80.3093  -46.1368   65.7700 S   0  0  2  0  0  0  0  0  0  0  0  0
   80.8425  -47.1488   64.9582 O   0  0  0  0  0  0  0  0  0  0  0  0
   86.1435  -41.0587   62.1713 H   0  0  0  0  0  0  0  0  0  0  0  0
   84.5301  -44.1599   64.8021 H   0  0  0  0  0  0  0  0  0  0  0  0
   82.8734  -45.9932   64.7523 H   0  0  0  0  0  0  0  0  0  0  0  0
   79.1076  -46.7914   63.3332 H   0  0  0  0  0  0  0  0  0  0  0  0
   76.5598  -45.2072   61.2447 H   0  0  0  0  0  0  0  0  0  0  0  0
   78.6311  -43.8439   66.4573 H   0  0  0  0  0  0  0  0  0  0  0  0
   76.7871  -42.7212   65.1930 H   0  0  0  0  0  0  0  0  0  0  0  0
   80.1453  -43.5661   66.9914 H   0  0  0  0  0  0  0  0  0  0  0  0
   81.7921  -41.7187   67.0394 H   0  0  0  0  0  0  0  0  0  0  0  0
   75.5592  -42.6581   63.1853 H   0  0  0  0  0  0  0  0  0  0  0  0
   87.4543  -44.4674   64.5053 H   0  0  0  0  0  0  0  0  0  0  0  0
   87.3789  -45.9299   62.4878 H   0  0  0  0  0  0  0  0  0  0  0  0
   84.2214  -41.3102   64.7954 H   0  0  0  0  0  0  0  0  0  0  0  0
   84.2562  -41.1711   66.6559 H   0  0  0  0  0  0  0  0  0  0  0  0
   85.6540  -43.0413   59.2418 H   0  0  0  0  0  0  0  0  0  0  0  0
   86.8575  -46.0998   60.2509 H   0  0  0  0  0  0  0  0  0  0  0  0
   86.0775  -42.0783   66.7762 H   0  0  0  0  0  0  0  0  0  0  0  0
  1  3  2  0
  1 21  1  0
  2 29  2  0
  3 25  1  0
  3 26  1  0
  4  5  2  0
  4 17  1  0
  5 12  1  0
  6  7  2  0
  6 13  1  0
  7  8  1  0
  7 10  1  0
  9 11  1  0
  9 13  2  0
 10 11  2  0
 10 16  1  0
 12 14  2  0
 29 12  1  1
 13 29  1  0
 14 15  1  0
 15 17  2  0
 17 22  1  0
 18 20  1  0
 18 21  2  0
 19 24  2  0
 20 26  2  0
 21 24  1  0
 22 28  1  0
 23 24  2  0
 24 28  1  1
 26 27  1  0
 29 30  2  0
  1 31  1  0
  4 32  1  0
  5 33  1  0
  6 34  1  0
  8 35  1  0
  9 36  1  0
 11 37  1  0
 14 38  1  0
 15 39  1  0
 16 40  1  0
 18 41  1  0
 20 42  1  0
 22 43  1  0
 22 44  1  0
 25 45  1  0
 27 46  1  0
 28 47  1  0
M  END
>  <filename_input>  (5) 
7FRX_O88_docked.sdf

>  <pdb_id>  (5) 
7FRX_O88

>  <pose_rank>  (5) 
4

>  <num_atoms_heavy>  (5) 
30

>  <num_torsions>  (5) 
6

>  <pose>  (5) 
[83.55262900051781, -44.0220311386218, 65.28745039139055, -1.2093263553131417, 3.7992250429133994, -4.251989162681098, -0.7489386902739467, 3.7603957060436115, 2.2922736294811354, -0.7125196310562644, 0.0553653812675233, -2.891068390557346]

>  <energy>  (5) 
-788.6823546064196

>  <inter_energy>  (5) 
-799.1175000140827

>  <intra_energy>  (5) 
18.477104845478717

>  <rmsd>  (5) 
3.86083

>  <sdf_rank>  (5) 
0

$$$$

     RDKit          3D

 47 49  0  0  0  0  0  0  0  0999 V2000
   81.5547  -46.5533   63.9810 C   0  0  0  0  0  0  0  0  0  0  0  0
   87.0092  -40.5492   63.4594 O   0  0  0  0  0  0  0  0  0  0  0  0
   82.3762  -47.5211   63.4855 C   0  0  0  0  0  0  0  0  0  0  0  0
   83.8017  -43.8659   64.9579 C   0  0  0  0  0  0  0  0  0  0  0  0
   85.0007  -43.5205   64.3570 C   0  0  0  0  0  0  0  0  0  0  0  0
   88.1051  -41.0703   66.1171 C   0  0  0  0  0  0  0  0  0  0  0  0
   89.0024  -41.1130   67.1659 C   0  0  0  0  0  0  0  0  0  0  0  0
   89.1384  -40.0889   68.0667 O   0  0  0  0  0  0  0  0  0  0  0  0
   88.9243  -43.2067   65.3459 C   0  0  0  0  0  0  0  0  0  0  0  0
   89.8858  -42.2234   67.3427 C   0  0  0  0  0  0  0  0  0  0  0  0
   89.8348  -43.3048   66.4160 C   0  0  0  0  0  0  0  0  0  0  0  0
   85.5504  -42.2778   64.5487 C   0  0  0  0  0  0  0  0  0  0  0  0
   88.0544  -42.0982   65.1669 C   0  0  0  0  0  0  0  0  0  0  0  0
   84.8668  -41.3780   65.3653 C   0  0  0  0  0  0  0  0  0  0  0  0
   83.6724  -41.7094   65.9732 C   0  0  0  0  0  0  0  0  0  0  0  0
   90.8014  -42.2960   68.3349 O   0  0  0  0  0  0  0  0  0  0  0  0
   83.1406  -42.9804   65.7612 C   0  0  0  0  0  0  0  0  0  0  0  0
   81.4430  -47.7968   66.0572 C   0  0  0  0  0  0  0  0  0  0  0  0
   79.9714  -45.6063   67.2760 O   0  0  0  0  0  0  0  0  0  0  0  0
   82.3152  -48.7728   65.5741 C   0  0  0  0  0  0  0  0  0  0  0  0
   81.0522  -46.6612   65.2707 C   0  0  0  0  0  0  0  0  0  0  0  0
   81.8933  -43.5579   66.3918 C   0  0  0  0  0  0  0  0  0  0  0  0
   78.8681  -45.3668   65.0831 O   0  0  0  0  0  0  0  0  0  0  0  0
   80.0402  -45.4745   65.8687 S   0  0  1  0  0  0  0  0  0  0  0  0
   82.7021  -47.4991   62.1769 O   0  0  0  0  0  0  0  0  0  0  0  0
   82.7927  -48.6386   64.2593 C   0  0  0  0  0  0  0  0  0  0  0  0
   83.6117  -49.6163   63.8130 O   0  0  0  0  0  0  0  0  0  0  0  0
   80.8561  -44.0874   65.5163 N   0  0  0  0  0  0  0  0  0  0  0  0
   87.0015  -41.9245   63.8551 S   0  0  2  0  0  0  0  0  0  0  0  0
   87.2843  -42.8977   62.8855 O   0  0  0  0  0  0  0  0  0  0  0  0
   81.2894  -45.6860   63.3586 H   0  0  0  0  0  0  0  0  0  0  0  0
   83.3764  -44.8658   64.7863 H   0  0  0  0  0  0  0  0  0  0  0  0
   85.5187  -44.2511   63.7182 H   0  0  0  0  0  0  0  0  0  0  0  0
   87.4191  -40.2152   66.0264 H   0  0  0  0  0  0  0  0  0  0  0  0
   89.7950  -40.1621   68.8040 H   0  0  0  0  0  0  0  0  0  0  0  0
   88.8850  -44.0273   64.6144 H   0  0  0  0  0  0  0  0  0  0  0  0
   90.4838  -44.1853   66.5324 H   0  0  0  0  0  0  0  0  0  0  0  0
   85.2908  -40.3764   65.5297 H   0  0  0  0  0  0  0  0  0  0  0  0
   83.1497  -40.9836   66.6135 H   0  0  0  0  0  0  0  0  0  0  0  0
   91.3880  -43.0900   68.4099 H   0  0  0  0  0  0  0  0  0  0  0  0
   81.0410  -47.9010   67.0758 H   0  0  0  0  0  0  0  0  0  0  0  0
   82.6200  -49.6219   66.2036 H   0  0  0  0  0  0  0  0  0  0  0  0
   82.2123  -44.3784   67.0514 H   0  0  0  0  0  0  0  0  0  0  0  0
   81.4172  -42.6983   66.8862 H   0  0  0  0  0  0  0  0  0  0  0  0
   83.2980  -48.1959   61.8034 H   0  0  0  0  0  0  0  0  0  0  0  0
   83.8592  -50.3658   64.4105 H   0  0  0  0  0  0  0  0  0  0  0  0
   80.1444  -43.3476   65.4325 H   0  0  0  0  0  0  0  0  0  0  0  0
  1  3  2  0
  1 21  1  0
  2 29  2  0
  3 25  1  0
  3 26  1  0
  4  5  2  0
  4 17  1  0
  5 12  1  0
  6  7  2  0
  6 13  1  0
  7  8  1  0
  7 10  1  0
  9 11  1  0
  9 13  2  0
 10 11  2  0
 10 16  1  0
 12 14  2  0
 29 12  1  1
 13 29  1  0
 14 15  1  0
 15 17  2  0
 17 22  1  0
 18 20  1  0
 18 21  2  0
 19 24  2  0
 20 26  2  0
 21 24  1  0
 22 28  1  0
 23 24  2  0
 24 28  1  1
 26 27  1  0
 29 30  2  0
  1 31  1  0
  4 32  1  0
  5 33  1  0
  6 34  1  0
  8 35  1  0
  9 36  1  0
 11 37  1  0
 14 38  1  0
 15 39  1  0
 16 40  1  0
 18 41  1  0
 20 42  1  0
 22 43  1  0
 22 44  1  0
 25 45  1  0
 27 46  1  0
 28 47  1  0
M  END
>  <filename_input>  (6) 
7FRX_O88_docked.sdf

>  <pdb_id>  (6) 
7FRX_O88

>  <pose_rank>  (6) 
5

>  <num_atoms_heavy>  (6) 
30

>  <num_torsions>  (6) 
6

>  <pose>  (6) 
[83.80173265062588, -43.86592681189241, 64.95791654120566, 0.4626500228858594, -2.6303840073066853, -1.5996894950233667, -0.42902167454364054, 0.3426213431702759, 1.9458719349010665, -0.711728805960176, 0.1239962749867843, 0.5262804494642456]

>  <energy>  (6) 
-785.4036333463648

>  <inter_energy>  (6) 
-780.9721539445998

>  <intra_energy>  (6) 
7.185117631154306

>  <rmsd>  (6) 
9.3448

>  <sdf_rank>  (6) 
0

$$$$

     RDKit          3D

 47 49  0  0  0  0  0  0  0  0999 V2000
   78.6663  -45.9609   64.2412 C   0  0  0  0  0  0  0  0  0  0  0  0
   88.2269  -41.5070   65.3013 O   0  0  0  0  0  0  0  0  0  0  0  0
   77.8401  -46.0344   63.1599 C   0  0  0  0  0  0  0  0  0  0  0  0
   83.7539  -41.5474   66.4283 C   0  0  0  0  0  0  0  0  0  0  0  0
   84.9464  -41.0183   65.9635 C   0  0  0  0  0  0  0  0  0  0  0  0
   86.6143  -41.0669   61.9145 C   0  0  0  0  0  0  0  0  0  0  0  0
   86.5994  -41.6184   60.6486 C   0  0  0  0  0  0  0  0  0  0  0  0
   85.9330  -41.0434   59.5978 O   0  0  0  0  0  0  0  0  0  0  0  0
   87.8864  -42.9589   62.7099 C   0  0  0  0  0  0  0  0  0  0  0  0
   87.2470  -42.8631   60.3731 C   0  0  0  0  0  0  0  0  0  0  0  0
   87.9201  -43.5434   61.4290 C   0  0  0  0  0  0  0  0  0  0  0  0
   85.7347  -41.7238   65.0895 C   0  0  0  0  0  0  0  0  0  0  0  0
   87.2342  -41.7270   62.9833 C   0  0  0  0  0  0  0  0  0  0  0  0
   85.2983  -42.9846   64.6850 C   0  0  0  0  0  0  0  0  0  0  0  0
   84.1105  -43.5235   65.1377 C   0  0  0  0  0  0  0  0  0  0  0  0
   87.2333  -43.4569   59.1586 O   0  0  0  0  0  0  0  0  0  0  0  0
   83.3304  -42.7815   66.0230 C   0  0  0  0  0  0  0  0  0  0  0  0
   77.8988  -43.6907   64.5967 C   0  0  0  0  0  0  0  0  0  0  0  0
   80.1618  -46.0181   66.6472 O   0  0  0  0  0  0  0  0  0  0  0  0
   77.0200  -43.7686   63.5159 C   0  0  0  0  0  0  0  0  0  0  0  0
   78.7344  -44.7914   64.9860 C   0  0  0  0  0  0  0  0  0  0  0  0
   81.9722  -43.1594   66.5702 C   0  0  0  0  0  0  0  0  0  0  0  0
   79.2447  -43.8183   67.2824 O   0  0  0  0  0  0  0  0  0  0  0  0
   79.7545  -44.7065   66.3058 S   0  0  1  0  0  0  0  0  0  0  0  0
   77.9240  -47.1025   62.3407 O   0  0  0  0  0  0  0  0  0  0  0  0
   76.9882  -44.9629   62.7761 C   0  0  0  0  0  0  0  0  0  0  0  0
   76.1479  -44.9942   61.7184 O   0  0  0  0  0  0  0  0  0  0  0  0
   81.0587  -43.8970   65.7075 N   0  0  0  0  0  0  0  0  0  0  0  0
   87.1208  -41.0383   64.5235 S   0  0  2  0  0  0  0  0  0  0  0  0
   86.9241  -39.6539   64.4127 O   0  0  0  0  0  0  0  0  0  0  0  0
   79.2797  -46.8291   64.5240 H   0  0  0  0  0  0  0  0  0  0  0  0
   83.1400  -40.9668   67.1327 H   0  0  0  0  0  0  0  0  0  0  0  0
   85.2655  -40.0205   66.2990 H   0  0  0  0  0  0  0  0  0  0  0  0
   86.1316  -40.0936   62.0865 H   0  0  0  0  0  0  0  0  0  0  0  0
   85.9491  -41.4738   58.7064 H   0  0  0  0  0  0  0  0  0  0  0  0
   88.3888  -43.4809   63.5376 H   0  0  0  0  0  0  0  0  0  0  0  0
   88.4475  -44.4920   61.2498 H   0  0  0  0  0  0  0  0  0  0  0  0
   85.9174  -43.5661   63.9860 H   0  0  0  0  0  0  0  0  0  0  0  0
   83.7856  -44.5206   64.8056 H   0  0  0  0  0  0  0  0  0  0  0  0
   87.6993  -44.3200   59.0243 H   0  0  0  0  0  0  0  0  0  0  0  0
   77.9533  -42.7537   65.1704 H   0  0  0  0  0  0  0  0  0  0  0  0
   76.3716  -42.9205   63.2507 H   0  0  0  0  0  0  0  0  0  0  0  0
   82.1421  -43.7749   67.4659 H   0  0  0  0  0  0  0  0  0  0  0  0
   81.4691  -42.1952   66.7353 H   0  0  0  0  0  0  0  0  0  0  0  0
   77.3300  -47.1690   61.5515 H   0  0  0  0  0  0  0  0  0  0  0  0
   75.5832  -44.2079   61.5113 H   0  0  0  0  0  0  0  0  0  0  0  0
   80.6889  -43.2154   65.0296 H   0  0  0  0  0  0  0  0  0  0  0  0
  1  3  2  0
  1 21  1  0
  2 29  2  0
  3 25  1  0
  3 26  1  0
  4  5  2  0
  4 17  1  0
  5 12  1  0
  6  7  2  0
  6 13  1  0
  7  8  1  0
  7 10  1  0
  9 11  1  0
  9 13  2  0
 10 11  2  0
 10 16  1  0
 12 14  2  0
 29 12  1  1
 13 29  1  0
 14 15  1  0
 15 17  2  0
 17 22  1  0
 18 20  1  0
 18 21  2  0
 19 24  2  0
 20 26  2  0
 21 24  1  0
 22 28  1  0
 23 24  2  0
 24 28  1  6
 26 27  1  0
 29 30  2  0
  1 31  1  0
  4 32  1  0
  5 33  1  0
  6 34  1  0
  8 35  1  0
  9 36  1  0
 11 37  1  0
 14 38  1  0
 15 39  1  0
 16 40  1  0
 18 41  1  0
 20 42  1  0
 22 43  1  0
 22 44  1  0
 25 45  1  0
 27 46  1  0
 28 47  1  0
M  END
>  <filename_input>  (7) 
7FRX_O88_docked.sdf

>  <pdb_id>  (7) 
7FRX_O88

>  <pose_rank>  (7) 
6

>  <num_atoms_heavy>  (7) 
30

>  <num_torsions>  (7) 
6

>  <pose>  (7) 
[83.75387669766653, -41.5474019438849, 66.42832983811364, -1.5819569965644416, 1.3770296059131235, -2.496676341283424, 5.026752126482966, -3.032187853531547, -0.8493134553997223, -0.30255020514223135, 4.337341539083157, 3.130871362092939]

>  <energy>  (7) 
-724.6846651079322

>  <inter_energy>  (7) 
-733.4388308652709

>  <intra_energy>  (7) 
9.886536552610226

>  <rmsd>  (7) 
9.65634

>  <sdf_rank>  (7) 
0

$$$$

     RDKit          3D

 47 49  0  0  0  0  0  0  0  0999 V2000
   89.9199  -42.3652   65.2032 C   0  0  0  0  0  0  0  0  0  0  0  0
   79.4848  -43.8731   65.4391 O   0  0  0  0  0  0  0  0  0  0  0  0
   90.6799  -42.5302   66.3223 C   0  0  0  0  0  0  0  0  0  0  0  0
   83.9957  -43.4176   65.1939 C   0  0  0  0  0  0  0  0  0  0  0  0
   82.7945  -44.0878   65.3555 C   0  0  0  0  0  0  0  0  0  0  0  0
   81.4439  -46.8585   66.7277 C   0  0  0  0  0  0  0  0  0  0  0  0
   81.8877  -48.1019   66.3228 C   0  0  0  0  0  0  0  0  0  0  0  0
   82.5569  -48.9579   67.1584 O   0  0  0  0  0  0  0  0  0  0  0  0
   80.6571  -46.4238   64.4867 C   0  0  0  0  0  0  0  0  0  0  0  0
   81.7138  -48.5503   64.9763 C   0  0  0  0  0  0  0  0  0  0  0  0
   81.0686  -47.6936   64.0378 C   0  0  0  0  0  0  0  0  0  0  0  0
   81.8511  -43.6349   66.2432 C   0  0  0  0  0  0  0  0  0  0  0  0
   80.8395  -45.9767   65.8225 C   0  0  0  0  0  0  0  0  0  0  0  0
   82.1386  -42.4826   66.9735 C   0  0  0  0  0  0  0  0  0  0  0  0
   83.3303  -41.8025   66.8208 C   0  0  0  0  0  0  0  0  0  0  0  0
   82.1584  -49.7450   64.5259 O   0  0  0  0  0  0  0  0  0  0  0  0
   84.2677  -42.2860   65.9094 C   0  0  0  0  0  0  0  0  0  0  0  0
   88.2629  -41.2425   66.5681 C   0  0  0  0  0  0  0  0  0  0  0  0
   88.2843  -42.3670   62.8920 O   0  0  0  0  0  0  0  0  0  0  0  0
   89.0505  -41.3704   67.7126 C   0  0  0  0  0  0  0  0  0  0  0  0
   88.6878  -41.7311   65.2868 C   0  0  0  0  0  0  0  0  0  0  0  0
   85.5894  -41.6483   65.5441 C   0  0  0  0  0  0  0  0  0  0  0  0
   87.4806  -40.1713   63.6773 O   0  0  0  0  0  0  0  0  0  0  0  0
   87.7587  -41.5388   63.9121 S   0  0  1  0  0  0  0  0  0  0  0  0
   91.7795  -43.3088   66.2604 O   0  0  0  0  0  0  0  0  0  0  0  0
   90.2854  -42.0305   67.5934 C   0  0  0  0  0  0  0  0  0  0  0  0
   91.0095  -42.1631   68.7264 O   0  0  0  0  0  0  0  0  0  0  0  0
   86.2973  -42.1449   64.3715 N   0  0  0  0  0  0  0  0  0  0  0  0
   80.4166  -44.4335   66.3695 S   0  0  2  0  0  0  0  0  0  0  0  0
   80.0528  -44.4913   67.7229 O   0  0  0  0  0  0  0  0  0  0  0  0
   90.2831  -42.7348   64.2329 H   0  0  0  0  0  0  0  0  0  0  0  0
   84.7400  -43.8012   64.4806 H   0  0  0  0  0  0  0  0  0  0  0  0
   82.5943  -44.9941   64.7652 H   0  0  0  0  0  0  0  0  0  0  0  0
   81.5669  -46.5557   67.7780 H   0  0  0  0  0  0  0  0  0  0  0  0
   82.8572  -49.8406   66.8256 H   0  0  0  0  0  0  0  0  0  0  0  0
   80.1714  -45.7462   63.7690 H   0  0  0  0  0  0  0  0  0  0  0  0
   80.8981  -48.0131   62.9991 H   0  0  0  0  0  0  0  0  0  0  0  0
   81.3955  -42.1050   67.6913 H   0  0  0  0  0  0  0  0  0  0  0  0
   83.5364  -40.8953   67.4078 H   0  0  0  0  0  0  0  0  0  0  0  0
   82.0101  -50.0045   63.5821 H   0  0  0  0  0  0  0  0  0  0  0  0
   87.2826  -40.7503   66.6504 H   0  0  0  0  0  0  0  0  0  0  0  0
   88.7150  -40.9667   68.6793 H   0  0  0  0  0  0  0  0  0  0  0  0
   85.3995  -40.5773   65.3800 H   0  0  0  0  0  0  0  0  0  0  0  0
   86.2520  -41.8977   66.3859 H   0  0  0  0  0  0  0  0  0  0  0  0
   92.3409  -43.4374   67.0656 H   0  0  0  0  0  0  0  0  0  0  0  0
   90.6702  -41.7881   69.5775 H   0  0  0  0  0  0  0  0  0  0  0  0
   86.4391  -43.1533   64.5261 H   0  0  0  0  0  0  0  0  0  0  0  0
  1  3  2  0
  1 21  1  0
  2 29  2  0
  3 25  1  0
  3 26  1  0
  4  5  2  0
  4 17  1  0
  5 12  1  0
  6  7  2  0
  6 13  1  0
  7  8  1  0
  7 10  1  0
  9 11  1  0
  9 13  2  0
 10 11  2  0
 10 16  1  0
 12 14  2  0
 29 12  1  1
 13 29  1  0
 14 15  1  0
 15 17  2  0
 17 22  1  0
 18 20  1  0
 18 21  2  0
 19 24  2  0
 20 26  2  0
 21 24  1  0
 22 28  1  0
 23 24  2  0
 24 28  1  1
 26 27  1  0
 29 30  2  0
  1 31  1  0
  4 32  1  0
  5 33  1  0
  6 34  1  0
  8 35  1  0
  9 36  1  0
 11 37  1  0
 14 38  1  0
 15 39  1  0
 16 40  1  0
 18 41  1  0
 20 42  1  0
 22 43  1  0
 22 44  1  0
 25 45  1  0
 27 46  1  0
 28 47  1  0
M  END
>  <filename_input>  (8) 
7FRX_O88_docked.sdf

>  <pdb_id>  (8) 
7FRX_O88

>  <pose_rank>  (8) 
7

>  <num_atoms_heavy>  (8) 
30

>  <num_torsions>  (8) 
6

>  <pose>  (8) 
[83.99569049434464, -43.41760622919639, 65.1938995947395, -5.289464316452604, 2.9025132757766774, 0.90260392036343, 1.7603496889894148, 3.12676051706366, -3.160508925669807, 0.019681482390005795, 2.5692643291108026, 3.6259492613528055]

>  <energy>  (8) 
-732.9318997297357

>  <inter_energy>  (8) 
-762.7852331876039

>  <intra_energy>  (8) 
38.21391070126246

>  <rmsd>  (8) 
3.5099

>  <sdf_rank>  (8) 
0

$$$$

     RDKit          3D

 47 49  0  0  0  0  0  0  0  0999 V2000
   85.9855  -45.2097   62.4430 C   0  0  0  0  0  0  0  0  0  0  0  0
   79.0502  -44.7959   67.9545 O   0  0  0  0  0  0  0  0  0  0  0  0
   86.0454  -46.1736   61.4817 C   0  0  0  0  0  0  0  0  0  0  0  0
   83.1056  -44.3348   65.2303 C   0  0  0  0  0  0  0  0  0  0  0  0
   81.9895  -45.0661   65.6012 C   0  0  0  0  0  0  0  0  0  0  0  0
   78.3344  -44.0554   65.1536 C   0  0  0  0  0  0  0  0  0  0  0  0
   77.5164  -43.8899   64.0534 C   0  0  0  0  0  0  0  0  0  0  0  0
   76.9219  -42.6938   63.7455 O   0  0  0  0  0  0  0  0  0  0  0  0
   78.5516  -46.4010   64.6232 C   0  0  0  0  0  0  0  0  0  0  0  0
   77.2014  -44.9857   63.1906 C   0  0  0  0  0  0  0  0  0  0  0  0
   77.7453  -46.2716   63.4757 C   0  0  0  0  0  0  0  0  0  0  0  0
   81.1033  -44.5749   66.5266 C   0  0  0  0  0  0  0  0  0  0  0  0
   78.8554  -45.3130   65.4843 C   0  0  0  0  0  0  0  0  0  0  0  0
   81.3605  -43.3208   67.0786 C   0  0  0  0  0  0  0  0  0  0  0  0
   82.4672  -42.5791   66.7163 C   0  0  0  0  0  0  0  0  0  0  0  0
   76.3816  -44.8794   62.1207 O   0  0  0  0  0  0  0  0  0  0  0  0
   83.3477  -43.1040   65.7718 C   0  0  0  0  0  0  0  0  0  0  0  0
   87.4725  -43.8559   61.0920 C   0  0  0  0  0  0  0  0  0  0  0  0
   86.9588  -41.6076   62.8971 O   0  0  0  0  0  0  0  0  0  0  0  0
   87.5092  -44.8190   60.0833 C   0  0  0  0  0  0  0  0  0  0  0  0
   86.7010  -44.0299   62.2902 C   0  0  0  0  0  0  0  0  0  0  0  0
   84.5659  -42.4219   65.1906 C   0  0  0  0  0  0  0  0  0  0  0  0
   87.2504  -43.3008   64.6667 O   0  0  0  0  0  0  0  0  0  0  0  0
   86.6283  -42.8559   63.4761 S   0  0  1  0  0  0  0  0  0  0  0  0
   85.5006  -47.3824   61.7289 O   0  0  0  0  0  0  0  0  0  0  0  0
   86.7842  -46.0069   60.2785 C   0  0  0  0  0  0  0  0  0  0  0  0
   86.8650  -46.9306   59.2956 O   0  0  0  0  0  0  0  0  0  0  0  0
   85.0295  -42.8369   63.8732 N   0  0  0  0  0  0  0  0  0  0  0  0
   79.7636  -45.4551   66.9036 S   0  0  2  0  0  0  0  0  0  0  0  0
   80.1437  -46.7918   67.0937 O   0  0  0  0  0  0  0  0  0  0  0  0
   85.3698  -45.3666   63.3409 H   0  0  0  0  0  0  0  0  0  0  0  0
   83.8058  -44.7500   64.4905 H   0  0  0  0  0  0  0  0  0  0  0  0
   81.8114  -46.0527   65.1485 H   0  0  0  0  0  0  0  0  0  0  0  0
   78.5809  -43.1857   65.7804 H   0  0  0  0  0  0  0  0  0  0  0  0
   76.3424  -42.6203   62.9462 H   0  0  0  0  0  0  0  0  0  0  0  0
   78.9656  -47.3913   64.8639 H   0  0  0  0  0  0  0  0  0  0  0  0
   77.5424  -47.1331   62.8224 H   0  0  0  0  0  0  0  0  0  0  0  0
   80.6623  -42.9108   67.8233 H   0  0  0  0  0  0  0  0  0  0  0  0
   82.6508  -41.5917   67.1650 H   0  0  0  0  0  0  0  0  0  0  0  0
   76.1982  -45.6723   61.5569 H   0  0  0  0  0  0  0  0  0  0  0  0
   88.0549  -42.9313   60.9649 H   0  0  0  0  0  0  0  0  0  0  0  0
   88.0881  -44.6535   59.1627 H   0  0  0  0  0  0  0  0  0  0  0  0
   84.3398  -41.3469   65.1321 H   0  0  0  0  0  0  0  0  0  0  0  0
   85.3845  -42.7069   65.8677 H   0  0  0  0  0  0  0  0  0  0  0  0
   85.5369  -48.0921   61.0396 H   0  0  0  0  0  0  0  0  0  0  0  0
   87.4001  -46.7440   58.4838 H   0  0  0  0  0  0  0  0  0  0  0  0
   84.6872  -43.7988   63.7370 H   0  0  0  0  0  0  0  0  0  0  0  0
  1  3  2  0
  1 21  1  0
  2 29  2  0
  3 25  1  0
  3 26  1  0
  4  5  2  0
  4 17  1  0
  5 12  1  0
  6  7  2  0
  6 13  1  0
  7  8  1  0
  7 10  1  0
  9 11  1  0
  9 13  2  0
 10 11  2  0
 10 16  1  0
 12 14  2  0
 29 12  1  6
 13 29  1  0
 14 15  1  0
 15 17  2  0
 17 22  1  0
 18 20  1  0
 18 21  2  0
 19 24  2  0
 20 26  2  0
 21 24  1  0
 22 28  1  0
 23 24  2  0
 24 28  1  1
 26 27  1  0
 29 30  2  0
  1 31  1  0
  4 32  1  0
  5 33  1  0
  6 34  1  0
  8 35  1  0
  9 36  1  0
 11 37  1  0
 14 38  1  0
 15 39  1  0
 16 40  1  0
 18 41  1  0
 20 42  1  0
 22 43  1  0
 22 44  1  0
 25 45  1  0
 27 46  1  0
 28 47  1  0
M  END
>  <filename_input>  (9) 
7FRX_O88_docked.sdf

>  <pdb_id>  (9) 
7FRX_O88

>  <pose_rank>  (9) 
8

>  <num_atoms_heavy>  (9) 
30

>  <num_torsions>  (9) 
6

>  <pose>  (9) 
[83.10560237707017, -44.33476120558906, 65.23032648993208, -3.3801262493348165, -2.139804170772964, -4.7584401497638495, 0.10965118541190073, 0.5067905757672055, 3.3399042536120818, 0.5916951754846891, -2.004314777672382, 0.647881413932706]

>  <energy>  (9) 
-711.7794244797146

>  <inter_energy>  (9) 
-701.0815938964658

>  <intra_energy>  (9) 
0.5800953124113025

>  <rmsd>  (9) 
4.31636

>  <sdf_rank>  (9) 
0

$$$$

     RDKit          3D

 47 49  0  0  0  0  0  0  0  0999 V2000
   89.1784  -42.9760   65.2965 C   0  0  0  0  0  0  0  0  0  0  0  0
   78.9341  -43.8529   66.8039 O   0  0  0  0  0  0  0  0  0  0  0  0
   90.0025  -43.1241   66.3716 C   0  0  0  0  0  0  0  0  0  0  0  0
   83.5484  -43.7798   65.3256 C   0  0  0  0  0  0  0  0  0  0  0  0
   82.3458  -44.4483   65.4836 C   0  0  0  0  0  0  0  0  0  0  0  0
   80.6676  -46.2177   64.3631 C   0  0  0  0  0  0  0  0  0  0  0  0
   80.5830  -46.6221   63.0454 C   0  0  0  0  0  0  0  0  0  0  0  0
   81.5204  -47.4308   62.4570 O   0  0  0  0  0  0  0  0  0  0  0  0
   78.6781  -44.8818   64.0674 C   0  0  0  0  0  0  0  0  0  0  0  0
   79.5233  -46.1726   62.1972 C   0  0  0  0  0  0  0  0  0  0  0  0
   78.5374  -45.2906   62.7270 C   0  0  0  0  0  0  0  0  0  0  0  0
   81.4032  -43.9980   66.3734 C   0  0  0  0  0  0  0  0  0  0  0  0
   79.7371  -45.3221   64.9054 C   0  0  0  0  0  0  0  0  0  0  0  0
   81.6930  -42.8501   67.1097 C   0  0  0  0  0  0  0  0  0  0  0  0
   82.8862  -42.1717   66.9607 C   0  0  0  0  0  0  0  0  0  0  0  0
   79.4159  -46.5161   60.8939 O   0  0  0  0  0  0  0  0  0  0  0  0
   83.8227  -42.6525   66.0470 C   0  0  0  0  0  0  0  0  0  0  0  0
   88.1883  -41.0580   66.3965 C   0  0  0  0  0  0  0  0  0  0  0  0
   87.7388  -42.5623   62.8920 O   0  0  0  0  0  0  0  0  0  0  0  0
   89.0538  -41.1760   67.4844 C   0  0  0  0  0  0  0  0  0  0  0  0
   88.2403  -41.9530   65.2751 C   0  0  0  0  0  0  0  0  0  0  0  0
   85.1458  -42.0157   65.6852 C   0  0  0  0  0  0  0  0  0  0  0  0
   86.8701  -40.4264   63.7674 O   0  0  0  0  0  0  0  0  0  0  0  0
   87.2289  -41.7821   63.9568 S   0  0  1  0  0  0  0  0  0  0  0  0
   90.7736  -44.2270   66.4611 O   0  0  0  0  0  0  0  0  0  0  0  0
   89.9809  -42.2320   67.4784 C   0  0  0  0  0  0  0  0  0  0  0  0
   90.7838  -42.3350   68.5603 O   0  0  0  0  0  0  0  0  0  0  0  0
   85.8271  -42.4710   64.4805 N   0  0  0  0  0  0  0  0  0  0  0  0
   79.9670  -44.7942   66.4954 S   0  0  2  0  0  0  0  0  0  0  0  0
   80.1365  -45.8982   67.3438 O   0  0  0  0  0  0  0  0  0  0  0  0
   89.2567  -43.6677   64.4447 H   0  0  0  0  0  0  0  0  0  0  0  0
   84.2920  -44.1613   64.6104 H   0  0  0  0  0  0  0  0  0  0  0  0
   82.1438  -45.3511   64.8885 H   0  0  0  0  0  0  0  0  0  0  0  0
   81.4788  -46.6052   64.9970 H   0  0  0  0  0  0  0  0  0  0  0  0
   81.4198  -47.6963   61.5086 H   0  0  0  0  0  0  0  0  0  0  0  0
   77.9327  -44.1889   64.4850 H   0  0  0  0  0  0  0  0  0  0  0  0
   77.6960  -44.9412   62.1107 H   0  0  0  0  0  0  0  0  0  0  0  0
   80.9506  -42.4746   67.8293 H   0  0  0  0  0  0  0  0  0  0  0  0
   83.0941  -41.2681   67.5524 H   0  0  0  0  0  0  0  0  0  0  0  0
   78.6602  -46.1752   60.3528 H   0  0  0  0  0  0  0  0  0  0  0  0
   87.4403  -40.2515   66.3980 H   0  0  0  0  0  0  0  0  0  0  0  0
   89.0118  -40.4638   68.3216 H   0  0  0  0  0  0  0  0  0  0  0  0
   84.9666  -40.9366   65.5694 H   0  0  0  0  0  0  0  0  0  0  0  0
   85.8197  -42.3081   66.5040 H   0  0  0  0  0  0  0  0  0  0  0  0
   91.3769  -44.3476   67.2367 H   0  0  0  0  0  0  0  0  0  0  0  0
   90.7120  -41.6749   69.2947 H   0  0  0  0  0  0  0  0  0  0  0  0
   86.0334  -43.4696   64.6260 H   0  0  0  0  0  0  0  0  0  0  0  0
  1  3  2  0
  1 21  1  0
  2 29  2  0
  3 25  1  0
  3 26  1  0
  4  5  2  0
  4 17  1  0
  5 12  1  0
  6  7  2  0
  6 13  1  0
  7  8  1  0
  7 10  1  0
  9 11  1  0
  9 13  2  0
 10 11  2  0
 10 16  1  0
 12 14  2  0
 29 12  1  6
 13 29  1  0
 14 15  1  0
 15 17  2  0
 17 22  1  0
 18 20  1  0
 18 21  2  0
 19 24  2  0
 20 26  2  0
 21 24  1  0
 22 28  1  0
 23 24  2  0
 24 28  1  1
 26 27  1  0
 29 30  2  0
  1 31  1  0
  4 32  1  0
  5 33  1  0
  6 34  1  0
  8 35  1  0
  9 36  1  0
 11 37  1  0
 14 38  1  0
 15 39  1  0
 16 40  1  0
 18 41  1  0
 20 42  1  0
 22 43  1  0
 22 44  1  0
 25 45  1  0
 27 46  1  0
 28 47  1  0
M  END
>  <filename_input>  (10) 
7FRX_O88_docked.sdf

>  <pdb_id>  (10) 
7FRX_O88

>  <pose_rank>  (10) 
9

>  <num_atoms_heavy>  (10) 
30

>  <num_torsions>  (10) 
6

>  <pose>  (10) 
[83.54842267468703, -43.77982847610917, 65.32562329528558, -5.312081425811303, 2.8336396072481183, 0.95409756757616, 0.7611697556597129, 2.787634273356194, -3.1184913847986158, -0.06570631953298484, 2.591678018853394, 3.1357451235320877]

>  <energy>  (10) 
-731.3826610149808

>  <inter_energy>  (10) 
-778.3026761905463

>  <intra_energy>  (10) 
46.10283298308474

>  <rmsd>  (10) 
2.4695

>  <sdf_rank>  (10) 
0

$$$$

     RDKit          3D

 47 49  0  0  0  0  0  0  0  0999 V2000
   78.6358  -44.8595   63.9889 C   0  0  0  0  0  0  0  0  0  0  0  0
   87.1559  -47.9919   61.5071 O   0  0  0  0  0  0  0  0  0  0  0  0
   77.7219  -44.8323   62.9784 C   0  0  0  0  0  0  0  0  0  0  0  0
   83.1570  -46.6638   63.3058 C   0  0  0  0  0  0  0  0  0  0  0  0
   84.4737  -46.5037   62.9075 C   0  0  0  0  0  0  0  0  0  0  0  0
   87.4574  -44.6700   63.2247 C   0  0  0  0  0  0  0  0  0  0  0  0
   87.4083  -43.3119   62.9796 C   0  0  0  0  0  0  0  0  0  0  0  0
   87.7982  -42.3777   63.9038 O   0  0  0  0  0  0  0  0  0  0  0  0
   86.4686  -45.0832   61.0610 C   0  0  0  0  0  0  0  0  0  0  0  0
   86.8946  -42.7975   61.7484 C   0  0  0  0  0  0  0  0  0  0  0  0
   86.4258  -43.7085   60.7578 C   0  0  0  0  0  0  0  0  0  0  0  0
   85.4262  -47.4343   63.2391 C   0  0  0  0  0  0  0  0  0  0  0  0
   86.9705  -45.5914   62.2887 C   0  0  0  0  0  0  0  0  0  0  0  0
   85.0276  -48.5422   63.9858 C   0  0  0  0  0  0  0  0  0  0  0  0
   83.7181  -48.7165   64.3871 C   0  0  0  0  0  0  0  0  0  0  0  0
   86.7980  -41.4768   61.4755 O   0  0  0  0  0  0  0  0  0  0  0  0
   82.7732  -47.7551   64.0326 C   0  0  0  0  0  0  0  0  0  0  0  0
   78.1280  -47.2074   64.3031 C   0  0  0  0  0  0  0  0  0  0  0  0
   79.2874  -46.2058   67.1589 O   0  0  0  0  0  0  0  0  0  0  0  0
   77.2194  -47.2008   63.2443 C   0  0  0  0  0  0  0  0  0  0  0  0
   78.8617  -46.0358   64.6907 C   0  0  0  0  0  0  0  0  0  0  0  0
   81.2868  -47.8002   64.3080 C   0  0  0  0  0  0  0  0  0  0  0  0
   80.9533  -45.0494   65.7551 O   0  0  0  0  0  0  0  0  0  0  0  0
   79.9783  -46.0596   65.9326 S   0  0  1  0  0  0  0  0  0  0  0  0
   77.3789  -43.6465   62.4350 O   0  0  0  0  0  0  0  0  0  0  0  0
   77.0056  -45.9889   62.5658 C   0  0  0  0  0  0  0  0  0  0  0  0
   76.0978  -46.0107   61.5652 O   0  0  0  0  0  0  0  0  0  0  0  0
   80.8185  -47.4465   65.6414 N   0  0  0  0  0  0  0  0  0  0  0  0
   86.9702  -47.2305   62.7046 S   0  0  2  0  0  0  0  0  0  0  0  0
   87.8487  -47.4500   63.7758 O   0  0  0  0  0  0  0  0  0  0  0  0
   79.1950  -43.9485   64.2487 H   0  0  0  0  0  0  0  0  0  0  0  0
   82.4108  -45.9028   63.0334 H   0  0  0  0  0  0  0  0  0  0  0  0
   84.7596  -45.6199   62.3183 H   0  0  0  0  0  0  0  0  0  0  0  0
   87.8857  -45.0341   64.1702 H   0  0  0  0  0  0  0  0  0  0  0  0
   87.7461  -41.4135   63.6854 H   0  0  0  0  0  0  0  0  0  0  0  0
   86.0957  -45.7970   60.3116 H   0  0  0  0  0  0  0  0  0  0  0  0
   86.0439  -43.3505   59.7904 H   0  0  0  0  0  0  0  0  0  0  0  0
   85.7770  -49.2982   64.2627 H   0  0  0  0  0  0  0  0  0  0  0  0
   83.4258  -49.5983   64.9762 H   0  0  0  0  0  0  0  0  0  0  0  0
   86.4339  -41.1765   60.6052 H   0  0  0  0  0  0  0  0  0  0  0  0
   78.2878  -48.1424   64.8600 H   0  0  0  0  0  0  0  0  0  0  0  0
   76.6865  -48.1168   62.9494 H   0  0  0  0  0  0  0  0  0  0  0  0
   80.8038  -47.1105   63.6000 H   0  0  0  0  0  0  0  0  0  0  0  0
   81.0242  -48.8631   64.2020 H   0  0  0  0  0  0  0  0  0  0  0  0
   76.7162  -43.6120   61.7002 H   0  0  0  0  0  0  0  0  0  0  0  0
   75.6371  -46.8556   61.3331 H   0  0  0  0  0  0  0  0  0  0  0  0
   80.2125  -48.2206   65.9488 H   0  0  0  0  0  0  0  0  0  0  0  0
  1  3  2  0
  1 21  1  0
  2 29  2  0
  3 25  1  0
  3 26  1  0
  4  5  2  0
  4 17  1  0
  5 12  1  0
  6  7  2  0
  6 13  1  0
  7  8  1  0
  7 10  1  0
  9 11  1  0
  9 13  2  0
 10 11  2  0
 10 16  1  0
 12 14  2  0
 29 12  1  1
 13 29  1  0
 14 15  1  0
 15 17  2  0
 17 22  1  0
 18 20  1  0
 18 21  2  0
 19 24  2  0
 20 26  2  0
 21 24  1  0
 22 28  1  0
 23 24  2  0
 24 28  1  6
 26 27  1  0
 29 30  2  0
  1 31  1  0
  4 32  1  0
  5 33  1  0
  6 34  1  0
  8 35  1  0
  9 36  1  0
 11 37  1  0
 14 38  1  0
 15 39  1  0
 16 40  1  0
 18 41  1  0
 20 42  1  0
 22 43  1  0
 22 44  1  0
 25 45  1  0
 27 46  1  0
 28 47  1  0
M  END
>  <filename_input>  (11) 
7FRX_O88_docked.sdf

>  <pdb_id>  (11) 
7FRX_O88

>  <pose_rank>  (11) 
10

>  <num_atoms_heavy>  (11) 
30

>  <num_torsions>  (11) 
6

>  <pose>  (11) 
[83.15696073035888, -46.663776062496545, 63.30575068433153, -1.0367818084898435, -0.022362698759027633, -3.3664451150192676, 7.931384687684649, -2.9108920481959544, -11.42998372470222, -1.2249055204749784, 14.96397871201985, 5.314028741544455]

>  <energy>  (11) 
-510.24884907262987

>  <inter_energy>  (11) 
-536.5681814882616

>  <intra_energy>  (11) 
28.833185237939766

>  <rmsd>  (11) 
9.88546

>  <sdf_rank>  (11) 
0

$$$$

     RDKit          3D

 47 49  0  0  0  0  0  0  0  0999 V2000
   86.4747  -42.0395   65.2135 C   0  0  0  0  0  0  0  0  0  0  0  0
   78.1943  -43.6762   62.9235 O   0  0  0  0  0  0  0  0  0  0  0  0
   87.7097  -42.1252   64.6438 C   0  0  0  0  0  0  0  0  0  0  0  0
   81.6761  -43.8455   65.3306 C   0  0  0  0  0  0  0  0  0  0  0  0
   80.5080  -44.0612   64.6185 C   0  0  0  0  0  0  0  0  0  0  0  0
   78.3597  -46.3917   65.4150 C   0  0  0  0  0  0  0  0  0  0  0  0
   78.3154  -47.7697   65.4914 C   0  0  0  0  0  0  0  0  0  0  0  0
   78.9822  -48.4801   66.4556 O   0  0  0  0  0  0  0  0  0  0  0  0
   77.0171  -46.4724   63.4098 C   0  0  0  0  0  0  0  0  0  0  0  0
   77.6008  -48.5445   64.5252 C   0  0  0  0  0  0  0  0  0  0  0  0
   76.9222  -47.8765   63.4650 C   0  0  0  0  0  0  0  0  0  0  0  0
   79.2837  -43.8025   65.1818 C   0  0  0  0  0  0  0  0  0  0  0  0
   77.7356  -45.7055   64.3653 C   0  0  0  0  0  0  0  0  0  0  0  0
   79.2532  -43.3167   66.4882 C   0  0  0  0  0  0  0  0  0  0  0  0
   80.4094  -43.0940   67.2091 C   0  0  0  0  0  0  0  0  0  0  0  0
   77.5545  -49.8956   64.5408 O   0  0  0  0  0  0  0  0  0  0  0  0
   81.6380  -43.3639   66.6086 C   0  0  0  0  0  0  0  0  0  0  0  0
   87.3197  -40.2680   66.6336 C   0  0  0  0  0  0  0  0  0  0  0  0
   84.0438  -39.9163   66.3802 O   0  0  0  0  0  0  0  0  0  0  0  0
   88.5766  -40.3196   66.0300 C   0  0  0  0  0  0  0  0  0  0  0  0
   86.2398  -41.1233   66.2297 C   0  0  0  0  0  0  0  0  0  0  0  0
   83.0087  -43.1174   67.1980 C   0  0  0  0  0  0  0  0  0  0  0  0
   84.8005  -41.2282   68.3270 O   0  0  0  0  0  0  0  0  0  0  0  0
   84.7254  -41.0290   66.9279 S   0  0  1  0  0  0  0  0  0  0  0  0
   87.9727  -43.1405   63.7959 O   0  0  0  0  0  0  0  0  0  0  0  0
   88.7824  -41.2691   65.0147 C   0  0  0  0  0  0  0  0  0  0  0  0
   90.0190  -41.3123   64.4720 O   0  0  0  0  0  0  0  0  0  0  0  0
   83.9905  -42.4030   66.3928 N   0  0  0  0  0  0  0  0  0  0  0  0
   77.9217  -44.0267   64.2839 S   0  0  2  0  0  0  0  0  0  0  0  0
   76.8486  -43.3968   64.9313 O   0  0  0  0  0  0  0  0  0  0  0  0
   85.6633  -42.6969   64.8679 H   0  0  0  0  0  0  0  0  0  0  0  0
   82.6466  -44.0646   64.8615 H   0  0  0  0  0  0  0  0  0  0  0  0
   80.5623  -44.4445   63.5888 H   0  0  0  0  0  0  0  0  0  0  0  0
   78.8937  -45.8236   66.1910 H   0  0  0  0  0  0  0  0  0  0  0  0
   78.9223  -49.4681   66.4728 H   0  0  0  0  0  0  0  0  0  0  0  0
   76.5109  -45.9449   62.5879 H   0  0  0  0  0  0  0  0  0  0  0  0
   76.3446  -48.4379   62.7159 H   0  0  0  0  0  0  0  0  0  0  0  0
   78.2811  -43.1049   66.9575 H   0  0  0  0  0  0  0  0  0  0  0  0
   80.3619  -42.7104   68.2390 H   0  0  0  0  0  0  0  0  0  0  0  0
   77.0435  -50.3814   63.8458 H   0  0  0  0  0  0  0  0  0  0  0  0
   87.1505  -39.5471   67.4470 H   0  0  0  0  0  0  0  0  0  0  0  0
   89.3822  -39.6376   66.3396 H   0  0  0  0  0  0  0  0  0  0  0  0
   82.8658  -42.5409   68.1239 H   0  0  0  0  0  0  0  0  0  0  0  0
   83.4370  -44.1236   67.3170 H   0  0  0  0  0  0  0  0  0  0  0  0
   88.8656  -43.2151   63.3748 H   0  0  0  0  0  0  0  0  0  0  0  0
   90.7177  -40.6828   64.7813 H   0  0  0  0  0  0  0  0  0  0  0  0
   84.7453  -43.0753   66.1950 H   0  0  0  0  0  0  0  0  0  0  0  0
  1  3  2  0
  1 21  1  0
  2 29  2  0
  3 25  1  0
  3 26  1  0
  4  5  2  0
  4 17  1  0
  5 12  1  0
  6  7  2  0
  6 13  1  0
  7  8  1  0
  7 10  1  0
  9 11  1  0
  9 13  2  0
 10 11  2  0
 10 16  1  0
 12 14  2  0
 29 12  1  1
 13 29  1  0
 14 15  1  0
 15 17  2  0
 17 22  1  0
 18 20  1  0
 18 21  2  0
 19 24  2  0
 20 26  2  0
 21 24  1  0
 22 28  1  0
 23 24  2  0
 24 28  1  6
 26 27  1  0
 29 30  2  0
  1 31  1  0
  4 32  1  0
  5 33  1  0
  6 34  1  0
  8 35  1  0
  9 36  1  0
 11 37  1  0
 14 38  1  0
 15 39  1  0
 16 40  1  0
 18 41  1  0
 20 42  1  0
 22 43  1  0
 22 44  1  0
 25 45  1  0
 27 46  1  0
 28 47  1  0
M  END
>  <filename_input>  (12) 
7FRX_O88_docked.sdf

>  <pdb_id>  (12) 
7FRX_O88

>  <pose_rank>  (12) 
11

>  <num_atoms_heavy>  (12) 
30

>  <num_torsions>  (12) 
6

>  <pose>  (12) 
[81.67608066252237, -43.845479528717675, 65.33063456521542, -4.072104935797001, 3.1440403547113314, 1.321131096032479, 2.712902671058933, 2.0590862689554985, -2.5133036501501045, -0.9859319431367365, 4.176657231201938, 1.621346689313316]

>  <energy>  (12) 
-575.6227374949918

>  <inter_energy>  (12) 
-589.3024968061358

>  <intra_energy>  (12) 
13.848832182251659

>  <rmsd>  (12) 
3.63163

>  <sdf_rank>  (12) 
0

$$$$

     RDKit          3D

 47 49  0  0  0  0  0  0  0  0999 V2000
   78.1847  -46.2112   63.9861 C   0  0  0  0  0  0  0  0  0  0  0  0
   87.1204  -47.1483   60.8114 O   0  0  0  0  0  0  0  0  0  0  0  0
   77.2903  -45.5110   63.2331 C   0  0  0  0  0  0  0  0  0  0  0  0
   84.0157  -47.3935   63.5912 C   0  0  0  0  0  0  0  0  0  0  0  0
   84.9729  -47.2381   62.6024 C   0  0  0  0  0  0  0  0  0  0  0  0
   84.8152  -46.2747   59.1535 C   0  0  0  0  0  0  0  0  0  0  0  0
   84.1175  -45.9575   58.0049 C   0  0  0  0  0  0  0  0  0  0  0  0
   83.3195  -46.8592   57.3499 O   0  0  0  0  0  0  0  0  0  0  0  0
   85.7936  -44.0672   59.1535 C   0  0  0  0  0  0  0  0  0  0  0  0
   84.2299  -44.6667   57.4002 C   0  0  0  0  0  0  0  0  0  0  0  0
   85.0796  -43.6918   57.9990 C   0  0  0  0  0  0  0  0  0  0  0  0
   85.4097  -45.9895   62.2374 C   0  0  0  0  0  0  0  0  0  0  0  0
   85.6877  -45.3534   59.7469 C   0  0  0  0  0  0  0  0  0  0  0  0
   84.8622  -44.8867   62.8916 C   0  0  0  0  0  0  0  0  0  0  0  0
   83.9095  -45.0265   63.8810 C   0  0  0  0  0  0  0  0  0  0  0  0
   83.5913  -44.3202   56.2600 O   0  0  0  0  0  0  0  0  0  0  0  0
   83.4879  -46.3081   64.2314 C   0  0  0  0  0  0  0  0  0  0  0  0
   78.4280  -44.2600   65.4013 C   0  0  0  0  0  0  0  0  0  0  0  0
   79.8440  -47.8313   65.5981 O   0  0  0  0  0  0  0  0  0  0  0  0
   77.4840  -43.5474   64.6612 C   0  0  0  0  0  0  0  0  0  0  0  0
   78.7906  -45.6119   65.0819 C   0  0  0  0  0  0  0  0  0  0  0  0
   82.5181  -46.6739   65.3326 C   0  0  0  0  0  0  0  0  0  0  0  0
   79.8138  -46.1057   67.3601 O   0  0  0  0  0  0  0  0  0  0  0  0
   79.8911  -46.4741   65.9960 S   0  0  1  0  0  0  0  0  0  0  0  0
   76.8556  -46.0386   62.0704 O   0  0  0  0  0  0  0  0  0  0  0  0
   76.9017  -44.1807   63.5502 C   0  0  0  0  0  0  0  0  0  0  0  0
   76.0138  -43.4524   62.8383 O   0  0  0  0  0  0  0  0  0  0  0  0
   81.3360  -45.8428   65.5187 N   0  0  0  0  0  0  0  0  0  0  0  0
   86.5842  -45.8514   61.0915 S   0  0  2  0  0  0  0  0  0  0  0  0
   87.4696  -44.8340   61.4767 O   0  0  0  0  0  0  0  0  0  0  0  0
   78.4266  -47.2521   63.7253 H   0  0  0  0  0  0  0  0  0  0  0  0
   83.6760  -48.4035   63.8644 H   0  0  0  0  0  0  0  0  0  0  0  0
   85.3881  -48.1263   62.1037 H   0  0  0  0  0  0  0  0  0  0  0  0
   84.6838  -47.2669   59.6099 H   0  0  0  0  0  0  0  0  0  0  0  0
   82.8370  -46.5885   56.5290 H   0  0  0  0  0  0  0  0  0  0  0  0
   86.4650  -43.3297   59.6174 H   0  0  0  0  0  0  0  0  0  0  0  0
   85.1744  -42.6815   57.5744 H   0  0  0  0  0  0  0  0  0  0  0  0
   85.1985  -43.8775   62.6116 H   0  0  0  0  0  0  0  0  0  0  0  0
   83.4907  -44.1423   64.3839 H   0  0  0  0  0  0  0  0  0  0  0  0
   83.7056  -43.4109   55.8854 H   0  0  0  0  0  0  0  0  0  0  0  0
   78.9110  -43.7691   66.2590 H   0  0  0  0  0  0  0  0  0  0  0  0
   77.2040  -42.5206   64.9391 H   0  0  0  0  0  0  0  0  0  0  0  0
   82.1679  -47.6970   65.1311 H   0  0  0  0  0  0  0  0  0  0  0  0
   83.0952  -46.5348   66.2587 H   0  0  0  0  0  0  0  0  0  0  0  0
   76.2059  -45.5410   61.5134 H   0  0  0  0  0  0  0  0  0  0  0  0
   75.7915  -42.5297   63.1200 H   0  0  0  0  0  0  0  0  0  0  0  0
   81.5888  -45.1359   66.2239 H   0  0  0  0  0  0  0  0  0  0  0  0
  1  3  2  0
  1 21  1  0
  2 29  2  0
  3 25  1  0
  3 26  1  0
  4  5  2  0
  4 17  1  0
  5 12  1  0
  6  7  2  0
  6 13  1  0
  7  8  1  0
  7 10  1  0
  9 11  1  0
  9 13  2  0
 10 11  2  0
 10 16  1  0
 12 14  2  0
 29 12  1  1
 13 29  1  0
 14 15  1  0
 15 17  2  0
 17 22  1  0
 18 20  1  0
 18 21  2  0
 19 24  2  0
 20 26  2  0
 21 24  1  0
 22 28  1  0
 23 24  2  0
 24 28  1  6
 26 27  1  0
 29 30  2  0
  1 31  1  0
  4 32  1  0
  5 33  1  0
  6 34  1  0
  8 35  1  0
  9 36  1  0
 11 37  1  0
 14 38  1  0
 15 39  1  0
 16 40  1  0
 18 41  1  0
 20 42  1  0
 22 43  1  0
 22 44  1  0
 25 45  1  0
 27 46  1  0
 28 47  1  0
M  END
>  <filename_input>  (13) 
7FRX_O88_docked.sdf

>  <pdb_id>  (13) 
7FRX_O88

>  <pose_rank>  (13) 
12

>  <num_atoms_heavy>  (13) 
30

>  <num_torsions>  (13) 
6

>  <pose>  (13) 
[84.01567000376679, -47.39351093490652, 63.59118058091612, -0.3589218087209299, 3.192881709646624, 1.3567989702183123, 15.72755247746352, 0.47355435014822567, -12.096966502938862, 5.674552317303516, -0.8556197942034769, -3.07777785115316]

>  <energy>  (13) 
-578.4983718809643

>  <inter_energy>  (13) 
-575.5138760841663

>  <intra_energy>  (13) 
1.3941269583464138

>  <rmsd>  (13) 
9.69226

>  <sdf_rank>  (13) 
0

$$$$

     RDKit          3D

 47 49  0  0  0  0  0  0  0  0999 V2000
   84.3735  -49.7976   65.1812 C   0  0  0  0  0  0  0  0  0  0  0  0
   85.7621  -40.6315   65.7115 O   0  0  0  0  0  0  0  0  0  0  0  0
   85.1092  -50.6863   65.9064 C   0  0  0  0  0  0  0  0  0  0  0  0
   85.1585  -44.3768   63.8536 C   0  0  0  0  0  0  0  0  0  0  0  0
   85.5813  -43.2542   64.5457 C   0  0  0  0  0  0  0  0  0  0  0  0
   88.0562  -41.5264   67.0471 C   0  0  0  0  0  0  0  0  0  0  0  0
   89.1396  -41.9012   67.8170 C   0  0  0  0  0  0  0  0  0  0  0  0
   89.1344  -41.8336   69.1860 O   0  0  0  0  0  0  0  0  0  0  0  0
   89.3373  -41.9731   65.0498 C   0  0  0  0  0  0  0  0  0  0  0  0
   90.3608  -42.3403   67.2168 C   0  0  0  0  0  0  0  0  0  0  0  0
   90.4564  -42.3908   65.7959 C   0  0  0  0  0  0  0  0  0  0  0  0
   86.3552  -42.3010   63.9327 C   0  0  0  0  0  0  0  0  0  0  0  0
   88.1284  -41.5282   65.6482 C   0  0  0  0  0  0  0  0  0  0  0  0
   86.7001  -42.4974   62.5962 C   0  0  0  0  0  0  0  0  0  0  0  0
   86.2835  -43.6099   61.8929 C   0  0  0  0  0  0  0  0  0  0  0  0
   91.4573  -42.6874   67.9276 O   0  0  0  0  0  0  0  0  0  0  0  0
   85.4962  -44.5593   62.5424 C   0  0  0  0  0  0  0  0  0  0  0  0
   86.3206  -49.4126   63.7920 C   0  0  0  0  0  0  0  0  0  0  0  0
   83.3074  -47.2274   64.1342 O   0  0  0  0  0  0  0  0  0  0  0  0
   87.0711  -50.3498   64.5026 C   0  0  0  0  0  0  0  0  0  0  0  0
   84.9514  -49.1245   64.1133 C   0  0  0  0  0  0  0  0  0  0  0  0
   84.8809  -45.7982   61.9312 C   0  0  0  0  0  0  0  0  0  0  0  0
   83.4205  -48.6636   62.1322 O   0  0  0  0  0  0  0  0  0  0  0  0
   84.0453  -48.0315   63.2334 S   0  0  1  0  0  0  0  0  0  0  0  0
   84.5946  -51.1877   67.0478 O   0  0  0  0  0  0  0  0  0  0  0  0
   86.4580  -51.0014   65.5862 C   0  0  0  0  0  0  0  0  0  0  0  0
   87.2219  -51.8809   66.2709 O   0  0  0  0  0  0  0  0  0  0  0  0
   85.1967  -47.0919   62.5221 N   0  0  0  0  0  0  0  0  0  0  0  0
   86.7959  -40.9578   64.7772 S   0  0  2  0  0  0  0  0  0  0  0  0
   87.2077  -39.9716   63.8688 O   0  0  0  0  0  0  0  0  0  0  0  0
   83.3209  -49.6134   65.4420 H   0  0  0  0  0  0  0  0  0  0  0  0
   84.5431  -45.1310   64.3660 H   0  0  0  0  0  0  0  0  0  0  0  0
   85.2932  -43.1250   65.5994 H   0  0  0  0  0  0  0  0  0  0  0  0
   87.1214  -41.2215   67.5403 H   0  0  0  0  0  0  0  0  0  0  0  0
   89.9340  -42.1129   69.6985 H   0  0  0  0  0  0  0  0  0  0  0  0
   89.4025  -41.9924   63.9519 H   0  0  0  0  0  0  0  0  0  0  0  0
   91.3723  -42.7437   65.2992 H   0  0  0  0  0  0  0  0  0  0  0  0
   87.3213  -41.7451   62.0881 H   0  0  0  0  0  0  0  0  0  0  0  0
   86.5677  -43.7448   60.8389 H   0  0  0  0  0  0  0  0  0  0  0  0
   92.2772  -42.9847   67.4591 H   0  0  0  0  0  0  0  0  0  0  0  0
   86.7943  -48.8760   62.9567 H   0  0  0  0  0  0  0  0  0  0  0  0
   88.1116  -50.5720   64.2230 H   0  0  0  0  0  0  0  0  0  0  0  0
   83.7887  -45.6766   61.9792 H   0  0  0  0  0  0  0  0  0  0  0  0
   85.3174  -45.8477   60.9227 H   0  0  0  0  0  0  0  0  0  0  0  0
   85.1180  -51.8342   67.5847 H   0  0  0  0  0  0  0  0  0  0  0  0
   88.1556  -52.0501   65.9887 H   0  0  0  0  0  0  0  0  0  0  0  0
   85.6075  -47.6607   61.7681 H   0  0  0  0  0  0  0  0  0  0  0  0
  1  3  2  0
  1 21  1  0
  2 29  2  0
  3 25  1  0
  3 26  1  0
  4  5  2  0
  4 17  1  0
  5 12  1  0
  6  7  2  0
  6 13  1  0
  7  8  1  0
  7 10  1  0
  9 11  1  0
  9 13  2  0
 10 11  2  0
 10 16  1  0
 12 14  2  0
 29 12  1  6
 13 29  1  0
 14 15  1  0
 15 17  2  0
 17 22  1  0
 18 20  1  0
 18 21  2  0
 19 24  2  0
 20 26  2  0
 21 24  1  0
 22 28  1  0
 23 24  2  0
 24 28  1  6
 26 27  1  0
 29 30  2  0
  1 31  1  0
  4 32  1  0
  5 33  1  0
  6 34  1  0
  8 35  1  0
  9 36  1  0
 11 37  1  0
 14 38  1  0
 15 39  1  0
 16 40  1  0
 18 41  1  0
 20 42  1  0
 22 43  1  0
 22 44  1  0
 25 45  1  0
 27 46  1  0
 28 47  1  0
M  END
>  <filename_input>  (14) 
7FRX_O88_docked.sdf

>  <pdb_id>  (14) 
7FRX_O88

>  <pose_rank>  (14) 
13

>  <num_atoms_heavy>  (14) 
30

>  <num_torsions>  (14) 
6

>  <pose>  (14) 
[85.15848584198562, -44.37683372164687, 63.85360321478593, -1.2673024176427345, 1.3168522168466523, -1.0608272768745608, 2.7713150008921126, -0.36862035653894937, 8.189513595598262, -1.1247777171306, -1.2590419436955527, -2.1259627523151305]

>  <energy>  (14) 
-608.4177796321999

>  <inter_energy>  (14) 
-596.952818719619

>  <intra_energy>  (14) 
1.8726117394682658

>  <rmsd>  (14) 
9.45187

>  <sdf_rank>  (14) 
0

$$$$

     RDKit          3D

 47 49  0  0  0  0  0  0  0  0999 V2000
   88.7441  -41.6061   66.7952 C   0  0  0  0  0  0  0  0  0  0  0  0
   87.6329  -48.9394   61.4902 O   0  0  0  0  0  0  0  0  0  0  0  0
   89.6801  -42.2100   67.5801 C   0  0  0  0  0  0  0  0  0  0  0  0
   85.8149  -44.5448   61.6015 C   0  0  0  0  0  0  0  0  0  0  0  0
   85.7641  -45.8994   61.3178 C   0  0  0  0  0  0  0  0  0  0  0  0
   84.4732  -48.7524   63.6162 C   0  0  0  0  0  0  0  0  0  0  0  0
   83.9986  -49.1583   64.8478 C   0  0  0  0  0  0  0  0  0  0  0  0
   82.7465  -48.8350   65.3024 O   0  0  0  0  0  0  0  0  0  0  0  0
   86.6007  -49.7815   64.1113 C   0  0  0  0  0  0  0  0  0  0  0  0
   84.8175  -49.9073   65.7493 C   0  0  0  0  0  0  0  0  0  0  0  0
   86.1487  -50.2394   65.3642 C   0  0  0  0  0  0  0  0  0  0  0  0
   86.4537  -46.8043   62.0850 C   0  0  0  0  0  0  0  0  0  0  0  0
   85.7884  -49.0293   63.2214 C   0  0  0  0  0  0  0  0  0  0  0  0
   87.2032  -46.3188   63.1556 C   0  0  0  0  0  0  0  0  0  0  0  0
   87.2608  -44.9717   63.4522 C   0  0  0  0  0  0  0  0  0  0  0  0
   84.4079  -50.2997   66.9766 O   0  0  0  0  0  0  0  0  0  0  0  0
   86.5474  -44.0774   62.6558 C   0  0  0  0  0  0  0  0  0  0  0  0
   90.0511  -42.2383   64.8558 C   0  0  0  0  0  0  0  0  0  0  0  0
   88.3489  -40.4930   63.2251 O   0  0  0  0  0  0  0  0  0  0  0  0
   90.9948  -42.8941   65.6471 C   0  0  0  0  0  0  0  0  0  0  0  0
   88.9004  -41.5877   65.4159 C   0  0  0  0  0  0  0  0  0  0  0  0
   86.4208  -42.5842   62.8593 C   0  0  0  0  0  0  0  0  0  0  0  0
   87.0105  -39.8947   65.2086 O   0  0  0  0  0  0  0  0  0  0  0  0
   87.7524  -40.8396   64.4607 S   0  0  1  0  0  0  0  0  0  0  0  0
   89.6125  -42.0570   68.9185 O   0  0  0  0  0  0  0  0  0  0  0  0
   90.8118  -42.8800   67.0403 C   0  0  0  0  0  0  0  0  0  0  0  0
   91.7593  -43.4987   67.7786 O   0  0  0  0  0  0  0  0  0  0  0  0
   86.6611  -42.0439   64.1908 N   0  0  0  0  0  0  0  0  0  0  0  0
   86.3275  -48.4101   61.7431 S   0  0  2  0  0  0  0  0  0  0  0  0
   85.3377  -48.5843   60.7646 O   0  0  0  0  0  0  0  0  0  0  0  0
   87.8639  -41.1328   67.2549 H   0  0  0  0  0  0  0  0  0  0  0  0
   85.2586  -43.8364   60.9702 H   0  0  0  0  0  0  0  0  0  0  0  0
   85.1638  -46.2542   60.4671 H   0  0  0  0  0  0  0  0  0  0  0  0
   83.8078  -48.2029   62.9341 H   0  0  0  0  0  0  0  0  0  0  0  0
   82.4471  -49.1476   66.1928 H   0  0  0  0  0  0  0  0  0  0  0  0
   87.6313  -50.0175   63.8077 H   0  0  0  0  0  0  0  0  0  0  0  0
   86.8005  -50.8327   66.0224 H   0  0  0  0  0  0  0  0  0  0  0  0
   87.7642  -47.0286   63.7813 H   0  0  0  0  0  0  0  0  0  0  0  0
   87.8590  -44.6105   64.3018 H   0  0  0  0  0  0  0  0  0  0  0  0
   85.0178  -50.8173   67.5599 H   0  0  0  0  0  0  0  0  0  0  0  0
   90.1937  -42.2192   63.7652 H   0  0  0  0  0  0  0  0  0  0  0  0
   91.8561  -43.4067   65.1939 H   0  0  0  0  0  0  0  0  0  0  0  0
   87.1370  -42.1013   62.1782 H   0  0  0  0  0  0  0  0  0  0  0  0
   85.3577  -42.3745   62.6699 H   0  0  0  0  0  0  0  0  0  0  0  0
   90.2859  -42.4900   69.5008 H   0  0  0  0  0  0  0  0  0  0  0  0
   92.5214  -43.9458   67.3319 H   0  0  0  0  0  0  0  0  0  0  0  0
   85.7535  -41.6911   64.5268 H   0  0  0  0  0  0  0  0  0  0  0  0
  1  3  2  0
  1 21  1  0
  2 29  2  0
  3 25  1  0
  3 26  1  0
  4  5  2  0
  4 17  1  0
  5 12  1  0
  6  7  2  0
  6 13  1  0
  7  8  1  0
  7 10  1  0
  9 11  1  0
  9 13  2  0
 10 11  2  0
 10 16  1  0
 12 14  2  0
 29 12  1  1
 13 29  1  0
 14 15  1  0
 15 17  2  0
 17 22  1  0
 18 20  1  0
 18 21  2  0
 19 24  2  0
 20 26  2  0
 21 24  1  0
 22 28  1  0
 23 24  2  0
 24 28  1  6
 26 27  1  0
 29 30  2  0
  1 31  1  0
  4 32  1  0
  5 33  1  0
  6 34  1  0
  8 35  1  0
  9 36  1  0
 11 37  1  0
 14 38  1  0
 15 39  1  0
 16 40  1  0
 18 41  1  0
 20 42  1  0
 22 43  1  0
 22 44  1  0
 25 45  1  0
 27 46  1  0
 28 47  1  0
M  END
>  <filename_input>  (15) 
7FRX_O88_docked.sdf

>  <pdb_id>  (15) 
7FRX_O88

>  <pose_rank>  (15) 
14

>  <num_atoms_heavy>  (15) 
30

>  <num_torsions>  (15) 
6

>  <pose>  (15) 
[85.81489790170394, -44.54479971812473, 61.601524964017564, -2.8704114863108754, -2.913845063097967, -1.7741873354963023, -0.817671848671028, 2.938134705488848, -0.6270041699932329, -0.9507779377893765, -0.407605402982324, -0.14911325925660643]

>  <energy>  (15) 
-541.1205538903109

>  <inter_energy>  (15) 
-539.0111089154817

>  <intra_energy>  (15) 
1.1345122127047538

>  <rmsd>  (15) 
6.28514

>  <sdf_rank>  (15) 
0

$$$$

     RDKit          3D

 47 49  0  0  0  0  0  0  0  0999 V2000
   79.2051  -45.7327   64.8766 C   0  0  0  0  0  0  0  0  0  0  0  0
   85.8521  -47.0401   61.4000 O   0  0  0  0  0  0  0  0  0  0  0  0
   79.8774  -45.5405   66.0462 C   0  0  0  0  0  0  0  0  0  0  0  0
   81.2181  -46.9235   62.9805 C   0  0  0  0  0  0  0  0  0  0  0  0
   82.5753  -47.0066   63.2438 C   0  0  0  0  0  0  0  0  0  0  0  0
   86.5370  -44.6548   62.7935 C   0  0  0  0  0  0  0  0  0  0  0  0
   86.8575  -43.4114   63.3015 C   0  0  0  0  0  0  0  0  0  0  0  0
   88.0268  -42.7650   62.9953 O   0  0  0  0  0  0  0  0  0  0  0  0
   84.5112  -44.6552   64.1074 C   0  0  0  0  0  0  0  0  0  0  0  0
   85.9965  -42.7426   64.2265 C   0  0  0  0  0  0  0  0  0  0  0  0
   84.7847  -43.3757   64.6286 C   0  0  0  0  0  0  0  0  0  0  0  0
   83.4974  -46.8253   62.2437 C   0  0  0  0  0  0  0  0  0  0  0  0
   85.3728  -45.3218   63.1959 C   0  0  0  0  0  0  0  0  0  0  0  0
   83.0264  -46.5548   60.9596 C   0  0  0  0  0  0  0  0  0  0  0  0
   81.6767  -46.4661   60.6830 C   0  0  0  0  0  0  0  0  0  0  0  0
   86.2822  -41.5398   64.7740 O   0  0  0  0  0  0  0  0  0  0  0  0
   80.7647  -46.6526   61.7205 C   0  0  0  0  0  0  0  0  0  0  0  0
   78.0595  -43.6329   65.2608 C   0  0  0  0  0  0  0  0  0  0  0  0
   76.7289  -43.8664   62.7022 O   0  0  0  0  0  0  0  0  0  0  0  0
   78.7709  -43.4064   66.4394 C   0  0  0  0  0  0  0  0  0  0  0  0
   78.2700  -44.7992   64.4506 C   0  0  0  0  0  0  0  0  0  0  0  0
   79.2602  -46.5221   61.6394 C   0  0  0  0  0  0  0  0  0  0  0  0
   76.8143  -46.3120   63.0106 O   0  0  0  0  0  0  0  0  0  0  0  0
   77.4448  -45.0452   63.0193 S   0  0  1  0  0  0  0  0  0  0  0  0
   80.6385  -46.5395   66.5381 O   0  0  0  0  0  0  0  0  0  0  0  0
   79.6990  -44.3796   66.8473 C   0  0  0  0  0  0  0  0  0  0  0  0
   80.3491  -44.1431   68.0080 O   0  0  0  0  0  0  0  0  0  0  0  0
   78.6614  -45.2246   61.9229 N   0  0  0  0  0  0  0  0  0  0  0  0
   85.1019  -46.8843   62.6088 S   0  0  2  0  0  0  0  0  0  0  0  0
   85.2943  -47.8192   63.6366 O   0  0  0  0  0  0  0  0  0  0  0  0
   79.4035  -46.6283   64.2695 H   0  0  0  0  0  0  0  0  0  0  0  0
   80.4963  -47.0775   63.7961 H   0  0  0  0  0  0  0  0  0  0  0  0
   82.9183  -47.2205   64.2668 H   0  0  0  0  0  0  0  0  0  0  0  0
   87.2067  -45.1292   62.0611 H   0  0  0  0  0  0  0  0  0  0  0  0
   88.2158  -41.8737   63.3826 H   0  0  0  0  0  0  0  0  0  0  0  0
   83.5868  -45.1622   64.4211 H   0  0  0  0  0  0  0  0  0  0  0  0
   84.0874  -42.8823   65.3216 H   0  0  0  0  0  0  0  0  0  0  0  0
   83.7502  -46.4081   60.1444 H   0  0  0  0  0  0  0  0  0  0  0  0
   81.3273  -46.2520   59.6622 H   0  0  0  0  0  0  0  0  0  0  0  0
   85.6486  -41.1224   65.4100 H   0  0  0  0  0  0  0  0  0  0  0  0
   77.3115  -42.8923   64.9413 H   0  0  0  0  0  0  0  0  0  0  0  0
   78.6102  -42.4935   67.0316 H   0  0  0  0  0  0  0  0  0  0  0  0
   78.9642  -46.8007   60.6172 H   0  0  0  0  0  0  0  0  0  0  0  0
   78.8884  -47.1734   62.4441 H   0  0  0  0  0  0  0  0  0  0  0  0
   81.1324  -46.4136   67.3868 H   0  0  0  0  0  0  0  0  0  0  0  0
   80.1731  -43.3101   68.5131 H   0  0  0  0  0  0  0  0  0  0  0  0
   79.4289  -44.6164   62.2418 H   0  0  0  0  0  0  0  0  0  0  0  0
  1  3  2  0
  1 21  1  0
  2 29  2  0
  3 25  1  0
  3 26  1  0
  4  5  2  0
  4 17  1  0
  5 12  1  0
  6  7  2  0
  6 13  1  0
  7  8  1  0
  7 10  1  0
  9 11  1  0
  9 13  2  0
 10 11  2  0
 10 16  1  0
 12 14  2  0
 29 12  1  6
 13 29  1  0
 14 15  1  0
 15 17  2  0
 17 22  1  0
 18 20  1  0
 18 21  2  0
 19 24  2  0
 20 26  2  0
 21 24  1  0
 22 28  1  0
 23 24  2  0
 24 28  1  6
 26 27  1  0
 29 30  2  0
  1 31  1  0
  4 32  1  0
  5 33  1  0
  6 34  1  0
  8 35  1  0
  9 36  1  0
 11 37  1  0
 14 38  1  0
 15 39  1  0
 16 40  1  0
 18 41  1  0
 20 42  1  0
 22 43  1  0
 22 44  1  0
 25 45  1  0
 27 46  1  0
 28 47  1  0
M  END
>  <filename_input>  (16) 
7FRX_O88_docked.sdf

>  <pdb_id>  (16) 
7FRX_O88

>  <pose_rank>  (16) 
15

>  <num_atoms_heavy>  (16) 
30

>  <num_torsions>  (16) 
6

>  <pose>  (16) 
[81.21813354134792, -46.923472807256076, 62.98053869166862, 0.7422440435099543, -2.993430650605596, 1.3245213017035096, -0.09029320042640987, -0.7063409287814251, -1.8298715762313469, 0.907807797096245, 3.1469229953408364, 0.4115433635541862]

>  <energy>  (16) 
-526.1671646485959

>  <inter_energy>  (16) 
-558.5287434824406

>  <intra_energy>  (16) 
39.049552277937096

>  <rmsd>  (16) 
8.96609

>  <sdf_rank>  (16) 
0

$$$$

     RDKit          3D

 47 49  0  0  0  0  0  0  0  0999 V2000
   76.5699  -49.1025   63.5304 C   0  0  0  0  0  0  0  0  0  0  0  0
   83.0802  -42.5461   68.1518 O   0  0  0  0  0  0  0  0  0  0  0  0
   75.6883  -50.1416   63.5362 C   0  0  0  0  0  0  0  0  0  0  0  0
   79.3670  -44.4066   65.6267 C   0  0  0  0  0  0  0  0  0  0  0  0
   80.3110  -43.4163   65.8419 C   0  0  0  0  0  0  0  0  0  0  0  0
   84.8480  -42.1296   65.5908 C   0  0  0  0  0  0  0  0  0  0  0  0
   85.8141  -42.4192   64.6476 C   0  0  0  0  0  0  0  0  0  0  0  0
   86.8978  -41.6100   64.4246 O   0  0  0  0  0  0  0  0  0  0  0  0
   83.6089  -44.0846   64.9031 C   0  0  0  0  0  0  0  0  0  0  0  0
   85.7091  -43.5705   63.8062 C   0  0  0  0  0  0  0  0  0  0  0  0
   84.5837  -44.4331   63.9482 C   0  0  0  0  0  0  0  0  0  0  0  0
   81.3992  -43.6458   66.6459 C   0  0  0  0  0  0  0  0  0  0  0  0
   83.7106  -42.9351   65.7313 C   0  0  0  0  0  0  0  0  0  0  0  0
   81.5243  -44.9027   67.2360 C   0  0  0  0  0  0  0  0  0  0  0  0
   80.5928  -45.9003   67.0282 C   0  0  0  0  0  0  0  0  0  0  0  0
   86.6128  -43.8781   62.8488 O   0  0  0  0  0  0  0  0  0  0  0  0
   79.4995  -45.6376   66.2043 C   0  0  0  0  0  0  0  0  0  0  0  0
   74.6945  -47.5927   63.2611 C   0  0  0  0  0  0  0  0  0  0  0  0
   76.5716  -45.3959   63.9324 O   0  0  0  0  0  0  0  0  0  0  0  0
   73.7800  -48.6455   63.3059 C   0  0  0  0  0  0  0  0  0  0  0  0
   76.1098  -47.8011   63.3816 C   0  0  0  0  0  0  0  0  0  0  0  0
   78.4189  -46.6126   65.7937 C   0  0  0  0  0  0  0  0  0  0  0  0
   77.8729  -46.4598   62.1273 O   0  0  0  0  0  0  0  0  0  0  0  0
   77.1970  -46.5332   63.3684 S   0  0  1  0  0  0  0  0  0  0  0  0
   76.1610  -51.4040   63.4921 O   0  0  0  0  0  0  0  0  0  0  0  0
   74.2826  -49.9506   63.4432 C   0  0  0  0  0  0  0  0  0  0  0  0
   73.3721  -50.9489   63.4534 O   0  0  0  0  0  0  0  0  0  0  0  0
   78.3703  -47.0477   64.4041 N   0  0  0  0  0  0  0  0  0  0  0  0
   82.5232  -42.4576   66.8365 S   0  0  2  0  0  0  0  0  0  0  0  0
   81.9600  -41.2380   66.4330 O   0  0  0  0  0  0  0  0  0  0  0  0
   77.6470  -49.2950   63.6438 H   0  0  0  0  0  0  0  0  0  0  0  0
   78.4996  -44.1994   64.9828 H   0  0  0  0  0  0  0  0  0  0  0  0
   80.1870  -42.4341   65.3626 H   0  0  0  0  0  0  0  0  0  0  0  0
   84.9736  -41.2522   66.2423 H   0  0  0  0  0  0  0  0  0  0  0  0
   87.5666  -41.8566   63.7376 H   0  0  0  0  0  0  0  0  0  0  0  0
   82.7273  -44.7332   65.0128 H   0  0  0  0  0  0  0  0  0  0  0  0
   84.4800  -45.3394   63.3335 H   0  0  0  0  0  0  0  0  0  0  0  0
   82.3889  -45.1051   67.8851 H   0  0  0  0  0  0  0  0  0  0  0  0
   80.7112  -46.8849   67.5043 H   0  0  0  0  0  0  0  0  0  0  0  0
   86.4900  -44.6891   62.2945 H   0  0  0  0  0  0  0  0  0  0  0  0
   74.3181  -46.5676   63.1290 H   0  0  0  0  0  0  0  0  0  0  0  0
   72.6981  -48.4595   63.2359 H   0  0  0  0  0  0  0  0  0  0  0  0
   78.5414  -47.5136   66.4126 H   0  0  0  0  0  0  0  0  0  0  0  0
   77.4821  -46.0535   65.9350 H   0  0  0  0  0  0  0  0  0  0  0  0
   75.5320  -52.1685   63.4958 H   0  0  0  0  0  0  0  0  0  0  0  0
   72.4070  -50.7393   63.3846 H   0  0  0  0  0  0  0  0  0  0  0  0
   79.2684  -46.7696   63.9834 H   0  0  0  0  0  0  0  0  0  0  0  0
  1  3  2  0
  1 21  1  0
  2 29  2  0
  3 25  1  0
  3 26  1  0
  4  5  2  0
  4 17  1  0
  5 12  1  0
  6  7  2  0
  6 13  1  0
  7  8  1  0
  7 10  1  0
  9 11  1  0
  9 13  2  0
 10 11  2  0
 10 16  1  0
 12 14  2  0
 29 12  1  1
 13 29  1  0
 14 15  1  0
 15 17  2  0
 17 22  1  0
 18 20  1  0
 18 21  2  0
 19 24  2  0
 20 26  2  0
 21 24  1  0
 22 28  1  0
 23 24  2  0
 24 28  1  1
 26 27  1  0
 29 30  2  0
  1 31  1  0
  4 32  1  0
  5 33  1  0
  6 34  1  0
  8 35  1  0
  9 36  1  0
 11 37  1  0
 14 38  1  0
 15 39  1  0
 16 40  1  0
 18 41  1  0
 20 42  1  0
 22 43  1  0
 22 44  1  0
 25 45  1  0
 27 46  1  0
 28 47  1  0
M  END
>  <filename_input>  (17) 
7FRX_O88_docked.sdf

>  <pdb_id>  (17) 
7FRX_O88

>  <pose_rank>  (17) 
16

>  <num_atoms_heavy>  (17) 
30

>  <num_torsions>  (17) 
6

>  <pose>  (17) 
[79.3669541128778, -44.40658125377641, 65.62673614445855, -0.1492483812219045, -0.0761610020072313, -2.8403665080390654, -0.3771931167059367, 4.812155860951535, 4.1061889557101825, 13.824091859892926, 6.165957689364836, 7.083955109630965]

>  <energy>  (17) 
-547.1365110253017

>  <inter_energy>  (17) 
-555.1204343434526

>  <intra_energy>  (17) 
13.85318512166148

>  <rmsd>  (17) 
10.695

>  <sdf_rank>  (17) 
0

$$$$

     RDKit          3D

 47 49  0  0  0  0  0  0  0  0999 V2000
   85.5481  -42.7242   64.7181 C   0  0  0  0  0  0  0  0  0  0  0  0
   84.8937  -49.0435   63.6334 O   0  0  0  0  0  0  0  0  0  0  0  0
   84.3102  -42.7995   65.2827 C   0  0  0  0  0  0  0  0  0  0  0  0
   87.1084  -45.5185   63.2529 C   0  0  0  0  0  0  0  0  0  0  0  0
   86.2658  -46.6014   63.4412 C   0  0  0  0  0  0  0  0  0  0  0  0
   81.8289  -46.8343   63.5280 C   0  0  0  0  0  0  0  0  0  0  0  0
   80.8858  -46.2618   64.3584 C   0  0  0  0  0  0  0  0  0  0  0  0
   79.7923  -45.5860   63.8824 O   0  0  0  0  0  0  0  0  0  0  0  0
   83.1149  -47.4917   65.4630 C   0  0  0  0  0  0  0  0  0  0  0  0
   81.0267  -46.3013   65.7807 C   0  0  0  0  0  0  0  0  0  0  0  0
   82.1643  -46.9459   66.3474 C   0  0  0  0  0  0  0  0  0  0  0  0
   85.0852  -46.7017   62.7489 C   0  0  0  0  0  0  0  0  0  0  0  0
   82.9776  -47.4428   64.0501 C   0  0  0  0  0  0  0  0  0  0  0  0
   84.7627  -45.6836   61.8528 C   0  0  0  0  0  0  0  0  0  0  0  0
   85.5942  -44.5998   61.6526 C   0  0  0  0  0  0  0  0  0  0  0  0
   80.1466  -45.7288   66.6325 O   0  0  0  0  0  0  0  0  0  0  0  0
   86.7878  -44.5275   62.3688 C   0  0  0  0  0  0  0  0  0  0  0  0
   85.6483  -40.4000   65.3946 C   0  0  0  0  0  0  0  0  0  0  0  0
   88.6430  -42.2918   64.7558 O   0  0  0  0  0  0  0  0  0  0  0  0
   84.3988  -40.4768   66.0107 C   0  0  0  0  0  0  0  0  0  0  0  0
   86.2518  -41.5277   64.7425 C   0  0  0  0  0  0  0  0  0  0  0  0
   87.8610  -43.4700   62.2377 C   0  0  0  0  0  0  0  0  0  0  0  0
   88.1144  -40.0998   63.7563 O   0  0  0  0  0  0  0  0  0  0  0  0
   87.7657  -41.4412   64.0422 S   0  0  1  0  0  0  0  0  0  0  0  0
   83.5655  -43.9069   65.0872 O   0  0  0  0  0  0  0  0  0  0  0  0
   83.7091  -41.6997   65.9538 C   0  0  0  0  0  0  0  0  0  0  0  0
   82.4895  -41.7312   66.5347 O   0  0  0  0  0  0  0  0  0  0  0  0
   87.5145  -42.0895   62.5486 N   0  0  0  0  0  0  0  0  0  0  0  0
   84.1356  -48.0293   62.9664 S   0  0  2  0  0  0  0  0  0  0  0  0
   83.5254  -48.3497   61.7448 O   0  0  0  0  0  0  0  0  0  0  0  0
   85.9902  -43.6121   64.2426 H   0  0  0  0  0  0  0  0  0  0  0  0
   88.0475  -45.4556   63.8222 H   0  0  0  0  0  0  0  0  0  0  0  0
   86.5463  -47.3906   64.1543 H   0  0  0  0  0  0  0  0  0  0  0  0
   81.6758  -46.8122   62.4389 H   0  0  0  0  0  0  0  0  0  0  0  0
   79.1408  -45.1910   64.5146 H   0  0  0  0  0  0  0  0  0  0  0  0
   84.0057  -47.9788   65.8865 H   0  0  0  0  0  0  0  0  0  0  0  0
   82.2954  -47.0148   67.4373 H   0  0  0  0  0  0  0  0  0  0  0  0
   83.8197  -45.7454   61.2898 H   0  0  0  0  0  0  0  0  0  0  0  0
   85.3196  -43.8075   60.9406 H   0  0  0  0  0  0  0  0  0  0  0  0
   80.2940  -45.7872   67.6097 H   0  0  0  0  0  0  0  0  0  0  0  0
   86.1896  -39.4426   65.4089 H   0  0  0  0  0  0  0  0  0  0  0  0
   83.9666  -39.6060   66.5256 H   0  0  0  0  0  0  0  0  0  0  0  0
   88.6845  -43.7575   62.9079 H   0  0  0  0  0  0  0  0  0  0  0  0
   88.0959  -43.4547   61.1632 H   0  0  0  0  0  0  0  0  0  0  0  0
   82.6644  -43.9752   65.4914 H   0  0  0  0  0  0  0  0  0  0  0  0
   82.1348  -40.9242   66.9853 H   0  0  0  0  0  0  0  0  0  0  0  0
   88.0439  -41.5035   61.8872 H   0  0  0  0  0  0  0  0  0  0  0  0
  1  3  2  0
  1 21  1  0
  2 29  2  0
  3 25  1  0
  3 26  1  0
  4  5  2  0
  4 17  1  0
  5 12  1  0
  6  7  2  0
  6 13  1  0
  7  8  1  0
  7 10  1  0
  9 11  1  0
  9 13  2  0
 10 11  2  0
 10 16  1  0
 12 14  2  0
 29 12  1  6
 13 29  1  0
 14 15  1  0
 15 17  2  0
 17 22  1  0
 18 20  1  0
 18 21  2  0
 19 24  2  0
 20 26  2  0
 21 24  1  0
 22 28  1  0
 23 24  2  0
 24 28  1  6
 26 27  1  0
 29 30  2  0
  1 31  1  0
  4 32  1  0
  5 33  1  0
  6 34  1  0
  8 35  1  0
  9 36  1  0
 11 37  1  0
 14 38  1  0
 15 39  1  0
 16 40  1  0
 18 41  1  0
 20 42  1  0
 22 43  1  0
 22 44  1  0
 25 45  1  0
 27 46  1  0
 28 47  1  0
M  END
>  <filename_input>  (18) 
7FRX_O88_docked.sdf

>  <pdb_id>  (18) 
7FRX_O88

>  <pose_rank>  (18) 
17

>  <num_atoms_heavy>  (18) 
30

>  <num_torsions>  (18) 
6

>  <pose>  (18) 
[87.10842523740207, -45.51851125458739, 63.25286422120899, -0.9811666059347846, -0.9986536575812999, 0.6104164564848089, 3.0772197621961332, -3.0466710305008577, 0.8380806364906418, -7.787962883245043, -0.13559128798505032, 2.259642140008887]

>  <energy>  (18) 
-547.1463853898861

>  <inter_energy>  (18) 
-560.0701286812183

>  <intra_energy>  (18) 
18.93902705999999

>  <rmsd>  (18) 
5.36747

>  <sdf_rank>  (18) 
0

$$$$

     RDKit          3D

 47 49  0  0  0  0  0  0  0  0999 V2000
   76.9383  -47.9478   62.8232 C   0  0  0  0  0  0  0  0  0  0  0  0
   81.2453  -46.4238   67.0435 O   0  0  0  0  0  0  0  0  0  0  0  0
   76.7444  -49.1316   63.4698 C   0  0  0  0  0  0  0  0  0  0  0  0
   78.4008  -43.0987   64.8326 C   0  0  0  0  0  0  0  0  0  0  0  0
   79.4853  -43.3964   65.6409 C   0  0  0  0  0  0  0  0  0  0  0  0
   82.8070  -45.2190   64.9295 C   0  0  0  0  0  0  0  0  0  0  0  0
   83.8746  -44.8192   64.1501 C   0  0  0  0  0  0  0  0  0  0  0  0
   84.4327  -45.6226   63.1899 O   0  0  0  0  0  0  0  0  0  0  0  0
   82.9280  -43.1343   66.1418 C   0  0  0  0  0  0  0  0  0  0  0  0
   84.4961  -43.5454   64.3389 C   0  0  0  0  0  0  0  0  0  0  0  0
   83.9999  -42.6749   65.3521 C   0  0  0  0  0  0  0  0  0  0  0  0
   79.7494  -44.6904   66.0137 C   0  0  0  0  0  0  0  0  0  0  0  0
   82.3184  -44.4041   65.9587 C   0  0  0  0  0  0  0  0  0  0  0  0
   78.8955  -45.6919   65.5539 C   0  0  0  0  0  0  0  0  0  0  0  0
   77.8125  -45.4104   64.7452 C   0  0  0  0  0  0  0  0  0  0  0  0
   85.5619  -43.1232   63.6221 O   0  0  0  0  0  0  0  0  0  0  0  0
   77.5718  -44.0865   64.3816 C   0  0  0  0  0  0  0  0  0  0  0  0
   74.5574  -47.5341   62.9946 C   0  0  0  0  0  0  0  0  0  0  0  0
   75.2430  -45.6247   60.6315 O   0  0  0  0  0  0  0  0  0  0  0  0
   74.3532  -48.7248   63.6925 C   0  0  0  0  0  0  0  0  0  0  0  0
   75.8586  -47.1179   62.5533 C   0  0  0  0  0  0  0  0  0  0  0  0
   76.4919  -43.5845   63.4494 C   0  0  0  0  0  0  0  0  0  0  0  0
   77.4843  -45.3883   61.6334 O   0  0  0  0  0  0  0  0  0  0  0  0
   76.1032  -45.6717   61.7542 S   0  0  1  0  0  0  0  0  0  0  0  0
   77.7664  -50.0074   63.5567 O   0  0  0  0  0  0  0  0  0  0  0  0
   75.4668  -49.5467   63.9353 C   0  0  0  0  0  0  0  0  0  0  0  0
   75.2294  -50.7060   64.5874 O   0  0  0  0  0  0  0  0  0  0  0  0
   75.5864  -44.5566   62.8513 N   0  0  0  0  0  0  0  0  0  0  0  0
   81.0766  -45.0068   66.9357 S   0  0  2  0  0  0  0  0  0  0  0  0
   80.9924  -44.2547   68.1167 O   0  0  0  0  0  0  0  0  0  0  0  0
   77.9512  -47.6495   62.5149 H   0  0  0  0  0  0  0  0  0  0  0  0
   78.2045  -42.0538   64.5502 H   0  0  0  0  0  0  0  0  0  0  0  0
   80.1428  -42.5858   65.9883 H   0  0  0  0  0  0  0  0  0  0  0  0
   82.3328  -46.1931   64.7390 H   0  0  0  0  0  0  0  0  0  0  0  0
   85.1977  -45.2949   62.6538 H   0  0  0  0  0  0  0  0  0  0  0  0
   82.5448  -42.4789   66.9378 H   0  0  0  0  0  0  0  0  0  0  0  0
   84.4387  -41.6790   65.5120 H   0  0  0  0  0  0  0  0  0  0  0  0
   79.0900  -46.7352   65.8434 H   0  0  0  0  0  0  0  0  0  0  0  0
   77.1515  -46.2165   64.3941 H   0  0  0  0  0  0  0  0  0  0  0  0
   85.9525  -42.2302   63.7953 H   0  0  0  0  0  0  0  0  0  0  0  0
   73.6917  -46.8920   62.7750 H   0  0  0  0  0  0  0  0  0  0  0  0
   73.3504  -49.0117   64.0422 H   0  0  0  0  0  0  0  0  0  0  0  0
   75.8756  -42.8732   64.0187 H   0  0  0  0  0  0  0  0  0  0  0  0
   77.0447  -43.1679   62.5944 H   0  0  0  0  0  0  0  0  0  0  0  0
   77.6396  -50.8712   64.0236 H   0  0  0  0  0  0  0  0  0  0  0  0
   74.3110  -50.9288   64.8826 H   0  0  0  0  0  0  0  0  0  0  0  0
   75.1779  -45.0889   63.6328 H   0  0  0  0  0  0  0  0  0  0  0  0
  1  3  2  0
  1 21  1  0
  2 29  2  0
  3 25  1  0
  3 26  1  0
  4  5  2  0
  4 17  1  0
  5 12  1  0
  6  7  2  0
  6 13  1  0
  7  8  1  0
  7 10  1  0
  9 11  1  0
  9 13  2  0
 10 11  2  0
 10 16  1  0
 12 14  2  0
 29 12  1  6
 13 29  1  0
 14 15  1  0
 15 17  2  0
 17 22  1  0
 18 20  1  0
 18 21  2  0
 19 24  2  0
 20 26  2  0
 21 24  1  0
 22 28  1  0
 23 24  2  0
 24 28  1  1
 26 27  1  0
 29 30  2  0
  1 31  1  0
  4 32  1  0
  5 33  1  0
  6 34  1  0
  8 35  1  0
  9 36  1  0
 11 37  1  0
 14 38  1  0
 15 39  1  0
 16 40  1  0
 18 41  1  0
 20 42  1  0
 22 43  1  0
 22 44  1  0
 25 45  1  0
 27 46  1  0
 28 47  1  0
M  END
>  <filename_input>  (19) 
7FRX_O88_docked.sdf

>  <pdb_id>  (19) 
7FRX_O88

>  <pose_rank>  (19) 
18

>  <num_atoms_heavy>  (19) 
30

>  <num_torsions>  (19) 
6

>  <pose>  (19) 
[78.400809913404, -43.09867884184193, 64.83258909163453, -0.3463992238600936, -0.9080776057483125, 2.524132083058131, 0.32100134223541643, 0.25086979125940917, 6.040613563824452, 1.965345365314529, 3.617874598082824, -0.6907773582067706]

>  <energy>  (19) 
-500.0641833835111

>  <inter_energy>  (19) 
-535.9301371757336

>  <intra_energy>  (19) 
37.184167886827105

>  <rmsd>  (19) 
10.2353

>  <sdf_rank>  (19) 
0

$$$$

     RDKit          3D

 47 49  0  0  0  0  0  0  0  0999 V2000
   75.8218  -47.7112   62.2189 C   0  0  0  0  0  0  0  0  0  0  0  0
   81.7044  -46.3013   67.0380 O   0  0  0  0  0  0  0  0  0  0  0  0
   75.4437  -48.8150   62.9230 C   0  0  0  0  0  0  0  0  0  0  0  0
   77.8245  -43.7724   65.5125 C   0  0  0  0  0  0  0  0  0  0  0  0
   78.9011  -43.9327   66.3688 C   0  0  0  0  0  0  0  0  0  0  0  0
   83.1811  -44.4487   65.4574 C   0  0  0  0  0  0  0  0  0  0  0  0
   84.1635  -43.6595   64.8925 C   0  0  0  0  0  0  0  0  0  0  0  0
   85.1137  -44.1570   64.0390 O   0  0  0  0  0  0  0  0  0  0  0  0
   82.3815  -42.5401   66.7017 C   0  0  0  0  0  0  0  0  0  0  0  0
   84.2740  -42.2699   65.2104 C   0  0  0  0  0  0  0  0  0  0  0  0
   83.3493  -41.6927   66.1284 C   0  0  0  0  0  0  0  0  0  0  0  0
   79.8845  -44.8503   66.0969 C   0  0  0  0  0  0  0  0  0  0  0  0
   82.2797  -43.9225   66.3916 C   0  0  0  0  0  0  0  0  0  0  0  0
   79.7665  -45.6124   64.9355 C   0  0  0  0  0  0  0  0  0  0  0  0
   78.7006  -45.4614   64.0711 C   0  0  0  0  0  0  0  0  0  0  0  0
   85.2367  -41.4650   64.7071 O   0  0  0  0  0  0  0  0  0  0  0  0
   77.7188  -44.5192   64.3733 C   0  0  0  0  0  0  0  0  0  0  0  0
   77.9272  -47.7433   63.4171 C   0  0  0  0  0  0  0  0  0  0  0  0
   77.2387  -45.9963   60.2155 O   0  0  0  0  0  0  0  0  0  0  0  0
   77.5664  -48.8966   64.1147 C   0  0  0  0  0  0  0  0  0  0  0  0
   77.0628  -47.1324   62.4472 C   0  0  0  0  0  0  0  0  0  0  0  0
   76.5225  -44.1522   63.5241 C   0  0  0  0  0  0  0  0  0  0  0  0
   78.7815  -45.3055   62.0116 O   0  0  0  0  0  0  0  0  0  0  0  0
   77.5165  -45.7754   61.5854 S   0  0  1  0  0  0  0  0  0  0  0  0
   74.1710  -49.2510   62.8269 O   0  0  0  0  0  0  0  0  0  0  0  0
   76.2971  -49.4467   63.8684 C   0  0  0  0  0  0  0  0  0  0  0  0
   75.9680  -50.5459   64.5821 O   0  0  0  0  0  0  0  0  0  0  0  0
   76.4806  -44.6237   62.1462 N   0  0  0  0  0  0  0  0  0  0  0  0
   81.1720  -44.9752   67.1159 S   0  0  2  0  0  0  0  0  0  0  0  0
   80.7982  -44.4808   68.3742 O   0  0  0  0  0  0  0  0  0  0  0  0
   75.1432  -47.2786   61.4691 H   0  0  0  0  0  0  0  0  0  0  0  0
   77.0448  -43.0345   65.7525 H   0  0  0  0  0  0  0  0  0  0  0  0
   78.9687  -43.3169   67.2778 H   0  0  0  0  0  0  0  0  0  0  0  0
   83.1053  -45.5075   65.1691 H   0  0  0  0  0  0  0  0  0  0  0  0
   85.8000  -43.5545   63.6568 H   0  0  0  0  0  0  0  0  0  0  0  0
   81.6709  -42.1112   67.4236 H   0  0  0  0  0  0  0  0  0  0  0  0
   83.3901  -40.6227   66.3803 H   0  0  0  0  0  0  0  0  0  0  0  0
   80.5440  -46.3544   64.7013 H   0  0  0  0  0  0  0  0  0  0  0  0
   78.6273  -46.0738   63.1602 H   0  0  0  0  0  0  0  0  0  0  0  0
   85.2656  -40.5088   64.9619 H   0  0  0  0  0  0  0  0  0  0  0  0
   78.9076  -47.2865   63.6172 H   0  0  0  0  0  0  0  0  0  0  0  0
   78.2550  -49.3612   64.8358 H   0  0  0  0  0  0  0  0  0  0  0  0
   75.6301  -44.5485   64.0307 H   0  0  0  0  0  0  0  0  0  0  0  0
   76.5803  -43.0575   63.4339 H   0  0  0  0  0  0  0  0  0  0  0  0
   73.8825  -50.0516   63.3328 H   0  0  0  0  0  0  0  0  0  0  0  0
   76.6155  -50.9314   65.2241 H   0  0  0  0  0  0  0  0  0  0  0  0
   75.5307  -44.9928   61.9966 H   0  0  0  0  0  0  0  0  0  0  0  0
  1  3  2  0
  1 21  1  0
  2 29  2  0
  3 25  1  0
  3 26  1  0
  4  5  2  0
  4 17  1  0
  5 12  1  0
  6  7  2  0
  6 13  1  0
  7  8  1  0
  7 10  1  0
  9 11  1  0
  9 13  2  0
 10 11  2  0
 10 16  1  0
 12 14  2  0
 29 12  1  6
 13 29  1  0
 14 15  1  0
 15 17  2  0
 17 22  1  0
 18 20  1  0
 18 21  2  0
 19 24  2  0
 20 26  2  0
 21 24  1  0
 22 28  1  0
 23 24  2  0
 24 28  1  1
 26 27  1  0
 29 30  2  0
  1 31  1  0
  4 32  1  0
  5 33  1  0
  6 34  1  0
  8 35  1  0
  9 36  1  0
 11 37  1  0
 14 38  1  0
 15 39  1  0
 16 40  1  0
 18 41  1  0
 20 42  1  0
 22 43  1  0
 22 44  1  0
 25 45  1  0
 27 46  1  0
 28 47  1  0
M  END
>  <filename_input>  (20) 
7FRX_O88_docked.sdf

>  <pdb_id>  (20) 
7FRX_O88

>  <pose_rank>  (20) 
19

>  <num_atoms_heavy>  (20) 
30

>  <num_torsions>  (20) 
6

>  <pose>  (20) 
[77.82449788724227, -43.772365518409266, 65.51246808800772, -0.08571947528534463, -2.0751140646157733, 2.5264730779023448, -0.27947685263883926, 6.37450995484494, -6.740532486482, -2.925227085846886, 2.757520114491775, -3.721620188344897]

>  <energy>  (20) 
-308.7409805324526

>  <inter_energy>  (20) 
-559.2997865086705

>  <intra_energy>  (20) 
243.65782515793836

>  <rmsd>  (20) 
9.94638

>  <sdf_rank>  (20) 
0

$$$$

     RDKit          3D

 47 49  0  0  0  0  0  0  0  0999 V2000
   74.5053  -49.7568   63.2927 C   0  0  0  0  0  0  0  0  0  0  0  0
   81.0028  -44.6851   68.2403 O   0  0  0  0  0  0  0  0  0  0  0  0
   73.4161  -50.4724   62.8945 C   0  0  0  0  0  0  0  0  0  0  0  0
   78.3378  -45.3245   64.2171 C   0  0  0  0  0  0  0  0  0  0  0  0
   78.9117  -44.4993   65.1698 C   0  0  0  0  0  0  0  0  0  0  0  0
   82.6051  -44.3699   65.4208 C   0  0  0  0  0  0  0  0  0  0  0  0
   83.7840  -44.0530   64.7754 C   0  0  0  0  0  0  0  0  0  0  0  0
   84.4802  -44.9583   64.0174 O   0  0  0  0  0  0  0  0  0  0  0  0
   82.5486  -42.1540   66.3783 C   0  0  0  0  0  0  0  0  0  0  0  0
   84.3767  -42.7582   64.9048 C   0  0  0  0  0  0  0  0  0  0  0  0
   83.7338  -41.7790   65.7164 C   0  0  0  0  0  0  0  0  0  0  0  0
   79.8935  -44.9683   66.0060 C   0  0  0  0  0  0  0  0  0  0  0  0
   81.9668  -43.4440   66.2559 C   0  0  0  0  0  0  0  0  0  0  0  0
   80.2941  -46.2963   65.8659 C   0  0  0  0  0  0  0  0  0  0  0  0
   79.7331  -47.1297   64.9188 C   0  0  0  0  0  0  0  0  0  0  0  0
   85.5443  -42.4116   64.3178 O   0  0  0  0  0  0  0  0  0  0  0  0
   78.7397  -46.6233   64.0824 C   0  0  0  0  0  0  0  0  0  0  0  0
   75.6913  -51.8471   63.5977 C   0  0  0  0  0  0  0  0  0  0  0  0
   78.1703  -50.2309   63.7909 O   0  0  0  0  0  0  0  0  0  0  0  0
   74.5955  -52.5878   63.1535 C   0  0  0  0  0  0  0  0  0  0  0  0
   75.6696  -50.4133   63.6676 C   0  0  0  0  0  0  0  0  0  0  0  0
   78.0599  -47.3464   62.9413 C   0  0  0  0  0  0  0  0  0  0  0  0
   76.8198  -49.0410   65.4772 O   0  0  0  0  0  0  0  0  0  0  0  0
   76.9983  -49.5296   64.1611 S   0  0  1  0  0  0  0  0  0  0  0  0
   72.2410  -49.8350   62.7157 O   0  0  0  0  0  0  0  0  0  0  0  0
   73.4290  -51.8906   62.7959 C   0  0  0  0  0  0  0  0  0  0  0  0
   72.3772  -52.6399   62.3984 O   0  0  0  0  0  0  0  0  0  0  0  0
   76.8944  -48.1685   63.2388 N   0  0  0  0  0  0  0  0  0  0  0  0
   80.5835  -43.9408   67.0922 S   0  0  2  0  0  0  0  0  0  0  0  0
   79.7252  -42.8482   67.2843 O   0  0  0  0  0  0  0  0  0  0  0  0
   74.4618  -48.6579   63.3171 H   0  0  0  0  0  0  0  0  0  0  0  0
   77.5486  -44.9293   63.5606 H   0  0  0  0  0  0  0  0  0  0  0  0
   78.5765  -43.4552   65.2573 H   0  0  0  0  0  0  0  0  0  0  0  0
   82.1601  -45.3655   65.2768 H   0  0  0  0  0  0  0  0  0  0  0  0
   85.3218  -44.6877   63.5720 H   0  0  0  0  0  0  0  0  0  0  0  0
   82.0500  -41.4129   67.0203 H   0  0  0  0  0  0  0  0  0  0  0  0
   84.1488  -40.7658   65.8222 H   0  0  0  0  0  0  0  0  0  0  0  0
   81.0786  -46.6911   66.5282 H   0  0  0  0  0  0  0  0  0  0  0  0
   80.0642  -48.1745   64.8259 H   0  0  0  0  0  0  0  0  0  0  0  0
   85.9089  -41.4995   64.4415 H   0  0  0  0  0  0  0  0  0  0  0  0
   76.6032  -52.3801   63.9049 H   0  0  0  0  0  0  0  0  0  0  0  0
   74.6433  -53.6847   63.0852 H   0  0  0  0  0  0  0  0  0  0  0  0
   77.7429  -46.5832   62.2154 H   0  0  0  0  0  0  0  0  0  0  0  0
   78.8145  -48.0647   62.5883 H   0  0  0  0  0  0  0  0  0  0  0  0
   71.4416  -50.3424   62.4266 H   0  0  0  0  0  0  0  0  0  0  0  0
   72.4602  -53.6254   62.3539 H   0  0  0  0  0  0  0  0  0  0  0  0
   76.2191  -47.5509   63.7114 H   0  0  0  0  0  0  0  0  0  0  0  0
  1  3  2  0
  1 21  1  0
  2 29  2  0
  3 25  1  0
  3 26  1  0
  4  5  2  0
  4 17  1  0
  5 12  1  0
  6  7  2  0
  6 13  1  0
  7  8  1  0
  7 10  1  0
  9 11  1  0
  9 13  2  0
 10 11  2  0
 10 16  1  0
 12 14  2  0
 29 12  1  6
 13 29  1  0
 14 15  1  0
 15 17  2  0
 17 22  1  0
 18 20  1  0
 18 21  2  0
 19 24  2  0
 20 26  2  0
 21 24  1  0
 22 28  1  0
 23 24  2  0
 24 28  1  6
 26 27  1  0
 29 30  2  0
  1 31  1  0
  4 32  1  0
  5 33  1  0
  6 34  1  0
  8 35  1  0
  9 36  1  0
 11 37  1  0
 14 38  1  0
 15 39  1  0
 16 40  1  0
 18 41  1  0
 20 42  1  0
 22 43  1  0
 22 44  1  0
 25 45  1  0
 27 46  1  0
 28 47  1  0
M  END
>  <filename_input>  (21) 
7FRX_O88_docked.sdf

>  <pdb_id>  (21) 
7FRX_O88

>  <pose_rank>  (21) 
20

>  <num_atoms_heavy>  (21) 
30

>  <num_torsions>  (21) 
6

>  <pose>  (21) 
[78.33781801497194, -45.32449148525387, 64.2170770669836, -0.41284693317956184, -0.9107686891235315, 3.549675674625189, -0.33284759055549, 1.0842382160922055, 1.2653702676021183, 1.9909949511280096, -1.1243005085406348, 0.7977664090158613]

>  <energy>  (21) 
-503.29588313166573

>  <inter_energy>  (21) 
-522.5505326412402

>  <intra_energy>  (21) 
20.052410992845935

>  <rmsd>  (21) 
11.572

>  <sdf_rank>  (21) 
0

$$$$

     RDKit          3D

 47 49  0  0  0  0  0  0  0  0999 V2000
   78.9393  -45.4813   61.2329 C   0  0  0  0  0  0  0  0  0  0  0  0
   82.3280  -46.5973   66.2887 O   0  0  0  0  0  0  0  0  0  0  0  0
   79.9122  -46.0694   60.4816 C   0  0  0  0  0  0  0  0  0  0  0  0
   78.5773  -45.9414   64.5788 C   0  0  0  0  0  0  0  0  0  0  0  0
   79.8067  -46.1034   65.1957 C   0  0  0  0  0  0  0  0  0  0  0  0
   83.4938  -44.1800   65.4436 C   0  0  0  0  0  0  0  0  0  0  0  0
   84.2827  -43.1001   65.0994 C   0  0  0  0  0  0  0  0  0  0  0  0
   85.2847  -43.1818   64.1676 O   0  0  0  0  0  0  0  0  0  0  0  0
   82.3735  -42.8192   67.0939 C   0  0  0  0  0  0  0  0  0  0  0  0
   84.1270  -41.8320   65.7413 C   0  0  0  0  0  0  0  0  0  0  0  0
   83.1364  -41.6848   66.7552 C   0  0  0  0  0  0  0  0  0  0  0  0
   80.2352  -45.2174   66.1520 C   0  0  0  0  0  0  0  0  0  0  0  0
   82.5365  -44.0805   66.4614 C   0  0  0  0  0  0  0  0  0  0  0  0
   79.3966  -44.1537   66.4822 C   0  0  0  0  0  0  0  0  0  0  0  0
   78.1673  -43.9812   65.8779 C   0  0  0  0  0  0  0  0  0  0  0  0
   84.8955  -40.7557   65.4604 O   0  0  0  0  0  0  0  0  0  0  0  0
   77.7589  -44.8994   64.9120 C   0  0  0  0  0  0  0  0  0  0  0  0
   77.6245  -45.2192   59.2150 C   0  0  0  0  0  0  0  0  0  0  0  0
   75.3870  -44.2717   60.8101 O   0  0  0  0  0  0  0  0  0  0  0  0
   78.5966  -45.8559   58.4428 C   0  0  0  0  0  0  0  0  0  0  0  0
   77.7741  -45.0272   60.6299 C   0  0  0  0  0  0  0  0  0  0  0  0
   76.4278  -44.9289   64.1946 C   0  0  0  0  0  0  0  0  0  0  0  0
   77.0865  -43.1395   62.1933 O   0  0  0  0  0  0  0  0  0  0  0  0
   76.5891  -44.3011   61.5562 S   0  0  1  0  0  0  0  0  0  0  0  0
   81.1086  -46.3326   61.0459 O   0  0  0  0  0  0  0  0  0  0  0  0
   79.7692  -46.2896   59.0843 C   0  0  0  0  0  0  0  0  0  0  0  0
   80.7024  -46.8754   58.3023 O   0  0  0  0  0  0  0  0  0  0  0  0
   76.4003  -45.3608   62.8035 N   0  0  0  0  0  0  0  0  0  0  0  0
   81.6819  -45.4737   66.8954 S   0  0  2  0  0  0  0  0  0  0  0  0
   81.4764  -45.4933   68.2828 O   0  0  0  0  0  0  0  0  0  0  0  0
   79.0772  -45.3662   62.3181 H   0  0  0  0  0  0  0  0  0  0  0  0
   78.2559  -46.6606   63.8111 H   0  0  0  0  0  0  0  0  0  0  0  0
   80.4474  -46.9526   64.9157 H   0  0  0  0  0  0  0  0  0  0  0  0
   83.6191  -45.1336   64.9099 H   0  0  0  0  0  0  0  0  0  0  0  0
   85.8261  -42.3816   63.9515 H   0  0  0  0  0  0  0  0  0  0  0  0
   81.6157  -42.7239   67.8855 H   0  0  0  0  0  0  0  0  0  0  0  0
   82.9734  -40.7190   67.2557 H   0  0  0  0  0  0  0  0  0  0  0  0
   79.7233  -43.4320   67.2454 H   0  0  0  0  0  0  0  0  0  0  0  0
   77.5217  -43.1344   66.1537 H   0  0  0  0  0  0  0  0  0  0  0  0
   84.7433  -39.9011   65.9364 H   0  0  0  0  0  0  0  0  0  0  0  0
   76.7120  -44.8518   58.7228 H   0  0  0  0  0  0  0  0  0  0  0  0
   78.4496  -46.0136   57.3641 H   0  0  0  0  0  0  0  0  0  0  0  0
   75.7693  -45.6060   64.7585 H   0  0  0  0  0  0  0  0  0  0  0  0
   76.1175  -43.8743   64.1567 H   0  0  0  0  0  0  0  0  0  0  0  0
   81.8246  -46.7596   60.5118 H   0  0  0  0  0  0  0  0  0  0  0  0
   80.5326  -46.9956   57.3344 H   0  0  0  0  0  0  0  0  0  0  0  0
   77.1501  -46.0598   62.7038 H   0  0  0  0  0  0  0  0  0  0  0  0
  1  3  2  0
  1 21  1  0
  2 29  2  0
  3 25  1  0
  3 26  1  0
  4  5  2  0
  4 17  1  0
  5 12  1  0
  6  7  2  0
  6 13  1  0
  7  8  1  0
  7 10  1  0
  9 11  1  0
  9 13  2  0
 10 11  2  0
 10 16  1  0
 12 14  2  0
 29 12  1  6
 13 29  1  0
 14 15  1  0
 15 17  2  0
 17 22  1  0
 18 20  1  0
 18 21  2  0
 19 24  2  0
 20 26  2  0
 21 24  1  0
 22 28  1  0
 23 24  2  0
 24 28  1  1
 26 27  1  0
 29 30  2  0
  1 31  1  0
  4 32  1  0
  5 33  1  0
  6 34  1  0
  8 35  1  0
  9 36  1  0
 11 37  1  0
 14 38  1  0
 15 39  1  0
 16 40  1  0
 18 41  1  0
 20 42  1  0
 22 43  1  0
 22 44  1  0
 25 45  1  0
 27 46  1  0
 28 47  1  0
M  END
>  <filename_input>  (22) 
7FRX_O88_docked.sdf

>  <pdb_id>  (22) 
7FRX_O88

>  <pose_rank>  (22) 
21

>  <num_atoms_heavy>  (22) 
30

>  <num_torsions>  (22) 
6

>  <pose>  (22) 
[78.57733838435647, -45.941395296348865, 64.57882652120155, -0.4894397726187279, 1.7542156308023, 1.1986389221217755, 3.4137863503166495, -0.10100380521188053, 8.570336228586868, 1.574281784350072, -2.4169098555329804, 6.809054841274368]

>  <energy>  (22) 
-503.76303027171605

>  <inter_energy>  (22) 
-500.7979936650513

>  <intra_energy>  (22) 
14.37717235469458

>  <rmsd>  (22) 
9.1787

>  <sdf_rank>  (22) 
0

$$$$

     RDKit          3D

 47 49  0  0  0  0  0  0  0  0999 V2000
   82.8542  -42.3402   66.2839 C   0  0  0  0  0  0  0  0  0  0  0  0
   74.9126  -46.0224   60.8193 O   0  0  0  0  0  0  0  0  0  0  0  0
   84.0186  -42.0250   65.6501 C   0  0  0  0  0  0  0  0  0  0  0  0
   78.4825  -46.3613   63.1574 C   0  0  0  0  0  0  0  0  0  0  0  0
   77.2429  -46.5437   62.5671 C   0  0  0  0  0  0  0  0  0  0  0  0
   73.2921  -47.8235   63.6172 C   0  0  0  0  0  0  0  0  0  0  0  0
   72.9829  -49.0855   64.0847 C   0  0  0  0  0  0  0  0  0  0  0  0
   72.0453  -49.3050   65.0602 O   0  0  0  0  0  0  0  0  0  0  0  0
   74.9925  -48.7810   62.1952 C   0  0  0  0  0  0  0  0  0  0  0  0
   73.6690  -50.2443   63.6042 C   0  0  0  0  0  0  0  0  0  0  0  0
   74.6908  -50.0884   62.6232 C   0  0  0  0  0  0  0  0  0  0  0  0
   76.1492  -45.8346   62.9961 C   0  0  0  0  0  0  0  0  0  0  0  0
   74.3161  -47.6303   62.6810 C   0  0  0  0  0  0  0  0  0  0  0  0
   76.3249  -44.9275   64.0401 C   0  0  0  0  0  0  0  0  0  0  0  0
   77.5550  -44.7330   64.6360 C   0  0  0  0  0  0  0  0  0  0  0  0
   73.4230  -51.4954   64.0538 O   0  0  0  0  0  0  0  0  0  0  0  0
   78.6476  -45.4664   64.1765 C   0  0  0  0  0  0  0  0  0  0  0  0
   82.9263  -44.5092   65.2071 C   0  0  0  0  0  0  0  0  0  0  0  0
   79.8923  -42.9326   66.5873 O   0  0  0  0  0  0  0  0  0  0  0  0
   84.1391  -44.2121   64.5846 C   0  0  0  0  0  0  0  0  0  0  0  0
   82.2637  -43.5796   66.0777 C   0  0  0  0  0  0  0  0  0  0  0  0
   80.0814  -45.3448   64.6417 C   0  0  0  0  0  0  0  0  0  0  0  0
   81.0758  -44.4059   68.1722 O   0  0  0  0  0  0  0  0  0  0  0  0
   80.8328  -43.9561   66.8526 S   0  0  1  0  0  0  0  0  0  0  0  0
   84.4778  -40.7583   65.7116 O   0  0  0  0  0  0  0  0  0  0  0  0
   84.7003  -42.9428   64.8049 C   0  0  0  0  0  0  0  0  0  0  0  0
   85.8596  -42.6770   64.1637 O   0  0  0  0  0  0  0  0  0  0  0  0
   80.3452  -45.3239   66.0744 N   0  0  0  0  0  0  0  0  0  0  0  0
   74.7044  -46.0461   62.2350 S   0  0  2  0  0  0  0  0  0  0  0  0
   73.7722  -45.1544   62.7857 O   0  0  0  0  0  0  0  0  0  0  0  0
   82.3817  -41.6119   66.9595 H   0  0  0  0  0  0  0  0  0  0  0  0
   79.3447  -46.9442   62.8013 H   0  0  0  0  0  0  0  0  0  0  0  0
   77.1339  -47.2658   61.7445 H   0  0  0  0  0  0  0  0  0  0  0  0
   72.7252  -46.9559   63.9858 H   0  0  0  0  0  0  0  0  0  0  0  0
   71.8552  -50.2274   65.3656 H   0  0  0  0  0  0  0  0  0  0  0  0
   75.7896  -48.6445   61.4495 H   0  0  0  0  0  0  0  0  0  0  0  0
   75.2252  -50.9587   62.2145 H   0  0  0  0  0  0  0  0  0  0  0  0
   75.4596  -44.3509   64.3990 H   0  0  0  0  0  0  0  0  0  0  0  0
   77.6708  -44.0121   65.4588 H   0  0  0  0  0  0  0  0  0  0  0  0
   73.9288  -52.2623   63.6850 H   0  0  0  0  0  0  0  0  0  0  0  0
   82.4619  -45.4895   65.0247 H   0  0  0  0  0  0  0  0  0  0  0  0
   84.6409  -44.9493   63.9406 H   0  0  0  0  0  0  0  0  0  0  0  0
   80.6332  -46.1988   64.2218 H   0  0  0  0  0  0  0  0  0  0  0  0
   80.3951  -44.3494   64.2943 H   0  0  0  0  0  0  0  0  0  0  0  0
   85.3224  -40.5153   65.2559 H   0  0  0  0  0  0  0  0  0  0  0  0
   86.2774  -43.3672   63.5900 H   0  0  0  0  0  0  0  0  0  0  0  0
   79.4718  -45.6205   66.5327 H   0  0  0  0  0  0  0  0  0  0  0  0
  1  3  2  0
  1 21  1  0
  2 29  2  0
  3 25  1  0
  3 26  1  0
  4  5  2  0
  4 17  1  0
  5 12  1  0
  6  7  2  0
  6 13  1  0
  7  8  1  0
  7 10  1  0
  9 11  1  0
  9 13  2  0
 10 11  2  0
 10 16  1  0
 12 14  2  0
 29 12  1  1
 13 29  1  0
 14 15  1  0
 15 17  2  0
 17 22  1  0
 18 20  1  0
 18 21  2  0
 19 24  2  0
 20 26  2  0
 21 24  1  0
 22 28  1  0
 23 24  2  0
 24 28  1  6
 26 27  1  0
 29 30  2  0
  1 31  1  0
  4 32  1  0
  5 33  1  0
  6 34  1  0
  8 35  1  0
  9 36  1  0
 11 37  1  0
 14 38  1  0
 15 39  1  0
 16 40  1  0
 18 41  1  0
 20 42  1  0
 22 43  1  0
 22 44  1  0
 25 45  1  0
 27 46  1  0
 28 47  1  0
M  END
>  <filename_input>  (23) 
7FRX_O88_docked.sdf

>  <pdb_id>  (23) 
7FRX_O88

>  <pose_rank>  (23) 
22

>  <num_atoms_heavy>  (23) 
30

>  <num_torsions>  (23) 
6

>  <pose>  (23) 
[78.48245068866103, -46.36128408816443, 63.15740663705914, -2.1924572985456816, 4.4259579309978925, 2.3825650114907755, 15.096714883093687, 3.561753866221267, -5.697643098893254, -17.61215413612725, -55.989774938616044, -8.253460426045887]

>  <energy>  (23) 
-451.4440096922182

>  <inter_energy>  (23) 
-483.13563389684055

>  <intra_energy>  (23) 
29.42248198050264

>  <rmsd>  (23) 
6.60162

>  <sdf_rank>  (23) 
0

$$$$

     RDKit          3D

 47 49  0  0  0  0  0  0  0  0999 V2000
   86.8047  -47.1818   60.7084 C   0  0  0  0  0  0  0  0  0  0  0  0
   79.9829  -46.2145   66.8360 O   0  0  0  0  0  0  0  0  0  0  0  0
   86.3815  -46.1759   59.8922 C   0  0  0  0  0  0  0  0  0  0  0  0
   82.7539  -47.9133   63.1644 C   0  0  0  0  0  0  0  0  0  0  0  0
   81.8709  -46.9698   63.6628 C   0  0  0  0  0  0  0  0  0  0  0  0
   82.7515  -44.5832   65.0673 C   0  0  0  0  0  0  0  0  0  0  0  0
   83.6942  -43.5900   65.2452 C   0  0  0  0  0  0  0  0  0  0  0  0
   84.9434  -43.6451   64.6836 O   0  0  0  0  0  0  0  0  0  0  0  0
   81.2495  -43.4045   66.5455 C   0  0  0  0  0  0  0  0  0  0  0  0
   83.4315  -42.4571   66.0770 C   0  0  0  0  0  0  0  0  0  0  0  0
   82.1704  -42.3555   66.7327 C   0  0  0  0  0  0  0  0  0  0  0  0
   81.4694  -47.0070   64.9745 C   0  0  0  0  0  0  0  0  0  0  0  0
   81.5163  -44.5338   65.7263 C   0  0  0  0  0  0  0  0  0  0  0  0
   81.9774  -48.0200   65.7866 C   0  0  0  0  0  0  0  0  0  0  0  0
   82.8605  -48.9654   65.3044 C   0  0  0  0  0  0  0  0  0  0  0  0
   84.3333  -41.4761   66.3059 O   0  0  0  0  0  0  0  0  0  0  0  0
   83.2515  -48.8997   63.9681 C   0  0  0  0  0  0  0  0  0  0  0  0
   84.8258  -48.4345   60.0889 C   0  0  0  0  0  0  0  0  0  0  0  0
   87.9168  -49.3208   62.1916 O   0  0  0  0  0  0  0  0  0  0  0  0
   84.4033  -47.4280   59.2199 C   0  0  0  0  0  0  0  0  0  0  0  0
   86.0421  -48.3338   60.8449 C   0  0  0  0  0  0  0  0  0  0  0  0
   84.2596  -49.7879   63.2738 C   0  0  0  0  0  0  0  0  0  0  0  0
   86.1380  -50.8218   61.3752 O   0  0  0  0  0  0  0  0  0  0  0  0
   86.5637  -49.5595   61.8526 S   0  0  1  0  0  0  0  0  0  0  0  0
   87.0316  -44.9944   59.9149 O   0  0  0  0  0  0  0  0  0  0  0  0
   85.1929  -46.2701   59.1179 C   0  0  0  0  0  0  0  0  0  0  0  0
   84.7399  -45.3030   58.2901 O   0  0  0  0  0  0  0  0  0  0  0  0
   85.6438  -49.3394   63.2015 N   0  0  0  0  0  0  0  0  0  0  0  0
   80.4564  -45.8380   65.5390 S   0  0  2  0  0  0  0  0  0  0  0  0
   79.5114  -45.5445   64.5448 O   0  0  0  0  0  0  0  0  0  0  0  0
   87.7513  -47.0808   61.2595 H   0  0  0  0  0  0  0  0  0  0  0  0
   83.0584  -47.8678   62.1084 H   0  0  0  0  0  0  0  0  0  0  0  0
   81.4868  -46.1811   62.9991 H   0  0  0  0  0  0  0  0  0  0  0  0
   82.9740  -45.4269   64.3974 H   0  0  0  0  0  0  0  0  0  0  0  0
   85.5883  -42.9100   64.8377 H   0  0  0  0  0  0  0  0  0  0  0  0
   80.2779  -43.3466   67.0579 H   0  0  0  0  0  0  0  0  0  0  0  0
   81.9247  -41.4880   67.3629 H   0  0  0  0  0  0  0  0  0  0  0  0
   81.6659  -48.0674   66.8405 H   0  0  0  0  0  0  0  0  0  0  0  0
   83.2486  -49.7564   65.9631 H   0  0  0  0  0  0  0  0  0  0  0  0
   84.0973  -40.7136   66.8915 H   0  0  0  0  0  0  0  0  0  0  0  0
   84.2055  -49.3364   60.1985 H   0  0  0  0  0  0  0  0  0  0  0  0
   83.4799  -47.5376   58.6323 H   0  0  0  0  0  0  0  0  0  0  0  0
   84.2578  -50.7543   63.7991 H   0  0  0  0  0  0  0  0  0  0  0  0
   83.9264  -49.8074   62.2257 H   0  0  0  0  0  0  0  0  0  0  0  0
   86.7350  -44.2549   59.3273 H   0  0  0  0  0  0  0  0  0  0  0  0
   83.9017  -45.4395   57.7813 H   0  0  0  0  0  0  0  0  0  0  0  0
   85.6276  -48.3245   63.3769 H   0  0  0  0  0  0  0  0  0  0  0  0
  1  3  2  0
  1 21  1  0
  2 29  2  0
  3 25  1  0
  3 26  1  0
  4  5  2  0
  4 17  1  0
  5 12  1  0
  6  7  2  0
  6 13  1  0
  7  8  1  0
  7 10  1  0
  9 11  1  0
  9 13  2  0
 10 11  2  0
 10 16  1  0
 12 14  2  0
 29 12  1  6
 13 29  1  0
 14 15  1  0
 15 17  2  0
 17 22  1  0
 18 20  1  0
 18 21  2  0
 19 24  2  0
 20 26  2  0
 21 24  1  0
 22 28  1  0
 23 24  2  0
 24 28  1  1
 26 27  1  0
 29 30  2  0
  1 31  1  0
  4 32  1  0
  5 33  1  0
  6 34  1  0
  8 35  1  0
  9 36  1  0
 11 37  1  0
 14 38  1  0
 15 39  1  0
 16 40  1  0
 18 41  1  0
 20 42  1  0
 22 43  1  0
 22 44  1  0
 25 45  1  0
 27 46  1  0
 28 47  1  0
M  END
>  <filename_input>  (24) 
7FRX_O88_docked.sdf

>  <pdb_id>  (24) 
7FRX_O88

>  <pose_rank>  (24) 
23

>  <num_atoms_heavy>  (24) 
30

>  <num_torsions>  (24) 
6

>  <pose>  (24) 
[82.75391404061283, -47.91326360385082, 63.16443530368061, 1.256690302531519, -0.09341281990309601, -1.5455382826588637, -0.0008903566996365678, -4.288441674247131, -1.878287496742994, 0.6868271614243467, 2.9816591384137103, 3.1530415306477346]

>  <energy>  (24) 
-427.7830762014768

>  <inter_energy>  (24) 
-449.21172634097354

>  <intra_energy>  (24) 
27.91392395622526

>  <rmsd>  (24) 
7.6279

>  <sdf_rank>  (24) 
0

$$$$

     RDKit          3D

 47 49  0  0  0  0  0  0  0  0999 V2000
   86.8270  -44.9996   61.7247 C   0  0  0  0  0  0  0  0  0  0  0  0
   77.7938  -47.5576   63.3020 O   0  0  0  0  0  0  0  0  0  0  0  0
   86.8410  -43.6758   62.0478 C   0  0  0  0  0  0  0  0  0  0  0  0
   81.5233  -46.1834   60.9038 C   0  0  0  0  0  0  0  0  0  0  0  0
   80.2336  -46.0965   61.4009 C   0  0  0  0  0  0  0  0  0  0  0  0
   78.5983  -44.4140   65.1597 C   0  0  0  0  0  0  0  0  0  0  0  0
   78.8925  -43.9381   66.4223 C   0  0  0  0  0  0  0  0  0  0  0  0
   78.8886  -42.6024   66.7301 O   0  0  0  0  0  0  0  0  0  0  0  0
   79.0619  -46.6609   65.9125 C   0  0  0  0  0  0  0  0  0  0  0  0
   79.2705  -44.8229   67.4799 C   0  0  0  0  0  0  0  0  0  0  0  0
   79.3431  -46.2224   67.2210 C   0  0  0  0  0  0  0  0  0  0  0  0
   79.9577  -46.4351   62.7019 C   0  0  0  0  0  0  0  0  0  0  0  0
   78.6959  -45.7790   64.8609 C   0  0  0  0  0  0  0  0  0  0  0  0
   81.0130  -46.8668   63.5043 C   0  0  0  0  0  0  0  0  0  0  0  0
   82.3040  -46.9556   63.0233 C   0  0  0  0  0  0  0  0  0  0  0  0
   79.5973  -44.4016   68.7224 O   0  0  0  0  0  0  0  0  0  0  0  0
   82.5530  -46.6021   61.6981 C   0  0  0  0  0  0  0  0  0  0  0  0
   85.5035  -45.4081   63.7123 C   0  0  0  0  0  0  0  0  0  0  0  0
   85.9707  -48.2856   63.3273 O   0  0  0  0  0  0  0  0  0  0  0  0
   85.4776  -44.0501   64.0313 C   0  0  0  0  0  0  0  0  0  0  0  0
   86.1731  -45.9087   62.5453 C   0  0  0  0  0  0  0  0  0  0  0  0
   83.8986  -46.5579   61.0092 C   0  0  0  0  0  0  0  0  0  0  0  0
   87.2147  -47.8342   61.2459 O   0  0  0  0  0  0  0  0  0  0  0  0
   86.1661  -47.5306   62.1464 S   0  0  1  0  0  0  0  0  0  0  0  0
   87.6332  -42.8376   61.3487 O   0  0  0  0  0  0  0  0  0  0  0  0
   86.1622  -43.1606   63.1858 C   0  0  0  0  0  0  0  0  0  0  0  0
   86.1418  -41.8567   63.5397 O   0  0  0  0  0  0  0  0  0  0  0  0
   84.8170  -47.6707   61.2113 N   0  0  0  0  0  0  0  0  0  0  0  0
   78.4198  -46.2712   63.2668 S   0  0  2  0  0  0  0  0  0  0  0  0
   77.7869  -45.2423   62.5538 O   0  0  0  0  0  0  0  0  0  0  0  0
   87.3341  -45.3481   60.8129 H   0  0  0  0  0  0  0  0  0  0  0  0
   81.7211  -45.9119   59.8563 H   0  0  0  0  0  0  0  0  0  0  0  0
   79.4205  -45.7518   60.7451 H   0  0  0  0  0  0  0  0  0  0  0  0
   78.2822  -43.7097   64.3761 H   0  0  0  0  0  0  0  0  0  0  0  0
   79.1058  -42.3056   67.6492 H   0  0  0  0  0  0  0  0  0  0  0  0
   79.1290  -47.7370   65.6947 H   0  0  0  0  0  0  0  0  0  0  0  0
   79.6093  -46.9352   68.0154 H   0  0  0  0  0  0  0  0  0  0  0  0
   80.8113  -47.1442   64.5494 H   0  0  0  0  0  0  0  0  0  0  0  0
   83.1216  -47.2991   63.6742 H   0  0  0  0  0  0  0  0  0  0  0  0
   79.8518  -45.0593   69.4172 H   0  0  0  0  0  0  0  0  0  0  0  0
   84.9932  -46.1198   64.3781 H   0  0  0  0  0  0  0  0  0  0  0  0
   84.9374  -43.6866   64.9179 H   0  0  0  0  0  0  0  0  0  0  0  0
   83.7083  -46.4854   59.9282 H   0  0  0  0  0  0  0  0  0  0  0  0
   84.4094  -45.6987   61.4682 H   0  0  0  0  0  0  0  0  0  0  0  0
   87.6534  -41.8734   61.5726 H   0  0  0  0  0  0  0  0  0  0  0  0
   85.6464  -41.5708   64.3477 H   0  0  0  0  0  0  0  0  0  0  0  0
   84.2597  -48.4335   61.6218 H   0  0  0  0  0  0  0  0  0  0  0  0
  1  3  2  0
  1 21  1  0
  2 29  2  0
  3 25  1  0
  3 26  1  0
  4  5  2  0
  4 17  1  0
  5 12  1  0
  6  7  2  0
  6 13  1  0
  7  8  1  0
  7 10  1  0
  9 11  1  0
  9 13  2  0
 10 11  2  0
 10 16  1  0
 12 14  2  0
 29 12  1  6
 13 29  1  0
 14 15  1  0
 15 17  2  0
 17 22  1  0
 18 20  1  0
 18 21  2  0
 19 24  2  0
 20 26  2  0
 21 24  1  0
 22 28  1  0
 23 24  2  0
 24 28  1  6
 26 27  1  0
 29 30  2  0
  1 31  1  0
  4 32  1  0
  5 33  1  0
  6 34  1  0
  8 35  1  0
  9 36  1  0
 11 37  1  0
 14 38  1  0
 15 39  1  0
 16 40  1  0
 18 41  1  0
 20 42  1  0
 22 43  1  0
 22 44  1  0
 25 45  1  0
 27 46  1  0
 28 47  1  0
M  END
>  <filename_input>  (25) 
7FRX_O88_docked.sdf

>  <pdb_id>  (25) 
7FRX_O88

>  <pose_rank>  (25) 
24

>  <num_atoms_heavy>  (25) 
30

>  <num_torsions>  (25) 
6

>  <pose>  (25) 
[81.52331201780538, -46.183412013134095, 60.90379552994435, 1.1432944026705012, 0.3511704219289747, -0.8965082393854366, -1.1740938014018554, 3.4248151772979365, 0.5401910941107751, 1.2657711339358806, 1.5104819102375062, -0.18147842409455087]

>  <energy>  (25) 
-432.1613796105974

>  <inter_energy>  (25) 
-458.37883830742874

>  <intra_energy>  (25) 
26.55488388364828

>  <rmsd>  (25) 
5.69582

>  <sdf_rank>  (25) 
0

$$$$

     RDKit          3D

 47 49  0  0  0  0  0  0  0  0999 V2000
   88.2640  -40.8110   67.2830 C   0  0  0  0  0  0  0  0  0  0  0  0
   79.2980  -44.4940   67.8230 O   0  0  0  0  0  0  0  0  0  0  0  0
   89.2470  -41.3980   68.0220 C   0  0  0  0  0  0  0  0  0  0  0  0
   83.3570  -44.2570   65.0820 C   0  0  0  0  0  0  0  0  0  0  0  0
   82.1970  -44.9170   65.4520 C   0  0  0  0  0  0  0  0  0  0  0  0
   78.0660  -43.8020   65.3720 C   0  0  0  0  0  0  0  0  0  0  0  0
   77.2130  -43.5660   64.3120 C   0  0  0  0  0  0  0  0  0  0  0  0
   76.2430  -42.5980   64.3430 O   0  0  0  0  0  0  0  0  0  0  0  0
   79.0470  -45.6430   64.1560 C   0  0  0  0  0  0  0  0  0  0  0  0
   77.2640  -44.3630   63.1260 C   0  0  0  0  0  0  0  0  0  0  0  0
   78.2160  -45.4200   63.0410 C   0  0  0  0  0  0  0  0  0  0  0  0
   81.3170  -44.3480   66.3380 C   0  0  0  0  0  0  0  0  0  0  0  0
   78.9880  -44.8560   65.3370 C   0  0  0  0  0  0  0  0  0  0  0  0
   81.6260  -43.0890   66.8510 C   0  0  0  0  0  0  0  0  0  0  0  0
   82.7770  -42.4180   66.4890 C   0  0  0  0  0  0  0  0  0  0  0  0
   76.4300  -44.1900   62.0760 O   0  0  0  0  0  0  0  0  0  0  0  0
   83.6500  -43.0210   65.5850 C   0  0  0  0  0  0  0  0  0  0  0  0
   88.8350  -42.2960   65.4560 C   0  0  0  0  0  0  0  0  0  0  0  0
   87.0040  -40.8560   63.7190 O   0  0  0  0  0  0  0  0  0  0  0  0
   89.8170  -42.9310   66.2170 C   0  0  0  0  0  0  0  0  0  0  0  0
   88.0320  -41.2270   65.9790 C   0  0  0  0  0  0  0  0  0  0  0  0
   84.9140  -42.4230   65.0090 C   0  0  0  0  0  0  0  0  0  0  0  0
   86.6560  -39.1480   65.4640 O   0  0  0  0  0  0  0  0  0  0  0  0
   86.8300  -40.4980   65.0770 S   0  0  1  0  0  0  0  0  0  0  0  0
   89.5840  -40.8600   69.2120 O   0  0  0  0  0  0  0  0  0  0  0  0
   90.0340  -42.4740   67.5280 C   0  0  0  0  0  0  0  0  0  0  0  0
   91.0120  -43.0910   68.2270 O   0  0  0  0  0  0  0  0  0  0  0  0
   85.4620  -41.2270   65.6350 N   0  0  0  0  0  0  0  0  0  0  0  0
   79.9260  -45.1450   66.7140 S   0  0  2  0  0  0  0  0  0  0  0  0
   80.2080  -46.5150   66.8190 O   0  0  0  0  0  0  0  0  0  0  0  0
   87.6538  -40.0069   67.7201 H   0  0  0  0  0  0  0  0  0  0  0  0
   84.0511  -44.7339   64.3743 H   0  0  0  0  0  0  0  0  0  0  0  0
   81.9784  -45.9093   65.0306 H   0  0  0  0  0  0  0  0  0  0  0  0
   78.0207  -43.1518   66.2581 H   0  0  0  0  0  0  0  0  0  0  0  0
   75.6530  -42.4632   63.5595 H   0  0  0  0  0  0  0  0  0  0  0  0
   79.7761  -46.4654   64.1101 H   0  0  0  0  0  0  0  0  0  0  0  0
   78.2989  -46.0400   62.1362 H   0  0  0  0  0  0  0  0  0  0  0  0
   80.9337  -42.6173   67.5638 H   0  0  0  0  0  0  0  0  0  0  0  0
   83.0011  -41.4253   66.9065 H   0  0  0  0  0  0  0  0  0  0  0  0
   76.5104  -44.7717   61.2790 H   0  0  0  0  0  0  0  0  0  0  0  0
   88.6704  -42.6258   64.4196 H   0  0  0  0  0  0  0  0  0  0  0  0
   90.4037  -43.7643   65.8031 H   0  0  0  0  0  0  0  0  0  0  0  0
   85.6916  -43.1997   65.0551 H   0  0  0  0  0  0  0  0  0  0  0  0
   84.6218  -42.0915   64.0017 H   0  0  0  0  0  0  0  0  0  0  0  0
   90.2963  -41.2760   69.7594 H   0  0  0  0  0  0  0  0  0  0  0  0
   91.5196  -43.8353   67.8166 H   0  0  0  0  0  0  0  0  0  0  0  0
   84.7191  -40.5147   65.5953 H   0  0  0  0  0  0  0  0  0  0  0  0
  1  3  2  0
  1 21  1  0
  2 29  2  0
  3 25  1  0
  3 26  1  0
  4  5  2  0
  4 17  1  0
  5 12  1  0
  6  7  2  0
  6 13  1  0
  7  8  1  0
  7 10  1  0
  9 11  1  0
  9 13  2  0
 10 11  2  0
 10 16  1  0
 12 14  2  0
 29 12  1  6
 13 29  1  0
 14 15  1  0
 15 17  2  0
 17 22  1  0
 18 20  1  0
 18 21  2  0
 19 24  2  0
 20 26  2  0
 21 24  1  0
 22 28  1  0
 23 24  2  0
 24 28  1  1
 26 27  1  0
 29 30  2  0
  1 31  1  0
  4 32  1  0
  5 33  1  0
  6 34  1  0
  8 35  1  0
  9 36  1  0
 11 37  1  0
 14 38  1  0
 15 39  1  0
 16 40  1  0
 18 41  1  0
 20 42  1  0
 22 43  1  0
 22 44  1  0
 25 45  1  0
 27 46  1  0
 28 47  1  0
M  END
>  <filename_input>  (26) 
7FRX_O88_docked.sdf

>  <pdb_id>  (26) 
7FRX_O88

>  <pose_rank>  (26) 
25

>  <num_atoms_heavy>  (26) 
30

>  <num_torsions>  (26) 
6

>  <pose>  (26) 
[83.357, -44.257, 65.082, 1e-06, 1e-06, 1e-06, 0.0, 0.0, 0.0, 0.0, 0.0, 0.0]

>  <energy>  (26) 
-824.7381605159472

>  <inter_energy>  (26) 
-825.9133295464475

>  <intra_energy>  (26) 
3.0203987584194905

>  <rmsd>  (26) 
0.0

>  <sdf_rank>  (26) 
0

$$$$
