
     RDKit          3D

 22 22  0  0  0  0  0  0  0  0999 V2000
    1.5804    6.6314  -32.5714 C   0  0  0  0  0  0  0  0  0  0  0  0
    0.9505    8.9646  -32.3758 C   0  0  0  0  0  0  0  0  0  0  0  0
   -0.2184    4.8963  -32.2928 N   0  0  0  0  0  0  0  0  0  0  0  0
    0.2538    6.2542  -32.3203 C   0  0  0  0  0  0  0  0  0  0  0  0
    1.9263    7.9740  -32.5973 C   0  0  0  0  0  0  0  0  0  0  0  0
    1.2607   10.4152  -32.3367 C   0  0  0  0  0  0  0  0  0  0  0  0
   -0.3544    8.5709  -32.1482 C   0  0  0  0  0  0  0  0  0  0  0  0
    1.8554    3.3923  -31.4054 C   0  0  0  0  0  0  0  0  0  0  0  0
   -0.7008    7.2347  -32.1138 C   0  0  0  0  0  0  0  0  0  0  0  0
    0.7121   11.1988  -33.1246 O   0  0  0  0  0  0  0  0  0  0  0  0
    2.1212   10.7910  -31.4288 O   0  0  0  0  0  0  0  0  0  0  0  0
    0.1612    3.7795  -31.1762 S   0  0  1  0  0  0  0  0  0  0  0  0
    0.0113    4.4475  -29.9201 O   0  0  0  0  0  0  0  0  0  0  0  0
   -0.6065    2.6017  -31.4297 O   0  0  0  0  0  0  0  0  0  0  0  0
    2.3469    5.8624  -32.7479 H   0  0  0  0  0  0  0  0  0  0  0  0
   -0.8545    4.6057  -33.0490 H   0  0  0  0  0  0  0  0  0  0  0  0
    2.9686    8.2667  -32.7918 H   0  0  0  0  0  0  0  0  0  0  0  0
   -1.1303    9.3349  -31.9918 H   0  0  0  0  0  0  0  0  0  0  0  0
    2.3420    3.2811  -30.4252 H   0  0  0  0  0  0  0  0  0  0  0  0
    1.9435    2.4508  -31.9675 H   0  0  0  0  0  0  0  0  0  0  0  0
    2.3438    4.2020  -31.9675 H   0  0  0  0  0  0  0  0  0  0  0  0
   -1.7447    6.9470  -31.9205 H   0  0  0  0  0  0  0  0  0  0  0  0
  1  4  2  0
  1  5  1  0
  2  5  2  0
  2  6  1  0
  2  7  1  0
  3  4  1  0
 12  3  1  6
  4  9  1  0
  6 10  2  0
  6 11  1  0
  7  9  2  0
 12  8  1  0
 12 13  2  0
 12 14  2  0
  1 15  1  0
  3 16  1  0
  5 17  1  0
  7 18  1  0
  8 19  1  0
  8 20  1  0
  8 21  1  0
  9 22  1  0
M  CHG  1  11  -1
M  END
>  <filename_input>  (1) 
7FT9_4MB_docked.sdf

>  <pdb_id>  (1) 
7FT9_4MB

>  <pose_rank>  (1) 
0

>  <num_atoms_heavy>  (1) 
14

>  <num_torsions>  (1) 
3

>  <pose>  (1) 
[1.5803742454243503, 6.6313593083878075, -32.57140040080511, 3.2410440099112465, -0.40238771859833355, -0.3919748672830873, -1.027460126148312, 1.1720170310538105, -6.119266696126517]

>  <energy>  (1) 
-504.12517370670236

>  <inter_energy>  (1) 
-505.145296274922

>  <intra_energy>  (1) 
3.6017444676566126

>  <rmsd>  (1) 
5.72642

>  <sdf_rank>  (1) 
0

$$$$

     RDKit          3D

 22 22  0  0  0  0  0  0  0  0999 V2000
    1.0421    6.9537  -30.5540 C   0  0  0  0  0  0  0  0  0  0  0  0
    1.4043    8.8534  -32.0166 C   0  0  0  0  0  0  0  0  0  0  0  0
    1.4673    4.6544  -31.4791 N   0  0  0  0  0  0  0  0  0  0  0  0
    1.4075    6.0865  -31.5930 C   0  0  0  0  0  0  0  0  0  0  0  0
    1.0387    8.3244  -30.7639 C   0  0  0  0  0  0  0  0  0  0  0  0
    1.3716   10.3044  -32.3259 C   0  0  0  0  0  0  0  0  0  0  0  0
    1.7784    7.9812  -33.0211 C   0  0  0  0  0  0  0  0  0  0  0  0
   -1.0889    4.4331  -32.3548 C   0  0  0  0  0  0  0  0  0  0  0  0
    1.7751    6.6155  -32.8179 C   0  0  0  0  0  0  0  0  0  0  0  0
    0.3799   10.9887  -32.0361 O   0  0  0  0  0  0  0  0  0  0  0  0
    2.4398   10.7903  -32.8992 O   0  0  0  0  0  0  0  0  0  0  0  0
    0.1926    3.6481  -31.4525 S   0  0  1  0  0  0  0  0  0  0  0  0
    0.6198    2.4917  -32.1781 O   0  0  0  0  0  0  0  0  0  0  0  0
   -0.2399    3.4956  -30.0994 O   0  0  0  0  0  0  0  0  0  0  0  0
    0.7581    6.5469  -29.5722 H   0  0  0  0  0  0  0  0  0  0  0  0
    2.4024    4.2284  -31.4081 H   0  0  0  0  0  0  0  0  0  0  0  0
    0.7488    9.0022  -29.9475 H   0  0  0  0  0  0  0  0  0  0  0  0
    2.0838    8.3817  -33.9990 H   0  0  0  0  0  0  0  0  0  0  0  0
   -1.8122    4.8761  -31.6544 H   0  0  0  0  0  0  0  0  0  0  0  0
   -0.6603    5.2238  -32.9881 H   0  0  0  0  0  0  0  0  0  0  0  0
   -1.5985    3.6920  -32.9881 H   0  0  0  0  0  0  0  0  0  0  0  0
    2.0674    5.9418  -33.6369 H   0  0  0  0  0  0  0  0  0  0  0  0
  1  4  2  0
  1  5  1  0
  2  5  2  0
  2  6  1  0
  2  7  1  0
  3  4  1  0
 12  3  1  1
  4  9  1  0
  6 10  2  0
  6 11  1  0
  7  9  2  0
 12  8  1  0
 12 13  2  0
 12 14  2  0
  1 15  1  0
  3 16  1  0
  5 17  1  0
  7 18  1  0
  8 19  1  0
  8 20  1  0
  8 21  1  0
  9 22  1  0
M  CHG  1  11  -1
M  END
>  <filename_input>  (2) 
7FT9_4MB_docked.sdf

>  <pdb_id>  (2) 
7FT9_4MB

>  <pose_rank>  (2) 
1

>  <num_atoms_heavy>  (2) 
14

>  <num_torsions>  (2) 
3

>  <pose>  (2) 
[1.0420684771808064, 6.953734558188822, -30.553972376374006, -1.947567285946144, -0.38146581350137665, -2.47267919984168, 2.311112200036846, 1.2975831283989552, 1.8532939475226238]

>  <energy>  (2) 
-455.45689636478323

>  <inter_energy>  (2) 
-461.9527359600566

>  <intra_energy>  (2) 
0.9103044533997888

>  <rmsd>  (2) 
5.78448

>  <sdf_rank>  (2) 
0

$$$$

     RDKit          3D

 22 22  0  0  0  0  0  0  0  0999 V2000
    2.2473    6.5917  -32.5623 C   0  0  0  0  0  0  0  0  0  0  0  0
    1.1909    4.6619  -31.5429 C   0  0  0  0  0  0  0  0  0  0  0  0
    0.8943    8.7003  -32.7791 N   0  0  0  0  0  0  0  0  0  0  0  0
    1.0630    7.3238  -32.3990 C   0  0  0  0  0  0  0  0  0  0  0  0
    2.3105    5.2724  -32.1399 C   0  0  0  0  0  0  0  0  0  0  0  0
    1.1721    3.2405  -31.1172 C   0  0  0  0  0  0  0  0  0  0  0  0
    0.0396    5.4076  -31.3754 C   0  0  0  0  0  0  0  0  0  0  0  0
    1.7174    9.3730  -30.2851 C   0  0  0  0  0  0  0  0  0  0  0  0
   -0.0293    6.7190  -31.8020 C   0  0  0  0  0  0  0  0  0  0  0  0
    2.1726    2.5245  -31.2657 O   0  0  0  0  0  0  0  0  0  0  0  0
    0.0579    2.8196  -30.5811 O   0  0  0  0  0  0  0  0  0  0  0  0
    1.1349    9.9885  -31.8195 S   0  0  1  0  0  0  0  0  0  0  0  0
    2.1894   10.7241  -32.4466 O   0  0  0  0  0  0  0  0  0  0  0  0
   -0.1209   10.6324  -31.5970 O   0  0  0  0  0  0  0  0  0  0  0  0
    3.1263    7.0637  -33.0254 H   0  0  0  0  0  0  0  0  0  0  0  0
    0.5939    8.8860  -33.7466 H   0  0  0  0  0  0  0  0  0  0  0  0
    3.2403    4.6997  -32.2719 H   0  0  0  0  0  0  0  0  0  0  0  0
   -0.8366    4.9488  -30.8939 H   0  0  0  0  0  0  0  0  0  0  0  0
    1.2152    9.9036  -29.4627 H   0  0  0  0  0  0  0  0  0  0  0  0
    1.4990    8.2972  -30.2148 H   0  0  0  0  0  0  0  0  0  0  0  0
    2.8036    9.5320  -30.2148 H   0  0  0  0  0  0  0  0  0  0  0  0
   -0.9608    7.2882  -31.6663 H   0  0  0  0  0  0  0  0  0  0  0  0
  1  4  2  0
  1  5  1  0
  2  5  2  0
  2  6  1  0
  2  7  1  0
  3  4  1  0
 12  3  1  6
  4  9  1  0
  6 10  2  0
  6 11  1  0
  7  9  2  0
 12  8  1  0
 12 13  2  0
 12 14  2  0
  1 15  1  0
  3 16  1  0
  5 17  1  0
  7 18  1  0
  8 19  1  0
  8 20  1  0
  8 21  1  0
  9 22  1  0
M  CHG  1  11  -1
M  END
>  <filename_input>  (3) 
7FT9_4MB_docked.sdf

>  <pdb_id>  (3) 
7FT9_4MB

>  <pose_rank>  (3) 
2

>  <num_atoms_heavy>  (3) 
14

>  <num_torsions>  (3) 
3

>  <pose>  (3) 
[2.247283091452681, 6.591696034662029, -32.562258218073154, 3.439730531992621, -4.822125648098836, 0.6855406573426281, -3.1314800714067372, 4.653622846947953, 1.4192131849425045]

>  <energy>  (3) 
-459.83962817167173

>  <inter_energy>  (3) 
-443.51643664241095

>  <intra_energy>  (3) 
3.170503478045971

>  <rmsd>  (3) 
0.928946

>  <sdf_rank>  (3) 
0

$$$$

     RDKit          3D

 22 22  0  0  0  0  0  0  0  0999 V2000
   -0.2775    6.4796  -30.6389 C   0  0  0  0  0  0  0  0  0  0  0  0
    0.6670    4.3317  -31.2502 C   0  0  0  0  0  0  0  0  0  0  0  0
    1.1738    8.5188  -30.8816 N   0  0  0  0  0  0  0  0  0  0  0  0
    0.9344    7.1035  -30.9660 C   0  0  0  0  0  0  0  0  0  0  0  0
   -0.4099    5.1062  -30.7779 C   0  0  0  0  0  0  0  0  0  0  0  0
    0.6119    2.8539  -31.3725 C   0  0  0  0  0  0  0  0  0  0  0  0
    1.8465    4.9697  -31.5839 C   0  0  0  0  0  0  0  0  0  0  0  0
    2.0005   10.5815  -32.4347 C   0  0  0  0  0  0  0  0  0  0  0  0
    1.9843    6.3359  -31.4391 C   0  0  0  0  0  0  0  0  0  0  0  0
   -0.4628    2.2795  -31.5981 O   0  0  0  0  0  0  0  0  0  0  0  0
    1.7499    2.2269  -31.2388 O   0  0  0  0  0  0  0  0  0  0  0  0
    0.6156    9.6413  -31.9144 S   0  0  1  0  0  0  0  0  0  0  0  0
    0.1205    8.8999  -33.0331 O   0  0  0  0  0  0  0  0  0  0  0  0
   -0.2751   10.5074  -31.2091 O   0  0  0  0  0  0  0  0  0  0  0  0
   -1.1235    7.0794  -30.2720 H   0  0  0  0  0  0  0  0  0  0  0  0
    1.7509    8.8506  -30.0956 H   0  0  0  0  0  0  0  0  0  0  0  0
   -1.3613    4.6192  -30.5178 H   0  0  0  0  0  0  0  0  0  0  0  0
    2.6898    4.3792  -31.9714 H   0  0  0  0  0  0  0  0  0  0  0  0
    2.5449   10.9510  -31.5532 H   0  0  0  0  0  0  0  0  0  0  0  0
    2.6673    9.9486  -33.0388 H   0  0  0  0  0  0  0  0  0  0  0  0
    1.6584   11.4348  -33.0388 H   0  0  0  0  0  0  0  0  0  0  0  0
    2.9372    6.8186  -31.7022 H   0  0  0  0  0  0  0  0  0  0  0  0
  1  4  2  0
  1  5  1  0
  2  5  2  0
  2  6  1  0
  2  7  1  0
  3  4  1  0
 12  3  1  1
  4  9  1  0
  6 10  2  0
  6 11  1  0
  7  9  2  0
 12  8  1  0
 12 13  2  0
 12 14  2  0
  1 15  1  0
  3 16  1  0
  5 17  1  0
  7 18  1  0
  8 19  1  0
  8 20  1  0
  8 21  1  0
  9 22  1  0
M  CHG  1  11  -1
M  END
>  <filename_input>  (4) 
7FT9_4MB_docked.sdf

>  <pdb_id>  (4) 
7FT9_4MB

>  <pose_rank>  (4) 
3

>  <num_atoms_heavy>  (4) 
14

>  <num_torsions>  (4) 
3

>  <pose>  (4) 
[-0.27754681692821503, 6.4795762563637265, -30.63891627821071, 0.06668111718897748, 3.4157353449127474, -0.027329859639926807, 3.659953421631674, -1.3280734610890808, -0.860831894020873]

>  <energy>  (4) 
-434.7470249968463

>  <inter_energy>  (4) 
-427.3888651485809

>  <intra_energy>  (4) 
0.9720656614816344

>  <rmsd>  (4) 
1.24024

>  <sdf_rank>  (4) 
0

$$$$

     RDKit          3D

 22 22  0  0  0  0  0  0  0  0999 V2000
   -0.5269    7.6159  -32.4924 C   0  0  0  0  0  0  0  0  0  0  0  0
    1.1403    9.2930  -31.9570 C   0  0  0  0  0  0  0  0  0  0  0  0
    0.0161    5.2114  -31.9950 N   0  0  0  0  0  0  0  0  0  0  0  0
    0.3353    6.6131  -32.0275 C   0  0  0  0  0  0  0  0  0  0  0  0
   -0.1278    8.9435  -32.4592 C   0  0  0  0  0  0  0  0  0  0  0  0
    1.6517   10.6860  -31.9414 C   0  0  0  0  0  0  0  0  0  0  0  0
    1.9669    8.2902  -31.4872 C   0  0  0  0  0  0  0  0  0  0  0  0
   -0.4286    2.6718  -31.1568 C   0  0  0  0  0  0  0  0  0  0  0  0
    1.5759    6.9665  -31.5262 C   0  0  0  0  0  0  0  0  0  0  0  0
    2.6647   10.9785  -31.2903 O   0  0  0  0  0  0  0  0  0  0  0  0
    0.9784   11.5495  -32.6534 O   0  0  0  0  0  0  0  0  0  0  0  0
    0.3996    4.1759  -30.8040 S   0  0  1  0  0  0  0  0  0  0  0  0
    1.8079    3.9641  -30.9381 O   0  0  0  0  0  0  0  0  0  0  0  0
   -0.1089    4.6895  -29.5716 O   0  0  0  0  0  0  0  0  0  0  0  0
   -1.5200    7.3497  -32.8835 H   0  0  0  0  0  0  0  0  0  0  0  0
   -0.5022    4.8299  -32.7992 H   0  0  0  0  0  0  0  0  0  0  0  0
   -0.8055    9.7278  -32.8273 H   0  0  0  0  0  0  0  0  0  0  0  0
    2.9530    8.5508  -31.0752 H   0  0  0  0  0  0  0  0  0  0  0  0
   -0.7025    2.1743  -30.2148 H   0  0  0  0  0  0  0  0  0  0  0  0
   -1.3383    2.8818  -31.7386 H   0  0  0  0  0  0  0  0  0  0  0  0
    0.2353    2.0154  -31.7386 H   0  0  0  0  0  0  0  0  0  0  0  0
    2.2564    6.1859  -31.1554 H   0  0  0  0  0  0  0  0  0  0  0  0
  1  4  2  0
  1  5  1  0
  2  5  2  0
  2  6  1  0
  2  7  1  0
  3  4  1  0
 12  3  1  6
  4  9  1  0
  6 10  2  0
  6 11  1  0
  7  9  2  0
 12  8  1  0
 12 13  2  0
 12 14  2  0
  1 15  1  0
  3 16  1  0
  5 17  1  0
  7 18  1  0
  8 19  1  0
  8 20  1  0
  8 21  1  0
  9 22  1  0
M  CHG  1  11  -1
M  END
>  <filename_input>  (5) 
7FT9_4MB_docked.sdf

>  <pdb_id>  (5) 
7FT9_4MB

>  <pose_rank>  (5) 
4

>  <num_atoms_heavy>  (5) 
14

>  <num_torsions>  (5) 
3

>  <pose>  (5) 
[-0.5269256345785567, 7.615910970625144, -32.49241452479678, 0.5789812605263139, -0.2692493617364372, -3.4211966162223293, -0.21713574556112458, -2.4664039928568617, -1.9203465698742834]

>  <energy>  (5) 
-467.38877731285675

>  <inter_energy>  (5) 
-472.39391851068507

>  <intra_energy>  (5) 
9.237395395418554

>  <rmsd>  (5) 
5.737

>  <sdf_rank>  (5) 
0

$$$$

     RDKit          3D

 22 22  0  0  0  0  0  0  0  0999 V2000
    2.6659    8.0374  -31.5343 C   0  0  0  0  0  0  0  0  0  0  0  0
    1.4567    5.9357  -31.5452 C   0  0  0  0  0  0  0  0  0  0  0  0
    1.3554   10.1506  -31.1596 N   0  0  0  0  0  0  0  0  0  0  0  0
    1.4642    8.7254  -31.3162 C   0  0  0  0  0  0  0  0  0  0  0  0
    2.6624    6.6555  -31.6496 C   0  0  0  0  0  0  0  0  0  0  0  0
    1.3732    4.4635  -31.7114 C   0  0  0  0  0  0  0  0  0  0  0  0
    0.2865    6.6326  -31.3120 C   0  0  0  0  0  0  0  0  0  0  0  0
    0.5867   10.3325  -33.7531 C   0  0  0  0  0  0  0  0  0  0  0  0
    0.2852    8.0093  -31.2048 C   0  0  0  0  0  0  0  0  0  0  0  0
    2.3557    3.8161  -32.1004 O   0  0  0  0  0  0  0  0  0  0  0  0
    0.2233    3.9196  -31.4149 O   0  0  0  0  0  0  0  0  0  0  0  0
    1.1619   11.2275  -32.3600 S   0  0  1  0  0  0  0  0  0  0  0  0
    0.1172   12.0960  -31.9121 O   0  0  0  0  0  0  0  0  0  0  0  0
    2.4368   11.7866  -32.6812 O   0  0  0  0  0  0  0  0  0  0  0  0
    3.6116    8.5936  -31.6141 H   0  0  0  0  0  0  0  0  0  0  0  0
    1.4046   10.5220  -30.2001 H   0  0  0  0  0  0  0  0  0  0  0  0
    3.6066    6.1187  -31.8235 H   0  0  0  0  0  0  0  0  0  0  0  0
   -0.6600    6.0814  -31.2102 H   0  0  0  0  0  0  0  0  0  0  0  0
    0.0209    9.4519  -33.4151 H   0  0  0  0  0  0  0  0  0  0  0  0
   -0.0664   10.9775  -34.3593 H   0  0  0  0  0  0  0  0  0  0  0  0
    1.4448   10.0064  -34.3593 H   0  0  0  0  0  0  0  0  0  0  0  0
   -0.6613    8.5415  -31.0293 H   0  0  0  0  0  0  0  0  0  0  0  0
  1  4  2  0
  1  5  1  0
  2  5  2  0
  2  6  1  0
  2  7  1  0
  3  4  1  0
 12  3  1  1
  4  9  1  0
  6 10  2  0
  6 11  1  0
  7  9  2  0
 12  8  1  0
 12 13  2  0
 12 14  2  0
  1 15  1  0
  3 16  1  0
  5 17  1  0
  7 18  1  0
  8 19  1  0
  8 20  1  0
  8 21  1  0
  9 22  1  0
M  CHG  1  11  -1
M  END
>  <filename_input>  (6) 
7FT9_4MB_docked.sdf

>  <pdb_id>  (6) 
7FT9_4MB

>  <pose_rank>  (6) 
5

>  <num_atoms_heavy>  (6) 
14

>  <num_torsions>  (6) 
3

>  <pose>  (6) 
[2.6659076654491476, 8.037356115665052, -31.534344647765504, 0.2153646388019049, 0.07518338857573267, -0.028973739604590595, -3.2842415459396066, 7.802420345117303, 1.6872615667859716]

>  <energy>  (6) 
-405.0365675672542

>  <inter_energy>  (6) 
-396.77524308720365

>  <intra_energy>  (6) 
3.4369568826656396

>  <rmsd>  (6) 
1.84779

>  <sdf_rank>  (6) 
0

$$$$

     RDKit          3D

 22 22  0  0  0  0  0  0  0  0999 V2000
    3.0967    9.6877  -30.1171 C   0  0  0  0  0  0  0  0  0  0  0  0
    1.6620    9.2565  -32.0236 C   0  0  0  0  0  0  0  0  0  0  0  0
    4.7694    7.9227  -29.4761 N   0  0  0  0  0  0  0  0  0  0  0  0
    3.7003    8.4344  -30.2904 C   0  0  0  0  0  0  0  0  0  0  0  0
    2.0856   10.0946  -30.9744 C   0  0  0  0  0  0  0  0  0  0  0  0
    0.5513    9.6058  -32.9436 C   0  0  0  0  0  0  0  0  0  0  0  0
    2.2833    8.0330  -32.1871 C   0  0  0  0  0  0  0  0  0  0  0  0
    3.5440    7.9606  -27.0580 C   0  0  0  0  0  0  0  0  0  0  0  0
    3.2848    7.6213  -31.3303 C   0  0  0  0  0  0  0  0  0  0  0  0
   -0.3971    8.8260  -33.1117 O   0  0  0  0  0  0  0  0  0  0  0  0
    0.6432   10.7666  -33.5351 O   0  0  0  0  0  0  0  0  0  0  0  0
    5.0365    8.2894  -27.9165 S   0  0  1  0  0  0  0  0  0  0  0  0
    6.0286    7.3549  -27.4823 O   0  0  0  0  0  0  0  0  0  0  0  0
    5.3123    9.6877  -27.8175 O   0  0  0  0  0  0  0  0  0  0  0  0
    3.4250   10.3482  -29.3011 H   0  0  0  0  0  0  0  0  0  0  0  0
    5.4245    7.2647  -29.9219 H   0  0  0  0  0  0  0  0  0  0  0  0
    1.6120   11.0774  -30.8342 H   0  0  0  0  0  0  0  0  0  0  0  0
    1.9748    7.3761  -33.0137 H   0  0  0  0  0  0  0  0  0  0  0  0
    3.7279    8.0011  -25.9742 H   0  0  0  0  0  0  0  0  0  0  0  0
    2.7906    8.7143  -27.3305 H   0  0  0  0  0  0  0  0  0  0  0  0
    3.1771    6.9601  -27.3305 H   0  0  0  0  0  0  0  0  0  0  0  0
    3.7565    6.6383  -31.4757 H   0  0  0  0  0  0  0  0  0  0  0  0
  1  4  2  0
  1  5  1  0
  2  5  2  0
  2  6  1  0
  2  7  1  0
  3  4  1  0
 12  3  1  6
  4  9  1  0
  6 10  2  0
  6 11  1  0
  7  9  2  0
 12  8  1  0
 12 13  2  0
 12 14  2  0
  1 15  1  0
  3 16  1  0
  5 17  1  0
  7 18  1  0
  8 19  1  0
  8 20  1  0
  8 21  1  0
  9 22  1  0
M  CHG  1  11  -1
M  END
>  <filename_input>  (7) 
7FT9_4MB_docked.sdf

>  <pdb_id>  (7) 
7FT9_4MB

>  <pose_rank>  (7) 
6

>  <num_atoms_heavy>  (7) 
14

>  <num_torsions>  (7) 
3

>  <pose>  (7) 
[3.0966593143847523, 9.687677241514857, -30.117073119866955, -2.227904060167025, -2.021955314119115, -1.2221013560326217, 0.934618666681166, -12.078970741832778, -10.26006574044881]

>  <energy>  (7) 
-380.21849167007616

>  <inter_energy>  (7) 
-373.8524049794803

>  <intra_energy>  (7) 
6.971146361016274

>  <rmsd>  (7) 
5.4306

>  <sdf_rank>  (7) 
0

$$$$

     RDKit          3D

 22 22  0  0  0  0  0  0  0  0999 V2000
   -0.8223    6.2023  -32.0601 C   0  0  0  0  0  0  0  0  0  0  0  0
    0.7921    8.0072  -32.1832 C   0  0  0  0  0  0  0  0  0  0  0  0
    0.0388    3.8749  -31.6535 N   0  0  0  0  0  0  0  0  0  0  0  0
    0.2197    5.2869  -31.8565 C   0  0  0  0  0  0  0  0  0  0  0  0
   -0.5390    7.5499  -32.2238 C   0  0  0  0  0  0  0  0  0  0  0  0
    1.1703    9.4252  -32.4035 C   0  0  0  0  0  0  0  0  0  0  0  0
    1.8020    7.0901  -31.9632 C   0  0  0  0  0  0  0  0  0  0  0  0
    0.4211    1.4010  -30.6123 C   0  0  0  0  0  0  0  0  0  0  0  0
    1.5241    5.7465  -31.8079 C   0  0  0  0  0  0  0  0  0  0  0  0
    2.0582    9.9544  -31.7198 O   0  0  0  0  0  0  0  0  0  0  0  0
    0.5226   10.0484  -33.3511 O   0  0  0  0  0  0  0  0  0  0  0  0
    1.2104    2.8068  -31.3004 S   0  0  1  0  0  0  0  0  0  0  0  0
    1.7712    2.4425  -32.5649 O   0  0  0  0  0  0  0  0  0  0  0  0
    2.0614    3.3761  -30.3040 O   0  0  0  0  0  0  0  0  0  0  0  0
   -1.8645    5.8518  -32.0900 H   0  0  0  0  0  0  0  0  0  0  0  0
   -0.9197    3.5078  -31.7398 H   0  0  0  0  0  0  0  0  0  0  0  0
   -1.3586    8.2654  -32.3861 H   0  0  0  0  0  0  0  0  0  0  0  0
    2.8449    7.4361  -31.9110 H   0  0  0  0  0  0  0  0  0  0  0  0
    0.4553    1.4620  -29.5145 H   0  0  0  0  0  0  0  0  0  0  0  0
   -0.6268    1.3692  -30.9453 H   0  0  0  0  0  0  0  0  0  0  0  0
    0.9395    0.4898  -30.9453 H   0  0  0  0  0  0  0  0  0  0  0  0
    2.3470    5.0350  -31.6441 H   0  0  0  0  0  0  0  0  0  0  0  0
  1  4  2  0
  1  5  1  0
  2  5  2  0
  2  6  1  0
  2  7  1  0
  3  4  1  0
 12  3  1  6
  4  9  1  0
  6 10  2  0
  6 11  1  0
  7  9  2  0
 12  8  1  0
 12 13  2  0
 12 14  2  0
  1 15  1  0
  3 16  1  0
  5 17  1  0
  7 18  1  0
  8 19  1  0
  8 20  1  0
  8 21  1  0
  9 22  1  0
M  CHG  1  11  -1
M  END
>  <filename_input>  (8) 
7FT9_4MB_docked.sdf

>  <pdb_id>  (8) 
7FT9_4MB

>  <pose_rank>  (8) 
7

>  <num_atoms_heavy>  (8) 
14

>  <num_torsions>  (8) 
3

>  <pose>  (8) 
[-0.8222869967041944, 6.202323905996121, -32.060092898407866, 0.029865684854142475, -0.42995349104930086, -3.344313664058059, -0.6960610059717439, -3.073999052519092, -2.119072060436406]

>  <energy>  (8) 
-428.22354077424905

>  <inter_energy>  (8) 
-433.53850381053144

>  <intra_energy>  (8) 
17.727901661253792

>  <rmsd>  (8) 
5.71638

>  <sdf_rank>  (8) 
0

$$$$

     RDKit          3D

 22 22  0  0  0  0  0  0  0  0999 V2000
    2.1312    5.2736  -31.7140 C   0  0  0  0  0  0  0  0  0  0  0  0
    0.7436    3.3752  -31.1226 C   0  0  0  0  0  0  0  0  0  0  0  0
    1.0246    7.5210  -31.9336 N   0  0  0  0  0  0  0  0  0  0  0  0
    1.0028    6.1048  -31.6853 C   0  0  0  0  0  0  0  0  0  0  0  0
    2.0029    3.9209  -31.4371 C   0  0  0  0  0  0  0  0  0  0  0  0
    0.5259    1.9295  -30.8684 C   0  0  0  0  0  0  0  0  0  0  0  0
   -0.3522    4.2161  -31.0823 C   0  0  0  0  0  0  0  0  0  0  0  0
   -0.0480    9.5509  -30.4915 C   0  0  0  0  0  0  0  0  0  0  0  0
   -0.2294    5.5620  -31.3654 C   0  0  0  0  0  0  0  0  0  0  0  0
   -0.6172    1.4512  -30.8868 O   0  0  0  0  0  0  0  0  0  0  0  0
    1.5997    1.2214  -30.6418 O   0  0  0  0  0  0  0  0  0  0  0  0
    1.4227    8.6696  -30.8563 S   0  0  1  0  0  0  0  0  0  0  0  0
    1.8283    7.9537  -29.6862 O   0  0  0  0  0  0  0  0  0  0  0  0
    2.3451    9.5711  -31.4708 O   0  0  0  0  0  0  0  0  0  0  0  0
    3.1183    5.6943  -31.9563 H   0  0  0  0  0  0  0  0  0  0  0  0
    0.7644    7.8352  -32.8793 H   0  0  0  0  0  0  0  0  0  0  0  0
    2.8898    3.2707  -31.4631 H   0  0  0  0  0  0  0  0  0  0  0  0
   -1.3388    3.8065  -30.8202 H   0  0  0  0  0  0  0  0  0  0  0  0
   -0.1705    9.6243  -29.4008 H   0  0  0  0  0  0  0  0  0  0  0  0
    0.0134   10.5611  -30.9224 H   0  0  0  0  0  0  0  0  0  0  0  0
   -0.9099    9.0203  -30.9224 H   0  0  0  0  0  0  0  0  0  0  0  0
   -1.1189    6.2085  -31.3364 H   0  0  0  0  0  0  0  0  0  0  0  0
  1  4  2  0
  1  5  1  0
  2  5  2  0
  2  6  1  0
  2  7  1  0
  3  4  1  0
 12  3  1  6
  4  9  1  0
  6 10  2  0
  6 11  1  0
  7  9  2  0
 12  8  1  0
 12 13  2  0
 12 14  2  0
  1 15  1  0
  3 16  1  0
  5 17  1  0
  7 18  1  0
  8 19  1  0
  8 20  1  0
  8 21  1  0
  9 22  1  0
M  CHG  1  11  -1
M  END
>  <filename_input>  (9) 
7FT9_4MB_docked.sdf

>  <pdb_id>  (9) 
7FT9_4MB

>  <pose_rank>  (9) 
8

>  <num_atoms_heavy>  (9) 
14

>  <num_torsions>  (9) 
3

>  <pose>  (9) 
[2.13119469997252, 5.273577372144679, -31.714029955408357, 2.3423089818298415, -3.0090245437445735, 4.778107584329324, 0.27714291885042014, -1.4457185814544156, -0.5710697122504689]

>  <energy>  (9) 
-387.08685790254845

>  <inter_energy>  (9) 
-383.6135329379073

>  <intra_energy>  (9) 
1.546760616678674

>  <rmsd>  (9) 
1.81744

>  <sdf_rank>  (9) 
0

$$$$

     RDKit          3D

 22 22  0  0  0  0  0  0  0  0999 V2000
    1.5984    5.4746  -31.6419 C   0  0  0  0  0  0  0  0  0  0  0  0
    1.0502    3.2349  -30.8922 C   0  0  0  0  0  0  0  0  0  0  0  0
   -0.2533    7.1733  -31.7369 N   0  0  0  0  0  0  0  0  0  0  0  0
    0.2577    5.8530  -31.4854 C   0  0  0  0  0  0  0  0  0  0  0  0
    1.9911    4.1771  -31.3498 C   0  0  0  0  0  0  0  0  0  0  0  0
    1.3906    1.8179  -30.6122 C   0  0  0  0  0  0  0  0  0  0  0  0
   -0.2624    3.6344  -30.7278 C   0  0  0  0  0  0  0  0  0  0  0  0
   -1.0057    9.6671  -30.9851 C   0  0  0  0  0  0  0  0  0  0  0  0
   -0.6584    4.9233  -31.0254 C   0  0  0  0  0  0  0  0  0  0  0  0
    2.1335    1.1851  -31.3761 O   0  0  0  0  0  0  0  0  0  0  0  0
    0.8714    1.3094  -29.5270 O   0  0  0  0  0  0  0  0  0  0  0  0
    0.3426    8.5561  -31.1277 S   0  0  1  0  0  0  0  0  0  0  0  0
    0.7949    8.2160  -29.8139 O   0  0  0  0  0  0  0  0  0  0  0  0
    1.2761    9.1011  -32.0617 O   0  0  0  0  0  0  0  0  0  0  0  0
    2.3389    6.2068  -31.9965 H   0  0  0  0  0  0  0  0  0  0  0  0
   -1.0706    7.2490  -32.3592 H   0  0  0  0  0  0  0  0  0  0  0  0
    3.0433    3.8825  -31.4763 H   0  0  0  0  0  0  0  0  0  0  0  0
   -1.0043    2.9136  -30.3537 H   0  0  0  0  0  0  0  0  0  0  0  0
   -1.2227    9.8459  -29.9217 H   0  0  0  0  0  0  0  0  0  0  0  0
   -0.7492   10.6195  -31.4721 H   0  0  0  0  0  0  0  0  0  0  0  0
   -1.8915    9.2332  -31.4721 H   0  0  0  0  0  0  0  0  0  0  0  0
   -1.7114    5.2137  -30.8957 H   0  0  0  0  0  0  0  0  0  0  0  0
  1  4  2  0
  1  5  1  0
  2  5  2  0
  2  6  1  0
  2  7  1  0
  3  4  1  0
 12  3  1  6
  4  9  1  0
  6 10  2  0
  6 11  1  0
  7  9  2  0
 12  8  1  0
 12 13  2  0
 12 14  2  0
  1 15  1  0
  3 16  1  0
  5 17  1  0
  7 18  1  0
  8 19  1  0
  8 20  1  0
  8 21  1  0
  9 22  1  0
M  CHG  1  11  -1
M  END
>  <filename_input>  (10) 
7FT9_4MB_docked.sdf

>  <pdb_id>  (10) 
7FT9_4MB

>  <pose_rank>  (10) 
9

>  <num_atoms_heavy>  (10) 
14

>  <num_torsions>  (10) 
3

>  <pose>  (10) 
[1.5984259788603412, 5.474594070447735, -31.64193696049784, 2.0658259546558417, -3.435725872920277, -4.420227024614961, 2.411598579042306, -7.209351618680767, 5.030248827146031]

>  <energy>  (10) 
-353.95718818792216

>  <inter_energy>  (10) 
-359.93296717571843

>  <intra_energy>  (10) 
1.3039736944063183

>  <rmsd>  (10) 
2.15892

>  <sdf_rank>  (10) 
0

$$$$

     RDKit          3D

 22 22  0  0  0  0  0  0  0  0999 V2000
    3.6966    8.1792  -30.7288 C   0  0  0  0  0  0  0  0  0  0  0  0
    1.7909    9.2331  -31.7949 C   0  0  0  0  0  0  0  0  0  0  0  0
    4.7814    9.3760  -28.8014 N   0  0  0  0  0  0  0  0  0  0  0  0
    3.8039    9.2663  -29.8502 C   0  0  0  0  0  0  0  0  0  0  0  0
    2.7006    8.1632  -31.6934 C   0  0  0  0  0  0  0  0  0  0  0  0
    0.7359    9.3057  -32.8359 C   0  0  0  0  0  0  0  0  0  0  0  0
    1.9037   10.2859  -30.9070 C   0  0  0  0  0  0  0  0  0  0  0  0
    6.5343    8.7567  -26.8281 C   0  0  0  0  0  0  0  0  0  0  0  0
    2.8993   10.3088  -29.9504 C   0  0  0  0  0  0  0  0  0  0  0  0
   -0.0349    8.3529  -33.0201 O   0  0  0  0  0  0  0  0  0  0  0  0
    0.6782   10.4206  -33.5138 O   0  0  0  0  0  0  0  0  0  0  0  0
    5.7895    8.1995  -28.3139 S   0  0  1  0  0  0  0  0  0  0  0  0
    4.9411    7.0884  -28.0107 O   0  0  0  0  0  0  0  0  0  0  0  0
    6.8139    8.0402  -29.2969 O   0  0  0  0  0  0  0  0  0  0  0  0
    4.4025    7.3389  -30.6529 H   0  0  0  0  0  0  0  0  0  0  0  0
    4.8483   10.2818  -28.3157 H   0  0  0  0  0  0  0  0  0  0  0  0
    2.6208    7.3100  -32.3832 H   0  0  0  0  0  0  0  0  0  0  0  0
    1.1885   11.1197  -30.9631 H   0  0  0  0  0  0  0  0  0  0  0  0
    5.9863    8.3467  -25.9670 H   0  0  0  0  0  0  0  0  0  0  0  0
    7.5801    8.4174  -26.7925 H   0  0  0  0  0  0  0  0  0  0  0  0
    6.5040    9.8557  -26.7925 H   0  0  0  0  0  0  0  0  0  0  0  0
    2.9740   11.1634  -29.2619 H   0  0  0  0  0  0  0  0  0  0  0  0
  1  4  2  0
  1  5  1  0
  2  5  2  0
  2  6  1  0
  2  7  1  0
  3  4  1  0
 12  3  1  6
  4  9  1  0
  6 10  2  0
  6 11  1  0
  7  9  2  0
 12  8  1  0
 12 13  2  0
 12 14  2  0
  1 15  1  0
  3 16  1  0
  5 17  1  0
  7 18  1  0
  8 19  1  0
  8 20  1  0
  8 21  1  0
  9 22  1  0
M  CHG  1  11  -1
M  END
>  <filename_input>  (11) 
7FT9_4MB_docked.sdf

>  <pdb_id>  (11) 
7FT9_4MB

>  <pose_rank>  (11) 
10

>  <num_atoms_heavy>  (11) 
14

>  <num_torsions>  (11) 
3

>  <pose>  (11) 
[3.696616189017348, 8.179180391520019, -30.728786498362158, 0.9945578017244489, -0.35671895093142014, -1.3135589621811474, 4.036883112752683, 6.106553714316986, 4.694329282231889]

>  <energy>  (11) 
-347.62177255416316

>  <inter_energy>  (11) 
-361.48604921432894

>  <intra_energy>  (11) 
6.0690966646340385

>  <rmsd>  (11) 
5.5181

>  <sdf_rank>  (11) 
0

$$$$

     RDKit          3D

 22 22  0  0  0  0  0  0  0  0999 V2000
    3.8087   10.1647  -30.2694 C   0  0  0  0  0  0  0  0  0  0  0  0
    5.5298    8.4647  -30.1058 C   0  0  0  0  0  0  0  0  0  0  0  0
    1.4400    9.4126  -30.6533 N   0  0  0  0  0  0  0  0  0  0  0  0
    2.8458    9.1672  -30.4765 C   0  0  0  0  0  0  0  0  0  0  0  0
    5.1387    9.8172  -30.0875 C   0  0  0  0  0  0  0  0  0  0  0  0
    6.9409    8.0257  -29.9712 C   0  0  0  0  0  0  0  0  0  0  0  0
    4.5614    7.4969  -30.2934 C   0  0  0  0  0  0  0  0  0  0  0  0
    0.6964    8.6776  -33.1547 C   0  0  0  0  0  0  0  0  0  0  0  0
    3.2373    7.8399  -30.4829 C   0  0  0  0  0  0  0  0  0  0  0  0
    7.3814    7.6457  -28.8770 O   0  0  0  0  0  0  0  0  0  0  0  0
    7.6563    8.0600  -31.0634 O   0  0  0  0  0  0  0  0  0  0  0  0
    0.7375    9.9936  -31.9975 S   0  0  1  0  0  0  0  0  0  0  0  0
   -0.6042   10.3022  -31.6090 O   0  0  0  0  0  0  0  0  0  0  0  0
    1.5606   11.0331  -32.5295 O   0  0  0  0  0  0  0  0  0  0  0  0
    3.5092   11.2230  -30.2512 H   0  0  0  0  0  0  0  0  0  0  0  0
    0.8232    9.2009  -29.8560 H   0  0  0  0  0  0  0  0  0  0  0  0
    5.8924   10.6024  -29.9280 H   0  0  0  0  0  0  0  0  0  0  0  0
    4.8502    6.4355  -30.2917 H   0  0  0  0  0  0  0  0  0  0  0  0
    0.6664    7.7180  -32.6177 H   0  0  0  0  0  0  0  0  0  0  0  0
   -0.1992    8.7725  -33.7862 H   0  0  0  0  0  0  0  0  0  0  0  0
    1.5962    8.7164  -33.7862 H   0  0  0  0  0  0  0  0  0  0  0  0
    2.4871    7.0510  -30.6403 H   0  0  0  0  0  0  0  0  0  0  0  0
  1  4  2  0
  1  5  1  0
  2  5  2  0
  2  6  1  0
  2  7  1  0
  3  4  1  0
 12  3  1  1
  4  9  1  0
  6 10  2  0
  6 11  1  0
  7  9  2  0
 12  8  1  0
 12 13  2  0
 12 14  2  0
  1 15  1  0
  3 16  1  0
  5 17  1  0
  7 18  1  0
  8 19  1  0
  8 20  1  0
  8 21  1  0
  9 22  1  0
M  CHG  1  11  -1
M  END
>  <filename_input>  (12) 
7FT9_4MB_docked.sdf

>  <pdb_id>  (12) 
7FT9_4MB

>  <pose_rank>  (12) 
11

>  <num_atoms_heavy>  (12) 
14

>  <num_torsions>  (12) 
3

>  <pose>  (12) 
[3.808699690883437, 10.164736677512797, -30.269396787166606, -0.39261984914345766, 0.48571464231282285, -4.924962531242821, -1.4278712923137142, -4.988265858838132, -3.5973262221553632]

>  <energy>  (12) 
-330.12302394768255

>  <inter_energy>  (12) 
-321.56619486190846

>  <intra_energy>  (12) 
2.6401349877053315

>  <rmsd>  (12) 
5.22564

>  <sdf_rank>  (12) 
0

$$$$

     RDKit          3D

 22 22  0  0  0  0  0  0  0  0999 V2000
    2.3864    6.6951  -31.5312 C   0  0  0  0  0  0  0  0  0  0  0  0
    0.4598    5.3277  -30.9860 C   0  0  0  0  0  0  0  0  0  0  0  0
    2.4937    9.0178  -30.5734 N   0  0  0  0  0  0  0  0  0  0  0  0
    1.8535    7.7455  -30.7710 C   0  0  0  0  0  0  0  0  0  0  0  0
    1.6954    5.4978  -31.6394 C   0  0  0  0  0  0  0  0  0  0  0  0
   -0.3570    4.0942  -31.1022 C   0  0  0  0  0  0  0  0  0  0  0  0
   -0.0382    6.3698  -30.2273 C   0  0  0  0  0  0  0  0  0  0  0  0
    3.4912   11.1212  -29.1838 C   0  0  0  0  0  0  0  0  0  0  0  0
    0.6434    7.5662  -30.1240 C   0  0  0  0  0  0  0  0  0  0  0  0
    0.1329    2.9865  -30.8396 O   0  0  0  0  0  0  0  0  0  0  0  0
   -1.5957    4.2628  -31.4804 O   0  0  0  0  0  0  0  0  0  0  0  0
    3.5426    9.3809  -29.3876 S   0  0  1  0  0  0  0  0  0  0  0  0
    3.0004    8.7675  -28.2145 O   0  0  0  0  0  0  0  0  0  0  0  0
    4.8568    9.0179  -29.8141 O   0  0  0  0  0  0  0  0  0  0  0  0
    3.3526    6.8207  -32.0418 H   0  0  0  0  0  0  0  0  0  0  0  0
    2.2668    9.7660  -31.2439 H   0  0  0  0  0  0  0  0  0  0  0  0
    2.1148    4.6764  -32.2388 H   0  0  0  0  0  0  0  0  0  0  0  0
   -0.9935    6.2441  -29.6967 H   0  0  0  0  0  0  0  0  0  0  0  0
    3.4840   11.3647  -28.1111 H   0  0  0  0  0  0  0  0  0  0  0  0
    4.3764   11.5720  -29.6562 H   0  0  0  0  0  0  0  0  0  0  0  0
    2.5809   11.5190  -29.6562 H   0  0  0  0  0  0  0  0  0  0  0  0
    0.2207    8.3841  -29.5220 H   0  0  0  0  0  0  0  0  0  0  0  0
  1  4  2  0
  1  5  1  0
  2  5  2  0
  2  6  1  0
  2  7  1  0
  3  4  1  0
 12  3  1  6
  4  9  1  0
  6 10  2  0
  6 11  1  0
  7  9  2  0
 12  8  1  0
 12 13  2  0
 12 14  2  0
  1 15  1  0
  3 16  1  0
  5 17  1  0
  7 18  1  0
  8 19  1  0
  8 20  1  0
  8 21  1  0
  9 22  1  0
M  CHG  1  11  -1
M  END
>  <filename_input>  (13) 
7FT9_4MB_docked.sdf

>  <pdb_id>  (13) 
7FT9_4MB

>  <pose_rank>  (13) 
12

>  <num_atoms_heavy>  (13) 
14

>  <num_torsions>  (13) 
3

>  <pose>  (13) 
[2.3864029100793247, 6.69512255695634, -31.531171869342913, 0.3426044311846408, 0.5014754513902517, -0.54694116890688, 4.090849515495298, 4.713542262149228, 4.914713039184722]

>  <energy>  (13) 
-320.0534845769709

>  <inter_energy>  (13) 
-317.577654975682

>  <intra_energy>  (13) 
3.4138037064776854

>  <rmsd>  (13) 
2.37295

>  <sdf_rank>  (13) 
0

$$$$

     RDKit          3D

 22 22  0  0  0  0  0  0  0  0999 V2000
    0.2771    0.8878  -27.6637 C   0  0  0  0  0  0  0  0  0  0  0  0
   -1.0292   -1.1271  -27.3282 C   0  0  0  0  0  0  0  0  0  0  0  0
    1.4979    1.1528  -29.8462 N   0  0  0  0  0  0  0  0  0  0  0  0
    0.6576    0.4276  -28.9320 C   0  0  0  0  0  0  0  0  0  0  0  0
   -0.5572    0.1171  -26.8682 C   0  0  0  0  0  0  0  0  0  0  0  0
   -1.8802   -2.0257  -26.5094 C   0  0  0  0  0  0  0  0  0  0  0  0
   -0.6562   -1.5530  -28.5888 C   0  0  0  0  0  0  0  0  0  0  0  0
   -0.5354    2.6350  -30.8555 C   0  0  0  0  0  0  0  0  0  0  0  0
    0.1808   -0.7918  -29.3803 C   0  0  0  0  0  0  0  0  0  0  0  0
   -1.6377   -3.2394  -26.4467 O   0  0  0  0  0  0  0  0  0  0  0  0
   -2.8664   -1.4540  -25.8718 O   0  0  0  0  0  0  0  0  0  0  0  0
    1.0088    1.8855  -31.2108 S   0  0  1  0  0  0  0  0  0  0  0  0
    1.9738    2.9157  -31.4429 O   0  0  0  0  0  0  0  0  0  0  0  0
    0.8039    0.8900  -32.2148 O   0  0  0  0  0  0  0  0  0  0  0  0
    0.6403    1.8602  -27.2996 H   0  0  0  0  0  0  0  0  0  0  0  0
    2.4998    1.2129  -29.6150 H   0  0  0  0  0  0  0  0  0  0  0  0
   -0.8517    0.4797  -25.8723 H   0  0  0  0  0  0  0  0  0  0  0  0
   -1.0324   -2.5146  -28.9680 H   0  0  0  0  0  0  0  0  0  0  0  0
   -0.6694    2.7000  -29.7656 H   0  0  0  0  0  0  0  0  0  0  0  0
   -0.5609    3.6457  -31.2889 H   0  0  0  0  0  0  0  0  0  0  0  0
   -1.3452    2.0297  -31.2889 H   0  0  0  0  0  0  0  0  0  0  0  0
    0.4712   -1.1578  -30.3761 H   0  0  0  0  0  0  0  0  0  0  0  0
  1  4  2  0
  1  5  1  0
  2  5  2  0
  2  6  1  0
  2  7  1  0
  3  4  1  0
 12  3  1  1
  4  9  1  0
  6 10  2  0
  6 11  1  0
  7  9  2  0
 12  8  1  0
 12 13  2  0
 12 14  2  0
  1 15  1  0
  3 16  1  0
  5 17  1  0
  7 18  1  0
  8 19  1  0
  8 20  1  0
  8 21  1  0
  9 22  1  0
M  CHG  1  11  -1
M  END
>  <filename_input>  (14) 
7FT9_4MB_docked.sdf

>  <pdb_id>  (14) 
7FT9_4MB

>  <pose_rank>  (14) 
13

>  <num_atoms_heavy>  (14) 
14

>  <num_torsions>  (14) 
3

>  <pose>  (14) 
[0.2771118037706589, 0.8878386903330607, -27.663725735836895, -0.9990091474413535, -1.6755057548967276, 0.2344992976047977, 0.7932138259669853, -1.8924784761963787, 2.0598913927847073]

>  <energy>  (14) 
-272.829418701984

>  <inter_energy>  (14) 
-271.9546764831168

>  <intra_energy>  (14) 
1.966510340919441

>  <rmsd>  (14) 
7.79766

>  <sdf_rank>  (14) 
0

$$$$

     RDKit          3D

 22 22  0  0  0  0  0  0  0  0999 V2000
    2.9945    8.3388  -31.3970 C   0  0  0  0  0  0  0  0  0  0  0  0
    0.5711    8.2589  -31.3923 C   0  0  0  0  0  0  0  0  0  0  0  0
    4.1320    9.7457  -29.6504 N   0  0  0  0  0  0  0  0  0  0  0  0
    2.9658    9.2143  -30.3025 C   0  0  0  0  0  0  0  0  0  0  0  0
    1.8083    7.8666  -31.9382 C   0  0  0  0  0  0  0  0  0  0  0  0
   -0.7352    7.8348  -31.9542 C   0  0  0  0  0  0  0  0  0  0  0  0
    0.5667    9.1082  -30.3022 C   0  0  0  0  0  0  0  0  0  0  0  0
    6.7986    9.7305  -29.1614 C   0  0  0  0  0  0  0  0  0  0  0  0
    1.7457    9.5866  -29.7658 C   0  0  0  0  0  0  0  0  0  0  0  0
   -0.7864    7.0098  -32.8775 O   0  0  0  0  0  0  0  0  0  0  0  0
   -1.7931    8.3736  -31.4098 O   0  0  0  0  0  0  0  0  0  0  0  0
    5.2883    8.8763  -28.9122 S   0  0  1  0  0  0  0  0  0  0  0  0
    4.9582    8.9285  -27.5213 O   0  0  0  0  0  0  0  0  0  0  0  0
    5.3817    7.6034  -29.5541 O   0  0  0  0  0  0  0  0  0  0  0  0
    3.9578    8.0264  -31.8263 H   0  0  0  0  0  0  0  0  0  0  0  0
    4.2441   10.7696  -29.6515 H   0  0  0  0  0  0  0  0  0  0  0  0
    1.8341    7.1820  -32.7988 H   0  0  0  0  0  0  0  0  0  0  0  0
   -0.3921    9.4082  -29.8543 H   0  0  0  0  0  0  0  0  0  0  0  0
    7.2428    9.9817  -28.1870 H   0  0  0  0  0  0  0  0  0  0  0  0
    7.4925    9.0911  -29.7268 H   0  0  0  0  0  0  0  0  0  0  0  0
    6.6082   10.6546  -29.7268 H   0  0  0  0  0  0  0  0  0  0  0  0
    1.7149   10.2698  -28.9042 H   0  0  0  0  0  0  0  0  0  0  0  0
  1  4  2  0
  1  5  1  0
  2  5  2  0
  2  6  1  0
  2  7  1  0
  3  4  1  0
 12  3  1  6
  4  9  1  0
  6 10  2  0
  6 11  1  0
  7  9  2  0
 12  8  1  0
 12 13  2  0
 12 14  2  0
  1 15  1  0
  3 16  1  0
  5 17  1  0
  7 18  1  0
  8 19  1  0
  8 20  1  0
  8 21  1  0
  9 22  1  0
M  CHG  1  11  -1
M  END
>  <filename_input>  (15) 
7FT9_4MB_docked.sdf

>  <pdb_id>  (15) 
7FT9_4MB

>  <pose_rank>  (15) 
14

>  <num_atoms_heavy>  (15) 
14

>  <num_torsions>  (15) 
3

>  <pose>  (15) 
[2.9944895138896612, 8.338806455582764, -31.39695275041867, 0.8875585993775553, 0.377864822682021, -1.0233147971979002, 3.249852363222238, 5.203390463266143, 3.9191723686739235]

>  <energy>  (15) 
-292.48139906998193

>  <inter_energy>  (15) 
-308.33843149956704

>  <intra_energy>  (15) 
7.376198490343195

>  <rmsd>  (15) 
4.467

>  <sdf_rank>  (15) 
0

$$$$

     RDKit          3D

 22 22  0  0  0  0  0  0  0  0999 V2000
    2.5135    6.4518  -31.9539 C   0  0  0  0  0  0  0  0  0  0  0  0
    1.2171    4.5080  -31.3058 C   0  0  0  0  0  0  0  0  0  0  0  0
    1.2678    8.5276  -32.6343 N   0  0  0  0  0  0  0  0  0  0  0  0
    1.3279    7.1586  -32.1983 C   0  0  0  0  0  0  0  0  0  0  0  0
    2.4590    5.1380  -31.5134 C   0  0  0  0  0  0  0  0  0  0  0  0
    1.0858    3.0903  -30.8873 C   0  0  0  0  0  0  0  0  0  0  0  0
    0.0610    5.2293  -31.5356 C   0  0  0  0  0  0  0  0  0  0  0  0
    0.6989   11.1768  -32.5436 C   0  0  0  0  0  0  0  0  0  0  0  0
    0.1116    6.5349  -31.9819 C   0  0  0  0  0  0  0  0  0  0  0  0
    2.0823    2.4407  -30.5397 O   0  0  0  0  0  0  0  0  0  0  0  0
   -0.1246    2.5999  -30.9032 O   0  0  0  0  0  0  0  0  0  0  0  0
    1.4337    9.8360  -31.6863 S   0  0  1  0  0  0  0  0  0  0  0  0
    0.6492    9.5519  -30.5243 O   0  0  0  0  0  0  0  0  0  0  0  0
    2.8266   10.1126  -31.5304 O   0  0  0  0  0  0  0  0  0  0  0  0
    3.4870    6.9392  -32.1115 H   0  0  0  0  0  0  0  0  0  0  0  0
    1.1049    8.6933  -33.6377 H   0  0  0  0  0  0  0  0  0  0  0  0
    3.3912    4.5851  -31.3251 H   0  0  0  0  0  0  0  0  0  0  0  0
   -0.9160    4.7553  -31.3600 H   0  0  0  0  0  0  0  0  0  0  0  0
    0.3014   11.9021  -31.8183 H   0  0  0  0  0  0  0  0  0  0  0  0
    1.4547   11.6665  -33.1752 H   0  0  0  0  0  0  0  0  0  0  0  0
   -0.1206   10.8032  -33.1752 H   0  0  0  0  0  0  0  0  0  0  0  0
   -0.8233    7.0843  -32.1672 H   0  0  0  0  0  0  0  0  0  0  0  0
  1  4  2  0
  1  5  1  0
  2  5  2  0
  2  6  1  0
  2  7  1  0
  3  4  1  0
 12  3  1  6
  4  9  1  0
  6 10  2  0
  6 11  1  0
  7  9  2  0
 12  8  1  0
 12 13  2  0
 12 14  2  0
  1 15  1  0
  3 16  1  0
  5 17  1  0
  7 18  1  0
  8 19  1  0
  8 20  1  0
  8 21  1  0
  9 22  1  0
M  CHG  1  11  -1
M  END
>  <filename_input>  (16) 
7FT9_4MB_docked.sdf

>  <pdb_id>  (16) 
7FT9_4MB

>  <pose_rank>  (16) 
15

>  <num_atoms_heavy>  (16) 
14

>  <num_torsions>  (16) 
3

>  <pose>  (16) 
[2.513512260447488, 6.451762305330551, -31.953864658837, -0.19071537479058542, -0.07531241225789216, -0.04809081729907241, 3.2985678789070203, 4.864159150033016, 4.8713503909623]

>  <energy>  (16) 
-413.901985487854

>  <inter_energy>  (16) 
-414.7620484067707

>  <intra_energy>  (16) 
1.2794933447603143

>  <rmsd>  (16) 
1.27978

>  <sdf_rank>  (16) 
0

$$$$

     RDKit          3D

 22 22  0  0  0  0  0  0  0  0999 V2000
    2.0467    5.7658  -31.7898 C   0  0  0  0  0  0  0  0  0  0  0  0
    0.8267    3.8250  -30.9998 C   0  0  0  0  0  0  0  0  0  0  0  0
    1.2109    8.0397  -31.1157 N   0  0  0  0  0  0  0  0  0  0  0  0
    1.1346    6.6039  -31.1335 C   0  0  0  0  0  0  0  0  0  0  0  0
    1.8935    4.3891  -31.7253 C   0  0  0  0  0  0  0  0  0  0  0  0
    0.5728    2.3645  -30.9332 C   0  0  0  0  0  0  0  0  0  0  0  0
   -0.0501    4.6693  -30.3456 C   0  0  0  0  0  0  0  0  0  0  0  0
    0.5482   10.5990  -31.7165 C   0  0  0  0  0  0  0  0  0  0  0  0
    0.0949    6.0408  -30.4144 C   0  0  0  0  0  0  0  0  0  0  0  0
    1.5091    1.5572  -31.0191 O   0  0  0  0  0  0  0  0  0  0  0  0
   -0.6733    2.0082  -30.7713 O   0  0  0  0  0  0  0  0  0  0  0  0
   -0.0530    9.0597  -31.1318 S   0  0  1  0  0  0  0  0  0  0  0  0
   -0.9506    8.5201  -32.1062 O   0  0  0  0  0  0  0  0  0  0  0  0
   -0.5125    9.2378  -29.7908 O   0  0  0  0  0  0  0  0  0  0  0  0
    2.8839    6.2001  -32.3559 H   0  0  0  0  0  0  0  0  0  0  0  0
    2.1514    8.4589  -31.0905 H   0  0  0  0  0  0  0  0  0  0  0  0
    2.6093    3.7341  -32.2437 H   0  0  0  0  0  0  0  0  0  0  0  0
   -0.8773    4.2417  -29.7601 H   0  0  0  0  0  0  0  0  0  0  0  0
    0.7998   11.2432  -30.8611 H   0  0  0  0  0  0  0  0  0  0  0  0
    1.4476   10.4331  -32.3277 H   0  0  0  0  0  0  0  0  0  0  0  0
   -0.2256   11.0866  -32.3277 H   0  0  0  0  0  0  0  0  0  0  0  0
   -0.6225    6.6916  -29.8929 H   0  0  0  0  0  0  0  0  0  0  0  0
  1  4  2  0
  1  5  1  0
  2  5  2  0
  2  6  1  0
  2  7  1  0
  3  4  1  0
 12  3  1  1
  4  9  1  0
  6 10  2  0
  6 11  1  0
  7  9  2  0
 12  8  1  0
 12 13  2  0
 12 14  2  0
  1 15  1  0
  3 16  1  0
  5 17  1  0
  7 18  1  0
  8 19  1  0
  8 20  1  0
  8 21  1  0
  9 22  1  0
M  CHG  1  11  -1
M  END
>  <filename_input>  (17) 
7FT9_4MB_docked.sdf

>  <pdb_id>  (17) 
7FT9_4MB

>  <pose_rank>  (17) 
16

>  <num_atoms_heavy>  (17) 
14

>  <num_torsions>  (17) 
3

>  <pose>  (17) 
[2.0467074044406375, 5.765774272108408, -31.789821194755866, 0.10777583392117188, 0.5388118969747783, -0.1809854508448549, -2.623107995659161, -10.062090653412064, 11.165677788506555]

>  <energy>  (17) 
-352.04195059640665

>  <inter_energy>  (17) 
-356.4859441485646

>  <intra_energy>  (17) 
7.798170037167099

>  <rmsd>  (17) 
1.90317

>  <sdf_rank>  (17) 
0

$$$$

     RDKit          3D

 22 22  0  0  0  0  0  0  0  0999 V2000
    2.4106    8.9286  -31.9614 C   0  0  0  0  0  0  0  0  0  0  0  0
    0.0141    8.7291  -31.6514 C   0  0  0  0  0  0  0  0  0  0  0  0
    3.7161   10.2361  -30.2556 N   0  0  0  0  0  0  0  0  0  0  0  0
    2.4945    9.7053  -30.7974 C   0  0  0  0  0  0  0  0  0  0  0  0
    1.1817    8.4463  -32.3858 C   0  0  0  0  0  0  0  0  0  0  0  0
   -1.3384    8.2904  -32.0763 C   0  0  0  0  0  0  0  0  0  0  0  0
    0.1225    9.4813  -30.4973 C   0  0  0  0  0  0  0  0  0  0  0  0
    6.4212   10.4000  -30.1787 C   0  0  0  0  0  0  0  0  0  0  0  0
    1.3434    9.9699  -30.0762 C   0  0  0  0  0  0  0  0  0  0  0  0
   -1.4905    7.6341  -33.1164 O   0  0  0  0  0  0  0  0  0  0  0  0
   -2.3228    8.6301  -31.2880 O   0  0  0  0  0  0  0  0  0  0  0  0
    5.0354    9.3746  -29.8613 S   0  0  1  0  0  0  0  0  0  0  0  0
    4.9335    9.1686  -28.4494 O   0  0  0  0  0  0  0  0  0  0  0  0
    5.1119    8.2376  -30.7229 O   0  0  0  0  0  0  0  0  0  0  0  0
    3.3194    8.7018  -32.5380 H   0  0  0  0  0  0  0  0  0  0  0  0
    3.7583   11.2540  -30.1039 H   0  0  0  0  0  0  0  0  0  0  0  0
    1.1187    7.8395  -33.3011 H   0  0  0  0  0  0  0  0  0  0  0  0
   -0.7790    9.6944  -29.9040 H   0  0  0  0  0  0  0  0  0  0  0  0
    6.8620   10.7262  -29.2251 H   0  0  0  0  0  0  0  0  0  0  0  0
    7.1698    9.8367  -30.7550 H   0  0  0  0  0  0  0  0  0  0  0  0
    6.1014   11.2807  -30.7550 H   0  0  0  0  0  0  0  0  0  0  0  0
    1.4016   10.5748  -29.1593 H   0  0  0  0  0  0  0  0  0  0  0  0
  1  4  2  0
  1  5  1  0
  2  5  2  0
  2  6  1  0
  2  7  1  0
  3  4  1  0
 12  3  1  6
  4  9  1  0
  6 10  2  0
  6 11  1  0
  7  9  2  0
 12  8  1  0
 12 13  2  0
 12 14  2  0
  1 15  1  0
  3 16  1  0
  5 17  1  0
  7 18  1  0
  8 19  1  0
  8 20  1  0
  8 21  1  0
  9 22  1  0
M  CHG  1  11  -1
M  END
>  <filename_input>  (18) 
7FT9_4MB_docked.sdf

>  <pdb_id>  (18) 
7FT9_4MB

>  <pose_rank>  (18) 
17

>  <num_atoms_heavy>  (18) 
14

>  <num_torsions>  (18) 
3

>  <pose>  (18) 
[2.410591351614924, 8.928614162216244, -31.96137888646182, 0.8896032286184834, 0.5546668717357128, -1.0336788582738545, 3.1491399297926916, 5.290997867952777, 3.930926690945245]

>  <energy>  (18) 
-289.5265445752756

>  <inter_energy>  (18) 
-295.45509076250687

>  <intra_energy>  (18) 
9.042625541742575

>  <rmsd>  (18) 
4.44831

>  <sdf_rank>  (18) 
0

$$$$

     RDKit          3D

 22 22  0  0  0  0  0  0  0  0999 V2000
    3.1277    8.4486  -30.7626 C   0  0  0  0  0  0  0  0  0  0  0  0
    1.5665    9.7004  -32.1317 C   0  0  0  0  0  0  0  0  0  0  0  0
    4.7853    9.7408  -29.3819 N   0  0  0  0  0  0  0  0  0  0  0  0
    3.7032    9.6494  -30.3243 C   0  0  0  0  0  0  0  0  0  0  0  0
    2.0703    8.4734  -31.6593 C   0  0  0  0  0  0  0  0  0  0  0  0
    0.4741    9.7985  -33.1312 C   0  0  0  0  0  0  0  0  0  0  0  0
    2.1369   10.8723  -31.6726 C   0  0  0  0  0  0  0  0  0  0  0  0
    6.6277    9.1589  -27.4799 C   0  0  0  0  0  0  0  0  0  0  0  0
    3.1951   10.8511  -30.7859 C   0  0  0  0  0  0  0  0  0  0  0  0
   -0.6719    9.4182  -32.8522 O   0  0  0  0  0  0  0  0  0  0  0  0
    0.8019   10.3106  -34.2872 O   0  0  0  0  0  0  0  0  0  0  0  0
    5.5556    8.4875  -28.6934 S   0  0  1  0  0  0  0  0  0  0  0  0
    4.5294    7.7409  -28.0334 O   0  0  0  0  0  0  0  0  0  0  0  0
    6.3523    7.8402  -29.6871 O   0  0  0  0  0  0  0  0  0  0  0  0
    3.5150    7.4868  -30.3951 H   0  0  0  0  0  0  0  0  0  0  0  0
    5.1003   10.6858  -29.1198 H   0  0  0  0  0  0  0  0  0  0  0  0
    1.6227    7.5293  -32.0035 H   0  0  0  0  0  0  0  0  0  0  0  0
    1.7412   11.8384  -32.0194 H   0  0  0  0  0  0  0  0  0  0  0  0
    6.2435    8.9183  -26.4777 H   0  0  0  0  0  0  0  0  0  0  0  0
    7.6329    8.7287  -27.6003 H   0  0  0  0  0  0  0  0  0  0  0  0
    6.6794   10.2511  -27.6003 H   0  0  0  0  0  0  0  0  0  0  0  0
    3.6383   11.7978  -30.4433 H   0  0  0  0  0  0  0  0  0  0  0  0
  1  4  2  0
  1  5  1  0
  2  5  2  0
  2  6  1  0
  2  7  1  0
  3  4  1  0
 12  3  1  6
  4  9  1  0
  6 10  2  0
  6 11  1  0
  7  9  2  0
 12  8  1  0
 12 13  2  0
 12 14  2  0
  1 15  1  0
  3 16  1  0
  5 17  1  0
  7 18  1  0
  8 19  1  0
  8 20  1  0
  8 21  1  0
  9 22  1  0
M  CHG  1  11  -1
M  END
>  <filename_input>  (19) 
7FT9_4MB_docked.sdf

>  <pdb_id>  (19) 
7FT9_4MB

>  <pose_rank>  (19) 
18

>  <num_atoms_heavy>  (19) 
14

>  <num_torsions>  (19) 
3

>  <pose>  (19) 
[3.127746812878199, 8.448606844013236, -30.762556859666137, 0.6004496861840098, -0.7179726810774334, -1.53560668491934, 4.2964534580559235, 6.293029803912636, 4.636905748040125]

>  <energy>  (19) 
-317.9014499917588

>  <inter_energy>  (19) 
-327.36666039539307

>  <intra_energy>  (19) 
6.758323761249355

>  <rmsd>  (19) 
5.58824

>  <sdf_rank>  (19) 
0

$$$$

     RDKit          3D

 22 22  0  0  0  0  0  0  0  0999 V2000
    2.6526    6.3174  -31.9040 C   0  0  0  0  0  0  0  0  0  0  0  0
    1.1326    4.5263  -31.3035 C   0  0  0  0  0  0  0  0  0  0  0  0
    1.7109    8.6381  -32.1297 N   0  0  0  0  0  0  0  0  0  0  0  0
    1.5873    7.2281  -31.8763 C   0  0  0  0  0  0  0  0  0  0  0  0
    2.4275    4.9785  -31.6220 C   0  0  0  0  0  0  0  0  0  0  0  0
    0.8115    3.1010  -31.0438 C   0  0  0  0  0  0  0  0  0  0  0  0
    0.1005    5.4444  -31.2642 C   0  0  0  0  0  0  0  0  0  0  0  0
   -0.1589    9.3801  -33.9473 C   0  0  0  0  0  0  0  0  0  0  0  0
    0.3197    6.7769  -31.5524 C   0  0  0  0  0  0  0  0  0  0  0  0
   -0.3172    2.7699  -30.6534 O   0  0  0  0  0  0  0  0  0  0  0  0
    1.7771    2.2490  -31.2620 O   0  0  0  0  0  0  0  0  0  0  0  0
    0.4812    9.6777  -32.3428 S   0  0  1  0  0  0  0  0  0  0  0  0
   -0.5021    9.2889  -31.3794 O   0  0  0  0  0  0  0  0  0  0  0  0
    0.9980   11.0091  -32.3058 O   0  0  0  0  0  0  0  0  0  0  0  0
    3.6670    6.6648  -32.1495 H   0  0  0  0  0  0  0  0  0  0  0  0
    2.6647    9.0235  -32.1806 H   0  0  0  0  0  0  0  0  0  0  0  0
    3.2650    4.2658  -31.6473 H   0  0  0  0  0  0  0  0  0  0  0  0
   -0.9126    5.1080  -30.9990 H   0  0  0  0  0  0  0  0  0  0  0  0
   -1.1536    8.9177  -33.8652 H   0  0  0  0  0  0  0  0  0  0  0  0
   -0.2410   10.3324  -34.4917 H   0  0  0  0  0  0  0  0  0  0  0  0
    0.5162    8.7035  -34.4917 H   0  0  0  0  0  0  0  0  0  0  0  0
   -0.5207    7.4860  -31.5242 H   0  0  0  0  0  0  0  0  0  0  0  0
  1  4  2  0
  1  5  1  0
  2  5  2  0
  2  6  1  0
  2  7  1  0
  3  4  1  0
 12  3  1  1
  4  9  1  0
  6 10  2  0
  6 11  1  0
  7  9  2  0
 12  8  1  0
 12 13  2  0
 12 14  2  0
  1 15  1  0
  3 16  1  0
  5 17  1  0
  7 18  1  0
  8 19  1  0
  8 20  1  0
  8 21  1  0
  9 22  1  0
M  CHG  1  11  -1
M  END
>  <filename_input>  (20) 
7FT9_4MB_docked.sdf

>  <pdb_id>  (20) 
7FT9_4MB

>  <pose_rank>  (20) 
19

>  <num_atoms_heavy>  (20) 
14

>  <num_torsions>  (20) 
3

>  <pose>  (20) 
[2.652603742914184, 6.317356276792688, -31.904030986386378, 1.7099372807157454, -2.2800318683644556, 5.3372507405411564, -0.11197746844877296, -3.346468251562177, 0.06258706445455725]

>  <energy>  (20) 
-380.9703554534003

>  <inter_energy>  (20) 
-386.16163188739637

>  <intra_energy>  (20) 
28.740422126662217

>  <rmsd>  (20) 
1.67805

>  <sdf_rank>  (20) 
0

$$$$

     RDKit          3D

 22 22  0  0  0  0  0  0  0  0999 V2000
    2.5478    5.9223  -32.0990 C   0  0  0  0  0  0  0  0  0  0  0  0
    1.0297    4.1488  -31.4440 C   0  0  0  0  0  0  0  0  0  0  0  0
    1.6175    8.2474  -32.3277 N   0  0  0  0  0  0  0  0  0  0  0  0
    1.4899    6.8411  -32.0564 C   0  0  0  0  0  0  0  0  0  0  0  0
    2.3199    4.5882  -31.7974 C   0  0  0  0  0  0  0  0  0  0  0  0
    0.7046    2.7288  -31.1616 C   0  0  0  0  0  0  0  0  0  0  0  0
    0.0053    5.0748  -31.3907 C   0  0  0  0  0  0  0  0  0  0  0  0
    0.6744    8.9558  -29.8866 C   0  0  0  0  0  0  0  0  0  0  0  0
    0.2271    6.4025  -31.6982 C   0  0  0  0  0  0  0  0  0  0  0  0
   -0.4466    2.3963  -30.8455 O   0  0  0  0  0  0  0  0  0  0  0  0
    1.6925    1.8825  -31.2789 O   0  0  0  0  0  0  0  0  0  0  0  0
    1.7179    9.4257  -31.2144 S   0  0  1  0  0  0  0  0  0  0  0  0
    3.0748    9.3923  -30.7627 O   0  0  0  0  0  0  0  0  0  0  0  0
    1.2066   10.6334  -31.7810 O   0  0  0  0  0  0  0  0  0  0  0  0
    3.5587    6.2597  -32.3717 H   0  0  0  0  0  0  0  0  0  0  0  0
    1.6479    8.5331  -33.3168 H   0  0  0  0  0  0  0  0  0  0  0  0
    3.1515    3.8691  -31.8345 H   0  0  0  0  0  0  0  0  0  0  0  0
   -1.0038    4.7487  -31.0984 H   0  0  0  0  0  0  0  0  0  0  0  0
    1.1724    9.1801  -28.9318 H   0  0  0  0  0  0  0  0  0  0  0  0
   -0.2708    9.5151  -29.9475 H   0  0  0  0  0  0  0  0  0  0  0  0
    0.4668    7.8773  -29.9475 H   0  0  0  0  0  0  0  0  0  0  0  0
   -0.6074    7.1181  -31.6581 H   0  0  0  0  0  0  0  0  0  0  0  0
  1  4  2  0
  1  5  1  0
  2  5  2  0
  2  6  1  0
  2  7  1  0
  3  4  1  0
 12  3  1  6
  4  9  1  0
  6 10  2  0
  6 11  1  0
  7  9  2  0
 12  8  1  0
 12 13  2  0
 12 14  2  0
  1 15  1  0
  3 16  1  0
  5 17  1  0
  7 18  1  0
  8 19  1  0
  8 20  1  0
  8 21  1  0
  9 22  1  0
M  CHG  1  11  -1
M  END
>  <filename_input>  (21) 
7FT9_4MB_docked.sdf

>  <pdb_id>  (21) 
7FT9_4MB

>  <pose_rank>  (21) 
20

>  <num_atoms_heavy>  (21) 
14

>  <num_torsions>  (21) 
3

>  <pose>  (21) 
[2.547830451233173, 5.922318363965486, -32.099037633399796, 1.8823505431164407, -2.638227597088444, 5.08694658461063, -0.009809704729780428, -1.7680755878401755, 0.734433066137386]

>  <energy>  (21) 
-403.58022391932514

>  <inter_energy>  (21) 
-421.34854292907926

>  <intra_energy>  (21) 
12.194904690665616

>  <rmsd>  (21) 
1.16468

>  <sdf_rank>  (21) 
0

$$$$

     RDKit          3D

 22 22  0  0  0  0  0  0  0  0999 V2000
    2.2038    6.0487  -31.9175 C   0  0  0  0  0  0  0  0  0  0  0  0
    1.0165    3.9587  -31.5996 C   0  0  0  0  0  0  0  0  0  0  0  0
    0.8454    8.1410  -32.2350 N   0  0  0  0  0  0  0  0  0  0  0  0
    0.9807    6.7235  -32.0351 C   0  0  0  0  0  0  0  0  0  0  0  0
    2.2220    4.6788  -31.7035 C   0  0  0  0  0  0  0  0  0  0  0  0
    0.9629    2.4861  -31.4244 C   0  0  0  0  0  0  0  0  0  0  0  0
   -0.1777    4.6467  -31.7005 C   0  0  0  0  0  0  0  0  0  0  0  0
    2.6290    9.2932  -30.5493 C   0  0  0  0  0  0  0  0  0  0  0  0
   -0.1994    6.0095  -31.9216 C   0  0  0  0  0  0  0  0  0  0  0  0
    1.9754    1.7932  -31.5990 O   0  0  0  0  0  0  0  0  0  0  0  0
   -0.1948    1.9945  -31.0725 O   0  0  0  0  0  0  0  0  0  0  0  0
    0.9590    9.2794  -31.0820 S   0  0  1  0  0  0  0  0  0  0  0  0
    0.6833   10.5126  -31.7524 O   0  0  0  0  0  0  0  0  0  0  0  0
    0.1390    8.8935  -29.9776 O   0  0  0  0  0  0  0  0  0  0  0  0
    3.1491    6.6059  -31.9950 H   0  0  0  0  0  0  0  0  0  0  0  0
    0.6597    8.4634  -33.1954 H   0  0  0  0  0  0  0  0  0  0  0  0
    3.1834    4.1517  -31.6144 H   0  0  0  0  0  0  0  0  0  0  0  0
   -1.1270    4.0996  -31.6030 H   0  0  0  0  0  0  0  0  0  0  0  0
    2.6631    9.2934  -29.4498 H   0  0  0  0  0  0  0  0  0  0  0  0
    3.1433    8.3992  -30.9319 H   0  0  0  0  0  0  0  0  0  0  0  0
    3.1285   10.1954  -30.9319 H   0  0  0  0  0  0  0  0  0  0  0  0
   -1.1633    6.5324  -32.0083 H   0  0  0  0  0  0  0  0  0  0  0  0
  1  4  2  0
  1  5  1  0
  2  5  2  0
  2  6  1  0
  2  7  1  0
  3  4  1  0
 12  3  1  6
  4  9  1  0
  6 10  2  0
  6 11  1  0
  7  9  2  0
 12  8  1  0
 12 13  2  0
 12 14  2  0
  1 15  1  0
  3 16  1  0
  5 17  1  0
  7 18  1  0
  8 19  1  0
  8 20  1  0
  8 21  1  0
  9 22  1  0
M  CHG  1  11  -1
M  END
>  <filename_input>  (22) 
7FT9_4MB_docked.sdf

>  <pdb_id>  (22) 
7FT9_4MB

>  <pose_rank>  (22) 
21

>  <num_atoms_heavy>  (22) 
14

>  <num_torsions>  (22) 
3

>  <pose>  (22) 
[2.203829325525961, 6.048729856418527, -31.91751270567957, 7.315962921525319, 23.96239743961585, 0.6279358038815117, -3.3690408621271257, -13.983411762840092, 8.83308359172932]

>  <energy>  (22) 
-371.67333205295597

>  <inter_energy>  (22) 
-373.10611720248164

>  <intra_energy>  (22) 
2.259716408961495

>  <rmsd>  (22) 
1.37529

>  <sdf_rank>  (22) 
0

$$$$

     RDKit          3D

 22 22  0  0  0  0  0  0  0  0999 V2000
   -0.4379   -0.8380  -26.4375 C   0  0  0  0  0  0  0  0  0  0  0  0
   -0.0403   -1.1660  -28.8068 C   0  0  0  0  0  0  0  0  0  0  0  0
   -2.0422   -2.3934  -25.2840 N   0  0  0  0  0  0  0  0  0  0  0  0
   -1.3397   -1.9113  -26.4423 C   0  0  0  0  0  0  0  0  0  0  0  0
    0.2047   -0.4674  -27.6091 C   0  0  0  0  0  0  0  0  0  0  0  0
    0.5711   -0.7900  -30.1056 C   0  0  0  0  0  0  0  0  0  0  0  0
   -0.9193   -2.2321  -28.7847 C   0  0  0  0  0  0  0  0  0  0  0  0
   -3.5511   -0.1422  -25.2088 C   0  0  0  0  0  0  0  0  0  0  0  0
   -1.5669   -2.5988  -27.6217 C   0  0  0  0  0  0  0  0  0  0  0  0
    0.3359    0.3140  -30.6171 O   0  0  0  0  0  0  0  0  0  0  0  0
    1.3597   -1.6807  -30.6447 O   0  0  0  0  0  0  0  0  0  0  0  0
   -2.9412   -1.4936  -24.2738 S   0  0  1  0  0  0  0  0  0  0  0  0
   -4.0419   -2.3327  -23.9123 O   0  0  0  0  0  0  0  0  0  0  0  0
   -2.0944   -0.9807  -23.2438 O   0  0  0  0  0  0  0  0  0  0  0  0
   -0.2400   -0.2900  -25.5045 H   0  0  0  0  0  0  0  0  0  0  0  0
   -1.9688   -3.3996  -25.0763 H   0  0  0  0  0  0  0  0  0  0  0  0
    0.9097    0.3770  -27.6028 H   0  0  0  0  0  0  0  0  0  0  0  0
   -1.1061   -2.7981  -29.7092 H   0  0  0  0  0  0  0  0  0  0  0  0
   -3.9062    0.6447  -24.5272 H   0  0  0  0  0  0  0  0  0  0  0  0
   -2.7463    0.2579  -25.8430 H   0  0  0  0  0  0  0  0  0  0  0  0
   -4.3835   -0.4811  -25.8430 H   0  0  0  0  0  0  0  0  0  0  0  0
   -2.2698   -3.4449  -27.6327 H   0  0  0  0  0  0  0  0  0  0  0  0
  1  4  2  0
  1  5  1  0
  2  5  2  0
  2  6  1  0
  2  7  1  0
  3  4  1  0
 12  3  1  6
  4  9  1  0
  6 10  2  0
  6 11  1  0
  7  9  2  0
 12  8  1  0
 12 13  2  0
 12 14  2  0
  1 15  1  0
  3 16  1  0
  5 17  1  0
  7 18  1  0
  8 19  1  0
  8 20  1  0
  8 21  1  0
  9 22  1  0
M  CHG  1  11  -1
M  END
>  <filename_input>  (23) 
7FT9_4MB_docked.sdf

>  <pdb_id>  (23) 
7FT9_4MB

>  <pose_rank>  (23) 
22

>  <num_atoms_heavy>  (23) 
14

>  <num_torsions>  (23) 
3

>  <pose>  (23) 
[-0.43787602677490384, -0.8380447124490361, -26.437526377525405, -3.508317470660527, -0.6797525014751122, -2.4499003600498312, 2.0549328996161487, 0.9007696925506856, 1.850634093614008]

>  <energy>  (23) 
-204.15512449966624

>  <inter_energy>  (23) 
-217.8898748459735

>  <intra_energy>  (23) 
4.366542132571669

>  <rmsd>  (23) 
10.6172

>  <sdf_rank>  (23) 
0

$$$$

     RDKit          3D

 22 22  0  0  0  0  0  0  0  0999 V2000
   -1.2588   -2.6823  -27.2204 C   0  0  0  0  0  0  0  0  0  0  0  0
   -0.0550   -0.9562  -28.4246 C   0  0  0  0  0  0  0  0  0  0  0  0
   -1.6942   -2.3261  -24.7694 N   0  0  0  0  0  0  0  0  0  0  0  0
   -1.1497   -1.9328  -26.0408 C   0  0  0  0  0  0  0  0  0  0  0  0
   -0.7151   -2.1997  -28.4012 C   0  0  0  0  0  0  0  0  0  0  0  0
    0.5952   -0.4050  -29.6393 C   0  0  0  0  0  0  0  0  0  0  0  0
    0.0252   -0.2258  -27.2543 C   0  0  0  0  0  0  0  0  0  0  0  0
   -2.9120   -0.4621  -23.2226 C   0  0  0  0  0  0  0  0  0  0  0  0
   -0.5081   -0.7071  -26.0751 C   0  0  0  0  0  0  0  0  0  0  0  0
    0.7204    0.8191  -29.7872 O   0  0  0  0  0  0  0  0  0  0  0  0
    1.0212   -1.2829  -30.5074 O   0  0  0  0  0  0  0  0  0  0  0  0
   -3.1513   -1.9058  -24.1876 S   0  0  1  0  0  0  0  0  0  0  0  0
   -3.9241   -1.5613  -25.3410 O   0  0  0  0  0  0  0  0  0  0  0  0
   -3.6171   -2.9476  -23.3282 O   0  0  0  0  0  0  0  0  0  0  0  0
   -1.7757   -3.6533  -27.2094 H   0  0  0  0  0  0  0  0  0  0  0  0
   -1.1078   -2.9285  -24.1744 H   0  0  0  0  0  0  0  0  0  0  0  0
   -0.7999   -2.7914  -29.3246 H   0  0  0  0  0  0  0  0  0  0  0  0
    0.5221    0.7555  -27.2622 H   0  0  0  0  0  0  0  0  0  0  0  0
   -2.9553   -0.7233  -22.1550 H   0  0  0  0  0  0  0  0  0  0  0  0
   -1.9292   -0.0253  -23.4537 H   0  0  0  0  0  0  0  0  0  0  0  0
   -3.7013    0.2684  -23.4537 H   0  0  0  0  0  0  0  0  0  0  0  0
   -0.4222   -0.1109  -25.1546 H   0  0  0  0  0  0  0  0  0  0  0  0
  1  4  2  0
  1  5  1  0
  2  5  2  0
  2  6  1  0
  2  7  1  0
  3  4  1  0
 12  3  1  6
  4  9  1  0
  6 10  2  0
  6 11  1  0
  7  9  2  0
 12  8  1  0
 12 13  2  0
 12 14  2  0
  1 15  1  0
  3 16  1  0
  5 17  1  0
  7 18  1  0
  8 19  1  0
  8 20  1  0
  8 21  1  0
  9 22  1  0
M  CHG  1  11  -1
M  END
>  <filename_input>  (24) 
7FT9_4MB_docked.sdf

>  <pdb_id>  (24) 
7FT9_4MB

>  <pose_rank>  (24) 
23

>  <num_atoms_heavy>  (24) 
14

>  <num_torsions>  (24) 
3

>  <pose>  (24) 
[-1.258832829919574, -2.6823452306948794, -27.220424975048406, -1.8893811523405448, 1.9753045448146205, 1.9815744275602662, -0.4688445829943342, -1.6477449498020833, -0.25795749980501204]

>  <energy>  (24) 
-190.343186685391

>  <inter_energy>  (24) 
-194.9819386303859

>  <intra_energy>  (24) 
0.8026563063765308

>  <rmsd>  (24) 
10.8311

>  <sdf_rank>  (24) 
0

$$$$

     RDKit          3D

 22 22  0  0  0  0  0  0  0  0999 V2000
    2.5088    6.2640  -32.1455 C   0  0  0  0  0  0  0  0  0  0  0  0
    0.8632    4.6058  -31.4966 C   0  0  0  0  0  0  0  0  0  0  0  0
    1.7500    8.6499  -32.3813 N   0  0  0  0  0  0  0  0  0  0  0  0
    1.5198    7.2569  -32.1092 C   0  0  0  0  0  0  0  0  0  0  0  0
    2.1835    4.9502  -31.8437 C   0  0  0  0  0  0  0  0  0  0  0  0
    0.4349    3.2133  -31.2144 C   0  0  0  0  0  0  0  0  0  0  0  0
   -0.0919    5.6034  -31.4495 C   0  0  0  0  0  0  0  0  0  0  0  0
   -0.7789    8.9576  -33.3087 C   0  0  0  0  0  0  0  0  0  0  0  0
    0.2268    6.9112  -31.7572 C   0  0  0  0  0  0  0  0  0  0  0  0
    1.1243    2.2536  -31.5881 O   0  0  0  0  0  0  0  0  0  0  0  0
   -0.6838    3.0826  -30.5532 O   0  0  0  0  0  0  0  0  0  0  0  0
    0.6028    9.7773  -32.6075 S   0  0  1  0  0  0  0  0  0  0  0  0
    0.2534   10.2175  -31.2920 O   0  0  0  0  0  0  0  0  0  0  0  0
    1.0839   10.7343  -33.5528 O   0  0  0  0  0  0  0  0  0  0  0  0
    3.5428    6.5271  -32.4132 H   0  0  0  0  0  0  0  0  0  0  0  0
    2.7304    8.9607  -32.4379 H   0  0  0  0  0  0  0  0  0  0  0  0
    2.9612    4.1730  -31.8757 H   0  0  0  0  0  0  0  0  0  0  0  0
   -1.1234    5.3514  -31.1621 H   0  0  0  0  0  0  0  0  0  0  0  0
   -1.4247    8.5745  -32.5049 H   0  0  0  0  0  0  0  0  0  0  0  0
   -1.3477    9.6645  -33.9306 H   0  0  0  0  0  0  0  0  0  0  0  0
   -0.4313    8.1196  -33.9306 H   0  0  0  0  0  0  0  0  0  0  0  0
   -0.5540    7.6852  -31.7222 H   0  0  0  0  0  0  0  0  0  0  0  0
  1  4  2  0
  1  5  1  0
  2  5  2  0
  2  6  1  0
  2  7  1  0
  3  4  1  0
 12  3  1  1
  4  9  1  0
  6 10  2  0
  6 11  1  0
  7  9  2  0
 12  8  1  0
 12 13  2  0
 12 14  2  0
  1 15  1  0
  3 16  1  0
  5 17  1  0
  7 18  1  0
  8 19  1  0
  8 20  1  0
  8 21  1  0
  9 22  1  0
M  CHG  1  11  -1
M  END
>  <filename_input>  (25) 
7FT9_4MB_docked.sdf

>  <pdb_id>  (25) 
7FT9_4MB

>  <pose_rank>  (25) 
24

>  <num_atoms_heavy>  (25) 
14

>  <num_torsions>  (25) 
3

>  <pose>  (25) 
[2.5087997581325685, 6.264033452485053, -32.145453353054144, -1.5831209075135944, 2.2665411574365995, -5.989348577527957, 2.823985082374281, -3.3643227121882138, 0.8419703801112773]

>  <energy>  (25) 
-375.17618699610676

>  <inter_energy>  (25) 
-411.59618759928776

>  <intra_energy>  (25) 
34.61620533606332

>  <rmsd>  (25) 
1.62826

>  <sdf_rank>  (25) 
0

$$$$

     RDKit          3D

 22 22  0  0  0  0  0  0  0  0999 V2000
    1.9250    6.7990  -31.6170 C   0  0  0  0  0  0  0  0  0  0  0  0
    0.7640    4.7000  -31.2630 C   0  0  0  0  0  0  0  0  0  0  0  0
    0.5460    8.8940  -31.7990 N   0  0  0  0  0  0  0  0  0  0  0  0
    0.6960    7.4730  -31.6380 C   0  0  0  0  0  0  0  0  0  0  0  0
    1.9590    5.4250  -31.4330 C   0  0  0  0  0  0  0  0  0  0  0  0
    0.7240    3.2240  -31.1150 C   0  0  0  0  0  0  0  0  0  0  0  0
   -0.4350    5.3870  -31.2690 C   0  0  0  0  0  0  0  0  0  0  0  0
    2.4680   10.2330  -30.4340 C   0  0  0  0  0  0  0  0  0  0  0  0
   -0.4730    6.7540  -31.4600 C   0  0  0  0  0  0  0  0  0  0  0  0
   -0.3560    2.6340  -30.9690 O   0  0  0  0  0  0  0  0  0  0  0  0
    1.8780    2.6140  -31.1600 O   0  0  0  0  0  0  0  0  0  0  0  0
    1.7530    9.9600  -32.0110 S   0  0  1  0  0  0  0  0  0  0  0  0
    2.7060    9.2800  -32.8330 O   0  0  0  0  0  0  0  0  0  0  0  0
    1.1970   11.1930  -32.4710 O   0  0  0  0  0  0  0  0  0  0  0  0
    2.8623    7.3600  -31.7465 H   0  0  0  0  0  0  0  0  0  0  0  0
   -0.4129    9.2696  -31.7780 H   0  0  0  0  0  0  0  0  0  0  0  0
    2.9248    4.8986  -31.4198 H   0  0  0  0  0  0  0  0  0  0  0  0
   -1.3749    4.8356  -31.1191 H   0  0  0  0  0  0  0  0  0  0  0  0
    1.7459    9.9573  -29.6513 H   0  0  0  0  0  0  0  0  0  0  0  0
    3.3737    9.6174  -30.3305 H   0  0  0  0  0  0  0  0  0  0  0  0
    2.7330   11.2956  -30.3305 H   0  0  0  0  0  0  0  0  0  0  0  0
   -1.4411    7.2762  -31.4708 H   0  0  0  0  0  0  0  0  0  0  0  0
  1  4  2  0
  1  5  1  0
  2  5  2  0
  2  6  1  0
  2  7  1  0
  3  4  1  0
 12  3  1  1
  4  9  1  0
  6 10  2  0
  6 11  1  0
  7  9  2  0
 12  8  1  0
 12 13  2  0
 12 14  2  0
  1 15  1  0
  3 16  1  0
  5 17  1  0
  7 18  1  0
  8 19  1  0
  8 20  1  0
  8 21  1  0
  9 22  1  0
M  CHG  1  11  -1
M  END
>  <filename_input>  (26) 
7FT9_4MB_docked.sdf

>  <pdb_id>  (26) 
7FT9_4MB

>  <pose_rank>  (26) 
25

>  <num_atoms_heavy>  (26) 
14

>  <num_torsions>  (26) 
3

>  <pose>  (26) 
[1.925, 6.799, -31.617, 1e-06, 1e-06, 1e-06, 0.0, 0.0, 0.0]

>  <energy>  (26) 
-385.43971134688996

>  <inter_energy>  (26) 
-399.26740890457796

>  <intra_energy>  (26) 
16.421320927307058

>  <rmsd>  (26) 
0.0

>  <sdf_rank>  (26) 
0

$$$$
