
     RDKit          3D

 32 32  0  0  0  0  0  0  0  0999 V2000
  -31.6053   21.8047   35.1605 C   0  0  1  0  0  0  0  0  0  0  0  0
  -31.1782   22.2656   36.4369 O   0  0  0  0  0  0  0  0  0  0  0  0
  -30.3547   21.4578   34.3384 C   0  0  1  0  0  0  0  0  0  0  0  0
  -29.2763   22.3314   34.5799 O   0  0  0  0  0  0  0  0  0  0  0  0
  -30.1168   20.0048   34.7877 C   0  0  1  0  0  0  0  0  0  0  0  0
  -31.4304   19.4340   34.9558 O   0  0  0  0  0  0  0  0  0  0  0  0
  -32.3552   20.4761   35.2968 C   0  0  2  0  0  0  0  0  0  0  0  0
  -33.5493   20.3950   34.3710 C   0  0  0  0  0  0  0  0  0  0  0  0
  -34.6406   19.7938   35.0609 O   0  0  0  0  0  0  0  0  0  0  0  0
  -29.3644   19.2468   33.8382 N   0  0  0  0  0  0  0  0  0  0  0  0
  -28.3581   18.4519   34.2081 C   0  0  0  0  0  0  0  0  0  0  0  0
  -28.0874   18.1857   35.3789 O   0  0  0  0  0  0  0  0  0  0  0  0
  -27.5830   17.8912   33.0349 C   0  0  0  0  0  0  0  0  0  0  0  0
  -26.1834   17.6920   33.3512 N   0  0  0  0  0  0  0  0  0  0  0  0
  -35.9209   20.6935   35.4007 P   0  0  1  0  0  0  0  0  0  0  0  0
  -35.5005   21.4745   36.6419 O   0  0  0  0  0  0  0  0  0  0  0  0
  -36.1321   21.5935   34.2013 O   0  0  0  0  0  0  0  0  0  0  0  0
  -37.0158   19.6731   35.6223 O   0  0  0  0  0  0  0  0  0  0  0  0
  -32.2366   22.5818   34.7048 H   0  0  0  0  0  0  0  0  0  0  0  0
  -31.6483   21.7583   37.1452 H   0  0  0  0  0  0  0  0  0  0  0  0
  -30.4704   21.5648   33.2497 H   0  0  0  0  0  0  0  0  0  0  0  0
  -29.1480   22.4353   35.5561 H   0  0  0  0  0  0  0  0  0  0  0  0
  -29.5227   19.9854   35.7132 H   0  0  0  0  0  0  0  0  0  0  0  0
  -32.7333   20.3804   36.3253 H   0  0  0  0  0  0  0  0  0  0  0  0
  -33.8324   21.4074   34.0471 H   0  0  0  0  0  0  0  0  0  0  0  0
  -33.2916   19.7887   33.4901 H   0  0  0  0  0  0  0  0  0  0  0  0
  -29.6058   19.3160   32.8392 H   0  0  0  0  0  0  0  0  0  0  0  0
  -28.0229   16.9244   32.7487 H   0  0  0  0  0  0  0  0  0  0  0  0
  -27.6439   18.6172   32.2108 H   0  0  0  0  0  0  0  0  0  0  0  0
  -26.0616   17.6747   34.3738 H   0  0  0  0  0  0  0  0  0  0  0  0
  -25.8653   16.7973   32.9523 H   0  0  0  0  0  0  0  0  0  0  0  0
  -25.6283   18.4625   32.9523 H   0  0  0  0  0  0  0  0  0  0  0  0
  1  2  1  0
  1  3  1  0
  1  7  1  0
  3  4  1  0
  3  5  1  0
  5  6  1  0
  5 10  1  0
  6  7  1  0
  7  8  1  0
  8  9  1  0
  9 15  1  0
 10 11  1  0
 11 12  2  0
 11 13  1  0
 13 14  1  0
 15 16  2  0
 15 17  1  6
 15 18  1  0
  1 19  1  6
  2 20  1  0
  3 21  1  6
  4 22  1  0
  5 23  1  1
  7 24  1  1
  8 25  1  0
  8 26  1  0
 10 27  1  0
 13 28  1  0
 13 29  1  0
 14 30  1  0
 14 31  1  0
 14 32  1  0
M  CHG  3  14   1  17  -1  18  -1
M  END
>  <filename_input>  (1) 
7JG0_GAR_docked.sdf

>  <pdb_id>  (1) 
7JG0_GAR

>  <pose_rank>  (1) 
0

>  <num_atoms_heavy>  (1) 
18

>  <num_torsions>  (1) 
5

>  <pose>  (1) 
[-31.605341069260128, 21.804662744027826, 35.16051081199446, 0.3268829113220494, -0.26711579245440314, -0.06892595301511475, -25.11807512234831, -0.2059722873640131, 30.295995070619487, -7.2358477732783095, -0.2508032149588011]

>  <energy>  (1) 
-810.2212995457115

>  <inter_energy>  (1) 
-816.9081228845339

>  <intra_energy>  (1) 
0.03969750270075607

>  <rmsd>  (1) 
0.88242

>  <sdf_rank>  (1) 
0

$$$$

     RDKit          3D

 32 32  0  0  0  0  0  0  0  0999 V2000
  -31.2314   19.8637   34.0556 C   0  0  1  0  0  0  0  0  0  0  0  0
  -30.4610   20.8406   33.3655 O   0  0  0  0  0  0  0  0  0  0  0  0
  -30.2887   19.0882   34.9883 C   0  0  1  0  0  0  0  0  0  0  0  0
  -29.0085   18.8875   34.4358 O   0  0  0  0  0  0  0  0  0  0  0  0
  -30.3159   19.9941   36.2326 C   0  0  1  0  0  0  0  0  0  0  0  0
  -31.6663   20.4936   36.3155 O   0  0  0  0  0  0  0  0  0  0  0  0
  -32.2311   20.5411   34.9979 C   0  0  2  0  0  0  0  0  0  0  0  0
  -33.5709   19.8381   35.0125 C   0  0  0  0  0  0  0  0  0  0  0  0
  -34.3133   20.2621   36.1516 O   0  0  0  0  0  0  0  0  0  0  0  0
  -29.9696   19.2992   37.4323 N   0  0  0  0  0  0  0  0  0  0  0  0
  -30.7178   18.3035   37.9122 C   0  0  0  0  0  0  0  0  0  0  0  0
  -31.6650   17.8024   37.3067 O   0  0  0  0  0  0  0  0  0  0  0  0
  -30.2743   17.8350   39.2816 C   0  0  0  0  0  0  0  0  0  0  0  0
  -31.1987   16.8795   39.8569 N   0  0  0  0  0  0  0  0  0  0  0  0
  -35.8470   19.8183   36.2748 P   0  0  1  0  0  0  0  0  0  0  0  0
  -36.6216   21.1154   36.0638 O   0  0  0  0  0  0  0  0  0  0  0  0
  -36.0861   18.8202   35.1613 O   0  0  0  0  0  0  0  0  0  0  0  0
  -35.9313   19.2375   37.6693 O   0  0  0  0  0  0  0  0  0  0  0  0
  -31.7392   19.2333   33.3108 H   0  0  0  0  0  0  0  0  0  0  0  0
  -30.0019   21.4226   34.0216 H   0  0  0  0  0  0  0  0  0  0  0  0
  -30.5912   18.0513   35.1966 H   0  0  0  0  0  0  0  0  0  0  0  0
  -28.3469   18.7838   35.1650 H   0  0  0  0  0  0  0  0  0  0  0  0
  -29.5705   20.7971   36.1347 H   0  0  0  0  0  0  0  0  0  0  0  0
  -32.4075   21.5712   34.6547 H   0  0  0  0  0  0  0  0  0  0  0  0
  -34.1273   20.0888   34.0973 H   0  0  0  0  0  0  0  0  0  0  0  0
  -33.4153   18.7501   35.0586 H   0  0  0  0  0  0  0  0  0  0  0  0
  -29.1178   19.5748   37.9416 H   0  0  0  0  0  0  0  0  0  0  0  0
  -29.2855   17.3616   39.1914 H   0  0  0  0  0  0  0  0  0  0  0  0
  -30.2381   18.7122   39.9442 H   0  0  0  0  0  0  0  0  0  0  0  0
  -31.1496   16.9303   40.8844 H   0  0  0  0  0  0  0  0  0  0  0  0
  -32.1563   17.0993   39.5476 H   0  0  0  0  0  0  0  0  0  0  0  0
  -30.9475   15.9297   39.5476 H   0  0  0  0  0  0  0  0  0  0  0  0
  1  2  1  0
  1  3  1  0
  1  7  1  0
  3  4  1  0
  3  5  1  0
  5  6  1  0
  5 10  1  0
  6  7  1  0
  7  8  1  0
  8  9  1  0
  9 15  1  0
 10 11  1  0
 11 12  2  0
 11 13  1  0
 13 14  1  0
 15 16  2  0
 15 17  1  6
 15 18  1  0
  1 19  1  6
  2 20  1  0
  3 21  1  1
  4 22  1  0
  5 23  1  6
  7 24  1  6
  8 25  1  0
  8 26  1  0
 10 27  1  0
 13 28  1  0
 13 29  1  0
 14 30  1  0
 14 31  1  0
 14 32  1  0
M  CHG  3  14   1  17  -1  18  -1
M  END
>  <filename_input>  (2) 
7JG0_GAR_docked.sdf

>  <pdb_id>  (2) 
7JG0_GAR

>  <pose_rank>  (2) 
1

>  <num_atoms_heavy>  (2) 
18

>  <num_torsions>  (2) 
5

>  <pose>  (2) 
[-31.23143932938983, 19.863747343312, 34.055640467093646, 4.4913774450346375, 1.0417060239478348, 0.3376738603156247, -3.4596008499138002, -6.06281670974114, -2.1189840921837693, -6.203184319917736, 5.507794749849984]

>  <energy>  (2) 
-449.2196944919699

>  <inter_energy>  (2) 
-469.6938539638087

>  <intra_energy>  (2) 
19.76482762336444

>  <rmsd>  (2) 
3.22246

>  <sdf_rank>  (2) 
0

$$$$

     RDKit          3D

 32 32  0  0  0  0  0  0  0  0999 V2000
  -31.6934   18.6953   38.9564 C   0  0  1  0  0  0  0  0  0  0  0  0
  -31.2718   17.6383   39.8103 O   0  0  0  0  0  0  0  0  0  0  0  0
  -30.4668   19.1933   38.1769 C   0  0  1  0  0  0  0  0  0  0  0  0
  -29.2830   19.1736   38.9402 O   0  0  0  0  0  0  0  0  0  0  0  0
  -30.4776   18.2203   36.9840 C   0  0  1  0  0  0  0  0  0  0  0  0
  -31.8699   17.9975   36.6816 O   0  0  0  0  0  0  0  0  0  0  0  0
  -32.6428   18.1637   37.8785 C   0  0  2  0  0  0  0  0  0  0  0  0
  -33.7827   19.1184   37.5981 C   0  0  0  0  0  0  0  0  0  0  0  0
  -33.9034   19.3085   36.1917 O   0  0  0  0  0  0  0  0  0  0  0  0
  -29.7982   18.7392   35.8389 N   0  0  0  0  0  0  0  0  0  0  0  0
  -30.3808   19.6018   35.0034 C   0  0  0  0  0  0  0  0  0  0  0  0
  -31.4704   20.1339   35.2148 O   0  0  0  0  0  0  0  0  0  0  0  0
  -29.5559   19.8768   33.7643 C   0  0  0  0  0  0  0  0  0  0  0  0
  -29.4461   21.2941   33.4858 N   0  0  0  0  0  0  0  0  0  0  0  0
  -35.0802   20.2461   35.6438 P   0  0  1  0  0  0  0  0  0  0  0  0
  -35.5287   19.5574   34.3586 O   0  0  0  0  0  0  0  0  0  0  0  0
  -36.1578   20.2325   36.7076 O   0  0  0  0  0  0  0  0  0  0  0  0
  -34.4003   21.5843   35.4537 O   0  0  0  0  0  0  0  0  0  0  0  0
  -32.1731   19.4691   39.5737 H   0  0  0  0  0  0  0  0  0  0  0  0
  -31.3816   17.9135   40.7550 H   0  0  0  0  0  0  0  0  0  0  0  0
  -30.5049   20.2511   37.8777 H   0  0  0  0  0  0  0  0  0  0  0  0
  -29.5113   19.1774   39.9035 H   0  0  0  0  0  0  0  0  0  0  0  0
  -29.9451   17.2936   37.2443 H   0  0  0  0  0  0  0  0  0  0  0  0
  -33.0870   17.2188   38.2248 H   0  0  0  0  0  0  0  0  0  0  0  0
  -34.7193   18.6985   37.9937 H   0  0  0  0  0  0  0  0  0  0  0  0
  -33.5818   20.0845   38.0842 H   0  0  0  0  0  0  0  0  0  0  0  0
  -28.8307   18.4388   35.6528 H   0  0  0  0  0  0  0  0  0  0  0  0
  -28.5465   19.4652   33.9117 H   0  0  0  0  0  0  0  0  0  0  0  0
  -30.0600   19.4019   32.9097 H   0  0  0  0  0  0  0  0  0  0  0  0
  -29.4057   21.8162   34.3728 H   0  0  0  0  0  0  0  0  0  0  0  0
  -28.5888   21.4720   32.9433 H   0  0  0  0  0  0  0  0  0  0  0  0
  -30.2658   21.6019   32.9433 H   0  0  0  0  0  0  0  0  0  0  0  0
  1  2  1  0
  1  3  1  0
  1  7  1  0
  3  4  1  0
  3  5  1  0
  5  6  1  0
  5 10  1  0
  6  7  1  0
  7  8  1  0
  8  9  1  0
  9 15  1  0
 10 11  1  0
 11 12  2  0
 11 13  1  0
 13 14  1  0
 15 16  2  0
 15 17  1  1
 15 18  1  0
  1 19  1  1
  2 20  1  0
  3 21  1  6
  4 22  1  0
  5 23  1  1
  7 24  1  1
  8 25  1  0
  8 26  1  0
 10 27  1  0
 13 28  1  0
 13 29  1  0
 14 30  1  0
 14 31  1  0
 14 32  1  0
M  CHG  3  14   1  17  -1  18  -1
M  END
>  <filename_input>  (3) 
7JG0_GAR_docked.sdf

>  <pdb_id>  (3) 
7JG0_GAR

>  <pose_rank>  (3) 
2

>  <num_atoms_heavy>  (3) 
18

>  <num_torsions>  (3) 
5

>  <pose>  (3) 
[-31.6933843679064, 18.695293044554386, 38.95641221213428, -4.540043271904457, 0.570096439425142, 1.238910305888876, -3.753324602911806, 1.1865221250378362, -2.686527091595412, 0.1957407616357579, -1.3520424692391944]

>  <energy>  (3) 
-369.51275817042944

>  <inter_energy>  (3) 
-405.44909864575175

>  <intra_energy>  (3) 
36.18544633267368

>  <rmsd>  (3) 
3.29866

>  <sdf_rank>  (3) 
0

$$$$

     RDKit          3D

 32 32  0  0  0  0  0  0  0  0999 V2000
  -30.4383   19.3971   37.8765 C   0  0  1  0  0  0  0  0  0  0  0  0
  -30.0855   19.2124   39.2423 O   0  0  0  0  0  0  0  0  0  0  0  0
  -29.1566   19.2882   37.0365 C   0  0  1  0  0  0  0  0  0  0  0  0
  -28.0289   19.8378   37.6774 O   0  0  0  0  0  0  0  0  0  0  0  0
  -29.0921   17.7658   36.8178 C   0  0  1  0  0  0  0  0  0  0  0  0
  -30.4618   17.3402   36.6676 O   0  0  0  0  0  0  0  0  0  0  0  0
  -31.3147   18.2387   37.3906 C   0  0  2  0  0  0  0  0  0  0  0  0
  -32.4247   18.7057   36.4745 C   0  0  0  0  0  0  0  0  0  0  0  0
  -32.2954   20.1067   36.2533 O   0  0  0  0  0  0  0  0  0  0  0  0
  -28.3307   17.4029   35.6643 N   0  0  0  0  0  0  0  0  0  0  0  0
  -28.6900   17.7782   34.4348 C   0  0  0  0  0  0  0  0  0  0  0  0
  -29.5977   18.5748   34.1973 O   0  0  0  0  0  0  0  0  0  0  0  0
  -27.8539   17.1339   33.3497 C   0  0  0  0  0  0  0  0  0  0  0  0
  -26.4370   17.1952   33.6444 N   0  0  0  0  0  0  0  0  0  0  0  0
  -33.0777   20.7627   35.0196 P   0  0  1  0  0  0  0  0  0  0  0  0
  -34.2332   19.7998   34.7651 O   0  0  0  0  0  0  0  0  0  0  0  0
  -33.5554   22.1178   35.4980 O   0  0  0  0  0  0  0  0  0  0  0  0
  -32.0299   20.8138   33.9294 O   0  0  0  0  0  0  0  0  0  0  0  0
  -30.9537   20.3640   37.7794 H   0  0  0  0  0  0  0  0  0  0  0  0
  -30.7975   19.5852   39.8204 H   0  0  0  0  0  0  0  0  0  0  0  0
  -29.1655   19.8639   36.0992 H   0  0  0  0  0  0  0  0  0  0  0  0
  -28.1464   19.7805   38.6587 H   0  0  0  0  0  0  0  0  0  0  0  0
  -28.5864   17.2809   37.6658 H   0  0  0  0  0  0  0  0  0  0  0  0
  -31.7894   17.7582   38.2588 H   0  0  0  0  0  0  0  0  0  0  0  0
  -32.3562   18.1743   35.5138 H   0  0  0  0  0  0  0  0  0  0  0  0
  -33.3991   18.4949   36.9395 H   0  0  0  0  0  0  0  0  0  0  0  0
  -27.4798   16.8352   35.7851 H   0  0  0  0  0  0  0  0  0  0  0  0
  -28.1507   16.0792   33.2527 H   0  0  0  0  0  0  0  0  0  0  0  0
  -28.0294   17.6858   32.4145 H   0  0  0  0  0  0  0  0  0  0  0  0
  -26.2985   17.2012   34.6651 H   0  0  0  0  0  0  0  0  0  0  0  0
  -25.9661   16.3737   33.2389 H   0  0  0  0  0  0  0  0  0  0  0  0
  -26.0387   18.0542   33.2389 H   0  0  0  0  0  0  0  0  0  0  0  0
  1  2  1  0
  1  3  1  0
  1  7  1  0
  3  4  1  0
  3  5  1  0
  5  6  1  0
  5 10  1  0
  6  7  1  0
  7  8  1  0
  8  9  1  0
  9 15  1  0
 10 11  1  0
 11 12  2  0
 11 13  1  0
 13 14  1  0
 15 16  2  0
 15 17  1  1
 15 18  1  0
  1 19  1  1
  2 20  1  0
  3 21  1  6
  4 22  1  0
  5 23  1  1
  7 24  1  1
  8 25  1  0
  8 26  1  0
 10 27  1  0
 13 28  1  0
 13 29  1  0
 14 30  1  0
 14 31  1  0
 14 32  1  0
M  CHG  3  14   1  17  -1  18  -1
M  END
>  <filename_input>  (4) 
7JG0_GAR_docked.sdf

>  <pdb_id>  (4) 
7JG0_GAR

>  <pose_rank>  (4) 
3

>  <num_atoms_heavy>  (4) 
18

>  <num_torsions>  (4) 
5

>  <pose>  (4) 
[-30.438322516449514, 19.397093173006333, 37.876481832618765, -4.784934895391745, 2.1095330034112925, 1.4313353060073688, 2.8521678665163996, 2.68093192746125, -4.91733726440563, -12.629901483112839, 1.5650904726146198]

>  <energy>  (4) 
-450.24663192986543

>  <inter_energy>  (4) 
-473.5483513266008

>  <intra_energy>  (4) 
22.240061798630673

>  <rmsd>  (4) 
2.76642

>  <sdf_rank>  (4) 
0

$$$$

     RDKit          3D

 32 32  0  0  0  0  0  0  0  0999 V2000
  -31.3890   21.2538   36.5099 C   0  0  1  0  0  0  0  0  0  0  0  0
  -30.9187   22.5964   36.5231 O   0  0  0  0  0  0  0  0  0  0  0  0
  -31.1512   20.6816   35.1041 C   0  0  1  0  0  0  0  0  0  0  0  0
  -31.3438   21.6317   34.0821 O   0  0  0  0  0  0  0  0  0  0  0  0
  -29.7038   20.1771   35.2470 C   0  0  1  0  0  0  0  0  0  0  0  0
  -29.6028   19.6743   36.5948 O   0  0  0  0  0  0  0  0  0  0  0  0
  -30.5318   20.3793   37.4299 C   0  0  2  0  0  0  0  0  0  0  0  0
  -31.3604   19.3741   38.1997 C   0  0  0  0  0  0  0  0  0  0  0  0
  -32.5649   19.9940   38.6393 O   0  0  0  0  0  0  0  0  0  0  0  0
  -29.3796   19.1492   34.3086 N   0  0  0  0  0  0  0  0  0  0  0  0
  -28.2183   18.4928   34.3541 C   0  0  0  0  0  0  0  0  0  0  0  0
  -27.4039   18.6000   35.2708 O   0  0  0  0  0  0  0  0  0  0  0  0
  -28.0043   17.5825   33.1638 C   0  0  0  0  0  0  0  0  0  0  0  0
  -27.4467   18.2900   32.0294 N   0  0  0  0  0  0  0  0  0  0  0  0
  -33.0620   19.7254   40.1376 P   0  0  1  0  0  0  0  0  0  0  0  0
  -34.5818   19.8137   40.0406 O   0  0  0  0  0  0  0  0  0  0  0  0
  -32.5903   18.3309   40.4929 O   0  0  0  0  0  0  0  0  0  0  0  0
  -32.4017   20.8335   40.9283 O   0  0  0  0  0  0  0  0  0  0  0  0
  -32.4450   21.2534   36.8182 H   0  0  0  0  0  0  0  0  0  0  0  0
  -30.8125   22.8996   37.4595 H   0  0  0  0  0  0  0  0  0  0  0  0
  -31.8584   19.8973   34.7963 H   0  0  0  0  0  0  0  0  0  0  0  0
  -31.5235   22.5180   34.4851 H   0  0  0  0  0  0  0  0  0  0  0  0
  -28.9948   20.9929   35.0428 H   0  0  0  0  0  0  0  0  0  0  0  0
  -30.0282   21.0202   38.1685 H   0  0  0  0  0  0  0  0  0  0  0  0
  -31.6026   18.5217   37.5480 H   0  0  0  0  0  0  0  0  0  0  0  0
  -30.7909   19.0174   39.0706 H   0  0  0  0  0  0  0  0  0  0  0  0
  -30.0619   18.9079   33.5758 H   0  0  0  0  0  0  0  0  0  0  0  0
  -27.3139   16.7765   33.4533 H   0  0  0  0  0  0  0  0  0  0  0  0
  -28.9836   17.1810   32.8643 H   0  0  0  0  0  0  0  0  0  0  0  0
  -26.8438   19.0550   32.3645 H   0  0  0  0  0  0  0  0  0  0  0  0
  -26.8894   17.6386   31.4586 H   0  0  0  0  0  0  0  0  0  0  0  0
  -28.2104   18.6797   31.4586 H   0  0  0  0  0  0  0  0  0  0  0  0
  1  2  1  0
  1  3  1  0
  1  7  1  0
  3  4  1  0
  3  5  1  0
  5  6  1  0
  5 10  1  0
  6  7  1  0
  7  8  1  0
  8  9  1  0
  9 15  1  0
 10 11  1  0
 11 12  2  0
 11 13  1  0
 13 14  1  0
 15 16  2  0
 15 17  1  1
 15 18  1  0
  1 19  1  1
  2 20  1  0
  3 21  1  6
  4 22  1  0
  5 23  1  1
  7 24  1  1
  8 25  1  0
  8 26  1  0
 10 27  1  0
 13 28  1  0
 13 29  1  0
 14 30  1  0
 14 31  1  0
 14 32  1  0
M  CHG  3  14   1  17  -1  18  -1
M  END
>  <filename_input>  (5) 
7JG0_GAR_docked.sdf

>  <pdb_id>  (5) 
7JG0_GAR

>  <pose_rank>  (5) 
4

>  <num_atoms_heavy>  (5) 
18

>  <num_torsions>  (5) 
5

>  <pose>  (5) 
[-31.389034627166545, 21.25375816116446, 36.50990378747111, -0.28744051448571545, 0.8599725693842921, 0.5289066648153413, -11.654300864690638, -1.3127537202592516, -24.537951425713185, 0.993926436425436, 4.822133206494678]

>  <energy>  (5) 
-479.84377721039493

>  <inter_energy>  (5) 
-497.460546447388

>  <intra_energy>  (5) 
11.439217162673584

>  <rmsd>  (5) 
3.27082

>  <sdf_rank>  (5) 
0

$$$$

     RDKit          3D

 32 32  0  0  0  0  0  0  0  0999 V2000
  -29.1678   18.9533   36.0782 C   0  0  1  0  0  0  0  0  0  0  0  0
  -28.4524   18.4164   34.9719 O   0  0  0  0  0  0  0  0  0  0  0  0
  -30.0833   20.0701   35.5542 C   0  0  1  0  0  0  0  0  0  0  0  0
  -29.5019   20.8152   34.5096 O   0  0  0  0  0  0  0  0  0  0  0  0
  -31.3212   19.2510   35.1465 C   0  0  1  0  0  0  0  0  0  0  0  0
  -31.4327   18.2051   36.1331 O   0  0  0  0  0  0  0  0  0  0  0  0
  -30.1286   17.9068   36.6506 C   0  0  2  0  0  0  0  0  0  0  0  0
  -30.1804   17.9432   38.1624 C   0  0  0  0  0  0  0  0  0  0  0  0
  -28.8604   18.0939   38.6758 O   0  0  0  0  0  0  0  0  0  0  0  0
  -32.5174   20.0322   35.1146 N   0  0  0  0  0  0  0  0  0  0  0  0
  -33.5420   19.7878   35.9343 C   0  0  0  0  0  0  0  0  0  0  0  0
  -33.4982   18.9891   36.8698 O   0  0  0  0  0  0  0  0  0  0  0  0
  -34.7718   20.6079   35.6077 C   0  0  0  0  0  0  0  0  0  0  0  0
  -35.9282   19.7759   35.3453 N   0  0  0  0  0  0  0  0  0  0  0  0
  -28.6767   18.4142   40.2339 P   0  0  1  0  0  0  0  0  0  0  0  0
  -28.8190   17.0525   40.9069 O   0  0  0  0  0  0  0  0  0  0  0  0
  -27.2820   18.9847   40.3838 O   0  0  0  0  0  0  0  0  0  0  0  0
  -29.7921   19.3948   40.5226 O   0  0  0  0  0  0  0  0  0  0  0  0
  -28.4399   19.2904   36.8309 H   0  0  0  0  0  0  0  0  0  0  0  0
  -27.7059   17.8562   35.3021 H   0  0  0  0  0  0  0  0  0  0  0  0
  -30.3063   20.8663   36.2797 H   0  0  0  0  0  0  0  0  0  0  0  0
  -28.9399   21.5355   34.8911 H   0  0  0  0  0  0  0  0  0  0  0  0
  -31.1998   18.8613   34.1250 H   0  0  0  0  0  0  0  0  0  0  0  0
  -29.7823   16.9038   36.3606 H   0  0  0  0  0  0  0  0  0  0  0  0
  -30.8003   18.7913   38.4884 H   0  0  0  0  0  0  0  0  0  0  0  0
  -30.6169   17.0062   38.5385 H   0  0  0  0  0  0  0  0  0  0  0  0
  -32.5910   20.8065   34.4393 H   0  0  0  0  0  0  0  0  0  0  0  0
  -34.9950   21.2669   36.4596 H   0  0  0  0  0  0  0  0  0  0  0  0
  -34.5594   21.1890   34.6982 H   0  0  0  0  0  0  0  0  0  0  0  0
  -36.3451   19.4760   36.2382 H   0  0  0  0  0  0  0  0  0  0  0  0
  -36.6220   20.3128   34.8056 H   0  0  0  0  0  0  0  0  0  0  0  0
  -35.6398   18.9474   34.8056 H   0  0  0  0  0  0  0  0  0  0  0  0
  1  2  1  0
  1  3  1  0
  1  7  1  0
  3  4  1  0
  3  5  1  0
  5  6  1  0
  5 10  1  0
  6  7  1  0
  7  8  1  0
  8  9  1  0
  9 15  1  0
 10 11  1  0
 11 12  2  0
 11 13  1  0
 13 14  1  0
 15 16  2  0
 15 17  1  6
 15 18  1  0
  1 19  1  1
  2 20  1  0
  3 21  1  1
  4 22  1  0
  5 23  1  6
  7 24  1  1
  8 25  1  0
  8 26  1  0
 10 27  1  0
 13 28  1  0
 13 29  1  0
 14 30  1  0
 14 31  1  0
 14 32  1  0
M  CHG  3  14   1  17  -1  18  -1
M  END
>  <filename_input>  (6) 
7JG0_GAR_docked.sdf

>  <pdb_id>  (6) 
7JG0_GAR

>  <pose_rank>  (6) 
5

>  <num_atoms_heavy>  (6) 
18

>  <num_torsions>  (6) 
5

>  <pose>  (6) 
[-29.16777829311111, 18.953281615347592, 36.078198669982285, -1.9698446494434814, -2.8059418910564653, 1.9120162405590908, -4.374042106625142, -0.650254320657768, -5.718581158778791, -6.2354942672150555, 2.555224211514903]

>  <energy>  (6) 
-347.26810140755157

>  <inter_energy>  (6) 
-386.5020508135427

>  <intra_energy>  (6) 
34.50751897997277

>  <rmsd>  (6) 
6.31597

>  <sdf_rank>  (6) 
0

$$$$

     RDKit          3D

 32 32  0  0  0  0  0  0  0  0999 V2000
  -31.9235   19.5221   37.4161 C   0  0  1  0  0  0  0  0  0  0  0  0
  -32.8797   20.2011   36.6108 O   0  0  0  0  0  0  0  0  0  0  0  0
  -31.3441   18.3638   36.5896 C   0  0  1  0  0  0  0  0  0  0  0  0
  -32.2980   17.7529   35.7521 O   0  0  0  0  0  0  0  0  0  0  0  0
  -30.2082   19.0895   35.8461 C   0  0  1  0  0  0  0  0  0  0  0  0
  -29.6827   20.0476   36.7872 O   0  0  0  0  0  0  0  0  0  0  0  0
  -30.7227   20.4300   37.6981 C   0  0  2  0  0  0  0  0  0  0  0  0
  -30.2131   20.2818   39.1151 C   0  0  0  0  0  0  0  0  0  0  0  0
  -31.1457   19.5184   39.8740 O   0  0  0  0  0  0  0  0  0  0  0  0
  -29.1749   18.2032   35.4115 N   0  0  0  0  0  0  0  0  0  0  0  0
  -28.7141   18.2168   34.1588 C   0  0  0  0  0  0  0  0  0  0  0  0
  -29.0178   19.0689   33.3242 O   0  0  0  0  0  0  0  0  0  0  0  0
  -27.7599   17.0789   33.8654 C   0  0  0  0  0  0  0  0  0  0  0  0
  -26.4323   17.5529   33.5318 N   0  0  0  0  0  0  0  0  0  0  0  0
  -30.6097   18.6861   41.1327 P   0  0  1  0  0  0  0  0  0  0  0  0
  -30.3604   19.7508   42.1964 O   0  0  0  0  0  0  0  0  0  0  0  0
  -31.7284   17.7412   41.5186 O   0  0  0  0  0  0  0  0  0  0  0  0
  -29.3680   18.0064   40.5985 O   0  0  0  0  0  0  0  0  0  0  0  0
  -32.4176   19.2025   38.3455 H   0  0  0  0  0  0  0  0  0  0  0  0
  -33.5323   20.6645   37.1934 H   0  0  0  0  0  0  0  0  0  0  0  0
  -30.9993   17.5007   37.1779 H   0  0  0  0  0  0  0  0  0  0  0  0
  -32.9887   17.3104   36.3064 H   0  0  0  0  0  0  0  0  0  0  0  0
  -30.5935   19.5604   34.9297 H   0  0  0  0  0  0  0  0  0  0  0  0
  -31.0272   21.4792   37.5695 H   0  0  0  0  0  0  0  0  0  0  0  0
  -29.2406   19.7678   39.1038 H   0  0  0  0  0  0  0  0  0  0  0  0
  -30.0950   21.2764   39.5698 H   0  0  0  0  0  0  0  0  0  0  0  0
  -28.7740   17.5344   36.0845 H   0  0  0  0  0  0  0  0  0  0  0  0
  -27.6932   16.4339   34.7539 H   0  0  0  0  0  0  0  0  0  0  0  0
  -28.1495   16.5254   32.9983 H   0  0  0  0  0  0  0  0  0  0  0  0
  -25.9070   17.7404   34.3977 H   0  0  0  0  0  0  0  0  0  0  0  0
  -25.9402   16.8356   32.9802 H   0  0  0  0  0  0  0  0  0  0  0  0
  -26.5057   18.4197   32.9802 H   0  0  0  0  0  0  0  0  0  0  0  0
  1  2  1  0
  1  3  1  0
  1  7  1  0
  3  4  1  0
  3  5  1  0
  5  6  1  0
  5 10  1  0
  6  7  1  0
  7  8  1  0
  8  9  1  0
  9 15  1  0
 10 11  1  0
 11 12  2  0
 11 13  1  0
 13 14  1  0
 15 16  2  0
 15 17  1  1
 15 18  1  0
  1 19  1  1
  2 20  1  0
  3 21  1  1
  4 22  1  0
  5 23  1  6
  7 24  1  6
  8 25  1  0
  8 26  1  0
 10 27  1  0
 13 28  1  0
 13 29  1  0
 14 30  1  0
 14 31  1  0
 14 32  1  0
M  CHG  3  14   1  17  -1  18  -1
M  END
>  <filename_input>  (7) 
7JG0_GAR_docked.sdf

>  <pdb_id>  (7) 
7JG0_GAR

>  <pose_rank>  (7) 
6

>  <num_atoms_heavy>  (7) 
18

>  <num_torsions>  (7) 
5

>  <pose>  (7) 
[-31.923514632870653, 19.5220521527395, 37.41606176282283, -1.3967006778849194, 1.3905279173009917, 1.1836381616786698, -0.06692022968162521, -4.833888255078403, -11.447355270075164, 6.051407902156932, -3.833193177256294]

>  <energy>  (7) 
-487.0874484365675

>  <inter_energy>  (7) 
-472.2889055269997

>  <intra_energy>  (7) 
0.38252405689760927

>  <rmsd>  (7) 
4.82058

>  <sdf_rank>  (7) 
0

$$$$

     RDKit          3D

 32 32  0  0  0  0  0  0  0  0999 V2000
  -32.4635   17.7479   37.1399 C   0  0  1  0  0  0  0  0  0  0  0  0
  -32.6645   18.1967   38.4749 O   0  0  0  0  0  0  0  0  0  0  0  0
  -33.7780   17.9460   36.3698 C   0  0  1  0  0  0  0  0  0  0  0  0
  -34.9205   17.7026   37.1572 O   0  0  0  0  0  0  0  0  0  0  0  0
  -33.6161   19.4054   35.9075 C   0  0  1  0  0  0  0  0  0  0  0  0
  -32.2138   19.5614   35.6095 O   0  0  0  0  0  0  0  0  0  0  0  0
  -31.4575   18.6506   36.4195 C   0  0  2  0  0  0  0  0  0  0  0  0
  -30.5187   17.8657   35.5295 C   0  0  0  0  0  0  0  0  0  0  0  0
  -29.3425   18.6329   35.2920 O   0  0  0  0  0  0  0  0  0  0  0  0
  -34.4050   19.7134   34.7565 N   0  0  0  0  0  0  0  0  0  0  0  0
  -35.4623   20.5253   34.8222 C   0  0  0  0  0  0  0  0  0  0  0  0
  -35.7604   21.1862   35.8168 O   0  0  0  0  0  0  0  0  0  0  0  0
  -36.2595   20.5666   33.5360 C   0  0  0  0  0  0  0  0  0  0  0  0
  -36.9694   19.3272   33.2944 N   0  0  0  0  0  0  0  0  0  0  0  0
  -28.9165   18.9327   33.7778 P   0  0  1  0  0  0  0  0  0  0  0  0
  -29.7842   17.9826   32.9583 O   0  0  0  0  0  0  0  0  0  0  0  0
  -29.2603   20.3855   33.5245 O   0  0  0  0  0  0  0  0  0  0  0  0
  -27.4351   18.6251   33.7646 O   0  0  0  0  0  0  0  0  0  0  0  0
  -32.1199   16.7035   37.1734 H   0  0  0  0  0  0  0  0  0  0  0  0
  -32.3531   17.5014   39.1071 H   0  0  0  0  0  0  0  0  0  0  0  0
  -33.9414   17.2412   35.5412 H   0  0  0  0  0  0  0  0  0  0  0  0
  -34.6779   17.7543   38.1156 H   0  0  0  0  0  0  0  0  0  0  0  0
  -33.9636   20.0936   36.6922 H   0  0  0  0  0  0  0  0  0  0  0  0
  -30.8397   19.1692   37.1675 H   0  0  0  0  0  0  0  0  0  0  0  0
  -30.2475   16.9212   36.0241 H   0  0  0  0  0  0  0  0  0  0  0  0
  -31.0152   17.6471   34.5726 H   0  0  0  0  0  0  0  0  0  0  0  0
  -34.1502   19.2967   33.8496 H   0  0  0  0  0  0  0  0  0  0  0  0
  -36.9895   21.3872   33.5974 H   0  0  0  0  0  0  0  0  0  0  0  0
  -35.5546   20.7204   32.7057 H   0  0  0  0  0  0  0  0  0  0  0  0
  -37.2181   18.8929   34.1947 H   0  0  0  0  0  0  0  0  0  0  0  0
  -37.8272   19.5217   32.7584 H   0  0  0  0  0  0  0  0  0  0  0  0
  -36.3676   18.6857   32.7584 H   0  0  0  0  0  0  0  0  0  0  0  0
  1  2  1  0
  1  3  1  0
  1  7  1  0
  3  4  1  0
  3  5  1  0
  5  6  1  0
  5 10  1  0
  6  7  1  0
  7  8  1  0
  8  9  1  0
  9 15  1  0
 10 11  1  0
 11 12  2  0
 11 13  1  0
 13 14  1  0
 15 16  2  0
 15 17  1  6
 15 18  1  0
  1 19  1  1
  2 20  1  0
  3 21  1  6
  4 22  1  0
  5 23  1  1
  7 24  1  1
  8 25  1  0
  8 26  1  0
 10 27  1  0
 13 28  1  0
 13 29  1  0
 14 30  1  0
 14 31  1  0
 14 32  1  0
M  CHG  3  14   1  17  -1  18  -1
M  END
>  <filename_input>  (8) 
7JG0_GAR_docked.sdf

>  <pdb_id>  (8) 
7JG0_GAR

>  <pose_rank>  (8) 
7

>  <num_atoms_heavy>  (8) 
18

>  <num_torsions>  (8) 
5

>  <pose>  (8) 
[-32.4635304680414, 17.747939612805826, 37.1398567214719, 0.6090940114648643, 1.2083476344205428, 2.4161933770830375, 5.867182668320617, -1.5639816977500176, 48.8037298792713, 45.18743100181119, 19.766928641797296]

>  <energy>  (8) 
-418.2269806531228

>  <inter_energy>  (8) 
-395.3768697363596

>  <intra_energy>  (8) 
0.0

>  <rmsd>  (8) 
6.59595

>  <sdf_rank>  (8) 
0

$$$$

     RDKit          3D

 32 32  0  0  0  0  0  0  0  0999 V2000
  -30.5516   18.1252   39.6725 C   0  0  1  0  0  0  0  0  0  0  0  0
  -31.8913   17.6736   39.5135 O   0  0  0  0  0  0  0  0  0  0  0  0
  -29.6500   17.2600   38.7787 C   0  0  1  0  0  0  0  0  0  0  0  0
  -30.0636   15.9149   38.7158 O   0  0  0  0  0  0  0  0  0  0  0  0
  -29.7545   18.0265   37.4478 C   0  0  1  0  0  0  0  0  0  0  0  0
  -29.8126   19.4211   37.8104 O   0  0  0  0  0  0  0  0  0  0  0  0
  -30.3971   19.5433   39.1146 C   0  0  2  0  0  0  0  0  0  0  0  0
  -29.4985   20.4030   39.9766 C   0  0  0  0  0  0  0  0  0  0  0  0
  -28.9911   19.6219   41.0541 O   0  0  0  0  0  0  0  0  0  0  0  0
  -28.6448   17.7854   36.5803 N   0  0  0  0  0  0  0  0  0  0  0  0
  -28.7498   17.8913   35.2539 C   0  0  0  0  0  0  0  0  0  0  0  0
  -29.7399   18.3403   34.6768 O   0  0  0  0  0  0  0  0  0  0  0  0
  -27.5140   17.4147   34.5210 C   0  0  0  0  0  0  0  0  0  0  0  0
  -27.4629   17.9081   33.1601 N   0  0  0  0  0  0  0  0  0  0  0  0
  -29.6664   19.7781   42.4976 P   0  0  1  0  0  0  0  0  0  0  0  0
  -28.8717   20.9029   43.1538 O   0  0  0  0  0  0  0  0  0  0  0  0
  -31.1086   20.1658   42.2469 O   0  0  0  0  0  0  0  0  0  0  0  0
  -29.4811   18.4113   43.1193 O   0  0  0  0  0  0  0  0  0  0  0  0
  -30.2950   18.0796   40.7412 H   0  0  0  0  0  0  0  0  0  0  0  0
  -32.3008   17.5355   40.4042 H   0  0  0  0  0  0  0  0  0  0  0  0
  -28.6161   17.1442   39.1358 H   0  0  0  0  0  0  0  0  0  0  0  0
  -30.1727   15.5599   39.6336 H   0  0  0  0  0  0  0  0  0  0  0  0
  -30.6408   17.6954   36.8868 H   0  0  0  0  0  0  0  0  0  0  0  0
  -31.3839   20.0285   39.0875 H   0  0  0  0  0  0  0  0  0  0  0  0
  -28.6617   20.7816   39.3714 H   0  0  0  0  0  0  0  0  0  0  0  0
  -30.0734   21.2516   40.3758 H   0  0  0  0  0  0  0  0  0  0  0  0
  -27.7374   17.5223   36.9906 H   0  0  0  0  0  0  0  0  0  0  0  0
  -26.6232   17.7690   35.0604 H   0  0  0  0  0  0  0  0  0  0  0  0
  -27.5464   16.3159   34.4818 H   0  0  0  0  0  0  0  0  0  0  0  0
  -27.3568   18.9326   33.1700 H   0  0  0  0  0  0  0  0  0  0  0  0
  -26.6613   17.4847   32.6712 H   0  0  0  0  0  0  0  0  0  0  0  0
  -28.3343   17.6579   32.6712 H   0  0  0  0  0  0  0  0  0  0  0  0
  1  2  1  0
  1  3  1  0
  1  7  1  0
  3  4  1  0
  3  5  1  0
  5  6  1  0
  5 10  1  0
  6  7  1  0
  7  8  1  0
  8  9  1  0
  9 15  1  0
 10 11  1  0
 11 12  2  0
 11 13  1  0
 13 14  1  0
 15 16  2  0
 15 17  1  6
 15 18  1  0
  1 19  1  1
  2 20  1  0
  3 21  1  1
  4 22  1  0
  5 23  1  6
  7 24  1  6
  8 25  1  0
  8 26  1  0
 10 27  1  0
 13 28  1  0
 13 29  1  0
 14 30  1  0
 14 31  1  0
 14 32  1  0
M  CHG  3  14   1  17  -1  18  -1
M  END
>  <filename_input>  (9) 
7JG0_GAR_docked.sdf

>  <pdb_id>  (9) 
7JG0_GAR

>  <pose_rank>  (9) 
8

>  <num_atoms_heavy>  (9) 
18

>  <num_torsions>  (9) 
5

>  <pose>  (9) 
[-30.55157445899336, 18.125247856053832, 39.672473415191654, -2.0448313877731055, 1.5158834972088426, 2.0004703504958696, 0.33164048815297786, 0.6665589599718416, -4.9323250849452105, 1.6074647291731616, -0.41578317371710416]

>  <energy>  (9) 
-352.223977314021

>  <inter_energy>  (9) 
-369.7470504108385

>  <intra_energy>  (9) 
18.682188858219043

>  <rmsd>  (9) 
6.12543

>  <sdf_rank>  (9) 
0

$$$$

     RDKit          3D

 32 32  0  0  0  0  0  0  0  0999 V2000
  -28.6124   18.5632   35.3450 C   0  0  1  0  0  0  0  0  0  0  0  0
  -28.3779   17.2250   34.9230 O   0  0  0  0  0  0  0  0  0  0  0  0
  -29.6902   19.1667   34.4316 C   0  0  1  0  0  0  0  0  0  0  0  0
  -29.5889   18.7301   33.0961 O   0  0  0  0  0  0  0  0  0  0  0  0
  -30.9660   18.7090   35.1615 C   0  0  1  0  0  0  0  0  0  0  0  0
  -30.6505   18.7767   36.5670 O   0  0  0  0  0  0  0  0  0  0  0  0
  -29.2405   18.5797   36.7418 C   0  0  2  0  0  0  0  0  0  0  0  0
  -28.6920   19.6963   37.6032 C   0  0  0  0  0  0  0  0  0  0  0  0
  -28.9995   20.9501   37.0017 O   0  0  0  0  0  0  0  0  0  0  0  0
  -32.0981   19.5299   34.8672 N   0  0  0  0  0  0  0  0  0  0  0  0
  -33.3255   19.2163   35.2874 C   0  0  0  0  0  0  0  0  0  0  0  0
  -33.5700   18.3002   36.0722 O   0  0  0  0  0  0  0  0  0  0  0  0
  -34.3979   20.1158   34.7108 C   0  0  0  0  0  0  0  0  0  0  0  0
  -35.7009   19.4830   34.7154 N   0  0  0  0  0  0  0  0  0  0  0  0
  -29.9870   21.9476   37.7725 P   0  0  1  0  0  0  0  0  0  0  0  0
  -29.8352   21.5531   39.2382 O   0  0  0  0  0  0  0  0  0  0  0  0
  -29.4708   23.3446   37.4984 O   0  0  0  0  0  0  0  0  0  0  0  0
  -31.3370   21.6443   37.1604 O   0  0  0  0  0  0  0  0  0  0  0  0
  -27.6558   19.1059   35.3240 H   0  0  0  0  0  0  0  0  0  0  0  0
  -28.2757   16.6419   35.7165 H   0  0  0  0  0  0  0  0  0  0  0  0
  -29.6299   20.2571   34.3000 H   0  0  0  0  0  0  0  0  0  0  0  0
  -29.3652   17.7658   33.0802 H   0  0  0  0  0  0  0  0  0  0  0  0
  -31.2473   17.6964   34.8367 H   0  0  0  0  0  0  0  0  0  0  0  0
  -29.0100   17.6323   37.2510 H   0  0  0  0  0  0  0  0  0  0  0  0
  -29.1480   19.6468   38.6030 H   0  0  0  0  0  0  0  0  0  0  0  0
  -27.6010   19.5892   37.6940 H   0  0  0  0  0  0  0  0  0  0  0  0
  -31.9629   20.3886   34.3147 H   0  0  0  0  0  0  0  0  0  0  0  0
  -34.4486   21.0365   35.3105 H   0  0  0  0  0  0  0  0  0  0  0  0
  -34.1311   20.3339   33.6661 H   0  0  0  0  0  0  0  0  0  0  0  0
  -36.0070   19.3344   35.6876 H   0  0  0  0  0  0  0  0  0  0  0  0
  -36.3785   20.0889   34.2309 H   0  0  0  0  0  0  0  0  0  0  0  0
  -35.6438   18.5758   34.2309 H   0  0  0  0  0  0  0  0  0  0  0  0
  1  2  1  0
  1  3  1  0
  1  7  1  0
  3  4  1  0
  3  5  1  0
  5  6  1  0
  5 10  1  0
  6  7  1  0
  7  8  1  0
  8  9  1  0
  9 15  1  0
 10 11  1  0
 11 12  2  0
 11 13  1  0
 13 14  1  0
 15 16  2  0
 15 17  1  1
 15 18  1  0
  1 19  1  1
  2 20  1  0
  3 21  1  6
  4 22  1  0
  5 23  1  6
  7 24  1  1
  8 25  1  0
  8 26  1  0
 10 27  1  0
 13 28  1  0
 13 29  1  0
 14 30  1  0
 14 31  1  0
 14 32  1  0
M  CHG  3  14   1  17  -1  18  -1
M  END
>  <filename_input>  (10) 
7JG0_GAR_docked.sdf

>  <pdb_id>  (10) 
7JG0_GAR

>  <pose_rank>  (10) 
9

>  <num_atoms_heavy>  (10) 
18

>  <num_torsions>  (10) 
5

>  <pose>  (10) 
[-28.61241139337895, 18.56323619861955, 35.3450222494319, -0.9058140244314977, -1.8314468514209692, 3.3336791534077075, 0.6715926100427121, -0.05366922866346537, -3.898120085100506, -0.9011005755392668, 1.5899133592603945]

>  <energy>  (10) 
-448.34502301538316

>  <inter_energy>  (10) 
-451.11367965462125

>  <intra_energy>  (10) 
20.50245547359073

>  <rmsd>  (10) 
5.48911

>  <sdf_rank>  (10) 
0

$$$$

     RDKit          3D

 32 32  0  0  0  0  0  0  0  0999 V2000
  -29.0123   18.2886   43.9261 C   0  0  1  0  0  0  0  0  0  0  0  0
  -28.4039   18.6327   45.1652 O   0  0  0  0  0  0  0  0  0  0  0  0
  -28.6189   16.8421   43.5899 C   0  0  1  0  0  0  0  0  0  0  0  0
  -27.3022   16.5245   43.9772 O   0  0  0  0  0  0  0  0  0  0  0  0
  -29.7145   16.0696   44.3466 C   0  0  1  0  0  0  0  0  0  0  0  0
  -30.9077   16.8692   44.2183 O   0  0  0  0  0  0  0  0  0  0  0  0
  -30.5363   18.2471   44.0735 C   0  0  2  0  0  0  0  0  0  0  0  0
  -31.2442   18.8219   42.8660 C   0  0  0  0  0  0  0  0  0  0  0  0
  -30.3232   18.9254   41.7846 O   0  0  0  0  0  0  0  0  0  0  0  0
  -29.9357   14.7604   43.8181 N   0  0  0  0  0  0  0  0  0  0  0  0
  -29.4816   14.3985   42.6163 C   0  0  0  0  0  0  0  0  0  0  0  0
  -28.7225   15.0855   41.9331 O   0  0  0  0  0  0  0  0  0  0  0  0
  -29.9841   13.0399   42.1767 C   0  0  0  0  0  0  0  0  0  0  0  0
  -30.5158   13.0649   40.8295 N   0  0  0  0  0  0  0  0  0  0  0  0
  -30.6260   18.1099   40.4401 P   0  0  1  0  0  0  0  0  0  0  0  0
  -31.2868   19.1391   39.5285 O   0  0  0  0  0  0  0  0  0  0  0  0
  -29.2811   17.6562   39.9122 O   0  0  0  0  0  0  0  0  0  0  0  0
  -31.5290   16.9895   40.9074 O   0  0  0  0  0  0  0  0  0  0  0  0
  -28.6978   19.0230   43.1699 H   0  0  0  0  0  0  0  0  0  0  0  0
  -28.9704   18.3123   45.9112 H   0  0  0  0  0  0  0  0  0  0  0  0
  -28.5828   16.6085   42.5156 H   0  0  0  0  0  0  0  0  0  0  0  0
  -27.2432   16.5103   44.9653 H   0  0  0  0  0  0  0  0  0  0  0  0
  -29.4164   15.9150   45.3941 H   0  0  0  0  0  0  0  0  0  0  0  0
  -30.8302   18.8537   44.9428 H   0  0  0  0  0  0  0  0  0  0  0  0
  -32.0755   18.1614   42.5786 H   0  0  0  0  0  0  0  0  0  0  0  0
  -31.6383   19.8193   43.1106 H   0  0  0  0  0  0  0  0  0  0  0  0
  -30.4608   14.0761   44.3810 H   0  0  0  0  0  0  0  0  0  0  0  0
  -29.1500   12.3238   42.2155 H   0  0  0  0  0  0  0  0  0  0  0  0
  -30.7969   12.7435   42.8560 H   0  0  0  0  0  0  0  0  0  0  0  0
  -31.5440   13.1131   40.8670 H   0  0  0  0  0  0  0  0  0  0  0  0
  -30.1513   13.8897   40.3317 H   0  0  0  0  0  0  0  0  0  0  0  0
  -30.2302   12.2095   40.3317 H   0  0  0  0  0  0  0  0  0  0  0  0
  1  2  1  0
  1  3  1  0
  1  7  1  0
  3  4  1  0
  3  5  1  0
  5  6  1  0
  5 10  1  0
  6  7  1  0
  7  8  1  0
  8  9  1  0
  9 15  1  0
 10 11  1  0
 11 12  2  0
 11 13  1  0
 13 14  1  0
 15 16  2  0
 15 17  1  6
 15 18  1  0
  1 19  1  6
  2 20  1  0
  3 21  1  6
  4 22  1  0
  5 23  1  1
  7 24  1  1
  8 25  1  0
  8 26  1  0
 10 27  1  0
 13 28  1  0
 13 29  1  0
 14 30  1  0
 14 31  1  0
 14 32  1  0
M  CHG  3  14   1  17  -1  18  -1
M  END
>  <filename_input>  (11) 
7JG0_GAR_docked.sdf

>  <pdb_id>  (11) 
7JG0_GAR

>  <pose_rank>  (11) 
10

>  <num_atoms_heavy>  (11) 
18

>  <num_torsions>  (11) 
5

>  <pose>  (11) 
[-29.012313695977085, 18.288615257990795, 43.92608407910694, 0.6578818553120649, 2.6919131027000662, 4.333303661754363, 9.952338136837792, 5.781268483800518, 7.85097944209893, -0.826617386999824, 2.8431087810839304]

>  <energy>  (11) 
-53.47153991056471

>  <inter_energy>  (11) 
-107.5622031550747

>  <intra_energy>  (11) 
57.34953497324597

>  <rmsd>  (11) 
8.89152

>  <sdf_rank>  (11) 
0

$$$$

     RDKit          3D

 32 32  0  0  0  0  0  0  0  0999 V2000
  -30.6708   15.9563   40.8602 C   0  0  1  0  0  0  0  0  0  0  0  0
  -30.3924   14.8029   41.6451 O   0  0  0  0  0  0  0  0  0  0  0  0
  -32.1918   16.1724   40.8575 C   0  0  1  0  0  0  0  0  0  0  0  0
  -32.9201   14.9668   40.8369 O   0  0  0  0  0  0  0  0  0  0  0  0
  -32.3603   17.0021   42.1432 C   0  0  1  0  0  0  0  0  0  0  0  0
  -31.1985   17.8542   42.2064 O   0  0  0  0  0  0  0  0  0  0  0  0
  -30.1066   17.2099   41.5355 C   0  0  2  0  0  0  0  0  0  0  0  0
  -29.5046   18.1757   40.5383 C   0  0  0  0  0  0  0  0  0  0  0  0
  -30.2750   19.3734   40.5179 O   0  0  0  0  0  0  0  0  0  0  0  0
  -33.5531   17.7891   42.1432 N   0  0  0  0  0  0  0  0  0  0  0  0
  -34.7349   17.2793   42.4966 C   0  0  0  0  0  0  0  0  0  0  0  0
  -34.8815   16.1598   42.9867 O   0  0  0  0  0  0  0  0  0  0  0  0
  -35.8884   18.2275   42.2477 C   0  0  0  0  0  0  0  0  0  0  0  0
  -35.5578   19.2435   41.2695 N   0  0  0  0  0  0  0  0  0  0  0  0
  -30.2747   20.2617   39.1856 P   0  0  1  0  0  0  0  0  0  0  0  0
  -28.7951   20.5185   38.9171 O   0  0  0  0  0  0  0  0  0  0  0  0
  -30.9124   19.4068   38.1106 O   0  0  0  0  0  0  0  0  0  0  0  0
  -31.0789   21.4814   39.5791 O   0  0  0  0  0  0  0  0  0  0  0  0
  -30.2405   15.8063   39.8590 H   0  0  0  0  0  0  0  0  0  0  0  0
  -30.4486   15.0359   42.6056 H   0  0  0  0  0  0  0  0  0  0  0  0
  -32.5883   16.6714   39.9609 H   0  0  0  0  0  0  0  0  0  0  0  0
  -33.0978   14.6727   41.7653 H   0  0  0  0  0  0  0  0  0  0  0  0
  -32.4488   16.3379   43.0155 H   0  0  0  0  0  0  0  0  0  0  0  0
  -29.3047   16.9151   42.2283 H   0  0  0  0  0  0  0  0  0  0  0  0
  -28.4704   18.4091   40.8313 H   0  0  0  0  0  0  0  0  0  0  0  0
  -29.5063   17.7199   39.5372 H   0  0  0  0  0  0  0  0  0  0  0  0
  -33.4993   18.7786   41.8622 H   0  0  0  0  0  0  0  0  0  0  0  0
  -36.7498   17.6497   41.8816 H   0  0  0  0  0  0  0  0  0  0  0  0
  -36.1211   18.7338   43.1962 H   0  0  0  0  0  0  0  0  0  0  0  0
  -35.2765   20.1079   41.7539 H   0  0  0  0  0  0  0  0  0  0  0  0
  -34.7812   18.9122   40.6795 H   0  0  0  0  0  0  0  0  0  0  0  0
  -36.3806   19.4327   40.6795 H   0  0  0  0  0  0  0  0  0  0  0  0
  1  2  1  0
  1  3  1  0
  1  7  1  0
  3  4  1  0
  3  5  1  0
  5  6  1  0
  5 10  1  0
  6  7  1  0
  7  8  1  0
  8  9  1  0
  9 15  1  0
 10 11  1  0
 11 12  2  0
 11 13  1  0
 13 14  1  0
 15 16  2  0
 15 17  1  6
 15 18  1  0
  1 19  1  6
  2 20  1  0
  3 21  1  6
  4 22  1  0
  5 23  1  1
  7 24  1  1
  8 25  1  0
  8 26  1  0
 10 27  1  0
 13 28  1  0
 13 29  1  0
 14 30  1  0
 14 31  1  0
 14 32  1  0
M  CHG  3  14   1  17  -1  18  -1
M  END
>  <filename_input>  (12) 
7JG0_GAR_docked.sdf

>  <pdb_id>  (12) 
7JG0_GAR

>  <pose_rank>  (12) 
11

>  <num_atoms_heavy>  (12) 
18

>  <num_torsions>  (12) 
5

>  <pose>  (12) 
[-30.67081615022436, 15.95628566644577, 40.860175930251536, -0.900571631533545, 0.3371063401217238, -2.625064470743493, -0.8921464654643348, -2.4255192364486944, 3.298450344579141, 0.6868120195623726, -6.088503234513831]

>  <energy>  (12) 
-157.31212270666097

>  <inter_energy>  (12) 
-167.4758969224729

>  <intra_energy>  (12) 
4.390020555442977

>  <rmsd>  (12) 
8.50588

>  <sdf_rank>  (12) 
0

$$$$

     RDKit          3D

 32 32  0  0  0  0  0  0  0  0999 V2000
  -31.4021   20.8534   34.9833 C   0  0  1  0  0  0  0  0  0  0  0  0
  -31.3190   22.0119   35.8048 O   0  0  0  0  0  0  0  0  0  0  0  0
  -30.0682   20.7054   34.2356 C   0  0  1  0  0  0  0  0  0  0  0  0
  -29.5054   21.9415   33.8617 O   0  0  0  0  0  0  0  0  0  0  0  0
  -29.2503   19.9154   35.2733 C   0  0  1  0  0  0  0  0  0  0  0  0
  -30.1876   19.0141   35.8969 O   0  0  0  0  0  0  0  0  0  0  0  0
  -31.4992   19.5926   35.8474 C   0  0  2  0  0  0  0  0  0  0  0  0
  -32.4622   18.5770   35.2723 C   0  0  0  0  0  0  0  0  0  0  0  0
  -33.4760   18.2928   36.2313 O   0  0  0  0  0  0  0  0  0  0  0  0
  -28.1718   19.1827   34.6883 N   0  0  0  0  0  0  0  0  0  0  0  0
  -28.3803   18.2103   33.7980 C   0  0  0  0  0  0  0  0  0  0  0  0
  -29.4764   17.9610   33.2968 O   0  0  0  0  0  0  0  0  0  0  0  0
  -27.1214   17.4454   33.4494 C   0  0  0  0  0  0  0  0  0  0  0  0
  -26.5017   16.8537   34.6175 N   0  0  0  0  0  0  0  0  0  0  0  0
  -35.0048   18.5460   35.8276 P   0  0  1  0  0  0  0  0  0  0  0  0
  -35.4279   17.2416   35.1593 O   0  0  0  0  0  0  0  0  0  0  0  0
  -35.7464   18.7925   37.1247 O   0  0  0  0  0  0  0  0  0  0  0  0
  -34.9289   19.7454   34.9084 O   0  0  0  0  0  0  0  0  0  0  0  0
  -32.2743   20.9597   34.3214 H   0  0  0  0  0  0  0  0  0  0  0  0
  -31.3383   21.7430   36.7574 H   0  0  0  0  0  0  0  0  0  0  0  0
  -30.1364   20.2031   33.2594 H   0  0  0  0  0  0  0  0  0  0  0  0
  -29.2709   22.4565   34.6741 H   0  0  0  0  0  0  0  0  0  0  0  0
  -28.7801   20.6039   35.9909 H   0  0  0  0  0  0  0  0  0  0  0  0
  -31.8734   19.8680   36.8445 H   0  0  0  0  0  0  0  0  0  0  0  0
  -32.9231   18.9835   34.3600 H   0  0  0  0  0  0  0  0  0  0  0  0
  -31.9189   17.6528   35.0260 H   0  0  0  0  0  0  0  0  0  0  0  0
  -27.2055   19.4117   34.9616 H   0  0  0  0  0  0  0  0  0  0  0  0
  -27.3779   16.6447   32.7402 H   0  0  0  0  0  0  0  0  0  0  0  0
  -26.4053   18.1547   33.0089 H   0  0  0  0  0  0  0  0  0  0  0  0
  -26.9212   17.2542   35.4687 H   0  0  0  0  0  0  0  0  0  0  0  0
  -26.6524   15.8349   34.6071 H   0  0  0  0  0  0  0  0  0  0  0  0
  -25.4909   17.0514   34.6071 H   0  0  0  0  0  0  0  0  0  0  0  0
  1  2  1  0
  1  3  1  0
  1  7  1  0
  3  4  1  0
  3  5  1  0
  5  6  1  0
  5 10  1  0
  6  7  1  0
  7  8  1  0
  8  9  1  0
  9 15  1  0
 10 11  1  0
 11 12  2  0
 11 13  1  0
 13 14  1  0
 15 16  2  0
 15 17  1  1
 15 18  1  0
  1 19  1  6
  2 20  1  0
  3 21  1  6
  4 22  1  0
  5 23  1  1
  7 24  1  1
  8 25  1  0
  8 26  1  0
 10 27  1  0
 13 28  1  0
 13 29  1  0
 14 30  1  0
 14 31  1  0
 14 32  1  0
M  CHG  3  14   1  17  -1  18  -1
M  END
>  <filename_input>  (13) 
7JG0_GAR_docked.sdf

>  <pdb_id>  (13) 
7JG0_GAR

>  <pose_rank>  (13) 
12

>  <num_atoms_heavy>  (13) 
18

>  <num_torsions>  (13) 
5

>  <pose>  (13) 
[-31.402081152593098, 20.853418516965778, 34.98325690482056, 1.6430293768275128, 1.7748429179816023, -5.261981014801633, 2.8524774634273506, -1.7818578423902165, 5.458200004055525, -0.7812732178033813, 2.6673492270447428]

>  <energy>  (13) 
-552.3899709727021

>  <inter_energy>  (13) 
-568.8583905901095

>  <intra_energy>  (13) 
20.008308835627385

>  <rmsd>  (13) 
1.69315

>  <sdf_rank>  (13) 
0

$$$$

     RDKit          3D

 32 32  0  0  0  0  0  0  0  0999 V2000
  -31.0687   16.6684   37.4581 C   0  0  1  0  0  0  0  0  0  0  0  0
  -31.6979   16.1603   38.6285 O   0  0  0  0  0  0  0  0  0  0  0  0
  -32.1693   17.0971   36.4758 C   0  0  1  0  0  0  0  0  0  0  0  0
  -33.2944   16.2497   36.5041 O   0  0  0  0  0  0  0  0  0  0  0  0
  -32.4355   18.5336   36.9609 C   0  0  1  0  0  0  0  0  0  0  0  0
  -31.1487   19.0508   37.3563 O   0  0  0  0  0  0  0  0  0  0  0  0
  -30.3143   17.9626   37.7773 C   0  0  2  0  0  0  0  0  0  0  0  0
  -28.9909   18.0486   37.0487 C   0  0  0  0  0  0  0  0  0  0  0  0
  -29.1041   18.9757   35.9735 O   0  0  0  0  0  0  0  0  0  0  0  0
  -33.0138   19.3621   35.9504 N   0  0  0  0  0  0  0  0  0  0  0  0
  -34.2957   19.7317   35.9891 C   0  0  0  0  0  0  0  0  0  0  0  0
  -35.0411   19.5274   36.9469 O   0  0  0  0  0  0  0  0  0  0  0  0
  -34.7449   20.4478   34.7333 C   0  0  0  0  0  0  0  0  0  0  0  0
  -33.6690   20.5935   33.7743 N   0  0  0  0  0  0  0  0  0  0  0  0
  -28.6516   18.5098   34.5098 P   0  0  1  0  0  0  0  0  0  0  0  0
  -27.2133   18.0397   34.7034 O   0  0  0  0  0  0  0  0  0  0  0  0
  -29.5784   17.3759   34.1246 O   0  0  0  0  0  0  0  0  0  0  0  0
  -28.8127   19.7640   33.6790 O   0  0  0  0  0  0  0  0  0  0  0  0
  -30.3955   15.8936   37.0624 H   0  0  0  0  0  0  0  0  0  0  0  0
  -31.2464   16.5248   39.4306 H   0  0  0  0  0  0  0  0  0  0  0  0
  -31.8913   17.0397   35.4131 H   0  0  0  0  0  0  0  0  0  0  0  0
  -33.5429   16.0625   37.4440 H   0  0  0  0  0  0  0  0  0  0  0  0
  -33.1634   18.5278   37.7855 H   0  0  0  0  0  0  0  0  0  0  0  0
  -30.0956   17.9950   38.8548 H   0  0  0  0  0  0  0  0  0  0  0  0
  -28.2096   18.3872   37.7450 H   0  0  0  0  0  0  0  0  0  0  0  0
  -28.7231   17.0575   36.6537 H   0  0  0  0  0  0  0  0  0  0  0  0
  -32.4241   19.6834   35.1693 H   0  0  0  0  0  0  0  0  0  0  0  0
  -35.5586   19.8718   34.2685 H   0  0  0  0  0  0  0  0  0  0  0  0
  -35.0816   21.4549   35.0199 H   0  0  0  0  0  0  0  0  0  0  0  0
  -32.7770   20.7144   34.2748 H   0  0  0  0  0  0  0  0  0  0  0  0
  -33.6196   19.7515   33.1831 H   0  0  0  0  0  0  0  0  0  0  0  0
  -33.8455   21.4183   33.1831 H   0  0  0  0  0  0  0  0  0  0  0  0
  1  2  1  0
  1  3  1  0
  1  7  1  0
  3  4  1  0
  3  5  1  0
  5  6  1  0
  5 10  1  0
  6  7  1  0
  7  8  1  0
  8  9  1  0
  9 15  1  0
 10 11  1  0
 11 12  2  0
 11 13  1  0
 13 14  1  0
 15 16  2  0
 15 17  1  6
 15 18  1  0
  1 19  1  6
  2 20  1  0
  3 21  1  6
  4 22  1  0
  5 23  1  1
  7 24  1  1
  8 25  1  0
  8 26  1  0
 10 27  1  0
 13 28  1  0
 13 29  1  0
 14 30  1  0
 14 31  1  0
 14 32  1  0
M  CHG  3  14   1  17  -1  18  -1
M  END
>  <filename_input>  (14) 
7JG0_GAR_docked.sdf

>  <pdb_id>  (14) 
7JG0_GAR

>  <pose_rank>  (14) 
13

>  <num_atoms_heavy>  (14) 
18

>  <num_torsions>  (14) 
5

>  <pose>  (14) 
[-31.068659989624834, 16.66840748867349, 37.45812027887945, -0.1982627591139452, -0.43049717806677057, -3.222394177179938, -0.47672597156073865, -2.808269884698329, 3.1413094171568523, 1.1354198931984887, -6.1016973795814025]

>  <energy>  (14) 
-415.58471417679107

>  <inter_energy>  (14) 
-412.38181065064316

>  <intra_energy>  (14) 
0.528189436720341

>  <rmsd>  (14) 
6.35542

>  <sdf_rank>  (14) 
0

$$$$

     RDKit          3D

 32 32  0  0  0  0  0  0  0  0999 V2000
  -33.2932   18.5736   38.2167 C   0  0  1  0  0  0  0  0  0  0  0  0
  -34.6614   18.9365   38.3589 O   0  0  0  0  0  0  0  0  0  0  0  0
  -33.0377   17.3353   39.0894 C   0  0  1  0  0  0  0  0  0  0  0  0
  -33.7643   17.3516   40.2961 O   0  0  0  0  0  0  0  0  0  0  0  0
  -33.4400   16.2153   38.1130 C   0  0  1  0  0  0  0  0  0  0  0  0
  -33.0100   16.6658   36.8123 O   0  0  0  0  0  0  0  0  0  0  0  0
  -33.0127   18.0999   36.7875 C   0  0  2  0  0  0  0  0  0  0  0  0
  -31.6736   18.5845   36.2761 C   0  0  0  0  0  0  0  0  0  0  0  0
  -31.1977   19.6300   37.1180 O   0  0  0  0  0  0  0  0  0  0  0  0
  -32.8339   14.9602   38.4285 N   0  0  0  0  0  0  0  0  0  0  0  0
  -31.7318   14.8770   39.1768 C   0  0  0  0  0  0  0  0  0  0  0  0
  -31.2335   15.8306   39.7746 O   0  0  0  0  0  0  0  0  0  0  0  0
  -31.1564   13.4779   39.2320 C   0  0  0  0  0  0  0  0  0  0  0  0
  -31.9820   12.5791   40.0123 N   0  0  0  0  0  0  0  0  0  0  0  0
  -30.5544   20.9288   36.4371 P   0  0  1  0  0  0  0  0  0  0  0  0
  -30.1621   20.4542   35.0414 O   0  0  0  0  0  0  0  0  0  0  0  0
  -31.6522   21.9713   36.4006 O   0  0  0  0  0  0  0  0  0  0  0  0
  -29.3971   21.2654   37.3517 O   0  0  0  0  0  0  0  0  0  0  0  0
  -32.6745   19.4428   38.4847 H   0  0  0  0  0  0  0  0  0  0  0  0
  -34.8886   18.9968   39.3205 H   0  0  0  0  0  0  0  0  0  0  0  0
  -32.0089   17.2372   39.4663 H   0  0  0  0  0  0  0  0  0  0  0  0
  -33.1352   17.3375   41.0604 H   0  0  0  0  0  0  0  0  0  0  0  0
  -34.5242   16.0371   38.1647 H   0  0  0  0  0  0  0  0  0  0  0  0
  -33.7839   18.5058   36.1163 H   0  0  0  0  0  0  0  0  0  0  0  0
  -30.9548   17.7518   36.2825 H   0  0  0  0  0  0  0  0  0  0  0  0
  -31.7862   18.9614   35.2488 H   0  0  0  0  0  0  0  0  0  0  0  0
  -33.2600   14.0945   38.0680 H   0  0  0  0  0  0  0  0  0  0  0  0
  -31.0768   13.0866   38.2071 H   0  0  0  0  0  0  0  0  0  0  0  0
  -30.1698   13.5365   39.7148 H   0  0  0  0  0  0  0  0  0  0  0  0
  -31.8239   12.7513   41.0154 H   0  0  0  0  0  0  0  0  0  0  0  0
  -32.9740   12.7424   39.7881 H   0  0  0  0  0  0  0  0  0  0  0  0
  -31.7353   11.6046   39.7881 H   0  0  0  0  0  0  0  0  0  0  0  0
  1  2  1  0
  1  3  1  0
  1  7  1  0
  3  4  1  0
  3  5  1  0
  5  6  1  0
  5 10  1  0
  6  7  1  0
  7  8  1  0
  8  9  1  0
  9 15  1  0
 10 11  1  0
 11 12  2  0
 11 13  1  0
 13 14  1  0
 15 16  2  0
 15 17  1  6
 15 18  1  0
  1 19  1  1
  2 20  1  0
  3 21  1  1
  4 22  1  0
  5 23  1  6
  7 24  1  6
  8 25  1  0
  8 26  1  0
 10 27  1  0
 13 28  1  0
 13 29  1  0
 14 30  1  0
 14 31  1  0
 14 32  1  0
M  CHG  3  14   1  17  -1  18  -1
M  END
>  <filename_input>  (15) 
7JG0_GAR_docked.sdf

>  <pdb_id>  (15) 
7JG0_GAR

>  <pose_rank>  (15) 
14

>  <num_atoms_heavy>  (15) 
18

>  <num_torsions>  (15) 
5

>  <pose>  (15) 
[-33.29315186698743, 18.573632514130125, 38.21673920055602, 0.7511230013132761, -2.290743423167526, -0.5137568161103041, -8.989975312531783, -4.029312189012189, 1.039969091271342, -11.575044936649622, -5.496964310480383]

>  <energy>  (15) 
-237.23930321864657

>  <inter_energy>  (15) 
-268.022671209158

>  <intra_energy>  (15) 
46.107938044129654

>  <rmsd>  (15) 
5.91925

>  <sdf_rank>  (15) 
0

$$$$

     RDKit          3D

 32 32  0  0  0  0  0  0  0  0999 V2000
  -31.3770   21.2075   35.5484 C   0  0  1  0  0  0  0  0  0  0  0  0
  -30.6661   22.0961   36.4022 O   0  0  0  0  0  0  0  0  0  0  0  0
  -30.3837   20.6368   34.5248 C   0  0  1  0  0  0  0  0  0  0  0  0
  -29.4146   21.5736   34.1152 O   0  0  0  0  0  0  0  0  0  0  0  0
  -29.8249   19.4383   35.3130 C   0  0  1  0  0  0  0  0  0  0  0  0
  -30.9398   18.9199   36.0667 O   0  0  0  0  0  0  0  0  0  0  0  0
  -31.8616   19.9857   36.3347 C   0  0  2  0  0  0  0  0  0  0  0  0
  -33.2497   19.5505   35.9183 C   0  0  0  0  0  0  0  0  0  0  0  0
  -34.0806   20.6984   35.7756 O   0  0  0  0  0  0  0  0  0  0  0  0
  -29.2829   18.4222   34.4670 N   0  0  0  0  0  0  0  0  0  0  0  0
  -29.7623   18.1934   33.2425 C   0  0  0  0  0  0  0  0  0  0  0  0
  -30.5901   18.9124   32.6833 O   0  0  0  0  0  0  0  0  0  0  0  0
  -29.1717   16.9591   32.5952 C   0  0  0  0  0  0  0  0  0  0  0  0
  -27.8593   16.6428   33.1205 N   0  0  0  0  0  0  0  0  0  0  0  0
  -35.5784   20.4984   35.2456 P   0  0  1  0  0  0  0  0  0  0  0  0
  -35.4038   19.7478   33.9291 O   0  0  0  0  0  0  0  0  0  0  0  0
  -36.2863   19.6635   36.2920 O   0  0  0  0  0  0  0  0  0  0  0  0
  -36.0947   21.9147   35.1158 O   0  0  0  0  0  0  0  0  0  0  0  0
  -32.2155   21.7577   35.0965 H   0  0  0  0  0  0  0  0  0  0  0  0
  -30.8511   21.8648   37.3469 H   0  0  0  0  0  0  0  0  0  0  0  0
  -30.8245   20.3555   33.5570 H   0  0  0  0  0  0  0  0  0  0  0  0
  -28.9925   21.9817   34.9123 H   0  0  0  0  0  0  0  0  0  0  0  0
  -28.9909   19.7602   35.9539 H   0  0  0  0  0  0  0  0  0  0  0  0
  -31.9073   20.2410   37.4037 H   0  0  0  0  0  0  0  0  0  0  0  0
  -33.1944   19.0155   34.9588 H   0  0  0  0  0  0  0  0  0  0  0  0
  -33.6717   18.8834   36.6844 H   0  0  0  0  0  0  0  0  0  0  0  0
  -28.4993   17.8497   34.8121 H   0  0  0  0  0  0  0  0  0  0  0  0
  -29.8422   16.1067   32.7794 H   0  0  0  0  0  0  0  0  0  0  0  0
  -29.0663   17.1589   31.5186 H   0  0  0  0  0  0  0  0  0  0  0  0
  -27.8906   16.6504   34.1500 H   0  0  0  0  0  0  0  0  0  0  0  0
  -27.5741   15.7090   32.7925 H   0  0  0  0  0  0  0  0  0  0  0  0
  -27.1800   17.3442   32.7925 H   0  0  0  0  0  0  0  0  0  0  0  0
  1  2  1  0
  1  3  1  0
  1  7  1  0
  3  4  1  0
  3  5  1  0
  5  6  1  0
  5 10  1  0
  6  7  1  0
  7  8  1  0
  8  9  1  0
  9 15  1  0
 10 11  1  0
 11 12  2  0
 11 13  1  0
 13 14  1  0
 15 16  2  0
 15 17  1  1
 15 18  1  0
  1 19  1  6
  2 20  1  0
  3 21  1  6
  4 22  1  0
  5 23  1  1
  7 24  1  1
  8 25  1  0
  8 26  1  0
 10 27  1  0
 13 28  1  0
 13 29  1  0
 14 30  1  0
 14 31  1  0
 14 32  1  0
M  CHG  3  14   1  17  -1  18  -1
M  END
>  <filename_input>  (16) 
7JG0_GAR_docked.sdf

>  <pdb_id>  (16) 
7JG0_GAR

>  <pose_rank>  (16) 
15

>  <num_atoms_heavy>  (16) 
18

>  <num_torsions>  (16) 
5

>  <pose>  (16) 
[-31.37697765330567, 21.20750022297172, 35.548405558172284, 2.0545950931132957, -5.674813251214597, -1.527033149975316, -9.164665799931178, -3.238109805149322, 0.5490537795440402, -12.404244705158181, -6.09381026933829]

>  <energy>  (16) 
-558.8455253762313

>  <inter_energy>  (16) 
-586.1064830886212

>  <intra_energy>  (16) 
35.262397622594605

>  <rmsd>  (16) 
1.3736

>  <sdf_rank>  (16) 
0

$$$$

     RDKit          3D

 32 32  0  0  0  0  0  0  0  0999 V2000
  -33.0269   20.8061   36.1314 C   0  0  1  0  0  0  0  0  0  0  0  0
  -34.0613   21.6512   35.6418 O   0  0  0  0  0  0  0  0  0  0  0  0
  -32.7376   19.7419   35.0618 C   0  0  1  0  0  0  0  0  0  0  0  0
  -33.8946   19.3169   34.3796 O   0  0  0  0  0  0  0  0  0  0  0  0
  -31.7163   20.4919   34.1877 C   0  0  1  0  0  0  0  0  0  0  0  0
  -30.9237   21.2723   35.1056 O   0  0  0  0  0  0  0  0  0  0  0  0
  -31.7157   21.5873   36.2594 C   0  0  2  0  0  0  0  0  0  0  0  0
  -30.9426   21.2085   37.5037 C   0  0  0  0  0  0  0  0  0  0  0  0
  -30.8449   19.7899   37.5844 O   0  0  0  0  0  0  0  0  0  0  0  0
  -30.8795   19.6123   33.4339 N   0  0  0  0  0  0  0  0  0  0  0  0
  -29.6177   19.3613   33.7895 C   0  0  0  0  0  0  0  0  0  0  0  0
  -29.1164   19.7315   34.8508 O   0  0  0  0  0  0  0  0  0  0  0  0
  -28.8594   18.5554   32.7566 C   0  0  0  0  0  0  0  0  0  0  0  0
  -29.1497   17.1393   32.8491 N   0  0  0  0  0  0  0  0  0  0  0  0
  -29.8599   19.1507   38.6731 P   0  0  1  0  0  0  0  0  0  0  0  0
  -29.1583   20.3586   39.2860 O   0  0  0  0  0  0  0  0  0  0  0  0
  -30.7452   18.4345   39.6713 O   0  0  0  0  0  0  0  0  0  0  0  0
  -28.9744   18.2403   37.8508 O   0  0  0  0  0  0  0  0  0  0  0  0
  -33.3474   20.3904   37.0981 H   0  0  0  0  0  0  0  0  0  0  0  0
  -34.5500   22.0505   36.4046 H   0  0  0  0  0  0  0  0  0  0  0  0
  -32.3603   18.7843   35.4498 H   0  0  0  0  0  0  0  0  0  0  0  0
  -34.5899   19.0615   35.0365 H   0  0  0  0  0  0  0  0  0  0  0  0
  -32.2361   21.1110   33.4417 H   0  0  0  0  0  0  0  0  0  0  0  0
  -31.9425   22.6613   36.3312 H   0  0  0  0  0  0  0  0  0  0  0  0
  -29.9336   21.6440   37.4561 H   0  0  0  0  0  0  0  0  0  0  0  0
  -31.4644   21.5927   38.3925 H   0  0  0  0  0  0  0  0  0  0  0  0
  -31.2612   19.1588   32.5915 H   0  0  0  0  0  0  0  0  0  0  0  0
  -29.1402   18.9102   31.7540 H   0  0  0  0  0  0  0  0  0  0  0  0
  -27.7840   18.6934   32.9423 H   0  0  0  0  0  0  0  0  0  0  0  0
  -29.2061   16.8644   33.8402 H   0  0  0  0  0  0  0  0  0  0  0  0
  -30.0486   16.9421   32.3865 H   0  0  0  0  0  0  0  0  0  0  0  0
  -28.4009   16.6043   32.3865 H   0  0  0  0  0  0  0  0  0  0  0  0
  1  2  1  0
  1  3  1  0
  1  7  1  0
  3  4  1  0
  3  5  1  0
  5  6  1  0
  5 10  1  0
  6  7  1  0
  7  8  1  0
  8  9  1  0
  9 15  1  0
 10 11  1  0
 11 12  2  0
 11 13  1  0
 13 14  1  0
 15 16  2  0
 15 17  1  1
 15 18  1  0
  1 19  1  1
  2 20  1  0
  3 21  1  1
  4 22  1  0
  5 23  1  6
  7 24  1  1
  8 25  1  0
  8 26  1  0
 10 27  1  0
 13 28  1  0
 13 29  1  0
 14 30  1  0
 14 31  1  0
 14 32  1  0
M  CHG  3  14   1  17  -1  18  -1
M  END
>  <filename_input>  (17) 
7JG0_GAR_docked.sdf

>  <pdb_id>  (17) 
7JG0_GAR

>  <pose_rank>  (17) 
16

>  <num_atoms_heavy>  (17) 
18

>  <num_torsions>  (17) 
5

>  <pose>  (17) 
[-33.026865646031965, 20.80609054893996, 36.13137962046217, 1.9553577778136202, -2.5181883550071538, -2.3657958760116613, -10.428743279276471, -4.200516281572945, 2.1660229970485108, -12.516902519832435, -5.226056257711306]

>  <energy>  (17) 
-377.82036838250417

>  <inter_energy>  (17) 
-419.7458710250543

>  <intra_energy>  (17) 
38.01281262801621

>  <rmsd>  (17) 
4.38645

>  <sdf_rank>  (17) 
0

$$$$

     RDKit          3D

 32 32  0  0  0  0  0  0  0  0999 V2000
  -33.1961   19.3499   36.4627 C   0  0  1  0  0  0  0  0  0  0  0  0
  -34.4855   19.2340   35.8727 O   0  0  0  0  0  0  0  0  0  0  0  0
  -33.1326   18.3860   37.6572 C   0  0  1  0  0  0  0  0  0  0  0  0
  -34.3524   18.2922   38.3556 O   0  0  0  0  0  0  0  0  0  0  0  0
  -32.6966   17.0900   36.9501 C   0  0  1  0  0  0  0  0  0  0  0  0
  -31.7861   17.5057   35.9119 O   0  0  0  0  0  0  0  0  0  0  0  0
  -32.1209   18.8381   35.4994 C   0  0  2  0  0  0  0  0  0  0  0  0
  -30.8710   19.6904   35.5313 C   0  0  0  0  0  0  0  0  0  0  0  0
  -31.0285   20.7220   36.5006 O   0  0  0  0  0  0  0  0  0  0  0  0
  -32.0553   16.1660   37.8316 N   0  0  0  0  0  0  0  0  0  0  0  0
  -30.7908   16.3291   38.2267 C   0  0  0  0  0  0  0  0  0  0  0  0
  -30.1247   17.3388   37.9993 O   0  0  0  0  0  0  0  0  0  0  0  0
  -30.2545   15.1455   39.0031 C   0  0  0  0  0  0  0  0  0  0  0  0
  -30.7487   15.1172   40.3645 N   0  0  0  0  0  0  0  0  0  0  0  0
  -29.7721   21.6568   36.8351 P   0  0  1  0  0  0  0  0  0  0  0  0
  -28.5666   20.7748   36.5254 O   0  0  0  0  0  0  0  0  0  0  0  0
  -29.8702   22.8430   35.8988 O   0  0  0  0  0  0  0  0  0  0  0  0
  -29.9661   21.9919   38.2977 O   0  0  0  0  0  0  0  0  0  0  0  0
  -33.0315   20.4038   36.7314 H   0  0  0  0  0  0  0  0  0  0  0  0
  -35.1701   19.1725   36.5851 H   0  0  0  0  0  0  0  0  0  0  0  0
  -32.4522   18.6924   38.4654 H   0  0  0  0  0  0  0  0  0  0  0  0
  -34.1768   18.3057   39.3298 H   0  0  0  0  0  0  0  0  0  0  0  0
  -33.5751   16.5571   36.5574 H   0  0  0  0  0  0  0  0  0  0  0  0
  -32.5125   18.8725   34.4721 H   0  0  0  0  0  0  0  0  0  0  0  0
  -30.0065   19.0647   35.7979 H   0  0  0  0  0  0  0  0  0  0  0  0
  -30.7056   20.1384   34.5404 H   0  0  0  0  0  0  0  0  0  0  0  0
  -32.5842   15.3503   38.1719 H   0  0  0  0  0  0  0  0  0  0  0  0
  -30.5617   14.2195   38.4950 H   0  0  0  0  0  0  0  0  0  0  0  0
  -29.1589   15.2348   39.0425 H   0  0  0  0  0  0  0  0  0  0  0  0
  -29.9547   15.1627   41.0190 H   0  0  0  0  0  0  0  0  0  0  0  0
  -31.3696   15.9240   40.5212 H   0  0  0  0  0  0  0  0  0  0  0  0
  -31.2733   14.2447   40.5212 H   0  0  0  0  0  0  0  0  0  0  0  0
  1  2  1  0
  1  3  1  0
  1  7  1  0
  3  4  1  0
  3  5  1  0
  5  6  1  0
  5 10  1  0
  6  7  1  0
  7  8  1  0
  8  9  1  0
  9 15  1  0
 10 11  1  0
 11 12  2  0
 11 13  1  0
 13 14  1  0
 15 16  2  0
 15 17  1  6
 15 18  1  0
  1 19  1  1
  2 20  1  0
  3 21  1  1
  4 22  1  0
  5 23  1  6
  7 24  1  6
  8 25  1  0
  8 26  1  0
 10 27  1  0
 13 28  1  0
 13 29  1  0
 14 30  1  0
 14 31  1  0
 14 32  1  0
M  CHG  3  14   1  17  -1  18  -1
M  END
>  <filename_input>  (18) 
7JG0_GAR_docked.sdf

>  <pdb_id>  (18) 
7JG0_GAR

>  <pose_rank>  (18) 
17

>  <num_atoms_heavy>  (18) 
18

>  <num_torsions>  (18) 
5

>  <pose>  (18) 
[-33.19610154487984, 19.34991066658761, 36.462651679619384, 1.2142106616177673, -2.5579582425466674, 0.0760388629423933, -9.971112851253013, -4.1301906535073165, 1.3422022574605958, -12.452692170675755, -5.610219075063187]

>  <energy>  (18) 
-255.28266351362407

>  <inter_energy>  (18) 
-268.75927140007394

>  <intra_energy>  (18) 
22.952410678173344

>  <rmsd>  (18) 
5.28993

>  <sdf_rank>  (18) 
0

$$$$

     RDKit          3D

 32 32  0  0  0  0  0  0  0  0999 V2000
  -29.9596   19.8771   37.4287 C   0  0  1  0  0  0  0  0  0  0  0  0
  -30.2748   21.2133   37.8018 O   0  0  0  0  0  0  0  0  0  0  0  0
  -30.5983   18.9336   38.4593 C   0  0  1  0  0  0  0  0  0  0  0  0
  -30.5738   19.4503   39.7696 O   0  0  0  0  0  0  0  0  0  0  0  0
  -32.0066   18.7730   37.8589 C   0  0  1  0  0  0  0  0  0  0  0  0
  -31.8165   18.7606   36.4294 O   0  0  0  0  0  0  0  0  0  0  0  0
  -30.6420   19.5177   36.1054 C   0  0  2  0  0  0  0  0  0  0  0  0
  -29.7519   18.6836   35.2102 C   0  0  0  0  0  0  0  0  0  0  0  0
  -28.3880   18.9823   35.4912 O   0  0  0  0  0  0  0  0  0  0  0  0
  -32.6569   17.5733   38.2831 N   0  0  0  0  0  0  0  0  0  0  0  0
  -31.9948   16.4225   38.4211 C   0  0  0  0  0  0  0  0  0  0  0  0
  -30.7705   16.3209   38.3457 O   0  0  0  0  0  0  0  0  0  0  0  0
  -32.9041   15.2443   38.6974 C   0  0  0  0  0  0  0  0  0  0  0  0
  -33.1026   15.0295   40.1161 N   0  0  0  0  0  0  0  0  0  0  0  0
  -27.3783   17.7692   35.7616 P   0  0  1  0  0  0  0  0  0  0  0  0
  -27.9828   17.0507   36.9639 O   0  0  0  0  0  0  0  0  0  0  0  0
  -27.4034   16.9151   34.5113 O   0  0  0  0  0  0  0  0  0  0  0  0
  -26.0599   18.4640   36.0227 O   0  0  0  0  0  0  0  0  0  0  0  0
  -28.8657   19.7856   37.3588 H   0  0  0  0  0  0  0  0  0  0  0  0
  -30.2917   21.2850   38.7890 H   0  0  0  0  0  0  0  0  0  0  0  0
  -30.0729   17.9777   38.6019 H   0  0  0  0  0  0  0  0  0  0  0  0
  -30.6091   18.7042   40.4193 H   0  0  0  0  0  0  0  0  0  0  0  0
  -32.6588   19.5928   38.1944 H   0  0  0  0  0  0  0  0  0  0  0  0
  -30.8777   20.4431   35.5594 H   0  0  0  0  0  0  0  0  0  0  0  0
  -29.9401   17.6160   35.3968 H   0  0  0  0  0  0  0  0  0  0  0  0
  -29.9697   18.9138   34.1568 H   0  0  0  0  0  0  0  0  0  0  0  0
  -33.6659   17.5972   38.4884 H   0  0  0  0  0  0  0  0  0  0  0  0
  -33.8807   15.4322   38.2272 H   0  0  0  0  0  0  0  0  0  0  0  0
  -32.4275   14.3441   38.2821 H   0  0  0  0  0  0  0  0  0  0  0  0
  -32.5042   15.6772   40.6484 H   0  0  0  0  0  0  0  0  0  0  0  0
  -34.0900   15.2000   40.3544 H   0  0  0  0  0  0  0  0  0  0  0  0
  -32.8546   14.0586   40.3544 H   0  0  0  0  0  0  0  0  0  0  0  0
  1  2  1  0
  1  3  1  0
  1  7  1  0
  3  4  1  0
  3  5  1  0
  5  6  1  0
  5 10  1  0
  6  7  1  0
  7  8  1  0
  8  9  1  0
  9 15  1  0
 10 11  1  0
 11 12  2  0
 11 13  1  0
 13 14  1  0
 15 16  2  0
 15 17  1  6
 15 18  1  0
  1 19  1  6
  2 20  1  0
  3 21  1  1
  4 22  1  0
  5 23  1  6
  7 24  1  6
  8 25  1  0
  8 26  1  0
 10 27  1  0
 13 28  1  0
 13 29  1  0
 14 30  1  0
 14 31  1  0
 14 32  1  0
M  CHG  3  14   1  17  -1  18  -1
M  END
>  <filename_input>  (19) 
7JG0_GAR_docked.sdf

>  <pdb_id>  (19) 
7JG0_GAR

>  <pose_rank>  (19) 
18

>  <num_atoms_heavy>  (19) 
18

>  <num_torsions>  (19) 
5

>  <pose>  (19) 
[-29.959635545403298, 19.877055169362183, 37.42867854135638, -0.576853866597938, -2.216402859541007, -0.8966832325813612, -9.304604792990824, -4.376871680012592, 0.8182402568682453, -13.211478032060267, -6.169587561496068]

>  <energy>  (19) 
-314.9786043842515

>  <inter_energy>  (19) 
-344.68525885767815

>  <intra_energy>  (19) 
33.2389263946336

>  <rmsd>  (19) 
6.38706

>  <sdf_rank>  (19) 
0

$$$$

     RDKit          3D

 32 32  0  0  0  0  0  0  0  0999 V2000
  -32.4776   18.1848   38.4548 C   0  0  1  0  0  0  0  0  0  0  0  0
  -33.6179   17.4077   38.8009 O   0  0  0  0  0  0  0  0  0  0  0  0
  -31.5967   18.3181   39.7065 C   0  0  1  0  0  0  0  0  0  0  0  0
  -32.3426   18.4345   40.8959 O   0  0  0  0  0  0  0  0  0  0  0  0
  -30.7577   17.0320   39.5983 C   0  0  1  0  0  0  0  0  0  0  0  0
  -30.5225   16.8434   38.1880 O   0  0  0  0  0  0  0  0  0  0  0  0
  -31.6030   17.4300   37.4492 C   0  0  2  0  0  0  0  0  0  0  0  0
  -31.0320   18.3445   36.3874 C   0  0  0  0  0  0  0  0  0  0  0  0
  -32.0975   19.0057   35.7121 O   0  0  0  0  0  0  0  0  0  0  0  0
  -29.5164   17.1188   40.3009 N   0  0  0  0  0  0  0  0  0  0  0  0
  -28.7089   18.1745   40.1791 C   0  0  0  0  0  0  0  0  0  0  0  0
  -29.0155   19.2096   39.5878 O   0  0  0  0  0  0  0  0  0  0  0  0
  -27.3705   17.9793   40.8590 C   0  0  0  0  0  0  0  0  0  0  0  0
  -26.4389   19.0430   40.5446 N   0  0  0  0  0  0  0  0  0  0  0  0
  -31.8966   20.5333   35.2758 P   0  0  1  0  0  0  0  0  0  0  0  0
  -32.3095   21.3248   36.5128 O   0  0  0  0  0  0  0  0  0  0  0  0
  -30.4238   20.6898   34.9603 O   0  0  0  0  0  0  0  0  0  0  0  0
  -32.8148   20.6789   34.0821 O   0  0  0  0  0  0  0  0  0  0  0  0
  -32.8239   19.1469   38.0493 H   0  0  0  0  0  0  0  0  0  0  0  0
  -33.6948   17.3553   39.7865 H   0  0  0  0  0  0  0  0  0  0  0  0
  -30.9885   19.2336   39.7508 H   0  0  0  0  0  0  0  0  0  0  0  0
  -31.7387   18.3403   41.6746 H   0  0  0  0  0  0  0  0  0  0  0  0
  -31.2943   16.1882   40.0568 H   0  0  0  0  0  0  0  0  0  0  0  0
  -32.2162   16.6759   36.9341 H   0  0  0  0  0  0  0  0  0  0  0  0
  -30.3767   19.0913   36.8595 H   0  0  0  0  0  0  0  0  0  0  0  0
  -30.4501   17.7524   35.6658 H   0  0  0  0  0  0  0  0  0  0  0  0
  -29.2367   16.3441   40.9193 H   0  0  0  0  0  0  0  0  0  0  0  0
  -27.5261   17.9544   41.9476 H   0  0  0  0  0  0  0  0  0  0  0  0
  -26.9407   17.0343   40.4953 H   0  0  0  0  0  0  0  0  0  0  0  0
  -26.0792   19.4537   41.4180 H   0  0  0  0  0  0  0  0  0  0  0  0
  -25.6548   18.6618   39.9961 H   0  0  0  0  0  0  0  0  0  0  0  0
  -26.9201   19.7700   39.9961 H   0  0  0  0  0  0  0  0  0  0  0  0
  1  2  1  0
  1  3  1  0
  1  7  1  0
  3  4  1  0
  3  5  1  0
  5  6  1  0
  5 10  1  0
  6  7  1  0
  7  8  1  0
  8  9  1  0
  9 15  1  0
 10 11  1  0
 11 12  2  0
 11 13  1  0
 13 14  1  0
 15 16  2  0
 15 17  1  6
 15 18  1  0
  1 19  1  6
  2 20  1  0
  3 21  1  6
  4 22  1  0
  5 23  1  1
  7 24  1  6
  8 25  1  0
  8 26  1  0
 10 27  1  0
 13 28  1  0
 13 29  1  0
 14 30  1  0
 14 31  1  0
 14 32  1  0
M  CHG  3  14   1  17  -1  18  -1
M  END
>  <filename_input>  (20) 
7JG0_GAR_docked.sdf

>  <pdb_id>  (20) 
7JG0_GAR

>  <pose_rank>  (20) 
19

>  <num_atoms_heavy>  (20) 
18

>  <num_torsions>  (20) 
5

>  <pose>  (20) 
[-32.47755118817493, 18.184805428424053, 38.45483688774929, -2.4502782080439376, 3.1091065639688455, -1.146335403119549, -9.453517710971092, -6.0858389579103145, 0.3032271314929251, -12.991023755479533, -6.642869411231534]

>  <energy>  (20) 
-242.35791037500468

>  <inter_energy>  (20) 
-265.934867870903

>  <intra_energy>  (20) 
24.633576201502816

>  <rmsd>  (20) 
5.23725

>  <sdf_rank>  (20) 
0

$$$$

     RDKit          3D

 32 32  0  0  0  0  0  0  0  0999 V2000
  -34.5877   18.7207   37.5415 C   0  0  1  0  0  0  0  0  0  0  0  0
  -35.7515   19.5384   37.5091 O   0  0  0  0  0  0  0  0  0  0  0  0
  -34.8065   17.6256   38.5964 C   0  0  1  0  0  0  0  0  0  0  0  0
  -35.5269   18.0777   39.7195 O   0  0  0  0  0  0  0  0  0  0  0  0
  -35.5339   16.5633   37.7525 C   0  0  1  0  0  0  0  0  0  0  0  0
  -34.9276   16.6288   36.4456 O   0  0  0  0  0  0  0  0  0  0  0  0
  -34.4353   17.9574   36.2224 C   0  0  2  0  0  0  0  0  0  0  0  0
  -32.9934   17.8771   35.7706 C   0  0  0  0  0  0  0  0  0  0  0  0
  -32.4646   19.1936   35.6455 O   0  0  0  0  0  0  0  0  0  0  0  0
  -35.4091   15.2458   38.2916 N   0  0  0  0  0  0  0  0  0  0  0  0
  -34.2600   14.5686   38.2415 C   0  0  0  0  0  0  0  0  0  0  0  0
  -33.1909   15.0557   37.8745 O   0  0  0  0  0  0  0  0  0  0  0  0
  -34.3974   13.1323   38.6992 C   0  0  0  0  0  0  0  0  0  0  0  0
  -34.6166   13.0337   40.1277 N   0  0  0  0  0  0  0  0  0  0  0  0
  -30.9147   19.4305   35.9711 P   0  0  1  0  0  0  0  0  0  0  0  0
  -30.4185   18.0562   36.4097 O   0  0  0  0  0  0  0  0  0  0  0  0
  -30.2774   19.8830   34.6741 O   0  0  0  0  0  0  0  0  0  0  0  0
  -30.9433   20.4820   37.0586 O   0  0  0  0  0  0  0  0  0  0  0  0
  -33.7178   19.3638   37.7408 H   0  0  0  0  0  0  0  0  0  0  0  0
  -36.0388   19.7403   38.4347 H   0  0  0  0  0  0  0  0  0  0  0  0
  -33.8891   17.2508   39.0738 H   0  0  0  0  0  0  0  0  0  0  0  0
  -35.0654   17.7881   40.5460 H   0  0  0  0  0  0  0  0  0  0  0  0
  -36.6143   16.7689   37.7312 H   0  0  0  0  0  0  0  0  0  0  0  0
  -34.9944   18.4845   35.4352 H   0  0  0  0  0  0  0  0  0  0  0  0
  -32.4070   17.3146   36.5121 H   0  0  0  0  0  0  0  0  0  0  0  0
  -32.9401   17.3650   34.7986 H   0  0  0  0  0  0  0  0  0  0  0  0
  -36.2299   14.8059   38.7317 H   0  0  0  0  0  0  0  0  0  0  0  0
  -35.2502   12.6738   38.1771 H   0  0  0  0  0  0  0  0  0  0  0  0
  -33.4579   12.6107   38.4641 H   0  0  0  0  0  0  0  0  0  0  0  0
  -33.7951   13.4031   40.6274 H   0  0  0  0  0  0  0  0  0  0  0  0
  -35.4501   13.5811   40.3857 H   0  0  0  0  0  0  0  0  0  0  0  0
  -34.7604   12.0470   40.3857 H   0  0  0  0  0  0  0  0  0  0  0  0
  1  2  1  0
  1  3  1  0
  1  7  1  0
  3  4  1  0
  3  5  1  0
  5  6  1  0
  5 10  1  0
  6  7  1  0
  7  8  1  0
  8  9  1  0
  9 15  1  0
 10 11  1  0
 11 12  2  0
 11 13  1  0
 13 14  1  0
 15 16  2  0
 15 17  1  6
 15 18  1  0
  1 19  1  1
  2 20  1  0
  3 21  1  1
  4 22  1  0
  5 23  1  6
  7 24  1  6
  8 25  1  0
  8 26  1  0
 10 27  1  0
 13 28  1  0
 13 29  1  0
 14 30  1  0
 14 31  1  0
 14 32  1  0
M  CHG  3  14   1  17  -1  18  -1
M  END
>  <filename_input>  (21) 
7JG0_GAR_docked.sdf

>  <pdb_id>  (21) 
7JG0_GAR

>  <pose_rank>  (21) 
20

>  <num_atoms_heavy>  (21) 
18

>  <num_torsions>  (21) 
5

>  <pose>  (21) 
[-34.58770865221709, 18.720741899448765, 37.54148287444195, 0.29818952650520136, -2.502040094018451, -0.46619821274535417, -9.884143564291316, -4.025802574708763, 0.3078627197216001, -12.910095899361936, -5.174633792710849]

>  <energy>  (21) 
-254.4755983037491

>  <inter_energy>  (21) 
-268.77718480899637

>  <intra_energy>  (21) 
20.001854459523443

>  <rmsd>  (21) 
6.51342

>  <sdf_rank>  (21) 
0

$$$$

     RDKit          3D

 32 32  0  0  0  0  0  0  0  0999 V2000
  -32.1913   20.6191   35.8100 C   0  0  1  0  0  0  0  0  0  0  0  0
  -31.4859   21.7290   36.3528 O   0  0  0  0  0  0  0  0  0  0  0  0
  -31.4451   20.1525   34.5508 C   0  0  1  0  0  0  0  0  0  0  0  0
  -30.8900   21.2163   33.8127 O   0  0  0  0  0  0  0  0  0  0  0  0
  -30.4124   19.1960   35.1740 C   0  0  1  0  0  0  0  0  0  0  0  0
  -31.0973   18.5483   36.2653 O   0  0  0  0  0  0  0  0  0  0  0  0
  -32.1189   19.4230   36.7639 C   0  0  2  0  0  0  0  0  0  0  0  0
  -33.4260   18.6635   36.8300 C   0  0  0  0  0  0  0  0  0  0  0  0
  -34.3367   19.2089   35.8805 O   0  0  0  0  0  0  0  0  0  0  0  0
  -29.9265   18.2236   34.2464 N   0  0  0  0  0  0  0  0  0  0  0  0
  -28.7804   17.5691   34.4456 C   0  0  0  0  0  0  0  0  0  0  0  0
  -28.1284   17.6269   35.4880 O   0  0  0  0  0  0  0  0  0  0  0  0
  -28.3635   16.7279   33.2582 C   0  0  0  0  0  0  0  0  0  0  0  0
  -27.5513   17.4744   32.3194 N   0  0  0  0  0  0  0  0  0  0  0  0
  -35.9054   19.1346   36.1936 P   0  0  1  0  0  0  0  0  0  0  0  0
  -36.3897   17.9529   35.3594 O   0  0  0  0  0  0  0  0  0  0  0  0
  -36.0249   18.8739   37.6806 O   0  0  0  0  0  0  0  0  0  0  0  0
  -36.4144   20.4883   35.7492 O   0  0  0  0  0  0  0  0  0  0  0  0
  -33.2308   20.9269   35.6235 H   0  0  0  0  0  0  0  0  0  0  0  0
  -31.5133   21.6859   37.3414 H   0  0  0  0  0  0  0  0  0  0  0  0
  -32.0767   19.6754   33.7869 H   0  0  0  0  0  0  0  0  0  0  0  0
  -30.5338   21.8990   34.4348 H   0  0  0  0  0  0  0  0  0  0  0  0
  -29.5243   19.7564   35.5015 H   0  0  0  0  0  0  0  0  0  0  0  0
  -31.9011   19.7855   37.7793 H   0  0  0  0  0  0  0  0  0  0  0  0
  -33.2466   17.6029   36.5997 H   0  0  0  0  0  0  0  0  0  0  0  0
  -33.8517   18.7505   37.8406 H   0  0  0  0  0  0  0  0  0  0  0  0
  -30.4767   18.0219   33.3993 H   0  0  0  0  0  0  0  0  0  0  0  0
  -27.7846   15.8655   33.6204 H   0  0  0  0  0  0  0  0  0  0  0  0
  -29.2757   16.4052   32.7349 H   0  0  0  0  0  0  0  0  0  0  0  0
  -26.8954   18.0772   32.8363 H   0  0  0  0  0  0  0  0  0  0  0  0
  -27.0214   16.8192   31.7271 H   0  0  0  0  0  0  0  0  0  0  0  0
  -28.1596   18.0575   31.7271 H   0  0  0  0  0  0  0  0  0  0  0  0
  1  2  1  0
  1  3  1  0
  1  7  1  0
  3  4  1  0
  3  5  1  0
  5  6  1  0
  5 10  1  0
  6  7  1  0
  7  8  1  0
  8  9  1  0
  9 15  1  0
 10 11  1  0
 11 12  2  0
 11 13  1  0
 13 14  1  0
 15 16  2  0
 15 17  1  1
 15 18  1  0
  1 19  1  6
  2 20  1  0
  3 21  1  6
  4 22  1  0
  5 23  1  1
  7 24  1  1
  8 25  1  0
  8 26  1  0
 10 27  1  0
 13 28  1  0
 13 29  1  0
 14 30  1  0
 14 31  1  0
 14 32  1  0
M  CHG  3  14   1  17  -1  18  -1
M  END
>  <filename_input>  (22) 
7JG0_GAR_docked.sdf

>  <pdb_id>  (22) 
7JG0_GAR

>  <pose_rank>  (22) 
21

>  <num_atoms_heavy>  (22) 
18

>  <num_torsions>  (22) 
5

>  <pose>  (22) 
[-32.19132315875778, 20.619121269343715, 35.810011807417936, -14.746047436555413, 51.40990241814323, 33.83016866757174, -12.114424196566837, -1.2375850986959547, -23.734261937078877, 0.7500201332728631, 5.673618454101253]

>  <energy>  (22) 
-451.3109950969667

>  <inter_energy>  (22) 
-452.8149830413354

>  <intra_energy>  (22) 
3.508455439585652

>  <rmsd>  (22) 
1.37209

>  <sdf_rank>  (22) 
0

$$$$

     RDKit          3D

 32 32  0  0  0  0  0  0  0  0999 V2000
  -36.2137   17.5392   39.7486 C   0  0  1  0  0  0  0  0  0  0  0  0
  -36.8893   16.3457   40.1269 O   0  0  0  0  0  0  0  0  0  0  0  0
  -34.9973   17.7086   40.6716 C   0  0  1  0  0  0  0  0  0  0  0  0
  -35.2440   17.2852   41.9924 O   0  0  0  0  0  0  0  0  0  0  0  0
  -33.9507   16.8716   39.9142 C   0  0  1  0  0  0  0  0  0  0  0  0
  -34.2210   17.0920   38.5149 O   0  0  0  0  0  0  0  0  0  0  0  0
  -35.6138   17.3911   38.3471 C   0  0  2  0  0  0  0  0  0  0  0  0
  -35.7489   18.6573   37.5298 C   0  0  0  0  0  0  0  0  0  0  0  0
  -34.9548   18.5456   36.3527 O   0  0  0  0  0  0  0  0  0  0  0  0
  -32.6079   17.2490   40.2254 N   0  0  0  0  0  0  0  0  0  0  0  0
  -32.2065   18.5215   40.1911 C   0  0  0  0  0  0  0  0  0  0  0  0
  -32.9666   19.4779   40.0414 O   0  0  0  0  0  0  0  0  0  0  0  0
  -30.7116   18.6770   40.3715 C   0  0  0  0  0  0  0  0  0  0  0  0
  -30.1016   17.4837   40.9212 N   0  0  0  0  0  0  0  0  0  0  0  0
  -34.1360   19.8292   35.8566 P   0  0  1  0  0  0  0  0  0  0  0  0
  -32.9878   19.9394   36.8550 O   0  0  0  0  0  0  0  0  0  0  0  0
  -33.6514   19.5039   34.4593 O   0  0  0  0  0  0  0  0  0  0  0  0
  -35.1579   20.9428   35.9249 O   0  0  0  0  0  0  0  0  0  0  0  0
  -36.9295   18.3730   39.7974 H   0  0  0  0  0  0  0  0  0  0  0  0
  -36.9238   16.2848   41.1144 H   0  0  0  0  0  0  0  0  0  0  0  0
  -34.6844   18.7495   40.8409 H   0  0  0  0  0  0  0  0  0  0  0  0
  -34.8612   17.9421   42.6264 H   0  0  0  0  0  0  0  0  0  0  0  0
  -34.0303   15.8127   40.2014 H   0  0  0  0  0  0  0  0  0  0  0  0
  -36.1508   16.5967   37.8082 H   0  0  0  0  0  0  0  0  0  0  0  0
  -36.8026   18.8030   37.2496 H   0  0  0  0  0  0  0  0  0  0  0  0
  -35.4071   19.5174   38.1242 H   0  0  0  0  0  0  0  0  0  0  0  0
  -31.9301   16.5177   40.4836 H   0  0  0  0  0  0  0  0  0  0  0  0
  -30.2566   18.8893   39.3928 H   0  0  0  0  0  0  0  0  0  0  0  0
  -30.5400   19.5016   41.0790 H   0  0  0  0  0  0  0  0  0  0  0  0
  -30.1247   17.5290   41.9499 H   0  0  0  0  0  0  0  0  0  0  0  0
  -30.6219   16.6540   40.6022 H   0  0  0  0  0  0  0  0  0  0  0  0
  -29.1243   17.4196   40.6022 H   0  0  0  0  0  0  0  0  0  0  0  0
  1  2  1  0
  1  3  1  0
  1  7  1  0
  3  4  1  0
  3  5  1  0
  5  6  1  0
  5 10  1  0
  6  7  1  0
  7  8  1  0
  8  9  1  0
  9 15  1  0
 10 11  1  0
 11 12  2  0
 11 13  1  0
 13 14  1  0
 15 16  2  0
 15 17  1  6
 15 18  1  0
  1 19  1  6
  2 20  1  0
  3 21  1  1
  4 22  1  0
  5 23  1  6
  7 24  1  6
  8 25  1  0
  8 26  1  0
 10 27  1  0
 13 28  1  0
 13 29  1  0
 14 30  1  0
 14 31  1  0
 14 32  1  0
M  CHG  3  14   1  17  -1  18  -1
M  END
>  <filename_input>  (23) 
7JG0_GAR_docked.sdf

>  <pdb_id>  (23) 
7JG0_GAR

>  <pose_rank>  (23) 
22

>  <num_atoms_heavy>  (23) 
18

>  <num_torsions>  (23) 
5

>  <pose>  (23) 
[-36.21366475158834, 17.53915415568896, 39.74860754341637, 6.868325224098883, -4.834793101534708, 1.22416131557323, -9.493450532465133, -3.0831949483207146, -2.0306351659449504, -11.635703861556612, -3.8543740056766653]

>  <energy>  (23) 
-196.72367995916986

>  <inter_energy>  (23) 
-222.26967050749977

>  <intra_energy>  (23) 
24.575497305012675

>  <rmsd>  (23) 
6.26695

>  <sdf_rank>  (23) 
0

$$$$

     RDKit          3D

 32 32  0  0  0  0  0  0  0  0999 V2000
  -38.3348   24.9111   39.7386 C   0  0  1  0  0  0  0  0  0  0  0  0
  -38.1565   23.5405   39.4018 O   0  0  0  0  0  0  0  0  0  0  0  0
  -38.1907   25.0479   41.2620 C   0  0  1  0  0  0  0  0  0  0  0  0
  -38.7231   23.9506   41.9670 O   0  0  0  0  0  0  0  0  0  0  0  0
  -36.6652   25.2118   41.3867 C   0  0  1  0  0  0  0  0  0  0  0  0
  -36.2668   25.9903   40.2400 O   0  0  0  0  0  0  0  0  0  0  0  0
  -37.1901   25.7538   39.1681 C   0  0  2  0  0  0  0  0  0  0  0  0
  -37.6710   27.0846   38.6319 C   0  0  0  0  0  0  0  0  0  0  0  0
  -39.0668   27.2170   38.8819 O   0  0  0  0  0  0  0  0  0  0  0  0
  -36.2749   25.8707   42.5932 N   0  0  0  0  0  0  0  0  0  0  0  0
  -35.0478   25.7421   43.1024 C   0  0  0  0  0  0  0  0  0  0  0  0
  -34.1175   25.1843   42.5207 O   0  0  0  0  0  0  0  0  0  0  0  0
  -34.9055   26.3687   44.4730 C   0  0  0  0  0  0  0  0  0  0  0  0
  -34.9846   27.8142   44.4226 N   0  0  0  0  0  0  0  0  0  0  0  0
  -39.9621   28.0170   37.8223 P   0  0  1  0  0  0  0  0  0  0  0  0
  -39.3835   29.4283   37.8455 O   0  0  0  0  0  0  0  0  0  0  0  0
  -39.7480   27.3315   36.4891 O   0  0  0  0  0  0  0  0  0  0  0  0
  -41.3627   27.8860   38.3794 O   0  0  0  0  0  0  0  0  0  0  0  0
  -39.3113   25.2387   39.3524 H   0  0  0  0  0  0  0  0  0  0  0  0
  -38.0867   23.0034   40.2305 H   0  0  0  0  0  0  0  0  0  0  0  0
  -38.7570   25.8781   41.7093 H   0  0  0  0  0  0  0  0  0  0  0  0
  -38.6439   24.1138   42.9403 H   0  0  0  0  0  0  0  0  0  0  0  0
  -36.1784   24.2261   41.4218 H   0  0  0  0  0  0  0  0  0  0  0  0
  -36.7284   25.2123   38.3293 H   0  0  0  0  0  0  0  0  0  0  0  0
  -37.1291   27.9000   39.1333 H   0  0  0  0  0  0  0  0  0  0  0  0
  -37.4845   27.1342   37.5489 H   0  0  0  0  0  0  0  0  0  0  0  0
  -36.9605   26.4620   43.0843 H   0  0  0  0  0  0  0  0  0  0  0  0
  -35.7110   25.9918   45.1205 H   0  0  0  0  0  0  0  0  0  0  0  0
  -33.9155   26.0973   44.8682 H   0  0  0  0  0  0  0  0  0  0  0  0
  -35.0052   28.1905   45.3812 H   0  0  0  0  0  0  0  0  0  0  0  0
  -34.1627   28.1859   43.9254 H   0  0  0  0  0  0  0  0  0  0  0  0
  -35.8422   28.0940   43.9254 H   0  0  0  0  0  0  0  0  0  0  0  0
  1  2  1  0
  1  3  1  0
  1  7  1  0
  3  4  1  0
  3  5  1  0
  5  6  1  0
  5 10  1  0
  6  7  1  0
  7  8  1  0
  8  9  1  0
  9 15  1  0
 10 11  1  0
 11 12  2  0
 11 13  1  0
 13 14  1  0
 15 16  2  0
 15 17  1  6
 15 18  1  0
  1 19  1  6
  2 20  1  0
  3 21  1  1
  4 22  1  0
  5 23  1  6
  7 24  1  6
  8 25  1  0
  8 26  1  0
 10 27  1  0
 13 28  1  0
 13 29  1  0
 14 30  1  0
 14 31  1  0
 14 32  1  0
M  CHG  3  14   1  17  -1  18  -1
M  END
>  <filename_input>  (24) 
7JG0_GAR_docked.sdf

>  <pdb_id>  (24) 
7JG0_GAR

>  <pose_rank>  (24) 
23

>  <num_atoms_heavy>  (24) 
18

>  <num_torsions>  (24) 
5

>  <pose>  (24) 
[-38.33480476387075, 24.911146323065562, 39.738634556560314, -2.6534174532189807, 1.3279544965581422, -1.3197311698410776, -5.865196966138455, -3.992280905808297, -4.918033616426731, 0.8112562234951506, 0.06023414508207773]

>  <energy>  (24) 
-201.36448569012063

>  <inter_energy>  (24) 
-175.53215363781723

>  <intra_energy>  (24) 
2.878746747483495

>  <rmsd>  (24) 
10.9793

>  <sdf_rank>  (24) 
0

$$$$

     RDKit          3D

 32 32  0  0  0  0  0  0  0  0999 V2000
  -34.2485   19.0198   36.6850 C   0  0  1  0  0  0  0  0  0  0  0  0
  -34.8071   18.8075   37.9761 O   0  0  0  0  0  0  0  0  0  0  0  0
  -35.2729   18.5484   35.6416 C   0  0  1  0  0  0  0  0  0  0  0  0
  -35.9918   17.4080   36.0506 O   0  0  0  0  0  0  0  0  0  0  0  0
  -36.1235   19.8220   35.4870 C   0  0  1  0  0  0  0  0  0  0  0  0
  -35.1954   20.9203   35.5968 O   0  0  0  0  0  0  0  0  0  0  0  0
  -34.0868   20.5185   36.4136 C   0  0  2  0  0  0  0  0  0  0  0  0
  -32.7996   20.8324   35.6829 C   0  0  0  0  0  0  0  0  0  0  0  0
  -31.7341   20.0864   36.2632 O   0  0  0  0  0  0  0  0  0  0  0  0
  -36.8142   19.8795   34.2373 N   0  0  0  0  0  0  0  0  0  0  0  0
  -36.1667   20.0242   33.0791 C   0  0  0  0  0  0  0  0  0  0  0  0
  -34.9423   19.9712   32.9651 O   0  0  0  0  0  0  0  0  0  0  0  0
  -37.0950   20.2472   31.9044 C   0  0  0  0  0  0  0  0  0  0  0  0
  -38.0636   19.1792   31.7644 N   0  0  0  0  0  0  0  0  0  0  0  0
  -30.3048   20.1043   35.5414 P   0  0  1  0  0  0  0  0  0  0  0  0
  -30.5826   20.7655   34.1951 O   0  0  0  0  0  0  0  0  0  0  0  0
  -29.4020   20.9465   36.4183 O   0  0  0  0  0  0  0  0  0  0  0  0
  -29.9293   18.6401   35.4745 O   0  0  0  0  0  0  0  0  0  0  0  0
  -33.2849   18.4919   36.6333 H   0  0  0  0  0  0  0  0  0  0  0  0
  -34.1448   19.0592   38.6676 H   0  0  0  0  0  0  0  0  0  0  0  0
  -34.8409   18.1943   34.6939 H   0  0  0  0  0  0  0  0  0  0  0  0
  -36.0157   17.3701   37.0395 H   0  0  0  0  0  0  0  0  0  0  0  0
  -36.9092   19.8503   36.2563 H   0  0  0  0  0  0  0  0  0  0  0  0
  -34.0565   21.0564   37.3726 H   0  0  0  0  0  0  0  0  0  0  0  0
  -32.9035   20.5601   34.6222 H   0  0  0  0  0  0  0  0  0  0  0  0
  -32.5830   21.9078   35.7641 H   0  0  0  0  0  0  0  0  0  0  0  0
  -37.8416   19.8070   34.2301 H   0  0  0  0  0  0  0  0  0  0  0  0
  -37.6319   21.1959   32.0518 H   0  0  0  0  0  0  0  0  0  0  0  0
  -36.4840   20.2721   30.9900 H   0  0  0  0  0  0  0  0  0  0  0  0
  -38.3562   18.8566   32.6978 H   0  0  0  0  0  0  0  0  0  0  0  0
  -38.8846   19.5259   31.2479 H   0  0  0  0  0  0  0  0  0  0  0  0
  -37.6388   18.3959   31.2479 H   0  0  0  0  0  0  0  0  0  0  0  0
  1  2  1  0
  1  3  1  0
  1  7  1  0
  3  4  1  0
  3  5  1  0
  5  6  1  0
  5 10  1  0
  6  7  1  0
  7  8  1  0
  8  9  1  0
  9 15  1  0
 10 11  1  0
 11 12  2  0
 11 13  1  0
 13 14  1  0
 15 16  2  0
 15 17  1  1
 15 18  1  0
  1 19  1  1
  2 20  1  0
  3 21  1  6
  4 22  1  0
  5 23  1  1
  7 24  1  1
  8 25  1  0
  8 26  1  0
 10 27  1  0
 13 28  1  0
 13 29  1  0
 14 30  1  0
 14 31  1  0
 14 32  1  0
M  CHG  3  14   1  17  -1  18  -1
M  END
>  <filename_input>  (25) 
7JG0_GAR_docked.sdf

>  <pdb_id>  (25) 
7JG0_GAR

>  <pose_rank>  (25) 
24

>  <num_atoms_heavy>  (25) 
18

>  <num_torsions>  (25) 
5

>  <pose>  (25) 
[-34.24853585681831, 19.019769637774257, 36.68497273745061, 0.03559292651409106, -1.0078023982049786, -2.704015062665927, -9.809146359370963, -3.7796355466176026, 0.5424229463956283, -12.471350467227952, -5.324581291537199]

>  <energy>  (25) 
-310.48477270985927

>  <inter_energy>  (25) 
-336.1006018999838

>  <intra_energy>  (25) 
19.61286198042567

>  <rmsd>  (25) 
6.60908

>  <sdf_rank>  (25) 
0

$$$$

     RDKit          3D

 32 32  0  0  0  0  0  0  0  0999 V2000
  -31.6700   21.3960   35.4390 C   0  0  1  0  0  0  0  0  0  0  0  0
  -30.9930   22.2580   36.3460 O   0  0  0  0  0  0  0  0  0  0  0  0
  -30.6320   20.8300   34.4580 C   0  0  1  0  0  0  0  0  0  0  0  0
  -29.6300   21.7600   34.1180 O   0  0  0  0  0  0  0  0  0  0  0  0
  -30.1320   19.6090   35.2510 C   0  0  1  0  0  0  0  0  0  0  0  0
  -31.2920   19.0930   35.9350 O   0  0  0  0  0  0  0  0  0  0  0  0
  -32.2120   20.1670   36.1750 C   0  0  2  0  0  0  0  0  0  0  0  0
  -33.5820   19.7600   35.6780 C   0  0  0  0  0  0  0  0  0  0  0  0
  -34.5550   20.6720   36.1780 O   0  0  0  0  0  0  0  0  0  0  0  0
  -29.5600   18.6010   34.4150 N   0  0  0  0  0  0  0  0  0  0  0  0
  -28.4040   18.0060   34.7170 C   0  0  0  0  0  0  0  0  0  0  0  0
  -27.8140   18.1540   35.7870 O   0  0  0  0  0  0  0  0  0  0  0  0
  -27.8910   17.1100   33.6100 C   0  0  0  0  0  0  0  0  0  0  0  0
  -26.4710   16.8510   33.7320 N   0  0  0  0  0  0  0  0  0  0  0  0
  -36.0240   20.6500   35.5410 P   0  0  1  0  0  0  0  0  0  0  0  0
  -35.8060   21.1070   34.1020 O   0  0  0  0  0  0  0  0  0  0  0  0
  -36.4950   19.2130   35.6210 O   0  0  0  0  0  0  0  0  0  0  0  0
  -36.7970   21.6150   36.4130 O   0  0  0  0  0  0  0  0  0  0  0  0
  -32.4759   21.9668   34.9545 H   0  0  0  0  0  0  0  0  0  0  0  0
  -31.2035   21.9900   37.2755 H   0  0  0  0  0  0  0  0  0  0  0  0
  -31.0250   20.5733   33.4632 H   0  0  0  0  0  0  0  0  0  0  0  0
  -29.2302   22.1311   34.9441 H   0  0  0  0  0  0  0  0  0  0  0  0
  -29.3285   19.9066   35.9408 H   0  0  0  0  0  0  0  0  0  0  0  0
  -32.3105   20.4030   37.2449 H   0  0  0  0  0  0  0  0  0  0  0  0
  -33.5937   19.7769   34.5782 H   0  0  0  0  0  0  0  0  0  0  0  0
  -33.8145   18.7441   36.0299 H   0  0  0  0  0  0  0  0  0  0  0  0
  -30.0542   18.3256   33.5543 H   0  0  0  0  0  0  0  0  0  0  0  0
  -28.4308   16.1524   33.6500 H   0  0  0  0  0  0  0  0  0  0  0  0
  -28.0603   17.6242   32.6524 H   0  0  0  0  0  0  0  0  0  0  0  0
  -26.2149   16.8043   34.7285 H   0  0  0  0  0  0  0  0  0  0  0  0
  -26.2451   15.9549   33.2771 H   0  0  0  0  0  0  0  0  0  0  0  0
  -25.9433   17.6096   33.2771 H   0  0  0  0  0  0  0  0  0  0  0  0
  1  2  1  0
  1  3  1  0
  1  7  1  0
  3  4  1  0
  3  5  1  0
  5  6  1  0
  5 10  1  0
  6  7  1  0
  7  8  1  0
  8  9  1  0
  9 15  1  0
 10 11  1  0
 11 12  2  0
 11 13  1  0
 13 14  1  0
 15 16  2  0
 15 17  1  6
 15 18  1  0
  1 19  1  6
  2 20  1  0
  3 21  1  6
  4 22  1  0
  5 23  1  1
  7 24  1  1
  8 25  1  0
  8 26  1  0
 10 27  1  0
 13 28  1  0
 13 29  1  0
 14 30  1  0
 14 31  1  0
 14 32  1  0
M  CHG  3  14   1  17  -1  18  -1
M  END
>  <filename_input>  (26) 
7JG0_GAR_docked.sdf

>  <pdb_id>  (26) 
7JG0_GAR

>  <pose_rank>  (26) 
25

>  <num_atoms_heavy>  (26) 
18

>  <num_torsions>  (26) 
5

>  <pose>  (26) 
[-31.67, 21.396, 35.439, 1e-06, 1e-06, 1e-06, 0.0, 0.0, 0.0, 0.0, 0.0]

>  <energy>  (26) 
-726.9410776702622

>  <inter_energy>  (26) 
-720.4710363931049

>  <intra_energy>  (26) 
0.0

>  <rmsd>  (26) 
0.0

>  <sdf_rank>  (26) 
0

$$$$
