
     RDKit          3D

 16 16  0  0  0  0  0  0  0  0999 V2000
   33.6624  -25.0348   -8.4883 C   0  0  0  0  0  0  0  0  0  0  0  0
   33.2663  -25.8281   -9.5328 C   0  0  0  0  0  0  0  0  0  0  0  0
   33.0465  -27.1714   -9.3345 C   0  0  0  0  0  0  0  0  0  0  0  0
   33.2339  -27.7132   -8.0691 C   0  0  0  0  0  0  0  0  0  0  0  0
   33.6314  -26.9178   -7.0099 C   0  0  0  0  0  0  0  0  0  0  0  0
   33.8571  -25.5654   -7.2177 C   0  0  0  0  0  0  0  0  0  0  0  0
   33.7958  -23.6848   -8.6680 O   0  0  0  0  0  0  0  0  0  0  0  0
   33.1010  -25.2621  -10.7868 O   0  0  0  0  0  0  0  0  0  0  0  0
   32.9016  -29.0996   -7.8560 N   0  0  0  0  0  0  0  0  0  0  0  0
   32.7423  -29.8769   -8.7441 O   0  0  0  0  0  0  0  0  0  0  0  0
   33.0448  -29.5861   -6.5574 O   0  0  0  0  0  0  0  0  0  0  0  0
   32.7253  -27.8106  -10.1701 H   0  0  0  0  0  0  0  0  0  0  0  0
   33.7675  -27.3548   -6.0096 H   0  0  0  0  0  0  0  0  0  0  0  0
   34.1857  -24.9212   -6.3888 H   0  0  0  0  0  0  0  0  0  0  0  0
   34.0821  -23.1110   -7.9138 H   0  0  0  0  0  0  0  0  0  0  0  0
   32.8151  -25.8244  -11.5499 H   0  0  0  0  0  0  0  0  0  0  0  0
  1  2  2  0
  1  6  1  0
  1  7  1  0
  2  3  1  0
  2  8  1  0
  3  4  2  0
  4  5  1  0
  4  9  1  0
  5  6  2  0
  9 10  2  0
  9 11  1  0
  3 12  1  0
  5 13  1  0
  6 14  1  0
  7 15  1  0
  8 16  1  0
M  CHG  2   9   1  11  -1
M  END
>  <filename_input>  (1) 
7JMV_4NC_docked.sdf

>  <pdb_id>  (1) 
7JMV_4NC

>  <pose_rank>  (1) 
0

>  <num_atoms_heavy>  (1) 
11

>  <num_torsions>  (1) 
1

>  <pose>  (1) 
[33.6624272888767, -25.03481368758611, -8.488318216309102, 3.2577888970794597, -0.7469188834098619, -0.19024867715359783, -2.807893763859804]

>  <energy>  (1) 
-498.34691072379917

>  <inter_energy>  (1) 
-497.1779659176904

>  <intra_energy>  (1) 
0.0

>  <rmsd>  (1) 
4.45281

>  <sdf_rank>  (1) 
0

$$$$

     RDKit          3D

 16 16  0  0  0  0  0  0  0  0999 V2000
   33.5432  -25.3335  -10.1072 C   0  0  0  0  0  0  0  0  0  0  0  0
   33.2373  -25.1950   -8.7789 C   0  0  0  0  0  0  0  0  0  0  0  0
   33.0500  -26.3089   -7.9939 C   0  0  0  0  0  0  0  0  0  0  0  0
   33.1700  -27.5710   -8.5619 C   0  0  0  0  0  0  0  0  0  0  0  0
   33.4809  -27.7181   -9.9015 C   0  0  0  0  0  0  0  0  0  0  0  0
   33.6625  -26.5911  -10.6888 C   0  0  0  0  0  0  0  0  0  0  0  0
   33.8145  -24.2268  -10.8649 O   0  0  0  0  0  0  0  0  0  0  0  0
   33.1104  -23.9232   -8.2434 O   0  0  0  0  0  0  0  0  0  0  0  0
   33.0713  -28.7257   -7.7047 N   0  0  0  0  0  0  0  0  0  0  0  0
   33.1765  -29.8439   -8.1008 O   0  0  0  0  0  0  0  0  0  0  0  0
   33.1269  -28.4934   -6.3312 O   0  0  0  0  0  0  0  0  0  0  0  0
   32.8075  -26.2013   -6.9264 H   0  0  0  0  0  0  0  0  0  0  0  0
   33.5833  -28.7220  -10.3393 H   0  0  0  0  0  0  0  0  0  0  0  0
   33.8979  -26.6904  -11.7587 H   0  0  0  0  0  0  0  0  0  0  0  0
   34.0355  -24.3261  -11.8247 H   0  0  0  0  0  0  0  0  0  0  0  0
   32.8897  -23.8093   -7.2850 H   0  0  0  0  0  0  0  0  0  0  0  0
  1  2  2  0
  1  6  1  0
  1  7  1  0
  2  3  1  0
  2  8  1  0
  3  4  2  0
  4  5  1  0
  4  9  1  0
  5  6  2  0
  9 10  2  0
  9 11  1  0
  3 12  1  0
  5 13  1  0
  6 14  1  0
  7 15  1  0
  8 16  1  0
M  CHG  2   9   1  11  -1
M  END
>  <filename_input>  (2) 
7JMV_4NC_docked.sdf

>  <pdb_id>  (2) 
7JMV_4NC

>  <pose_rank>  (2) 
1

>  <num_atoms_heavy>  (2) 
11

>  <num_torsions>  (2) 
1

>  <pose>  (2) 
[33.54317121815006, -25.333523173756358, -10.107177406270097, -0.3070678399172966, 1.5927544779761804, 2.8435715457049335, 0.06648884678834321]

>  <energy>  (2) 
-504.88482302542405

>  <inter_energy>  (2) 
-500.2643060058222

>  <intra_energy>  (2) 
0.0

>  <rmsd>  (2) 
4.03341

>  <sdf_rank>  (2) 
0

$$$$

     RDKit          3D

 16 16  0  0  0  0  0  0  0  0999 V2000
   32.9202  -28.7360   -8.3980 C   0  0  0  0  0  0  0  0  0  0  0  0
   33.1008  -27.6796   -7.5444 C   0  0  0  0  0  0  0  0  0  0  0  0
   33.3304  -26.4192   -8.0450 C   0  0  0  0  0  0  0  0  0  0  0  0
   33.3810  -26.2309   -9.4204 C   0  0  0  0  0  0  0  0  0  0  0  0
   33.1972  -27.2923  -10.2878 C   0  0  0  0  0  0  0  0  0  0  0  0
   32.9721  -28.5616   -9.7767 C   0  0  0  0  0  0  0  0  0  0  0  0
   32.6057  -29.9710   -7.8997 O   0  0  0  0  0  0  0  0  0  0  0  0
   33.0589  -27.9005   -6.1770 O   0  0  0  0  0  0  0  0  0  0  0  0
   33.5208  -24.8892   -9.9286 N   0  0  0  0  0  0  0  0  0  0  0  0
   33.3098  -24.5953  -11.0632 O   0  0  0  0  0  0  0  0  0  0  0  0
   33.6432  -23.8708   -8.9844 O   0  0  0  0  0  0  0  0  0  0  0  0
   33.4727  -25.5683   -7.3625 H   0  0  0  0  0  0  0  0  0  0  0  0
   33.2294  -27.1308  -11.3754 H   0  0  0  0  0  0  0  0  0  0  0  0
   32.8364  -29.4188  -10.4525 H   0  0  0  0  0  0  0  0  0  0  0  0
   32.4750  -30.7348   -8.5158 H   0  0  0  0  0  0  0  0  0  0  0  0
   33.1878  -27.1458   -5.5494 H   0  0  0  0  0  0  0  0  0  0  0  0
  1  2  2  0
  1  6  1  0
  1  7  1  0
  2  3  1  0
  2  8  1  0
  3  4  2  0
  4  5  1  0
  4  9  1  0
  5  6  2  0
  9 10  2  0
  9 11  1  0
  3 12  1  0
  5 13  1  0
  6 14  1  0
  7 15  1  0
  8 16  1  0
M  CHG  2   9   1  11  -1
M  END
>  <filename_input>  (3) 
7JMV_4NC_docked.sdf

>  <pdb_id>  (3) 
7JMV_4NC

>  <pose_rank>  (3) 
2

>  <num_atoms_heavy>  (3) 
11

>  <num_torsions>  (3) 
1

>  <pose>  (3) 
[32.920191388659916, -28.735990919059102, -8.397972851164536, 0.0064968457756000506, 0.1017748145852434, 0.04338428840394792, -12.24586551346815]

>  <energy>  (3) 
-461.3764266421087

>  <inter_energy>  (3) 
-464.502022110913

>  <intra_energy>  (3) 
0.0

>  <rmsd>  (3) 
0.36215

>  <sdf_rank>  (3) 
0

$$$$

     RDKit          3D

 16 16  0  0  0  0  0  0  0  0999 V2000
   33.2519  -28.3703   -7.2708 C   0  0  0  0  0  0  0  0  0  0  0  0
   33.5717  -27.1654   -6.7024 C   0  0  0  0  0  0  0  0  0  0  0  0
   33.6406  -26.0324   -7.4793 C   0  0  0  0  0  0  0  0  0  0  0  0
   33.3873  -26.1241   -8.8422 C   0  0  0  0  0  0  0  0  0  0  0  0
   33.0616  -27.3367   -9.4220 C   0  0  0  0  0  0  0  0  0  0  0  0
   32.9997  -28.4763   -8.6342 C   0  0  0  0  0  0  0  0  0  0  0  0
   33.0987  -29.4783   -6.4825 O   0  0  0  0  0  0  0  0  0  0  0  0
   33.8329  -27.1073   -5.3427 O   0  0  0  0  0  0  0  0  0  0  0  0
   33.3639  -24.9124   -9.6227 N   0  0  0  0  0  0  0  0  0  0  0  0
   34.0498  -23.9686   -9.3841 O   0  0  0  0  0  0  0  0  0  0  0  0
   32.7094  -24.9713  -10.8522 O   0  0  0  0  0  0  0  0  0  0  0  0
   33.8940  -25.0628   -7.0258 H   0  0  0  0  0  0  0  0  0  0  0  0
   32.8533  -27.3968  -10.5004 H   0  0  0  0  0  0  0  0  0  0  0  0
   32.7544  -29.4507   -9.0818 H   0  0  0  0  0  0  0  0  0  0  0  0
   32.8676  -30.3494   -6.8925 H   0  0  0  0  0  0  0  0  0  0  0  0
   34.0651  -26.2429   -4.9198 H   0  0  0  0  0  0  0  0  0  0  0  0
  1  2  2  0
  1  6  1  0
  1  7  1  0
  2  3  1  0
  2  8  1  0
  3  4  2  0
  4  5  1  0
  4  9  1  0
  5  6  2  0
  9 10  2  0
  9 11  1  0
  3 12  1  0
  5 13  1  0
  6 14  1  0
  7 15  1  0
  8 16  1  0
M  CHG  2   9   1  11  -1
M  END
>  <filename_input>  (4) 
7JMV_4NC_docked.sdf

>  <pdb_id>  (4) 
7JMV_4NC

>  <pose_rank>  (4) 
3

>  <num_atoms_heavy>  (4) 
11

>  <num_torsions>  (4) 
1

>  <pose>  (4) 
[33.25189162300802, -28.37032269018972, -7.270774950357056, -0.1915226525644096, 0.3255464292006673, 0.04814651637145153, -2.515558707485505]

>  <energy>  (4) 
-412.73736668898295

>  <inter_energy>  (4) 
-411.1335813837926

>  <intra_energy>  (4) 
0.0

>  <rmsd>  (4) 
0.995275

>  <sdf_rank>  (4) 
0

$$$$

     RDKit          3D

 16 16  0  0  0  0  0  0  0  0999 V2000
   33.7772  -26.3258   -6.8079 C   0  0  0  0  0  0  0  0  0  0  0  0
   33.3857  -27.6231   -7.0101 C   0  0  0  0  0  0  0  0  0  0  0  0
   33.2528  -28.1126   -8.2887 C   0  0  0  0  0  0  0  0  0  0  0  0
   33.5149  -27.2787   -9.3684 C   0  0  0  0  0  0  0  0  0  0  0  0
   33.9127  -25.9689   -9.1715 C   0  0  0  0  0  0  0  0  0  0  0  0
   34.0391  -25.4797   -7.8800 C   0  0  0  0  0  0  0  0  0  0  0  0
   33.9927  -25.8674   -5.5367 O   0  0  0  0  0  0  0  0  0  0  0  0
   33.1176  -28.4271   -5.9138 O   0  0  0  0  0  0  0  0  0  0  0  0
   33.4696  -27.8355  -10.6973 N   0  0  0  0  0  0  0  0  0  0  0  0
   33.9664  -28.8787  -10.9855 O   0  0  0  0  0  0  0  0  0  0  0  0
   32.5771  -27.2483  -11.5929 O   0  0  0  0  0  0  0  0  0  0  0  0
   32.9418  -29.1545   -8.4547 H   0  0  0  0  0  0  0  0  0  0  0  0
   34.1274  -25.3196  -10.0332 H   0  0  0  0  0  0  0  0  0  0  0  0
   34.3423  -24.4367   -7.7060 H   0  0  0  0  0  0  0  0  0  0  0  0
   34.2756  -24.9302   -5.3897 H   0  0  0  0  0  0  0  0  0  0  0  0
   32.8340  -29.3663   -6.0463 H   0  0  0  0  0  0  0  0  0  0  0  0
  1  2  2  0
  1  6  1  0
  1  7  1  0
  2  3  1  0
  2  8  1  0
  3  4  2  0
  4  5  1  0
  4  9  1  0
  5  6  2  0
  9 10  2  0
  9 11  1  0
  3 12  1  0
  5 13  1  0
  6 14  1  0
  7 15  1  0
  8 16  1  0
M  CHG  2   9   1  11  -1
M  END
>  <filename_input>  (5) 
7JMV_4NC_docked.sdf

>  <pdb_id>  (5) 
7JMV_4NC

>  <pose_rank>  (5) 
4

>  <num_atoms_heavy>  (5) 
11

>  <num_torsions>  (5) 
1

>  <pose>  (5) 
[33.777159577781575, -26.325773673945058, -6.807876609196956, 0.5110693864436789, 1.2272629878362367, -2.964503935582852, -10.154029339234711]

>  <energy>  (5) 
-465.495345949943

>  <inter_energy>  (5) 
-452.51310316798936

>  <intra_energy>  (5) 
0.0

>  <rmsd>  (5) 
3.03282

>  <sdf_rank>  (5) 
0

$$$$

     RDKit          3D

 16 16  0  0  0  0  0  0  0  0999 V2000
   33.5684  -25.7494   -9.6235 C   0  0  0  0  0  0  0  0  0  0  0  0
   33.4637  -27.0834   -9.9177 C   0  0  0  0  0  0  0  0  0  0  0  0
   33.4278  -28.0130   -8.9045 C   0  0  0  0  0  0  0  0  0  0  0  0
   33.5028  -27.5858   -7.5847 C   0  0  0  0  0  0  0  0  0  0  0  0
   33.6062  -26.2406   -7.2805 C   0  0  0  0  0  0  0  0  0  0  0  0
   33.6479  -25.3090   -8.3068 C   0  0  0  0  0  0  0  0  0  0  0  0
   33.5161  -24.8220  -10.6283 O   0  0  0  0  0  0  0  0  0  0  0  0
   33.4049  -27.4806  -11.2441 O   0  0  0  0  0  0  0  0  0  0  0  0
   33.3615  -28.5626   -6.5341 N   0  0  0  0  0  0  0  0  0  0  0  0
   33.3301  -29.7363   -6.7337 O   0  0  0  0  0  0  0  0  0  0  0  0
   33.5436  -28.1097   -5.2283 O   0  0  0  0  0  0  0  0  0  0  0  0
   33.3406  -29.0845   -9.1370 H   0  0  0  0  0  0  0  0  0  0  0  0
   33.6550  -25.9121   -6.2318 H   0  0  0  0  0  0  0  0  0  0  0  0
   33.7426  -24.2362   -8.0825 H   0  0  0  0  0  0  0  0  0  0  0  0
   33.5917  -23.8578  -10.4165 H   0  0  0  0  0  0  0  0  0  0  0  0
   33.3292  -28.4415  -11.4701 H   0  0  0  0  0  0  0  0  0  0  0  0
  1  2  2  0
  1  6  1  0
  1  7  1  0
  2  3  1  0
  2  8  1  0
  3  4  2  0
  4  5  1  0
  4  9  1  0
  5  6  2  0
  9 10  2  0
  9 11  1  0
  3 12  1  0
  5 13  1  0
  6 14  1  0
  7 15  1  0
  8 16  1  0
M  CHG  2   9   1  11  -1
M  END
>  <filename_input>  (6) 
7JMV_4NC_docked.sdf

>  <pdb_id>  (6) 
7JMV_4NC

>  <pose_rank>  (6) 
5

>  <num_atoms_heavy>  (6) 
11

>  <num_torsions>  (6) 
1

>  <pose>  (6) 
[33.568418340320385, -25.749398825109594, -9.623502341804501, -3.56690422394016, 0.46431615506495166, -0.20735856851735113, -2.941493760146406]

>  <energy>  (6) 
-512.8155879651421

>  <inter_energy>  (6) 
-512.2202972322663

>  <intra_energy>  (6) 
0.0

>  <rmsd>  (6) 
4.36402

>  <sdf_rank>  (6) 
0

$$$$

     RDKit          3D

 16 16  0  0  0  0  0  0  0  0999 V2000
   33.1976  -27.9562  -10.5884 C   0  0  0  0  0  0  0  0  0  0  0  0
   32.7569  -28.8849   -9.6827 C   0  0  0  0  0  0  0  0  0  0  0  0
   32.9190  -28.6653   -8.3346 C   0  0  0  0  0  0  0  0  0  0  0  0
   33.5360  -27.4975   -7.9036 C   0  0  0  0  0  0  0  0  0  0  0  0
   33.9810  -26.5548   -8.8123 C   0  0  0  0  0  0  0  0  0  0  0  0
   33.8199  -26.7850  -10.1703 C   0  0  0  0  0  0  0  0  0  0  0  0
   32.9572  -28.1362  -11.9235 O   0  0  0  0  0  0  0  0  0  0  0  0
   32.1578  -30.0467  -10.1428 O   0  0  0  0  0  0  0  0  0  0  0  0
   33.6064  -27.2364   -6.4877 N   0  0  0  0  0  0  0  0  0  0  0  0
   33.5258  -28.0902   -5.6614 O   0  0  0  0  0  0  0  0  0  0  0  0
   34.0564  -25.9737   -6.1047 O   0  0  0  0  0  0  0  0  0  0  0  0
   32.5635  -29.4074   -7.6045 H   0  0  0  0  0  0  0  0  0  0  0  0
   34.4594  -25.6289   -8.4603 H   0  0  0  0  0  0  0  0  0  0  0  0
   34.1795  -26.0512  -10.9067 H   0  0  0  0  0  0  0  0  0  0  0  0
   33.2754  -27.4655  -12.5786 H   0  0  0  0  0  0  0  0  0  0  0  0
   31.8351  -30.7258   -9.4987 H   0  0  0  0  0  0  0  0  0  0  0  0
  1  2  2  0
  1  6  1  0
  1  7  1  0
  2  3  1  0
  2  8  1  0
  3  4  2  0
  4  5  1  0
  4  9  1  0
  5  6  2  0
  9 10  2  0
  9 11  1  0
  3 12  1  0
  5 13  1  0
  6 14  1  0
  7 15  1  0
  8 16  1  0
M  CHG  2   9   1  11  -1
M  END
>  <filename_input>  (7) 
7JMV_4NC_docked.sdf

>  <pdb_id>  (7) 
7JMV_4NC

>  <pose_rank>  (7) 
6

>  <num_atoms_heavy>  (7) 
11

>  <num_torsions>  (7) 
1

>  <pose>  (7) 
[33.19757693743257, -27.95616581386659, -10.588448092953541, 7.680734051469689, -2.2562262258403885, -0.543517391734215, -2.702926902365875]

>  <energy>  (7) 
-416.31490429414174

>  <inter_energy>  (7) 
-418.0158581705421

>  <intra_energy>  (7) 
0.0

>  <rmsd>  (7) 
3.55282

>  <sdf_rank>  (7) 
0

$$$$

     RDKit          3D

 16 16  0  0  0  0  0  0  0  0999 V2000
   33.9984  -26.0413   -8.1839 C   0  0  0  0  0  0  0  0  0  0  0  0
   33.8661  -25.6042   -9.4756 C   0  0  0  0  0  0  0  0  0  0  0  0
   33.4367  -26.4681  -10.4561 C   0  0  0  0  0  0  0  0  0  0  0  0
   33.1437  -27.7848  -10.1237 C   0  0  0  0  0  0  0  0  0  0  0  0
   33.2727  -28.2320   -8.8215 C   0  0  0  0  0  0  0  0  0  0  0  0
   33.7118  -27.3576   -7.8388 C   0  0  0  0  0  0  0  0  0  0  0  0
   34.3414  -25.1590   -7.1958 O   0  0  0  0  0  0  0  0  0  0  0  0
   34.1792  -24.2889   -9.7797 O   0  0  0  0  0  0  0  0  0  0  0  0
   32.5986  -28.6483  -11.1411 N   0  0  0  0  0  0  0  0  0  0  0  0
   32.7919  -28.4887  -12.3054 O   0  0  0  0  0  0  0  0  0  0  0  0
   32.0574  -29.8592  -10.7117 O   0  0  0  0  0  0  0  0  0  0  0  0
   33.3264  -26.1196  -11.4936 H   0  0  0  0  0  0  0  0  0  0  0  0
   33.0287  -29.2740   -8.5669 H   0  0  0  0  0  0  0  0  0  0  0  0
   33.8318  -27.7005   -6.8005 H   0  0  0  0  0  0  0  0  0  0  0  0
   34.4372  -25.4741   -6.2621 H   0  0  0  0  0  0  0  0  0  0  0  0
   34.0880  -23.9606  -10.7092 H   0  0  0  0  0  0  0  0  0  0  0  0
  1  2  2  0
  1  6  1  0
  1  7  1  0
  2  3  1  0
  2  8  1  0
  3  4  2  0
  4  5  1  0
  4  9  1  0
  5  6  2  0
  9 10  2  0
  9 11  1  0
  3 12  1  0
  5 13  1  0
  6 14  1  0
  7 15  1  0
  8 16  1  0
M  CHG  2   9   1  11  -1
M  END
>  <filename_input>  (8) 
7JMV_4NC_docked.sdf

>  <pdb_id>  (8) 
7JMV_4NC

>  <pose_rank>  (8) 
7

>  <num_atoms_heavy>  (8) 
11

>  <num_torsions>  (8) 
1

>  <pose>  (8) 
[33.99835046802163, -26.041262834634665, -8.183876881373477, -1.8687662163262997, 0.6659590294462036, 0.04427681422258489, -2.6291376757704117]

>  <energy>  (8) 
-394.9412641967284

>  <inter_energy>  (8) 
-386.72451156800054

>  <intra_energy>  (8) 
0.0

>  <rmsd>  (8) 
3.93151

>  <sdf_rank>  (8) 
0

$$$$

     RDKit          3D

 16 16  0  0  0  0  0  0  0  0999 V2000
   33.5453  -27.7697   -6.7081 C   0  0  0  0  0  0  0  0  0  0  0  0
   32.8928  -28.2035   -7.8320 C   0  0  0  0  0  0  0  0  0  0  0  0
   32.7769  -27.3767   -8.9252 C   0  0  0  0  0  0  0  0  0  0  0  0
   33.3231  -26.1003   -8.8753 C   0  0  0  0  0  0  0  0  0  0  0  0
   33.9850  -25.6569   -7.7449 C   0  0  0  0  0  0  0  0  0  0  0  0
   34.0932  -26.4932   -6.6440 C   0  0  0  0  0  0  0  0  0  0  0  0
   33.7350  -28.6237   -5.6558 O   0  0  0  0  0  0  0  0  0  0  0  0
   32.3460  -29.4767   -7.8474 O   0  0  0  0  0  0  0  0  0  0  0  0
   33.2818  -25.2852  -10.0635 N   0  0  0  0  0  0  0  0  0  0  0  0
   32.5228  -25.4770  -10.9609 O   0  0  0  0  0  0  0  0  0  0  0  0
   33.9745  -24.0762  -10.0188 O   0  0  0  0  0  0  0  0  0  0  0  0
   32.2565  -27.7229   -9.8303 H   0  0  0  0  0  0  0  0  0  0  0  0
   34.4225  -24.6480   -7.7192 H   0  0  0  0  0  0  0  0  0  0  0  0
   34.6056  -26.1515   -5.7325 H   0  0  0  0  0  0  0  0  0  0  0  0
   34.2063  -28.3110   -4.8433 H   0  0  0  0  0  0  0  0  0  0  0  0
   31.8720  -29.8022   -8.6533 H   0  0  0  0  0  0  0  0  0  0  0  0
  1  2  2  0
  1  6  1  0
  1  7  1  0
  2  3  1  0
  2  8  1  0
  3  4  2  0
  4  5  1  0
  4  9  1  0
  5  6  2  0
  9 10  2  0
  9 11  1  0
  3 12  1  0
  5 13  1  0
  6 14  1  0
  7 15  1  0
  8 16  1  0
M  CHG  2   9   1  11  -1
M  END
>  <filename_input>  (9) 
7JMV_4NC_docked.sdf

>  <pdb_id>  (9) 
7JMV_4NC

>  <pose_rank>  (9) 
8

>  <num_atoms_heavy>  (9) 
11

>  <num_torsions>  (9) 
1

>  <pose>  (9) 
[33.54525169230678, -27.769735094644318, -6.708069015919202, -1.3628547124445831, -6.806471210616798, 5.6426932056259655, 3.549483033514268]

>  <energy>  (9) 
-442.9002468578482

>  <inter_energy>  (9) 
-424.16826971167933

>  <intra_energy>  (9) 
0.0

>  <rmsd>  (9) 
2.0928

>  <sdf_rank>  (9) 
0

$$$$

     RDKit          3D

 16 16  0  0  0  0  0  0  0  0999 V2000
   33.2641  -28.4346   -7.3192 C   0  0  0  0  0  0  0  0  0  0  0  0
   33.6430  -27.2712   -6.7027 C   0  0  0  0  0  0  0  0  0  0  0  0
   33.6606  -26.0904   -7.4079 C   0  0  0  0  0  0  0  0  0  0  0  0
   33.2952  -26.0915   -8.7482 C   0  0  0  0  0  0  0  0  0  0  0  0
   32.9093  -27.2618   -9.3761 C   0  0  0  0  0  0  0  0  0  0  0  0
   32.8995  -28.4500   -8.6611 C   0  0  0  0  0  0  0  0  0  0  0  0
   33.1637  -29.5908   -6.5941 O   0  0  0  0  0  0  0  0  0  0  0  0
   34.0158  -27.3035   -5.3683 O   0  0  0  0  0  0  0  0  0  0  0  0
   33.2213  -24.8314   -9.4443 N   0  0  0  0  0  0  0  0  0  0  0  0
   33.5668  -23.7983   -8.9631 O   0  0  0  0  0  0  0  0  0  0  0  0
   32.9908  -24.8867  -10.8181 O   0  0  0  0  0  0  0  0  0  0  0  0
   33.9613  -25.1540   -6.9152 H   0  0  0  0  0  0  0  0  0  0  0  0
   32.6124  -27.2502  -10.4352 H   0  0  0  0  0  0  0  0  0  0  0  0
   32.6073  -29.3917   -9.1487 H   0  0  0  0  0  0  0  0  0  0  0  0
   32.8900  -30.4318   -7.0389 H   0  0  0  0  0  0  0  0  0  0  0  0
   34.2917  -26.4699   -4.9112 H   0  0  0  0  0  0  0  0  0  0  0  0
  1  2  2  0
  1  6  1  0
  1  7  1  0
  2  3  1  0
  2  8  1  0
  3  4  2  0
  4  5  1  0
  4  9  1  0
  5  6  2  0
  9 10  2  0
  9 11  1  0
  3 12  1  0
  5 13  1  0
  6 14  1  0
  7 15  1  0
  8 16  1  0
M  CHG  2   9   1  11  -1
M  END
>  <filename_input>  (10) 
7JMV_4NC_docked.sdf

>  <pdb_id>  (10) 
7JMV_4NC

>  <pose_rank>  (10) 
9

>  <num_atoms_heavy>  (10) 
11

>  <num_torsions>  (10) 
1

>  <pose>  (10) 
[33.264097316362964, -28.43463639574567, -7.319159623440756, -0.12389915646324767, 0.40658588727852396, 0.05818795065479947, 3.3085385249536103]

>  <energy>  (10) 
-415.6630740674468

>  <inter_energy>  (10) 
-407.33926070363714

>  <intra_energy>  (10) 
0.0

>  <rmsd>  (10) 
0.937792

>  <sdf_rank>  (10) 
0

$$$$

     RDKit          3D

 16 16  0  0  0  0  0  0  0  0999 V2000
   33.2916  -28.4050   -7.0730 C   0  0  0  0  0  0  0  0  0  0  0  0
   33.7027  -27.2137   -6.5356 C   0  0  0  0  0  0  0  0  0  0  0  0
   33.6507  -26.0629   -7.2872 C   0  0  0  0  0  0  0  0  0  0  0  0
   33.1824  -26.1228   -8.5938 C   0  0  0  0  0  0  0  0  0  0  0  0
   32.7637  -27.3215   -9.1418 C   0  0  0  0  0  0  0  0  0  0  0  0
   32.8242  -28.4792   -8.3807 C   0  0  0  0  0  0  0  0  0  0  0  0
   33.2623  -29.5311   -6.2962 O   0  0  0  0  0  0  0  0  0  0  0  0
   34.1782  -27.1873   -5.2342 O   0  0  0  0  0  0  0  0  0  0  0  0
   33.0390  -24.8933   -9.3324 N   0  0  0  0  0  0  0  0  0  0  0  0
   32.0018  -24.3204   -9.4518 O   0  0  0  0  0  0  0  0  0  0  0  0
   34.2148  -24.2293   -9.6790 O   0  0  0  0  0  0  0  0  0  0  0  0
   33.9770  -25.1042   -6.8578 H   0  0  0  0  0  0  0  0  0  0  0  0
   32.3853  -27.3565  -10.1741 H   0  0  0  0  0  0  0  0  0  0  0  0
   32.5069  -29.4429   -8.8055 H   0  0  0  0  0  0  0  0  0  0  0  0
   32.9654  -30.3923   -6.6838 H   0  0  0  0  0  0  0  0  0  0  0  0
   34.4783  -26.3330   -4.8341 H   0  0  0  0  0  0  0  0  0  0  0  0
  1  2  2  0
  1  6  1  0
  1  7  1  0
  2  3  1  0
  2  8  1  0
  3  4  2  0
  4  5  1  0
  4  9  1  0
  5  6  2  0
  9 10  2  0
  9 11  1  0
  3 12  1  0
  5 13  1  0
  6 14  1  0
  7 15  1  0
  8 16  1  0
M  CHG  2   9   1  11  -1
M  END
>  <filename_input>  (11) 
7JMV_4NC_docked.sdf

>  <pdb_id>  (11) 
7JMV_4NC

>  <pose_rank>  (11) 
10

>  <num_atoms_heavy>  (11) 
11

>  <num_torsions>  (11) 
1

>  <pose>  (11) 
[33.291612900233154, -28.405041245611706, -7.073033795434216, -2.1672140987227366, 6.386849902302793, 0.8637611155814946, -4.803877567318979]

>  <energy>  (11) 
-412.8775416328739

>  <inter_energy>  (11) 
-386.81577748438264

>  <intra_energy>  (11) 
0.0

>  <rmsd>  (11) 
1.24208

>  <sdf_rank>  (11) 
0

$$$$

     RDKit          3D

 16 16  0  0  0  0  0  0  0  0999 V2000
   32.9913  -28.7278   -7.9434 C   0  0  0  0  0  0  0  0  0  0  0  0
   33.1846  -27.6467   -7.1243 C   0  0  0  0  0  0  0  0  0  0  0  0
   33.4654  -26.4131   -7.6642 C   0  0  0  0  0  0  0  0  0  0  0  0
   33.5543  -26.2773   -9.0439 C   0  0  0  0  0  0  0  0  0  0  0  0
   33.3579  -27.3638   -9.8766 C   0  0  0  0  0  0  0  0  0  0  0  0
   33.0811  -28.6060   -9.3257 C   0  0  0  0  0  0  0  0  0  0  0  0
   32.6266  -29.9335   -7.4087 O   0  0  0  0  0  0  0  0  0  0  0  0
   33.1035  -27.8157   -5.7512 O   0  0  0  0  0  0  0  0  0  0  0  0
   33.7480  -24.9601   -9.5965 N   0  0  0  0  0  0  0  0  0  0  0  0
   33.8144  -23.9755   -8.9298 O   0  0  0  0  0  0  0  0  0  0  0  0
   34.1403  -24.8922  -10.9325 O   0  0  0  0  0  0  0  0  0  0  0  0
   33.6180  -25.5424   -7.0096 H   0  0  0  0  0  0  0  0  0  0  0  0
   33.4208  -27.2436  -10.9682 H   0  0  0  0  0  0  0  0  0  0  0  0
   32.9347  -29.4830   -9.9734 H   0  0  0  0  0  0  0  0  0  0  0  0
   32.4867  -30.7152   -8.0000 H   0  0  0  0  0  0  0  0  0  0  0  0
   33.2412  -27.0426   -5.1483 H   0  0  0  0  0  0  0  0  0  0  0  0
  1  2  2  0
  1  6  1  0
  1  7  1  0
  2  3  1  0
  2  8  1  0
  3  4  2  0
  4  5  1  0
  4  9  1  0
  5  6  2  0
  9 10  2  0
  9 11  1  0
  3 12  1  0
  5 13  1  0
  6 14  1  0
  7 15  1  0
  8 16  1  0
M  CHG  2   9   1  11  -1
M  END
>  <filename_input>  (12) 
7JMV_4NC_docked.sdf

>  <pdb_id>  (12) 
7JMV_4NC

>  <pose_rank>  (12) 
11

>  <num_atoms_heavy>  (12) 
11

>  <num_torsions>  (12) 
1

>  <pose>  (12) 
[32.99126628140983, -28.727818248549735, -7.943351244450201, -2.188636897648354, 5.923607749025448, 0.8142686884887752, -3.1120174037403237]

>  <energy>  (12) 
-467.69019941417724

>  <inter_energy>  (12) 
-468.3640871166733

>  <intra_energy>  (12) 
0.0

>  <rmsd>  (12) 
0.318204

>  <sdf_rank>  (12) 
0

$$$$

     RDKit          3D

 16 16  0  0  0  0  0  0  0  0999 V2000
   32.6467  -28.6940   -8.3819 C   0  0  0  0  0  0  0  0  0  0  0  0
   32.7069  -27.6695   -7.4741 C   0  0  0  0  0  0  0  0  0  0  0  0
   33.1079  -26.4160   -7.8737 C   0  0  0  0  0  0  0  0  0  0  0  0
   33.4538  -26.2022   -9.2021 C   0  0  0  0  0  0  0  0  0  0  0  0
   33.3931  -27.2312  -10.1242 C   0  0  0  0  0  0  0  0  0  0  0  0
   32.9937  -28.4942   -9.7136 C   0  0  0  0  0  0  0  0  0  0  0  0
   32.1647  -29.9168   -8.0011 O   0  0  0  0  0  0  0  0  0  0  0  0
   32.3692  -27.9162   -6.1529 O   0  0  0  0  0  0  0  0  0  0  0  0
   33.7734  -24.8617   -9.6249 N   0  0  0  0  0  0  0  0  0  0  0  0
   34.1000  -23.9996   -8.8709 O   0  0  0  0  0  0  0  0  0  0  0  0
   33.9638  -24.6640  -10.9917 O   0  0  0  0  0  0  0  0  0  0  0  0
   33.1543  -25.5904   -7.1483 H   0  0  0  0  0  0  0  0  0  0  0  0
   33.6597  -27.0491  -11.1757 H   0  0  0  0  0  0  0  0  0  0  0  0
   32.9519  -29.3265  -10.4315 H   0  0  0  0  0  0  0  0  0  0  0  0
   32.1209  -30.6575   -8.6564 H   0  0  0  0  0  0  0  0  0  0  0  0
   32.4085  -27.1846   -5.4871 H   0  0  0  0  0  0  0  0  0  0  0  0
  1  2  2  0
  1  6  1  0
  1  7  1  0
  2  3  1  0
  2  8  1  0
  3  4  2  0
  4  5  1  0
  4  9  1  0
  5  6  2  0
  9 10  2  0
  9 11  1  0
  3 12  1  0
  5 13  1  0
  6 14  1  0
  7 15  1  0
  8 16  1  0
M  CHG  2   9   1  11  -1
M  END
>  <filename_input>  (13) 
7JMV_4NC_docked.sdf

>  <pdb_id>  (13) 
7JMV_4NC

>  <pose_rank>  (13) 
12

>  <num_atoms_heavy>  (13) 
11

>  <num_torsions>  (13) 
1

>  <pose>  (13) 
[32.646674427612766, -28.694005608021797, -8.38185924770253, -1.7772697368873713, 5.845493754548024, 0.8587465397929649, -2.7340703748690105]

>  <energy>  (13) 
-466.06316459853076

>  <inter_energy>  (13) 
-473.9107450276071

>  <intra_energy>  (13) 
0.0

>  <rmsd>  (13) 
0.321479

>  <sdf_rank>  (13) 
0

$$$$

     RDKit          3D

 16 16  0  0  0  0  0  0  0  0999 V2000
   33.7473  -27.9401  -10.8636 C   0  0  0  0  0  0  0  0  0  0  0  0
   32.6303  -27.2304  -10.5090 C   0  0  0  0  0  0  0  0  0  0  0  0
   32.6266  -26.4796   -9.3565 C   0  0  0  0  0  0  0  0  0  0  0  0
   33.7624  -26.4525   -8.5570 C   0  0  0  0  0  0  0  0  0  0  0  0
   34.8942  -27.1646   -8.9102 C   0  0  0  0  0  0  0  0  0  0  0  0
   34.8894  -27.9243  -10.0703 C   0  0  0  0  0  0  0  0  0  0  0  0
   33.7786  -28.6153  -12.0534 O   0  0  0  0  0  0  0  0  0  0  0  0
   31.5074  -27.2879  -11.3190 O   0  0  0  0  0  0  0  0  0  0  0  0
   33.7772  -25.5818   -7.4083 N   0  0  0  0  0  0  0  0  0  0  0  0
   33.4973  -24.4255   -7.4617 O   0  0  0  0  0  0  0  0  0  0  0  0
   33.8596  -26.1941   -6.1586 O   0  0  0  0  0  0  0  0  0  0  0  0
   31.7326  -25.9061   -9.0704 H   0  0  0  0  0  0  0  0  0  0  0  0
   35.7918  -27.1286   -8.2754 H   0  0  0  0  0  0  0  0  0  0  0  0
   35.7769  -28.5065  -10.3592 H   0  0  0  0  0  0  0  0  0  0  0  0
   34.5854  -29.1284  -12.3103 H   0  0  0  0  0  0  0  0  0  0  0  0
   30.6938  -26.7797  -11.0740 H   0  0  0  0  0  0  0  0  0  0  0  0
  1  2  2  0
  1  6  1  0
  1  7  1  0
  2  3  1  0
  2  8  1  0
  3  4  2  0
  4  5  1  0
  4  9  1  0
  5  6  2  0
  9 10  2  0
  9 11  1  0
  3 12  1  0
  5 13  1  0
  6 14  1  0
  7 15  1  0
  8 16  1  0
M  CHG  2   9   1  11  -1
M  END
>  <filename_input>  (14) 
7JMV_4NC_docked.sdf

>  <pdb_id>  (14) 
7JMV_4NC

>  <pose_rank>  (14) 
13

>  <num_atoms_heavy>  (14) 
11

>  <num_torsions>  (14) 
1

>  <pose>  (14) 
[33.747302615792925, -27.940084742488843, -10.863587093721922, -9.884548435447623, 26.95199021422085, 6.114938414776591, -3.9812119183505486]

>  <energy>  (14) 
-351.5536535974818

>  <inter_energy>  (14) 
-326.501666861606

>  <intra_energy>  (14) 
0.0

>  <rmsd>  (14) 
3.21739

>  <sdf_rank>  (14) 
0

$$$$

     RDKit          3D

 16 16  0  0  0  0  0  0  0  0999 V2000
   26.2174  -19.3978   -4.9918 C   0  0  0  0  0  0  0  0  0  0  0  0
   27.5296  -19.7783   -4.8897 C   0  0  0  0  0  0  0  0  0  0  0  0
   27.9713  -20.4392   -3.7671 C   0  0  0  0  0  0  0  0  0  0  0  0
   27.0761  -20.7120   -2.7404 C   0  0  0  0  0  0  0  0  0  0  0  0
   25.7497  -20.3329   -2.8379 C   0  0  0  0  0  0  0  0  0  0  0  0
   25.3121  -19.6615   -3.9697 C   0  0  0  0  0  0  0  0  0  0  0  0
   25.7617  -18.8188   -6.1449 O   0  0  0  0  0  0  0  0  0  0  0  0
   28.4025  -19.4801   -5.9239 O   0  0  0  0  0  0  0  0  0  0  0  0
   27.5309  -21.4936   -1.6178 N   0  0  0  0  0  0  0  0  0  0  0  0
   27.2885  -22.6523   -1.4879 O   0  0  0  0  0  0  0  0  0  0  0  0
   28.5124  -20.9199   -0.8110 O   0  0  0  0  0  0  0  0  0  0  0  0
   29.0235  -20.7489   -3.6832 H   0  0  0  0  0  0  0  0  0  0  0  0
   25.0467  -20.5623   -2.0235 H   0  0  0  0  0  0  0  0  0  0  0  0
   24.2632  -19.3419   -4.0577 H   0  0  0  0  0  0  0  0  0  0  0  0
   24.8136  -18.5436   -6.2194 H   0  0  0  0  0  0  0  0  0  0  0  0
   29.3532  -19.7494   -5.8625 H   0  0  0  0  0  0  0  0  0  0  0  0
  1  2  2  0
  1  6  1  0
  1  7  1  0
  2  3  1  0
  2  8  1  0
  3  4  2  0
  4  5  1  0
  4  9  1  0
  5  6  2  0
  9 10  2  0
  9 11  1  0
  3 12  1  0
  5 13  1  0
  6 14  1  0
  7 15  1  0
  8 16  1  0
M  CHG  2   9   1  11  -1
M  END
>  <filename_input>  (15) 
7JMV_4NC_docked.sdf

>  <pdb_id>  (15) 
7JMV_4NC

>  <pose_rank>  (15) 
14

>  <num_atoms_heavy>  (15) 
11

>  <num_torsions>  (15) 
1

>  <pose>  (15) 
[26.21742748474607, -19.397803022687608, -4.9918107219992045, -2.6382817500506026, -1.3801666790830966, -1.464265290980284, 1.4299852404152944]

>  <energy>  (15) 
-161.04243494217218

>  <inter_energy>  (15) 
-151.83718163108225

>  <intra_energy>  (15) 
0.0

>  <rmsd>  (15) 
11.1056

>  <sdf_rank>  (15) 
0

$$$$

     RDKit          3D

 16 16  0  0  0  0  0  0  0  0999 V2000
   41.0404  -31.5249  -14.0972 C   0  0  0  0  0  0  0  0  0  0  0  0
   41.4560  -30.4137  -14.7823 C   0  0  0  0  0  0  0  0  0  0  0  0
   41.6732  -29.2315  -14.1134 C   0  0  0  0  0  0  0  0  0  0  0  0
   41.4632  -29.1763  -12.7413 C   0  0  0  0  0  0  0  0  0  0  0  0
   41.0460  -30.2948  -12.0431 C   0  0  0  0  0  0  0  0  0  0  0  0
   40.8230  -31.4820  -12.7243 C   0  0  0  0  0  0  0  0  0  0  0  0
   40.9092  -32.7206  -14.7497 O   0  0  0  0  0  0  0  0  0  0  0  0
   41.6436  -30.4953  -16.1529 O   0  0  0  0  0  0  0  0  0  0  0  0
   41.7926  -27.9601  -12.0412 N   0  0  0  0  0  0  0  0  0  0  0  0
   42.6928  -27.2476  -12.3580 O   0  0  0  0  0  0  0  0  0  0  0  0
   40.8466  -27.4820  -11.1357 O   0  0  0  0  0  0  0  0  0  0  0  0
   42.0100  -28.3383  -14.6599 H   0  0  0  0  0  0  0  0  0  0  0  0
   40.8920  -30.2432  -10.9551 H   0  0  0  0  0  0  0  0  0  0  0  0
   40.4789  -32.3775  -12.1860 H   0  0  0  0  0  0  0  0  0  0  0  0
   40.6089  -33.5240  -14.2553 H   0  0  0  0  0  0  0  0  0  0  0  0
   41.9438  -29.6996  -16.6597 H   0  0  0  0  0  0  0  0  0  0  0  0
  1  2  2  0
  1  6  1  0
  1  7  1  0
  2  3  1  0
  2  8  1  0
  3  4  2  0
  4  5  1  0
  4  9  1  0
  5  6  2  0
  9 10  2  0
  9 11  1  0
  3 12  1  0
  5 13  1  0
  6 14  1  0
  7 15  1  0
  8 16  1  0
M  CHG  2   9   1  11  -1
M  END
>  <filename_input>  (16) 
7JMV_4NC_docked.sdf

>  <pdb_id>  (16) 
7JMV_4NC

>  <pose_rank>  (16) 
15

>  <num_atoms_heavy>  (16) 
11

>  <num_torsions>  (16) 
1

>  <pose>  (16) 
[41.040375835728774, -31.524945271287354, -14.097155225843508, 0.7161015108715336, 3.0009755745512523, 0.2370466987793522, 2.6169876118880406]

>  <energy>  (16) 
-150.5157726274327

>  <inter_energy>  (16) 
-144.830922572262

>  <intra_energy>  (16) 
0.0

>  <rmsd>  (16) 
10.3167

>  <sdf_rank>  (16) 
0

$$$$

     RDKit          3D

 16 16  0  0  0  0  0  0  0  0999 V2000
   42.0300  -29.2694  -10.3592 C   0  0  0  0  0  0  0  0  0  0  0  0
   40.9068  -28.5801  -10.7341 C   0  0  0  0  0  0  0  0  0  0  0  0
   40.8223  -28.0299  -11.9919 C   0  0  0  0  0  0  0  0  0  0  0  0
   41.8862  -28.1771  -12.8731 C   0  0  0  0  0  0  0  0  0  0  0  0
   43.0219  -28.8737  -12.5021 C   0  0  0  0  0  0  0  0  0  0  0  0
   43.1033  -29.4208  -11.2304 C   0  0  0  0  0  0  0  0  0  0  0  0
   42.0761  -29.8893   -9.1402 O   0  0  0  0  0  0  0  0  0  0  0  0
   39.8673  -28.4376   -9.8288 O   0  0  0  0  0  0  0  0  0  0  0  0
   41.7405  -27.6832  -14.2195 N   0  0  0  0  0  0  0  0  0  0  0  0
   42.6540  -27.2842  -14.8711 O   0  0  0  0  0  0  0  0  0  0  0  0
   40.5277  -27.9445  -14.8553 O   0  0  0  0  0  0  0  0  0  0  0  0
   39.9208  -27.4786  -12.2973 H   0  0  0  0  0  0  0  0  0  0  0  0
   43.8548  -28.9929  -13.2107 H   0  0  0  0  0  0  0  0  0  0  0  0
   44.0045  -29.9670  -10.9151 H   0  0  0  0  0  0  0  0  0  0  0  0
   42.8873  -30.3876   -8.8686 H   0  0  0  0  0  0  0  0  0  0  0  0
   39.0503  -27.9418  -10.0872 H   0  0  0  0  0  0  0  0  0  0  0  0
  1  2  2  0
  1  6  1  0
  1  7  1  0
  2  3  1  0
  2  8  1  0
  3  4  2  0
  4  5  1  0
  4  9  1  0
  5  6  2  0
  9 10  2  0
  9 11  1  0
  3 12  1  0
  5 13  1  0
  6 14  1  0
  7 15  1  0
  8 16  1  0
M  CHG  2   9   1  11  -1
M  END
>  <filename_input>  (17) 
7JMV_4NC_docked.sdf

>  <pdb_id>  (17) 
7JMV_4NC

>  <pose_rank>  (17) 
16

>  <num_atoms_heavy>  (17) 
11

>  <num_torsions>  (17) 
1

>  <pose>  (17) 
[42.02996573863196, -29.269377604242482, -10.359203230369442, 2.6948435547207024, 2.170544688086484, -3.3888489149701164, -0.4703814631834277]

>  <energy>  (17) 
-146.19862720220098

>  <inter_energy>  (17) 
-117.27973181117395

>  <intra_energy>  (17) 
0.0

>  <rmsd>  (17) 
9.5652

>  <sdf_rank>  (17) 
0

$$$$

     RDKit          3D

 16 16  0  0  0  0  0  0  0  0999 V2000
   40.7984  -29.5756  -13.3660 C   0  0  0  0  0  0  0  0  0  0  0  0
   40.3066  -28.3458  -13.0153 C   0  0  0  0  0  0  0  0  0  0  0  0
   40.7863  -27.7037  -11.8975 C   0  0  0  0  0  0  0  0  0  0  0  0
   41.7684  -28.3156  -11.1288 C   0  0  0  0  0  0  0  0  0  0  0  0
   42.2710  -29.5558  -11.4782 C   0  0  0  0  0  0  0  0  0  0  0  0
   41.7788  -30.2005  -12.6030 C   0  0  0  0  0  0  0  0  0  0  0  0
   40.3827  -30.1725  -14.5250 O   0  0  0  0  0  0  0  0  0  0  0  0
   39.3171  -27.7664  -13.7936 O   0  0  0  0  0  0  0  0  0  0  0  0
   42.3317  -27.5860  -10.0206 N   0  0  0  0  0  0  0  0  0  0  0  0
   43.3297  -26.9413  -10.1029 O   0  0  0  0  0  0  0  0  0  0  0  0
   41.5190  -27.4224   -8.8998 O   0  0  0  0  0  0  0  0  0  0  0  0
   40.3959  -26.7149  -11.6149 H   0  0  0  0  0  0  0  0  0  0  0  0
   43.0556  -30.0274  -10.8683 H   0  0  0  0  0  0  0  0  0  0  0  0
   42.1587  -31.1928  -12.8879 H   0  0  0  0  0  0  0  0  0  0  0  0
   40.7377  -31.0611  -14.7790 H   0  0  0  0  0  0  0  0  0  0  0  0
   38.9533  -26.8782  -13.5511 H   0  0  0  0  0  0  0  0  0  0  0  0
  1  2  2  0
  1  6  1  0
  1  7  1  0
  2  3  1  0
  2  8  1  0
  3  4  2  0
  4  5  1  0
  4  9  1  0
  5  6  2  0
  9 10  2  0
  9 11  1  0
  3 12  1  0
  5 13  1  0
  6 14  1  0
  7 15  1  0
  8 16  1  0
M  CHG  2   9   1  11  -1
M  END
>  <filename_input>  (18) 
7JMV_4NC_docked.sdf

>  <pdb_id>  (18) 
7JMV_4NC

>  <pose_rank>  (18) 
17

>  <num_atoms_heavy>  (18) 
11

>  <num_torsions>  (18) 
1

>  <pose>  (18) 
[40.79835677013315, -29.575572447431423, -13.365957598474301, -0.12133846772464008, 3.817799747002444, 1.4515525329465493, 1.5497513107240966]

>  <energy>  (18) 
-144.7364474672607

>  <inter_energy>  (18) 
-122.88210402930261

>  <intra_energy>  (18) 
0.0

>  <rmsd>  (18) 
9.45678

>  <sdf_rank>  (18) 
0

$$$$

     RDKit          3D

 16 16  0  0  0  0  0  0  0  0999 V2000
   24.1565  -24.0560  -12.7421 C   0  0  0  0  0  0  0  0  0  0  0  0
   24.1372  -22.7031  -12.5263 C   0  0  0  0  0  0  0  0  0  0  0  0
   24.4573  -21.8369  -13.5457 C   0  0  0  0  0  0  0  0  0  0  0  0
   24.8029  -22.3474  -14.7906 C   0  0  0  0  0  0  0  0  0  0  0  0
   24.8221  -23.7118  -15.0161 C   0  0  0  0  0  0  0  0  0  0  0  0
   24.5042  -24.5799  -13.9825 C   0  0  0  0  0  0  0  0  0  0  0  0
   23.7538  -24.9115  -11.7530 O   0  0  0  0  0  0  0  0  0  0  0  0
   23.8021  -22.2236  -11.2700 O   0  0  0  0  0  0  0  0  0  0  0  0
   25.0361  -21.4255  -15.8740 N   0  0  0  0  0  0  0  0  0  0  0  0
   25.5858  -20.3785  -15.7335 O   0  0  0  0  0  0  0  0  0  0  0  0
   24.8476  -21.9153  -17.1655 O   0  0  0  0  0  0  0  0  0  0  0  0
   24.4397  -20.7501  -13.3768 H   0  0  0  0  0  0  0  0  0  0  0  0
   25.0877  -24.1055  -16.0083 H   0  0  0  0  0  0  0  0  0  0  0  0
   24.5268  -25.6681  -14.1415 H   0  0  0  0  0  0  0  0  0  0  0  0
   23.7674  -25.8891  -11.9082 H   0  0  0  0  0  0  0  0  0  0  0  0
   23.7844  -21.2483  -11.1010 H   0  0  0  0  0  0  0  0  0  0  0  0
  1  2  2  0
  1  6  1  0
  1  7  1  0
  2  3  1  0
  2  8  1  0
  3  4  2  0
  4  5  1  0
  4  9  1  0
  5  6  2  0
  9 10  2  0
  9 11  1  0
  3 12  1  0
  5 13  1  0
  6 14  1  0
  7 15  1  0
  8 16  1  0
M  CHG  2   9   1  11  -1
M  END
>  <filename_input>  (19) 
7JMV_4NC_docked.sdf

>  <pdb_id>  (19) 
7JMV_4NC

>  <pose_rank>  (19) 
18

>  <num_atoms_heavy>  (19) 
11

>  <num_torsions>  (19) 
1

>  <pose>  (19) 
[24.156470239369156, -24.055969496964952, -12.742132080773803, -0.5291299683359605, -0.09958610404225034, 0.08358126704764807, -2.4220828383545334]

>  <energy>  (19) 
-138.77445579015884

>  <inter_energy>  (19) 
-125.96496589816275

>  <intra_energy>  (19) 
0.0

>  <rmsd>  (19) 
11.0679

>  <sdf_rank>  (19) 
0

$$$$

     RDKit          3D

 16 16  0  0  0  0  0  0  0  0999 V2000
   24.0730  -24.4280  -14.1192 C   0  0  0  0  0  0  0  0  0  0  0  0
   23.8120  -24.8200  -12.8326 C   0  0  0  0  0  0  0  0  0  0  0  0
   23.6421  -23.8778  -11.8450 C   0  0  0  0  0  0  0  0  0  0  0  0
   23.7418  -22.5296  -12.1648 C   0  0  0  0  0  0  0  0  0  0  0  0
   24.0027  -22.1268  -13.4618 C   0  0  0  0  0  0  0  0  0  0  0  0
   24.1789  -23.0818  -14.4518 C   0  0  0  0  0  0  0  0  0  0  0  0
   24.1550  -25.3629  -15.1150 O   0  0  0  0  0  0  0  0  0  0  0  0
   23.7322  -26.1724  -12.5409 O   0  0  0  0  0  0  0  0  0  0  0  0
   23.4608  -21.5548  -11.1407 N   0  0  0  0  0  0  0  0  0  0  0  0
   23.2591  -20.4041  -11.3721 O   0  0  0  0  0  0  0  0  0  0  0  0
   23.1505  -22.0479   -9.8741 O   0  0  0  0  0  0  0  0  0  0  0  0
   23.4293  -24.1890  -10.8116 H   0  0  0  0  0  0  0  0  0  0  0  0
   24.0699  -21.0564  -13.7065 H   0  0  0  0  0  0  0  0  0  0  0  0
   24.3995  -22.7787  -15.4859 H   0  0  0  0  0  0  0  0  0  0  0  0
   24.3436  -25.0804  -16.0449 H   0  0  0  0  0  0  0  0  0  0  0  0
   23.5442  -26.4688  -11.6152 H   0  0  0  0  0  0  0  0  0  0  0  0
  1  2  2  0
  1  6  1  0
  1  7  1  0
  2  3  1  0
  2  8  1  0
  3  4  2  0
  4  5  1  0
  4  9  1  0
  5  6  2  0
  9 10  2  0
  9 11  1  0
  3 12  1  0
  5 13  1  0
  6 14  1  0
  7 15  1  0
  8 16  1  0
M  CHG  2   9   1  11  -1
M  END
>  <filename_input>  (20) 
7JMV_4NC_docked.sdf

>  <pdb_id>  (20) 
7JMV_4NC

>  <pose_rank>  (20) 
19

>  <num_atoms_heavy>  (20) 
11

>  <num_torsions>  (20) 
1

>  <pose>  (20) 
[24.0730393987644, -24.427950663837663, -14.11917328392929, 1.1536025042567748, -0.21599389716771616, 0.3515265596792051, 0.32058905633470586]

>  <energy>  (20) 
-131.50465635377347

>  <inter_energy>  (20) 
-100.90916856245524

>  <intra_energy>  (20) 
0.0

>  <rmsd>  (20) 
11.1511

>  <sdf_rank>  (20) 
0

$$$$

     RDKit          3D

 16 16  0  0  0  0  0  0  0  0999 V2000
   39.9349  -17.8506   -4.2581 C   0  0  0  0  0  0  0  0  0  0  0  0
   41.1920  -18.3952   -4.2604 C   0  0  0  0  0  0  0  0  0  0  0  0
   41.8976  -18.4980   -5.4367 C   0  0  0  0  0  0  0  0  0  0  0  0
   41.3217  -18.0487   -6.6184 C   0  0  0  0  0  0  0  0  0  0  0  0
   40.0541  -17.4957   -6.6229 C   0  0  0  0  0  0  0  0  0  0  0  0
   39.3456  -17.4005   -5.4346 C   0  0  0  0  0  0  0  0  0  0  0  0
   39.2707  -17.6698   -3.0754 O   0  0  0  0  0  0  0  0  0  0  0  0
   41.7350  -18.8477   -3.0684 O   0  0  0  0  0  0  0  0  0  0  0  0
   42.1127  -18.0700   -7.8233 N   0  0  0  0  0  0  0  0  0  0  0  0
   42.9304  -18.9048   -8.0528 O   0  0  0  0  0  0  0  0  0  0  0  0
   41.6991  -17.2344   -8.8596 O   0  0  0  0  0  0  0  0  0  0  0  0
   42.9084  -18.9318   -5.4416 H   0  0  0  0  0  0  0  0  0  0  0  0
   39.6109  -17.1339   -7.5625 H   0  0  0  0  0  0  0  0  0  0  0  0
   38.3314  -16.9748   -5.4227 H   0  0  0  0  0  0  0  0  0  0  0  0
   38.3623  -17.2764   -3.0730 H   0  0  0  0  0  0  0  0  0  0  0  0
   42.6425  -19.2433   -3.0564 H   0  0  0  0  0  0  0  0  0  0  0  0
  1  2  2  0
  1  6  1  0
  1  7  1  0
  2  3  1  0
  2  8  1  0
  3  4  2  0
  4  5  1  0
  4  9  1  0
  5  6  2  0
  9 10  2  0
  9 11  1  0
  3 12  1  0
  5 13  1  0
  6 14  1  0
  7 15  1  0
  8 16  1  0
M  CHG  2   9   1  11  -1
M  END
>  <filename_input>  (21) 
7JMV_4NC_docked.sdf

>  <pdb_id>  (21) 
7JMV_4NC

>  <pose_rank>  (21) 
20

>  <num_atoms_heavy>  (21) 
11

>  <num_torsions>  (21) 
1

>  <pose>  (21) 
[39.934860439231635, -17.850613254059265, -4.258118874313031, 0.2271626877209688, -1.981474070513009, 3.956641118733999, -2.4994374389711203]

>  <energy>  (21) 
-131.3597766359248

>  <inter_energy>  (21) 
-105.11349852325668

>  <intra_energy>  (21) 
0.0

>  <rmsd>  (21) 
12.4751

>  <sdf_rank>  (21) 
0

$$$$

     RDKit          3D

 16 16  0  0  0  0  0  0  0  0999 V2000
   24.1630  -34.5498  -11.6632 C   0  0  0  0  0  0  0  0  0  0  0  0
   23.9783  -33.3559  -11.0169 C   0  0  0  0  0  0  0  0  0  0  0  0
   23.8769  -32.1891  -11.7382 C   0  0  0  0  0  0  0  0  0  0  0  0
   23.9676  -32.2343  -13.1237 C   0  0  0  0  0  0  0  0  0  0  0  0
   24.1517  -33.4362  -13.7826 C   0  0  0  0  0  0  0  0  0  0  0  0
   24.2592  -34.6083  -13.0492 C   0  0  0  0  0  0  0  0  0  0  0  0
   24.1762  -35.7178  -10.9502 O   0  0  0  0  0  0  0  0  0  0  0  0
   23.9056  -33.3404   -9.6331 O   0  0  0  0  0  0  0  0  0  0  0  0
   23.7578  -31.0183  -13.8690 N   0  0  0  0  0  0  0  0  0  0  0  0
   23.1878  -30.9831  -14.9140 O   0  0  0  0  0  0  0  0  0  0  0  0
   23.9979  -29.8213  -13.1960 O   0  0  0  0  0  0  0  0  0  0  0  0
   23.7253  -31.2293  -11.2228 H   0  0  0  0  0  0  0  0  0  0  0  0
   24.2124  -33.4623  -14.8806 H   0  0  0  0  0  0  0  0  0  0  0  0
   24.4183  -35.5710  -13.5570 H   0  0  0  0  0  0  0  0  0  0  0  0
   24.3097  -36.5808  -11.4165 H   0  0  0  0  0  0  0  0  0  0  0  0
   23.7723  -32.4843   -9.1541 H   0  0  0  0  0  0  0  0  0  0  0  0
  1  2  2  0
  1  6  1  0
  1  7  1  0
  2  3  1  0
  2  8  1  0
  3  4  2  0
  4  5  1  0
  4  9  1  0
  5  6  2  0
  9 10  2  0
  9 11  1  0
  3 12  1  0
  5 13  1  0
  6 14  1  0
  7 15  1  0
  8 16  1  0
M  CHG  2   9   1  11  -1
M  END
>  <filename_input>  (22) 
7JMV_4NC_docked.sdf

>  <pdb_id>  (22) 
7JMV_4NC

>  <pose_rank>  (22) 
21

>  <num_atoms_heavy>  (22) 
11

>  <num_torsions>  (22) 
1

>  <pose>  (22) 
[24.163023669718193, -34.54983525926929, -11.663161006839692, 2.952245202371486, -0.9515342724073981, -5.018990755023537, 0.7105852085845772]

>  <energy>  (22) 
-127.49786775938605

>  <inter_energy>  (22) 
-118.91605134031359

>  <intra_energy>  (22) 
0.0

>  <rmsd>  (22) 
11.6111

>  <sdf_rank>  (22) 
0

$$$$

     RDKit          3D

 16 16  0  0  0  0  0  0  0  0999 V2000
   40.4722  -34.3709   -3.1933 C   0  0  0  0  0  0  0  0  0  0  0  0
   40.4122  -33.6317   -2.0412 C   0  0  0  0  0  0  0  0  0  0  0  0
   39.5037  -33.9550   -1.0603 C   0  0  0  0  0  0  0  0  0  0  0  0
   38.6484  -35.0327   -1.2519 C   0  0  0  0  0  0  0  0  0  0  0  0
   38.7052  -35.7846   -2.4113 C   0  0  0  0  0  0  0  0  0  0  0  0
   39.6193  -35.4498   -3.3990 C   0  0  0  0  0  0  0  0  0  0  0  0
   41.4341  -34.1015   -4.1285 O   0  0  0  0  0  0  0  0  0  0  0  0
   41.2686  -32.5536   -1.8842 O   0  0  0  0  0  0  0  0  0  0  0  0
   37.7737  -35.4198   -0.1735 N   0  0  0  0  0  0  0  0  0  0  0  0
   37.2961  -36.5066   -0.0781 O   0  0  0  0  0  0  0  0  0  0  0  0
   37.7176  -34.5645    0.9259 O   0  0  0  0  0  0  0  0  0  0  0  0
   39.4550  -33.3656   -0.1328 H   0  0  0  0  0  0  0  0  0  0  0  0
   38.0301  -36.6421   -2.5491 H   0  0  0  0  0  0  0  0  0  0  0  0
   39.6689  -36.0297   -4.3324 H   0  0  0  0  0  0  0  0  0  0  0  0
   41.4782  -34.6352   -4.9612 H   0  0  0  0  0  0  0  0  0  0  0  0
   41.2353  -32.0114   -1.0566 H   0  0  0  0  0  0  0  0  0  0  0  0
  1  2  2  0
  1  6  1  0
  1  7  1  0
  2  3  1  0
  2  8  1  0
  3  4  2  0
  4  5  1  0
  4  9  1  0
  5  6  2  0
  9 10  2  0
  9 11  1  0
  3 12  1  0
  5 13  1  0
  6 14  1  0
  7 15  1  0
  8 16  1  0
M  CHG  2   9   1  11  -1
M  END
>  <filename_input>  (23) 
7JMV_4NC_docked.sdf

>  <pdb_id>  (23) 
7JMV_4NC

>  <pose_rank>  (23) 
22

>  <num_atoms_heavy>  (23) 
11

>  <num_torsions>  (23) 
1

>  <pose>  (23) 
[40.47223032817943, -34.3708726242978, -3.1932503018125153, 0.19716102465836466, 1.6499893112006483, 1.9388992292835432, 0.4333339597179118]

>  <energy>  (23) 
-117.84058453805068

>  <inter_energy>  (23) 
-108.11946533115024

>  <intra_energy>  (23) 
0.0

>  <rmsd>  (23) 
12.6735

>  <sdf_rank>  (23) 
0

$$$$

     RDKit          3D

 16 16  0  0  0  0  0  0  0  0999 V2000
   24.0220  -27.1430   -0.7032 C   0  0  0  0  0  0  0  0  0  0  0  0
   23.8315  -26.0570    0.1100 C   0  0  0  0  0  0  0  0  0  0  0  0
   24.2596  -24.8122   -0.2892 C   0  0  0  0  0  0  0  0  0  0  0  0
   24.8885  -24.6700   -1.5198 C   0  0  0  0  0  0  0  0  0  0  0  0
   25.0818  -25.7616   -2.3467 C   0  0  0  0  0  0  0  0  0  0  0  0
   24.6533  -27.0148   -1.9357 C   0  0  0  0  0  0  0  0  0  0  0  0
   23.5181  -28.3631   -0.3428 O   0  0  0  0  0  0  0  0  0  0  0  0
   23.2137  -26.2319    1.3380 O   0  0  0  0  0  0  0  0  0  0  0  0
   25.2389  -23.3451   -1.9666 N   0  0  0  0  0  0  0  0  0  0  0  0
   24.9593  -22.3572   -1.3631 O   0  0  0  0  0  0  0  0  0  0  0  0
   26.1708  -23.2579   -2.9997 O   0  0  0  0  0  0  0  0  0  0  0  0
   24.1055  -23.9376    0.3598 H   0  0  0  0  0  0  0  0  0  0  0  0
   25.5720  -25.6366   -3.3234 H   0  0  0  0  0  0  0  0  0  0  0  0
   24.8105  -27.8954   -2.5758 H   0  0  0  0  0  0  0  0  0  0  0  0
   23.6553  -29.1484   -0.9299 H   0  0  0  0  0  0  0  0  0  0  0  0
   23.0702  -25.4554    1.9351 H   0  0  0  0  0  0  0  0  0  0  0  0
  1  2  2  0
  1  6  1  0
  1  7  1  0
  2  3  1  0
  2  8  1  0
  3  4  2  0
  4  5  1  0
  4  9  1  0
  5  6  2  0
  9 10  2  0
  9 11  1  0
  3 12  1  0
  5 13  1  0
  6 14  1  0
  7 15  1  0
  8 16  1  0
M  CHG  2   9   1  11  -1
M  END
>  <filename_input>  (24) 
7JMV_4NC_docked.sdf

>  <pdb_id>  (24) 
7JMV_4NC

>  <pose_rank>  (24) 
23

>  <num_atoms_heavy>  (24) 
11

>  <num_torsions>  (24) 
1

>  <pose>  (24) 
[24.02198883122367, -27.143000080125343, -0.7032294447233873, 0.6663720432091583, 5.857976939621875, -0.756486620315479, 3.1282064800378406]

>  <energy>  (24) 
-113.08325576114295

>  <inter_energy>  (24) 
-93.76049817621835

>  <intra_energy>  (24) 
0.0

>  <rmsd>  (24) 
11.5534

>  <sdf_rank>  (24) 
0

$$$$

     RDKit          3D

 16 16  0  0  0  0  0  0  0  0999 V2000
   27.6040  -35.1953   -0.2195 C   0  0  0  0  0  0  0  0  0  0  0  0
   26.3526  -35.2629   -0.7729 C   0  0  0  0  0  0  0  0  0  0  0  0
   25.4105  -34.3082   -0.4680 C   0  0  0  0  0  0  0  0  0  0  0  0
   25.7398  -33.2809    0.4073 C   0  0  0  0  0  0  0  0  0  0  0  0
   27.0019  -33.2053    0.9677 C   0  0  0  0  0  0  0  0  0  0  0  0
   27.9452  -34.1744    0.6609 C   0  0  0  0  0  0  0  0  0  0  0  0
   28.5652  -36.0955   -0.5916 O   0  0  0  0  0  0  0  0  0  0  0  0
   26.0486  -36.3072   -1.6318 O   0  0  0  0  0  0  0  0  0  0  0  0
   24.7758  -32.2340    0.6365 N   0  0  0  0  0  0  0  0  0  0  0  0
   23.8501  -32.3493    1.3768 O   0  0  0  0  0  0  0  0  0  0  0  0
   25.1107  -30.9616    0.1756 O   0  0  0  0  0  0  0  0  0  0  0  0
   24.4058  -34.3577   -0.9130 H   0  0  0  0  0  0  0  0  0  0  0  0
   27.2557  -32.3823    1.6521 H   0  0  0  0  0  0  0  0  0  0  0  0
   28.9497  -34.1359    1.1077 H   0  0  0  0  0  0  0  0  0  0  0  0
   29.4697  -36.0473   -0.1921 H   0  0  0  0  0  0  0  0  0  0  0  0
   25.1480  -36.3675   -2.0384 H   0  0  0  0  0  0  0  0  0  0  0  0
  1  2  2  0
  1  6  1  0
  1  7  1  0
  2  3  1  0
  2  8  1  0
  3  4  2  0
  4  5  1  0
  4  9  1  0
  5  6  2  0
  9 10  2  0
  9 11  1  0
  3 12  1  0
  5 13  1  0
  6 14  1  0
  7 15  1  0
  8 16  1  0
M  CHG  2   9   1  11  -1
M  END
>  <filename_input>  (25) 
7JMV_4NC_docked.sdf

>  <pdb_id>  (25) 
7JMV_4NC

>  <pose_rank>  (25) 
24

>  <num_atoms_heavy>  (25) 
11

>  <num_torsions>  (25) 
1

>  <pose>  (25) 
[27.604046952178575, -35.19534798904748, -0.21948792902210956, 0.9138416566054779, -2.0498776174830535, 0.7275171397822685, -1.6925655110050555]

>  <energy>  (25) 
-109.34475588974549

>  <inter_energy>  (25) 
-79.72033348481307

>  <intra_energy>  (25) 
0.0

>  <rmsd>  (25) 
13.4331

>  <sdf_rank>  (25) 
0

$$$$

     RDKit          3D

 16 16  0  0  0  0  0  0  0  0999 V2000
   32.7600  -28.7230   -8.1630 C   0  0  0  0  0  0  0  0  0  0  0  0
   32.8990  -27.6680   -7.3000 C   0  0  0  0  0  0  0  0  0  0  0  0
   33.2330  -26.4230   -7.7800 C   0  0  0  0  0  0  0  0  0  0  0  0
   33.4310  -26.2490   -9.1440 C   0  0  0  0  0  0  0  0  0  0  0  0
   33.2900  -27.3090  -10.0210 C   0  0  0  0  0  0  0  0  0  0  0  0
   32.9590  -28.5630   -9.5300 C   0  0  0  0  0  0  0  0  0  0  0  0
   32.3430  -29.9390   -7.6940 O   0  0  0  0  0  0  0  0  0  0  0  0
   32.7090  -27.8750   -5.9430 O   0  0  0  0  0  0  0  0  0  0  0  0
   33.6800  -24.9190   -9.6410 N   0  0  0  0  0  0  0  0  0  0  0  0
   33.9110  -24.6820  -10.7850 O   0  0  0  0  0  0  0  0  0  0  0  0
   33.3660  -23.8620   -8.7880 O   0  0  0  0  0  0  0  0  0  0  0  0
   33.3423  -25.5731   -7.0903 H   0  0  0  0  0  0  0  0  0  0  0  0
   33.4393  -27.1585  -11.1004 H   0  0  0  0  0  0  0  0  0  0  0  0
   32.8553  -29.4194  -10.2125 H   0  0  0  0  0  0  0  0  0  0  0  0
   32.2423  -30.7018   -8.3170 H   0  0  0  0  0  0  0  0  0  0  0  0
   32.8065  -27.1211   -5.3088 H   0  0  0  0  0  0  0  0  0  0  0  0
  1  2  2  0
  1  6  1  0
  1  7  1  0
  2  3  1  0
  2  8  1  0
  3  4  2  0
  4  5  1  0
  4  9  1  0
  5  6  2  0
  9 10  2  0
  9 11  1  0
  3 12  1  0
  5 13  1  0
  6 14  1  0
  7 15  1  0
  8 16  1  0
M  CHG  2   9   1  11  -1
M  END
>  <filename_input>  (26) 
7JMV_4NC_docked.sdf

>  <pdb_id>  (26) 
7JMV_4NC

>  <pose_rank>  (26) 
25

>  <num_atoms_heavy>  (26) 
11

>  <num_torsions>  (26) 
1

>  <pose>  (26) 
[32.76, -28.723, -8.163, 1e-06, 1e-06, 1e-06, 0.0]

>  <energy>  (26) 
-470.4633830779978

>  <inter_energy>  (26) 
-471.1438570646746

>  <intra_energy>  (26) 
0.0

>  <rmsd>  (26) 
0.0

>  <sdf_rank>  (26) 
0

$$$$
