
     RDKit          3D

 45 48  0  0  0  0  0  0  0  0999 V2000
  174.6954   19.1816   47.4577 N   0  0  0  0  0  0  0  0  0  0  0  0
  176.8756   19.4060   46.5054 N   0  0  0  0  0  0  0  0  0  0  0  0
  175.6959   18.7453   46.6681 C   0  0  0  0  0  0  0  0  0  0  0  0
  177.0698   20.5682   47.1633 C   0  0  0  0  0  0  0  0  0  0  0  0
  178.3665   21.2361   46.9638 C   0  0  0  0  0  0  0  0  0  0  0  0
  179.4492   20.5952   46.2352 C   0  0  0  0  0  0  0  0  0  0  0  0
  179.6432   19.3488   45.6263 C   0  0  0  0  0  0  0  0  0  0  0  0
  181.1296   17.8551   44.3259 C   0  0  0  0  0  0  0  0  0  0  0  0
  181.0256   15.6464   41.5991 C   0  0  0  0  0  0  0  0  0  0  0  0
  181.9191   20.0130   45.0685 C   0  0  0  0  0  0  0  0  0  0  0  0
  180.5342   21.4964   46.2713 C   0  0  0  0  0  0  0  0  0  0  0  0
  176.6620   23.5645   48.0982 C   0  0  0  0  0  0  0  0  0  0  0  0
  176.1916   22.3129   48.8236 C   0  0  0  0  0  0  0  0  0  0  0  0
  181.3279   16.8548   43.7111 C   0  0  0  0  0  0  0  0  0  0  0  0
  181.5873   15.5935   43.0098 C   0  0  1  0  0  0  0  0  0  0  0  0
  181.0096   14.4201   43.7798 C   0  0  0  0  0  0  0  0  0  0  0  0
  181.7588   21.2351   45.6689 C   0  0  0  0  0  0  0  0  0  0  0  0
  178.8256   22.4853   47.3427 C   0  0  0  0  0  0  0  0  0  0  0  0
  178.1740   23.5908   48.1087 C   0  0  0  0  0  0  0  0  0  0  0  0
  176.0533   21.0500   48.0066 C   0  0  0  0  0  0  0  0  0  0  0  0
  174.8907   20.3198   48.1169 C   0  0  0  0  0  0  0  0  0  0  0  0
  180.8767   19.0824   45.0180 C   0  0  0  0  0  0  0  0  0  0  0  0
  175.5128   17.5825   46.0298 N   0  0  0  0  0  0  0  0  0  0  0  0
  180.1231   22.6181   46.9372 N   0  0  0  0  0  0  0  0  0  0  0  0
  183.0118   15.4078   42.9155 O   0  0  0  0  0  0  0  0  0  0  0  0
  178.8429   18.5941   45.6258 H   0  0  0  0  0  0  0  0  0  0  0  0
  179.9313   15.7493   41.6437 H   0  0  0  0  0  0  0  0  0  0  0  0
  181.4535   16.5082   41.0661 H   0  0  0  0  0  0  0  0  0  0  0  0
  181.2853   14.7198   41.0661 H   0  0  0  0  0  0  0  0  0  0  0  0
  182.8892   19.7590   44.6164 H   0  0  0  0  0  0  0  0  0  0  0  0
  176.2991   23.5491   47.0599 H   0  0  0  0  0  0  0  0  0  0  0  0
  176.2678   24.4599   48.6011 H   0  0  0  0  0  0  0  0  0  0  0  0
  176.9114   22.1078   49.6297 H   0  0  0  0  0  0  0  0  0  0  0  0
  175.1699   22.5468   49.1575 H   0  0  0  0  0  0  0  0  0  0  0  0
  181.1024   14.6087   44.8595 H   0  0  0  0  0  0  0  0  0  0  0  0
  179.9480   14.2973   43.5189 H   0  0  0  0  0  0  0  0  0  0  0  0
  181.5596   13.5039   43.5189 H   0  0  0  0  0  0  0  0  0  0  0  0
  182.5682   21.9800   45.6737 H   0  0  0  0  0  0  0  0  0  0  0  0
  178.5026   24.5471   47.6756 H   0  0  0  0  0  0  0  0  0  0  0  0
  178.4786   23.4619   49.1578 H   0  0  0  0  0  0  0  0  0  0  0  0
  174.0928   20.6926   48.7759 H   0  0  0  0  0  0  0  0  0  0  0  0
  176.2512   17.2104   45.4156 H   0  0  0  0  0  0  0  0  0  0  0  0
  174.6337   17.0603   46.1530 H   0  0  0  0  0  0  0  0  0  0  0  0
  180.7099   23.4470   47.1089 H   0  0  0  0  0  0  0  0  0  0  0  0
  183.3990   15.3574   43.8252 H   0  0  0  0  0  0  0  0  0  0  0  0
  1  3  2  0
  1 21  1  0
  2  3  1  0
  2  4  2  0
  3 23  1  0
  4  5  1  0
  4 20  1  0
  5  6  1  0
  5 18  2  0
  6  7  2  0
  6 11  1  0
  7 22  1  0
  8 14  3  0
  8 22  1  0
 15  9  1  0
 10 17  1  0
 10 22  2  0
 11 17  2  0
 11 24  1  0
 12 13  1  0
 12 19  1  0
 13 20  1  0
 15 14  1  1
 15 16  1  0
 15 25  1  0
 18 19  1  0
 18 24  1  0
 20 21  2  0
  7 26  1  0
  9 27  1  0
  9 28  1  0
  9 29  1  0
 10 30  1  0
 12 31  1  0
 12 32  1  0
 13 33  1  0
 13 34  1  0
 16 35  1  0
 16 36  1  0
 16 37  1  0
 17 38  1  0
 19 39  1  0
 19 40  1  0
 21 41  1  0
 23 42  1  0
 23 43  1  0
 24 44  1  0
 25 45  1  0
M  END
>  <filename_input>  (1) 
7JXX_VP7_docked.sdf

>  <pdb_id>  (1) 
7JXX_VP7

>  <pose_rank>  (1) 
0

>  <num_atoms_heavy>  (1) 
25

>  <num_torsions>  (1) 
2

>  <pose>  (1) 
[174.69544111610017, 19.18163719994506, 47.45766704920559, 4.985428056127545, -2.7318666994625507, -2.387856945468785, 0.16588723289288834, -0.07214891829928408]

>  <energy>  (1) 
-1477.693113491551

>  <inter_energy>  (1) 
-1461.0433737780252

>  <intra_energy>  (1) 
0.0

>  <rmsd>  (1) 
0.350071

>  <sdf_rank>  (1) 
0

$$$$

     RDKit          3D

 45 48  0  0  0  0  0  0  0  0999 V2000
  182.4166   23.6316   48.2194 N   0  0  0  0  0  0  0  0  0  0  0  0
  180.9095   21.8254   47.7986 N   0  0  0  0  0  0  0  0  0  0  0  0
  182.1565   22.3726   47.8168 C   0  0  0  0  0  0  0  0  0  0  0  0
  179.8622   22.5724   48.2066 C   0  0  0  0  0  0  0  0  0  0  0  0
  178.5342   21.9391   48.1552 C   0  0  0  0  0  0  0  0  0  0  0  0
  178.3338   20.6391   47.5358 C   0  0  0  0  0  0  0  0  0  0  0  0
  179.1437   19.7217   46.8542 C   0  0  0  0  0  0  0  0  0  0  0  0
  179.3367   17.5318   45.7147 C   0  0  0  0  0  0  0  0  0  0  0  0
  181.6132   16.2669   43.4003 C   0  0  0  0  0  0  0  0  0  0  0  0
  177.1910   18.3088   46.5042 C   0  0  0  0  0  0  0  0  0  0  0  0
  176.9535   20.3649   47.6361 C   0  0  0  0  0  0  0  0  0  0  0  0
  177.9938   24.3077   50.0817 C   0  0  0  0  0  0  0  0  0  0  0  0
  178.9834   24.8280   49.0502 C   0  0  0  0  0  0  0  0  0  0  0  0
  180.0091   16.6912   45.2057 C   0  0  0  0  0  0  0  0  0  0  0  0
  180.7973   15.6572   44.5278 C   0  0  1  0  0  0  0  0  0  0  0  0
  179.8998   14.5486   44.0094 C   0  0  0  0  0  0  0  0  0  0  0  0
  176.3745   19.1965   47.1562 C   0  0  0  0  0  0  0  0  0  0  0  0
  177.3023   22.3453   48.6369 C   0  0  0  0  0  0  0  0  0  0  0  0
  176.8795   23.5824   49.3610 C   0  0  0  0  0  0  0  0  0  0  0  0
  180.0920   23.8956   48.6226 C   0  0  0  0  0  0  0  0  0  0  0  0
  181.3839   24.3730   48.6090 C   0  0  0  0  0  0  0  0  0  0  0  0
  178.5629   18.5427   46.3694 C   0  0  0  0  0  0  0  0  0  0  0  0
  183.1917   21.6364   47.3931 N   0  0  0  0  0  0  0  0  0  0  0  0
  176.3690   21.4048   48.3051 N   0  0  0  0  0  0  0  0  0  0  0  0
  181.7122   15.0828   45.4795 O   0  0  0  0  0  0  0  0  0  0  0  0
  180.2145   19.9230   46.7027 H   0  0  0  0  0  0  0  0  0  0  0  0
  182.4265   16.8747   43.8234 H   0  0  0  0  0  0  0  0  0  0  0  0
  182.0395   15.4643   42.7806 H   0  0  0  0  0  0  0  0  0  0  0  0
  180.9642   16.9031   42.7806 H   0  0  0  0  0  0  0  0  0  0  0  0
  176.7572   17.3923   46.0778 H   0  0  0  0  0  0  0  0  0  0  0  0
  178.5036   23.6150   50.7675 H   0  0  0  0  0  0  0  0  0  0  0  0
  177.5815   25.1462   50.6623 H   0  0  0  0  0  0  0  0  0  0  0  0
  178.4116   25.0965   48.1496 H   0  0  0  0  0  0  0  0  0  0  0  0
  179.4946   25.6660   49.5465 H   0  0  0  0  0  0  0  0  0  0  0  0
  179.4600   14.0055   44.8589 H   0  0  0  0  0  0  0  0  0  0  0  0
  179.0963   14.9836   43.3968 H   0  0  0  0  0  0  0  0  0  0  0  0
  180.4924   13.8533   43.3968 H   0  0  0  0  0  0  0  0  0  0  0  0
  175.3025   18.9917   47.2941 H   0  0  0  0  0  0  0  0  0  0  0  0
  176.1181   23.3011   50.1033 H   0  0  0  0  0  0  0  0  0  0  0  0
  176.5033   24.2763   48.5948 H   0  0  0  0  0  0  0  0  0  0  0  0
  181.5685   25.4078   48.9332 H   0  0  0  0  0  0  0  0  0  0  0  0
  183.0396   20.6683   47.0760 H   0  0  0  0  0  0  0  0  0  0  0  0
  184.1400   22.0382   47.3843 H   0  0  0  0  0  0  0  0  0  0  0  0
  175.3654   21.4696   48.5277 H   0  0  0  0  0  0  0  0  0  0  0  0
  181.3994   15.2792   46.3980 H   0  0  0  0  0  0  0  0  0  0  0  0
  1  3  2  0
  1 21  1  0
  2  3  1  0
  2  4  2  0
  3 23  1  0
  4  5  1  0
  4 20  1  0
  5  6  1  0
  5 18  2  0
  6  7  2  0
  6 11  1  0
  7 22  1  0
  8 14  3  0
  8 22  1  0
 15  9  1  0
 10 17  1  0
 10 22  2  0
 11 17  2  0
 11 24  1  0
 12 13  1  0
 12 19  1  0
 13 20  1  0
 15 14  1  1
 15 16  1  0
 15 25  1  0
 18 19  1  0
 18 24  1  0
 20 21  2  0
  7 26  1  0
  9 27  1  0
  9 28  1  0
  9 29  1  0
 10 30  1  0
 12 31  1  0
 12 32  1  0
 13 33  1  0
 13 34  1  0
 16 35  1  0
 16 36  1  0
 16 37  1  0
 17 38  1  0
 19 39  1  0
 19 40  1  0
 21 41  1  0
 23 42  1  0
 23 43  1  0
 24 44  1  0
 25 45  1  0
M  END
>  <filename_input>  (2) 
7JXX_VP7_docked.sdf

>  <pdb_id>  (2) 
7JXX_VP7

>  <pose_rank>  (2) 
1

>  <num_atoms_heavy>  (2) 
25

>  <num_torsions>  (2) 
2

>  <pose>  (2) 
[182.41659491306348, 23.631552684712137, 48.21935064986386, -1.1096023663342176, 2.377878456777398, 1.6048419687170548, -0.573911924283581, -1.669265472912581]

>  <energy>  (2) 
-594.9970827279881

>  <inter_energy>  (2) 
-602.9974784312259

>  <intra_energy>  (2) 
0.0

>  <rmsd>  (2) 
4.42069

>  <sdf_rank>  (2) 
0

$$$$

     RDKit          3D

 45 48  0  0  0  0  0  0  0  0999 V2000
  176.5183   17.8964   45.9654 N   0  0  0  0  0  0  0  0  0  0  0  0
  176.4062   19.9056   47.2542 N   0  0  0  0  0  0  0  0  0  0  0  0
  175.8733   18.7395   46.7947 C   0  0  0  0  0  0  0  0  0  0  0  0
  177.6525   20.2510   46.8688 C   0  0  0  0  0  0  0  0  0  0  0  0
  178.1773   21.5270   47.3825 C   0  0  0  0  0  0  0  0  0  0  0  0
  177.3371   22.4522   48.1254 C   0  0  0  0  0  0  0  0  0  0  0  0
  175.9892   22.4939   48.5042 C   0  0  0  0  0  0  0  0  0  0  0  0
  174.1787   23.6903   49.6967 C   0  0  0  0  0  0  0  0  0  0  0  0
  170.7129   23.6864   49.4431 C   0  0  0  0  0  0  0  0  0  0  0  0
  176.3739   24.6788   49.5092 C   0  0  0  0  0  0  0  0  0  0  0  0
  178.1490   23.5665   48.4244 C   0  0  0  0  0  0  0  0  0  0  0  0
  180.7912   20.1246   46.4800 C   0  0  0  0  0  0  0  0  0  0  0  0
  179.7316   19.7222   45.4654 C   0  0  0  0  0  0  0  0  0  0  0  0
  173.0687   23.7997   50.1137 C   0  0  0  0  0  0  0  0  0  0  0  0
  171.6857   23.8812   50.5938 C   0  0  1  0  0  0  0  0  0  0  0  0
  171.4363   25.2030   51.2966 C   0  0  0  0  0  0  0  0  0  0  0  0
  177.6940   24.6679   49.1389 C   0  0  0  0  0  0  0  0  0  0  0  0
  179.4386   22.0931   47.3238 C   0  0  0  0  0  0  0  0  0  0  0  0
  180.7101   21.6189   46.6980 C   0  0  0  0  0  0  0  0  0  0  0  0
  178.3532   19.4024   45.9938 C   0  0  0  0  0  0  0  0  0  0  0  0
  177.7413   18.2420   45.5744 C   0  0  0  0  0  0  0  0  0  0  0  0
  175.5273   23.6029   49.2248 C   0  0  0  0  0  0  0  0  0  0  0  0
  174.6291   18.4082   47.1625 N   0  0  0  0  0  0  0  0  0  0  0  0
  179.4008   23.3144   47.9343 N   0  0  0  0  0  0  0  0  0  0  0  0
  171.4689   22.8221   51.5446 O   0  0  0  0  0  0  0  0  0  0  0  0
  175.3069   21.6722   48.2409 H   0  0  0  0  0  0  0  0  0  0  0  0
  169.7080   23.4850   49.8425 H   0  0  0  0  0  0  0  0  0  0  0  0
  170.6868   24.5971   48.8268 H   0  0  0  0  0  0  0  0  0  0  0  0
  171.0397   22.8358   48.8268 H   0  0  0  0  0  0  0  0  0  0  0  0
  175.9719   25.5533   50.0419 H   0  0  0  0  0  0  0  0  0  0  0  0
  180.6111   19.6014   47.4307 H   0  0  0  0  0  0  0  0  0  0  0  0
  181.7899   19.8536   46.1068 H   0  0  0  0  0  0  0  0  0  0  0  0
  179.6272   20.5513   44.7501 H   0  0  0  0  0  0  0  0  0  0  0  0
  180.0959   18.7773   45.0359 H   0  0  0  0  0  0  0  0  0  0  0  0
  171.4651   25.0505   52.3856 H   0  0  0  0  0  0  0  0  0  0  0  0
  172.2140   25.9249   51.0068 H   0  0  0  0  0  0  0  0  0  0  0  0
  170.4489   25.5918   51.0068 H   0  0  0  0  0  0  0  0  0  0  0  0
  178.3668   25.4989   49.3975 H   0  0  0  0  0  0  0  0  0  0  0  0
  181.5442   21.9151   47.3511 H   0  0  0  0  0  0  0  0  0  0  0  0
  180.7550   22.0801   45.7004 H   0  0  0  0  0  0  0  0  0  0  0  0
  178.2855   17.5752   44.8894 H   0  0  0  0  0  0  0  0  0  0  0  0
  174.0982   19.0233   47.7955 H   0  0  0  0  0  0  0  0  0  0  0  0
  174.2031   17.5382   46.8125 H   0  0  0  0  0  0  0  0  0  0  0  0
  180.2028   23.9557   48.0143 H   0  0  0  0  0  0  0  0  0  0  0  0
  171.5428   23.1833   52.4634 H   0  0  0  0  0  0  0  0  0  0  0  0
  1  3  2  0
  1 21  1  0
  2  3  1  0
  2  4  2  0
  3 23  1  0
  4  5  1  0
  4 20  1  0
  5  6  1  0
  5 18  2  0
  6  7  2  0
  6 11  1  0
  7 22  1  0
  8 14  3  0
  8 22  1  0
 15  9  1  0
 10 17  1  0
 10 22  2  0
 11 17  2  0
 11 24  1  0
 12 13  1  0
 12 19  1  0
 13 20  1  0
 15 14  1  6
 15 16  1  0
 15 25  1  0
 18 19  1  0
 18 24  1  0
 20 21  2  0
  7 26  1  0
  9 27  1  0
  9 28  1  0
  9 29  1  0
 10 30  1  0
 12 31  1  0
 12 32  1  0
 13 33  1  0
 13 34  1  0
 16 35  1  0
 16 36  1  0
 16 37  1  0
 17 38  1  0
 19 39  1  0
 19 40  1  0
 21 41  1  0
 23 42  1  0
 23 43  1  0
 24 44  1  0
 25 45  1  0
M  END
>  <filename_input>  (3) 
7JXX_VP7_docked.sdf

>  <pdb_id>  (3) 
7JXX_VP7

>  <pose_rank>  (3) 
2

>  <num_atoms_heavy>  (3) 
25

>  <num_torsions>  (3) 
2

>  <pose>  (3) 
[176.51833458382427, 17.89637819335942, 45.965427809517784, 2.1438309811215275, 2.1662924228805895, 0.5375741773934413, 1.4846574010350486, -3.7688583960439717]

>  <energy>  (3) 
-717.1222483454874

>  <inter_energy>  (3) 
-721.9760408969902

>  <intra_energy>  (3) 
0.0

>  <rmsd>  (3) 
7.96833

>  <sdf_rank>  (3) 
0

$$$$

     RDKit          3D

 45 48  0  0  0  0  0  0  0  0999 V2000
  185.1549   23.6733   44.6696 N   0  0  0  0  0  0  0  0  0  0  0  0
  183.5163   21.9977   45.1359 N   0  0  0  0  0  0  0  0  0  0  0  0
  184.6502   22.4333   44.5201 C   0  0  0  0  0  0  0  0  0  0  0  0
  182.8482   22.8428   45.9486 C   0  0  0  0  0  0  0  0  0  0  0  0
  181.6218   22.3278   46.5795 C   0  0  0  0  0  0  0  0  0  0  0  0
  181.0617   21.0367   46.2141 C   0  0  0  0  0  0  0  0  0  0  0  0
  181.3792   20.0365   45.2863 C   0  0  0  0  0  0  0  0  0  0  0  0
  180.8528   17.8130   44.3323 C   0  0  0  0  0  0  0  0  0  0  0  0
  180.9883   16.1233   41.2972 C   0  0  0  0  0  0  0  0  0  0  0  0
  179.4116   18.7933   46.0037 C   0  0  0  0  0  0  0  0  0  0  0  0
  179.8867   20.8873   46.9805 C   0  0  0  0  0  0  0  0  0  0  0  0
  182.2366   24.7776   48.3778 C   0  0  0  0  0  0  0  0  0  0  0  0
  182.6372   25.1855   46.9681 C   0  0  0  0  0  0  0  0  0  0  0  0
  181.0750   16.8787   43.6284 C   0  0  0  0  0  0  0  0  0  0  0  0
  181.3804   15.7678   42.7214 C   0  0  1  0  0  0  0  0  0  0  0  0
  180.6859   14.4963   43.1736 C   0  0  0  0  0  0  0  0  0  0  0  0
  179.0721   19.7639   46.9106 C   0  0  0  0  0  0  0  0  0  0  0  0
  180.8054   22.8515   47.5664 C   0  0  0  0  0  0  0  0  0  0  0  0
  180.8677   24.1371   48.3260 C   0  0  0  0  0  0  0  0  0  0  0  0
  183.3372   24.1497   46.1204 C   0  0  0  0  0  0  0  0  0  0  0  0
  184.4903   24.5113   45.4596 C   0  0  0  0  0  0  0  0  0  0  0  0
  180.5600   18.9025   45.2135 C   0  0  0  0  0  0  0  0  0  0  0  0
  185.3009   21.5996   43.6988 N   0  0  0  0  0  0  0  0  0  0  0  0
  179.7681   21.9895   47.7817 N   0  0  0  0  0  0  0  0  0  0  0  0
  182.8008   15.5342   42.7473 O   0  0  0  0  0  0  0  0  0  0  0  0
  182.2544   20.1395   44.6279 H   0  0  0  0  0  0  0  0  0  0  0  0
  180.1736   16.8621   41.3148 H   0  0  0  0  0  0  0  0  0  0  0  0
  181.8571   16.5479   40.7729 H   0  0  0  0  0  0  0  0  0  0  0  0
  180.6505   15.2173   40.7729 H   0  0  0  0  0  0  0  0  0  0  0  0
  178.7663   17.9091   45.8953 H   0  0  0  0  0  0  0  0  0  0  0  0
  182.9671   24.0585   48.7768 H   0  0  0  0  0  0  0  0  0  0  0  0
  182.2124   25.6620   49.0315 H   0  0  0  0  0  0  0  0  0  0  0  0
  181.7209   25.4828   46.4370 H   0  0  0  0  0  0  0  0  0  0  0  0
  183.3786   25.9863   47.1055 H   0  0  0  0  0  0  0  0  0  0  0  0
  180.6663   14.4603   44.2728 H   0  0  0  0  0  0  0  0  0  0  0  0
  179.6559   14.4841   42.7878 H   0  0  0  0  0  0  0  0  0  0  0  0
  181.2323   13.6230   42.7878 H   0  0  0  0  0  0  0  0  0  0  0  0
  178.1890   19.6573   47.5578 H   0  0  0  0  0  0  0  0  0  0  0  0
  180.5425   23.9406   49.3583 H   0  0  0  0  0  0  0  0  0  0  0  0
  180.2152   24.8438   47.7923 H   0  0  0  0  0  0  0  0  0  0  0  0
  184.8764   25.5329   45.5905 H   0  0  0  0  0  0  0  0  0  0  0  0
  184.9509   20.6417   43.5542 H   0  0  0  0  0  0  0  0  0  0  0  0
  186.1514   21.9162   43.2116 H   0  0  0  0  0  0  0  0  0  0  0  0
  179.0034   22.1473   48.4536 H   0  0  0  0  0  0  0  0  0  0  0  0
  183.1098   15.4834   43.6865 H   0  0  0  0  0  0  0  0  0  0  0  0
  1  3  2  0
  1 21  1  0
  2  3  1  0
  2  4  2  0
  3 23  1  0
  4  5  1  0
  4 20  1  0
  5  6  1  0
  5 18  2  0
  6  7  2  0
  6 11  1  0
  7 22  1  0
  8 14  3  0
  8 22  1  0
 15  9  1  0
 10 17  1  0
 10 22  2  0
 11 17  2  0
 11 24  1  0
 12 13  1  0
 12 19  1  0
 13 20  1  0
 15 14  1  1
 15 16  1  0
 15 25  1  0
 18 19  1  0
 18 24  1  0
 20 21  2  0
  7 26  1  0
  9 27  1  0
  9 28  1  0
  9 29  1  0
 10 30  1  0
 12 31  1  0
 12 32  1  0
 13 33  1  0
 13 34  1  0
 16 35  1  0
 16 36  1  0
 16 37  1  0
 17 38  1  0
 19 39  1  0
 19 40  1  0
 21 41  1  0
 23 42  1  0
 23 43  1  0
 24 44  1  0
 25 45  1  0
M  END
>  <filename_input>  (4) 
7JXX_VP7_docked.sdf

>  <pdb_id>  (4) 
7JXX_VP7

>  <pose_rank>  (4) 
3

>  <num_atoms_heavy>  (4) 
25

>  <num_torsions>  (4) 
2

>  <pose>  (4) 
[185.15494047163855, 23.67330930557282, 44.66956583017968, 0.5442661463048973, -2.2485073099904334, -1.657037515599406, 1.166832188595089, 2.4307376562865186]

>  <energy>  (4) 
-679.5345822363423

>  <inter_energy>  (4) 
-681.7769222003006

>  <intra_energy>  (4) 
0.0

>  <rmsd>  (4) 
5.54313

>  <sdf_rank>  (4) 
0

$$$$

     RDKit          3D

 45 48  0  0  0  0  0  0  0  0999 V2000
  181.7925   23.5273   47.7046 N   0  0  0  0  0  0  0  0  0  0  0  0
  179.5649   22.6629   47.7330 N   0  0  0  0  0  0  0  0  0  0  0  0
  180.4830   23.6321   48.0026 C   0  0  0  0  0  0  0  0  0  0  0  0
  179.9724   21.5263   47.1304 C   0  0  0  0  0  0  0  0  0  0  0  0
  178.9438   20.5049   46.8731 C   0  0  0  0  0  0  0  0  0  0  0  0
  177.5929   20.6362   47.3944 C   0  0  0  0  0  0  0  0  0  0  0  0
  176.9210   21.5581   48.2073 C   0  0  0  0  0  0  0  0  0  0  0  0
  174.8064   22.2495   49.2944 C   0  0  0  0  0  0  0  0  0  0  0  0
  171.8903   23.8805   50.3505 C   0  0  0  0  0  0  0  0  0  0  0  0
  174.9273   20.1646   48.0820 C   0  0  0  0  0  0  0  0  0  0  0  0
  176.9009   19.4756   46.9887 C   0  0  0  0  0  0  0  0  0  0  0  0
  181.1943   19.5863   44.9482 C   0  0  0  0  0  0  0  0  0  0  0  0
  181.8984   20.1230   46.1852 C   0  0  0  0  0  0  0  0  0  0  0  0
  174.1473   23.0338   49.9012 C   0  0  0  0  0  0  0  0  0  0  0  0
  173.3649   23.9800   50.7029 C   0  0  1  0  0  0  0  0  0  0  0  0
  173.8734   25.3971   50.5123 C   0  0  0  0  0  0  0  0  0  0  0  0
  175.5663   19.2409   47.2956 C   0  0  0  0  0  0  0  0  0  0  0  0
  178.9786   19.3268   46.1481 C   0  0  0  0  0  0  0  0  0  0  0  0
  180.0803   18.6627   45.3875 C   0  0  0  0  0  0  0  0  0  0  0  0
  181.3340   21.3748   46.8146 C   0  0  0  0  0  0  0  0  0  0  0  0
  182.1976   22.4024   47.1228 C   0  0  0  0  0  0  0  0  0  0  0  0
  175.5752   21.3243   48.5184 C   0  0  0  0  0  0  0  0  0  0  0  0
  180.0801   24.7508   48.6183 N   0  0  0  0  0  0  0  0  0  0  0  0
  177.7594   18.7179   46.2406 N   0  0  0  0  0  0  0  0  0  0  0  0
  173.5151   23.6348   52.0924 O   0  0  0  0  0  0  0  0  0  0  0  0
  177.4397   22.4478   48.5936 H   0  0  0  0  0  0  0  0  0  0  0  0
  171.2945   23.8402   51.2742 H   0  0  0  0  0  0  0  0  0  0  0  0
  171.5940   24.7606   49.7610 H   0  0  0  0  0  0  0  0  0  0  0  0
  171.7150   22.9684   49.7610 H   0  0  0  0  0  0  0  0  0  0  0  0
  173.8819   19.9896   48.3760 H   0  0  0  0  0  0  0  0  0  0  0  0
  180.7754   20.4222   44.3687 H   0  0  0  0  0  0  0  0  0  0  0  0
  181.9097   19.0378   44.3178 H   0  0  0  0  0  0  0  0  0  0  0  0
  181.8763   19.3307   46.9480 H   0  0  0  0  0  0  0  0  0  0  0  0
  182.9019   20.4094   45.8374 H   0  0  0  0  0  0  0  0  0  0  0  0
  174.0403   25.8621   51.4951 H   0  0  0  0  0  0  0  0  0  0  0  0
  174.8197   25.3749   49.9518 H   0  0  0  0  0  0  0  0  0  0  0  0
  173.1289   25.9816   49.9518 H   0  0  0  0  0  0  0  0  0  0  0  0
  175.0426   18.3485   46.9222 H   0  0  0  0  0  0  0  0  0  0  0  0
  179.6455   18.1998   44.4894 H   0  0  0  0  0  0  0  0  0  0  0  0
  180.5353   17.9340   46.0746 H   0  0  0  0  0  0  0  0  0  0  0  0
  183.2640   22.2881   46.8781 H   0  0  0  0  0  0  0  0  0  0  0  0
  179.0878   24.8740   48.8652 H   0  0  0  0  0  0  0  0  0  0  0  0
  180.7626   25.4882   48.8449 H   0  0  0  0  0  0  0  0  0  0  0  0
  177.5201   17.8145   45.8077 H   0  0  0  0  0  0  0  0  0  0  0  0
  173.1901   24.3817   52.6550 H   0  0  0  0  0  0  0  0  0  0  0  0
  1  3  2  0
  1 21  1  0
  2  3  1  0
  2  4  2  0
  3 23  1  0
  4  5  1  0
  4 20  1  0
  5  6  1  0
  5 18  2  0
  6  7  2  0
  6 11  1  0
  7 22  1  0
  8 14  3  0
  8 22  1  0
 15  9  1  0
 10 17  1  0
 10 22  2  0
 11 17  2  0
 11 24  1  0
 12 13  1  0
 12 19  1  0
 13 20  1  0
 15 14  1  6
 15 16  1  0
 15 25  1  0
 18 19  1  0
 18 24  1  0
 20 21  2  0
  7 26  1  0
  9 27  1  0
  9 28  1  0
  9 29  1  0
 10 30  1  0
 12 31  1  0
 12 32  1  0
 13 33  1  0
 13 34  1  0
 16 35  1  0
 16 36  1  0
 16 37  1  0
 17 38  1  0
 19 39  1  0
 19 40  1  0
 21 41  1  0
 23 42  1  0
 23 43  1  0
 24 44  1  0
 25 45  1  0
M  END
>  <filename_input>  (5) 
7JXX_VP7_docked.sdf

>  <pdb_id>  (5) 
7JXX_VP7

>  <pose_rank>  (5) 
4

>  <num_atoms_heavy>  (5) 
25

>  <num_torsions>  (5) 
2

>  <pose>  (5) 
[181.79250812059567, 23.527340594094117, 47.70456570161693, 0.9743692741287574, -1.7365301049628818, 2.941434628830106, 0.30462048273850734, 1.0257546956461037]

>  <energy>  (5) 
-658.1415763593911

>  <inter_energy>  (5) 
-641.3631119717614

>  <intra_energy>  (5) 
0.0

>  <rmsd>  (5) 
8.33706

>  <sdf_rank>  (5) 
0

$$$$

     RDKit          3D

 45 48  0  0  0  0  0  0  0  0999 V2000
  175.1390   17.7894   46.3760 N   0  0  0  0  0  0  0  0  0  0  0  0
  177.3571   17.7278   45.4890 N   0  0  0  0  0  0  0  0  0  0  0  0
  176.0930   17.2342   45.6038 C   0  0  0  0  0  0  0  0  0  0  0  0
  177.6901   18.8384   46.1795 C   0  0  0  0  0  0  0  0  0  0  0  0
  179.0721   19.3237   46.0314 C   0  0  0  0  0  0  0  0  0  0  0  0
  180.0774   18.5533   45.3173 C   0  0  0  0  0  0  0  0  0  0  0  0
  180.1156   17.3044   44.6844 C   0  0  0  0  0  0  0  0  0  0  0  0
  181.4199   15.6449   43.3896 C   0  0  0  0  0  0  0  0  0  0  0  0
  181.5729   12.1644   43.0398 C   0  0  0  0  0  0  0  0  0  0  0  0
  182.4772   17.6571   44.2047 C   0  0  0  0  0  0  0  0  0  0  0  0
  181.2749   19.2942   45.4044 C   0  0  0  0  0  0  0  0  0  0  0  0
  177.6722   21.8432   47.1742 C   0  0  0  0  0  0  0  0  0  0  0  0
  177.0116   20.6548   47.8565 C   0  0  0  0  0  0  0  0  0  0  0  0
  181.5417   14.6064   42.8200 C   0  0  0  0  0  0  0  0  0  0  0  0
  181.6399   13.3427   42.0829 C   0  0  1  0  0  0  0  0  0  0  0  0
  182.9120   13.2983   41.2564 C   0  0  0  0  0  0  0  0  0  0  0  0
  182.4692   18.8775   44.8296 C   0  0  0  0  0  0  0  0  0  0  0  0
  179.6877   20.4893   46.4523 C   0  0  0  0  0  0  0  0  0  0  0  0
  179.1723   21.6591   47.2265 C   0  0  0  0  0  0  0  0  0  0  0  0
  176.7248   19.4399   47.0061 C   0  0  0  0  0  0  0  0  0  0  0  0
  175.4697   18.8761   47.0672 C   0  0  0  0  0  0  0  0  0  0  0  0
  181.3183   16.8814   44.1037 C   0  0  0  0  0  0  0  0  0  0  0  0
  175.7704   16.1210   44.9331 N   0  0  0  0  0  0  0  0  0  0  0  0
  181.0028   20.4487   46.0855 N   0  0  0  0  0  0  0  0  0  0  0  0
  180.5196   13.2503   41.1834 O   0  0  0  0  0  0  0  0  0  0  0  0
  179.2190   16.6683   44.6441 H   0  0  0  0  0  0  0  0  0  0  0  0
  181.5938   12.5322   44.0763 H   0  0  0  0  0  0  0  0  0  0  0  0
  180.6415   11.6050   42.8680 H   0  0  0  0  0  0  0  0  0  0  0  0
  182.4349   11.5030   42.8680 H   0  0  0  0  0  0  0  0  0  0  0  0
  183.4161   17.2799   43.7733 H   0  0  0  0  0  0  0  0  0  0  0  0
  177.3422   21.8990   46.1264 H   0  0  0  0  0  0  0  0  0  0  0  0
  177.3905   22.7745   47.6874 H   0  0  0  0  0  0  0  0  0  0  0  0
  177.6715   20.3358   48.6767 H   0  0  0  0  0  0  0  0  0  0  0  0
  176.0224   21.0217   48.1679 H   0  0  0  0  0  0  0  0  0  0  0  0
  183.7838   13.2678   41.9266 H   0  0  0  0  0  0  0  0  0  0  0  0
  182.9058   12.3998   40.6219 H   0  0  0  0  0  0  0  0  0  0  0  0
  182.9685   14.1950   40.6219 H   0  0  0  0  0  0  0  0  0  0  0  0
  183.3734   19.5025   44.8741 H   0  0  0  0  0  0  0  0  0  0  0  0
  179.6428   22.5689   46.8254 H   0  0  0  0  0  0  0  0  0  0  0  0
  179.4243   21.4683   48.2801 H   0  0  0  0  0  0  0  0  0  0  0  0
  174.7114   19.3429   47.7130 H   0  0  0  0  0  0  0  0  0  0  0  0
  176.4685   15.6623   44.3305 H   0  0  0  0  0  0  0  0  0  0  0  0
  174.8242   15.7235   45.0198 H   0  0  0  0  0  0  0  0  0  0  0  0
  181.6930   21.1845   46.2928 H   0  0  0  0  0  0  0  0  0  0  0  0
  179.6816   13.1812   41.7060 H   0  0  0  0  0  0  0  0  0  0  0  0
  1  3  2  0
  1 21  1  0
  2  3  1  0
  2  4  2  0
  3 23  1  0
  4  5  1  0
  4 20  1  0
  5  6  1  0
  5 18  2  0
  6  7  2  0
  6 11  1  0
  7 22  1  0
  8 14  3  0
  8 22  1  0
 15  9  1  0
 10 17  1  0
 10 22  2  0
 11 17  2  0
 11 24  1  0
 12 13  1  0
 12 19  1  0
 13 20  1  0
 15 14  1  1
 15 16  1  0
 15 25  1  0
 18 19  1  0
 18 24  1  0
 20 21  2  0
  7 26  1  0
  9 27  1  0
  9 28  1  0
  9 29  1  0
 10 30  1  0
 12 31  1  0
 12 32  1  0
 13 33  1  0
 13 34  1  0
 16 35  1  0
 16 36  1  0
 16 37  1  0
 17 38  1  0
 19 39  1  0
 19 40  1  0
 21 41  1  0
 23 42  1  0
 23 43  1  0
 24 44  1  0
 25 45  1  0
M  END
>  <filename_input>  (6) 
7JXX_VP7_docked.sdf

>  <pdb_id>  (6) 
7JXX_VP7

>  <pose_rank>  (6) 
5

>  <num_atoms_heavy>  (6) 
25

>  <num_torsions>  (6) 
2

>  <pose>  (6) 
[175.13904649170195, 17.789413300731912, 46.37596202787774, 3.5547428139588106, -1.4851553771090864, 4.8097407164703485, -3.7680197506159963, -5.097459548257248]

>  <energy>  (6) 
-646.265441455326

>  <inter_energy>  (6) 
-636.1873784674822

>  <intra_energy>  (6) 
0.0

>  <rmsd>  (6) 
2.49627

>  <sdf_rank>  (6) 
0

$$$$

     RDKit          3D

 45 48  0  0  0  0  0  0  0  0999 V2000
  178.1454   14.1989   44.8195 N   0  0  0  0  0  0  0  0  0  0  0  0
  179.0184   16.3051   45.5352 N   0  0  0  0  0  0  0  0  0  0  0  0
  178.1235   15.2820   45.6202 C   0  0  0  0  0  0  0  0  0  0  0  0
  179.9918   16.2459   44.6025 C   0  0  0  0  0  0  0  0  0  0  0  0
  180.9254   17.3828   44.5432 C   0  0  0  0  0  0  0  0  0  0  0  0
  180.7100   18.5869   45.3291 C   0  0  0  0  0  0  0  0  0  0  0  0
  179.7190   19.0423   46.2080 C   0  0  0  0  0  0  0  0  0  0  0  0
  178.9169   20.8260   47.7267 C   0  0  0  0  0  0  0  0  0  0  0  0
  176.3651   20.6197   50.1208 C   0  0  0  0  0  0  0  0  0  0  0  0
  180.9280   21.1450   46.4285 C   0  0  0  0  0  0  0  0  0  0  0  0
  181.7644   19.4645   44.9998 C   0  0  0  0  0  0  0  0  0  0  0  0
  182.5188   15.2184   42.9972 C   0  0  0  0  0  0  0  0  0  0  0  0
  181.0583   14.9995   42.6325 C   0  0  0  0  0  0  0  0  0  0  0  0
  178.1028   21.2232   48.4995 C   0  0  0  0  0  0  0  0  0  0  0  0
  177.1450   21.7527   49.4753 C   0  0  1  0  0  0  0  0  0  0  0  0
  176.2082   22.7528   48.8229 C   0  0  0  0  0  0  0  0  0  0  0  0
  181.9046   20.7277   45.5613 C   0  0  0  0  0  0  0  0  0  0  0  0
  182.1028   17.5703   43.8409 C   0  0  0  0  0  0  0  0  0  0  0  0
  182.8324   16.6928   42.8760 C   0  0  0  0  0  0  0  0  0  0  0  0
  180.0402   15.1368   43.7398 C   0  0  0  0  0  0  0  0  0  0  0  0
  179.0960   14.1457   43.8913 C   0  0  0  0  0  0  0  0  0  0  0  0
  179.8575   20.3154   46.7760 C   0  0  0  0  0  0  0  0  0  0  0  0
  177.1466   15.3518   46.5334 N   0  0  0  0  0  0  0  0  0  0  0  0
  182.5810   18.8209   44.1111 N   0  0  0  0  0  0  0  0  0  0  0  0
  177.8770   22.4356   50.5098 O   0  0  0  0  0  0  0  0  0  0  0  0
  178.8493   18.4128   46.4475 H   0  0  0  0  0  0  0  0  0  0  0  0
  176.4267   20.7092   51.2154 H   0  0  0  0  0  0  0  0  0  0  0  0
  175.3122   20.6740   49.8072 H   0  0  0  0  0  0  0  0  0  0  0  0
  176.7919   19.6555   49.8072 H   0  0  0  0  0  0  0  0  0  0  0  0
  180.9880   22.1549   46.8605 H   0  0  0  0  0  0  0  0  0  0  0  0
  182.6963   14.8858   44.0306 H   0  0  0  0  0  0  0  0  0  0  0  0
  183.1651   14.6406   42.3201 H   0  0  0  0  0  0  0  0  0  0  0  0
  180.7992   15.7307   41.8527 H   0  0  0  0  0  0  0  0  0  0  0  0
  180.9991   13.9455   42.3233 H   0  0  0  0  0  0  0  0  0  0  0  0
  175.6771   23.3197   49.6017 H   0  0  0  0  0  0  0  0  0  0  0  0
  176.7897   23.4457   48.1971 H   0  0  0  0  0  0  0  0  0  0  0  0
  175.4787   22.2177   48.1971 H   0  0  0  0  0  0  0  0  0  0  0  0
  182.7656   21.3681   45.3195 H   0  0  0  0  0  0  0  0  0  0  0  0
  183.9118   16.8277   43.0396 H   0  0  0  0  0  0  0  0  0  0  0  0
  182.5042   16.9976   41.8713 H   0  0  0  0  0  0  0  0  0  0  0  0
  179.1296   13.2763   43.2182 H   0  0  0  0  0  0  0  0  0  0  0  0
  177.0909   16.1619   47.1670 H   0  0  0  0  0  0  0  0  0  0  0  0
  176.4509   14.5953   46.6021 H   0  0  0  0  0  0  0  0  0  0  0  0
  183.4368   19.2231   43.7027 H   0  0  0  0  0  0  0  0  0  0  0  0
  177.5544   22.1346   51.3961 H   0  0  0  0  0  0  0  0  0  0  0  0
  1  3  2  0
  1 21  1  0
  2  3  1  0
  2  4  2  0
  3 23  1  0
  4  5  1  0
  4 20  1  0
  5  6  1  0
  5 18  2  0
  6  7  2  0
  6 11  1  0
  7 22  1  0
  8 14  3  0
  8 22  1  0
 15  9  1  0
 10 17  1  0
 10 22  2  0
 11 17  2  0
 11 24  1  0
 12 13  1  0
 12 19  1  0
 13 20  1  0
 15 14  1  6
 15 16  1  0
 15 25  1  0
 18 19  1  0
 18 24  1  0
 20 21  2  0
  7 26  1  0
  9 27  1  0
  9 28  1  0
  9 29  1  0
 10 30  1  0
 12 31  1  0
 12 32  1  0
 13 33  1  0
 13 34  1  0
 16 35  1  0
 16 36  1  0
 16 37  1  0
 17 38  1  0
 19 39  1  0
 19 40  1  0
 21 41  1  0
 23 42  1  0
 23 43  1  0
 24 44  1  0
 25 45  1  0
M  END
>  <filename_input>  (7) 
7JXX_VP7_docked.sdf

>  <pdb_id>  (7) 
7JXX_VP7

>  <pose_rank>  (7) 
6

>  <num_atoms_heavy>  (7) 
25

>  <num_torsions>  (7) 
2

>  <pose>  (7) 
[178.14538642029055, 14.19890277220978, 44.81946438972609, 2.557666077483395, 1.9844129683155078, -0.18313201913433225, -1.9298277779864121, 0.9583156999458807]

>  <energy>  (7) 
-584.8014607054359

>  <inter_energy>  (7) 
-577.6399505409728

>  <intra_energy>  (7) 
0.0

>  <rmsd>  (7) 
7.14667

>  <sdf_rank>  (7) 
0

$$$$

     RDKit          3D

 45 48  0  0  0  0  0  0  0  0999 V2000
  181.0682   18.5493   44.7565 N   0  0  0  0  0  0  0  0  0  0  0  0
  181.3221   20.7289   45.7028 N   0  0  0  0  0  0  0  0  0  0  0  0
  181.7956   19.6535   45.0142 C   0  0  0  0  0  0  0  0  0  0  0  0
  180.0520   20.7055   46.1583 C   0  0  0  0  0  0  0  0  0  0  0  0
  179.5930   21.8866   46.9078 C   0  0  0  0  0  0  0  0  0  0  0  0
  180.5085   22.9499   47.2890 C   0  0  0  0  0  0  0  0  0  0  0  0
  181.8848   23.1767   47.1613 C   0  0  0  0  0  0  0  0  0  0  0  0
  183.8100   24.6843   47.5513 C   0  0  0  0  0  0  0  0  0  0  0  0
  187.1943   24.0535   46.9973 C   0  0  0  0  0  0  0  0  0  0  0  0
  181.6215   25.2611   48.3934 C   0  0  0  0  0  0  0  0  0  0  0  0
  179.7422   23.8865   48.0142 C   0  0  0  0  0  0  0  0  0  0  0  0
  176.8899   20.5672   46.1553 C   0  0  0  0  0  0  0  0  0  0  0  0
  177.8506   19.4201   46.4292 C   0  0  0  0  0  0  0  0  0  0  0  0
  184.9666   24.9580   47.4788 C   0  0  0  0  0  0  0  0  0  0  0  0
  186.3849   25.2968   47.3250 C   0  0  1  0  0  0  0  0  0  0  0  0
  186.9154   25.9753   48.5746 C   0  0  0  0  0  0  0  0  0  0  0  0
  180.2741   25.0563   48.5429 C   0  0  0  0  0  0  0  0  0  0  0  0
  178.3399   22.2574   47.3627 C   0  0  0  0  0  0  0  0  0  0  0  0
  177.0116   21.5782   47.2734 C   0  0  0  0  0  0  0  0  0  0  0  0
  179.2651   19.5651   45.9197 C   0  0  0  0  0  0  0  0  0  0  0  0
  179.8209   18.5195   45.2163 C   0  0  0  0  0  0  0  0  0  0  0  0
  182.4241   24.3552   47.6932 C   0  0  0  0  0  0  0  0  0  0  0  0
  183.0622   19.6705   44.5800 N   0  0  0  0  0  0  0  0  0  0  0  0
  178.4488   23.4421   48.0335 N   0  0  0  0  0  0  0  0  0  0  0  0
  186.5181   26.2175   46.2263 O   0  0  0  0  0  0  0  0  0  0  0  0
  182.5293   22.4441   46.6536 H   0  0  0  0  0  0  0  0  0  0  0  0
  187.5116   23.5659   47.9309 H   0  0  0  0  0  0  0  0  0  0  0  0
  186.5759   23.3571   46.4119 H   0  0  0  0  0  0  0  0  0  0  0  0
  188.0813   24.3371   46.4119 H   0  0  0  0  0  0  0  0  0  0  0  0
  182.0814   26.1579   48.8341 H   0  0  0  0  0  0  0  0  0  0  0  0
  177.1447   21.0428   45.1967 H   0  0  0  0  0  0  0  0  0  0  0  0
  175.8585   20.1883   46.1030 H   0  0  0  0  0  0  0  0  0  0  0  0
  177.9042   19.2871   47.5198 H   0  0  0  0  0  0  0  0  0  0  0  0
  177.4364   18.5657   45.8738 H   0  0  0  0  0  0  0  0  0  0  0  0
  186.5176   25.4666   49.4651 H   0  0  0  0  0  0  0  0  0  0  0  0
  188.0141   25.9223   48.5822 H   0  0  0  0  0  0  0  0  0  0  0  0
  186.5991   27.0288   48.5822 H   0  0  0  0  0  0  0  0  0  0  0  0
  179.6388   25.7895   49.0612 H   0  0  0  0  0  0  0  0  0  0  0  0
  176.2423   22.3498   47.1223 H   0  0  0  0  0  0  0  0  0  0  0  0
  176.8865   21.0184   48.2120 H   0  0  0  0  0  0  0  0  0  0  0  0
  179.2092   17.6250   45.0276 H   0  0  0  0  0  0  0  0  0  0  0  0
  183.6554   20.4942   44.7546 H   0  0  0  0  0  0  0  0  0  0  0  0
  183.4432   18.8599   44.0714 H   0  0  0  0  0  0  0  0  0  0  0  0
  177.6664   23.9323   48.4901 H   0  0  0  0  0  0  0  0  0  0  0  0
  186.6506   27.1335   46.5775 H   0  0  0  0  0  0  0  0  0  0  0  0
  1  3  2  0
  1 21  1  0
  2  3  1  0
  2  4  2  0
  3 23  1  0
  4  5  1  0
  4 20  1  0
  5  6  1  0
  5 18  2  0
  6  7  2  0
  6 11  1  0
  7 22  1  0
  8 14  3  0
  8 22  1  0
 15  9  1  0
 10 17  1  0
 10 22  2  0
 11 17  2  0
 11 24  1  0
 12 13  1  0
 12 19  1  0
 13 20  1  0
 15 14  1  1
 15 16  1  0
 15 25  1  0
 18 19  1  0
 18 24  1  0
 20 21  2  0
  7 26  1  0
  9 27  1  0
  9 28  1  0
  9 29  1  0
 10 30  1  0
 12 31  1  0
 12 32  1  0
 13 33  1  0
 13 34  1  0
 16 35  1  0
 16 36  1  0
 16 37  1  0
 17 38  1  0
 19 39  1  0
 19 40  1  0
 21 41  1  0
 23 42  1  0
 23 43  1  0
 24 44  1  0
 25 45  1  0
M  END
>  <filename_input>  (8) 
7JXX_VP7_docked.sdf

>  <pdb_id>  (8) 
7JXX_VP7

>  <pose_rank>  (8) 
7

>  <num_atoms_heavy>  (8) 
25

>  <num_torsions>  (8) 
2

>  <pose>  (8) 
[181.06820107180357, 18.54934695606276, 44.756507868186155, -1.0135907381444484, 2.478754369653287, -3.9110123382018878, 2.714496340838706, -4.389576549710963]

>  <energy>  (8) 
-438.98234454612145

>  <inter_energy>  (8) 
-454.37941527204197

>  <intra_energy>  (8) 
0.0

>  <rmsd>  (8) 
6.80816

>  <sdf_rank>  (8) 
0

$$$$

     RDKit          3D

 45 48  0  0  0  0  0  0  0  0999 V2000
  182.8458   21.9248   46.3941 N   0  0  0  0  0  0  0  0  0  0  0  0
  181.5111   23.1434   47.9575 N   0  0  0  0  0  0  0  0  0  0  0  0
  182.6169   22.9977   47.1759 C   0  0  0  0  0  0  0  0  0  0  0  0
  180.5791   22.1675   47.9593 C   0  0  0  0  0  0  0  0  0  0  0  0
  179.4096   22.3671   48.8310 C   0  0  0  0  0  0  0  0  0  0  0  0
  179.3411   23.4731   49.7722 C   0  0  0  0  0  0  0  0  0  0  0  0
  180.1994   24.5103   50.1590 C   0  0  0  0  0  0  0  0  0  0  0  0
  180.5675   26.5210   51.5565 C   0  0  0  0  0  0  0  0  0  0  0  0
  183.4712   28.4698   51.7498 C   0  0  0  0  0  0  0  0  0  0  0  0
  178.5394   25.2310   51.7890 C   0  0  0  0  0  0  0  0  0  0  0  0
  178.1140   23.3331   50.4541 C   0  0  0  0  0  0  0  0  0  0  0  0
  178.3587   20.1689   46.9133 C   0  0  0  0  0  0  0  0  0  0  0  0
  179.8312   19.8581   47.1352 C   0  0  0  0  0  0  0  0  0  0  0  0
  181.2603   27.4217   51.9121 C   0  0  0  0  0  0  0  0  0  0  0  0
  182.0693   28.5722   52.3267 C   0  0  1  0  0  0  0  0  0  0  0  0
  182.1125   28.6835   53.8397 C   0  0  0  0  0  0  0  0  0  0  0  0
  177.6865   24.2167   51.4375 C   0  0  0  0  0  0  0  0  0  0  0  0
  178.2219   21.6673   48.9511 C   0  0  0  0  0  0  0  0  0  0  0  0
  177.7152   20.4468   48.2533 C   0  0  0  0  0  0  0  0  0  0  0  0
  180.7884   21.0261   47.1654 C   0  0  0  0  0  0  0  0  0  0  0  0
  181.9347   20.9565   46.4051 C   0  0  0  0  0  0  0  0  0  0  0  0
  179.7712   25.4030   51.1501 C   0  0  0  0  0  0  0  0  0  0  0  0
  183.5499   23.9581   47.1904 N   0  0  0  0  0  0  0  0  0  0  0  0
  177.4688   22.2454   49.9331 N   0  0  0  0  0  0  0  0  0  0  0  0
  181.4606   29.7694   51.8081 O   0  0  0  0  0  0  0  0  0  0  0  0
  181.1899   24.6217   49.6938 H   0  0  0  0  0  0  0  0  0  0  0  0
  184.2022   28.4164   52.5699 H   0  0  0  0  0  0  0  0  0  0  0  0
  183.5476   27.5637   51.1308 H   0  0  0  0  0  0  0  0  0  0  0  0
  183.6785   29.3552   51.1308 H   0  0  0  0  0  0  0  0  0  0  0  0
  178.2483   25.9247   52.5915 H   0  0  0  0  0  0  0  0  0  0  0  0
  178.2604   21.0522   46.2650 H   0  0  0  0  0  0  0  0  0  0  0  0
  177.8637   19.3140   46.4295 H   0  0  0  0  0  0  0  0  0  0  0  0
  179.9170   19.3354   48.0992 H   0  0  0  0  0  0  0  0  0  0  0  0
  180.1314   19.2694   46.2558 H   0  0  0  0  0  0  0  0  0  0  0  0
  181.7487   27.7466   54.2867 H   0  0  0  0  0  0  0  0  0  0  0  0
  183.1473   28.8671   54.1644 H   0  0  0  0  0  0  0  0  0  0  0  0
  181.4729   29.5174   54.1644 H   0  0  0  0  0  0  0  0  0  0  0  0
  176.7018   24.1067   51.9154 H   0  0  0  0  0  0  0  0  0  0  0  0
  176.6334   20.5675   48.0949 H   0  0  0  0  0  0  0  0  0  0  0  0
  177.9666   19.5934   48.9003 H   0  0  0  0  0  0  0  0  0  0  0  0
  182.1029   20.0652   45.7829 H   0  0  0  0  0  0  0  0  0  0  0  0
  183.4168   24.7966   47.7737 H   0  0  0  0  0  0  0  0  0  0  0  0
  184.4005   23.8585   46.6183 H   0  0  0  0  0  0  0  0  0  0  0  0
  176.5443   21.9093   50.2385 H   0  0  0  0  0  0  0  0  0  0  0  0
  181.1686   30.3435   52.5600 H   0  0  0  0  0  0  0  0  0  0  0  0
  1  3  2  0
  1 21  1  0
  2  3  1  0
  2  4  2  0
  3 23  1  0
  4  5  1  0
  4 20  1  0
  5  6  1  0
  5 18  2  0
  6  7  2  0
  6 11  1  0
  7 22  1  0
  8 14  3  0
  8 22  1  0
 15  9  1  0
 10 17  1  0
 10 22  2  0
 11 17  2  0
 11 24  1  0
 12 13  1  0
 12 19  1  0
 13 20  1  0
 15 14  1  1
 15 16  1  0
 15 25  1  0
 18 19  1  0
 18 24  1  0
 20 21  2  0
  7 26  1  0
  9 27  1  0
  9 28  1  0
  9 29  1  0
 10 30  1  0
 12 31  1  0
 12 32  1  0
 13 33  1  0
 13 34  1  0
 16 35  1  0
 16 36  1  0
 16 37  1  0
 17 38  1  0
 19 39  1  0
 19 40  1  0
 21 41  1  0
 23 42  1  0
 23 43  1  0
 24 44  1  0
 25 45  1  0
M  END
>  <filename_input>  (9) 
7JXX_VP7_docked.sdf

>  <pdb_id>  (9) 
7JXX_VP7

>  <pose_rank>  (9) 
8

>  <num_atoms_heavy>  (9) 
25

>  <num_torsions>  (9) 
2

>  <pose>  (9) 
[182.84584782957094, 21.92484249352651, 46.39412859360489, 0.8882044617255141, -1.1789624181749385, 1.8328873959913, -2.6543867989526664, 1.1313106617938862]

>  <energy>  (9) 
-351.37388034432024

>  <inter_energy>  (9) 
-364.13888258225523

>  <intra_energy>  (9) 
0.0

>  <rmsd>  (9) 
9.25126

>  <sdf_rank>  (9) 
0

$$$$

     RDKit          3D

 45 48  0  0  0  0  0  0  0  0999 V2000
  182.2051   23.3716   47.2488 N   0  0  0  0  0  0  0  0  0  0  0  0
  179.8481   23.3862   47.6423 N   0  0  0  0  0  0  0  0  0  0  0  0
  181.0784   23.9689   47.6830 C   0  0  0  0  0  0  0  0  0  0  0  0
  179.7319   22.1396   47.1386 C   0  0  0  0  0  0  0  0  0  0  0  0
  178.3830   21.5498   47.1293 C   0  0  0  0  0  0  0  0  0  0  0  0
  177.2617   22.2027   47.7852 C   0  0  0  0  0  0  0  0  0  0  0  0
  177.0903   23.3616   48.5530 C   0  0  0  0  0  0  0  0  0  0  0  0
  175.5476   24.8539   49.7878 C   0  0  0  0  0  0  0  0  0  0  0  0
  176.3678   27.6766   51.6935 C   0  0  0  0  0  0  0  0  0  0  0  0
  174.7395   22.7888   48.8317 C   0  0  0  0  0  0  0  0  0  0  0  0
  176.1519   21.3500   47.6070 C   0  0  0  0  0  0  0  0  0  0  0  0
  179.8431   19.7376   45.0804 C   0  0  0  0  0  0  0  0  0  0  0  0
  180.8714   20.0659   46.1522 C   0  0  0  0  0  0  0  0  0  0  0  0
  175.3513   25.8306   50.4399 C   0  0  0  0  0  0  0  0  0  0  0  0
  175.0735   27.0567   51.1945 C   0  0  1  0  0  0  0  0  0  0  0  0
  174.1265   26.7773   52.3471 C   0  0  0  0  0  0  0  0  0  0  0  0
  174.8838   21.6421   48.0941 C   0  0  0  0  0  0  0  0  0  0  0  0
  177.8893   20.3924   46.5537 C   0  0  0  0  0  0  0  0  0  0  0  0
  178.5564   19.3191   45.7558 C   0  0  0  0  0  0  0  0  0  0  0  0
  180.8875   21.4786   46.6866 C   0  0  0  0  0  0  0  0  0  0  0  0
  182.0940   22.1383   46.7646 C   0  0  0  0  0  0  0  0  0  0  0  0
  175.8129   23.6590   49.0454 C   0  0  0  0  0  0  0  0  0  0  0  0
  181.1946   25.1982   48.2011 N   0  0  0  0  0  0  0  0  0  0  0  0
  176.5633   20.2798   46.8613 N   0  0  0  0  0  0  0  0  0  0  0  0
  174.4379   28.0013   50.3134 O   0  0  0  0  0  0  0  0  0  0  0  0
  177.9417   24.0250   48.7651 H   0  0  0  0  0  0  0  0  0  0  0  0
  176.3730   27.6790   52.7935 H   0  0  0  0  0  0  0  0  0  0  0  0
  177.2217   27.0897   51.3242 H   0  0  0  0  0  0  0  0  0  0  0  0
  176.4458   28.7098   51.3242 H   0  0  0  0  0  0  0  0  0  0  0  0
  173.7575   23.0296   49.2650 H   0  0  0  0  0  0  0  0  0  0  0  0
  179.6621   20.6254   44.4566 H   0  0  0  0  0  0  0  0  0  0  0  0
  180.2141   18.9223   44.4420 H   0  0  0  0  0  0  0  0  0  0  0  0
  180.6886   19.3928   47.0028 H   0  0  0  0  0  0  0  0  0  0  0  0
  181.8457   19.9399   45.6573 H   0  0  0  0  0  0  0  0  0  0  0  0
  174.6532   26.9327   53.3003 H   0  0  0  0  0  0  0  0  0  0  0  0
  173.2659   27.4598   52.2883 H   0  0  0  0  0  0  0  0  0  0  0  0
  173.7742   25.7369   52.2883 H   0  0  0  0  0  0  0  0  0  0  0  0
  174.0288   20.9790   47.8957 H   0  0  0  0  0  0  0  0  0  0  0  0
  177.8545   18.9849   44.9776 H   0  0  0  0  0  0  0  0  0  0  0  0
  178.8248   18.5252   46.4683 H   0  0  0  0  0  0  0  0  0  0  0  0
  183.0009   21.6248   46.4126 H   0  0  0  0  0  0  0  0  0  0  0  0
  180.3595   25.6929   48.5456 H   0  0  0  0  0  0  0  0  0  0  0  0
  182.1192   25.6490   48.2551 H   0  0  0  0  0  0  0  0  0  0  0  0
  175.9579   19.4982   46.5722 H   0  0  0  0  0  0  0  0  0  0  0  0
  173.9733   28.6918   50.8495 H   0  0  0  0  0  0  0  0  0  0  0  0
  1  3  2  0
  1 21  1  0
  2  3  1  0
  2  4  2  0
  3 23  1  0
  4  5  1  0
  4 20  1  0
  5  6  1  0
  5 18  2  0
  6  7  2  0
  6 11  1  0
  7 22  1  0
  8 14  3  0
  8 22  1  0
 15  9  1  0
 10 17  1  0
 10 22  2  0
 11 17  2  0
 11 24  1  0
 12 13  1  0
 12 19  1  0
 13 20  1  0
 15 14  1  6
 15 16  1  0
 15 25  1  0
 18 19  1  0
 18 24  1  0
 20 21  2  0
  7 26  1  0
  9 27  1  0
  9 28  1  0
  9 29  1  0
 10 30  1  0
 12 31  1  0
 12 32  1  0
 13 33  1  0
 13 34  1  0
 16 35  1  0
 16 36  1  0
 16 37  1  0
 17 38  1  0
 19 39  1  0
 19 40  1  0
 21 41  1  0
 23 42  1  0
 23 43  1  0
 24 44  1  0
 25 45  1  0
M  END
>  <filename_input>  (10) 
7JXX_VP7_docked.sdf

>  <pdb_id>  (10) 
7JXX_VP7

>  <pose_rank>  (10) 
9

>  <num_atoms_heavy>  (10) 
25

>  <num_torsions>  (10) 
2

>  <pose>  (10) 
[182.2050936904857, 23.371632069067, 47.24883660803987, 0.7599530144937355, -1.5511497151653075, 2.6357462401201084, -2.7035971572779838, 1.0810151974567337]

>  <energy>  (10) 
-600.1735457296913

>  <inter_energy>  (10) 
-563.3889894281201

>  <intra_energy>  (10) 
0.0

>  <rmsd>  (10) 
9.00196

>  <sdf_rank>  (10) 
0

$$$$

     RDKit          3D

 45 48  0  0  0  0  0  0  0  0999 V2000
  182.4071   18.2527   44.3353 N   0  0  0  0  0  0  0  0  0  0  0  0
  180.3870   18.9522   45.4033 N   0  0  0  0  0  0  0  0  0  0  0  0
  181.6560   19.1780   44.9632 C   0  0  0  0  0  0  0  0  0  0  0  0
  179.8331   17.7377   45.2049 C   0  0  0  0  0  0  0  0  0  0  0  0
  178.4647   17.5408   45.7109 C   0  0  0  0  0  0  0  0  0  0  0  0
  177.8056   18.5418   46.5341 C   0  0  0  0  0  0  0  0  0  0  0  0
  178.1660   19.7795   47.0821 C   0  0  0  0  0  0  0  0  0  0  0  0
  177.5038   21.7604   48.4120 C   0  0  0  0  0  0  0  0  0  0  0  0
  178.7765   24.0298   50.7570 C   0  0  0  0  0  0  0  0  0  0  0  0
  175.9821   19.9033   48.1531 C   0  0  0  0  0  0  0  0  0  0  0  0
  176.5404   18.0101   46.8612 C   0  0  0  0  0  0  0  0  0  0  0  0
  178.7056   15.1886   43.7053 C   0  0  0  0  0  0  0  0  0  0  0  0
  180.0807   15.3378   44.3384 C   0  0  0  0  0  0  0  0  0  0  0  0
  177.7755   22.8253   48.8703 C   0  0  0  0  0  0  0  0  0  0  0  0
  178.0475   24.1531   49.4297 C   0  0  1  0  0  0  0  0  0  0  0  0
  176.7623   24.9446   49.5885 C   0  0  0  0  0  0  0  0  0  0  0  0
  175.6098   18.6879   47.6391 C   0  0  0  0  0  0  0  0  0  0  0  0
  177.5611   16.5068   45.5408 C   0  0  0  0  0  0  0  0  0  0  0  0
  177.6631   15.2125   44.8005 C   0  0  0  0  0  0  0  0  0  0  0  0
  180.5904   16.7417   44.5637 C   0  0  0  0  0  0  0  0  0  0  0  0
  181.8673   17.0516   44.1510 C   0  0  0  0  0  0  0  0  0  0  0  0
  177.2299   20.4655   47.8667 C   0  0  0  0  0  0  0  0  0  0  0  0
  182.2109   20.3775   45.1785 N   0  0  0  0  0  0  0  0  0  0  0  0
  176.4268   16.7941   46.2454 N   0  0  0  0  0  0  0  0  0  0  0  0
  178.9017   24.8671   48.5169 O   0  0  0  0  0  0  0  0  0  0  0  0
  179.1641   20.2044   46.8999 H   0  0  0  0  0  0  0  0  0  0  0  0
  178.0591   24.1511   51.5820 H   0  0  0  0  0  0  0  0  0  0  0  0
  179.2493   23.0389   50.8250 H   0  0  0  0  0  0  0  0  0  0  0  0
  179.5489   24.8100   50.8250 H   0  0  0  0  0  0  0  0  0  0  0  0
  175.2836   20.4482   48.8052 H   0  0  0  0  0  0  0  0  0  0  0  0
  178.5276   16.0192   43.0064 H   0  0  0  0  0  0  0  0  0  0  0  0
  178.6479   14.2388   43.1532 H   0  0  0  0  0  0  0  0  0  0  0  0
  180.0502   14.8362   45.3169 H   0  0  0  0  0  0  0  0  0  0  0  0
  180.7769   14.8980   43.6090 H   0  0  0  0  0  0  0  0  0  0  0  0
  176.5442   25.0789   50.6583 H   0  0  0  0  0  0  0  0  0  0  0  0
  176.8766   25.9290   49.1112 H   0  0  0  0  0  0  0  0  0  0  0  0
  175.9346   24.3995   49.1112 H   0  0  0  0  0  0  0  0  0  0  0  0
  174.6131   18.2659   47.8350 H   0  0  0  0  0  0  0  0  0  0  0  0
  176.6842   15.0003   44.3458 H   0  0  0  0  0  0  0  0  0  0  0  0
  177.9719   14.4574   45.5384 H   0  0  0  0  0  0  0  0  0  0  0  0
  182.4637   16.2753   43.6493 H   0  0  0  0  0  0  0  0  0  0  0  0
  181.6734   21.1155   45.6552 H   0  0  0  0  0  0  0  0  0  0  0  0
  183.1753   20.5621   44.8673 H   0  0  0  0  0  0  0  0  0  0  0  0
  175.6014   16.1809   46.3047 H   0  0  0  0  0  0  0  0  0  0  0  0
  179.5516   25.4102   49.0295 H   0  0  0  0  0  0  0  0  0  0  0  0
  1  3  2  0
  1 21  1  0
  2  3  1  0
  2  4  2  0
  3 23  1  0
  4  5  1  0
  4 20  1  0
  5  6  1  0
  5 18  2  0
  6  7  2  0
  6 11  1  0
  7 22  1  0
  8 14  3  0
  8 22  1  0
 15  9  1  0
 10 17  1  0
 10 22  2  0
 11 17  2  0
 11 24  1  0
 12 13  1  0
 12 19  1  0
 13 20  1  0
 15 14  1  6
 15 16  1  0
 15 25  1  0
 18 19  1  0
 18 24  1  0
 20 21  2  0
  7 26  1  0
  9 27  1  0
  9 28  1  0
  9 29  1  0
 10 30  1  0
 12 31  1  0
 12 32  1  0
 13 33  1  0
 13 34  1  0
 16 35  1  0
 16 36  1  0
 16 37  1  0
 17 38  1  0
 19 39  1  0
 19 40  1  0
 21 41  1  0
 23 42  1  0
 23 43  1  0
 24 44  1  0
 25 45  1  0
M  END
>  <filename_input>  (11) 
7JXX_VP7_docked.sdf

>  <pdb_id>  (11) 
7JXX_VP7

>  <pose_rank>  (11) 
10

>  <num_atoms_heavy>  (11) 
25

>  <num_torsions>  (11) 
2

>  <pose>  (11) 
[182.407054790286, 18.25273584184435, 44.33526670784485, 0.8644276037117106, -1.2506933372441233, 2.277797879211186, 4.207437488558195, -0.7532334437867831]

>  <energy>  (11) 
-472.9603657427012

>  <inter_energy>  (11) 
-450.9150981718822

>  <intra_energy>  (11) 
0.0

>  <rmsd>  (11) 
7.82082

>  <sdf_rank>  (11) 
0

$$$$

     RDKit          3D

 45 48  0  0  0  0  0  0  0  0999 V2000
  180.7015   18.4843   44.9548 N   0  0  0  0  0  0  0  0  0  0  0  0
  180.0396   20.2793   46.3866 N   0  0  0  0  0  0  0  0  0  0  0  0
  180.9590   19.6242   45.6249 C   0  0  0  0  0  0  0  0  0  0  0  0
  178.7926   19.7730   46.4851 C   0  0  0  0  0  0  0  0  0  0  0  0
  177.8404   20.5115   47.3310 C   0  0  0  0  0  0  0  0  0  0  0  0
  178.2643   21.6307   48.1566 C   0  0  0  0  0  0  0  0  0  0  0  0
  179.4844   22.2585   48.4386 C   0  0  0  0  0  0  0  0  0  0  0  0
  180.6922   24.0634   49.6280 C   0  0  0  0  0  0  0  0  0  0  0  0
  184.1224   24.5242   50.0315 C   0  0  0  0  0  0  0  0  0  0  0  0
  178.3261   23.7400   49.9863 C   0  0  0  0  0  0  0  0  0  0  0  0
  177.1142   22.0666   48.8476 C   0  0  0  0  0  0  0  0  0  0  0  0
  175.9125   18.7669   45.6420 C   0  0  0  0  0  0  0  0  0  0  0  0
  177.1396   17.9044   45.8957 C   0  0  0  0  0  0  0  0  0  0  0  0
  181.6772   24.6669   49.9164 C   0  0  0  0  0  0  0  0  0  0  0  0
  182.9042   25.4148   50.2084 C   0  0  1  0  0  0  0  0  0  0  0  0
  182.8588   25.9995   51.6081 C   0  0  0  0  0  0  0  0  0  0  0  0
  177.1216   23.1341   49.7371 C   0  0  0  0  0  0  0  0  0  0  0  0
  176.4768   20.3712   47.5193 C   0  0  0  0  0  0  0  0  0  0  0  0
  175.4910   19.4050   46.9467 C   0  0  0  0  0  0  0  0  0  0  0  0
  178.4888   18.5779   45.8099 C   0  0  0  0  0  0  0  0  0  0  0  0
  179.4769   17.9772   45.0617 C   0  0  0  0  0  0  0  0  0  0  0  0
  179.4951   23.3351   49.3348 C   0  0  0  0  0  0  0  0  0  0  0  0
  182.2013   20.1175   45.5442 N   0  0  0  0  0  0  0  0  0  0  0  0
  176.0629   21.2938   48.4375 N   0  0  0  0  0  0  0  0  0  0  0  0
  183.0090   26.5039   49.2726 O   0  0  0  0  0  0  0  0  0  0  0  0
  180.4155   21.9129   47.9657 H   0  0  0  0  0  0  0  0  0  0  0  0
  184.5138   24.2380   51.0189 H   0  0  0  0  0  0  0  0  0  0  0  0
  183.8376   23.6198   49.4738 H   0  0  0  0  0  0  0  0  0  0  0  0
  184.8977   25.0699   49.4738 H   0  0  0  0  0  0  0  0  0  0  0  0
  178.3737   24.5627   50.7148 H   0  0  0  0  0  0  0  0  0  0  0  0
  176.1554   19.5498   44.9084 H   0  0  0  0  0  0  0  0  0  0  0  0
  175.0942   18.1477   45.2457 H   0  0  0  0  0  0  0  0  0  0  0  0
  177.0441   17.4832   46.9073 H   0  0  0  0  0  0  0  0  0  0  0  0
  177.1397   17.1663   45.0801 H   0  0  0  0  0  0  0  0  0  0  0  0
  182.9219   25.1872   52.3471 H   0  0  0  0  0  0  0  0  0  0  0  0
  183.7062   26.6872   51.7459 H   0  0  0  0  0  0  0  0  0  0  0  0
  181.9153   26.5481   51.7459 H   0  0  0  0  0  0  0  0  0  0  0  0
  176.1970   23.4797   50.2225 H   0  0  0  0  0  0  0  0  0  0  0  0
  174.5459   19.9413   46.7757 H   0  0  0  0  0  0  0  0  0  0  0  0
  175.3999   18.5867   47.6762 H   0  0  0  0  0  0  0  0  0  0  0  0
  179.2440   17.0417   44.5321 H   0  0  0  0  0  0  0  0  0  0  0  0
  182.4433   20.9870   46.0404 H   0  0  0  0  0  0  0  0  0  0  0  0
  182.9148   19.6274   44.9860 H   0  0  0  0  0  0  0  0  0  0  0  0
  175.0945   21.3936   48.7740 H   0  0  0  0  0  0  0  0  0  0  0  0
  183.0911   27.3574   49.7675 H   0  0  0  0  0  0  0  0  0  0  0  0
  1  3  2  0
  1 21  1  0
  2  3  1  0
  2  4  2  0
  3 23  1  0
  4  5  1  0
  4 20  1  0
  5  6  1  0
  5 18  2  0
  6  7  2  0
  6 11  1  0
  7 22  1  0
  8 14  3  0
  8 22  1  0
 15  9  1  0
 10 17  1  0
 10 22  2  0
 11 17  2  0
 11 24  1  0
 12 13  1  0
 12 19  1  0
 13 20  1  0
 15 14  1  6
 15 16  1  0
 15 25  1  0
 18 19  1  0
 18 24  1  0
 20 21  2  0
  7 26  1  0
  9 27  1  0
  9 28  1  0
  9 29  1  0
 10 30  1  0
 12 31  1  0
 12 32  1  0
 13 33  1  0
 13 34  1  0
 16 35  1  0
 16 36  1  0
 16 37  1  0
 17 38  1  0
 19 39  1  0
 19 40  1  0
 21 41  1  0
 23 42  1  0
 23 43  1  0
 24 44  1  0
 25 45  1  0
M  END
>  <filename_input>  (12) 
7JXX_VP7_docked.sdf

>  <pdb_id>  (12) 
7JXX_VP7

>  <pose_rank>  (12) 
11

>  <num_atoms_heavy>  (12) 
25

>  <num_torsions>  (12) 
2

>  <pose>  (12) 
[180.70149341328076, 18.484265539763836, 44.95480997872761, -1.1921923547811568, 2.4904936236401567, -3.2938719456062118, 2.4568792043562433, -4.2784187962796905]

>  <energy>  (12) 
-558.1628215039375

>  <inter_energy>  (12) 
-538.2245203586715

>  <intra_energy>  (12) 
0.0

>  <rmsd>  (12) 
7.18111

>  <sdf_rank>  (12) 
0

$$$$

     RDKit          3D

 45 48  0  0  0  0  0  0  0  0999 V2000
  182.0612   22.1455   47.6394 N   0  0  0  0  0  0  0  0  0  0  0  0
  182.9954   23.8019   49.0865 N   0  0  0  0  0  0  0  0  0  0  0  0
  182.0735   22.8439   48.7913 C   0  0  0  0  0  0  0  0  0  0  0  0
  183.9614   24.0787   48.1858 C   0  0  0  0  0  0  0  0  0  0  0  0
  184.9252   25.1313   48.5474 C   0  0  0  0  0  0  0  0  0  0  0  0
  184.7473   25.9517   49.7345 C   0  0  0  0  0  0  0  0  0  0  0  0
  183.7742   26.0621   50.7359 C   0  0  0  0  0  0  0  0  0  0  0  0
  183.0298   27.1542   52.8299 C   0  0  0  0  0  0  0  0  0  0  0  0
  181.4642   28.7312   55.4940 C   0  0  0  0  0  0  0  0  0  0  0  0
  185.0412   27.8956   51.7182 C   0  0  0  0  0  0  0  0  0  0  0  0
  185.8233   26.8641   49.7460 C   0  0  0  0  0  0  0  0  0  0  0  0
  186.4501   23.6794   46.2713 C   0  0  0  0  0  0  0  0  0  0  0  0
  184.9821   23.6489   45.8738 C   0  0  0  0  0  0  0  0  0  0  0  0
  182.2575   27.2196   53.7338 C   0  0  0  0  0  0  0  0  0  0  0  0
  181.3143   27.3647   54.8470 C   0  0  1  0  0  0  0  0  0  0  0  0
  181.5098   26.2577   55.8667 C   0  0  0  0  0  0  0  0  0  0  0  0
  186.0010   27.8162   50.7423 C   0  0  0  0  0  0  0  0  0  0  0  0
  186.1032   25.5442   47.9503 C   0  0  0  0  0  0  0  0  0  0  0  0
  186.8030   25.0819   46.7133 C   0  0  0  0  0  0  0  0  0  0  0  0
  183.9746   23.3791   46.9664 C   0  0  0  0  0  0  0  0  0  0  0  0
  183.0046   22.4266   46.7455 C   0  0  0  0  0  0  0  0  0  0  0  0
  183.9505   27.0210   51.7419 C   0  0  0  0  0  0  0  0  0  0  0  0
  181.1042   22.5844   49.6779 N   0  0  0  0  0  0  0  0  0  0  0  0
  186.6168   26.5874   48.6669 N   0  0  0  0  0  0  0  0  0  0  0  0
  179.9755   27.2621   54.3278 O   0  0  0  0  0  0  0  0  0  0  0  0
  182.8891   25.4090   50.7324 H   0  0  0  0  0  0  0  0  0  0  0  0
  181.4522   28.6220   56.5885 H   0  0  0  0  0  0  0  0  0  0  0  0
  182.4172   29.1826   55.1809 H   0  0  0  0  0  0  0  0  0  0  0  0
  180.6317   29.3784   55.1809 H   0  0  0  0  0  0  0  0  0  0  0  0
  185.1313   28.6643   52.4999 H   0  0  0  0  0  0  0  0  0  0  0  0
  186.6245   22.9756   47.0985 H   0  0  0  0  0  0  0  0  0  0  0  0
  187.0765   23.3870   45.4157 H   0  0  0  0  0  0  0  0  0  0  0  0
  184.7384   24.6271   45.4337 H   0  0  0  0  0  0  0  0  0  0  0  0
  184.8925   22.7927   45.1891 H   0  0  0  0  0  0  0  0  0  0  0  0
  181.4359   26.6764   56.8812 H   0  0  0  0  0  0  0  0  0  0  0  0
  180.7332   25.4910   55.7290 H   0  0  0  0  0  0  0  0  0  0  0  0
  182.5021   25.8034   55.7290 H   0  0  0  0  0  0  0  0  0  0  0  0
  186.8778   28.4805   50.7478 H   0  0  0  0  0  0  0  0  0  0  0  0
  187.8866   25.1198   46.8988 H   0  0  0  0  0  0  0  0  0  0  0  0
  186.4773   25.7526   45.9045 H   0  0  0  0  0  0  0  0  0  0  0  0
  183.0106   21.8771   45.7927 H   0  0  0  0  0  0  0  0  0  0  0  0
  181.0743   23.0945   50.5722 H   0  0  0  0  0  0  0  0  0  0  0  0
  180.3886   21.8747   49.4657 H   0  0  0  0  0  0  0  0  0  0  0  0
  187.4808   27.0946   48.4281 H   0  0  0  0  0  0  0  0  0  0  0  0
  179.3329   27.2128   55.0793 H   0  0  0  0  0  0  0  0  0  0  0  0
  1  3  2  0
  1 21  1  0
  2  3  1  0
  2  4  2  0
  3 23  1  0
  4  5  1  0
  4 20  1  0
  5  6  1  0
  5 18  2  0
  6  7  2  0
  6 11  1  0
  7 22  1  0
  8 14  3  0
  8 22  1  0
 15  9  1  0
 10 17  1  0
 10 22  2  0
 11 17  2  0
 11 24  1  0
 12 13  1  0
 12 19  1  0
 13 20  1  0
 15 14  1  6
 15 16  1  0
 15 25  1  0
 18 19  1  0
 18 24  1  0
 20 21  2  0
  7 26  1  0
  9 27  1  0
  9 28  1  0
  9 29  1  0
 10 30  1  0
 12 31  1  0
 12 32  1  0
 13 33  1  0
 13 34  1  0
 16 35  1  0
 16 36  1  0
 16 37  1  0
 17 38  1  0
 19 39  1  0
 19 40  1  0
 21 41  1  0
 23 42  1  0
 23 43  1  0
 24 44  1  0
 25 45  1  0
M  END
>  <filename_input>  (13) 
7JXX_VP7_docked.sdf

>  <pdb_id>  (13) 
7JXX_VP7

>  <pose_rank>  (13) 
12

>  <num_atoms_heavy>  (13) 
25

>  <num_torsions>  (13) 
2

>  <pose>  (13) 
[182.06123414064558, 22.14547415614226, 47.63942911780717, -2.147556308570588, -1.6725725931354296, -0.16483550536756064, -0.8841504217696438, 3.031198557831273]

>  <energy>  (13) 
-158.73547321310667

>  <inter_energy>  (13) 
-158.13542176904372

>  <intra_energy>  (13) 
0.0

>  <rmsd>  (13) 
10.9238

>  <sdf_rank>  (13) 
0

$$$$

     RDKit          3D

 45 48  0  0  0  0  0  0  0  0999 V2000
  181.2564   15.7049   40.4338 N   0  0  0  0  0  0  0  0  0  0  0  0
  181.2298   17.3261   42.1892 N   0  0  0  0  0  0  0  0  0  0  0  0
  181.5603   16.9189   40.9323 C   0  0  0  0  0  0  0  0  0  0  0  0
  180.5564   16.4783   42.9948 C   0  0  0  0  0  0  0  0  0  0  0  0
  180.2349   16.9615   44.3478 C   0  0  0  0  0  0  0  0  0  0  0  0
  180.7633   18.2181   44.8533 C   0  0  0  0  0  0  0  0  0  0  0  0
  181.6328   19.2035   44.3684 C   0  0  0  0  0  0  0  0  0  0  0  0
  182.7613   21.3761   44.7395 C   0  0  0  0  0  0  0  0  0  0  0  0
  185.7787   23.0958   44.2820 C   0  0  0  0  0  0  0  0  0  0  0  0
  181.4193   20.3867   46.4865 C   0  0  0  0  0  0  0  0  0  0  0  0
  180.2849   18.3420   46.1747 C   0  0  0  0  0  0  0  0  0  0  0  0
  178.2560   14.5904   44.0728 C   0  0  0  0  0  0  0  0  0  0  0  0
  179.5246   14.1590   43.3527 C   0  0  0  0  0  0  0  0  0  0  0  0
  183.4821   22.2393   44.3483 C   0  0  0  0  0  0  0  0  0  0  0  0
  184.3308   23.3458   43.8952 C   0  0  1  0  0  0  0  0  0  0  0  0
  183.8398   24.6670   44.4577 C   0  0  0  0  0  0  0  0  0  0  0  0
  180.5762   19.4295   46.9891 C   0  0  0  0  0  0  0  0  0  0  0  0
  179.4368   16.4337   45.3474 C   0  0  0  0  0  0  0  0  0  0  0  0
  178.6358   15.1739   45.4154 C   0  0  0  0  0  0  0  0  0  0  0  0
  180.2319   15.1975   42.5144 C   0  0  0  0  0  0  0  0  0  0  0  0
  180.6046   14.8638   41.2312 C   0  0  0  0  0  0  0  0  0  0  0  0
  181.9284   20.3012   45.1870 C   0  0  0  0  0  0  0  0  0  0  0  0
  182.2455   17.7544   40.1414 N   0  0  0  0  0  0  0  0  0  0  0  0
  179.4905   17.2593   46.4342 N   0  0  0  0  0  0  0  0  0  0  0  0
  184.2595   23.4177   42.4591 O   0  0  0  0  0  0  0  0  0  0  0  0
  182.0748   19.1170   43.3648 H   0  0  0  0  0  0  0  0  0  0  0  0
  185.8679   23.0804   45.3783 H   0  0  0  0  0  0  0  0  0  0  0  0
  186.1054   22.1279   43.8739 H   0  0  0  0  0  0  0  0  0  0  0  0
  186.4110   23.8980   43.8739 H   0  0  0  0  0  0  0  0  0  0  0  0
  181.7016   21.2409   47.1195 H   0  0  0  0  0  0  0  0  0  0  0  0
  177.7305   15.3493   43.4746 H   0  0  0  0  0  0  0  0  0  0  0  0
  177.5922   13.7248   44.2144 H   0  0  0  0  0  0  0  0  0  0  0  0
  180.2356   13.8103   44.1161 H   0  0  0  0  0  0  0  0  0  0  0  0
  179.1957   13.3928   42.6353 H   0  0  0  0  0  0  0  0  0  0  0  0
  183.8551   24.6259   45.5568 H   0  0  0  0  0  0  0  0  0  0  0  0
  184.4961   25.4793   44.1120 H   0  0  0  0  0  0  0  0  0  0  0  0
  182.8123   24.8535   44.1120 H   0  0  0  0  0  0  0  0  0  0  0  0
  180.1470   19.5189   47.9980 H   0  0  0  0  0  0  0  0  0  0  0  0
  177.7102   15.3864   45.9703 H   0  0  0  0  0  0  0  0  0  0  0  0
  179.2754   14.4266   45.9078 H   0  0  0  0  0  0  0  0  0  0  0  0
  180.3533   13.8626   40.8511 H   0  0  0  0  0  0  0  0  0  0  0  0
  182.4996   18.6929   40.4811 H   0  0  0  0  0  0  0  0  0  0  0  0
  182.5184   17.4584   39.1933 H   0  0  0  0  0  0  0  0  0  0  0  0
  179.0012   17.0901   47.3247 H   0  0  0  0  0  0  0  0  0  0  0  0
  183.5876   24.0954   42.1956 H   0  0  0  0  0  0  0  0  0  0  0  0
  1  3  2  0
  1 21  1  0
  2  3  1  0
  2  4  2  0
  3 23  1  0
  4  5  1  0
  4 20  1  0
  5  6  1  0
  5 18  2  0
  6  7  2  0
  6 11  1  0
  7 22  1  0
  8 14  3  0
  8 22  1  0
 15  9  1  0
 10 17  1  0
 10 22  2  0
 11 17  2  0
 11 24  1  0
 12 13  1  0
 12 19  1  0
 13 20  1  0
 15 14  1  1
 15 16  1  0
 15 25  1  0
 18 19  1  0
 18 24  1  0
 20 21  2  0
  7 26  1  0
  9 27  1  0
  9 28  1  0
  9 29  1  0
 10 30  1  0
 12 31  1  0
 12 32  1  0
 13 33  1  0
 13 34  1  0
 16 35  1  0
 16 36  1  0
 16 37  1  0
 17 38  1  0
 19 39  1  0
 19 40  1  0
 21 41  1  0
 23 42  1  0
 23 43  1  0
 24 44  1  0
 25 45  1  0
M  END
>  <filename_input>  (14) 
7JXX_VP7_docked.sdf

>  <pdb_id>  (14) 
7JXX_VP7

>  <pose_rank>  (14) 
13

>  <num_atoms_heavy>  (14) 
25

>  <num_torsions>  (14) 
2

>  <pose>  (14) 
[181.25636408386134, 15.704936075450336, 40.43381076117226, 1.2315910953043103, -0.5397657092844833, 1.379765643918338, -2.2150702493063985, -0.7296058105061826]

>  <energy>  (14) 
-420.5864218799362

>  <inter_energy>  (14) 
-411.0237694515216

>  <intra_energy>  (14) 
0.0

>  <rmsd>  (14) 
7.29742

>  <sdf_rank>  (14) 
0

$$$$

     RDKit          3D

 45 48  0  0  0  0  0  0  0  0999 V2000
  170.7466   26.0544   50.5823 N   0  0  0  0  0  0  0  0  0  0  0  0
  173.0247   25.5260   50.0911 N   0  0  0  0  0  0  0  0  0  0  0  0
  171.6851   25.3613   49.9089 C   0  0  0  0  0  0  0  0  0  0  0  0
  173.4548   26.4337   50.9923 C   0  0  0  0  0  0  0  0  0  0  0  0
  174.9115   26.5639   51.1610 C   0  0  0  0  0  0  0  0  0  0  0  0
  175.8377   25.6448   50.5197 C   0  0  0  0  0  0  0  0  0  0  0  0
  175.7172   24.5033   49.7168 C   0  0  0  0  0  0  0  0  0  0  0  0
  176.8430   22.7165   48.4240 C   0  0  0  0  0  0  0  0  0  0  0  0
  176.3261   19.3991   47.5535 C   0  0  0  0  0  0  0  0  0  0  0  0
  178.1436   24.2925   49.7107 C   0  0  0  0  0  0  0  0  0  0  0  0
  177.1292   26.0422   50.9251 C   0  0  0  0  0  0  0  0  0  0  0  0
  173.9231   29.2180   52.4230 C   0  0  0  0  0  0  0  0  0  0  0  0
  172.8824   28.1706   52.7888 C   0  0  0  0  0  0  0  0  0  0  0  0
  176.8185   21.7986   47.6660 C   0  0  0  0  0  0  0  0  0  0  0  0
  176.7733   20.6294   46.7823 C   0  0  1  0  0  0  0  0  0  0  0  0
  178.1220   20.3973   46.1261 C   0  0  0  0  0  0  0  0  0  0  0  0
  178.2880   25.3997   50.5066 C   0  0  0  0  0  0  0  0  0  0  0  0
  175.6784   27.4816   51.8571 C   0  0  0  0  0  0  0  0  0  0  0  0
  175.2977   28.6532   52.7031 C   0  0  0  0  0  0  0  0  0  0  0  0
  172.5050   27.1682   51.7238 C   0  0  0  0  0  0  0  0  0  0  0  0
  171.1689   26.9396   51.4801 C   0  0  0  0  0  0  0  0  0  0  0  0
  176.8836   23.8534   49.2930 C   0  0  0  0  0  0  0  0  0  0  0  0
  171.2602   24.4464   49.0284 N   0  0  0  0  0  0  0  0  0  0  0  0
  176.9956   27.1472   51.7200 N   0  0  0  0  0  0  0  0  0  0  0  0
  175.8084   20.8790   45.7434 O   0  0  0  0  0  0  0  0  0  0  0  0
  174.7265   24.1249   49.4248 H   0  0  0  0  0  0  0  0  0  0  0  0
  176.3980   19.5970   48.6332 H   0  0  0  0  0  0  0  0  0  0  0  0
  175.2841   19.1617   47.2929 H   0  0  0  0  0  0  0  0  0  0  0  0
  176.9723   18.5480   47.2929 H   0  0  0  0  0  0  0  0  0  0  0  0
  179.0390   23.7375   49.3939 H   0  0  0  0  0  0  0  0  0  0  0  0
  173.8364   29.4690   51.3555 H   0  0  0  0  0  0  0  0  0  0  0  0
  173.7635   30.1292   53.0182 H   0  0  0  0  0  0  0  0  0  0  0  0
  173.2693   27.6072   53.6508 H   0  0  0  0  0  0  0  0  0  0  0  0
  171.9615   28.7414   52.9787 H   0  0  0  0  0  0  0  0  0  0  0  0
  178.8897   20.2652   46.9028 H   0  0  0  0  0  0  0  0  0  0  0  0
  178.0746   19.4941   45.5000 H   0  0  0  0  0  0  0  0  0  0  0  0
  178.3792   21.2644   45.5000 H   0  0  0  0  0  0  0  0  0  0  0  0
  179.2825   25.7650   50.8022 H   0  0  0  0  0  0  0  0  0  0  0  0
  176.0361   29.4510   52.5349 H   0  0  0  0  0  0  0  0  0  0  0  0
  175.2781   28.2917   53.7418 H   0  0  0  0  0  0  0  0  0  0  0  0
  170.4221   27.5115   52.0504 H   0  0  0  0  0  0  0  0  0  0  0  0
  171.9426   23.8929   48.4910 H   0  0  0  0  0  0  0  0  0  0  0  0
  170.2508   24.2961   48.8885 H   0  0  0  0  0  0  0  0  0  0  0  0
  177.7787   27.6560   52.1545 H   0  0  0  0  0  0  0  0  0  0  0  0
  174.9351   21.1049   46.1514 H   0  0  0  0  0  0  0  0  0  0  0  0
  1  3  2  0
  1 21  1  0
  2  3  1  0
  2  4  2  0
  3 23  1  0
  4  5  1  0
  4 20  1  0
  5  6  1  0
  5 18  2  0
  6  7  2  0
  6 11  1  0
  7 22  1  0
  8 14  3  0
  8 22  1  0
 15  9  1  0
 10 17  1  0
 10 22  2  0
 11 17  2  0
 11 24  1  0
 12 13  1  0
 12 19  1  0
 13 20  1  0
 15 14  1  1
 15 16  1  0
 15 25  1  0
 18 19  1  0
 18 24  1  0
 20 21  2  0
  7 26  1  0
  9 27  1  0
  9 28  1  0
  9 29  1  0
 10 30  1  0
 12 31  1  0
 12 32  1  0
 13 33  1  0
 13 34  1  0
 16 35  1  0
 16 36  1  0
 16 37  1  0
 17 38  1  0
 19 39  1  0
 19 40  1  0
 21 41  1  0
 23 42  1  0
 23 43  1  0
 24 44  1  0
 25 45  1  0
M  END
>  <filename_input>  (15) 
7JXX_VP7_docked.sdf

>  <pdb_id>  (15) 
7JXX_VP7

>  <pose_rank>  (15) 
14

>  <num_atoms_heavy>  (15) 
25

>  <num_torsions>  (15) 
2

>  <pose>  (15) 
[170.74655556889297, 26.05437540539729, 50.58228516909339, 0.07775565294950554, -0.1480858004908416, -0.34476826573733865, 0.24724796877665903, -2.890615163330132]

>  <energy>  (15) 
-424.83918663883975

>  <inter_energy>  (15) 
-395.1355609821708

>  <intra_energy>  (15) 
0.0

>  <rmsd>  (15) 
7.70319

>  <sdf_rank>  (15) 
0

$$$$

     RDKit          3D

 45 48  0  0  0  0  0  0  0  0999 V2000
  186.9904   20.8197   38.5096 N   0  0  0  0  0  0  0  0  0  0  0  0
  186.2950   22.6317   39.9036 N   0  0  0  0  0  0  0  0  0  0  0  0
  186.6580   21.3335   39.7097 C   0  0  0  0  0  0  0  0  0  0  0  0
  186.2635   23.4667   38.8439 C   0  0  0  0  0  0  0  0  0  0  0  0
  185.8519   24.8560   39.1045 C   0  0  0  0  0  0  0  0  0  0  0  0
  185.3390   25.2679   40.4011 C   0  0  0  0  0  0  0  0  0  0  0  0
  185.0543   24.6254   41.6128 C   0  0  0  0  0  0  0  0  0  0  0  0
  184.2712   24.8100   43.9546 C   0  0  0  0  0  0  0  0  0  0  0  0
  182.3866   24.0244   46.7620 C   0  0  0  0  0  0  0  0  0  0  0  0
  184.2409   26.7408   42.5046 C   0  0  0  0  0  0  0  0  0  0  0  0
  185.0162   26.6358   40.2791 C   0  0  0  0  0  0  0  0  0  0  0  0
  187.2447   25.1508   36.3501 C   0  0  0  0  0  0  0  0  0  0  0  0
  186.5399   23.8032   36.3176 C   0  0  0  0  0  0  0  0  0  0  0  0
  184.0979   24.3385   45.0342 C   0  0  0  0  0  0  0  0  0  0  0  0
  183.8223   23.7487   46.3480 C   0  0  1  0  0  0  0  0  0  0  0  0
  184.7963   24.2708   47.3882 C   0  0  0  0  0  0  0  0  0  0  0  0
  184.4988   27.3903   41.3249 C   0  0  0  0  0  0  0  0  0  0  0  0
  185.8653   25.9847   38.3042 C   0  0  0  0  0  0  0  0  0  0  0  0
  186.2820   26.1880   36.8835 C   0  0  0  0  0  0  0  0  0  0  0  0
  186.5921   22.9643   37.5726 C   0  0  0  0  0  0  0  0  0  0  0  0
  186.9469   21.6380   37.4625 C   0  0  0  0  0  0  0  0  0  0  0  0
  184.5326   25.3833   42.6692 C   0  0  0  0  0  0  0  0  0  0  0  0
  186.6698   20.5018   40.7591 N   0  0  0  0  0  0  0  0  0  0  0  0
  185.3493   27.0320   39.0131 N   0  0  0  0  0  0  0  0  0  0  0  0
  183.9924   22.3223   46.2531 O   0  0  0  0  0  0  0  0  0  0  0  0
  185.2365   23.5472   41.7325 H   0  0  0  0  0  0  0  0  0  0  0  0
  182.3177   24.0377   47.8598 H   0  0  0  0  0  0  0  0  0  0  0  0
  182.0708   24.9997   46.3630 H   0  0  0  0  0  0  0  0  0  0  0  0
  181.7320   23.2356   46.3630 H   0  0  0  0  0  0  0  0  0  0  0  0
  183.7945   27.3002   43.3401 H   0  0  0  0  0  0  0  0  0  0  0  0
  188.1261   25.0920   37.0055 H   0  0  0  0  0  0  0  0  0  0  0  0
  187.5710   25.4279   35.3368 H   0  0  0  0  0  0  0  0  0  0  0  0
  185.4803   23.9898   36.0886 H   0  0  0  0  0  0  0  0  0  0  0  0
  187.0851   23.2172   35.5631 H   0  0  0  0  0  0  0  0  0  0  0  0
  184.4051   24.0611   48.3947 H   0  0  0  0  0  0  0  0  0  0  0  0
  185.7692   23.7732   47.2619 H   0  0  0  0  0  0  0  0  0  0  0  0
  184.9205   25.3564   47.2619 H   0  0  0  0  0  0  0  0  0  0  0  0
  184.3036   28.4668   41.2109 H   0  0  0  0  0  0  0  0  0  0  0  0
  186.7637   27.1739   36.8059 H   0  0  0  0  0  0  0  0  0  0  0  0
  185.3679   26.1025   36.2775 H   0  0  0  0  0  0  0  0  0  0  0  0
  187.2043   21.2403   36.4697 H   0  0  0  0  0  0  0  0  0  0  0  0
  186.4225   20.8513   41.6959 H   0  0  0  0  0  0  0  0  0  0  0  0
  186.9261   19.5127   40.6295 H   0  0  0  0  0  0  0  0  0  0  0  0
  185.2280   27.9865   38.6456 H   0  0  0  0  0  0  0  0  0  0  0  0
  184.0386   21.9342   47.1628 H   0  0  0  0  0  0  0  0  0  0  0  0
  1  3  2  0
  1 21  1  0
  2  3  1  0
  2  4  2  0
  3 23  1  0
  4  5  1  0
  4 20  1  0
  5  6  1  0
  5 18  2  0
  6  7  2  0
  6 11  1  0
  7 22  1  0
  8 14  3  0
  8 22  1  0
 15  9  1  0
 10 17  1  0
 10 22  2  0
 11 17  2  0
 11 24  1  0
 12 13  1  0
 12 19  1  0
 13 20  1  0
 15 14  1  6
 15 16  1  0
 15 25  1  0
 18 19  1  0
 18 24  1  0
 20 21  2  0
  7 26  1  0
  9 27  1  0
  9 28  1  0
  9 29  1  0
 10 30  1  0
 12 31  1  0
 12 32  1  0
 13 33  1  0
 13 34  1  0
 16 35  1  0
 16 36  1  0
 16 37  1  0
 17 38  1  0
 19 39  1  0
 19 40  1  0
 21 41  1  0
 23 42  1  0
 23 43  1  0
 24 44  1  0
 25 45  1  0
M  END
>  <filename_input>  (16) 
7JXX_VP7_docked.sdf

>  <pdb_id>  (16) 
7JXX_VP7

>  <pose_rank>  (16) 
15

>  <num_atoms_heavy>  (16) 
25

>  <num_torsions>  (16) 
2

>  <pose>  (16) 
[186.99039943925976, 20.819670887334727, 38.50957483344121, 1.3749685389428852, 3.398678476304999, -0.6427211442463613, -0.046779325390780384, -3.492965728747332]

>  <energy>  (16) 
-178.74989190799712

>  <inter_energy>  (16) 
-173.01495201259405

>  <intra_energy>  (16) 
0.0

>  <rmsd>  (16) 
11.7384

>  <sdf_rank>  (16) 
0

$$$$

     RDKit          3D

 45 48  0  0  0  0  0  0  0  0999 V2000
  168.9330   15.2570   42.5685 N   0  0  0  0  0  0  0  0  0  0  0  0
  169.8803   16.7702   40.9799 N   0  0  0  0  0  0  0  0  0  0  0  0
  169.2766   16.4971   42.1698 C   0  0  0  0  0  0  0  0  0  0  0  0
  170.1604   15.7514   40.1403 C   0  0  0  0  0  0  0  0  0  0  0  0
  170.8009   16.1010   38.8617 C   0  0  0  0  0  0  0  0  0  0  0  0
  170.9671   17.4844   38.4462 C   0  0  0  0  0  0  0  0  0  0  0  0
  170.6095   18.7341   38.9682 C   0  0  0  0  0  0  0  0  0  0  0  0
  170.6579   21.1989   38.7364 C   0  0  0  0  0  0  0  0  0  0  0  0
  171.3571   24.5603   39.4388 C   0  0  0  0  0  0  0  0  0  0  0  0
  171.5544   19.7936   36.9892 C   0  0  0  0  0  0  0  0  0  0  0  0
  171.5763   17.4419   37.1745 C   0  0  0  0  0  0  0  0  0  0  0  0
  171.4192   13.0674   39.0313 C   0  0  0  0  0  0  0  0  0  0  0  0
  170.0309   13.2429   39.6279 C   0  0  0  0  0  0  0  0  0  0  0  0
  170.4432   22.3087   39.1104 C   0  0  0  0  0  0  0  0  0  0  0  0
  170.1545   23.6508   39.6258 C   0  0  1  0  0  0  0  0  0  0  0  0
  169.7420   23.5904   41.0851 C   0  0  0  0  0  0  0  0  0  0  0  0
  171.9036   18.5820   36.4507 C   0  0  0  0  0  0  0  0  0  0  0  0
  171.3582   15.3165   37.8674 C   0  0  0  0  0  0  0  0  0  0  0  0
  171.4872   13.8340   37.7295 C   0  0  0  0  0  0  0  0  0  0  0  0
  169.8059   14.4438   40.5160 C   0  0  0  0  0  0  0  0  0  0  0  0
  169.1965   14.2539   41.7364 C   0  0  0  0  0  0  0  0  0  0  0  0
  170.9381   19.8854   38.2409 C   0  0  0  0  0  0  0  0  0  0  0  0
  168.9817   17.5113   42.9928 N   0  0  0  0  0  0  0  0  0  0  0  0
  171.8004   16.1292   36.8626 N   0  0  0  0  0  0  0  0  0  0  0  0
  169.0575   24.2026   38.8742 O   0  0  0  0  0  0  0  0  0  0  0  0
  170.0811   18.8099   39.9300 H   0  0  0  0  0  0  0  0  0  0  0  0
  171.7491   24.8568   40.4229 H   0  0  0  0  0  0  0  0  0  0  0  0
  172.1382   24.0249   38.8791 H   0  0  0  0  0  0  0  0  0  0  0  0
  171.0546   25.4576   38.8791 H   0  0  0  0  0  0  0  0  0  0  0  0
  171.7637   20.7138   36.4240 H   0  0  0  0  0  0  0  0  0  0  0  0
  172.1744   13.4566   39.7300 H   0  0  0  0  0  0  0  0  0  0  0  0
  171.6171   12.0008   38.8493 H   0  0  0  0  0  0  0  0  0  0  0  0
  169.3185   13.3114   38.7926 H   0  0  0  0  0  0  0  0  0  0  0  0
  169.8951   12.3737   40.2882 H   0  0  0  0  0  0  0  0  0  0  0  0
  170.6291   23.7202   41.7225 H   0  0  0  0  0  0  0  0  0  0  0  0
  169.0190   24.3924   41.2953 H   0  0  0  0  0  0  0  0  0  0  0  0
  169.2791   22.6150   41.2953 H   0  0  0  0  0  0  0  0  0  0  0  0
  172.4226   18.5151   35.4831 H   0  0  0  0  0  0  0  0  0  0  0  0
  172.4558   13.6175   37.2551 H   0  0  0  0  0  0  0  0  0  0  0  0
  170.6265   13.5029   37.1299 H   0  0  0  0  0  0  0  0  0  0  0  0
  168.9168   13.2326   42.0344 H   0  0  0  0  0  0  0  0  0  0  0  0
  169.2259   18.4764   42.7288 H   0  0  0  0  0  0  0  0  0  0  0  0
  168.5107   17.3262   43.8900 H   0  0  0  0  0  0  0  0  0  0  0  0
  172.2410   15.7996   35.9919 H   0  0  0  0  0  0  0  0  0  0  0  0
  168.3708   24.5480   39.4980 H   0  0  0  0  0  0  0  0  0  0  0  0
  1  3  2  0
  1 21  1  0
  2  3  1  0
  2  4  2  0
  3 23  1  0
  4  5  1  0
  4 20  1  0
  5  6  1  0
  5 18  2  0
  6  7  2  0
  6 11  1  0
  7 22  1  0
  8 14  3  0
  8 22  1  0
 15  9  1  0
 10 17  1  0
 10 22  2  0
 11 17  2  0
 11 24  1  0
 12 13  1  0
 12 19  1  0
 13 20  1  0
 15 14  1  6
 15 16  1  0
 15 25  1  0
 18 19  1  0
 18 24  1  0
 20 21  2  0
  7 26  1  0
  9 27  1  0
  9 28  1  0
  9 29  1  0
 10 30  1  0
 12 31  1  0
 12 32  1  0
 13 33  1  0
 13 34  1  0
 16 35  1  0
 16 36  1  0
 16 37  1  0
 17 38  1  0
 19 39  1  0
 19 40  1  0
 21 41  1  0
 23 42  1  0
 23 43  1  0
 24 44  1  0
 25 45  1  0
M  END
>  <filename_input>  (17) 
7JXX_VP7_docked.sdf

>  <pdb_id>  (17) 
7JXX_VP7

>  <pose_rank>  (17) 
16

>  <num_atoms_heavy>  (17) 
25

>  <num_torsions>  (17) 
2

>  <pose>  (17) 
[168.93303558705765, 15.257019188492363, 42.56847882490647, 2.183900333495238, 1.250744345828584, -1.532113779598463, 1.660758777810386, -0.6452561569319534]

>  <energy>  (17) 
-188.06340346006684

>  <inter_energy>  (17) 
-168.46578773113166

>  <intra_energy>  (17) 
0.0

>  <rmsd>  (17) 
12.868

>  <sdf_rank>  (17) 
0

$$$$

     RDKit          3D

 45 48  0  0  0  0  0  0  0  0999 V2000
  176.1931   24.4870   36.5831 N   0  0  0  0  0  0  0  0  0  0  0  0
  178.3467   25.4003   37.0715 N   0  0  0  0  0  0  0  0  0  0  0  0
  177.5366   24.3989   36.6290 C   0  0  0  0  0  0  0  0  0  0  0  0
  177.7887   26.5558   37.4894 C   0  0  0  0  0  0  0  0  0  0  0  0
  178.7067   27.6014   37.9703 C   0  0  0  0  0  0  0  0  0  0  0  0
  180.1264   27.3444   38.1503 C   0  0  0  0  0  0  0  0  0  0  0  0
  180.9652   26.2308   38.0146 C   0  0  0  0  0  0  0  0  0  0  0  0
  183.2561   25.2994   38.1386 C   0  0  0  0  0  0  0  0  0  0  0  0
  185.5586   23.3155   36.3996 C   0  0  0  0  0  0  0  0  0  0  0  0
  182.8346   27.5865   38.7888 C   0  0  0  0  0  0  0  0  0  0  0  0
  180.6819   28.5414   38.6494 C   0  0  0  0  0  0  0  0  0  0  0  0
  176.1414   29.2579   37.4332 C   0  0  0  0  0  0  0  0  0  0  0  0
  175.6651   27.9126   37.9598 C   0  0  0  0  0  0  0  0  0  0  0  0
  184.0036   24.3895   37.9619 C   0  0  0  0  0  0  0  0  0  0  0  0
  184.9586   23.2895   37.7952 C   0  0  1  0  0  0  0  0  0  0  0  0
  184.2959   21.9533   38.0757 C   0  0  0  0  0  0  0  0  0  0  0  0
  182.0323   28.6878   38.9421 C   0  0  0  0  0  0  0  0  0  0  0  0
  178.4956   28.9266   38.3077 C   0  0  0  0  0  0  0  0  0  0  0  0
  177.2552   29.7600   38.3245 C   0  0  0  0  0  0  0  0  0  0  0  0
  176.3885   26.6813   37.4679 C   0  0  0  0  0  0  0  0  0  0  0  0
  175.6413   25.6201   37.0070 C   0  0  0  0  0  0  0  0  0  0  0  0
  182.3272   26.3752   38.3088 C   0  0  0  0  0  0  0  0  0  0  0  0
  178.0910   23.2461   36.2333 N   0  0  0  0  0  0  0  0  0  0  0  0
  179.6782   29.4674   38.7256 N   0  0  0  0  0  0  0  0  0  0  0  0
  186.0279   23.4653   38.7431 O   0  0  0  0  0  0  0  0  0  0  0  0
  180.5624   25.2622   37.6836 H   0  0  0  0  0  0  0  0  0  0  0  0
  186.6551   23.3630   36.4727 H   0  0  0  0  0  0  0  0  0  0  0  0
  185.2664   22.4038   35.8578 H   0  0  0  0  0  0  0  0  0  0  0  0
  185.1887   24.1984   35.8578 H   0  0  0  0  0  0  0  0  0  0  0  0
  183.9009   27.6575   39.0492 H   0  0  0  0  0  0  0  0  0  0  0  0
  176.5139   29.1421   36.4047 H   0  0  0  0  0  0  0  0  0  0  0  0
  175.3086   29.9766   37.4325 H   0  0  0  0  0  0  0  0  0  0  0  0
  175.7580   27.9350   39.0556 H   0  0  0  0  0  0  0  0  0  0  0  0
  174.6382   27.8078   37.5796 H   0  0  0  0  0  0  0  0  0  0  0  0
  184.2210   21.8021   39.1627 H   0  0  0  0  0  0  0  0  0  0  0  0
  183.2886   21.9437   37.6338 H   0  0  0  0  0  0  0  0  0  0  0  0
  184.8979   21.1456   37.6338 H   0  0  0  0  0  0  0  0  0  0  0  0
  182.4418   29.6499   39.2836 H   0  0  0  0  0  0  0  0  0  0  0  0
  177.5216   30.7766   37.9995 H   0  0  0  0  0  0  0  0  0  0  0  0
  176.8695   29.7204   39.3539 H   0  0  0  0  0  0  0  0  0  0  0  0
  174.5454   25.7135   36.9889 H   0  0  0  0  0  0  0  0  0  0  0  0
  179.1147   23.1340   36.2516 H   0  0  0  0  0  0  0  0  0  0  0  0
  177.4937   22.4715   35.9105 H   0  0  0  0  0  0  0  0  0  0  0  0
  179.7974   30.4368   39.0523 H   0  0  0  0  0  0  0  0  0  0  0  0
  185.6666   23.4059   39.6629 H   0  0  0  0  0  0  0  0  0  0  0  0
  1  3  2  0
  1 21  1  0
  2  3  1  0
  2  4  2  0
  3 23  1  0
  4  5  1  0
  4 20  1  0
  5  6  1  0
  5 18  2  0
  6  7  2  0
  6 11  1  0
  7 22  1  0
  8 14  3  0
  8 22  1  0
 15  9  1  0
 10 17  1  0
 10 22  2  0
 11 17  2  0
 11 24  1  0
 12 13  1  0
 12 19  1  0
 13 20  1  0
 15 14  1  6
 15 16  1  0
 15 25  1  0
 18 19  1  0
 18 24  1  0
 20 21  2  0
  7 26  1  0
  9 27  1  0
  9 28  1  0
  9 29  1  0
 10 30  1  0
 12 31  1  0
 12 32  1  0
 13 33  1  0
 13 34  1  0
 16 35  1  0
 16 36  1  0
 16 37  1  0
 17 38  1  0
 19 39  1  0
 19 40  1  0
 21 41  1  0
 23 42  1  0
 23 43  1  0
 24 44  1  0
 25 45  1  0
M  END
>  <filename_input>  (18) 
7JXX_VP7_docked.sdf

>  <pdb_id>  (18) 
7JXX_VP7

>  <pose_rank>  (18) 
17

>  <num_atoms_heavy>  (18) 
25

>  <num_torsions>  (18) 
2

>  <pose>  (18) 
[176.19312781552634, 24.487019806737713, 36.583074803327435, 1.578301473836314, 4.725336783281407, -2.4532636254923808, -0.9251060970302436, 1.1708607095118388]

>  <energy>  (18) 
-166.4033517844676

>  <inter_energy>  (18) 
-147.7406532340782

>  <intra_energy>  (18) 
0.0

>  <rmsd>  (18) 
11.0806

>  <sdf_rank>  (18) 
0

$$$$

     RDKit          3D

 45 48  0  0  0  0  0  0  0  0999 V2000
  185.4377   16.3289   56.2489 N   0  0  0  0  0  0  0  0  0  0  0  0
  186.6325   16.4844   54.1853 N   0  0  0  0  0  0  0  0  0  0  0  0
  185.9412   17.0378   55.2200 C   0  0  0  0  0  0  0  0  0  0  0  0
  186.8367   15.1505   54.1751 C   0  0  0  0  0  0  0  0  0  0  0  0
  187.5779   14.6004   53.0281 C   0  0  0  0  0  0  0  0  0  0  0  0
  187.9227   15.4221   51.8793 C   0  0  0  0  0  0  0  0  0  0  0  0
  187.6845   16.7467   51.4908 C   0  0  0  0  0  0  0  0  0  0  0  0
  188.0272   18.5383   49.8163 C   0  0  0  0  0  0  0  0  0  0  0  0
  188.9977   21.5022   48.2038 C   0  0  0  0  0  0  0  0  0  0  0  0
  188.8451   16.3055   49.3955 C   0  0  0  0  0  0  0  0  0  0  0  0
  188.5876   14.5700   50.9725 C   0  0  0  0  0  0  0  0  0  0  0  0
  187.8346   12.2842   55.0733 C   0  0  0  0  0  0  0  0  0  0  0  0
  186.4468   12.8713   55.2818 C   0  0  0  0  0  0  0  0  0  0  0  0
  187.9444   19.6647   49.4393 C   0  0  0  0  0  0  0  0  0  0  0  0
  187.7801   21.0517   48.9931 C   0  0  1  0  0  0  0  0  0  0  0  0
  187.5288   21.9715   50.1738 C   0  0  0  0  0  0  0  0  0  0  0  0
  189.0802   15.0012   49.7469 C   0  0  0  0  0  0  0  0  0  0  0  0
  188.0919   13.3390   52.7847 C   0  0  0  0  0  0  0  0  0  0  0  0
  188.0569   12.0813   53.5912 C   0  0  0  0  0  0  0  0  0  0  0  0
  186.3157   14.3750   55.2257 C   0  0  0  0  0  0  0  0  0  0  0  0
  185.6267   15.0128   56.2333 C   0  0  0  0  0  0  0  0  0  0  0  0
  188.1800   17.1845   50.2557 C   0  0  0  0  0  0  0  0  0  0  0  0
  185.7228   18.3589   55.2184 N   0  0  0  0  0  0  0  0  0  0  0  0
  188.6754   13.3332   51.5497 N   0  0  0  0  0  0  0  0  0  0  0  0
  186.6352   21.1191   48.1229 O   0  0  0  0  0  0  0  0  0  0  0  0
  187.1196   17.4294   52.1425 H   0  0  0  0  0  0  0  0  0  0  0  0
  189.7969   21.7979   48.8995 H   0  0  0  0  0  0  0  0  0  0  0  0
  189.3506   20.6751   47.5702 H   0  0  0  0  0  0  0  0  0  0  0  0
  188.7273   22.3598   47.5702 H   0  0  0  0  0  0  0  0  0  0  0  0
  189.1873   16.6684   48.4151 H   0  0  0  0  0  0  0  0  0  0  0  0
  188.5926   12.9755   55.4702 H   0  0  0  0  0  0  0  0  0  0  0  0
  187.9179   11.3222   55.6002 H   0  0  0  0  0  0  0  0  0  0  0  0
  185.7908   12.4530   54.5043 H   0  0  0  0  0  0  0  0  0  0  0  0
  186.1785   12.6025   56.3142 H   0  0  0  0  0  0  0  0  0  0  0  0
  187.6807   21.4155   51.1107 H   0  0  0  0  0  0  0  0  0  0  0  0
  188.2280   22.8197   50.1333 H   0  0  0  0  0  0  0  0  0  0  0  0
  186.4953   22.3461   50.1333 H   0  0  0  0  0  0  0  0  0  0  0  0
  189.6371   14.3225   49.0842 H   0  0  0  0  0  0  0  0  0  0  0  0
  189.0173   11.5621   53.4572 H   0  0  0  0  0  0  0  0  0  0  0  0
  187.1957   11.5028   53.2254 H   0  0  0  0  0  0  0  0  0  0  0  0
  185.2168   14.4101   57.0571 H   0  0  0  0  0  0  0  0  0  0  0  0
  186.0893   18.9405   54.4514 H   0  0  0  0  0  0  0  0  0  0  0  0
  185.1882   18.7934   55.9841 H   0  0  0  0  0  0  0  0  0  0  0  0
  189.1194   12.5122   51.1141 H   0  0  0  0  0  0  0  0  0  0  0  0
  185.8096   21.1678   48.6670 H   0  0  0  0  0  0  0  0  0  0  0  0
  1  3  2  0
  1 21  1  0
  2  3  1  0
  2  4  2  0
  3 23  1  0
  4  5  1  0
  4 20  1  0
  5  6  1  0
  5 18  2  0
  6  7  2  0
  6 11  1  0
  7 22  1  0
  8 14  3  0
  8 22  1  0
 15  9  1  0
 10 17  1  0
 10 22  2  0
 11 17  2  0
 11 24  1  0
 12 13  1  0
 12 19  1  0
 13 20  1  0
 15 14  1  1
 15 16  1  0
 15 25  1  0
 18 19  1  0
 18 24  1  0
 20 21  2  0
  7 26  1  0
  9 27  1  0
  9 28  1  0
  9 29  1  0
 10 30  1  0
 12 31  1  0
 12 32  1  0
 13 33  1  0
 13 34  1  0
 16 35  1  0
 16 36  1  0
 16 37  1  0
 17 38  1  0
 19 39  1  0
 19 40  1  0
 21 41  1  0
 23 42  1  0
 23 43  1  0
 24 44  1  0
 25 45  1  0
M  END
>  <filename_input>  (19) 
7JXX_VP7_docked.sdf

>  <pdb_id>  (19) 
7JXX_VP7

>  <pose_rank>  (19) 
18

>  <num_atoms_heavy>  (19) 
25

>  <num_torsions>  (19) 
2

>  <pose>  (19) 
[185.43769623688328, 16.328892148038626, 56.248928982656764, -2.842198820267368, -0.776671754274816, 2.406429299894362, 0.8340960320584334, 0.35756351424373833]

>  <energy>  (19) 
-150.9950460901102

>  <inter_energy>  (19) 
-125.51044145895938

>  <intra_energy>  (19) 
0.0

>  <rmsd>  (19) 
12.3725

>  <sdf_rank>  (19) 
0

$$$$

     RDKit          3D

 45 48  0  0  0  0  0  0  0  0999 V2000
  180.0327   14.5914   54.5513 N   0  0  0  0  0  0  0  0  0  0  0  0
  182.2605   15.3147   55.0250 N   0  0  0  0  0  0  0  0  0  0  0  0
  180.9357   15.5544   54.8196 C   0  0  0  0  0  0  0  0  0  0  0  0
  182.7120   14.0445   54.9626 C   0  0  0  0  0  0  0  0  0  0  0  0
  184.1539   13.8403   55.1788 C   0  0  0  0  0  0  0  0  0  0  0  0
  185.0746   14.9608   55.2822 C   0  0  0  0  0  0  0  0  0  0  0  0
  184.9680   16.3539   55.1829 C   0  0  0  0  0  0  0  0  0  0  0  0
  186.0880   18.5595   55.2958 C   0  0  0  0  0  0  0  0  0  0  0  0
  184.6128   21.7008   55.2826 C   0  0  0  0  0  0  0  0  0  0  0  0
  187.3761   16.5275   55.5034 C   0  0  0  0  0  0  0  0  0  0  0  0
  186.3584   14.4000   55.4486 C   0  0  0  0  0  0  0  0  0  0  0  0
  183.0671   10.9739   55.6438 C   0  0  0  0  0  0  0  0  0  0  0  0
  182.2145   11.5668   54.5322 C   0  0  0  0  0  0  0  0  0  0  0  0
  186.0969   19.7492   55.2493 C   0  0  0  0  0  0  0  0  0  0  0  0
  186.0510   21.2145   55.2232 C   0  0  1  0  0  0  0  0  0  0  0  0
  186.7552   21.7539   53.9917 C   0  0  0  0  0  0  0  0  0  0  0  0
  187.5090   15.1657   55.5916 C   0  0  0  0  0  0  0  0  0  0  0  0
  184.9056   12.6902   55.3424 C   0  0  0  0  0  0  0  0  0  0  0  0
  184.5224   11.2457   55.3351 C   0  0  0  0  0  0  0  0  0  0  0  0
  181.8017   13.0129   54.6727 C   0  0  0  0  0  0  0  0  0  0  0  0
  180.4786   13.3410   54.4764 C   0  0  0  0  0  0  0  0  0  0  0  0
  186.1262   17.1288   55.3268 C   0  0  0  0  0  0  0  0  0  0  0  0
  180.4931   16.8175   54.8625 N   0  0  0  0  0  0  0  0  0  0  0  0
  186.2182   13.0399   55.4853 N   0  0  0  0  0  0  0  0  0  0  0  0
  186.7385   21.7140   56.3853 O   0  0  0  0  0  0  0  0  0  0  0  0
  183.9942   16.8301   54.9956 H   0  0  0  0  0  0  0  0  0  0  0  0
  184.3042   21.8052   56.3333 H   0  0  0  0  0  0  0  0  0  0  0  0
  184.5342   22.6755   54.7788 H   0  0  0  0  0  0  0  0  0  0  0  0
  183.9588   20.9738   54.7788 H   0  0  0  0  0  0  0  0  0  0  0  0
  188.2727   17.1610   55.5731 H   0  0  0  0  0  0  0  0  0  0  0  0
  182.7991   11.4389   56.6040 H   0  0  0  0  0  0  0  0  0  0  0  0
  182.8941    9.8897   55.7114 H   0  0  0  0  0  0  0  0  0  0  0  0
  182.7828   11.4748   53.5949 H   0  0  0  0  0  0  0  0  0  0  0  0
  181.2726   10.9996   54.5653 H   0  0  0  0  0  0  0  0  0  0  0  0
  187.5934   22.3959   54.3002 H   0  0  0  0  0  0  0  0  0  0  0  0
  187.1374   20.9153   53.3911 H   0  0  0  0  0  0  0  0  0  0  0  0
  186.0451   22.3414   53.3911 H   0  0  0  0  0  0  0  0  0  0  0  0
  188.4885   14.6975   55.7687 H   0  0  0  0  0  0  0  0  0  0  0  0
  185.1344   10.7256   56.0866 H   0  0  0  0  0  0  0  0  0  0  0  0
  184.6940   10.8851   54.3102 H   0  0  0  0  0  0  0  0  0  0  0  0
  179.7629   12.5373   54.2488 H   0  0  0  0  0  0  0  0  0  0  0  0
  181.1482   17.5862   55.0642 H   0  0  0  0  0  0  0  0  0  0  0  0
  179.4974   17.0203   54.6938 H   0  0  0  0  0  0  0  0  0  0  0  0
  186.9939   12.3728   55.6042 H   0  0  0  0  0  0  0  0  0  0  0  0
  186.2865   21.3856   57.2026 H   0  0  0  0  0  0  0  0  0  0  0  0
  1  3  2  0
  1 21  1  0
  2  3  1  0
  2  4  2  0
  3 23  1  0
  4  5  1  0
  4 20  1  0
  5  6  1  0
  5 18  2  0
  6  7  2  0
  6 11  1  0
  7 22  1  0
  8 14  3  0
  8 22  1  0
 15  9  1  0
 10 17  1  0
 10 22  2  0
 11 17  2  0
 11 24  1  0
 12 13  1  0
 12 19  1  0
 13 20  1  0
 15 14  1  6
 15 16  1  0
 15 25  1  0
 18 19  1  0
 18 24  1  0
 20 21  2  0
  7 26  1  0
  9 27  1  0
  9 28  1  0
  9 29  1  0
 10 30  1  0
 12 31  1  0
 12 32  1  0
 13 33  1  0
 13 34  1  0
 16 35  1  0
 16 36  1  0
 16 37  1  0
 17 38  1  0
 19 39  1  0
 19 40  1  0
 21 41  1  0
 23 42  1  0
 23 43  1  0
 24 44  1  0
 25 45  1  0
M  END
>  <filename_input>  (20) 
7JXX_VP7_docked.sdf

>  <pdb_id>  (20) 
7JXX_VP7

>  <pose_rank>  (20) 
19

>  <num_atoms_heavy>  (20) 
25

>  <num_torsions>  (20) 
2

>  <pose>  (20) 
[180.03271686907382, 14.591416883833144, 54.551276949809825, 2.5180779971129184, 0.29674328106873826, -0.10240693424770218, 2.2664771492349236, 2.868430421528559]

>  <energy>  (20) 
-136.04999353792735

>  <inter_energy>  (20) 
-116.13621657864655

>  <intra_energy>  (20) 
0.0

>  <rmsd>  (20) 
12.6445

>  <sdf_rank>  (20) 
0

$$$$

     RDKit          3D

 45 48  0  0  0  0  0  0  0  0999 V2000
  175.2762   25.0090   39.0199 N   0  0  0  0  0  0  0  0  0  0  0  0
  177.4171   25.8292   38.3460 N   0  0  0  0  0  0  0  0  0  0  0  0
  176.6103   24.8758   38.8890 C   0  0  0  0  0  0  0  0  0  0  0  0
  176.8648   26.9792   37.9059 C   0  0  0  0  0  0  0  0  0  0  0  0
  177.7814   27.9826   37.3398 C   0  0  0  0  0  0  0  0  0  0  0  0
  179.2246   27.8199   37.4076 C   0  0  0  0  0  0  0  0  0  0  0  0
  180.0987   26.8775   37.9642 C   0  0  0  0  0  0  0  0  0  0  0  0
  182.4328   26.1345   38.3263 C   0  0  0  0  0  0  0  0  0  0  0  0
  183.9151   23.0031   38.6796 C   0  0  0  0  0  0  0  0  0  0  0  0
  181.9805   28.2326   37.2197 C   0  0  0  0  0  0  0  0  0  0  0  0
  179.7781   28.9705   36.8073 C   0  0  0  0  0  0  0  0  0  0  0  0
  175.0588   28.9632   36.2264 C   0  0  0  0  0  0  0  0  0  0  0  0
  174.7697   28.4288   37.6210 C   0  0  0  0  0  0  0  0  0  0  0  0
  183.2580   25.3653   38.7074 C   0  0  0  0  0  0  0  0  0  0  0  0
  184.2290   24.3904   39.2140 C   0  0  1  0  0  0  0  0  0  0  0  0
  184.2546   24.3938   40.7314 C   0  0  0  0  0  0  0  0  0  0  0  0
  181.1461   29.1761   36.6778 C   0  0  0  0  0  0  0  0  0  0  0  0
  177.5451   29.1679   36.6661 C   0  0  0  0  0  0  0  0  0  0  0  0
  176.2742   29.8606   36.2941 C   0  0  0  0  0  0  0  0  0  0  0  0
  175.4767   27.1604   38.0366 C   0  0  0  0  0  0  0  0  0  0  0  0
  174.7325   26.1470   38.5989 C   0  0  0  0  0  0  0  0  0  0  0  0
  181.4786   27.0819   37.8352 C   0  0  0  0  0  0  0  0  0  0  0  0
  177.1626   23.7436   39.3429 N   0  0  0  0  0  0  0  0  0  0  0  0
  178.7439   29.7519   36.3706 N   0  0  0  0  0  0  0  0  0  0  0  0
  185.5380   24.7629   38.7444 O   0  0  0  0  0  0  0  0  0  0  0  0
  179.7093   25.9945   38.4921 H   0  0  0  0  0  0  0  0  0  0  0  0
  183.7589   22.3126   39.5215 H   0  0  0  0  0  0  0  0  0  0  0  0
  183.0036   23.0444   38.0652 H   0  0  0  0  0  0  0  0  0  0  0  0
  184.7556   22.6480   38.0652 H   0  0  0  0  0  0  0  0  0  0  0  0
  183.0688   28.3844   37.1691 H   0  0  0  0  0  0  0  0  0  0  0  0
  175.2553   28.1247   35.5420 H   0  0  0  0  0  0  0  0  0  0  0  0
  174.1931   29.5315   35.8556 H   0  0  0  0  0  0  0  0  0  0  0  0
  175.0484   29.2133   38.3399 H   0  0  0  0  0  0  0  0  0  0  0  0
  173.7018   28.1655   37.6070 H   0  0  0  0  0  0  0  0  0  0  0  0
  183.2333   24.2552   41.1157 H   0  0  0  0  0  0  0  0  0  0  0  0
  184.8953   23.5744   41.0892 H   0  0  0  0  0  0  0  0  0  0  0  0
  184.6538   25.3544   41.0892 H   0  0  0  0  0  0  0  0  0  0  0  0
  181.5444   30.0615   36.1606 H   0  0  0  0  0  0  0  0  0  0  0  0
  176.4133   30.3233   35.3059 H   0  0  0  0  0  0  0  0  0  0  0  0
  176.0751   30.5916   37.0916 H   0  0  0  0  0  0  0  0  0  0  0  0
  173.6462   26.2845   38.7036 H   0  0  0  0  0  0  0  0  0  0  0  0
  178.1793   23.5987   39.2636 H   0  0  0  0  0  0  0  0  0  0  0  0
  176.5708   23.0176   39.7714 H   0  0  0  0  0  0  0  0  0  0  0  0
  178.8538   30.6545   35.8867 H   0  0  0  0  0  0  0  0  0  0  0  0
  186.1308   24.9317   39.5192 H   0  0  0  0  0  0  0  0  0  0  0  0
  1  3  2  0
  1 21  1  0
  2  3  1  0
  2  4  2  0
  3 23  1  0
  4  5  1  0
  4 20  1  0
  5  6  1  0
  5 18  2  0
  6  7  2  0
  6 11  1  0
  7 22  1  0
  8 14  3  0
  8 22  1  0
 15  9  1  0
 10 17  1  0
 10 22  2  0
 11 17  2  0
 11 24  1  0
 12 13  1  0
 12 19  1  0
 13 20  1  0
 15 14  1  1
 15 16  1  0
 15 25  1  0
 18 19  1  0
 18 24  1  0
 20 21  2  0
  7 26  1  0
  9 27  1  0
  9 28  1  0
  9 29  1  0
 10 30  1  0
 12 31  1  0
 12 32  1  0
 13 33  1  0
 13 34  1  0
 16 35  1  0
 16 36  1  0
 16 37  1  0
 17 38  1  0
 19 39  1  0
 19 40  1  0
 21 41  1  0
 23 42  1  0
 23 43  1  0
 24 44  1  0
 25 45  1  0
M  END
>  <filename_input>  (21) 
7JXX_VP7_docked.sdf

>  <pdb_id>  (21) 
7JXX_VP7

>  <pose_rank>  (21) 
20

>  <num_atoms_heavy>  (21) 
25

>  <num_torsions>  (21) 
2

>  <pose>  (21) 
[175.27618650793252, 25.008952389704383, 39.01993171037083, 4.270859807737366, 1.2719133772619071, -2.604202767194823, 1.3293426364124499, -1.746139279553957]

>  <energy>  (21) 
-116.83828919862398

>  <inter_energy>  (21) 
-104.8503677430288

>  <intra_energy>  (21) 
0.0

>  <rmsd>  (21) 
11.4286

>  <sdf_rank>  (21) 
0

$$$$

     RDKit          3D

 45 48  0  0  0  0  0  0  0  0999 V2000
  188.2213   14.7337   46.5162 N   0  0  0  0  0  0  0  0  0  0  0  0
  188.1425   14.8250   48.9028 N   0  0  0  0  0  0  0  0  0  0  0  0
  188.0135   15.3937   47.6720 C   0  0  0  0  0  0  0  0  0  0  0  0
  188.4958   13.5254   48.9883 C   0  0  0  0  0  0  0  0  0  0  0  0
  188.6346   12.9621   50.3414 C   0  0  0  0  0  0  0  0  0  0  0  0
  188.5655   13.8014   51.5265 C   0  0  0  0  0  0  0  0  0  0  0  0
  188.4248   15.1732   51.7724 C   0  0  0  0  0  0  0  0  0  0  0  0
  188.2243   16.9998   53.4321 C   0  0  0  0  0  0  0  0  0  0  0  0
  188.1934   19.8051   55.4920 C   0  0  0  0  0  0  0  0  0  0  0  0
  188.6172   14.7309   54.1597 C   0  0  0  0  0  0  0  0  0  0  0  0
  188.7722   12.9439   52.6276 C   0  0  0  0  0  0  0  0  0  0  0  0
  188.3865   10.3812   48.6410 C   0  0  0  0  0  0  0  0  0  0  0  0
  189.1803   11.3633   47.7928 C   0  0  0  0  0  0  0  0  0  0  0  0
  188.0156   18.1411   53.6999 C   0  0  0  0  0  0  0  0  0  0  0  0
  187.8222   19.5541   54.0402 C   0  0  1  0  0  0  0  0  0  0  0  0
  186.3933   19.9843   53.7639 C   0  0  0  0  0  0  0  0  0  0  0  0
  188.7695   13.3853   53.9451 C   0  0  0  0  0  0  0  0  0  0  0  0
  188.8175   11.6634   50.7827 C   0  0  0  0  0  0  0  0  0  0  0  0
  188.9613   10.3747   50.0398 C   0  0  0  0  0  0  0  0  0  0  0  0
  188.7333   12.8061   47.8038 C   0  0  0  0  0  0  0  0  0  0  0  0
  188.5824   13.4567   46.5993 C   0  0  0  0  0  0  0  0  0  0  0  0
  188.4216   15.6214   53.0996 C   0  0  0  0  0  0  0  0  0  0  0  0
  187.6820   16.6884   47.5897 N   0  0  0  0  0  0  0  0  0  0  0  0
  188.9140   11.6719   52.1451 N   0  0  0  0  0  0  0  0  0  0  0  0
  188.6949   20.3467   53.2139 O   0  0  0  0  0  0  0  0  0  0  0  0
  188.3191   15.8843   50.9399 H   0  0  0  0  0  0  0  0  0  0  0  0
  187.4620   19.3106   56.1483 H   0  0  0  0  0  0  0  0  0  0  0  0
  189.1965   19.3992   55.6895 H   0  0  0  0  0  0  0  0  0  0  0  0
  188.1904   20.8872   55.6895 H   0  0  0  0  0  0  0  0  0  0  0  0
  188.6497   15.1185   55.1887 H   0  0  0  0  0  0  0  0  0  0  0  0
  187.3314   10.6903   48.6757 H   0  0  0  0  0  0  0  0  0  0  0  0
  188.4492    9.3732   48.2051 H   0  0  0  0  0  0  0  0  0  0  0  0
  190.2221   11.3374   48.1449 H   0  0  0  0  0  0  0  0  0  0  0  0
  189.0286   11.0284   46.7561 H   0  0  0  0  0  0  0  0  0  0  0  0
  185.8672   20.1427   54.7168 H   0  0  0  0  0  0  0  0  0  0  0  0
  186.3974   20.9210   53.1872 H   0  0  0  0  0  0  0  0  0  0  0  0
  185.8795   19.2010   53.1872 H   0  0  0  0  0  0  0  0  0  0  0  0
  188.8851   12.6825   54.7833 H   0  0  0  0  0  0  0  0  0  0  0  0
  188.4508    9.5889   50.6159 H   0  0  0  0  0  0  0  0  0  0  0  0
  190.0417   10.1997   49.9297 H   0  0  0  0  0  0  0  0  0  0  0  0
  188.7677   12.8982   45.6699 H   0  0  0  0  0  0  0  0  0  0  0  0
  187.5137   17.2325   48.4479 H   0  0  0  0  0  0  0  0  0  0  0  0
  187.5954   17.1402   46.6681 H   0  0  0  0  0  0  0  0  0  0  0  0
  189.0714   10.8372   52.7277 H   0  0  0  0  0  0  0  0  0  0  0  0
  189.2915   20.8886   53.7888 H   0  0  0  0  0  0  0  0  0  0  0  0
  1  3  2  0
  1 21  1  0
  2  3  1  0
  2  4  2  0
  3 23  1  0
  4  5  1  0
  4 20  1  0
  5  6  1  0
  5 18  2  0
  6  7  2  0
  6 11  1  0
  7 22  1  0
  8 14  3  0
  8 22  1  0
 15  9  1  0
 10 17  1  0
 10 22  2  0
 11 17  2  0
 11 24  1  0
 12 13  1  0
 12 19  1  0
 13 20  1  0
 15 14  1  6
 15 16  1  0
 15 25  1  0
 18 19  1  0
 18 24  1  0
 20 21  2  0
  7 26  1  0
  9 27  1  0
  9 28  1  0
  9 29  1  0
 10 30  1  0
 12 31  1  0
 12 32  1  0
 13 33  1  0
 13 34  1  0
 16 35  1  0
 16 36  1  0
 16 37  1  0
 17 38  1  0
 19 39  1  0
 19 40  1  0
 21 41  1  0
 23 42  1  0
 23 43  1  0
 24 44  1  0
 25 45  1  0
M  END
>  <filename_input>  (22) 
7JXX_VP7_docked.sdf

>  <pdb_id>  (22) 
7JXX_VP7

>  <pose_rank>  (22) 
21

>  <num_atoms_heavy>  (22) 
25

>  <num_torsions>  (22) 
2

>  <pose>  (22) 
[188.2213359738552, 14.733720154642297, 46.51616746580357, 2.2868648250536827, -0.3349706579101733, 1.640204034495596, -0.15716416649118742, 2.20122104737658]

>  <energy>  (22) 
-108.44175580296289

>  <inter_energy>  (22) 
-79.5877046283367

>  <intra_energy>  (22) 
0.0

>  <rmsd>  (22) 
13.7711

>  <sdf_rank>  (22) 
0

$$$$

     RDKit          3D

 45 48  0  0  0  0  0  0  0  0999 V2000
  184.4006   12.6535   51.6021 N   0  0  0  0  0  0  0  0  0  0  0  0
  185.6883   14.3309   52.7151 N   0  0  0  0  0  0  0  0  0  0  0  0
  184.8513   13.9172   51.7236 C   0  0  0  0  0  0  0  0  0  0  0  0
  186.0979   13.4372   53.6397 C   0  0  0  0  0  0  0  0  0  0  0  0
  187.0122   13.9315   54.6823 C   0  0  0  0  0  0  0  0  0  0  0  0
  187.5836   15.2671   54.6235 C   0  0  0  0  0  0  0  0  0  0  0  0
  187.5331   16.3364   53.7201 C   0  0  0  0  0  0  0  0  0  0  0  0
  188.2127   18.6523   53.1668 C   0  0  0  0  0  0  0  0  0  0  0  0
  189.0643   21.8769   52.1275 C   0  0  0  0  0  0  0  0  0  0  0  0
  189.0730   17.5710   55.1472 C   0  0  0  0  0  0  0  0  0  0  0  0
  188.4264   15.3836   55.7489 C   0  0  0  0  0  0  0  0  0  0  0  0
  185.9826   11.3114   55.9819 C   0  0  0  0  0  0  0  0  0  0  0  0
  186.0978   11.0200   54.4934 C   0  0  0  0  0  0  0  0  0  0  0  0
  188.2123   19.5997   52.4455 C   0  0  0  0  0  0  0  0  0  0  0  0
  188.1566   20.7858   51.5852 C   0  0  1  0  0  0  0  0  0  0  0  0
  186.7302   21.2856   51.4482 C   0  0  0  0  0  0  0  0  0  0  0  0
  189.1494   16.5337   56.0405 C   0  0  0  0  0  0  0  0  0  0  0  0
  187.4843   13.3468   55.8442 C   0  0  0  0  0  0  0  0  0  0  0  0
  187.2502   11.9967   56.4408 C   0  0  0  0  0  0  0  0  0  0  0  0
  185.6585   12.1055   53.5394 C   0  0  0  0  0  0  0  0  0  0  0  0
  184.8139   11.7690   52.5048 C   0  0  0  0  0  0  0  0  0  0  0  0
  188.2608   17.4975   54.0114 C   0  0  0  0  0  0  0  0  0  0  0  0
  184.4617   14.8007   50.7959 N   0  0  0  0  0  0  0  0  0  0  0  0
  188.3379   14.2180   56.4590 N   0  0  0  0  0  0  0  0  0  0  0  0
  188.6303   20.4226   50.2751 O   0  0  0  0  0  0  0  0  0  0  0  0
  186.9339   16.2659   52.8003 H   0  0  0  0  0  0  0  0  0  0  0  0
  189.0466   21.8556   53.2272 H   0  0  0  0  0  0  0  0  0  0  0  0
  190.0921   21.7081   51.7740 H   0  0  0  0  0  0  0  0  0  0  0  0
  188.7112   22.8569   51.7740 H   0  0  0  0  0  0  0  0  0  0  0  0
  189.6637   18.4812   55.3280 H   0  0  0  0  0  0  0  0  0  0  0  0
  185.1195   11.9684   56.1648 H   0  0  0  0  0  0  0  0  0  0  0  0
  185.8411   10.3729   56.5380 H   0  0  0  0  0  0  0  0  0  0  0  0
  187.1545   10.8006   54.2804 H   0  0  0  0  0  0  0  0  0  0  0  0
  185.4020   10.1872   54.3137 H   0  0  0  0  0  0  0  0  0  0  0  0
  186.2972   21.4374   52.4479 H   0  0  0  0  0  0  0  0  0  0  0  0
  186.7267   22.2385   50.8986 H   0  0  0  0  0  0  0  0  0  0  0  0
  186.1327   20.5433   50.8986 H   0  0  0  0  0  0  0  0  0  0  0  0
  189.7594   16.6091   56.9528 H   0  0  0  0  0  0  0  0  0  0  0  0
  187.2018   12.1094   57.5339 H   0  0  0  0  0  0  0  0  0  0  0  0
  188.0838   11.3617   56.1063 H   0  0  0  0  0  0  0  0  0  0  0  0
  184.4680   10.7281   52.4219 H   0  0  0  0  0  0  0  0  0  0  0  0
  184.7820   15.7782   50.8491 H   0  0  0  0  0  0  0  0  0  0  0  0
  183.8417   14.5029   50.0292 H   0  0  0  0  0  0  0  0  0  0  0  0
  188.8440   14.0243   57.3349 H   0  0  0  0  0  0  0  0  0  0  0  0
  189.4129   19.8225   50.3618 H   0  0  0  0  0  0  0  0  0  0  0  0
  1  3  2  0
  1 21  1  0
  2  3  1  0
  2  4  2  0
  3 23  1  0
  4  5  1  0
  4 20  1  0
  5  6  1  0
  5 18  2  0
  6  7  2  0
  6 11  1  0
  7 22  1  0
  8 14  3  0
  8 22  1  0
 15  9  1  0
 10 17  1  0
 10 22  2  0
 11 17  2  0
 11 24  1  0
 12 13  1  0
 12 19  1  0
 13 20  1  0
 15 14  1  1
 15 16  1  0
 15 25  1  0
 18 19  1  0
 18 24  1  0
 20 21  2  0
  7 26  1  0
  9 27  1  0
  9 28  1  0
  9 29  1  0
 10 30  1  0
 12 31  1  0
 12 32  1  0
 13 33  1  0
 13 34  1  0
 16 35  1  0
 16 36  1  0
 16 37  1  0
 17 38  1  0
 19 39  1  0
 19 40  1  0
 21 41  1  0
 23 42  1  0
 23 43  1  0
 24 44  1  0
 25 45  1  0
M  END
>  <filename_input>  (23) 
7JXX_VP7_docked.sdf

>  <pdb_id>  (23) 
7JXX_VP7

>  <pose_rank>  (23) 
22

>  <num_atoms_heavy>  (23) 
25

>  <num_torsions>  (23) 
2

>  <pose>  (23) 
[184.40055309567913, 12.653547665467825, 51.602092631513784, -4.009376534987026, -0.5270004175145743, -1.5686857138793227, 3.069239085911116, -1.2346108413491874]

>  <energy>  (23) 
-103.19665251521911

>  <inter_energy>  (23) 
-87.87656467894831

>  <intra_energy>  (23) 
0.0

>  <rmsd>  (23) 
13.1192

>  <sdf_rank>  (23) 
0

$$$$

     RDKit          3D

 45 48  0  0  0  0  0  0  0  0999 V2000
  174.4975   24.9307   37.2910 N   0  0  0  0  0  0  0  0  0  0  0  0
  173.3962   24.4864   39.3647 N   0  0  0  0  0  0  0  0  0  0  0  0
  174.5142   24.5874   38.5935 C   0  0  0  0  0  0  0  0  0  0  0  0
  172.1937   24.7443   38.8090 C   0  0  0  0  0  0  0  0  0  0  0  0
  171.0156   24.6081   39.6814 C   0  0  0  0  0  0  0  0  0  0  0  0
  171.1209   24.0577   41.0229 C   0  0  0  0  0  0  0  0  0  0  0  0
  172.1510   23.5166   41.8028 C   0  0  0  0  0  0  0  0  0  0  0  0
  172.8571   22.5441   43.9678 C   0  0  0  0  0  0  0  0  0  0  0  0
  174.3571   21.8537   47.0415 C   0  0  0  0  0  0  0  0  0  0  0  0
  170.5350   23.0749   43.5708 C   0  0  0  0  0  0  0  0  0  0  0  0
  169.8106   24.0441   41.5457 C   0  0  0  0  0  0  0  0  0  0  0  0
  169.8546   26.3179   37.3699 C   0  0  0  0  0  0  0  0  0  0  0  0
  170.8361   25.3534   36.7215 C   0  0  0  0  0  0  0  0  0  0  0  0
  173.7185   22.1583   44.6937 C   0  0  0  0  0  0  0  0  0  0  0  0
  174.7487   21.6261   45.5912 C   0  0  1  0  0  0  0  0  0  0  0  0
  176.0996   22.2489   45.2903 C   0  0  0  0  0  0  0  0  0  0  0  0
  169.5070   23.5879   42.8226 C   0  0  0  0  0  0  0  0  0  0  0  0
  169.6867   24.9436   39.4912 C   0  0  0  0  0  0  0  0  0  0  0  0
  168.9726   25.5430   38.3232 C   0  0  0  0  0  0  0  0  0  0  0  0
  172.1344   25.0940   37.4485 C   0  0  0  0  0  0  0  0  0  0  0  0
  173.3122   25.1721   36.7389 C   0  0  0  0  0  0  0  0  0  0  0  0
  171.8481   23.0559   43.0907 C   0  0  0  0  0  0  0  0  0  0  0  0
  175.7045   24.3121   39.1416 N   0  0  0  0  0  0  0  0  0  0  0  0
  168.9799   24.5863   40.6040 N   0  0  0  0  0  0  0  0  0  0  0  0
  174.8534   20.2066   45.3756 O   0  0  0  0  0  0  0  0  0  0  0  0
  173.1772   23.4546   41.4117 H   0  0  0  0  0  0  0  0  0  0  0  0
  175.1184   21.4112   47.7006 H   0  0  0  0  0  0  0  0  0  0  0  0
  174.2859   22.9339   47.2369 H   0  0  0  0  0  0  0  0  0  0  0  0
  173.3833   21.3809   47.2369 H   0  0  0  0  0  0  0  0  0  0  0  0
  170.3221   22.6693   44.5708 H   0  0  0  0  0  0  0  0  0  0  0  0
  170.4068   27.0921   37.9227 H   0  0  0  0  0  0  0  0  0  0  0  0
  169.2383   26.8014   36.5977 H   0  0  0  0  0  0  0  0  0  0  0  0
  170.3230   24.3873   36.6064 H   0  0  0  0  0  0  0  0  0  0  0  0
  171.1316   25.8409   35.7807 H   0  0  0  0  0  0  0  0  0  0  0  0
  176.6127   22.4854   46.2341 H   0  0  0  0  0  0  0  0  0  0  0  0
  176.7086   21.5406   44.7093 H   0  0  0  0  0  0  0  0  0  0  0  0
  175.9566   23.1719   44.7093 H   0  0  0  0  0  0  0  0  0  0  0  0
  168.4816   23.6365   43.2178 H   0  0  0  0  0  0  0  0  0  0  0  0
  168.2012   26.2264   38.7078 H   0  0  0  0  0  0  0  0  0  0  0  0
  168.5594   24.7015   37.7479 H   0  0  0  0  0  0  0  0  0  0  0  0
  173.2707   25.4448   35.6741 H   0  0  0  0  0  0  0  0  0  0  0  0
  175.7649   24.0451   40.1345 H   0  0  0  0  0  0  0  0  0  0  0  0
  176.5597   24.3674   38.5702 H   0  0  0  0  0  0  0  0  0  0  0  0
  167.9635   24.7080   40.7181 H   0  0  0  0  0  0  0  0  0  0  0  0
  174.8876   19.7417   46.2490 H   0  0  0  0  0  0  0  0  0  0  0  0
  1  3  2  0
  1 21  1  0
  2  3  1  0
  2  4  2  0
  3 23  1  0
  4  5  1  0
  4 20  1  0
  5  6  1  0
  5 18  2  0
  6  7  2  0
  6 11  1  0
  7 22  1  0
  8 14  3  0
  8 22  1  0
 15  9  1  0
 10 17  1  0
 10 22  2  0
 11 17  2  0
 11 24  1  0
 12 13  1  0
 12 19  1  0
 13 20  1  0
 15 14  1  6
 15 16  1  0
 15 25  1  0
 18 19  1  0
 18 24  1  0
 20 21  2  0
  7 26  1  0
  9 27  1  0
  9 28  1  0
  9 29  1  0
 10 30  1  0
 12 31  1  0
 12 32  1  0
 13 33  1  0
 13 34  1  0
 16 35  1  0
 16 36  1  0
 16 37  1  0
 17 38  1  0
 19 39  1  0
 19 40  1  0
 21 41  1  0
 23 42  1  0
 23 43  1  0
 24 44  1  0
 25 45  1  0
M  END
>  <filename_input>  (24) 
7JXX_VP7_docked.sdf

>  <pdb_id>  (24) 
7JXX_VP7

>  <pose_rank>  (24) 
23

>  <num_atoms_heavy>  (24) 
25

>  <num_torsions>  (24) 
2

>  <pose>  (24) 
[174.49753431258196, 24.93073365148337, 37.29100750776436, 0.8766749247476602, -2.291356570882034, 0.495094870292056, -0.47363041855150173, 1.7847060275973197]

>  <energy>  (24) 
35.5561185366097

>  <inter_energy>  (24) 
66.52462756956297

>  <intra_energy>  (24) 
0.0

>  <rmsd>  (24) 
11.2948

>  <sdf_rank>  (24) 
0

$$$$

     RDKit          3D

 45 48  0  0  0  0  0  0  0  0999 V2000
  169.4462   18.3086   39.5238 N   0  0  0  0  0  0  0  0  0  0  0  0
  171.6591   18.9482   38.8880 N   0  0  0  0  0  0  0  0  0  0  0  0
  170.7778   18.1071   39.4970 C   0  0  0  0  0  0  0  0  0  0  0  0
  171.1885   20.0508   38.2684 C   0  0  0  0  0  0  0  0  0  0  0  0
  172.1830   20.9339   37.6371 C   0  0  0  0  0  0  0  0  0  0  0  0
  173.6104   20.7252   37.8178 C   0  0  0  0  0  0  0  0  0  0  0  0
  174.4050   19.8309   38.5465 C   0  0  0  0  0  0  0  0  0  0  0  0
  176.6763   19.0513   39.1505 C   0  0  0  0  0  0  0  0  0  0  0  0
  179.6492   17.3456   39.7346 C   0  0  0  0  0  0  0  0  0  0  0  0
  176.3890   21.0011   37.7551 C   0  0  0  0  0  0  0  0  0  0  0  0
  174.2518   21.7638   37.1104 C   0  0  0  0  0  0  0  0  0  0  0  0
  169.5794   21.8648   36.2341 C   0  0  0  0  0  0  0  0  0  0  0  0
  169.1844   21.5310   37.6646 C   0  0  0  0  0  0  0  0  0  0  0  0
  177.3747   18.2611   39.7033 C   0  0  0  0  0  0  0  0  0  0  0  0
  178.2793   17.3347   40.3915 C   0  0  1  0  0  0  0  0  0  0  0  0
  177.6997   15.9322   40.4135 C   0  0  0  0  0  0  0  0  0  0  0  0
  175.6332   21.8967   37.0433 C   0  0  0  0  0  0  0  0  0  0  0  0
  172.0426   22.0282   36.8020 C   0  0  0  0  0  0  0  0  0  0  0  0
  170.8298   22.7150   36.2628 C   0  0  0  0  0  0  0  0  0  0  0  0
  169.8052   20.3019   38.2853 C   0  0  0  0  0  0  0  0  0  0  0  0
  168.9824   19.4016   38.9251 C   0  0  0  0  0  0  0  0  0  0  0  0
  175.7982   19.9622   38.4809 C   0  0  0  0  0  0  0  0  0  0  0  0
  171.2486   17.0240   40.1280 N   0  0  0  0  0  0  0  0  0  0  0  0
  173.2830   22.5206   36.5109 N   0  0  0  0  0  0  0  0  0  0  0  0
  178.4347   17.7751   41.7533 O   0  0  0  0  0  0  0  0  0  0  0  0
  173.9442   19.0413   39.1582 H   0  0  0  0  0  0  0  0  0  0  0  0
  180.4282   17.3518   40.5112 H   0  0  0  0  0  0  0  0  0  0  0  0
  179.7628   16.4483   39.1084 H   0  0  0  0  0  0  0  0  0  0  0  0
  179.7485   18.2446   39.1084 H   0  0  0  0  0  0  0  0  0  0  0  0
  177.4844   21.1020   37.7551 H   0  0  0  0  0  0  0  0  0  0  0  0
  169.7757   20.9363   35.6779 H   0  0  0  0  0  0  0  0  0  0  0  0
  168.7646   22.4127   35.7381 H   0  0  0  0  0  0  0  0  0  0  0  0
  169.4574   22.3921   38.2924 H   0  0  0  0  0  0  0  0  0  0  0  0
  168.1079   21.3102   37.6164 H   0  0  0  0  0  0  0  0  0  0  0  0
  177.5655   15.6073   41.4558 H   0  0  0  0  0  0  0  0  0  0  0  0
  176.7268   15.9295   39.9003 H   0  0  0  0  0  0  0  0  0  0  0  0
  178.3869   15.2434   39.9003 H   0  0  0  0  0  0  0  0  0  0  0  0
  176.1024   22.6898   36.4425 H   0  0  0  0  0  0  0  0  0  0  0  0
  171.0481   23.0374   35.2340 H   0  0  0  0  0  0  0  0  0  0  0  0
  170.6193   23.5522   36.9447 H   0  0  0  0  0  0  0  0  0  0  0  0
  167.8995   19.5941   38.9414 H   0  0  0  0  0  0  0  0  0  0  0  0
  172.2602   16.8302   40.1334 H   0  0  0  0  0  0  0  0  0  0  0  0
  170.5991   16.3847   40.6080 H   0  0  0  0  0  0  0  0  0  0  0  0
  173.4635   23.3464   35.9223 H   0  0  0  0  0  0  0  0  0  0  0  0
  178.1764   17.0435   42.3682 H   0  0  0  0  0  0  0  0  0  0  0  0
  1  3  2  0
  1 21  1  0
  2  3  1  0
  2  4  2  0
  3 23  1  0
  4  5  1  0
  4 20  1  0
  5  6  1  0
  5 18  2  0
  6  7  2  0
  6 11  1  0
  7 22  1  0
  8 14  3  0
  8 22  1  0
 15  9  1  0
 10 17  1  0
 10 22  2  0
 11 17  2  0
 11 24  1  0
 12 13  1  0
 12 19  1  0
 13 20  1  0
 15 14  1  6
 15 16  1  0
 15 25  1  0
 18 19  1  0
 18 24  1  0
 20 21  2  0
  7 26  1  0
  9 27  1  0
  9 28  1  0
  9 29  1  0
 10 30  1  0
 12 31  1  0
 12 32  1  0
 13 33  1  0
 13 34  1  0
 16 35  1  0
 16 36  1  0
 16 37  1  0
 17 38  1  0
 19 39  1  0
 19 40  1  0
 21 41  1  0
 23 42  1  0
 23 43  1  0
 24 44  1  0
 25 45  1  0
M  END
>  <filename_input>  (25) 
7JXX_VP7_docked.sdf

>  <pdb_id>  (25) 
7JXX_VP7

>  <pose_rank>  (25) 
24

>  <num_atoms_heavy>  (25) 
25

>  <num_torsions>  (25) 
2

>  <pose>  (25) 
[169.44617050419262, 18.308613554247792, 39.52381095772871, -1.0774298257115515, -0.2762112547160626, 0.5208206294531893, -0.9870882499325306, 2.398721386671819]

>  <energy>  (25) 
109.72255181032797

>  <inter_energy>  (25) 
148.3165273383879

>  <intra_energy>  (25) 
0.0

>  <rmsd>  (25) 
10.0677

>  <sdf_rank>  (25) 
0

$$$$

     RDKit          3D

 45 48  0  0  0  0  0  0  0  0999 V2000
  174.6430   19.2750   47.4350 N   0  0  0  0  0  0  0  0  0  0  0  0
  176.8790   19.4830   46.6180 N   0  0  0  0  0  0  0  0  0  0  0  0
  175.6650   18.8670   46.6580 C   0  0  0  0  0  0  0  0  0  0  0  0
  177.0870   20.5680   47.3930 C   0  0  0  0  0  0  0  0  0  0  0  0
  178.4200   21.1890   47.3230 C   0  0  0  0  0  0  0  0  0  0  0  0
  179.5120   20.5680   46.5910 C   0  0  0  0  0  0  0  0  0  0  0  0
  179.6850   19.3760   45.8760 C   0  0  0  0  0  0  0  0  0  0  0  0
  181.1740   17.9410   44.5140 C   0  0  0  0  0  0  0  0  0  0  0  0
  181.0000   15.9520   41.6260 C   0  0  0  0  0  0  0  0  0  0  0  0
  182.0140   19.9800   45.4980 C   0  0  0  0  0  0  0  0  0  0  0  0
  180.6310   21.4090   46.7670 C   0  0  0  0  0  0  0  0  0  0  0  0
  176.7580   23.4800   48.5890 C   0  0  0  0  0  0  0  0  0  0  0  0
  176.1960   22.1900   49.1670 C   0  0  0  0  0  0  0  0  0  0  0  0
  181.3550   16.9920   43.8180 C   0  0  0  0  0  0  0  0  0  0  0  0
  181.5990   15.7910   43.0130 C   0  0  1  0  0  0  0  0  0  0  0  0
  181.0450   14.5580   43.7030 C   0  0  0  0  0  0  0  0  0  0  0  0
  181.8740   21.1470   46.2040 C   0  0  0  0  0  0  0  0  0  0  0  0
  178.9110   22.3740   47.8420 C   0  0  0  0  0  0  0  0  0  0  0  0
  178.2670   23.4330   48.6770 C   0  0  0  0  0  0  0  0  0  0  0  0
  176.0480   21.0170   48.2270 C   0  0  0  0  0  0  0  0  0  0  0  0
  174.8510   20.3360   48.2090 C   0  0  0  0  0  0  0  0  0  0  0  0
  180.9370   19.1090   45.3070 C   0  0  0  0  0  0  0  0  0  0  0  0
  175.4670   17.7790   45.9030 N   0  0  0  0  0  0  0  0  0  0  0  0
  180.2330   22.4820   47.5160 N   0  0  0  0  0  0  0  0  0  0  0  0
  183.0210   15.6200   42.8670 O   0  0  0  0  0  0  0  0  0  0  0  0
  178.8543   18.6637   45.7635 H   0  0  0  0  0  0  0  0  0  0  0  0
  179.9412   16.2366   41.7146 H   0  0  0  0  0  0  0  0  0  0  0  0
  181.5457   16.7354   41.0796 H   0  0  0  0  0  0  0  0  0  0  0  0
  181.0795   15.0006   41.0796 H   0  0  0  0  0  0  0  0  0  0  0  0
  182.9953   19.7233   45.0724 H   0  0  0  0  0  0  0  0  0  0  0  0
  176.4513   23.5790   47.5373 H   0  0  0  0  0  0  0  0  0  0  0  0
  176.3760   24.3423   49.1550 H   0  0  0  0  0  0  0  0  0  0  0  0
  176.8619   21.8765   49.9845 H   0  0  0  0  0  0  0  0  0  0  0  0
  175.1688   22.4403   49.4706 H   0  0  0  0  0  0  0  0  0  0  0  0
  181.1044   14.6902   44.7934 H   0  0  0  0  0  0  0  0  0  0  0  0
  179.9953   14.4132   43.4078 H   0  0  0  0  0  0  0  0  0  0  0  0
  181.6338   13.6770   43.4078 H   0  0  0  0  0  0  0  0  0  0  0  0
  182.7132   21.8486   46.3202 H   0  0  0  0  0  0  0  0  0  0  0  0
  178.6591   24.4088   48.3543 H   0  0  0  0  0  0  0  0  0  0  0  0
  178.5087   23.1923   49.7228 H   0  0  0  0  0  0  0  0  0  0  0  0
  174.0354   20.6833   48.8602 H   0  0  0  0  0  0  0  0  0  0  0  0
  176.2208   17.4310   45.2934 H   0  0  0  0  0  0  0  0  0  0  0  0
  174.5609   17.2901   45.9318 H   0  0  0  0  0  0  0  0  0  0  0  0
  180.8446   23.2623   47.7952 H   0  0  0  0  0  0  0  0  0  0  0  0
  183.4409   15.5695   43.7621 H   0  0  0  0  0  0  0  0  0  0  0  0
  1  3  2  0
  1 21  1  0
  2  3  1  0
  2  4  2  0
  3 23  1  0
  4  5  1  0
  4 20  1  0
  5  6  1  0
  5 18  2  0
  6  7  2  0
  6 11  1  0
  7 22  1  0
  8 14  3  0
  8 22  1  0
 15  9  1  0
 10 17  1  0
 10 22  2  0
 11 17  2  0
 11 24  1  0
 12 13  1  0
 12 19  1  0
 13 20  1  0
 15 14  1  1
 15 16  1  0
 15 25  1  0
 18 19  1  0
 18 24  1  0
 20 21  2  0
  7 26  1  0
  9 27  1  0
  9 28  1  0
  9 29  1  0
 10 30  1  0
 12 31  1  0
 12 32  1  0
 13 33  1  0
 13 34  1  0
 16 35  1  0
 16 36  1  0
 16 37  1  0
 17 38  1  0
 19 39  1  0
 19 40  1  0
 21 41  1  0
 23 42  1  0
 23 43  1  0
 24 44  1  0
 25 45  1  0
M  END
>  <filename_input>  (26) 
7JXX_VP7_docked.sdf

>  <pdb_id>  (26) 
7JXX_VP7

>  <pose_rank>  (26) 
25

>  <num_atoms_heavy>  (26) 
25

>  <num_torsions>  (26) 
2

>  <pose>  (26) 
[174.643, 19.275, 47.435, 1e-06, 1e-06, 1e-06, 0.0, 0.0]

>  <energy>  (26) 
-1361.5386034010357

>  <inter_energy>  (26) 
-1358.6203933606425

>  <intra_energy>  (26) 
0.0

>  <rmsd>  (26) 
0.0

>  <sdf_rank>  (26) 
0

$$$$
