
     RDKit          3D

 43 46  0  0  0  0  0  0  0  0999 V2000
    3.8409  -22.5019   41.8087 C   0  0  0  0  0  0  0  0  0  0  0  0
    2.1381  -23.9154   43.3774 C   0  0  0  0  0  0  0  0  0  0  0  0
    1.6101  -23.2366   42.2774 C   0  0  0  0  0  0  0  0  0  0  0  0
    5.7947  -21.0290   39.3279 C   0  0  0  0  0  0  0  0  0  0  0  0
    5.7434  -23.4581   44.8653 O   0  0  0  0  0  0  0  0  0  0  0  0
    5.6149  -17.8887   47.3165 C   0  0  0  0  0  0  0  0  0  0  0  0
    6.0311  -18.2825   48.5657 C   0  0  0  0  0  0  0  0  0  0  0  0
    5.7118  -20.1236   46.4851 C   0  0  0  0  0  0  0  0  0  0  0  0
    5.8420  -22.4018   45.7458 C   0  0  0  0  0  0  0  0  0  0  0  0
    5.4355  -18.7486   46.2820 C   0  0  0  0  0  0  0  0  0  0  0  0
    6.5740  -24.2874   42.8194 C   0  0  0  0  0  0  0  0  0  0  0  0
    5.7442  -23.1949   43.4596 C   0  0  1  0  0  0  0  0  0  0  0  0
    4.3164  -23.1881   42.9423 C   0  0  0  0  0  0  0  0  0  0  0  0
    2.4922  -22.5378   41.4694 C   0  0  0  0  0  0  0  0  0  0  0  0
    3.4502  -23.8849   43.6913 N   0  0  0  0  0  0  0  0  0  0  0  0
    1.3683  -24.6702   44.1221 O   0  0  0  0  0  0  0  0  0  0  0  0
    4.7126  -21.6776   41.0330 N   0  0  0  0  0  0  0  0  0  0  0  0
    5.2932  -20.5035   41.3928 C   0  0  0  0  0  0  0  0  0  0  0  0
    5.9954  -20.0616   40.3128 C   0  0  0  0  0  0  0  0  0  0  0  0
    5.0234  -22.0245   39.7520 N   0  0  0  0  0  0  0  0  0  0  0  0
    5.5580  -21.0935   45.4674 C   0  0  0  0  0  0  0  0  0  0  0  0
    6.3119  -19.6003   48.7923 C   0  0  0  0  0  0  0  0  0  0  0  0
    6.1607  -20.5547   47.7628 C   0  0  0  0  0  0  0  0  0  0  0  0
    6.4403  -21.8709   48.0318 N   0  0  0  0  0  0  0  0  0  0  0  0
    6.2719  -22.7581   47.0475 C   0  0  0  0  0  0  0  0  0  0  0  0
    6.4568  -24.0592   47.3215 N   0  0  0  0  0  0  0  0  0  0  0  0
    5.3912  -16.5696   47.1046 F   0  0  0  0  0  0  0  0  0  0  0  0
    0.5320  -23.2560   42.0600 H   0  0  0  0  0  0  0  0  0  0  0  0
    6.2253  -20.9742   38.3172 H   0  0  0  0  0  0  0  0  0  0  0  0
    6.1369  -17.5446   49.3746 H   0  0  0  0  0  0  0  0  0  0  0  0
    5.0826  -18.3855   45.3055 H   0  0  0  0  0  0  0  0  0  0  0  0
    7.0402  -24.9012   43.6042 H   0  0  0  0  0  0  0  0  0  0  0  0
    5.9272  -24.9206   42.1945 H   0  0  0  0  0  0  0  0  0  0  0  0
    7.3576  -23.8341   42.1945 H   0  0  0  0  0  0  0  0  0  0  0  0
    6.1730  -22.2106   43.2199 H   0  0  0  0  0  0  0  0  0  0  0  0
    2.1305  -22.0175   40.5702 H   0  0  0  0  0  0  0  0  0  0  0  0
    3.7896  -24.4022   44.5147 H   0  0  0  0  0  0  0  0  0  0  0  0
    5.2119  -20.0048   42.3699 H   0  0  0  0  0  0  0  0  0  0  0  0
    6.5919  -19.1408   40.2340 H   0  0  0  0  0  0  0  0  0  0  0  0
    5.2142  -20.7992   44.4647 H   0  0  0  0  0  0  0  0  0  0  0  0
    6.6590  -19.9206   49.7858 H   0  0  0  0  0  0  0  0  0  0  0  0
    6.7691  -24.3487   48.2593 H   0  0  0  0  0  0  0  0  0  0  0  0
    6.2865  -24.7680   46.5938 H   0  0  0  0  0  0  0  0  0  0  0  0
  1 13  2  0
  1 14  1  0
  1 17  1  0
  2  3  1  0
  2 15  1  0
  2 16  2  0
  3 14  2  0
  4 19  1  0
  4 20  2  0
  5  9  1  0
  5 12  1  0
  6  7  2  0
  6 10  1  0
  6 27  1  0
  7 22  1  0
  8 10  2  0
  8 21  1  0
  8 23  1  0
  9 21  2  0
  9 25  1  0
 12 11  1  0
 12 13  1  0
 13 15  1  0
 17 18  1  0
 17 20  1  0
 18 19  2  0
 22 23  2  0
 23 24  1  0
 24 25  2  0
 25 26  1  0
  3 28  1  0
  4 29  1  0
  7 30  1  0
 10 31  1  0
 11 32  1  0
 11 33  1  0
 11 34  1  0
 12 35  1  1
 14 36  1  0
 15 37  1  0
 18 38  1  0
 19 39  1  0
 21 40  1  0
 22 41  1  0
 26 42  1  0
 26 43  1  0
M  END
>  <filename_input>  (1) 
7JY3_VUD_docked.sdf

>  <pdb_id>  (1) 
7JY3_VUD

>  <pose_rank>  (1) 
0

>  <num_atoms_heavy>  (1) 
27

>  <num_torsions>  (1) 
4

>  <pose>  (1) 
[6.5740293134632655, -24.287356839593702, 42.8194375423291, -3.0051260441341134, 3.01343767240822, -4.1289636152358575, 6.62220022197666, 3.861597819190032, 18.4198585805508, -12.100706870792946]

>  <energy>  (1) 
-638.4977963533719

>  <inter_energy>  (1) 
-651.0454252403848

>  <intra_energy>  (1) 
8.240580617681458

>  <rmsd>  (1) 
1.15204

>  <sdf_rank>  (1) 
0

$$$$

     RDKit          3D

 43 46  0  0  0  0  0  0  0  0999 V2000
    3.7983  -22.6900   41.6852 C   0  0  0  0  0  0  0  0  0  0  0  0
    5.6807  -21.2011   40.4209 C   0  0  0  0  0  0  0  0  0  0  0  0
    4.3696  -21.1487   39.9434 C   0  0  0  0  0  0  0  0  0  0  0  0
    1.7319  -25.3277   42.6408 C   0  0  0  0  0  0  0  0  0  0  0  0
    4.8408  -23.5287   44.3627 O   0  0  0  0  0  0  0  0  0  0  0  0
    5.4068  -18.3015   47.4286 C   0  0  0  0  0  0  0  0  0  0  0  0
    5.8023  -18.8814   48.6101 C   0  0  0  0  0  0  0  0  0  0  0  0
    5.2281  -20.4218   46.3478 C   0  0  0  0  0  0  0  0  0  0  0  0
    5.0795  -22.5992   45.3526 C   0  0  0  0  0  0  0  0  0  0  0  0
    5.1071  -19.0103   46.3107 C   0  0  0  0  0  0  0  0  0  0  0  0
    5.8152  -25.0338   42.8302 C   0  0  0  0  0  0  0  0  0  0  0  0
    5.7111  -23.5770   43.2288 C   0  0  1  0  0  0  0  0  0  0  0  0
    5.1396  -22.7212   42.1120 C   0  0  0  0  0  0  0  0  0  0  0  0
    3.4119  -21.8942   40.6115 C   0  0  0  0  0  0  0  0  0  0  0  0
    6.0434  -21.9666   41.4715 N   0  0  0  0  0  0  0  0  0  0  0  0
    6.6099  -20.4451   39.8901 O   0  0  0  0  0  0  0  0  0  0  0  0
    2.8200  -23.5426   42.2827 N   0  0  0  0  0  0  0  0  0  0  0  0
    1.9800  -23.2590   43.3118 C   0  0  0  0  0  0  0  0  0  0  0  0
    1.2679  -24.3918   43.5654 C   0  0  0  0  0  0  0  0  0  0  0  0
    2.6708  -24.8252   41.8461 N   0  0  0  0  0  0  0  0  0  0  0  0
    4.9415  -21.2439   45.2334 C   0  0  0  0  0  0  0  0  0  0  0  0
    5.9349  -20.2396   48.6769 C   0  0  0  0  0  0  0  0  0  0  0  0
    5.6525  -21.0454   47.5524 C   0  0  0  0  0  0  0  0  0  0  0  0
    5.7849  -22.4068   47.6615 N   0  0  0  0  0  0  0  0  0  0  0  0
    5.4941  -23.1496   46.5901 C   0  0  0  0  0  0  0  0  0  0  0  0
    5.5343  -24.4862   46.7091 N   0  0  0  0  0  0  0  0  0  0  0  0
    5.3315  -16.9501   47.3745 F   0  0  0  0  0  0  0  0  0  0  0  0
    4.1065  -20.5371   39.0678 H   0  0  0  0  0  0  0  0  0  0  0  0
    1.3630  -26.3620   42.5770 H   0  0  0  0  0  0  0  0  0  0  0  0
    6.0099  -18.2586   49.4928 H   0  0  0  0  0  0  0  0  0  0  0  0
    4.7768  -18.4994   45.3942 H   0  0  0  0  0  0  0  0  0  0  0  0
    5.8599  -25.6590   43.7342 H   0  0  0  0  0  0  0  0  0  0  0  0
    4.9348  -25.3145   42.2335 H   0  0  0  0  0  0  0  0  0  0  0  0
    6.7265  -25.1864   42.2335 H   0  0  0  0  0  0  0  0  0  0  0  0
    6.7114  -23.1785   43.4536 H   0  0  0  0  0  0  0  0  0  0  0  0
    2.3586  -21.8574   40.2967 H   0  0  0  0  0  0  0  0  0  0  0  0
    7.0247  -21.9710   41.7843 H   0  0  0  0  0  0  0  0  0  0  0  0
    1.8919  -22.2979   43.8396 H   0  0  0  0  0  0  0  0  0  0  0  0
    0.4939  -24.5373   44.3334 H   0  0  0  0  0  0  0  0  0  0  0  0
    4.6119  -20.7990   44.2829 H   0  0  0  0  0  0  0  0  0  0  0  0
    6.2646  -20.7096   49.6152 H   0  0  0  0  0  0  0  0  0  0  0  0
    5.8318  -24.9154   47.5969 H   0  0  0  0  0  0  0  0  0  0  0  0
    5.2677  -25.0824   45.9127 H   0  0  0  0  0  0  0  0  0  0  0  0
  1 13  2  0
  1 14  1  0
  1 17  1  0
  2  3  1  0
  2 15  1  0
  2 16  2  0
  3 14  2  0
  4 19  1  0
  4 20  2  0
  5  9  1  0
  5 12  1  0
  6  7  2  0
  6 10  1  0
  6 27  1  0
  7 22  1  0
  8 10  2  0
  8 21  1  0
  8 23  1  0
  9 21  2  0
  9 25  1  0
 12 11  1  0
 12 13  1  0
 13 15  1  0
 17 18  1  0
 17 20  1  0
 18 19  2  0
 22 23  2  0
 23 24  1  0
 24 25  2  0
 25 26  1  0
  3 28  1  0
  4 29  1  0
  7 30  1  0
 10 31  1  0
 11 32  1  0
 11 33  1  0
 11 34  1  0
 12 35  1  1
 14 36  1  0
 15 37  1  0
 18 38  1  0
 19 39  1  0
 21 40  1  0
 22 41  1  0
 26 42  1  0
 26 43  1  0
M  END
>  <filename_input>  (2) 
7JY3_VUD_docked.sdf

>  <pdb_id>  (2) 
7JY3_VUD

>  <pose_rank>  (2) 
1

>  <num_atoms_heavy>  (2) 
27

>  <num_torsions>  (2) 
4

>  <pose>  (2) 
[5.815189683924785, -25.03378712404951, 42.8302487604605, 0.05993203851906437, -0.7950533477763931, -0.4710316907519891, -21.97990186219789, -5.872484754282473, -12.912753363552993, 1.303369311509725]

>  <energy>  (2) 
-637.7721328508882

>  <inter_energy>  (2) 
-657.2956479524963

>  <intra_energy>  (2) 
31.640044667014283

>  <rmsd>  (2) 
3.3531

>  <sdf_rank>  (2) 
0

$$$$

     RDKit          3D

 43 46  0  0  0  0  0  0  0  0999 V2000
    6.4219  -22.2820   41.9954 C   0  0  0  0  0  0  0  0  0  0  0  0
    8.9960  -21.4690   41.7279 C   0  0  0  0  0  0  0  0  0  0  0  0
    8.7554  -22.8208   41.9819 C   0  0  0  0  0  0  0  0  0  0  0  0
    3.3400  -23.1734   43.3548 C   0  0  0  0  0  0  0  0  0  0  0  0
    6.3166  -18.5977   42.2242 O   0  0  0  0  0  0  0  0  0  0  0  0
    6.6575  -19.4073   48.2467 C   0  0  0  0  0  0  0  0  0  0  0  0
    6.2940  -18.1233   48.5753 C   0  0  0  0  0  0  0  0  0  0  0  0
    6.4826  -18.9511   45.9108 C   0  0  0  0  0  0  0  0  0  0  0  0
    6.2780  -18.3927   43.5870 C   0  0  0  0  0  0  0  0  0  0  0  0
    6.7729  -19.8485   46.9685 C   0  0  0  0  0  0  0  0  0  0  0  0
    5.3480  -19.4567   40.2526 C   0  0  0  0  0  0  0  0  0  0  0  0
    5.7274  -19.7825   41.6816 C   0  0  1  0  0  0  0  0  0  0  0  0
    6.7225  -20.9270   41.7590 C   0  0  0  0  0  0  0  0  0  0  0  0
    7.4362  -23.2291   42.0927 C   0  0  0  0  0  0  0  0  0  0  0  0
    8.0044  -20.5598   41.6225 N   0  0  0  0  0  0  0  0  0  0  0  0
   10.2167  -21.0411   41.5188 O   0  0  0  0  0  0  0  0  0  0  0  0
    5.0774  -22.7028   42.2330 N   0  0  0  0  0  0  0  0  0  0  0  0
    4.1176  -22.9930   41.3167 C   0  0  0  0  0  0  0  0  0  0  0  0
    2.9865  -23.2980   42.0111 C   0  0  0  0  0  0  0  0  0  0  0  0
    4.6117  -22.8203   43.5086 N   0  0  0  0  0  0  0  0  0  0  0  0
    6.5713  -19.3199   44.5484 C   0  0  0  0  0  0  0  0  0  0  0  0
    6.0013  -17.2355   47.5789 C   0  0  0  0  0  0  0  0  0  0  0  0
    6.0871  -17.6224   46.2236 C   0  0  0  0  0  0  0  0  0  0  0  0
    5.7977  -16.6993   45.2505 N   0  0  0  0  0  0  0  0  0  0  0  0
    5.9039  -17.0830   43.9755 C   0  0  0  0  0  0  0  0  0  0  0  0
    5.7096  -16.1664   43.0140 N   0  0  0  0  0  0  0  0  0  0  0  0
    6.8938  -20.2815   49.2542 F   0  0  0  0  0  0  0  0  0  0  0  0
    9.5840  -23.5361   42.0902 H   0  0  0  0  0  0  0  0  0  0  0  0
    2.6461  -23.3474   44.1905 H   0  0  0  0  0  0  0  0  0  0  0  0
    6.2394  -17.8136   49.6294 H   0  0  0  0  0  0  0  0  0  0  0  0
    7.0856  -20.8818   46.7577 H   0  0  0  0  0  0  0  0  0  0  0  0
    4.5134  -18.7402   40.2491 H   0  0  0  0  0  0  0  0  0  0  0  0
    6.2125  -19.0153   39.7353 H   0  0  0  0  0  0  0  0  0  0  0  0
    5.0424  -20.3781   39.7353 H   0  0  0  0  0  0  0  0  0  0  0  0
    4.8355  -20.0991   42.2423 H   0  0  0  0  0  0  0  0  0  0  0  0
    7.1937  -24.2896   42.2556 H   0  0  0  0  0  0  0  0  0  0  0  0
    8.2349  -19.5735   41.4353 H   0  0  0  0  0  0  0  0  0  0  0  0
    4.2321  -22.9834   40.2227 H   0  0  0  0  0  0  0  0  0  0  0  0
    2.0059  -23.5813   41.6010 H   0  0  0  0  0  0  0  0  0  0  0  0
    6.8724  -20.3394   44.2656 H   0  0  0  0  0  0  0  0  0  0  0  0
    5.6961  -16.2102   47.8347 H   0  0  0  0  0  0  0  0  0  0  0  0
    5.4370  -15.2056   43.2659 H   0  0  0  0  0  0  0  0  0  0  0  0
    5.8330  -16.4240   42.0244 H   0  0  0  0  0  0  0  0  0  0  0  0
  1 13  2  0
  1 14  1  0
  1 17  1  0
  2  3  1  0
  2 15  1  0
  2 16  2  0
  3 14  2  0
  4 19  1  0
  4 20  2  0
  5  9  1  0
  5 12  1  0
  6  7  2  0
  6 10  1  0
  6 27  1  0
  7 22  1  0
  8 10  2  0
  8 21  1  0
  8 23  1  0
  9 21  2  0
  9 25  1  0
 12 11  1  0
 12 13  1  0
 13 15  1  0
 17 18  1  0
 17 20  1  0
 18 19  2  0
 22 23  2  0
 23 24  1  0
 24 25  2  0
 25 26  1  0
  3 28  1  0
  4 29  1  0
  7 30  1  0
 10 31  1  0
 11 32  1  0
 11 33  1  0
 11 34  1  0
 12 35  1  1
 14 36  1  0
 15 37  1  0
 18 38  1  0
 19 39  1  0
 21 40  1  0
 22 41  1  0
 26 42  1  0
 26 43  1  0
M  END
>  <filename_input>  (3) 
7JY3_VUD_docked.sdf

>  <pdb_id>  (3) 
7JY3_VUD

>  <pose_rank>  (3) 
2

>  <num_atoms_heavy>  (3) 
27

>  <num_torsions>  (3) 
4

>  <pose>  (3) 
[5.348006076177175, -19.45674570195727, 40.252625604028516, 0.5072804194999994, 1.4171985071067692, 2.2024901953102556, -6.099371535943397, 12.798313378624615, 12.382107714513479, 19.758498096284306]

>  <energy>  (3) 
-530.4100413190258

>  <inter_energy>  (3) 
-548.6016469349563

>  <intra_energy>  (3) 
15.220656884542771

>  <rmsd>  (3) 
5.21579

>  <sdf_rank>  (3) 
0

$$$$

     RDKit          3D

 43 46  0  0  0  0  0  0  0  0999 V2000
    6.2456  -18.7228   46.0713 C   0  0  0  0  0  0  0  0  0  0  0  0
    6.1907  -16.7176   44.2452 C   0  0  0  0  0  0  0  0  0  0  0  0
    6.2788  -16.3757   45.5961 C   0  0  0  0  0  0  0  0  0  0  0  0
    5.5503  -20.7652   48.8074 C   0  0  0  0  0  0  0  0  0  0  0  0
    4.7771  -20.4346   43.3085 O   0  0  0  0  0  0  0  0  0  0  0  0
    2.3156  -25.9479   44.0747 C   0  0  0  0  0  0  0  0  0  0  0  0
    2.0185  -26.1476   42.7478 C   0  0  0  0  0  0  0  0  0  0  0  0
    3.2544  -23.7993   43.6303 C   0  0  0  0  0  0  0  0  0  0  0  0
    4.1759  -21.6541   43.0802 C   0  0  0  0  0  0  0  0  0  0  0  0
    2.9037  -24.8203   44.5484 C   0  0  0  0  0  0  0  0  0  0  0  0
    7.1125  -20.7011   43.1133 C   0  0  0  0  0  0  0  0  0  0  0  0
    5.9848  -20.3862   44.0730 C   0  0  1  0  0  0  0  0  0  0  0  0
    6.1369  -19.0102   44.6974 C   0  0  0  0  0  0  0  0  0  0  0  0
    6.3305  -17.4081   46.5184 C   0  0  0  0  0  0  0  0  0  0  0  0
    6.1217  -17.9967   43.8204 N   0  0  0  0  0  0  0  0  0  0  0  0
    6.2343  -15.7885   43.3223 O   0  0  0  0  0  0  0  0  0  0  0  0
    6.1784  -19.7661   47.0450 N   0  0  0  0  0  0  0  0  0  0  0  0
    6.7677  -20.9893   47.0021 C   0  0  0  0  0  0  0  0  0  0  0  0
    6.3790  -21.6556   48.1244 C   0  0  0  0  0  0  0  0  0  0  0  0
    5.4241  -19.6066   48.1690 N   0  0  0  0  0  0  0  0  0  0  0  0
    3.8730  -22.5915   44.0286 C   0  0  0  0  0  0  0  0  0  0  0  0
    2.3496  -25.1851   41.8364 C   0  0  0  0  0  0  0  0  0  0  0  0
    2.9742  -23.9882   42.2498 C   0  0  0  0  0  0  0  0  0  0  0  0
    3.2801  -23.0394   41.3070 N   0  0  0  0  0  0  0  0  0  0  0  0
    3.8536  -21.9075   41.7244 C   0  0  0  0  0  0  0  0  0  0  0  0
    4.0776  -20.9355   40.8260 N   0  0  0  0  0  0  0  0  0  0  0  0
    2.0223  -26.9388   44.9507 F   0  0  0  0  0  0  0  0  0  0  0  0
    6.3062  -15.3238   45.9166 H   0  0  0  0  0  0  0  0  0  0  0  0
    5.0583  -20.9955   49.7639 H   0  0  0  0  0  0  0  0  0  0  0  0
    1.5193  -27.0725   42.4231 H   0  0  0  0  0  0  0  0  0  0  0  0
    3.1040  -24.7012   45.6234 H   0  0  0  0  0  0  0  0  0  0  0  0
    8.0188  -20.9543   43.6829 H   0  0  0  0  0  0  0  0  0  0  0  0
    6.8274  -21.5540   42.4798 H   0  0  0  0  0  0  0  0  0  0  0  0
    7.3106  -19.8240   42.4798 H   0  0  0  0  0  0  0  0  0  0  0  0
    5.9841  -21.1115   44.9000 H   0  0  0  0  0  0  0  0  0  0  0  0
    6.4373  -17.1909   47.5914 H   0  0  0  0  0  0  0  0  0  0  0  0
    6.0567  -18.1961   42.8120 H   0  0  0  0  0  0  0  0  0  0  0  0
    7.4319  -21.3690   46.2118 H   0  0  0  0  0  0  0  0  0  0  0  0
    6.6582  -22.6756   48.4270 H   0  0  0  0  0  0  0  0  0  0  0  0
    4.1075  -22.4085   45.0876 H   0  0  0  0  0  0  0  0  0  0  0  0
    2.1275  -25.3441   40.7708 H   0  0  0  0  0  0  0  0  0  0  0  0
    3.8533  -21.0906   39.8327 H   0  0  0  0  0  0  0  0  0  0  0  0
    4.4739  -20.0347   41.1298 H   0  0  0  0  0  0  0  0  0  0  0  0
  1 13  2  0
  1 14  1  0
  1 17  1  0
  2  3  1  0
  2 15  1  0
  2 16  2  0
  3 14  2  0
  4 19  1  0
  4 20  2  0
  5  9  1  0
  5 12  1  0
  6  7  2  0
  6 10  1  0
  6 27  1  0
  7 22  1  0
  8 10  2  0
  8 21  1  0
  8 23  1  0
  9 21  2  0
  9 25  1  0
 12 11  1  0
 12 13  1  0
 13 15  1  0
 17 18  1  0
 17 20  1  0
 18 19  2  0
 22 23  2  0
 23 24  1  0
 24 25  2  0
 25 26  1  0
  3 28  1  0
  4 29  1  0
  7 30  1  0
 10 31  1  0
 11 32  1  0
 11 33  1  0
 11 34  1  0
 12 35  1  1
 14 36  1  0
 15 37  1  0
 18 38  1  0
 19 39  1  0
 21 40  1  0
 22 41  1  0
 26 42  1  0
 26 43  1  0
M  END
>  <filename_input>  (4) 
7JY3_VUD_docked.sdf

>  <pdb_id>  (4) 
7JY3_VUD

>  <pose_rank>  (4) 
3

>  <num_atoms_heavy>  (4) 
27

>  <num_torsions>  (4) 
4

>  <pose>  (4) 
[7.11245049950035, -20.701136721544213, 43.11329819183176, -2.4541335580178947, 2.329369079865436, 1.592472883927603, 6.0510856646037645, -0.4851253288318612, -1.4320406365809248, -5.286767420397631]

>  <energy>  (4) 
-556.9505267910729

>  <inter_energy>  (4) 
-564.1977633661561

>  <intra_energy>  (4) 
15.167857460803436

>  <rmsd>  (4) 
7.21963

>  <sdf_rank>  (4) 
0

$$$$

     RDKit          3D

 43 46  0  0  0  0  0  0  0  0999 V2000
    6.9493  -19.2359   44.9248 C   0  0  0  0  0  0  0  0  0  0  0  0
    7.7657  -20.3421   42.5863 C   0  0  0  0  0  0  0  0  0  0  0  0
    8.1004  -19.0098   42.8368 C   0  0  0  0  0  0  0  0  0  0  0  0
    6.5028  -17.6944   48.0176 C   0  0  0  0  0  0  0  0  0  0  0  0
    5.7397  -22.8004   44.8348 O   0  0  0  0  0  0  0  0  0  0  0  0
    0.1996  -24.3208   42.8252 C   0  0  0  0  0  0  0  0  0  0  0  0
    0.0396  -25.3921   43.6711 C   0  0  0  0  0  0  0  0  0  0  0  0
    2.3630  -23.8362   43.7084 C   0  0  0  0  0  0  0  0  0  0  0  0
    4.5262  -23.4317   44.6628 C   0  0  0  0  0  0  0  0  0  0  0  0
    1.3138  -23.5464   42.8009 C   0  0  0  0  0  0  0  0  0  0  0  0
    6.3438  -21.7079   46.8360 C   0  0  0  0  0  0  0  0  0  0  0  0
    5.7716  -21.5090   45.4485 C   0  0  1  0  0  0  0  0  0  0  0  0
    6.6219  -20.5690   44.6121 C   0  0  0  0  0  0  0  0  0  0  0  0
    7.6992  -18.4624   44.0446 C   0  0  0  0  0  0  0  0  0  0  0  0
    7.0486  -21.0883   43.4524 N   0  0  0  0  0  0  0  0  0  0  0  0
    8.1988  -20.9420   41.5050 O   0  0  0  0  0  0  0  0  0  0  0  0
    6.4430  -18.6162   46.1082 N   0  0  0  0  0  0  0  0  0  0  0  0
    5.1620  -18.2558   46.3810 C   0  0  0  0  0  0  0  0  0  0  0  0
    5.1709  -17.6576   47.6045 C   0  0  0  0  0  0  0  0  0  0  0  0
    7.2899  -18.2823   47.1227 N   0  0  0  0  0  0  0  0  0  0  0  0
    3.5597  -23.0843   43.7599 C   0  0  0  0  0  0  0  0  0  0  0  0
    1.0300  -25.6939   44.5625 C   0  0  0  0  0  0  0  0  0  0  0  0
    2.2154  -24.9279   44.6064 C   0  0  0  0  0  0  0  0  0  0  0  0
    3.1931  -25.2692   45.5065 N   0  0  0  0  0  0  0  0  0  0  0  0
    4.3132  -24.5416   45.5166 C   0  0  0  0  0  0  0  0  0  0  0  0
    5.3125  -24.9181   46.3301 N   0  0  0  0  0  0  0  0  0  0  0  0
   -0.8180  -24.0127   41.9858 F   0  0  0  0  0  0  0  0  0  0  0  0
    8.6628  -18.4159   42.1012 H   0  0  0  0  0  0  0  0  0  0  0  0
    6.8603  -17.2841   48.9736 H   0  0  0  0  0  0  0  0  0  0  0  0
   -0.8763  -26.0001   43.6309 H   0  0  0  0  0  0  0  0  0  0  0  0
    1.4008  -22.7106   42.0911 H   0  0  0  0  0  0  0  0  0  0  0  0
    5.5846  -21.4440   47.5870 H   0  0  0  0  0  0  0  0  0  0  0  0
    6.6363  -22.7605   46.9645 H   0  0  0  0  0  0  0  0  0  0  0  0
    7.2262  -21.0638   46.9645 H   0  0  0  0  0  0  0  0  0  0  0  0
    4.7719  -21.0555   45.5179 H   0  0  0  0  0  0  0  0  0  0  0  0
    7.9703  -17.4285   44.3044 H   0  0  0  0  0  0  0  0  0  0  0  0
    6.8268  -22.0669   43.2198 H   0  0  0  0  0  0  0  0  0  0  0  0
    4.2850  -18.4165   45.7368 H   0  0  0  0  0  0  0  0  0  0  0  0
    4.3131  -17.2365   48.1493 H   0  0  0  0  0  0  0  0  0  0  0  0
    3.7111  -22.2310   43.0825 H   0  0  0  0  0  0  0  0  0  0  0  0
    0.9029  -26.5413   45.2522 H   0  0  0  0  0  0  0  0  0  0  0  0
    5.1870  -25.7215   46.9623 H   0  0  0  0  0  0  0  0  0  0  0  0
    6.2047  -24.4035   46.3221 H   0  0  0  0  0  0  0  0  0  0  0  0
  1 13  2  0
  1 14  1  0
  1 17  1  0
  2  3  1  0
  2 15  1  0
  2 16  2  0
  3 14  2  0
  4 19  1  0
  4 20  2  0
  5  9  1  0
  5 12  1  0
  6  7  2  0
  6 10  1  0
  6 27  1  0
  7 22  1  0
  8 10  2  0
  8 21  1  0
  8 23  1  0
  9 21  2  0
  9 25  1  0
 12 11  1  0
 12 13  1  0
 13 15  1  0
 17 18  1  0
 17 20  1  0
 18 19  2  0
 22 23  2  0
 23 24  1  0
 24 25  2  0
 25 26  1  0
  3 28  1  0
  4 29  1  0
  7 30  1  0
 10 31  1  0
 11 32  1  0
 11 33  1  0
 11 34  1  0
 12 35  1  1
 14 36  1  0
 15 37  1  0
 18 38  1  0
 19 39  1  0
 21 40  1  0
 22 41  1  0
 26 42  1  0
 26 43  1  0
M  END
>  <filename_input>  (5) 
7JY3_VUD_docked.sdf

>  <pdb_id>  (5) 
7JY3_VUD

>  <pose_rank>  (5) 
4

>  <num_atoms_heavy>  (5) 
27

>  <num_torsions>  (5) 
4

>  <pose>  (5) 
[6.343789645829302, -21.707940532129307, 46.835967564431876, -1.1667591722689288, 2.8076348447013997, -1.596502724156157, 0.8535573753129833, -2.441889536440203, -1.0082477385173476, 1.3694797489953223]

>  <energy>  (5) 
-608.8715168920052

>  <inter_energy>  (5) 
-612.2308787907028

>  <intra_energy>  (5) 
16.525549100459013

>  <rmsd>  (5) 
6.50679

>  <sdf_rank>  (5) 
0

$$$$

     RDKit          3D

 43 46  0  0  0  0  0  0  0  0999 V2000
    5.2005  -22.9189   42.3265 C   0  0  0  0  0  0  0  0  0  0  0  0
    4.4715  -24.8400   44.0975 C   0  0  0  0  0  0  0  0  0  0  0  0
    3.5386  -24.4402   43.1385 C   0  0  0  0  0  0  0  0  0  0  0  0
    6.2985  -20.8939   39.7122 C   0  0  0  0  0  0  0  0  0  0  0  0
    7.6335  -22.5096   44.9829 O   0  0  0  0  0  0  0  0  0  0  0  0
    6.0823  -16.6496   45.5271 C   0  0  0  0  0  0  0  0  0  0  0  0
    5.6130  -16.7542   46.8146 C   0  0  0  0  0  0  0  0  0  0  0  0
    6.6442  -18.9677   45.4517 C   0  0  0  0  0  0  0  0  0  0  0  0
    7.1733  -21.3072   45.4761 C   0  0  0  0  0  0  0  0  0  0  0  0
    6.5798  -17.6986   44.8244 C   0  0  0  0  0  0  0  0  0  0  0  0
    8.5670  -23.7915   43.2369 C   0  0  0  0  0  0  0  0  0  0  0  0
    7.4850  -22.7929   43.5890 C   0  0  1  0  0  0  0  0  0  0  0  0
    6.0946  -23.3448   43.3272 C   0  0  0  0  0  0  0  0  0  0  0  0
    3.9298  -23.4759   42.2241 C   0  0  0  0  0  0  0  0  0  0  0  0
    5.7065  -24.3026   44.1809 N   0  0  0  0  0  0  0  0  0  0  0  0
    4.1922  -25.8145   44.9276 O   0  0  0  0  0  0  0  0  0  0  0  0
    5.5404  -21.8419   41.4515 N   0  0  0  0  0  0  0  0  0  0  0  0
    5.2634  -20.5209   41.6045 C   0  0  0  0  0  0  0  0  0  0  0  0
    5.7388  -19.8858   40.4975 C   0  0  0  0  0  0  0  0  0  0  0  0
    6.1944  -22.0900   40.2816 N   0  0  0  0  0  0  0  0  0  0  0  0
    7.1492  -20.1178   44.8018 C   0  0  0  0  0  0  0  0  0  0  0  0
    5.6671  -17.9626   47.4498 C   0  0  0  0  0  0  0  0  0  0  0  0
    6.1819  -19.0994   46.7891 C   0  0  0  0  0  0  0  0  0  0  0  0
    6.2083  -20.2987   47.4552 N   0  0  0  0  0  0  0  0  0  0  0  0
    6.6823  -21.3639   46.8034 C   0  0  0  0  0  0  0  0  0  0  0  0
    6.6322  -22.5597   47.4116 N   0  0  0  0  0  0  0  0  0  0  0  0
    6.0635  -15.4299   44.9379 F   0  0  0  0  0  0  0  0  0  0  0  0
    2.5289  -24.8757   43.1101 H   0  0  0  0  0  0  0  0  0  0  0  0
    6.7713  -20.7188   38.7345 H   0  0  0  0  0  0  0  0  0  0  0  0
    5.1983  -15.8743   47.3282 H   0  0  0  0  0  0  0  0  0  0  0  0
    6.9261  -17.5664   43.7887 H   0  0  0  0  0  0  0  0  0  0  0  0
    9.0063  -24.1969   44.1603 H   0  0  0  0  0  0  0  0  0  0  0  0
    8.1313  -24.6116   42.6473 H   0  0  0  0  0  0  0  0  0  0  0  0
    9.3495  -23.2915   42.6473 H   0  0  0  0  0  0  0  0  0  0  0  0
    7.5909  -21.8919   42.9668 H   0  0  0  0  0  0  0  0  0  0  0  0
    3.2439  -23.1544   41.4265 H   0  0  0  0  0  0  0  0  0  0  0  0
    6.3576  -24.6317   44.9080 H   0  0  0  0  0  0  0  0  0  0  0  0
    4.7527  -20.0533   42.4592 H   0  0  0  0  0  0  0  0  0  0  0  0
    5.6918  -18.8103   40.2715 H   0  0  0  0  0  0  0  0  0  0  0  0
    7.5179  -20.0563   43.7672 H   0  0  0  0  0  0  0  0  0  0  0  0
    5.3063  -18.0507   48.4852 H   0  0  0  0  0  0  0  0  0  0  0  0
    6.2799  -22.6323   48.3767 H   0  0  0  0  0  0  0  0  0  0  0  0
    6.9462  -23.4046   46.9130 H   0  0  0  0  0  0  0  0  0  0  0  0
  1 13  2  0
  1 14  1  0
  1 17  1  0
  2  3  1  0
  2 15  1  0
  2 16  2  0
  3 14  2  0
  4 19  1  0
  4 20  2  0
  5  9  1  0
  5 12  1  0
  6  7  2  0
  6 10  1  0
  6 27  1  0
  7 22  1  0
  8 10  2  0
  8 21  1  0
  8 23  1  0
  9 21  2  0
  9 25  1  0
 12 11  1  0
 12 13  1  0
 13 15  1  0
 17 18  1  0
 17 20  1  0
 18 19  2  0
 22 23  2  0
 23 24  1  0
 24 25  2  0
 25 26  1  0
  3 28  1  0
  4 29  1  0
  7 30  1  0
 10 31  1  0
 11 32  1  0
 11 33  1  0
 11 34  1  0
 12 35  1  6
 14 36  1  0
 15 37  1  0
 18 38  1  0
 19 39  1  0
 21 40  1  0
 22 41  1  0
 26 42  1  0
 26 43  1  0
M  END
>  <filename_input>  (6) 
7JY3_VUD_docked.sdf

>  <pdb_id>  (6) 
7JY3_VUD

>  <pose_rank>  (6) 
5

>  <num_atoms_heavy>  (6) 
27

>  <num_torsions>  (6) 
4

>  <pose>  (6) 
[8.566974302423606, -23.79147162599972, 43.23689877212267, -0.1490042135153315, 0.0003168410020547253, 0.5485003617327578, -0.059986590564217006, 3.4386947432038864, 6.107354868082364, -0.4557075460599417]

>  <energy>  (6) 
-608.7893892580955

>  <inter_energy>  (6) 
-599.407780314013

>  <intra_energy>  (6) 
1.1527711295967453

>  <rmsd>  (6) 
2.20413

>  <sdf_rank>  (6) 
0

$$$$

     RDKit          3D

 43 46  0  0  0  0  0  0  0  0999 V2000
    6.3641  -18.6569   47.0775 C   0  0  0  0  0  0  0  0  0  0  0  0
    6.3109  -16.3101   45.7180 C   0  0  0  0  0  0  0  0  0  0  0  0
    5.4817  -16.4438   46.8334 C   0  0  0  0  0  0  0  0  0  0  0  0
    6.4303  -21.2927   49.3554 C   0  0  0  0  0  0  0  0  0  0  0  0
    8.3468  -19.1384   43.9412 O   0  0  0  0  0  0  0  0  0  0  0  0
    4.3518  -22.5169   40.8318 C   0  0  0  0  0  0  0  0  0  0  0  0
    4.6381  -21.9677   39.6050 C   0  0  0  0  0  0  0  0  0  0  0  0
    5.9567  -21.1289   41.9241 C   0  0  0  0  0  0  0  0  0  0  0  0
    7.5934  -19.6906   42.9272 C   0  0  0  0  0  0  0  0  0  0  0  0
    4.9579  -22.1325   41.9836 C   0  0  0  0  0  0  0  0  0  0  0  0
    9.4121  -19.6001   45.9943 C   0  0  0  0  0  0  0  0  0  0  0  0
    8.0726  -19.5112   45.2944 C   0  0  1  0  0  0  0  0  0  0  0  0
    7.1645  -18.4753   45.9335 C   0  0  0  0  0  0  0  0  0  0  0  0
    5.5347  -17.6376   47.5343 C   0  0  0  0  0  0  0  0  0  0  0  0
    7.1217  -17.3003   45.2900 N   0  0  0  0  0  0  0  0  0  0  0  0
    6.3746  -15.1716   45.0724 O   0  0  0  0  0  0  0  0  0  0  0  0
    6.3135  -19.9203   47.7424 N   0  0  0  0  0  0  0  0  0  0  0  0
    5.9397  -21.1211   47.2291 C   0  0  0  0  0  0  0  0  0  0  0  0
    6.0036  -22.0240   48.2467 C   0  0  0  0  0  0  0  0  0  0  0  0
    6.6323  -20.0119   49.0645 N   0  0  0  0  0  0  0  0  0  0  0  0
    6.6453  -20.6658   43.0692 C   0  0  0  0  0  0  0  0  0  0  0  0
    5.6006  -21.0024   39.5127 C   0  0  0  0  0  0  0  0  0  0  0  0
    6.2845  -20.5570   40.6650 C   0  0  0  0  0  0  0  0  0  0  0  0
    7.2358  -19.5769   40.5346 N   0  0  0  0  0  0  0  0  0  0  0  0
    7.8561  -19.1585   41.6411 C   0  0  0  0  0  0  0  0  0  0  0  0
    8.7247  -18.1399   41.5405 N   0  0  0  0  0  0  0  0  0  0  0  0
    3.4291  -23.5072   40.8883 F   0  0  0  0  0  0  0  0  0  0  0  0
    4.8100  -15.6301   47.1445 H   0  0  0  0  0  0  0  0  0  0  0  0
    6.5821  -21.7262   50.3550 H   0  0  0  0  0  0  0  0  0  0  0  0
    4.0980  -22.3018   38.7068 H   0  0  0  0  0  0  0  0  0  0  0  0
    4.6796  -22.5908   42.9441 H   0  0  0  0  0  0  0  0  0  0  0  0
    9.2581  -19.5899   47.0834 H   0  0  0  0  0  0  0  0  0  0  0  0
    9.9162  -20.5337   45.7040 H   0  0  0  0  0  0  0  0  0  0  0  0
   10.0351  -18.7413   45.7040 H   0  0  0  0  0  0  0  0  0  0  0  0
    7.5500  -20.4767   45.3631 H   0  0  0  0  0  0  0  0  0  0  0  0
    4.9282  -17.7780   48.4412 H   0  0  0  0  0  0  0  0  0  0  0  0
    7.7137  -17.1517   44.4603 H   0  0  0  0  0  0  0  0  0  0  0  0
    5.6421  -21.3253   46.1900 H   0  0  0  0  0  0  0  0  0  0  0  0
    5.7694  -23.0979   48.2037 H   0  0  0  0  0  0  0  0  0  0  0  0
    6.4212  -21.0846   44.0614 H   0  0  0  0  0  0  0  0  0  0  0  0
    5.8449  -20.5683   38.5320 H   0  0  0  0  0  0  0  0  0  0  0  0
    8.9359  -17.7323   40.6184 H   0  0  0  0  0  0  0  0  0  0  0  0
    9.1801  -17.7660   42.3853 H   0  0  0  0  0  0  0  0  0  0  0  0
  1 13  2  0
  1 14  1  0
  1 17  1  0
  2  3  1  0
  2 15  1  0
  2 16  2  0
  3 14  2  0
  4 19  1  0
  4 20  2  0
  5  9  1  0
  5 12  1  0
  6  7  2  0
  6 10  1  0
  6 27  1  0
  7 22  1  0
  8 10  2  0
  8 21  1  0
  8 23  1  0
  9 21  2  0
  9 25  1  0
 12 11  1  0
 12 13  1  0
 13 15  1  0
 17 18  1  0
 17 20  1  0
 18 19  2  0
 22 23  2  0
 23 24  1  0
 24 25  2  0
 25 26  1  0
  3 28  1  0
  4 29  1  0
  7 30  1  0
 10 31  1  0
 11 32  1  0
 11 33  1  0
 11 34  1  0
 12 35  1  6
 14 36  1  0
 15 37  1  0
 18 38  1  0
 19 39  1  0
 21 40  1  0
 22 41  1  0
 26 42  1  0
 26 43  1  0
M  END
>  <filename_input>  (7) 
7JY3_VUD_docked.sdf

>  <pdb_id>  (7) 
7JY3_VUD

>  <pose_rank>  (7) 
6

>  <num_atoms_heavy>  (7) 
27

>  <num_torsions>  (7) 
4

>  <pose>  (7) 
[9.412059455424126, -19.600102987671587, 45.99425765414713, 2.9529873763891232, -1.929821955940126, -0.22455738460431393, 0.44218993692114317, -2.25576840783458, -6.681725555457753, 0.015433012524875962]

>  <energy>  (7) 
-608.3477425456999

>  <inter_energy>  (7) 
-583.1368624887358

>  <intra_energy>  (7) 
11.565957775758825

>  <rmsd>  (7) 
7.53281

>  <sdf_rank>  (7) 
0

$$$$

     RDKit          3D

 43 46  0  0  0  0  0  0  0  0999 V2000
    5.8708  -22.9525   41.9915 C   0  0  0  0  0  0  0  0  0  0  0  0
    5.6952  -24.6803   44.0753 C   0  0  0  0  0  0  0  0  0  0  0  0
    6.7417  -24.8490   43.1665 C   0  0  0  0  0  0  0  0  0  0  0  0
    5.3785  -21.3775   38.9226 C   0  0  0  0  0  0  0  0  0  0  0  0
    4.1983  -20.5248   42.6997 O   0  0  0  0  0  0  0  0  0  0  0  0
    5.6120  -18.8919   48.3898 C   0  0  0  0  0  0  0  0  0  0  0  0
    6.1630  -17.6800   48.0485 C   0  0  0  0  0  0  0  0  0  0  0  0
    5.1130  -19.4039   46.1130 C   0  0  0  0  0  0  0  0  0  0  0  0
    4.6536  -19.8245   43.7966 C   0  0  0  0  0  0  0  0  0  0  0  0
    5.1021  -19.7639   47.4836 C   0  0  0  0  0  0  0  0  0  0  0  0
    2.7454  -22.1031   41.7193 C   0  0  0  0  0  0  0  0  0  0  0  0
    3.6785  -21.8445   42.8830 C   0  0  1  0  0  0  0  0  0  0  0  0
    4.8237  -22.8409   42.9261 C   0  0  0  0  0  0  0  0  0  0  0  0
    6.8358  -23.9463   42.1198 C   0  0  0  0  0  0  0  0  0  0  0  0
    4.7710  -23.7050   43.9494 N   0  0  0  0  0  0  0  0  0  0  0  0
    5.6101  -25.4435   45.1370 O   0  0  0  0  0  0  0  0  0  0  0  0
    5.9166  -22.1087   40.8396 N   0  0  0  0  0  0  0  0  0  0  0  0
    6.6657  -20.9915   40.6505 C   0  0  0  0  0  0  0  0  0  0  0  0
    6.3383  -20.4981   39.4241 C   0  0  0  0  0  0  0  0  0  0  0  0
    5.1161  -22.3690   39.7675 N   0  0  0  0  0  0  0  0  0  0  0  0
    4.6018  -20.2444   45.0969 C   0  0  0  0  0  0  0  0  0  0  0  0
    6.1830  -17.3006   46.7361 C   0  0  0  0  0  0  0  0  0  0  0  0
    5.6609  -18.1483   45.7348 C   0  0  0  0  0  0  0  0  0  0  0  0
    5.7102  -17.7383   44.4263 N   0  0  0  0  0  0  0  0  0  0  0  0
    5.2274  -18.5652   43.4950 C   0  0  0  0  0  0  0  0  0  0  0  0
    5.3492  -18.2153   42.2047 N   0  0  0  0  0  0  0  0  0  0  0  0
    5.5593  -19.2222   49.7026 F   0  0  0  0  0  0  0  0  0  0  0  0
    7.4658  -25.6695   43.2777 H   0  0  0  0  0  0  0  0  0  0  0  0
    4.8949  -21.2634   37.9413 H   0  0  0  0  0  0  0  0  0  0  0  0
    6.5834  -17.0225   48.8237 H   0  0  0  0  0  0  0  0  0  0  0  0
    4.6886  -20.7308   47.8064 H   0  0  0  0  0  0  0  0  0  0  0  0
    1.7512  -22.3787   42.1008 H   0  0  0  0  0  0  0  0  0  0  0  0
    2.6636  -21.1937   41.1057 H   0  0  0  0  0  0  0  0  0  0  0  0
    3.1434  -22.9248   41.1057 H   0  0  0  0  0  0  0  0  0  0  0  0
    3.1313  -21.9490   43.8315 H   0  0  0  0  0  0  0  0  0  0  0  0
    7.6637  -24.0146   41.3987 H   0  0  0  0  0  0  0  0  0  0  0  0
    4.0174  -23.6238   44.6468 H   0  0  0  0  0  0  0  0  0  0  0  0
    7.3971  -20.5664   41.3536 H   0  0  0  0  0  0  0  0  0  0  0  0
    6.7432  -19.6000   38.9346 H   0  0  0  0  0  0  0  0  0  0  0  0
    4.1680  -21.2232   45.3494 H   0  0  0  0  0  0  0  0  0  0  0  0
    6.6097  -16.3259   46.4570 H   0  0  0  0  0  0  0  0  0  0  0  0
    5.7627  -17.3057   41.9545 H   0  0  0  0  0  0  0  0  0  0  0  0
    5.0292  -18.8565   41.4648 H   0  0  0  0  0  0  0  0  0  0  0  0
  1 13  2  0
  1 14  1  0
  1 17  1  0
  2  3  1  0
  2 15  1  0
  2 16  2  0
  3 14  2  0
  4 19  1  0
  4 20  2  0
  5  9  1  0
  5 12  1  0
  6  7  2  0
  6 10  1  0
  6 27  1  0
  7 22  1  0
  8 10  2  0
  8 21  1  0
  8 23  1  0
  9 21  2  0
  9 25  1  0
 12 11  1  0
 12 13  1  0
 13 15  1  0
 17 18  1  0
 17 20  1  0
 18 19  2  0
 22 23  2  0
 23 24  1  0
 24 25  2  0
 25 26  1  0
  3 28  1  0
  4 29  1  0
  7 30  1  0
 10 31  1  0
 11 32  1  0
 11 33  1  0
 11 34  1  0
 12 35  1  1
 14 36  1  0
 15 37  1  0
 18 38  1  0
 19 39  1  0
 21 40  1  0
 22 41  1  0
 26 42  1  0
 26 43  1  0
M  END
>  <filename_input>  (8) 
7JY3_VUD_docked.sdf

>  <pdb_id>  (8) 
7JY3_VUD

>  <pose_rank>  (8) 
7

>  <num_atoms_heavy>  (8) 
27

>  <num_torsions>  (8) 
4

>  <pose>  (8) 
[2.7454067321431688, -22.10308722830396, 41.7192703243411, 0.7866054808474373, 2.069733836721145, 1.9051282339653912, 9.332794709058156, -12.04637607051904, -0.16190625915986867, 6.332808174580127]

>  <energy>  (8) 
-602.4557832693856

>  <inter_energy>  (8) 
-621.0310027371561

>  <intra_energy>  (8) 
36.85586932094921

>  <rmsd>  (8) 
3.67857

>  <sdf_rank>  (8) 
0

$$$$

     RDKit          3D

 43 46  0  0  0  0  0  0  0  0999 V2000
    2.5996  -25.2174   44.2674 C   0  0  0  0  0  0  0  0  0  0  0  0
    1.0402  -23.6161   42.7304 C   0  0  0  0  0  0  0  0  0  0  0  0
    0.4500  -24.7302   43.3305 C   0  0  0  0  0  0  0  0  0  0  0  0
    4.7985  -27.7108   45.3108 C   0  0  0  0  0  0  0  0  0  0  0  0
    5.1179  -23.7587   44.9689 O   0  0  0  0  0  0  0  0  0  0  0  0
    5.4588  -17.9202   46.6536 C   0  0  0  0  0  0  0  0  0  0  0  0
    6.1128  -18.1606   47.8382 C   0  0  0  0  0  0  0  0  0  0  0  0
    5.3963  -20.2447   46.1167 C   0  0  0  0  0  0  0  0  0  0  0  0
    5.3847  -22.6011   45.6685 C   0  0  0  0  0  0  0  0  0  0  0  0
    5.0822  -18.9009   45.7944 C   0  0  0  0  0  0  0  0  0  0  0  0
    5.4688  -24.5651   42.7803 C   0  0  0  0  0  0  0  0  0  0  0  0
    4.6047  -23.6647   43.6373 C   0  0  1  0  0  0  0  0  0  0  0  0
    3.1476  -24.0925   43.6222 C   0  0  0  0  0  0  0  0  0  0  0  0
    1.2501  -25.5274   44.1328 C   0  0  0  0  0  0  0  0  0  0  0  0
    2.3478  -23.3165   42.8773 N   0  0  0  0  0  0  0  0  0  0  0  0
    0.3134  -22.7731   42.0390 O   0  0  0  0  0  0  0  0  0  0  0  0
    3.4317  -26.1190   44.9993 N   0  0  0  0  0  0  0  0  0  0  0  0
    3.7009  -26.1150   46.3307 C   0  0  0  0  0  0  0  0  0  0  0  0
    4.5806  -27.1291   46.5599 C   0  0  0  0  0  0  0  0  0  0  0  0
    4.1003  -27.1141   44.3505 N   0  0  0  0  0  0  0  0  0  0  0  0
    5.0483  -21.3329   45.2831 C   0  0  0  0  0  0  0  0  0  0  0  0
    6.4358  -19.4447   48.1750 C   0  0  0  0  0  0  0  0  0  0  0  0
    6.0880  -20.5192   47.3275 C   0  0  0  0  0  0  0  0  0  0  0  0
    6.4181  -21.7962   47.7055 N   0  0  0  0  0  0  0  0  0  0  0  0
    6.0622  -22.7979   46.8967 C   0  0  0  0  0  0  0  0  0  0  0  0
    6.3004  -24.0572   47.2960 N   0  0  0  0  0  0  0  0  0  0  0  0
    5.1947  -16.6342   46.3197 F   0  0  0  0  0  0  0  0  0  0  0  0
   -0.6125  -24.9665   43.1719 H   0  0  0  0  0  0  0  0  0  0  0  0
    5.4706  -28.5648   45.1405 H   0  0  0  0  0  0  0  0  0  0  0  0
    6.3733  -17.3279   48.5081 H   0  0  0  0  0  0  0  0  0  0  0  0
    4.5438  -18.6576   44.8665 H   0  0  0  0  0  0  0  0  0  0  0  0
    6.0847  -25.2067   43.4276 H   0  0  0  0  0  0  0  0  0  0  0  0
    4.8269  -25.1933   42.1452 H   0  0  0  0  0  0  0  0  0  0  0  0
    6.1229  -23.9494   42.1452 H   0  0  0  0  0  0  0  0  0  0  0  0
    4.6372  -22.6358   43.2496 H   0  0  0  0  0  0  0  0  0  0  0  0
    0.8234  -26.3952   44.6571 H   0  0  0  0  0  0  0  0  0  0  0  0
    2.7352  -22.4831   42.4123 H   0  0  0  0  0  0  0  0  0  0  0  0
    3.2874  -25.4246   47.0806 H   0  0  0  0  0  0  0  0  0  0  0  0
    5.0236  -27.4255   47.5222 H   0  0  0  0  0  0  0  0  0  0  0  0
    4.5140  -21.1614   44.3370 H   0  0  0  0  0  0  0  0  0  0  0  0
    6.9716  -19.6433   49.1149 H   0  0  0  0  0  0  0  0  0  0  0  0
    6.7911  -24.2316   48.1847 H   0  0  0  0  0  0  0  0  0  0  0  0
    5.9925  -24.8491   46.7138 H   0  0  0  0  0  0  0  0  0  0  0  0
  1 13  2  0
  1 14  1  0
  1 17  1  0
  2  3  1  0
  2 15  1  0
  2 16  2  0
  3 14  2  0
  4 19  1  0
  4 20  2  0
  5  9  1  0
  5 12  1  0
  6  7  2  0
  6 10  1  0
  6 27  1  0
  7 22  1  0
  8 10  2  0
  8 21  1  0
  8 23  1  0
  9 21  2  0
  9 25  1  0
 12 11  1  0
 12 13  1  0
 13 15  1  0
 17 18  1  0
 17 20  1  0
 18 19  2  0
 22 23  2  0
 23 24  1  0
 24 25  2  0
 25 26  1  0
  3 28  1  0
  4 29  1  0
  7 30  1  0
 10 31  1  0
 11 32  1  0
 11 33  1  0
 11 34  1  0
 12 35  1  6
 14 36  1  0
 15 37  1  0
 18 38  1  0
 19 39  1  0
 21 40  1  0
 22 41  1  0
 26 42  1  0
 26 43  1  0
M  END
>  <filename_input>  (9) 
7JY3_VUD_docked.sdf

>  <pdb_id>  (9) 
7JY3_VUD

>  <pose_rank>  (9) 
8

>  <num_atoms_heavy>  (9) 
27

>  <num_torsions>  (9) 
4

>  <pose>  (9) 
[5.468837599236501, -24.56505049000925, 42.78027190224991, -1.785111653019406, -1.8984836148522033, -5.094778130116282, -3.1312605534694757, 0.41911980963686557, 5.671074091770794, 6.549921137017821]

>  <energy>  (9) 
-599.3846547101575

>  <inter_energy>  (9) 
-621.2921478538119

>  <intra_energy>  (9) 
30.070431685532395

>  <rmsd>  (9) 
3.5896

>  <sdf_rank>  (9) 
0

$$$$

     RDKit          3D

 43 46  0  0  0  0  0  0  0  0999 V2000
    6.3968  -18.6705   43.1061 C   0  0  0  0  0  0  0  0  0  0  0  0
    6.1566  -17.0009   45.2306 C   0  0  0  0  0  0  0  0  0  0  0  0
    6.5372  -16.4544   44.0034 C   0  0  0  0  0  0  0  0  0  0  0  0
    7.6221  -21.0062   40.8293 C   0  0  0  0  0  0  0  0  0  0  0  0
    5.7528  -20.7684   46.1537 O   0  0  0  0  0  0  0  0  0  0  0  0
   10.5138  -24.3575   47.3761 C   0  0  0  0  0  0  0  0  0  0  0  0
   10.0617  -24.7647   48.6084 C   0  0  0  0  0  0  0  0  0  0  0  0
    8.5899  -22.9894   47.0264 C   0  0  0  0  0  0  0  0  0  0  0  0
    6.6196  -21.6455   46.7702 C   0  0  0  0  0  0  0  0  0  0  0  0
    9.8389  -23.4893   46.5808 C   0  0  0  0  0  0  0  0  0  0  0  0
    4.4728  -21.1334   44.2065 C   0  0  0  0  0  0  0  0  0  0  0  0
    5.7998  -20.6278   44.7312 C   0  0  1  0  0  0  0  0  0  0  0  0
    6.0360  -19.1714   44.3715 C   0  0  0  0  0  0  0  0  0  0  0  0
    6.6333  -17.3123   42.9198 C   0  0  0  0  0  0  0  0  0  0  0  0
    5.9169  -18.3183   45.3985 N   0  0  0  0  0  0  0  0  0  0  0  0
    5.9566  -16.2256   46.2677 O   0  0  0  0  0  0  0  0  0  0  0  0
    6.6192  -19.5538   42.0055 N   0  0  0  0  0  0  0  0  0  0  0  0
    5.7824  -19.8287   40.9715 C   0  0  0  0  0  0  0  0  0  0  0  0
    6.4019  -20.7631   40.1983 C   0  0  0  0  0  0  0  0  0  0  0  0
    7.7750  -20.2721   41.9263 N   0  0  0  0  0  0  0  0  0  0  0  0
    7.8130  -22.0841   46.2668 C   0  0  0  0  0  0  0  0  0  0  0  0
    8.8581  -24.3059   49.0641 C   0  0  0  0  0  0  0  0  0  0  0  0
    8.0910  -23.4086   48.2894 C   0  0  0  0  0  0  0  0  0  0  0  0
    6.8932  -22.9597   48.7860 N   0  0  0  0  0  0  0  0  0  0  0  0
    6.1942  -22.0970   48.0435 C   0  0  0  0  0  0  0  0  0  0  0  0
    5.0647  -21.5825   48.5551 N   0  0  0  0  0  0  0  0  0  0  0  0
   11.6860  -24.8660   46.9262 F   0  0  0  0  0  0  0  0  0  0  0  0
    6.7531  -15.3807   43.9006 H   0  0  0  0  0  0  0  0  0  0  0  0
    8.3711  -21.7228   40.4612 H   0  0  0  0  0  0  0  0  0  0  0  0
   10.6625  -25.4528   49.2213 H   0  0  0  0  0  0  0  0  0  0  0  0
   10.2529  -23.1799   45.6098 H   0  0  0  0  0  0  0  0  0  0  0  0
    3.8155  -21.3839   45.0522 H   0  0  0  0  0  0  0  0  0  0  0  0
    3.9996  -20.3526   43.5930 H   0  0  0  0  0  0  0  0  0  0  0  0
    4.6392  -22.0312   43.5930 H   0  0  0  0  0  0  0  0  0  0  0  0
    6.6230  -21.2029   44.2823 H   0  0  0  0  0  0  0  0  0  0  0  0
    6.8935  -16.9241   41.9240 H   0  0  0  0  0  0  0  0  0  0  0  0
    5.6397  -18.6720   46.3253 H   0  0  0  0  0  0  0  0  0  0  0  0
    4.7932  -19.3820   40.7927 H   0  0  0  0  0  0  0  0  0  0  0  0
    6.0222  -21.2262   39.2756 H   0  0  0  0  0  0  0  0  0  0  0  0
    8.1641  -21.7374   45.2837 H   0  0  0  0  0  0  0  0  0  0  0  0
    8.4833  -24.6386   50.0433 H   0  0  0  0  0  0  0  0  0  0  0  0
    4.7303  -21.8915   49.4790 H   0  0  0  0  0  0  0  0  0  0  0  0
    4.5325  -20.8787   48.0237 H   0  0  0  0  0  0  0  0  0  0  0  0
  1 13  2  0
  1 14  1  0
  1 17  1  0
  2  3  1  0
  2 15  1  0
  2 16  2  0
  3 14  2  0
  4 19  1  0
  4 20  2  0
  5  9  1  0
  5 12  1  0
  6  7  2  0
  6 10  1  0
  6 27  1  0
  7 22  1  0
  8 10  2  0
  8 21  1  0
  8 23  1  0
  9 21  2  0
  9 25  1  0
 12 11  1  0
 12 13  1  0
 13 15  1  0
 17 18  1  0
 17 20  1  0
 18 19  2  0
 22 23  2  0
 23 24  1  0
 24 25  2  0
 25 26  1  0
  3 28  1  0
  4 29  1  0
  7 30  1  0
 10 31  1  0
 11 32  1  0
 11 33  1  0
 11 34  1  0
 12 35  1  6
 14 36  1  0
 15 37  1  0
 18 38  1  0
 19 39  1  0
 21 40  1  0
 22 41  1  0
 26 42  1  0
 26 43  1  0
M  END
>  <filename_input>  (10) 
7JY3_VUD_docked.sdf

>  <pdb_id>  (10) 
7JY3_VUD

>  <pose_rank>  (10) 
9

>  <num_atoms_heavy>  (10) 
27

>  <num_torsions>  (10) 
4

>  <pose>  (10) 
[4.472838982114116, -21.13340553835792, 44.20649258880754, 0.10184228119392348, 0.16899560560848448, 4.750071649373948, 6.845576716914105, 0.5453699666697219, 5.411780361224866, 0.5146044965491292]

>  <energy>  (10) 
-595.7533843700626

>  <inter_energy>  (10) 
-603.7130930181502

>  <intra_energy>  (10) 
3.8686470667857904

>  <rmsd>  (10) 
5.64945

>  <sdf_rank>  (10) 
0

$$$$

     RDKit          3D

 43 46  0  0  0  0  0  0  0  0999 V2000
    6.8956  -18.2488   43.8206 C   0  0  0  0  0  0  0  0  0  0  0  0
    6.7679  -16.4728   45.8671 C   0  0  0  0  0  0  0  0  0  0  0  0
    7.6912  -16.2363   44.8467 C   0  0  0  0  0  0  0  0  0  0  0  0
    7.8640  -20.8907   41.7655 C   0  0  0  0  0  0  0  0  0  0  0  0
    5.8138  -20.7564   45.5576 O   0  0  0  0  0  0  0  0  0  0  0  0
    2.5080  -25.4933   43.6403 C   0  0  0  0  0  0  0  0  0  0  0  0
    3.1633  -26.4311   44.4019 C   0  0  0  0  0  0  0  0  0  0  0  0
    3.8788  -23.7287   44.4783 C   0  0  0  0  0  0  0  0  0  0  0  0
    5.3082  -22.0267   45.3805 C   0  0  0  0  0  0  0  0  0  0  0  0
    2.8290  -24.1747   43.6373 C   0  0  0  0  0  0  0  0  0  0  0  0
    3.9922  -19.3594   46.0992 C   0  0  0  0  0  0  0  0  0  0  0  0
    5.0687  -19.6367   45.0715 C   0  0  1  0  0  0  0  0  0  0  0  0
    5.9973  -18.4494   44.8860 C   0  0  0  0  0  0  0  0  0  0  0  0
    7.7311  -17.1367   43.7945 C   0  0  0  0  0  0  0  0  0  0  0  0
    5.9526  -17.5481   45.8771 N   0  0  0  0  0  0  0  0  0  0  0  0
    6.6180  -15.6067   46.8389 O   0  0  0  0  0  0  0  0  0  0  0  0
    7.0377  -19.2268   42.7889 N   0  0  0  0  0  0  0  0  0  0  0  0
    6.2272  -19.4380   41.7195 C   0  0  0  0  0  0  0  0  0  0  0  0
    6.7344  -20.5056   41.0430 C   0  0  0  0  0  0  0  0  0  0  0  0
    8.0686  -20.1176   42.8267 N   0  0  0  0  0  0  0  0  0  0  0  0
    4.2826  -22.3750   44.5457 C   0  0  0  0  0  0  0  0  0  0  0  0
    4.1758  -26.0324   45.2281 C   0  0  0  0  0  0  0  0  0  0  0  0
    4.5612  -24.6754   45.2895 C   0  0  0  0  0  0  0  0  0  0  0  0
    5.5910  -24.3150   46.1216 N   0  0  0  0  0  0  0  0  0  0  0  0
    5.9500  -23.0287   46.1488 C   0  0  0  0  0  0  0  0  0  0  0  0
    7.0120  -22.6772   46.8910 N   0  0  0  0  0  0  0  0  0  0  0  0
    1.4752  -25.9071   42.8675 F   0  0  0  0  0  0  0  0  0  0  0  0
    8.3631  -15.3659   44.8771 H   0  0  0  0  0  0  0  0  0  0  0  0
    8.5104  -21.7366   41.4887 H   0  0  0  0  0  0  0  0  0  0  0  0
    2.8757  -27.4914   44.3468 H   0  0  0  0  0  0  0  0  0  0  0  0
    2.2853  -23.4664   42.9949 H   0  0  0  0  0  0  0  0  0  0  0  0
    4.4133  -19.4678   47.1096 H   0  0  0  0  0  0  0  0  0  0  0  0
    3.6146  -18.3347   45.9673 H   0  0  0  0  0  0  0  0  0  0  0  0
    3.1666  -20.0742   45.9673 H   0  0  0  0  0  0  0  0  0  0  0  0
    4.6085  -19.8354   44.0923 H   0  0  0  0  0  0  0  0  0  0  0  0
    8.4151  -16.9742   42.9486 H   0  0  0  0  0  0  0  0  0  0  0  0
    5.2893  -17.6777   46.6543 H   0  0  0  0  0  0  0  0  0  0  0  0
    5.3321  -18.8576   41.4511 H   0  0  0  0  0  0  0  0  0  0  0  0
    6.3389  -20.9651   40.1252 H   0  0  0  0  0  0  0  0  0  0  0  0
    3.7782  -21.6121   43.9346 H   0  0  0  0  0  0  0  0  0  0  0  0
    4.6955  -26.7753   45.8510 H   0  0  0  0  0  0  0  0  0  0  0  0
    7.4993  -23.3841   47.4601 H   0  0  0  0  0  0  0  0  0  0  0  0
    7.3395  -21.7007   46.8913 H   0  0  0  0  0  0  0  0  0  0  0  0
  1 13  2  0
  1 14  1  0
  1 17  1  0
  2  3  1  0
  2 15  1  0
  2 16  2  0
  3 14  2  0
  4 19  1  0
  4 20  2  0
  5  9  1  0
  5 12  1  0
  6  7  2  0
  6 10  1  0
  6 27  1  0
  7 22  1  0
  8 10  2  0
  8 21  1  0
  8 23  1  0
  9 21  2  0
  9 25  1  0
 12 11  1  0
 12 13  1  0
 13 15  1  0
 17 18  1  0
 17 20  1  0
 18 19  2  0
 22 23  2  0
 23 24  1  0
 24 25  2  0
 25 26  1  0
  3 28  1  0
  4 29  1  0
  7 30  1  0
 10 31  1  0
 11 32  1  0
 11 33  1  0
 11 34  1  0
 12 35  1  6
 14 36  1  0
 15 37  1  0
 18 38  1  0
 19 39  1  0
 21 40  1  0
 22 41  1  0
 26 42  1  0
 26 43  1  0
M  END
>  <filename_input>  (11) 
7JY3_VUD_docked.sdf

>  <pdb_id>  (11) 
7JY3_VUD

>  <pose_rank>  (11) 
10

>  <num_atoms_heavy>  (11) 
27

>  <num_torsions>  (11) 
4

>  <pose>  (11) 
[3.992235480784628, -19.359385182596405, 46.09917692625081, 0.7192047840103825, -2.2549739374507083, 3.048014200947684, -7.27937860128949, -6.1264491688681195, -7.764289660215533, -18.492421214393413]

>  <energy>  (11) 
-593.2815218693235

>  <inter_energy>  (11) 
-582.0658927289275

>  <intra_energy>  (11) 
6.886943169886597

>  <rmsd>  (11) 
6.2275

>  <sdf_rank>  (11) 
0

$$$$

     RDKit          3D

 43 46  0  0  0  0  0  0  0  0999 V2000
    5.8883  -21.4882   41.6279 C   0  0  0  0  0  0  0  0  0  0  0  0
    3.7606  -22.6259   40.3881 C   0  0  0  0  0  0  0  0  0  0  0  0
    4.6787  -21.9215   39.6068 C   0  0  0  0  0  0  0  0  0  0  0  0
    8.7878  -20.5775   43.3321 C   0  0  0  0  0  0  0  0  0  0  0  0
    4.5355  -21.1202   44.4935 O   0  0  0  0  0  0  0  0  0  0  0  0
    7.7240  -21.2063   49.6770 C   0  0  0  0  0  0  0  0  0  0  0  0
    7.6011  -19.8615   49.9323 C   0  0  0  0  0  0  0  0  0  0  0  0
    6.4540  -21.0283   47.6644 C   0  0  0  0  0  0  0  0  0  0  0  0
    5.1667  -20.7449   45.6603 C   0  0  0  0  0  0  0  0  0  0  0  0
    7.1944  -21.8120   48.5841 C   0  0  0  0  0  0  0  0  0  0  0  0
    3.8463  -23.3688   44.3146 C   0  0  0  0  0  0  0  0  0  0  0  0
    4.8896  -22.3621   43.8790 C   0  0  1  0  0  0  0  0  0  0  0  0
    4.9212  -22.1924   42.3702 C   0  0  0  0  0  0  0  0  0  0  0  0
    5.7741  -21.3651   40.2469 C   0  0  0  0  0  0  0  0  0  0  0  0
    3.8868  -22.7506   41.7259 N   0  0  0  0  0  0  0  0  0  0  0  0
    2.7570  -23.2539   39.8267 O   0  0  0  0  0  0  0  0  0  0  0  0
    6.9588  -20.8051   42.2824 N   0  0  0  0  0  0  0  0  0  0  0  0
    7.1619  -19.4654   42.3775 C   0  0  0  0  0  0  0  0  0  0  0  0
    8.3344  -19.2892   43.0476 C   0  0  0  0  0  0  0  0  0  0  0  0
    7.9583  -21.5126   42.8813 N   0  0  0  0  0  0  0  0  0  0  0  0
    5.8622  -21.5703   46.4999 C   0  0  0  0  0  0  0  0  0  0  0  0
    6.8880  -19.0794   49.0683 C   0  0  0  0  0  0  0  0  0  0  0  0
    6.2966  -19.6381   47.9142 C   0  0  0  0  0  0  0  0  0  0  0  0
    5.5987  -18.8186   47.0632 N   0  0  0  0  0  0  0  0  0  0  0  0
    5.0642  -19.3662   45.9684 C   0  0  0  0  0  0  0  0  0  0  0  0
    4.4548  -18.5612   45.0836 N   0  0  0  0  0  0  0  0  0  0  0  0
    8.3935  -21.9680   50.5752 F   0  0  0  0  0  0  0  0  0  0  0  0
    4.5372  -21.8122   38.5214 H   0  0  0  0  0  0  0  0  0  0  0  0
    9.7238  -20.7942   43.8677 H   0  0  0  0  0  0  0  0  0  0  0  0
    8.0718  -19.4195   50.8228 H   0  0  0  0  0  0  0  0  0  0  0  0
    7.3369  -22.8897   48.4156 H   0  0  0  0  0  0  0  0  0  0  0  0
    3.8083  -23.4054   45.4134 H   0  0  0  0  0  0  0  0  0  0  0  0
    2.8625  -23.0699   43.9235 H   0  0  0  0  0  0  0  0  0  0  0  0
    4.1098  -24.3626   43.9235 H   0  0  0  0  0  0  0  0  0  0  0  0
    5.8900  -22.7062   44.1804 H   0  0  0  0  0  0  0  0  0  0  0  0
    6.5445  -20.8324   39.6700 H   0  0  0  0  0  0  0  0  0  0  0  0
    3.1810  -23.2801   42.2574 H   0  0  0  0  0  0  0  0  0  0  0  0
    6.5049  -18.6740   41.9878 H   0  0  0  0  0  0  0  0  0  0  0  0
    8.8192  -18.3368   43.3082 H   0  0  0  0  0  0  0  0  0  0  0  0
    5.9602  -22.6421   46.2723 H   0  0  0  0  0  0  0  0  0  0  0  0
    6.7735  -18.0048   49.2736 H   0  0  0  0  0  0  0  0  0  0  0  0
    4.3652  -17.5541   45.2802 H   0  0  0  0  0  0  0  0  0  0  0  0
    4.0769  -18.9507   44.2082 H   0  0  0  0  0  0  0  0  0  0  0  0
  1 13  2  0
  1 14  1  0
  1 17  1  0
  2  3  1  0
  2 15  1  0
  2 16  2  0
  3 14  2  0
  4 19  1  0
  4 20  2  0
  5  9  1  0
  5 12  1  0
  6  7  2  0
  6 10  1  0
  6 27  1  0
  7 22  1  0
  8 10  2  0
  8 21  1  0
  8 23  1  0
  9 21  2  0
  9 25  1  0
 12 11  1  0
 12 13  1  0
 13 15  1  0
 17 18  1  0
 17 20  1  0
 18 19  2  0
 22 23  2  0
 23 24  1  0
 24 25  2  0
 25 26  1  0
  3 28  1  0
  4 29  1  0
  7 30  1  0
 10 31  1  0
 11 32  1  0
 11 33  1  0
 11 34  1  0
 12 35  1  1
 14 36  1  0
 15 37  1  0
 18 38  1  0
 19 39  1  0
 21 40  1  0
 22 41  1  0
 26 42  1  0
 26 43  1  0
M  END
>  <filename_input>  (12) 
7JY3_VUD_docked.sdf

>  <pdb_id>  (12) 
7JY3_VUD

>  <pose_rank>  (12) 
11

>  <num_atoms_heavy>  (12) 
27

>  <num_torsions>  (12) 
4

>  <pose>  (12) 
[3.846269157500837, -23.36880487971803, 44.3146316970242, 2.4647917798137735, 2.8043932754315177, 2.7184672720610066, -7.380722718722774, 3.1120228147836375, -7.455240205243069, -0.2011644993962959]

>  <energy>  (12) 
-534.4631044893496

>  <inter_energy>  (12) 
-541.8572970159007

>  <intra_energy>  (12) 
8.386796340803679

>  <rmsd>  (12) 
3.92744

>  <sdf_rank>  (12) 
0

$$$$

     RDKit          3D

 43 46  0  0  0  0  0  0  0  0999 V2000
    6.4642  -18.6077   43.9958 C   0  0  0  0  0  0  0  0  0  0  0  0
    6.8091  -20.1777   41.8107 C   0  0  0  0  0  0  0  0  0  0  0  0
    6.0091  -19.0403   41.6846 C   0  0  0  0  0  0  0  0  0  0  0  0
    6.4793  -16.2954   46.6024 C   0  0  0  0  0  0  0  0  0  0  0  0
    6.9314  -20.5847   46.3210 O   0  0  0  0  0  0  0  0  0  0  0  0
    2.9673  -24.8837   44.6337 C   0  0  0  0  0  0  0  0  0  0  0  0
    3.2971  -25.7692   45.6316 C   0  0  0  0  0  0  0  0  0  0  0  0
    4.5623  -23.2855   45.4062 C   0  0  0  0  0  0  0  0  0  0  0  0
    6.1917  -21.7466   46.2610 C   0  0  0  0  0  0  0  0  0  0  0  0
    3.5628  -23.6740   44.4797 C   0  0  0  0  0  0  0  0  0  0  0  0
    8.6004  -21.6572   45.0453 C   0  0  0  0  0  0  0  0  0  0  0  0
    7.9163  -20.3338   45.3150 C   0  0  1  0  0  0  0  0  0  0  0  0
    7.2440  -19.7774   44.0721 C   0  0  0  0  0  0  0  0  0  0  0  0
    5.8595  -18.2327   42.8003 C   0  0  0  0  0  0  0  0  0  0  0  0
    7.4020  -20.5263   42.9717 N   0  0  0  0  0  0  0  0  0  0  0  0
    7.0646  -20.9271   40.7667 O   0  0  0  0  0  0  0  0  0  0  0  0
    6.1985  -17.8277   45.1628 N   0  0  0  0  0  0  0  0  0  0  0  0
    5.1354  -17.9162   46.0037 C   0  0  0  0  0  0  0  0  0  0  0  0
    5.2889  -16.9395   46.9403 C   0  0  0  0  0  0  0  0  0  0  0  0
    7.0510  -16.8287   45.5279 N   0  0  0  0  0  0  0  0  0  0  0  0
    5.2360  -22.0444   45.3294 C   0  0  0  0  0  0  0  0  0  0  0  0
    4.2523  -25.4220   46.5448 C   0  0  0  0  0  0  0  0  0  0  0  0
    4.9097  -24.1754   46.4585 C   0  0  0  0  0  0  0  0  0  0  0  0
    5.8724  -23.8673   47.3863 N   0  0  0  0  0  0  0  0  0  0  0  0
    6.4937  -22.6903   47.2732 C   0  0  0  0  0  0  0  0  0  0  0  0
    7.4977  -22.4136   48.1203 N   0  0  0  0  0  0  0  0  0  0  0  0
    1.9821  -25.2317   43.7714 F   0  0  0  0  0  0  0  0  0  0  0  0
    5.5152  -18.7941   40.7331 H   0  0  0  0  0  0  0  0  0  0  0  0
    6.8964  -15.4444   47.1608 H   0  0  0  0  0  0  0  0  0  0  0  0
    2.7974  -26.7471   45.6945 H   0  0  0  0  0  0  0  0  0  0  0  0
    3.2755  -23.0085   43.6524 H   0  0  0  0  0  0  0  0  0  0  0  0
    8.8508  -22.1418   46.0005 H   0  0  0  0  0  0  0  0  0  0  0  0
    7.9257  -22.3080   44.4698 H   0  0  0  0  0  0  0  0  0  0  0  0
    9.5215  -21.4833   44.4698 H   0  0  0  0  0  0  0  0  0  0  0  0
    8.6586  -19.5877   45.6350 H   0  0  0  0  0  0  0  0  0  0  0  0
    5.2696  -17.3061   42.7417 H   0  0  0  0  0  0  0  0  0  0  0  0
    7.9820  -21.3766   43.0128 H   0  0  0  0  0  0  0  0  0  0  0  0
    4.3084  -18.6388   45.9403 H   0  0  0  0  0  0  0  0  0  0  0  0
    4.6189  -16.7084   47.7816 H   0  0  0  0  0  0  0  0  0  0  0  0
    4.9943  -21.3278   44.5306 H   0  0  0  0  0  0  0  0  0  0  0  0
    4.5114  -26.1199   47.3546 H   0  0  0  0  0  0  0  0  0  0  0  0
    7.7405  -23.0807   48.8666 H   0  0  0  0  0  0  0  0  0  0  0  0
    8.0253  -21.5342   48.0240 H   0  0  0  0  0  0  0  0  0  0  0  0
  1 13  2  0
  1 14  1  0
  1 17  1  0
  2  3  1  0
  2 15  1  0
  2 16  2  0
  3 14  2  0
  4 19  1  0
  4 20  2  0
  5  9  1  0
  5 12  1  0
  6  7  2  0
  6 10  1  0
  6 27  1  0
  7 22  1  0
  8 10  2  0
  8 21  1  0
  8 23  1  0
  9 21  2  0
  9 25  1  0
 12 11  1  0
 12 13  1  0
 13 15  1  0
 17 18  1  0
 17 20  1  0
 18 19  2  0
 22 23  2  0
 23 24  1  0
 24 25  2  0
 25 26  1  0
  3 28  1  0
  4 29  1  0
  7 30  1  0
 10 31  1  0
 11 32  1  0
 11 33  1  0
 11 34  1  0
 12 35  1  1
 14 36  1  0
 15 37  1  0
 18 38  1  0
 19 39  1  0
 21 40  1  0
 22 41  1  0
 26 42  1  0
 26 43  1  0
M  END
>  <filename_input>  (13) 
7JY3_VUD_docked.sdf

>  <pdb_id>  (13) 
7JY3_VUD

>  <pose_rank>  (13) 
12

>  <num_atoms_heavy>  (13) 
27

>  <num_torsions>  (13) 
4

>  <pose>  (13) 
[8.60035168572299, -21.657173883707188, 45.045331743023375, -1.107265318512405, 5.207210601051519, 0.5106666366436228, -1.330467164771688, -2.8475400159550897, -3.582492408479947, -1.1051663176775302]

>  <energy>  (13) 
-580.4005645333826

>  <inter_energy>  (13) 
-617.0611012982148

>  <intra_energy>  (13) 
37.55540120798796

>  <rmsd>  (13) 
5.80604

>  <sdf_rank>  (13) 
0

$$$$

     RDKit          3D

 43 46  0  0  0  0  0  0  0  0999 V2000
    4.1211  -23.0062   41.5747 C   0  0  0  0  0  0  0  0  0  0  0  0
    5.5553  -21.2074   40.1374 C   0  0  0  0  0  0  0  0  0  0  0  0
    4.3091  -21.6000   39.6451 C   0  0  0  0  0  0  0  0  0  0  0  0
    1.8595  -24.8728   43.4567 C   0  0  0  0  0  0  0  0  0  0  0  0
    7.1821  -22.1833   43.5757 O   0  0  0  0  0  0  0  0  0  0  0  0
    5.3979  -18.4234   48.0167 C   0  0  0  0  0  0  0  0  0  0  0  0
    5.6719  -17.2651   47.3297 C   0  0  0  0  0  0  0  0  0  0  0  0
    6.1282  -19.7794   46.1937 C   0  0  0  0  0  0  0  0  0  0  0  0
    6.8836  -21.0532   44.3068 C   0  0  0  0  0  0  0  0  0  0  0  0
    5.6144  -19.6634   47.5094 C   0  0  0  0  0  0  0  0  0  0  0  0
    5.2287  -23.1702   44.4551 C   0  0  0  0  0  0  0  0  0  0  0  0
    6.1312  -23.0942   43.2420 C   0  0  1  0  0  0  0  0  0  0  0  0
    5.3926  -22.5911   42.0142 C   0  0  0  0  0  0  0  0  0  0  0  0
    3.5748  -22.5007   40.3994 C   0  0  0  0  0  0  0  0  0  0  0  0
    6.0714  -21.6940   41.2855 N   0  0  0  0  0  0  0  0  0  0  0  0
    6.2527  -20.2876   39.5175 O   0  0  0  0  0  0  0  0  0  0  0  0
    3.4013  -24.0235   42.2733 N   0  0  0  0  0  0  0  0  0  0  0  0
    3.6549  -25.3576   42.3023 C   0  0  0  0  0  0  0  0  0  0  0  0
    2.6761  -25.9305   43.0562 C   0  0  0  0  0  0  0  0  0  0  0  0
    2.2911  -23.7033   42.9964 N   0  0  0  0  0  0  0  0  0  0  0  0
    6.3833  -21.0273   45.5792 C   0  0  0  0  0  0  0  0  0  0  0  0
    6.1621  -17.3427   46.0567 C   0  0  0  0  0  0  0  0  0  0  0  0
    6.4035  -18.5970   45.4548 C   0  0  0  0  0  0  0  0  0  0  0  0
    6.9081  -18.6348   44.1794 N   0  0  0  0  0  0  0  0  0  0  0  0
    7.1459  -19.8325   43.6380 C   0  0  0  0  0  0  0  0  0  0  0  0
    7.7213  -19.8831   42.4261 N   0  0  0  0  0  0  0  0  0  0  0  0
    4.8658  -18.3187   49.2581 F   0  0  0  0  0  0  0  0  0  0  0  0
    3.9239  -21.2081   38.6922 H   0  0  0  0  0  0  0  0  0  0  0  0
    0.9620  -24.9929   44.0814 H   0  0  0  0  0  0  0  0  0  0  0  0
    5.4984  -16.2858   47.7998 H   0  0  0  0  0  0  0  0  0  0  0  0
    5.3956  -20.5603   48.1074 H   0  0  0  0  0  0  0  0  0  0  0  0
    5.8381  -23.1189   45.3694 H   0  0  0  0  0  0  0  0  0  0  0  0
    4.5206  -22.3285   44.4386 H   0  0  0  0  0  0  0  0  0  0  0  0
    4.6714  -24.1185   44.4386 H   0  0  0  0  0  0  0  0  0  0  0  0
    6.5110  -24.0966   42.9952 H   0  0  0  0  0  0  0  0  0  0  0  0
    2.5717  -22.8125   40.0728 H   0  0  0  0  0  0  0  0  0  0  0  0
    6.9964  -21.3727   41.6050 H   0  0  0  0  0  0  0  0  0  0  0  0
    4.4912  -25.8762   41.8107 H   0  0  0  0  0  0  0  0  0  0  0  0
    2.5555  -26.9970   43.2973 H   0  0  0  0  0  0  0  0  0  0  0  0
    6.1818  -21.9651   46.1177 H   0  0  0  0  0  0  0  0  0  0  0  0
    6.3705  -16.4198   45.4957 H   0  0  0  0  0  0  0  0  0  0  0  0
    7.9242  -19.0119   41.9156 H   0  0  0  0  0  0  0  0  0  0  0  0
    7.9598  -20.7932   42.0069 H   0  0  0  0  0  0  0  0  0  0  0  0
  1 13  2  0
  1 14  1  0
  1 17  1  0
  2  3  1  0
  2 15  1  0
  2 16  2  0
  3 14  2  0
  4 19  1  0
  4 20  2  0
  5  9  1  0
  5 12  1  0
  6  7  2  0
  6 10  1  0
  6 27  1  0
  7 22  1  0
  8 10  2  0
  8 21  1  0
  8 23  1  0
  9 21  2  0
  9 25  1  0
 12 11  1  0
 12 13  1  0
 13 15  1  0
 17 18  1  0
 17 20  1  0
 18 19  2  0
 22 23  2  0
 23 24  1  0
 24 25  2  0
 25 26  1  0
  3 28  1  0
  4 29  1  0
  7 30  1  0
 10 31  1  0
 11 32  1  0
 11 33  1  0
 11 34  1  0
 12 35  1  6
 14 36  1  0
 15 37  1  0
 18 38  1  0
 19 39  1  0
 21 40  1  0
 22 41  1  0
 26 42  1  0
 26 43  1  0
M  END
>  <filename_input>  (14) 
7JY3_VUD_docked.sdf

>  <pdb_id>  (14) 
7JY3_VUD

>  <pose_rank>  (14) 
13

>  <num_atoms_heavy>  (14) 
27

>  <num_torsions>  (14) 
4

>  <pose>  (14) 
[5.228654228988185, -23.170191540704838, 44.45507807435825, 3.4160934553171027, -0.030381465642900354, 2.6094038614824115, 1.0860130333136717, -2.5009837004281015, -3.5624620292714098, 1.201416978525446]

>  <energy>  (14) 
-496.40103813338214

>  <inter_energy>  (14) 
-598.61476098011

>  <intra_energy>  (14) 
109.05039397504449

>  <rmsd>  (14) 
4.06162

>  <sdf_rank>  (14) 
0

$$$$

     RDKit          3D

 43 46  0  0  0  0  0  0  0  0999 V2000
    6.8754  -20.2738   47.1699 C   0  0  0  0  0  0  0  0  0  0  0  0
    6.4378  -17.6343   46.7227 C   0  0  0  0  0  0  0  0  0  0  0  0
    6.6532  -18.0526   48.0374 C   0  0  0  0  0  0  0  0  0  0  0  0
    7.9652  -23.5644   47.5243 C   0  0  0  0  0  0  0  0  0  0  0  0
    5.1919  -20.5731   44.0957 O   0  0  0  0  0  0  0  0  0  0  0  0
    2.5237  -26.0094   44.7038 C   0  0  0  0  0  0  0  0  0  0  0  0
    2.1004  -26.0976   43.3992 C   0  0  0  0  0  0  0  0  0  0  0  0
    3.5302  -23.8792   44.3238 C   0  0  0  0  0  0  0  0  0  0  0  0
    4.5101  -21.7438   43.8402 C   0  0  0  0  0  0  0  0  0  0  0  0
    3.2093  -24.9475   45.1979 C   0  0  0  0  0  0  0  0  0  0  0  0
    7.4328  -20.1324   43.5066 C   0  0  0  0  0  0  0  0  0  0  0  0
    6.5259  -20.6417   44.6066 C   0  0  1  0  0  0  0  0  0  0  0  0
    6.6322  -19.8005   45.8665 C   0  0  0  0  0  0  0  0  0  0  0  0
    6.8996  -19.3990   48.2513 C   0  0  0  0  0  0  0  0  0  0  0  0
    6.4288  -18.4891   45.6785 N   0  0  0  0  0  0  0  0  0  0  0  0
    6.2944  -16.3613   46.4475 O   0  0  0  0  0  0  0  0  0  0  0  0
    7.0111  -21.6726   47.4273 N   0  0  0  0  0  0  0  0  0  0  0  0
    6.1113  -22.5068   48.0100 C   0  0  0  0  0  0  0  0  0  0  0  0
    6.6999  -23.7325   48.0872 C   0  0  0  0  0  0  0  0  0  0  0  0
    8.1684  -22.3186   47.1092 N   0  0  0  0  0  0  0  0  0  0  0  0
    4.2438  -22.7333   44.7457 C   0  0  0  0  0  0  0  0  0  0  0  0
    2.3993  -25.0871   42.5296 C   0  0  0  0  0  0  0  0  0  0  0  0
    3.1197  -23.9535   42.9652 C   0  0  0  0  0  0  0  0  0  0  0  0
    3.3901  -22.9532   42.0658 N   0  0  0  0  0  0  0  0  0  0  0  0
    4.0565  -21.8823   42.5056 C   0  0  0  0  0  0  0  0  0  0  0  0
    4.2505  -20.8584   41.6593 N   0  0  0  0  0  0  0  0  0  0  0  0
    2.2576  -27.0473   45.5327 F   0  0  0  0  0  0  0  0  0  0  0  0
    6.6282  -17.3383   48.8736 H   0  0  0  0  0  0  0  0  0  0  0  0
    8.7087  -24.3701   47.4344 H   0  0  0  0  0  0  0  0  0  0  0  0
    1.5269  -26.9724   43.0588 H   0  0  0  0  0  0  0  0  0  0  0  0
    3.5098  -24.9167   46.2556 H   0  0  0  0  0  0  0  0  0  0  0  0
    8.3095  -19.6401   43.9528 H   0  0  0  0  0  0  0  0  0  0  0  0
    7.7638  -20.9766   42.8839 H   0  0  0  0  0  0  0  0  0  0  0  0
    6.8842  -19.4104   42.8839 H   0  0  0  0  0  0  0  0  0  0  0  0
    6.8139  -21.6664   44.8841 H   0  0  0  0  0  0  0  0  0  0  0  0
    7.1119  -19.7719   49.2642 H   0  0  0  0  0  0  0  0  0  0  0  0
    6.2640  -18.1300   44.7273 H   0  0  0  0  0  0  0  0  0  0  0  0
    5.1003  -22.2428   48.3539 H   0  0  0  0  0  0  0  0  0  0  0  0
    6.2703  -24.6557   48.5034 H   0  0  0  0  0  0  0  0  0  0  0  0
    4.5802  -22.6393   45.7888 H   0  0  0  0  0  0  0  0  0  0  0  0
    2.0759  -25.1573   41.4805 H   0  0  0  0  0  0  0  0  0  0  0  0
    3.9315  -20.9299   40.6826 H   0  0  0  0  0  0  0  0  0  0  0  0
    4.7185  -20.0013   41.9868 H   0  0  0  0  0  0  0  0  0  0  0  0
  1 13  2  0
  1 14  1  0
  1 17  1  0
  2  3  1  0
  2 15  1  0
  2 16  2  0
  3 14  2  0
  4 19  1  0
  4 20  2  0
  5  9  1  0
  5 12  1  0
  6  7  2  0
  6 10  1  0
  6 27  1  0
  7 22  1  0
  8 10  2  0
  8 21  1  0
  8 23  1  0
  9 21  2  0
  9 25  1  0
 12 11  1  0
 12 13  1  0
 13 15  1  0
 17 18  1  0
 17 20  1  0
 18 19  2  0
 22 23  2  0
 23 24  1  0
 24 25  2  0
 25 26  1  0
  3 28  1  0
  4 29  1  0
  7 30  1  0
 10 31  1  0
 11 32  1  0
 11 33  1  0
 11 34  1  0
 12 35  1  1
 14 36  1  0
 15 37  1  0
 18 38  1  0
 19 39  1  0
 21 40  1  0
 22 41  1  0
 26 42  1  0
 26 43  1  0
M  END
>  <filename_input>  (15) 
7JY3_VUD_docked.sdf

>  <pdb_id>  (15) 
7JY3_VUD

>  <pose_rank>  (15) 
14

>  <num_atoms_heavy>  (15) 
27

>  <num_torsions>  (15) 
4

>  <pose>  (15) 
[7.432839464275823, -20.132412474716777, 43.50658916637107, 1.958795452509944, -1.0112289980061084, -1.6346717725973863, 18.489517896033142, -3.062430935982955, 11.634769729998384, 13.686374479102403]

>  <energy>  (15) 
-576.0131166471281

>  <inter_energy>  (15) 
-583.0781165079098

>  <intra_energy>  (15) 
2.200184452350233

>  <rmsd>  (15) 
7.1336

>  <sdf_rank>  (15) 
0

$$$$

     RDKit          3D

 43 46  0  0  0  0  0  0  0  0999 V2000
    3.6216  -23.7876   44.0810 C   0  0  0  0  0  0  0  0  0  0  0  0
    5.5265  -23.8773   46.0102 C   0  0  0  0  0  0  0  0  0  0  0  0
    4.3343  -24.5705   46.2293 C   0  0  0  0  0  0  0  0  0  0  0  0
    1.4875  -24.0839   41.3426 C   0  0  0  0  0  0  0  0  0  0  0  0
    4.5460  -20.9366   42.8789 O   0  0  0  0  0  0  0  0  0  0  0  0
    5.5043  -18.1405   48.1993 C   0  0  0  0  0  0  0  0  0  0  0  0
    6.2636  -17.1198   47.6793 C   0  0  0  0  0  0  0  0  0  0  0  0
    5.2071  -19.1309   46.0484 C   0  0  0  0  0  0  0  0  0  0  0  0
    4.9668  -20.0474   43.8448 C   0  0  0  0  0  0  0  0  0  0  0  0
    4.9821  -19.1425   47.4476 C   0  0  0  0  0  0  0  0  0  0  0  0
    6.6963  -21.8942   42.7287 C   0  0  0  0  0  0  0  0  0  0  0  0
    5.2129  -22.1956   42.7539 C   0  0  1  0  0  0  0  0  0  0  0  0
    4.8341  -23.0902   43.9211 C   0  0  0  0  0  0  0  0  0  0  0  0
    3.3783  -24.5376   45.2272 C   0  0  0  0  0  0  0  0  0  0  0  0
    5.7583  -23.1627   44.8892 N   0  0  0  0  0  0  0  0  0  0  0  0
    6.5044  -23.9499   46.8793 O   0  0  0  0  0  0  0  0  0  0  0  0
    2.5756  -23.6683   43.1152 N   0  0  0  0  0  0  0  0  0  0  0  0
    1.4529  -22.9072   43.1881 C   0  0  0  0  0  0  0  0  0  0  0  0
    0.7318  -23.1562   42.0599 C   0  0  0  0  0  0  0  0  0  0  0  0
    2.6174  -24.4003   41.9662 N   0  0  0  0  0  0  0  0  0  0  0  0
    4.7011  -20.1291   45.1837 C   0  0  0  0  0  0  0  0  0  0  0  0
    6.4935  -17.0763   46.3332 C   0  0  0  0  0  0  0  0  0  0  0  0
    5.9742  -18.0766   45.4827 C   0  0  0  0  0  0  0  0  0  0  0  0
    6.2368  -18.0062   44.1378 N   0  0  0  0  0  0  0  0  0  0  0  0
    5.7508  -18.9739   43.3558 C   0  0  0  0  0  0  0  0  0  0  0  0
    6.0738  -18.9652   42.0528 N   0  0  0  0  0  0  0  0  0  0  0  0
    5.2495  -18.1328   49.5297 F   0  0  0  0  0  0  0  0  0  0  0  0
    4.1604  -25.1230   47.1644 H   0  0  0  0  0  0  0  0  0  0  0  0
    1.1831  -24.5047   40.3730 H   0  0  0  0  0  0  0  0  0  0  0  0
    6.6818  -16.3460   48.3399 H   0  0  0  0  0  0  0  0  0  0  0  0
    4.3960  -19.9475   47.9149 H   0  0  0  0  0  0  0  0  0  0  0  0
    7.0725  -21.8177   43.7595 H   0  0  0  0  0  0  0  0  0  0  0  0
    7.2259  -22.7030   42.2041 H   0  0  0  0  0  0  0  0  0  0  0  0
    6.8682  -20.9427   42.2041 H   0  0  0  0  0  0  0  0  0  0  0  0
    4.9245  -22.7310   41.8373 H   0  0  0  0  0  0  0  0  0  0  0  0
    2.4380  -25.0980   45.3365 H   0  0  0  0  0  0  0  0  0  0  0  0
    6.6546  -22.6680   44.7763 H   0  0  0  0  0  0  0  0  0  0  0  0
    1.1785  -22.2208   44.0027 H   0  0  0  0  0  0  0  0  0  0  0  0
   -0.2372  -22.7200   41.7756 H   0  0  0  0  0  0  0  0  0  0  0  0
    4.1017  -20.9604   45.5830 H   0  0  0  0  0  0  0  0  0  0  0  0
    7.0886  -16.2545   45.9082 H   0  0  0  0  0  0  0  0  0  0  0  0
    6.6429  -18.1976   41.6684 H   0  0  0  0  0  0  0  0  0  0  0  0
    5.7525  -19.7262   41.4375 H   0  0  0  0  0  0  0  0  0  0  0  0
  1 13  2  0
  1 14  1  0
  1 17  1  0
  2  3  1  0
  2 15  1  0
  2 16  2  0
  3 14  2  0
  4 19  1  0
  4 20  2  0
  5  9  1  0
  5 12  1  0
  6  7  2  0
  6 10  1  0
  6 27  1  0
  7 22  1  0
  8 10  2  0
  8 21  1  0
  8 23  1  0
  9 21  2  0
  9 25  1  0
 12 11  1  0
 12 13  1  0
 13 15  1  0
 17 18  1  0
 17 20  1  0
 18 19  2  0
 22 23  2  0
 23 24  1  0
 24 25  2  0
 25 26  1  0
  3 28  1  0
  4 29  1  0
  7 30  1  0
 10 31  1  0
 11 32  1  0
 11 33  1  0
 11 34  1  0
 12 35  1  6
 14 36  1  0
 15 37  1  0
 18 38  1  0
 19 39  1  0
 21 40  1  0
 22 41  1  0
 26 42  1  0
 26 43  1  0
M  END
>  <filename_input>  (16) 
7JY3_VUD_docked.sdf

>  <pdb_id>  (16) 
7JY3_VUD

>  <pose_rank>  (16) 
15

>  <num_atoms_heavy>  (16) 
27

>  <num_torsions>  (16) 
4

>  <pose>  (16) 
[6.696271204964449, -21.894169477650408, 42.72865037438136, -1.4367076088671855, 0.4753712185218521, 1.4647082600384385, -7.295427062441921, 3.2947060384306583, 8.836631703230903, 5.054770229832933]

>  <energy>  (16) 
-572.205586089935

>  <inter_energy>  (16) 
-590.0709030921153

>  <intra_energy>  (16) 
50.19253225960237

>  <rmsd>  (16) 
4.06503

>  <sdf_rank>  (16) 
0

$$$$

     RDKit          3D

 43 46  0  0  0  0  0  0  0  0999 V2000
    3.8449  -23.0695   42.2270 C   0  0  0  0  0  0  0  0  0  0  0  0
    2.4545  -24.6455   43.9421 C   0  0  0  0  0  0  0  0  0  0  0  0
    2.0042  -24.5494   42.6239 C   0  0  0  0  0  0  0  0  0  0  0  0
    5.1273  -20.3036   40.5400 C   0  0  0  0  0  0  0  0  0  0  0  0
    5.1729  -22.3987   45.6512 O   0  0  0  0  0  0  0  0  0  0  0  0
    9.5797  -20.7090   49.4941 C   0  0  0  0  0  0  0  0  0  0  0  0
    9.3301  -19.3608   49.3998 C   0  0  0  0  0  0  0  0  0  0  0  0
    7.8168  -21.2296   47.9722 C   0  0  0  0  0  0  0  0  0  0  0  0
    6.0240  -21.6485   46.4346 C   0  0  0  0  0  0  0  0  0  0  0  0
    8.8789  -21.6494   48.8112 C   0  0  0  0  0  0  0  0  0  0  0  0
    6.7127  -23.1715   44.0403 C   0  0  0  0  0  0  0  0  0  0  0  0
    5.3942  -22.4546   44.2394 C   0  0  1  0  0  0  0  0  0  0  0  0
    4.2427  -23.1863   43.5725 C   0  0  0  0  0  0  0  0  0  0  0  0
    2.7357  -23.7610   41.7506 C   0  0  0  0  0  0  0  0  0  0  0  0
    3.5393  -23.9806   44.3917 N   0  0  0  0  0  0  0  0  0  0  0  0
    1.8600  -25.4500   44.7883 O   0  0  0  0  0  0  0  0  0  0  0  0
    4.5126  -22.1685   41.3419 N   0  0  0  0  0  0  0  0  0  0  0  0
    5.3819  -22.4686   40.3422 C   0  0  0  0  0  0  0  0  0  0  0  0
    5.7956  -21.2858   39.8088 C   0  0  0  0  0  0  0  0  0  0  0  0
    4.3351  -20.8233   41.4717 N   0  0  0  0  0  0  0  0  0  0  0  0
    7.0286  -22.1351   47.2245 C   0  0  0  0  0  0  0  0  0  0  0  0
    8.3087  -18.9240   48.6043 C   0  0  0  0  0  0  0  0  0  0  0  0
    7.5261  -19.8422   47.8706 C   0  0  0  0  0  0  0  0  0  0  0  0
    6.5171  -19.3649   47.0726 N   0  0  0  0  0  0  0  0  0  0  0  0
    5.8026  -20.2509   46.3736 C   0  0  0  0  0  0  0  0  0  0  0  0
    4.8714  -19.7919   45.5225 N   0  0  0  0  0  0  0  0  0  0  0  0
   10.5654  -21.1189   50.3281 F   0  0  0  0  0  0  0  0  0  0  0  0
    1.1006  -25.0809   42.2906 H   0  0  0  0  0  0  0  0  0  0  0  0
    5.2427  -19.2237   40.3653 H   0  0  0  0  0  0  0  0  0  0  0  0
    9.9461  -18.6410   49.9587 H   0  0  0  0  0  0  0  0  0  0  0  0
    9.1303  -22.7160   48.9070 H   0  0  0  0  0  0  0  0  0  0  0  0
    7.1519  -23.4102   45.0202 H   0  0  0  0  0  0  0  0  0  0  0  0
    6.5432  -24.1016   43.4780 H   0  0  0  0  0  0  0  0  0  0  0  0
    7.4011  -22.5234   43.4780 H   0  0  0  0  0  0  0  0  0  0  0  0
    5.4402  -21.4541   43.7846 H   0  0  0  0  0  0  0  0  0  0  0  0
    2.4430  -23.6826   40.6932 H   0  0  0  0  0  0  0  0  0  0  0  0
    3.8298  -24.0845   45.3744 H   0  0  0  0  0  0  0  0  0  0  0  0
    5.6923  -23.4749   40.0242 H   0  0  0  0  0  0  0  0  0  0  0  0
    6.5039  -21.1371   38.9804 H   0  0  0  0  0  0  0  0  0  0  0  0
    7.2213  -23.2168   47.2776 H   0  0  0  0  0  0  0  0  0  0  0  0
    8.0941  -17.8474   48.5349 H   0  0  0  0  0  0  0  0  0  0  0  0
    4.6882  -18.7805   45.4560 H   0  0  0  0  0  0  0  0  0  0  0  0
    4.3401  -20.4511   44.9359 H   0  0  0  0  0  0  0  0  0  0  0  0
  1 13  2  0
  1 14  1  0
  1 17  1  0
  2  3  1  0
  2 15  1  0
  2 16  2  0
  3 14  2  0
  4 19  1  0
  4 20  2  0
  5  9  1  0
  5 12  1  0
  6  7  2  0
  6 10  1  0
  6 27  1  0
  7 22  1  0
  8 10  2  0
  8 21  1  0
  8 23  1  0
  9 21  2  0
  9 25  1  0
 12 11  1  0
 12 13  1  0
 13 15  1  0
 17 18  1  0
 17 20  1  0
 18 19  2  0
 22 23  2  0
 23 24  1  0
 24 25  2  0
 25 26  1  0
  3 28  1  0
  4 29  1  0
  7 30  1  0
 10 31  1  0
 11 32  1  0
 11 33  1  0
 11 34  1  0
 12 35  1  6
 14 36  1  0
 15 37  1  0
 18 38  1  0
 19 39  1  0
 21 40  1  0
 22 41  1  0
 26 42  1  0
 26 43  1  0
M  END
>  <filename_input>  (17) 
7JY3_VUD_docked.sdf

>  <pdb_id>  (17) 
7JY3_VUD

>  <pose_rank>  (17) 
16

>  <num_atoms_heavy>  (17) 
27

>  <num_torsions>  (17) 
4

>  <pose>  (17) 
[6.712740226534716, -23.171464994874984, 44.040295194703674, -0.06191108791242361, -0.2897403319834469, 0.7219024403495219, 44.3706998332475, 0.621468088094892, 17.11773351565956, -1.68383111926811]

>  <energy>  (17) 
-452.17581848033655

>  <inter_energy>  (17) 
-475.52604057729457

>  <intra_energy>  (17) 
23.542286565041795

>  <rmsd>  (17) 
3.03653

>  <sdf_rank>  (17) 
0

$$$$

     RDKit          3D

 43 46  0  0  0  0  0  0  0  0999 V2000
    1.3632  -26.1726   44.4920 C   0  0  0  0  0  0  0  0  0  0  0  0
   -0.3886  -26.8062   42.5201 C   0  0  0  0  0  0  0  0  0  0  0  0
   -0.0716  -27.7889   43.4600 C   0  0  0  0  0  0  0  0  0  0  0  0
    3.1489  -25.1601   47.3075 C   0  0  0  0  0  0  0  0  0  0  0  0
    2.9081  -23.8913   42.8172 O   0  0  0  0  0  0  0  0  0  0  0  0
    6.0000  -19.8765   46.1883 C   0  0  0  0  0  0  0  0  0  0  0  0
    7.0803  -19.7952   45.3426 C   0  0  0  0  0  0  0  0  0  0  0  0
    4.8979  -21.4472   44.7693 C   0  0  0  0  0  0  0  0  0  0  0  0
    3.8732  -23.0203   43.2763 C   0  0  0  0  0  0  0  0  0  0  0  0
    4.9259  -20.6728   45.9559 C   0  0  0  0  0  0  0  0  0  0  0  0
    0.7722  -22.9721   42.4223 C   0  0  0  0  0  0  0  0  0  0  0  0
    1.5904  -23.8240   43.3691 C   0  0  1  0  0  0  0  0  0  0  0  0
    1.0240  -25.2264   43.5062 C   0  0  0  0  0  0  0  0  0  0  0  0
    0.8054  -27.4470   44.4765 C   0  0  0  0  0  0  0  0  0  0  0  0
    0.1482  -25.5684   42.5509 N   0  0  0  0  0  0  0  0  0  0  0  0
   -1.2838  -27.0407   41.5925 O   0  0  0  0  0  0  0  0  0  0  0  0
    2.3561  -25.8800   45.4766 N   0  0  0  0  0  0  0  0  0  0  0  0
    3.6715  -26.2189   45.4643 C   0  0  0  0  0  0  0  0  0  0  0  0
    4.2072  -25.7692   46.6329 C   0  0  0  0  0  0  0  0  0  0  0  0
    2.0163  -25.2105   46.6143 N   0  0  0  0  0  0  0  0  0  0  0  0
    3.8214  -22.3031   44.4394 C   0  0  0  0  0  0  0  0  0  0  0  0
    7.0812  -20.5244   44.1872 C   0  0  0  0  0  0  0  0  0  0  0  0
    5.9945  -21.3680   43.8688 C   0  0  0  0  0  0  0  0  0  0  0  0
    6.0371  -22.0945   42.7056 N   0  0  0  0  0  0  0  0  0  0  0  0
    5.0063  -22.8998   42.4351 C   0  0  0  0  0  0  0  0  0  0  0  0
    5.0747  -23.6815   41.3459 N   0  0  0  0  0  0  0  0  0  0  0  0
    6.0018  -19.1055   47.3022 F   0  0  0  0  0  0  0  0  0  0  0  0
   -0.5030  -28.7987   43.3956 H   0  0  0  0  0  0  0  0  0  0  0  0
    3.2413  -24.6922   48.2987 H   0  0  0  0  0  0  0  0  0  0  0  0
    7.9351  -19.1500   45.5933 H   0  0  0  0  0  0  0  0  0  0  0  0
    4.0938  -20.7163   46.6740 H   0  0  0  0  0  0  0  0  0  0  0  0
    0.1247  -22.2979   43.0022 H   0  0  0  0  0  0  0  0  0  0  0  0
    1.4464  -22.3775   41.7883 H   0  0  0  0  0  0  0  0  0  0  0  0
    0.1509  -23.6218   41.7883 H   0  0  0  0  0  0  0  0  0  0  0  0
    1.5819  -23.3788   44.3749 H   0  0  0  0  0  0  0  0  0  0  0  0
    1.0577  -28.1746   45.2620 H   0  0  0  0  0  0  0  0  0  0  0  0
   -0.1178  -24.8794   41.8329 H   0  0  0  0  0  0  0  0  0  0  0  0
    4.2025  -26.7542   44.6634 H   0  0  0  0  0  0  0  0  0  0  0  0
    5.2493  -25.8656   46.9716 H   0  0  0  0  0  0  0  0  0  0  0  0
    2.9536  -22.3906   45.1098 H   0  0  0  0  0  0  0  0  0  0  0  0
    7.9361  -20.4536   43.4987 H   0  0  0  0  0  0  0  0  0  0  0  0
    5.8866  -23.6163   40.7153 H   0  0  0  0  0  0  0  0  0  0  0  0
    4.3155  -24.3466   41.1407 H   0  0  0  0  0  0  0  0  0  0  0  0
  1 13  2  0
  1 14  1  0
  1 17  1  0
  2  3  1  0
  2 15  1  0
  2 16  2  0
  3 14  2  0
  4 19  1  0
  4 20  2  0
  5  9  1  0
  5 12  1  0
  6  7  2  0
  6 10  1  0
  6 27  1  0
  7 22  1  0
  8 10  2  0
  8 21  1  0
  8 23  1  0
  9 21  2  0
  9 25  1  0
 12 11  1  0
 12 13  1  0
 13 15  1  0
 17 18  1  0
 17 20  1  0
 18 19  2  0
 22 23  2  0
 23 24  1  0
 24 25  2  0
 25 26  1  0
  3 28  1  0
  4 29  1  0
  7 30  1  0
 10 31  1  0
 11 32  1  0
 11 33  1  0
 11 34  1  0
 12 35  1  1
 14 36  1  0
 15 37  1  0
 18 38  1  0
 19 39  1  0
 21 40  1  0
 22 41  1  0
 26 42  1  0
 26 43  1  0
M  END
>  <filename_input>  (18) 
7JY3_VUD_docked.sdf

>  <pdb_id>  (18) 
7JY3_VUD

>  <pose_rank>  (18) 
17

>  <num_atoms_heavy>  (18) 
27

>  <num_torsions>  (18) 
4

>  <pose>  (18) 
[0.7721562546379953, -22.97208270890869, 42.42227939419998, -2.998924480881147, -1.991500053845311, -1.645645297789808, -1.0229190616113653, 3.3631400835197884, -1.1984338322021686, 0.414647638585891]

>  <energy>  (18) 
-421.6869618070028

>  <inter_energy>  (18) 
-422.34010011051583

>  <intra_energy>  (18) 
1.379154707896975

>  <rmsd>  (18) 
4.70984

>  <sdf_rank>  (18) 
0

$$$$

     RDKit          3D

 43 46  0  0  0  0  0  0  0  0999 V2000
    6.4086  -18.9380   43.6154 C   0  0  0  0  0  0  0  0  0  0  0  0
    5.2554  -17.7912   45.7864 C   0  0  0  0  0  0  0  0  0  0  0  0
    6.0915  -17.0041   44.9920 C   0  0  0  0  0  0  0  0  0  0  0  0
    8.5721  -20.7260   41.5507 C   0  0  0  0  0  0  0  0  0  0  0  0
    4.8143  -21.6769   45.5969 O   0  0  0  0  0  0  0  0  0  0  0  0
    9.1073  -22.3787   49.8537 C   0  0  0  0  0  0  0  0  0  0  0  0
    9.1673  -23.7485   49.7590 C   0  0  0  0  0  0  0  0  0  0  0  0
    7.4247  -22.2493   48.1663 C   0  0  0  0  0  0  0  0  0  0  0  0
    5.7374  -22.2256   46.4616 C   0  0  0  0  0  0  0  0  0  0  0  0
    8.2694  -21.6131   49.1097 C   0  0  0  0  0  0  0  0  0  0  0  0
    4.1357  -21.4289   43.3517 C   0  0  0  0  0  0  0  0  0  0  0  0
    5.2576  -21.1710   44.3348 C   0  0  1  0  0  0  0  0  0  0  0  0
    5.5732  -19.6910   44.4624 C   0  0  0  0  0  0  0  0  0  0  0  0
    6.6558  -17.5933   43.8724 C   0  0  0  0  0  0  0  0  0  0  0  0
    5.0115  -19.0918   45.5217 N   0  0  0  0  0  0  0  0  0  0  0  0
    4.6184  -17.2641   46.8030 O   0  0  0  0  0  0  0  0  0  0  0  0
    7.0957  -19.5568   42.5264 N   0  0  0  0  0  0  0  0  0  0  0  0
    6.7371  -19.5805   41.2164 C   0  0  0  0  0  0  0  0  0  0  0  0
    7.6695  -20.3286   40.5641 C   0  0  0  0  0  0  0  0  0  0  0  0
    8.2431  -20.2578   42.7500 N   0  0  0  0  0  0  0  0  0  0  0  0
    6.5215  -21.5360   47.3445 C   0  0  0  0  0  0  0  0  0  0  0  0
    8.3704  -24.3916   48.8545 C   0  0  0  0  0  0  0  0  0  0  0  0
    7.4798  -23.6635   48.0358 C   0  0  0  0  0  0  0  0  0  0  0  0
    6.6862  -24.3455   47.1482 N   0  0  0  0  0  0  0  0  0  0  0  0
    5.8383  -23.6370   46.3977 C   0  0  0  0  0  0  0  0  0  0  0  0
    4.9947  -24.2981   45.5893 N   0  0  0  0  0  0  0  0  0  0  0  0
    9.9435  -21.7617   50.7227 F   0  0  0  0  0  0  0  0  0  0  0  0
    6.2948  -15.9533   45.2462 H   0  0  0  0  0  0  0  0  0  0  0  0
    9.4543  -21.3543   41.3581 H   0  0  0  0  0  0  0  0  0  0  0  0
    9.8496  -24.3209   50.4046 H   0  0  0  0  0  0  0  0  0  0  0  0
    8.2463  -20.5207   49.2365 H   0  0  0  0  0  0  0  0  0  0  0  0
    3.2075  -21.6422   43.9022 H   0  0  0  0  0  0  0  0  0  0  0  0
    3.9910  -20.5406   42.7192 H   0  0  0  0  0  0  0  0  0  0  0  0
    4.3933  -22.2912   42.7192 H   0  0  0  0  0  0  0  0  0  0  0  0
    6.1786  -21.6629   43.9886 H   0  0  0  0  0  0  0  0  0  0  0  0
    7.2918  -17.0049   43.1947 H   0  0  0  0  0  0  0  0  0  0  0  0
    4.3874  -19.6295   46.1399 H   0  0  0  0  0  0  0  0  0  0  0  0
    5.8608  -19.0893   40.7682 H   0  0  0  0  0  0  0  0  0  0  0  0
    7.7036  -20.5678   39.4909 H   0  0  0  0  0  0  0  0  0  0  0  0
    6.4506  -20.4405   47.4146 H   0  0  0  0  0  0  0  0  0  0  0  0
    8.4231  -25.4866   48.7634 H   0  0  0  0  0  0  0  0  0  0  0  0
    5.0442  -25.3247   45.5219 H   0  0  0  0  0  0  0  0  0  0  0  0
    4.2980  -23.7787   45.0363 H   0  0  0  0  0  0  0  0  0  0  0  0
  1 13  2  0
  1 14  1  0
  1 17  1  0
  2  3  1  0
  2 15  1  0
  2 16  2  0
  3 14  2  0
  4 19  1  0
  4 20  2  0
  5  9  1  0
  5 12  1  0
  6  7  2  0
  6 10  1  0
  6 27  1  0
  7 22  1  0
  8 10  2  0
  8 21  1  0
  8 23  1  0
  9 21  2  0
  9 25  1  0
 12 11  1  0
 12 13  1  0
 13 15  1  0
 17 18  1  0
 17 20  1  0
 18 19  2  0
 22 23  2  0
 23 24  1  0
 24 25  2  0
 25 26  1  0
  3 28  1  0
  4 29  1  0
  7 30  1  0
 10 31  1  0
 11 32  1  0
 11 33  1  0
 11 34  1  0
 12 35  1  6
 14 36  1  0
 15 37  1  0
 18 38  1  0
 19 39  1  0
 21 40  1  0
 22 41  1  0
 26 42  1  0
 26 43  1  0
M  END
>  <filename_input>  (19) 
7JY3_VUD_docked.sdf

>  <pdb_id>  (19) 
7JY3_VUD

>  <pose_rank>  (19) 
18

>  <num_atoms_heavy>  (19) 
27

>  <num_torsions>  (19) 
4

>  <pose>  (19) 
[4.135682416984128, -21.428858434856025, 43.35166907954699, 0.40377599898578487, -0.07029236960590059, -1.549900625937633, -31.001224073573628, 6.768385811884649, -0.32554213599134285, 7.8612126833175875]

>  <energy>  (19) 
-543.8004327570393

>  <inter_energy>  (19) 
-543.5508293918209

>  <intra_energy>  (19) 
12.738642203935186

>  <rmsd>  (19) 
5.11604

>  <sdf_rank>  (19) 
0

$$$$

     RDKit          3D

 43 46  0  0  0  0  0  0  0  0999 V2000
    6.2711  -19.3681   47.1221 C   0  0  0  0  0  0  0  0  0  0  0  0
    5.2922  -17.7383   45.1872 C   0  0  0  0  0  0  0  0  0  0  0  0
    5.0852  -17.3765   46.5199 C   0  0  0  0  0  0  0  0  0  0  0  0
    6.5143  -21.7176   49.6837 C   0  0  0  0  0  0  0  0  0  0  0  0
    6.4468  -22.1051   45.7638 O   0  0  0  0  0  0  0  0  0  0  0  0
    1.6237  -24.0261   42.5873 C   0  0  0  0  0  0  0  0  0  0  0  0
    2.2063  -25.1919   42.1510 C   0  0  0  0  0  0  0  0  0  0  0  0
    3.5847  -23.3957   43.7925 C   0  0  0  0  0  0  0  0  0  0  0  0
    5.6020  -22.8526   44.9711 C   0  0  0  0  0  0  0  0  0  0  0  0
    2.2587  -23.1212   43.3745 C   0  0  0  0  0  0  0  0  0  0  0  0
    6.9247  -21.0558   43.7062 C   0  0  0  0  0  0  0  0  0  0  0  0
    7.0831  -20.9511   45.2081 C   0  0  1  0  0  0  0  0  0  0  0  0
    6.4334  -19.6954   45.7624 C   0  0  0  0  0  0  0  0  0  0  0  0
    5.6103  -18.2035   47.4994 C   0  0  0  0  0  0  0  0  0  0  0  0
    5.9458  -18.8639   44.8310 N   0  0  0  0  0  0  0  0  0  0  0  0
    4.9025  -16.9476   44.2178 O   0  0  0  0  0  0  0  0  0  0  0  0
    6.6980  -20.2670   48.1472 N   0  0  0  0  0  0  0  0  0  0  0  0
    7.9694  -20.5817   48.5074 C   0  0  0  0  0  0  0  0  0  0  0  0
    7.8816  -21.5158   49.4945 C   0  0  0  0  0  0  0  0  0  0  0  0
    5.7787  -20.9590   48.8779 N   0  0  0  0  0  0  0  0  0  0  0  0
    4.3254  -22.5156   44.6152 C   0  0  0  0  0  0  0  0  0  0  0  0
    3.4814  -25.4891   42.5417 C   0  0  0  0  0  0  0  0  0  0  0  0
    4.2042  -24.6030   43.3700 C   0  0  0  0  0  0  0  0  0  0  0  0
    5.4870  -24.9297   43.7311 N   0  0  0  0  0  0  0  0  0  0  0  0
    6.1575  -24.0672   44.4997 C   0  0  0  0  0  0  0  0  0  0  0  0
    7.4417  -24.3322   44.7874 N   0  0  0  0  0  0  0  0  0  0  0  0
    0.3415  -23.7793   42.2266 F   0  0  0  0  0  0  0  0  0  0  0  0
    4.5250  -16.4670   46.7826 H   0  0  0  0  0  0  0  0  0  0  0  0
    6.0936  -22.4232   50.4153 H   0  0  0  0  0  0  0  0  0  0  0  0
    1.6518  -25.8784   41.4943 H   0  0  0  0  0  0  0  0  0  0  0  0
    1.7544  -22.1932   43.6818 H   0  0  0  0  0  0  0  0  0  0  0  0
    6.0281  -21.6486   43.4725 H   0  0  0  0  0  0  0  0  0  0  0  0
    6.8202  -20.0483   43.2774 H   0  0  0  0  0  0  0  0  0  0  0  0
    7.8108  -21.5467   43.2774 H   0  0  0  0  0  0  0  0  0  0  0  0
    8.1505  -20.8974   45.4687 H   0  0  0  0  0  0  0  0  0  0  0  0
    5.5060  -17.9425   48.5629 H   0  0  0  0  0  0  0  0  0  0  0  0
    6.0713  -19.0864   43.8331 H   0  0  0  0  0  0  0  0  0  0  0  0
    8.8934  -20.1621   48.0829 H   0  0  0  0  0  0  0  0  0  0  0  0
    8.7099  -22.0055   50.0275 H   0  0  0  0  0  0  0  0  0  0  0  0
    3.8804  -21.5722   44.9643 H   0  0  0  0  0  0  0  0  0  0  0  0
    3.9490  -26.4271   42.2078 H   0  0  0  0  0  0  0  0  0  0  0  0
    7.8732  -25.2075   44.4581 H   0  0  0  0  0  0  0  0  0  0  0  0
    7.9956  -23.6601   45.3373 H   0  0  0  0  0  0  0  0  0  0  0  0
  1 13  2  0
  1 14  1  0
  1 17  1  0
  2  3  1  0
  2 15  1  0
  2 16  2  0
  3 14  2  0
  4 19  1  0
  4 20  2  0
  5  9  1  0
  5 12  1  0
  6  7  2  0
  6 10  1  0
  6 27  1  0
  7 22  1  0
  8 10  2  0
  8 21  1  0
  8 23  1  0
  9 21  2  0
  9 25  1  0
 12 11  1  0
 12 13  1  0
 13 15  1  0
 17 18  1  0
 17 20  1  0
 18 19  2  0
 22 23  2  0
 23 24  1  0
 24 25  2  0
 25 26  1  0
  3 28  1  0
  4 29  1  0
  7 30  1  0
 10 31  1  0
 11 32  1  0
 11 33  1  0
 11 34  1  0
 12 35  1  6
 14 36  1  0
 15 37  1  0
 18 38  1  0
 19 39  1  0
 21 40  1  0
 22 41  1  0
 26 42  1  0
 26 43  1  0
M  END
>  <filename_input>  (20) 
7JY3_VUD_docked.sdf

>  <pdb_id>  (20) 
7JY3_VUD

>  <pose_rank>  (20) 
19

>  <num_atoms_heavy>  (20) 
27

>  <num_torsions>  (20) 
4

>  <pose>  (20) 
[6.924738850647474, -21.05584518441682, 43.70616782447108, -3.7620227933974713, 0.5820531028483046, 2.989141353363992, -1.3960080609922878, 0.006037093039067899, -3.140094800199493, -1.2164340258836202]

>  <energy>  (20) 
-542.0272782345309

>  <inter_energy>  (20) 
-568.6143414665581

>  <intra_energy>  (20) 
40.068083224536764

>  <rmsd>  (20) 
6.74884

>  <sdf_rank>  (20) 
0

$$$$

     RDKit          3D

 43 46  0  0  0  0  0  0  0  0999 V2000
    6.1541  -18.6154   42.9428 C   0  0  0  0  0  0  0  0  0  0  0  0
    6.2982  -17.1496   45.2207 C   0  0  0  0  0  0  0  0  0  0  0  0
    6.8019  -16.5901   44.0447 C   0  0  0  0  0  0  0  0  0  0  0  0
    6.9405  -20.7663   40.3167 C   0  0  0  0  0  0  0  0  0  0  0  0
    5.4051  -21.3551   43.2550 O   0  0  0  0  0  0  0  0  0  0  0  0
    0.5397  -24.8749   42.2647 C   0  0  0  0  0  0  0  0  0  0  0  0
    1.2527  -26.0258   42.0283 C   0  0  0  0  0  0  0  0  0  0  0  0
    2.5318  -23.6130   42.6309 C   0  0  0  0  0  0  0  0  0  0  0  0
    4.5909  -22.4334   42.9813 C   0  0  0  0  0  0  0  0  0  0  0  0
    1.1187  -23.6809   42.5488 C   0  0  0  0  0  0  0  0  0  0  0  0
    5.7280  -21.2088   45.5869 C   0  0  0  0  0  0  0  0  0  0  0  0
    5.1096  -20.5286   44.3841 C   0  0  1  0  0  0  0  0  0  0  0  0
    5.6801  -19.1390   44.1608 C   0  0  0  0  0  0  0  0  0  0  0  0
    6.7012  -17.3378   42.8828 C   0  0  0  0  0  0  0  0  0  0  0  0
    5.7576  -18.3852   45.2664 N   0  0  0  0  0  0  0  0  0  0  0  0
    6.2789  -16.4532   46.3305 O   0  0  0  0  0  0  0  0  0  0  0  0
    6.1704  -19.4154   41.7592 N   0  0  0  0  0  0  0  0  0  0  0  0
    5.1572  -19.6287   40.8799 C   0  0  0  0  0  0  0  0  0  0  0  0
    5.6244  -20.4969   39.9405 C   0  0  0  0  0  0  0  0  0  0  0  0
    7.2925  -20.1094   41.4169 N   0  0  0  0  0  0  0  0  0  0  0  0
    3.2247  -22.4155   42.9244 C   0  0  0  0  0  0  0  0  0  0  0  0
    2.6165  -25.9952   42.1061 C   0  0  0  0  0  0  0  0  0  0  0  0
    3.2923  -24.7928   42.4082 C   0  0  0  0  0  0  0  0  0  0  0  0
    4.6633  -24.7985   42.4652 N   0  0  0  0  0  0  0  0  0  0  0  0
    5.2812  -23.6453   42.7341 C   0  0  0  0  0  0  0  0  0  0  0  0
    6.6230  -23.6175   42.7060 N   0  0  0  0  0  0  0  0  0  0  0  0
   -0.8128  -24.9436   42.2305 F   0  0  0  0  0  0  0  0  0  0  0  0
    7.2623  -15.5911   44.0410 H   0  0  0  0  0  0  0  0  0  0  0  0
    7.6095  -21.4440   39.7662 H   0  0  0  0  0  0  0  0  0  0  0  0
    0.7311  -26.9615   41.7790 H   0  0  0  0  0  0  0  0  0  0  0  0
    0.5035  -22.7837   42.7120 H   0  0  0  0  0  0  0  0  0  0  0  0
    5.3235  -20.7639   46.5080 H   0  0  0  0  0  0  0  0  0  0  0  0
    5.4904  -22.2826   45.5633 H   0  0  0  0  0  0  0  0  0  0  0  0
    6.8195  -21.0743   45.5633 H   0  0  0  0  0  0  0  0  0  0  0  0
    4.0275  -20.4060   44.5392 H   0  0  0  0  0  0  0  0  0  0  0  0
    7.0497  -16.9260   41.9241 H   0  0  0  0  0  0  0  0  0  0  0  0
    5.4010  -18.7529   46.1600 H   0  0  0  0  0  0  0  0  0  0  0  0
    4.1515  -19.1849   40.9192 H   0  0  0  0  0  0  0  0  0  0  0  0
    5.0813  -20.8990   39.0725 H   0  0  0  0  0  0  0  0  0  0  0  0
    2.6718  -21.4818   43.1045 H   0  0  0  0  0  0  0  0  0  0  0  0
    3.1931  -26.9156   41.9319 H   0  0  0  0  0  0  0  0  0  0  0  0
    7.1525  -24.4830   42.5286 H   0  0  0  0  0  0  0  0  0  0  0  0
    7.1232  -22.7306   42.8618 H   0  0  0  0  0  0  0  0  0  0  0  0
  1 13  2  0
  1 14  1  0
  1 17  1  0
  2  3  1  0
  2 15  1  0
  2 16  2  0
  3 14  2  0
  4 19  1  0
  4 20  2  0
  5  9  1  0
  5 12  1  0
  6  7  2  0
  6 10  1  0
  6 27  1  0
  7 22  1  0
  8 10  2  0
  8 21  1  0
  8 23  1  0
  9 21  2  0
  9 25  1  0
 12 11  1  0
 12 13  1  0
 13 15  1  0
 17 18  1  0
 17 20  1  0
 18 19  2  0
 22 23  2  0
 23 24  1  0
 24 25  2  0
 25 26  1  0
  3 28  1  0
  4 29  1  0
  7 30  1  0
 10 31  1  0
 11 32  1  0
 11 33  1  0
 11 34  1  0
 12 35  1  1
 14 36  1  0
 15 37  1  0
 18 38  1  0
 19 39  1  0
 21 40  1  0
 22 41  1  0
 26 42  1  0
 26 43  1  0
M  END
>  <filename_input>  (21) 
7JY3_VUD_docked.sdf

>  <pdb_id>  (21) 
7JY3_VUD

>  <pose_rank>  (21) 
20

>  <num_atoms_heavy>  (21) 
27

>  <num_torsions>  (21) 
4

>  <pose>  (21) 
[5.728005106165367, -21.208842913046283, 45.586860496384915, 1.428993167979609, -2.6997825345318978, 0.8842124633920498, 4.170314316356138, 0.24264308589646724, 17.431627376791713, 13.524425389609622]

>  <energy>  (21) 
-540.0547492244573

>  <inter_energy>  (21) 
-583.7125377621311

>  <intra_energy>  (21) 
54.89411856876316

>  <rmsd>  (21) 
6.32993

>  <sdf_rank>  (21) 
0

$$$$

     RDKit          3D

 43 46  0  0  0  0  0  0  0  0999 V2000
    8.9722  -22.6135   47.7992 C   0  0  0  0  0  0  0  0  0  0  0  0
    8.5825  -21.0795   50.0022 C   0  0  0  0  0  0  0  0  0  0  0  0
    8.7967  -22.4475   50.1819 C   0  0  0  0  0  0  0  0  0  0  0  0
    8.4762  -24.8465   45.1707 C   0  0  0  0  0  0  0  0  0  0  0  0
    7.2195  -20.2475   46.0770 O   0  0  0  0  0  0  0  0  0  0  0  0
    5.9514  -22.0836   40.4145 C   0  0  0  0  0  0  0  0  0  0  0  0
    5.4416  -20.8786   39.9940 C   0  0  0  0  0  0  0  0  0  0  0  0
    6.3975  -21.2308   42.5983 C   0  0  0  0  0  0  0  0  0  0  0  0
    6.8070  -20.2794   44.7619 C   0  0  0  0  0  0  0  0  0  0  0  0
    6.4148  -22.3024   41.6712 C   0  0  0  0  0  0  0  0  0  0  0  0
    9.2273  -19.0769   46.4789 C   0  0  0  0  0  0  0  0  0  0  0  0
    8.6026  -20.4522   46.3778 C   0  0  1  0  0  0  0  0  0  0  0  0
    8.7313  -21.2320   47.6746 C   0  0  0  0  0  0  0  0  0  0  0  0
    9.0186  -23.2173   49.0517 C   0  0  0  0  0  0  0  0  0  0  0  0
    8.5519  -20.5008   48.7835 N   0  0  0  0  0  0  0  0  0  0  0  0
    8.4619  -20.2861   51.0380 O   0  0  0  0  0  0  0  0  0  0  0  0
    9.0826  -23.4446   46.6424 N   0  0  0  0  0  0  0  0  0  0  0  0
   10.1089  -23.5107   45.7550 C   0  0  0  0  0  0  0  0  0  0  0  0
    9.7450  -24.4050   44.7946 C   0  0  0  0  0  0  0  0  0  0  0  0
    8.0610  -24.2787   46.2981 N   0  0  0  0  0  0  0  0  0  0  0  0
    6.8618  -21.3616   43.9278 C   0  0  0  0  0  0  0  0  0  0  0  0
    5.4168  -19.8236   40.8619 C   0  0  0  0  0  0  0  0  0  0  0  0
    5.8919  -19.9690   42.1836 C   0  0  0  0  0  0  0  0  0  0  0  0
    5.8391  -18.8904   43.0301 N   0  0  0  0  0  0  0  0  0  0  0  0
    6.2768  -19.0571   44.2810 C   0  0  0  0  0  0  0  0  0  0  0  0
    6.1495  -18.0367   45.1440 N   0  0  0  0  0  0  0  0  0  0  0  0
    6.0106  -23.0989   39.5197 F   0  0  0  0  0  0  0  0  0  0  0  0
    8.7896  -22.8981   51.1854 H   0  0  0  0  0  0  0  0  0  0  0  0
    7.8876  -25.5798   44.6000 H   0  0  0  0  0  0  0  0  0  0  0  0
    5.0576  -20.7646   38.9695 H   0  0  0  0  0  0  0  0  0  0  0  0
    6.7961  -23.2917   41.9641 H   0  0  0  0  0  0  0  0  0  0  0  0
    9.3500  -18.8068   47.5381 H   0  0  0  0  0  0  0  0  0  0  0  0
   10.2107  -19.0837   45.9860 H   0  0  0  0  0  0  0  0  0  0  0  0
    8.5752  -18.3408   45.9860 H   0  0  0  0  0  0  0  0  0  0  0  0
    9.1155  -21.0397   45.6021 H   0  0  0  0  0  0  0  0  0  0  0  0
    9.2290  -24.2931   49.1435 H   0  0  0  0  0  0  0  0  0  0  0  0
    8.3890  -19.4868   48.7047 H   0  0  0  0  0  0  0  0  0  0  0  0
   11.0535  -22.9491   45.8029 H   0  0  0  0  0  0  0  0  0  0  0  0
   10.3260  -24.7128   43.9127 H   0  0  0  0  0  0  0  0  0  0  0  0
    7.2620  -22.3215   44.2862 H   0  0  0  0  0  0  0  0  0  0  0  0
    5.0232  -18.8522   40.5279 H   0  0  0  0  0  0  0  0  0  0  0  0
    5.7670  -17.1357   44.8233 H   0  0  0  0  0  0  0  0  0  0  0  0
    6.4342  -18.1549   46.1267 H   0  0  0  0  0  0  0  0  0  0  0  0
  1 13  2  0
  1 14  1  0
  1 17  1  0
  2  3  1  0
  2 15  1  0
  2 16  2  0
  3 14  2  0
  4 19  1  0
  4 20  2  0
  5  9  1  0
  5 12  1  0
  6  7  2  0
  6 10  1  0
  6 27  1  0
  7 22  1  0
  8 10  2  0
  8 21  1  0
  8 23  1  0
  9 21  2  0
  9 25  1  0
 12 11  1  0
 12 13  1  0
 13 15  1  0
 17 18  1  0
 17 20  1  0
 18 19  2  0
 22 23  2  0
 23 24  1  0
 24 25  2  0
 25 26  1  0
  3 28  1  0
  4 29  1  0
  7 30  1  0
 10 31  1  0
 11 32  1  0
 11 33  1  0
 11 34  1  0
 12 35  1  6
 14 36  1  0
 15 37  1  0
 18 38  1  0
 19 39  1  0
 21 40  1  0
 22 41  1  0
 26 42  1  0
 26 43  1  0
M  END
>  <filename_input>  (22) 
7JY3_VUD_docked.sdf

>  <pdb_id>  (22) 
7JY3_VUD

>  <pose_rank>  (22) 
21

>  <num_atoms_heavy>  (22) 
27

>  <num_torsions>  (22) 
4

>  <pose>  (22) 
[9.227295327338451, -19.07689267478276, 46.47887198628994, 2.511502924167257, 0.34378451453266373, -2.298250538946048, -0.6135985255973976, 0.044632529978943306, -1.2260136904716037, 1.226750730088135]

>  <energy>  (22) 
-463.05451922115856

>  <inter_energy>  (22) 
-455.7953651047676

>  <intra_energy>  (22) 
4.900808882688204

>  <rmsd>  (22) 
7.20528

>  <sdf_rank>  (22) 
0

$$$$

     RDKit          3D

 43 46  0  0  0  0  0  0  0  0999 V2000
    7.1199  -19.8325   44.0251 C   0  0  0  0  0  0  0  0  0  0  0  0
    5.2760  -18.8338   45.7458 C   0  0  0  0  0  0  0  0  0  0  0  0
    6.6264  -18.6800   46.0656 C   0  0  0  0  0  0  0  0  0  0  0  0
    9.3152  -21.9800   42.3788 C   0  0  0  0  0  0  0  0  0  0  0  0
    3.7922  -21.1153   42.9244 O   0  0  0  0  0  0  0  0  0  0  0  0
    3.4238  -26.6521   45.4245 C   0  0  0  0  0  0  0  0  0  0  0  0
    2.7716  -27.2348   44.3643 C   0  0  0  0  0  0  0  0  0  0  0  0
    3.5003  -24.5351   44.3256 C   0  0  0  0  0  0  0  0  0  0  0  0
    3.5270  -22.4513   43.1378 C   0  0  0  0  0  0  0  0  0  0  0  0
    3.7854  -25.3444   45.4534 C   0  0  0  0  0  0  0  0  0  0  0  0
    5.0097  -19.8346   41.3621 C   0  0  0  0  0  0  0  0  0  0  0  0
    5.1234  -20.7149   42.5885 C   0  0  1  0  0  0  0  0  0  0  0  0
    5.7445  -19.9778   43.7621 C   0  0  0  0  0  0  0  0  0  0  0  0
    7.5597  -19.1725   45.1680 C   0  0  0  0  0  0  0  0  0  0  0  0
    4.8593  -19.4647   44.6280 N   0  0  0  0  0  0  0  0  0  0  0  0
    4.3502  -18.3053   46.5077 O   0  0  0  0  0  0  0  0  0  0  0  0
    8.0956  -20.4382   43.1752 N   0  0  0  0  0  0  0  0  0  0  0  0
    8.7506  -19.8806   42.1239 C   0  0  0  0  0  0  0  0  0  0  0  0
    9.5422  -20.8518   41.5903 C   0  0  0  0  0  0  0  0  0  0  0  0
    8.4438  -21.7438   43.3539 N   0  0  0  0  0  0  0  0  0  0  0  0
    3.8412  -23.1640   44.2618 C   0  0  0  0  0  0  0  0  0  0  0  0
    2.4879  -26.4832   43.2592 C   0  0  0  0  0  0  0  0  0  0  0  0
    2.8425  -25.1174   43.2084 C   0  0  0  0  0  0  0  0  0  0  0  0
    2.5296  -24.3918   42.0866 N   0  0  0  0  0  0  0  0  0  0  0  0
    2.8582  -23.0973   42.0693 C   0  0  0  0  0  0  0  0  0  0  0  0
    2.4799  -22.3559   41.0160 N   0  0  0  0  0  0  0  0  0  0  0  0
    3.7377  -27.4314   46.4872 F   0  0  0  0  0  0  0  0  0  0  0  0
    6.9382  -18.1853   46.9973 H   0  0  0  0  0  0  0  0  0  0  0  0
    9.8013  -22.9527   42.2126 H   0  0  0  0  0  0  0  0  0  0  0  0
    2.4811  -28.2949   44.4051 H   0  0  0  0  0  0  0  0  0  0  0  0
    4.2898  -24.9211   46.3346 H   0  0  0  0  0  0  0  0  0  0  0  0
    4.8745  -18.7882   41.6731 H   0  0  0  0  0  0  0  0  0  0  0  0
    5.9267  -19.9229   40.7610 H   0  0  0  0  0  0  0  0  0  0  0  0
    4.1452  -20.1531   40.7610 H   0  0  0  0  0  0  0  0  0  0  0  0
    5.7754  -21.5742   42.3727 H   0  0  0  0  0  0  0  0  0  0  0  0
    8.6356  -19.0431   45.3568 H   0  0  0  0  0  0  0  0  0  0  0  0
    3.8508  -19.5528   44.4382 H   0  0  0  0  0  0  0  0  0  0  0  0
    8.6590  -18.8428   41.7709 H   0  0  0  0  0  0  0  0  0  0  0  0
   10.2152  -20.7654   40.7245 H   0  0  0  0  0  0  0  0  0  0  0  0
    4.3525  -22.6772   45.1053 H   0  0  0  0  0  0  0  0  0  0  0  0
    1.9787  -26.9463   42.4011 H   0  0  0  0  0  0  0  0  0  0  0  0
    1.9917  -22.7978   40.2240 H   0  0  0  0  0  0  0  0  0  0  0  0
    2.6780  -21.3453   40.9998 H   0  0  0  0  0  0  0  0  0  0  0  0
  1 13  2  0
  1 14  1  0
  1 17  1  0
  2  3  1  0
  2 15  1  0
  2 16  2  0
  3 14  2  0
  4 19  1  0
  4 20  2  0
  5  9  1  0
  5 12  1  0
  6  7  2  0
  6 10  1  0
  6 27  1  0
  7 22  1  0
  8 10  2  0
  8 21  1  0
  8 23  1  0
  9 21  2  0
  9 25  1  0
 12 11  1  0
 12 13  1  0
 13 15  1  0
 17 18  1  0
 17 20  1  0
 18 19  2  0
 22 23  2  0
 23 24  1  0
 24 25  2  0
 25 26  1  0
  3 28  1  0
  4 29  1  0
  7 30  1  0
 10 31  1  0
 11 32  1  0
 11 33  1  0
 11 34  1  0
 12 35  1  6
 14 36  1  0
 15 37  1  0
 18 38  1  0
 19 39  1  0
 21 40  1  0
 22 41  1  0
 26 42  1  0
 26 43  1  0
M  END
>  <filename_input>  (23) 
7JY3_VUD_docked.sdf

>  <pdb_id>  (23) 
7JY3_VUD

>  <pose_rank>  (23) 
22

>  <num_atoms_heavy>  (23) 
27

>  <num_torsions>  (23) 
4

>  <pose>  (23) 
[5.009679327205073, -19.834634994273493, 41.362072949628235, 1.4429131644343, -0.27225419306235865, -1.9830206395339849, 0.3815828520251103, 0.4177781666155736, 5.6682976005243155, -4.832336539149857]

>  <energy>  (23) 
-482.0850898314248

>  <inter_energy>  (23) 
-477.36455121243864

>  <intra_energy>  (23) 
2.987900151980736

>  <rmsd>  (23) 
6.29164

>  <sdf_rank>  (23) 
0

$$$$

     RDKit          3D

 43 46  0  0  0  0  0  0  0  0999 V2000
    6.1921  -21.4236   42.7357 C   0  0  0  0  0  0  0  0  0  0  0  0
    7.5723  -19.6270   44.2276 C   0  0  0  0  0  0  0  0  0  0  0  0
    7.1177  -19.2272   42.9693 C   0  0  0  0  0  0  0  0  0  0  0  0
    5.3723  -23.8739   40.3980 C   0  0  0  0  0  0  0  0  0  0  0  0
    7.8878  -23.5583   45.1047 O   0  0  0  0  0  0  0  0  0  0  0  0
    8.8417  -19.9672   49.9251 C   0  0  0  0  0  0  0  0  0  0  0  0
   10.1733  -20.2782   50.0625 C   0  0  0  0  0  0  0  0  0  0  0  0
    8.6095  -21.4132   48.0409 C   0  0  0  0  0  0  0  0  0  0  0  0
    8.4796  -22.8914   46.1562 C   0  0  0  0  0  0  0  0  0  0  0  0
    8.0432  -20.5024   48.9672 C   0  0  0  0  0  0  0  0  0  0  0  0
    5.7052  -23.1231   45.8858 C   0  0  0  0  0  0  0  0  0  0  0  0
    6.5927  -23.1461   44.6595 C   0  0  1  0  0  0  0  0  0  0  0  0
    6.6912  -21.7803   44.0030 C   0  0  0  0  0  0  0  0  0  0  0  0
    6.3933  -20.1448   42.2262 C   0  0  0  0  0  0  0  0  0  0  0  0
    7.3611  -20.8661   44.7186 N   0  0  0  0  0  0  0  0  0  0  0  0
    8.1797  -18.7735   45.0147 O   0  0  0  0  0  0  0  0  0  0  0  0
    5.5487  -22.3906   41.9038 N   0  0  0  0  0  0  0  0  0  0  0  0
    4.2625  -22.8232   41.9651 C   0  0  0  0  0  0  0  0  0  0  0  0
    4.1208  -23.7808   41.0072 C   0  0  0  0  0  0  0  0  0  0  0  0
    6.2514  -23.0285   40.9254 N   0  0  0  0  0  0  0  0  0  0  0  0
    7.8586  -22.0193   47.0070 C   0  0  0  0  0  0  0  0  0  0  0  0
   10.7510  -21.1481   49.1815 C   0  0  0  0  0  0  0  0  0  0  0  0
    9.9888  -21.7383   48.1498 C   0  0  0  0  0  0  0  0  0  0  0  0
   10.6009  -22.6170   47.2920 N   0  0  0  0  0  0  0  0  0  0  0  0
    9.8552  -23.1770   46.3357 C   0  0  0  0  0  0  0  0  0  0  0  0
   10.4198  -24.1040   45.5457 N   0  0  0  0  0  0  0  0  0  0  0  0
    8.3055  -19.0640   50.7806 F   0  0  0  0  0  0  0  0  0  0  0  0
    7.3275  -18.2193   42.5819 H   0  0  0  0  0  0  0  0  0  0  0  0
    5.6046  -24.5671   39.5760 H   0  0  0  0  0  0  0  0  0  0  0  0
   10.7676  -19.8315   50.8732 H   0  0  0  0  0  0  0  0  0  0  0  0
    6.9778  -20.2346   48.9108 H   0  0  0  0  0  0  0  0  0  0  0  0
    6.3300  -23.1393   46.7909 H   0  0  0  0  0  0  0  0  0  0  0  0
    5.0937  -22.2088   45.8787 H   0  0  0  0  0  0  0  0  0  0  0  0
    5.0471  -24.0045   45.8787 H   0  0  0  0  0  0  0  0  0  0  0  0
    6.1732  -23.8302   43.9071 H   0  0  0  0  0  0  0  0  0  0  0  0
    5.9820  -19.8657   41.2449 H   0  0  0  0  0  0  0  0  0  0  0  0
    7.7183  -21.1119   45.6529 H   0  0  0  0  0  0  0  0  0  0  0  0
    3.4841  -22.4678   42.6563 H   0  0  0  0  0  0  0  0  0  0  0  0
    3.2151  -24.3566   40.7660 H   0  0  0  0  0  0  0  0  0  0  0  0
    6.7888  -21.7921   46.8887 H   0  0  0  0  0  0  0  0  0  0  0  0
   11.8197  -21.3909   49.2768 H   0  0  0  0  0  0  0  0  0  0  0  0
   11.4182  -24.3331   45.6528 H   0  0  0  0  0  0  0  0  0  0  0  0
    9.8544  -24.5863   44.8325 H   0  0  0  0  0  0  0  0  0  0  0  0
  1 13  2  0
  1 14  1  0
  1 17  1  0
  2  3  1  0
  2 15  1  0
  2 16  2  0
  3 14  2  0
  4 19  1  0
  4 20  2  0
  5  9  1  0
  5 12  1  0
  6  7  2  0
  6 10  1  0
  6 27  1  0
  7 22  1  0
  8 10  2  0
  8 21  1  0
  8 23  1  0
  9 21  2  0
  9 25  1  0
 12 11  1  0
 12 13  1  0
 13 15  1  0
 17 18  1  0
 17 20  1  0
 18 19  2  0
 22 23  2  0
 23 24  1  0
 24 25  2  0
 25 26  1  0
  3 28  1  0
  4 29  1  0
  7 30  1  0
 10 31  1  0
 11 32  1  0
 11 33  1  0
 11 34  1  0
 12 35  1  6
 14 36  1  0
 15 37  1  0
 18 38  1  0
 19 39  1  0
 21 40  1  0
 22 41  1  0
 26 42  1  0
 26 43  1  0
M  END
>  <filename_input>  (24) 
7JY3_VUD_docked.sdf

>  <pdb_id>  (24) 
7JY3_VUD

>  <pose_rank>  (24) 
23

>  <num_atoms_heavy>  (24) 
27

>  <num_torsions>  (24) 
4

>  <pose>  (24) 
[5.70521322519679, -23.12309688684925, 45.885770414110254, 2.0159483964404075, -1.894825557290186, 2.981948314820574, -0.1023778247757445, 0.18894563054274793, 2.4880034504371977, 0.34213437723834295]

>  <energy>  (24) 
-294.2475686028839

>  <inter_energy>  (24) 
-406.24465013262096

>  <intra_energy>  (24) 
114.70269110585747

>  <rmsd>  (24) 
4.75711

>  <sdf_rank>  (24) 
0

$$$$

     RDKit          3D

 43 46  0  0  0  0  0  0  0  0999 V2000
    7.5522  -18.5104   44.3531 C   0  0  0  0  0  0  0  0  0  0  0  0
    8.4790  -19.7966   42.1519 C   0  0  0  0  0  0  0  0  0  0  0  0
    8.9310  -18.4980   42.3949 C   0  0  0  0  0  0  0  0  0  0  0  0
    5.7203  -16.4310   46.4652 C   0  0  0  0  0  0  0  0  0  0  0  0
    4.7921  -20.4325   44.2322 O   0  0  0  0  0  0  0  0  0  0  0  0
    2.0361  -25.8369   43.7420 C   0  0  0  0  0  0  0  0  0  0  0  0
    1.6817  -25.6874   42.4226 C   0  0  0  0  0  0  0  0  0  0  0  0
    3.0847  -23.6937   43.7929 C   0  0  0  0  0  0  0  0  0  0  0  0
    4.1121  -21.5268   43.7414 C   0  0  0  0  0  0  0  0  0  0  0  0
    2.7061  -24.8916   44.4486 C   0  0  0  0  0  0  0  0  0  0  0  0
    6.3678  -22.1065   44.7600 C   0  0  0  0  0  0  0  0  0  0  0  0
    6.0830  -20.6207   44.8184 C   0  0  1  0  0  0  0  0  0  0  0  0
    7.1138  -19.8133   44.0491 C   0  0  0  0  0  0  0  0  0  0  0  0
    8.4699  -17.8597   43.5347 C   0  0  0  0  0  0  0  0  0  0  0  0
    7.5982  -20.4244   42.9589 N   0  0  0  0  0  0  0  0  0  0  0  0
    8.9528  -20.4851   41.1428 O   0  0  0  0  0  0  0  0  0  0  0  0
    6.9976  -17.7901   45.4552 N   0  0  0  0  0  0  0  0  0  0  0  0
    7.2844  -17.9306   46.7755 C   0  0  0  0  0  0  0  0  0  0  0  0
    6.4747  -17.0683   47.4505 C   0  0  0  0  0  0  0  0  0  0  0  0
    6.0317  -16.8519   45.2439 N   0  0  0  0  0  0  0  0  0  0  0  0
    3.7873  -22.6537   44.4446 C   0  0  0  0  0  0  0  0  0  0  0  0
    2.0375  -24.5467   41.7599 C   0  0  0  0  0  0  0  0  0  0  0  0
    2.7461  -23.5213   42.4234 C   0  0  0  0  0  0  0  0  0  0  0  0
    3.0748  -22.3849   41.7282 N   0  0  0  0  0  0  0  0  0  0  0  0
    3.7285  -21.4209   42.3820 C   0  0  0  0  0  0  0  0  0  0  0  0
    3.9785  -20.2691   41.7394 N   0  0  0  0  0  0  0  0  0  0  0  0
    1.7151  -26.9980   44.3616 F   0  0  0  0  0  0  0  0  0  0  0  0
    9.6285  -17.9995   41.7058 H   0  0  0  0  0  0  0  0  0  0  0  0
    4.9559  -15.6683   46.6751 H   0  0  0  0  0  0  0  0  0  0  0  0
    1.1177  -26.4776   41.9056 H   0  0  0  0  0  0  0  0  0  0  0  0
    2.9503  -25.0520   45.5091 H   0  0  0  0  0  0  0  0  0  0  0  0
    6.4443  -22.5056   45.7821 H   0  0  0  0  0  0  0  0  0  0  0  0
    5.5509  -22.6157   44.2276 H   0  0  0  0  0  0  0  0  0  0  0  0
    7.3151  -22.2775   44.2276 H   0  0  0  0  0  0  0  0  0  0  0  0
    6.1220  -20.2733   45.8614 H   0  0  0  0  0  0  0  0  0  0  0  0
    8.8251  -16.8503   43.7896 H   0  0  0  0  0  0  0  0  0  0  0  0
    7.2951  -21.3829   42.7347 H   0  0  0  0  0  0  0  0  0  0  0  0
    8.0284  -18.6109   47.2154 H   0  0  0  0  0  0  0  0  0  0  0  0
    6.4261  -16.9088   48.5378 H   0  0  0  0  0  0  0  0  0  0  0  0
    4.0688  -22.7500   45.5036 H   0  0  0  0  0  0  0  0  0  0  0  0
    1.7695  -24.4262   40.6998 H   0  0  0  0  0  0  0  0  0  0  0  0
    3.7110  -20.1626   40.7504 H   0  0  0  0  0  0  0  0  0  0  0  0
    4.4378  -19.4919   42.2352 H   0  0  0  0  0  0  0  0  0  0  0  0
  1 13  2  0
  1 14  1  0
  1 17  1  0
  2  3  1  0
  2 15  1  0
  2 16  2  0
  3 14  2  0
  4 19  1  0
  4 20  2  0
  5  9  1  0
  5 12  1  0
  6  7  2  0
  6 10  1  0
  6 27  1  0
  7 22  1  0
  8 10  2  0
  8 21  1  0
  8 23  1  0
  9 21  2  0
  9 25  1  0
 12 11  1  0
 12 13  1  0
 13 15  1  0
 17 18  1  0
 17 20  1  0
 18 19  2  0
 22 23  2  0
 23 24  1  0
 24 25  2  0
 25 26  1  0
  3 28  1  0
  4 29  1  0
  7 30  1  0
 10 31  1  0
 11 32  1  0
 11 33  1  0
 11 34  1  0
 12 35  1  1
 14 36  1  0
 15 37  1  0
 18 38  1  0
 19 39  1  0
 21 40  1  0
 22 41  1  0
 26 42  1  0
 26 43  1  0
M  END
>  <filename_input>  (25) 
7JY3_VUD_docked.sdf

>  <pdb_id>  (25) 
7JY3_VUD

>  <pose_rank>  (25) 
24

>  <num_atoms_heavy>  (25) 
27

>  <num_torsions>  (25) 
4

>  <pose>  (25) 
[6.367818405983583, -22.106450925806236, 44.75995231415904, 0.3406601218539073, -2.1237599138170316, -0.4942054228374156, -0.7154900360086399, 0.13720117497311493, 3.382292726449345, 1.094411946847807]

>  <energy>  (25) 
-519.2406423541013

>  <inter_energy>  (25) 
-550.5622520132779

>  <intra_energy>  (25) 
42.30401790552393

>  <rmsd>  (25) 
6.99777

>  <sdf_rank>  (25) 
0

$$$$

     RDKit          3D

 43 46  0  0  0  0  0  0  0  0999 V2000
    3.5200  -22.9570   41.8940 C   0  0  0  0  0  0  0  0  0  0  0  0
    1.8310  -24.3380   43.5060 C   0  0  0  0  0  0  0  0  0  0  0  0
    1.2810  -23.4260   42.6030 C   0  0  0  0  0  0  0  0  0  0  0  0
    5.4500  -20.4150   40.4960 C   0  0  0  0  0  0  0  0  0  0  0  0
    5.7030  -24.2030   44.5320 O   0  0  0  0  0  0  0  0  0  0  0  0
    5.6040  -18.2990   46.0070 C   0  0  0  0  0  0  0  0  0  0  0  0
    5.6720  -18.4990   47.3650 C   0  0  0  0  0  0  0  0  0  0  0  0
    5.6520  -20.6450   45.5720 C   0  0  0  0  0  0  0  0  0  0  0  0
    5.7060  -23.0200   45.2400 C   0  0  0  0  0  0  0  0  0  0  0  0
    5.5800  -19.3100   45.1020 C   0  0  0  0  0  0  0  0  0  0  0  0
    5.9040  -25.5220   42.5870 C   0  0  0  0  0  0  0  0  0  0  0  0
    5.4850  -24.1680   43.1190 C   0  0  1  0  0  0  0  0  0  0  0  0
    4.0220  -23.8740   42.8370 C   0  0  0  0  0  0  0  0  0  0  0  0
    2.1510  -22.7440   41.7680 C   0  0  0  0  0  0  0  0  0  0  0  0
    3.1600  -24.5470   43.6120 N   0  0  0  0  0  0  0  0  0  0  0  0
    1.0530  -25.0810   44.2540 O   0  0  0  0  0  0  0  0  0  0  0  0
    4.4050  -22.1560   41.1090 N   0  0  0  0  0  0  0  0  0  0  0  0
    5.2230  -22.5560   40.1010 C   0  0  0  0  0  0  0  0  0  0  0  0
    5.9100  -21.4550   39.6880 C   0  0  0  0  0  0  0  0  0  0  0  0
    4.5270  -20.8220   41.3610 N   0  0  0  0  0  0  0  0  0  0  0  0
    5.6370  -21.7630   44.7060 C   0  0  0  0  0  0  0  0  0  0  0  0
    5.7490  -19.7740   47.8500 C   0  0  0  0  0  0  0  0  0  0  0  0
    5.7410  -20.8790   46.9710 C   0  0  0  0  0  0  0  0  0  0  0  0
    5.8070  -22.1450   47.4960 N   0  0  0  0  0  0  0  0  0  0  0  0
    5.7790  -23.1750   46.6460 C   0  0  0  0  0  0  0  0  0  0  0  0
    5.7540  -24.4190   47.1500 N   0  0  0  0  0  0  0  0  0  0  0  0
    5.5790  -17.0240   45.5500 F   0  0  0  0  0  0  0  0  0  0  0  0
    0.1954  -23.2551   42.5563 H   0  0  0  0  0  0  0  0  0  0  0  0
    5.8097  -19.3779   40.4253 H   0  0  0  0  0  0  0  0  0  0  0  0
    5.6645  -17.6417   48.0542 H   0  0  0  0  0  0  0  0  0  0  0  0
    5.5061  -19.0975   44.0253 H   0  0  0  0  0  0  0  0  0  0  0  0
    6.1132  -26.1981   43.4291 H   0  0  0  0  0  0  0  0  0  0  0  0
    5.0936  -25.9414   41.9727 H   0  0  0  0  0  0  0  0  0  0  0  0
    6.8096  -25.4103   41.9727 H   0  0  0  0  0  0  0  0  0  0  0  0
    6.0683  -23.3760   42.6266 H   0  0  0  0  0  0  0  0  0  0  0  0
    1.7639  -22.0424   41.0144 H   0  0  0  0  0  0  0  0  0  0  0  0
    3.5156  -25.2307   44.2954 H   0  0  0  0  0  0  0  0  0  0  0  0
    5.3133  -23.5746   39.6957 H   0  0  0  0  0  0  0  0  0  0  0  0
    6.6646  -21.3981   38.8897 H   0  0  0  0  0  0  0  0  0  0  0  0
    5.5707  -21.6232   43.6169 H   0  0  0  0  0  0  0  0  0  0  0  0
    5.8178  -19.9412   48.9350 H   0  0  0  0  0  0  0  0  0  0  0  0
    5.8055  -24.5631   48.1686 H   0  0  0  0  0  0  0  0  0  0  0  0
    5.6833  -25.2293   46.5181 H   0  0  0  0  0  0  0  0  0  0  0  0
  1 13  2  0
  1 14  1  0
  1 17  1  0
  2  3  1  0
  2 15  1  0
  2 16  2  0
  3 14  2  0
  4 19  1  0
  4 20  2  0
  5  9  1  0
  5 12  1  0
  6  7  2  0
  6 10  1  0
  6 27  1  0
  7 22  1  0
  8 10  2  0
  8 21  1  0
  8 23  1  0
  9 21  2  0
  9 25  1  0
 12 11  1  0
 12 13  1  0
 13 15  1  0
 17 18  1  0
 17 20  1  0
 18 19  2  0
 22 23  2  0
 23 24  1  0
 24 25  2  0
 25 26  1  0
  3 28  1  0
  4 29  1  0
  7 30  1  0
 10 31  1  0
 11 32  1  0
 11 33  1  0
 11 34  1  0
 12 35  1  6
 14 36  1  0
 15 37  1  0
 18 38  1  0
 19 39  1  0
 21 40  1  0
 22 41  1  0
 26 42  1  0
 26 43  1  0
M  END
>  <filename_input>  (26) 
7JY3_VUD_docked.sdf

>  <pdb_id>  (26) 
7JY3_VUD

>  <pose_rank>  (26) 
25

>  <num_atoms_heavy>  (26) 
27

>  <num_torsions>  (26) 
4

>  <pose>  (26) 
[5.904, -25.522, 42.587, 1e-06, 1e-06, 1e-06, 0.0, 0.0, 0.0, 0.0]

>  <energy>  (26) 
-522.6501583387828

>  <inter_energy>  (26) 
-537.586775084625

>  <intra_energy>  (26) 
16.421403282541235

>  <rmsd>  (26) 
0.0

>  <sdf_rank>  (26) 
0

$$$$
