
     RDKit          3D

 59 61  0  0  0  0  0  0  0  0999 V2000
    6.7223    3.3560  -22.6793 C   0  0  0  0  0  0  0  0  0  0  0  0
    6.3508    2.6357  -23.8010 C   0  0  0  0  0  0  0  0  0  0  0  0
    5.5283    1.5347  -23.6306 C   0  0  0  0  0  0  0  0  0  0  0  0
    5.0575    1.2017  -22.3697 C   0  0  0  0  0  0  0  0  0  0  0  0
    2.1267    1.1305  -21.7546 C   0  0  0  0  0  0  0  0  0  0  0  0
    1.1084   -1.4198  -21.2617 C   0  0  0  0  0  0  0  0  0  0  0  0
   -1.4119   -4.0863  -20.3544 C   0  0  0  0  0  0  0  0  0  0  0  0
    6.3750    3.5269  -28.6695 C   0  0  0  0  0  0  0  0  0  0  0  0
    6.6475    4.9453  -30.7821 C   0  0  1  0  0  0  0  0  0  0  0  0
    4.9909    1.6474  -19.8529 C   0  0  0  0  0  0  0  0  0  0  0  0
    0.8124    0.9895  -21.3604 C   0  0  0  0  0  0  0  0  0  0  0  0
    0.2874   -0.2805  -21.1117 C   0  0  0  0  0  0  0  0  0  0  0  0
    2.4381   -1.2646  -21.6649 C   0  0  0  0  0  0  0  0  0  0  0  0
    0.4997   -2.7275  -20.9939 C   0  0  0  0  0  0  0  0  0  0  0  0
   -1.5133   -1.6242  -20.5089 C   0  0  0  0  0  0  0  0  0  0  0  0
    5.4378    1.9513  -21.2557 C   0  0  0  0  0  0  0  0  0  0  0  0
    6.2576    3.0507  -26.2364 C   0  0  0  0  0  0  0  0  0  0  0  0
    6.7368    4.8923  -29.2557 C   0  0  0  0  0  0  0  0  0  0  0  0
    7.2934    6.2373  -31.2787 C   0  0  0  0  0  0  0  0  0  0  0  0
    6.2692    3.0280  -21.4204 C   0  0  0  0  0  0  0  0  0  0  0  0
    7.3374    3.7466  -31.4513 C   0  0  0  0  0  0  0  0  0  0  0  0
    5.1677    4.9236  -31.1462 C   0  0  0  0  0  0  0  0  0  0  0  0
    2.9236    0.0017  -21.8946 C   0  0  0  0  0  0  0  0  0  0  0  0
    3.2782   -2.3099  -21.8459 F   0  0  0  0  0  0  0  0  0  0  0  0
    7.5319    4.4109  -22.8279 F   0  0  0  0  0  0  0  0  0  0  0  0
   -0.7956   -2.7725  -20.6297 N   0  0  0  0  0  0  0  0  0  0  0  0
   -1.0052   -0.4502  -20.7284 N   0  0  0  0  0  0  0  0  0  0  0  0
    6.8893    3.0272  -25.0408 N   0  0  0  0  0  0  0  0  0  0  0  0
    6.9557    3.4576  -27.3202 N   0  0  0  0  0  0  0  0  0  0  0  0
    4.2496    0.0650  -22.2857 N   0  0  0  0  0  0  0  0  0  0  0  0
    1.1314   -3.7593  -21.0809 O   0  0  0  0  0  0  0  0  0  0  0  0
    5.0957    2.7192  -26.3441 O   0  0  0  0  0  0  0  0  0  0  0  0
    5.2471    0.9217  -24.4996 H   0  0  0  0  0  0  0  0  0  0  0  0
    2.5405    2.1294  -21.9566 H   0  0  0  0  0  0  0  0  0  0  0  0
   -1.4828   -4.2374  -19.2671 H   0  0  0  0  0  0  0  0  0  0  0  0
   -2.4191   -4.1185  -20.7955 H   0  0  0  0  0  0  0  0  0  0  0  0
   -0.7928   -4.8814  -20.7955 H   0  0  0  0  0  0  0  0  0  0  0  0
    5.2816    3.4197  -28.6139 H   0  0  0  0  0  0  0  0  0  0  0  0
    6.7673    2.7172  -29.3023 H   0  0  0  0  0  0  0  0  0  0  0  0
    5.6822    2.1174  -19.1379 H   0  0  0  0  0  0  0  0  0  0  0  0
    3.9768    2.0440  -19.6971 H   0  0  0  0  0  0  0  0  0  0  0  0
    4.9867    0.5585  -19.6971 H   0  0  0  0  0  0  0  0  0  0  0  0
    0.1765    1.8791  -21.2417 H   0  0  0  0  0  0  0  0  0  0  0  0
   -2.5703   -1.6931  -20.2124 H   0  0  0  0  0  0  0  0  0  0  0  0
    6.0479    5.6428  -28.8406 H   0  0  0  0  0  0  0  0  0  0  0  0
    7.7843    5.0924  -28.9862 H   0  0  0  0  0  0  0  0  0  0  0  0
    7.5992    6.8490  -30.4171 H   0  0  0  0  0  0  0  0  0  0  0  0
    8.1764    5.9951  -31.8882 H   0  0  0  0  0  0  0  0  0  0  0  0
    6.5697    6.7983  -31.8882 H   0  0  0  0  0  0  0  0  0  0  0  0
    6.5737    3.6284  -20.5504 H   0  0  0  0  0  0  0  0  0  0  0  0
    7.7274    3.0691  -30.6775 H   0  0  0  0  0  0  0  0  0  0  0  0
    6.6110    3.2083  -32.0778 H   0  0  0  0  0  0  0  0  0  0  0  0
    8.1678    4.1043  -32.0778 H   0  0  0  0  0  0  0  0  0  0  0  0
    4.5640    4.9147  -30.2267 H   0  0  0  0  0  0  0  0  0  0  0  0
    4.9223    5.8182  -31.7373 H   0  0  0  0  0  0  0  0  0  0  0  0
    4.9488    4.0221  -31.7373 H   0  0  0  0  0  0  0  0  0  0  0  0
    7.8740    3.3293  -25.0374 H   0  0  0  0  0  0  0  0  0  0  0  0
    7.9405    3.7320  -27.1950 H   0  0  0  0  0  0  0  0  0  0  0  0
    4.6916   -0.8285  -22.5447 H   0  0  0  0  0  0  0  0  0  0  0  0
  1  2  2  0
  1 20  1  0
  1 25  1  0
  2  3  1  0
  2 28  1  0
  3  4  2  0
  4 16  1  0
  4 30  1  0
  5 11  2  0
  5 23  1  0
  6 12  2  0
  6 13  1  0
  6 14  1  0
  7 26  1  0
  8 18  1  0
  8 29  1  0
  9 18  1  1
  9 19  1  0
  9 21  1  0
  9 22  1  0
 10 16  1  0
 11 12  1  0
 12 27  1  0
 13 23  2  0
 13 24  1  0
 14 26  1  0
 14 31  2  0
 15 26  1  0
 15 27  2  0
 16 20  2  0
 17 28  1  0
 17 29  1  0
 17 32  2  0
 23 30  1  0
  3 33  1  0
  5 34  1  0
  7 35  1  0
  7 36  1  0
  7 37  1  0
  8 38  1  0
  8 39  1  0
 10 40  1  0
 10 41  1  0
 10 42  1  0
 11 43  1  0
 15 44  1  0
 18 45  1  0
 18 46  1  0
 19 47  1  0
 19 48  1  0
 19 49  1  0
 20 50  1  0
 21 51  1  0
 21 52  1  0
 21 53  1  0
 22 54  1  0
 22 55  1  0
 22 56  1  0
 28 57  1  0
 29 58  1  0
 30 59  1  0
M  END
>  <filename_input>  (1) 
7K0V_VQP_docked.sdf

>  <pdb_id>  (1) 
7K0V_VQP

>  <pose_rank>  (1) 
0

>  <num_atoms_heavy>  (1) 
32

>  <num_torsions>  (1) 
6

>  <pose>  (1) 
[6.722335578338678, 3.3560401679734597, -22.67925521075189, 2.794529864675397, -3.519924112055319, -4.258676548926721, 0.03455892224525199, 0.2636913071931502, -0.44376237836695387, -1.6137054541651144, 6.451923226490035, -0.13474660063978963]

>  <energy>  (1) 
-2162.6252226715824

>  <inter_energy>  (1) 
-2189.0756501135825

>  <intra_energy>  (1) 
24.313327795349974

>  <rmsd>  (1) 
0.424138

>  <sdf_rank>  (1) 
0

$$$$

     RDKit          3D

 59 61  0  0  0  0  0  0  0  0999 V2000
    7.1099    2.7693  -23.0815 C   0  0  0  0  0  0  0  0  0  0  0  0
    7.0030    1.5305  -23.6889 C   0  0  0  0  0  0  0  0  0  0  0  0
    6.1338    0.6032  -23.1389 C   0  0  0  0  0  0  0  0  0  0  0  0
    5.3612    0.9364  -22.0368 C   0  0  0  0  0  0  0  0  0  0  0  0
    2.4538    1.2007  -21.3673 C   0  0  0  0  0  0  0  0  0  0  0  0
    1.1614   -1.2167  -20.8480 C   0  0  0  0  0  0  0  0  0  0  0  0
   -1.6784   -3.6005  -20.1142 C   0  0  0  0  0  0  0  0  0  0  0  0
   10.6614   -0.6677  -26.1953 C   0  0  0  0  0  0  0  0  0  0  0  0
   12.3916   -1.9702  -24.8317 C   0  0  1  0  0  0  0  0  0  0  0  0
    4.6960    2.6321  -20.2425 C   0  0  0  0  0  0  0  0  0  0  0  0
    1.0924    1.1934  -21.1457 C   0  0  0  0  0  0  0  0  0  0  0  0
    0.4307   -0.0088  -20.8863 C   0  0  0  0  0  0  0  0  0  0  0  0
    2.5404   -1.1972  -21.0774 C   0  0  0  0  0  0  0  0  0  0  0  0
    0.4111   -2.4484  -20.5786 C   0  0  0  0  0  0  0  0  0  0  0  0
   -1.5433   -1.1574  -20.4443 C   0  0  0  0  0  0  0  0  0  0  0  0
    5.4793    2.1969  -21.4496 C   0  0  0  0  0  0  0  0  0  0  0  0
    8.8514    0.3716  -24.8521 C   0  0  0  0  0  0  0  0  0  0  0  0
   11.1297   -1.1055  -24.8068 C   0  0  0  0  0  0  0  0  0  0  0  0
   12.6508   -2.4399  -26.2618 C   0  0  0  0  0  0  0  0  0  0  0  0
    6.3551    3.1076  -21.9800 C   0  0  0  0  0  0  0  0  0  0  0  0
   13.6278   -1.2175  -24.3159 C   0  0  0  0  0  0  0  0  0  0  0  0
   12.1337   -3.1669  -23.9238 C   0  0  0  0  0  0  0  0  0  0  0  0
    3.1603    0.0059  -21.3230 C   0  0  0  0  0  0  0  0  0  0  0  0
    3.3022   -2.3157  -21.0734 F   0  0  0  0  0  0  0  0  0  0  0  0
    7.9600    3.6677  -23.5919 F   0  0  0  0  0  0  0  0  0  0  0  0
   -0.9193   -2.3640  -20.3905 N   0  0  0  0  0  0  0  0  0  0  0  0
   -0.9104   -0.0471  -20.6707 N   0  0  0  0  0  0  0  0  0  0  0  0
    7.8378    1.2649  -24.7903 N   0  0  0  0  0  0  0  0  0  0  0  0
    9.5425    0.2684  -26.0093 N   0  0  0  0  0  0  0  0  0  0  0  0
    4.5261   -0.0648  -21.5349 N   0  0  0  0  0  0  0  0  0  0  0  0
    0.9562   -3.5298  -20.5108 O   0  0  0  0  0  0  0  0  0  0  0  0
    9.1397   -0.3240  -23.9011 O   0  0  0  0  0  0  0  0  0  0  0  0
    6.0559   -0.4021  -23.5784 H   0  0  0  0  0  0  0  0  0  0  0  0
    2.9760    2.1457  -21.5775 H   0  0  0  0  0  0  0  0  0  0  0  0
   -1.7654   -3.7422  -19.0269 H   0  0  0  0  0  0  0  0  0  0  0  0
   -2.6830   -3.5202  -20.5550 H   0  0  0  0  0  0  0  0  0  0  0  0
   -1.1522   -4.4601  -20.5550 H   0  0  0  0  0  0  0  0  0  0  0  0
   11.4838   -0.1688  -26.7290 H   0  0  0  0  0  0  0  0  0  0  0  0
   10.3444   -1.5374  -26.7895 H   0  0  0  0  0  0  0  0  0  0  0  0
    5.2329    2.3338  -19.3299 H   0  0  0  0  0  0  0  0  0  0  0  0
    4.5773    3.7256  -20.2571 H   0  0  0  0  0  0  0  0  0  0  0  0
    3.7048    2.1555  -20.2571 H   0  0  0  0  0  0  0  0  0  0  0  0
    0.5268    2.1364  -21.1733 H   0  0  0  0  0  0  0  0  0  0  0  0
   -2.6317   -1.1206  -20.2893 H   0  0  0  0  0  0  0  0  0  0  0  0
   11.3364   -0.2054  -24.2093 H   0  0  0  0  0  0  0  0  0  0  0  0
   10.3261   -1.7191  -24.3734 H   0  0  0  0  0  0  0  0  0  0  0  0
   13.1820   -3.4029  -26.2408 H   0  0  0  0  0  0  0  0  0  0  0  0
   11.6920   -2.5614  -26.7872 H   0  0  0  0  0  0  0  0  0  0  0  0
   13.2648   -1.6937  -26.7872 H   0  0  0  0  0  0  0  0  0  0  0  0
    6.4550    4.1053  -21.5277 H   0  0  0  0  0  0  0  0  0  0  0  0
   13.6254   -1.2190  -23.2159 H   0  0  0  0  0  0  0  0  0  0  0  0
   14.5386   -1.7145  -24.6812 H   0  0  0  0  0  0  0  0  0  0  0  0
   13.6044   -0.1802  -24.6812 H   0  0  0  0  0  0  0  0  0  0  0  0
   12.2018   -2.8508  -22.8723 H   0  0  0  0  0  0  0  0  0  0  0  0
   11.1286   -3.5675  -24.1218 H   0  0  0  0  0  0  0  0  0  0  0  0
   12.8846   -3.9460  -24.1218 H   0  0  0  0  0  0  0  0  0  0  0  0
    7.6567    1.8116  -25.6443 H   0  0  0  0  0  0  0  0  0  0  0  0
    9.2728    0.8738  -26.7977 H   0  0  0  0  0  0  0  0  0  0  0  0
    4.9790   -0.9582  -21.2948 H   0  0  0  0  0  0  0  0  0  0  0  0
  1  2  2  0
  1 20  1  0
  1 25  1  0
  2  3  1  0
  2 28  1  0
  3  4  2  0
  4 16  1  0
  4 30  1  0
  5 11  2  0
  5 23  1  0
  6 12  2  0
  6 13  1  0
  6 14  1  0
  7 26  1  0
  8 18  1  0
  8 29  1  0
  9 18  1  6
  9 19  1  0
  9 21  1  0
  9 22  1  0
 10 16  1  0
 11 12  1  0
 12 27  1  0
 13 23  2  0
 13 24  1  0
 14 26  1  0
 14 31  2  0
 15 26  1  0
 15 27  2  0
 16 20  2  0
 17 28  1  0
 17 29  1  0
 17 32  2  0
 23 30  1  0
  3 33  1  0
  5 34  1  0
  7 35  1  0
  7 36  1  0
  7 37  1  0
  8 38  1  0
  8 39  1  0
 10 40  1  0
 10 41  1  0
 10 42  1  0
 11 43  1  0
 15 44  1  0
 18 45  1  0
 18 46  1  0
 19 47  1  0
 19 48  1  0
 19 49  1  0
 20 50  1  0
 21 51  1  0
 21 52  1  0
 21 53  1  0
 22 54  1  0
 22 55  1  0
 22 56  1  0
 28 57  1  0
 29 58  1  0
 30 59  1  0
M  END
>  <filename_input>  (2) 
7K0V_VQP_docked.sdf

>  <pdb_id>  (2) 
7K0V_VQP

>  <pose_rank>  (2) 
1

>  <num_atoms_heavy>  (2) 
32

>  <num_torsions>  (2) 
6

>  <pose>  (2) 
[7.10991769965783, 2.7693071603838124, -23.081503478940043, 5.363893809515871, 1.5616741696335803, -0.7325049438691089, -1.8142392211687413, 3.9407046997423936, 0.01815770949401746, 1.0909689012979071, -12.546786830621498, -0.5547161062591924]

>  <energy>  (2) 
-1266.9329126546704

>  <inter_energy>  (2) 
-1367.0597514272608

>  <intra_energy>  (2) 
99.00828901650192

>  <rmsd>  (2) 
4.81798

>  <sdf_rank>  (2) 
0

$$$$

     RDKit          3D

 59 61  0  0  0  0  0  0  0  0999 V2000
    7.1675    3.2061  -22.5971 C   0  0  0  0  0  0  0  0  0  0  0  0
    6.3808    3.1202  -23.7324 C   0  0  0  0  0  0  0  0  0  0  0  0
    5.1561    2.4810  -23.6347 C   0  0  0  0  0  0  0  0  0  0  0  0
    4.7204    1.9865  -22.4148 C   0  0  0  0  0  0  0  0  0  0  0  0
    4.1983   -0.9846  -22.5162 C   0  0  0  0  0  0  0  0  0  0  0  0
    1.6522   -1.6836  -21.6145 C   0  0  0  0  0  0  0  0  0  0  0  0
   -1.1964   -3.8995  -20.4920 C   0  0  0  0  0  0  0  0  0  0  0  0
    6.7426    3.7488  -28.6284 C   0  0  0  0  0  0  0  0  0  0  0  0
    6.4543    5.2006  -30.7161 C   0  0  1  0  0  0  0  0  0  0  0  0
    5.1421    1.5700  -19.9276 C   0  0  0  0  0  0  0  0  0  0  0  0
    3.8845   -2.3156  -22.3353 C   0  0  0  0  0  0  0  0  0  0  0  0
    2.6150   -2.6814  -21.8827 C   0  0  0  0  0  0  0  0  0  0  0  0
    1.9829   -0.3377  -21.7985 C   0  0  0  0  0  0  0  0  0  0  0  0
    0.3390   -2.1278  -21.1343 C   0  0  0  0  0  0  0  0  0  0  0  0
    1.1103   -4.3403  -21.2538 C   0  0  0  0  0  0  0  0  0  0  0  0
    5.5280    2.0961  -21.2819 C   0  0  0  0  0  0  0  0  0  0  0  0
    6.4755    3.3673  -26.1905 C   0  0  0  0  0  0  0  0  0  0  0  0
    7.2296    4.9643  -29.4185 C   0  0  0  0  0  0  0  0  0  0  0  0
    7.2332    4.5981  -31.8837 C   0  0  0  0  0  0  0  0  0  0  0  0
    6.7493    2.7092  -21.3823 C   0  0  0  0  0  0  0  0  0  0  0  0
    5.0466    4.5860  -30.6778 C   0  0  0  0  0  0  0  0  0  0  0  0
    6.3246    6.7089  -30.8931 C   0  0  0  0  0  0  0  0  0  0  0  0
    3.2406   -0.0142  -22.2521 C   0  0  0  0  0  0  0  0  0  0  0  0
    1.1189    0.6727  -21.5461 F   0  0  0  0  0  0  0  0  0  0  0  0
    8.3610    3.8048  -22.6823 F   0  0  0  0  0  0  0  0  0  0  0  0
    0.1255   -3.4469  -20.9707 N   0  0  0  0  0  0  0  0  0  0  0  0
    2.2800   -3.9841  -21.6892 N   0  0  0  0  0  0  0  0  0  0  0  0
    6.9056    3.6285  -24.9351 N   0  0  0  0  0  0  0  0  0  0  0  0
    7.1211    3.9552  -27.2224 N   0  0  0  0  0  0  0  0  0  0  0  0
    3.4824    1.3392  -22.4104 N   0  0  0  0  0  0  0  0  0  0  0  0
   -0.5549   -1.3440  -20.8937 O   0  0  0  0  0  0  0  0  0  0  0  0
    5.5358    2.6282  -26.3958 O   0  0  0  0  0  0  0  0  0  0  0  0
    4.5262    2.3650  -24.5290 H   0  0  0  0  0  0  0  0  0  0  0  0
    5.1995   -0.6940  -22.8671 H   0  0  0  0  0  0  0  0  0  0  0  0
   -1.2066   -3.9030  -19.3921 H   0  0  0  0  0  0  0  0  0  0  0  0
   -1.9745   -3.2166  -20.8638 H   0  0  0  0  0  0  0  0  0  0  0  0
   -1.3927   -4.9160  -20.8638 H   0  0  0  0  0  0  0  0  0  0  0  0
    5.6496    3.6585  -28.7138 H   0  0  0  0  0  0  0  0  0  0  0  0
    7.1947    2.8256  -29.0200 H   0  0  0  0  0  0  0  0  0  0  0  0
    5.6005    2.1950  -19.1471 H   0  0  0  0  0  0  0  0  0  0  0  0
    4.0474    1.5961  -19.8223 H   0  0  0  0  0  0  0  0  0  0  0  0
    5.4959    0.5337  -19.8223 H   0  0  0  0  0  0  0  0  0  0  0  0
    4.6358   -3.0904  -22.5480 H   0  0  0  0  0  0  0  0  0  0  0  0
    0.9071   -5.4114  -21.1076 H   0  0  0  0  0  0  0  0  0  0  0  0
    7.1255    5.8565  -28.7836 H   0  0  0  0  0  0  0  0  0  0  0  0
    8.2756    4.7701  -29.6979 H   0  0  0  0  0  0  0  0  0  0  0  0
    8.0472    3.9684  -31.4953 H   0  0  0  0  0  0  0  0  0  0  0  0
    6.5571    3.9856  -32.4983 H   0  0  0  0  0  0  0  0  0  0  0  0
    7.6562    5.4064  -32.4983 H   0  0  0  0  0  0  0  0  0  0  0  0
    7.3937    2.8042  -20.4958 H   0  0  0  0  0  0  0  0  0  0  0  0
    4.7344    4.4497  -29.6319 H   0  0  0  0  0  0  0  0  0  0  0  0
    4.3395    5.2573  -31.1871 H   0  0  0  0  0  0  0  0  0  0  0  0
    5.0582    3.6111  -31.1871 H   0  0  0  0  0  0  0  0  0  0  0  0
    6.2831    7.1917  -29.9056 H   0  0  0  0  0  0  0  0  0  0  0  0
    7.1934    7.0887  -31.4507 H   0  0  0  0  0  0  0  0  0  0  0  0
    5.4037    6.9348  -31.4507 H   0  0  0  0  0  0  0  0  0  0  0  0
    7.7063    4.2708  -24.8499 H   0  0  0  0  0  0  0  0  0  0  0  0
    7.9154    4.5770  -27.0142 H   0  0  0  0  0  0  0  0  0  0  0  0
    2.6545    1.9381  -22.5400 H   0  0  0  0  0  0  0  0  0  0  0  0
  1  2  2  0
  1 20  1  0
  1 25  1  0
  2  3  1  0
  2 28  1  0
  3  4  2  0
  4 16  1  0
  4 30  1  0
  5 11  2  0
  5 23  1  0
  6 12  2  0
  6 13  1  0
  6 14  1  0
  7 26  1  0
  8 18  1  0
  8 29  1  0
  9 18  1  1
  9 19  1  0
  9 21  1  0
  9 22  1  0
 10 16  1  0
 11 12  1  0
 12 27  1  0
 13 23  2  0
 13 24  1  0
 14 26  1  0
 14 31  2  0
 15 26  1  0
 15 27  2  0
 16 20  2  0
 17 28  1  0
 17 29  1  0
 17 32  2  0
 23 30  1  0
  3 33  1  0
  5 34  1  0
  7 35  1  0
  7 36  1  0
  7 37  1  0
  8 38  1  0
  8 39  1  0
 10 40  1  0
 10 41  1  0
 10 42  1  0
 11 43  1  0
 15 44  1  0
 18 45  1  0
 18 46  1  0
 19 47  1  0
 19 48  1  0
 19 49  1  0
 20 50  1  0
 21 51  1  0
 21 52  1  0
 21 53  1  0
 22 54  1  0
 22 55  1  0
 22 56  1  0
 28 57  1  0
 29 58  1  0
 30 59  1  0
M  END
>  <filename_input>  (3) 
7K0V_VQP_docked.sdf

>  <pdb_id>  (3) 
7K0V_VQP

>  <pose_rank>  (3) 
2

>  <num_atoms_heavy>  (3) 
32

>  <num_torsions>  (3) 
6

>  <pose>  (3) 
[7.167460359511643, 3.206149488361317, -22.597123794040936, -2.933003725269691, -2.4995013570845535, 4.25350786847587, -0.9427579584269817, 0.6775986964048702, 0.3271078814986113, -0.3731287383803249, -2.1687963055868678, -0.7378586029215297]

>  <energy>  (3) 
-1384.5511326446558

>  <inter_energy>  (3) 
-1419.3854078320815

>  <intra_energy>  (3) 
26.155333774473654

>  <rmsd>  (3) 
1.9012

>  <sdf_rank>  (3) 
0

$$$$

     RDKit          3D

 59 61  0  0  0  0  0  0  0  0999 V2000
    6.7617    2.1536  -24.5225 C   0  0  0  0  0  0  0  0  0  0  0  0
    5.7811    3.1178  -24.3674 C   0  0  0  0  0  0  0  0  0  0  0  0
    4.8947    2.9877  -23.3113 C   0  0  0  0  0  0  0  0  0  0  0  0
    5.0267    1.9405  -22.4122 C   0  0  0  0  0  0  0  0  0  0  0  0
    1.6537    1.9609  -21.5820 C   0  0  0  0  0  0  0  0  0  0  0  0
    1.6557   -0.8183  -21.3377 C   0  0  0  0  0  0  0  0  0  0  0  0
    0.2820   -4.3350  -21.1622 C   0  0  0  0  0  0  0  0  0  0  0  0
    5.0711    5.0785  -28.8562 C   0  0  0  0  0  0  0  0  0  0  0  0
    6.6733    4.8807  -30.8419 C   0  0  1  0  0  0  0  0  0  0  0  0
    6.2319   -0.1888  -21.6697 C   0  0  0  0  0  0  0  0  0  0  0  0
    0.4563    1.2767  -21.6107 C   0  0  0  0  0  0  0  0  0  0  0  0
    0.4409   -0.1147  -21.4916 C   0  0  0  0  0  0  0  0  0  0  0  0
    2.8633   -0.1141  -21.3134 C   0  0  0  0  0  0  0  0  0  0  0  0
    1.5773   -2.2790  -21.2251 C   0  0  0  0  0  0  0  0  0  0  0  0
   -0.7537   -2.1098  -21.4296 C   0  0  0  0  0  0  0  0  0  0  0  0
    6.0315    0.9874  -22.5843 C   0  0  0  0  0  0  0  0  0  0  0  0
    5.4042    3.9967  -26.6473 C   0  0  0  0  0  0  0  0  0  0  0  0
    6.2681    5.6746  -29.5984 C   0  0  0  0  0  0  0  0  0  0  0  0
    7.4265    3.6234  -30.4121 C   0  0  0  0  0  0  0  0  0  0  0  0
    6.8956    1.1032  -23.6414 C   0  0  0  0  0  0  0  0  0  0  0  0
    5.4638    4.4764  -31.6988 C   0  0  0  0  0  0  0  0  0  0  0  0
    7.5818    5.7799  -31.6720 C   0  0  0  0  0  0  0  0  0  0  0  0
    2.8404    1.2565  -21.4266 C   0  0  0  0  0  0  0  0  0  0  0  0
    4.0659   -0.7214  -21.1865 F   0  0  0  0  0  0  0  0  0  0  0  0
    7.6128    2.2574  -25.5496 F   0  0  0  0  0  0  0  0  0  0  0  0
    0.3666   -2.8651  -21.2799 N   0  0  0  0  0  0  0  0  0  0  0  0
   -0.7229   -0.8155  -21.5228 N   0  0  0  0  0  0  0  0  0  0  0  0
    5.7025    4.1361  -25.3355 N   0  0  0  0  0  0  0  0  0  0  0  0
    5.3840    5.1061  -27.4194 N   0  0  0  0  0  0  0  0  0  0  0  0
    4.0783    1.8741  -21.3886 N   0  0  0  0  0  0  0  0  0  0  0  0
    2.5663   -2.9648  -21.0742 O   0  0  0  0  0  0  0  0  0  0  0  0
    5.1584    2.9103  -27.1276 O   0  0  0  0  0  0  0  0  0  0  0  0
    4.0824    3.7186  -23.1852 H   0  0  0  0  0  0  0  0  0  0  0  0
    1.6685    3.0563  -21.6816 H   0  0  0  0  0  0  0  0  0  0  0  0
    0.2657   -4.6174  -20.0992 H   0  0  0  0  0  0  0  0  0  0  0  0
   -0.6381   -4.6895  -21.6499 H   0  0  0  0  0  0  0  0  0  0  0  0
    1.1553   -4.7928  -21.6499 H   0  0  0  0  0  0  0  0  0  0  0  0
    4.1697    5.6764  -29.0558 H   0  0  0  0  0  0  0  0  0  0  0  0
    4.8808    4.0484  -29.1917 H   0  0  0  0  0  0  0  0  0  0  0  0
    6.1748    0.1463  -20.6236 H   0  0  0  0  0  0  0  0  0  0  0  0
    5.4484   -0.9375  -21.8582 H   0  0  0  0  0  0  0  0  0  0  0  0
    7.2192   -0.6358  -21.8582 H   0  0  0  0  0  0  0  0  0  0  0  0
   -0.4883    1.8281  -21.7276 H   0  0  0  0  0  0  0  0  0  0  0  0
   -1.7286   -2.6174  -21.4738 H   0  0  0  0  0  0  0  0  0  0  0  0
    6.0111    6.6984  -29.9077 H   0  0  0  0  0  0  0  0  0  0  0  0
    7.1227    5.6493  -28.9063 H   0  0  0  0  0  0  0  0  0  0  0  0
    7.4573    3.5720  -29.3137 H   0  0  0  0  0  0  0  0  0  0  0  0
    6.9118    2.7348  -30.8065 H   0  0  0  0  0  0  0  0  0  0  0  0
    8.4528    3.6579  -30.8065 H   0  0  0  0  0  0  0  0  0  0  0  0
    7.6935    0.3599  -23.7861 H   0  0  0  0  0  0  0  0  0  0  0  0
    4.6266    4.1965  -31.0425 H   0  0  0  0  0  0  0  0  0  0  0  0
    5.1646    5.3234  -32.3337 H   0  0  0  0  0  0  0  0  0  0  0  0
    5.7342    3.6198  -32.3337 H   0  0  0  0  0  0  0  0  0  0  0  0
    8.2019    6.3936  -31.0020 H   0  0  0  0  0  0  0  0  0  0  0  0
    8.2315    5.1592  -32.3066 H   0  0  0  0  0  0  0  0  0  0  0  0
    6.9679    6.4359  -32.3066 H   0  0  0  0  0  0  0  0  0  0  0  0
    5.8933    5.0941  -25.0087 H   0  0  0  0  0  0  0  0  0  0  0  0
    5.5978    6.0132  -26.9809 H   0  0  0  0  0  0  0  0  0  0  0  0
    4.3293    2.3381  -20.5039 H   0  0  0  0  0  0  0  0  0  0  0  0
  1  2  2  0
  1 20  1  0
  1 25  1  0
  2  3  1  0
  2 28  1  0
  3  4  2  0
  4 16  1  0
  4 30  1  0
  5 11  2  0
  5 23  1  0
  6 12  2  0
  6 13  1  0
  6 14  1  0
  7 26  1  0
  8 18  1  0
  8 29  1  0
  9 18  1  1
  9 19  1  0
  9 21  1  0
  9 22  1  0
 10 16  1  0
 11 12  1  0
 12 27  1  0
 13 23  2  0
 13 24  1  0
 14 26  1  0
 14 31  2  0
 15 26  1  0
 15 27  2  0
 16 20  2  0
 17 28  1  0
 17 29  1  0
 17 32  2  0
 23 30  1  0
  3 33  1  0
  5 34  1  0
  7 35  1  0
  7 36  1  0
  7 37  1  0
  8 38  1  0
  8 39  1  0
 10 40  1  0
 10 41  1  0
 10 42  1  0
 11 43  1  0
 15 44  1  0
 18 45  1  0
 18 46  1  0
 19 47  1  0
 19 48  1  0
 19 49  1  0
 20 50  1  0
 21 51  1  0
 21 52  1  0
 21 53  1  0
 22 54  1  0
 22 55  1  0
 22 56  1  0
 28 57  1  0
 29 58  1  0
 30 59  1  0
M  END
>  <filename_input>  (4) 
7K0V_VQP_docked.sdf

>  <pdb_id>  (4) 
7K0V_VQP

>  <pose_rank>  (4) 
3

>  <num_atoms_heavy>  (4) 
32

>  <num_torsions>  (4) 
6

>  <pose>  (4) 
[6.761667938404698, 2.153639467305983, -24.522468391231314, 0.6956744104101446, 1.229375344034173, -1.1700010821367548, -2.6597803888848266, -4.1654920940493465, -0.8600161715750435, -0.006375453472364692, 3.727680493033495, 4.14682308239477]

>  <energy>  (4) 
-1176.3891106156489

>  <inter_energy>  (4) 
-1227.0993797850147

>  <intra_energy>  (4) 
64.92167345735838

>  <rmsd>  (4) 
1.71134

>  <sdf_rank>  (4) 
0

$$$$

     RDKit          3D

 59 61  0  0  0  0  0  0  0  0999 V2000
    7.0541    2.9939  -22.7002 C   0  0  0  0  0  0  0  0  0  0  0  0
    6.2526    2.8637  -23.8207 C   0  0  0  0  0  0  0  0  0  0  0  0
    4.9755    2.3534  -23.6578 C   0  0  0  0  0  0  0  0  0  0  0  0
    4.5074    2.0301  -22.3933 C   0  0  0  0  0  0  0  0  0  0  0  0
    1.9776    0.4840  -20.4914 C   0  0  0  0  0  0  0  0  0  0  0  0
    2.8643   -1.9894  -21.4295 C   0  0  0  0  0  0  0  0  0  0  0  0
    3.2750   -5.7424  -21.6078 C   0  0  0  0  0  0  0  0  0  0  0  0
    6.4570    4.9691  -28.2954 C   0  0  0  0  0  0  0  0  0  0  0  0
    6.9419    4.9378  -30.8081 C   0  0  1  0  0  0  0  0  0  0  0  0
    4.9117    1.8362  -19.8761 C   0  0  0  0  0  0  0  0  0  0  0  0
    1.6007   -0.6667  -19.8308 C   0  0  0  0  0  0  0  0  0  0  0  0
    2.0347   -1.9125  -20.2892 C   0  0  0  0  0  0  0  0  0  0  0  0
    3.2371   -0.8164  -22.0927 C   0  0  0  0  0  0  0  0  0  0  0  0
    3.2823   -3.3255  -21.8683 C   0  0  0  0  0  0  0  0  0  0  0  0
    2.0554   -4.2296  -20.0846 C   0  0  0  0  0  0  0  0  0  0  0  0
    5.3319    2.1816  -21.2776 C   0  0  0  0  0  0  0  0  0  0  0  0
    6.2558    3.9588  -26.0373 C   0  0  0  0  0  0  0  0  0  0  0  0
    6.5747    4.1248  -29.5651 C   0  0  0  0  0  0  0  0  0  0  0  0
    7.8293    4.0911  -31.7183 C   0  0  0  0  0  0  0  0  0  0  0  0
    6.6033    2.6660  -21.4405 C   0  0  0  0  0  0  0  0  0  0  0  0
    5.7044    5.3967  -31.5946 C   0  0  0  0  0  0  0  0  0  0  0  0
    7.7020    6.1694  -30.3303 C   0  0  0  0  0  0  0  0  0  0  0  0
    2.7966    0.3937  -21.6093 C   0  0  0  0  0  0  0  0  0  0  0  0
    4.0147   -0.8135  -23.2002 F   0  0  0  0  0  0  0  0  0  0  0  0
    8.2967    3.4681  -22.8464 F   0  0  0  0  0  0  0  0  0  0  0  0
    2.8531   -4.3954  -21.1729 N   0  0  0  0  0  0  0  0  0  0  0  0
    1.6741   -3.0630  -19.6624 N   0  0  0  0  0  0  0  0  0  0  0  0
    6.8109    3.1943  -25.0695 N   0  0  0  0  0  0  0  0  0  0  0  0
    6.9564    4.1560  -27.1764 N   0  0  0  0  0  0  0  0  0  0  0  0
    3.2154    1.5035  -22.3224 N   0  0  0  0  0  0  0  0  0  0  0  0
    4.0073   -3.4884  -22.8270 O   0  0  0  0  0  0  0  0  0  0  0  0
    5.1602    4.4600  -25.8963 O   0  0  0  0  0  0  0  0  0  0  0  0
    4.3295    2.2040  -24.5355 H   0  0  0  0  0  0  0  0  0  0  0  0
    1.6321    1.4658  -20.1355 H   0  0  0  0  0  0  0  0  0  0  0  0
    3.4710   -6.3682  -20.7246 H   0  0  0  0  0  0  0  0  0  0  0  0
    2.4770   -6.1995  -22.2113 H   0  0  0  0  0  0  0  0  0  0  0  0
    4.1911   -5.6626  -22.2113 H   0  0  0  0  0  0  0  0  0  0  0  0
    7.0612    5.8829  -28.3947 H   0  0  0  0  0  0  0  0  0  0  0  0
    5.4120    5.2658  -28.1228 H   0  0  0  0  0  0  0  0  0  0  0  0
    5.5561    2.3659  -19.1591 H   0  0  0  0  0  0  0  0  0  0  0  0
    3.8654    2.1388  -19.7219 H   0  0  0  0  0  0  0  0  0  0  0  0
    5.0061    0.7512  -19.7219 H   0  0  0  0  0  0  0  0  0  0  0  0
    0.9569   -0.6031  -18.9412 H   0  0  0  0  0  0  0  0  0  0  0  0
    1.7184   -5.1229  -19.5382 H   0  0  0  0  0  0  0  0  0  0  0  0
    7.3519    3.3629  -29.4056 H   0  0  0  0  0  0  0  0  0  0  0  0
    5.5857    3.6802  -29.7504 H   0  0  0  0  0  0  0  0  0  0  0  0
    8.4895    3.4612  -31.1040 H   0  0  0  0  0  0  0  0  0  0  0  0
    7.1987    3.4513  -32.3532 H   0  0  0  0  0  0  0  0  0  0  0  0
    8.4387    4.7510  -32.3532 H   0  0  0  0  0  0  0  0  0  0  0  0
    7.2616    2.7925  -20.5684 H   0  0  0  0  0  0  0  0  0  0  0  0
    4.9113    5.6909  -30.8914 H   0  0  0  0  0  0  0  0  0  0  0  0
    5.9702    6.2561  -32.2278 H   0  0  0  0  0  0  0  0  0  0  0  0
    5.3456    4.5719  -32.2278 H   0  0  0  0  0  0  0  0  0  0  0  0
    7.7141    6.1891  -29.2305 H   0  0  0  0  0  0  0  0  0  0  0  0
    8.7345    6.1323  -30.7078 H   0  0  0  0  0  0  0  0  0  0  0  0
    7.2059    7.0757  -30.7078 H   0  0  0  0  0  0  0  0  0  0  0  0
    7.7461    2.8115  -25.2686 H   0  0  0  0  0  0  0  0  0  0  0  0
    7.8836    3.7160  -27.2648 H   0  0  0  0  0  0  0  0  0  0  0  0
    2.4913    1.9979  -22.8629 H   0  0  0  0  0  0  0  0  0  0  0  0
  1  2  2  0
  1 20  1  0
  1 25  1  0
  2  3  1  0
  2 28  1  0
  3  4  2  0
  4 16  1  0
  4 30  1  0
  5 11  2  0
  5 23  1  0
  6 12  2  0
  6 13  1  0
  6 14  1  0
  7 26  1  0
  8 18  1  0
  8 29  1  0
  9 18  1  1
  9 19  1  0
  9 21  1  0
  9 22  1  0
 10 16  1  0
 11 12  1  0
 12 27  1  0
 13 23  2  0
 13 24  1  0
 14 26  1  0
 14 31  2  0
 15 26  1  0
 15 27  2  0
 16 20  2  0
 17 28  1  0
 17 29  1  0
 17 32  2  0
 23 30  1  0
  3 33  1  0
  5 34  1  0
  7 35  1  0
  7 36  1  0
  7 37  1  0
  8 38  1  0
  8 39  1  0
 10 40  1  0
 10 41  1  0
 10 42  1  0
 11 43  1  0
 15 44  1  0
 18 45  1  0
 18 46  1  0
 19 47  1  0
 19 48  1  0
 19 49  1  0
 20 50  1  0
 21 51  1  0
 21 52  1  0
 21 53  1  0
 22 54  1  0
 22 55  1  0
 22 56  1  0
 28 57  1  0
 29 58  1  0
 30 59  1  0
M  END
>  <filename_input>  (5) 
7K0V_VQP_docked.sdf

>  <pdb_id>  (5) 
7K0V_VQP

>  <pose_rank>  (5) 
4

>  <num_atoms_heavy>  (5) 
32

>  <num_torsions>  (5) 
6

>  <pose>  (5) 
[7.054130748371129, 2.993922258797775, -22.70016237284347, 0.1860807046939939, 0.20696037234842277, -0.5053611581771253, 6.462285013308961, -4.278039272398359, 0.5328087279857362, -2.4146761728176847, -8.02945154372135, -4.703233894246863]

>  <energy>  (5) 
-1297.2388756846867

>  <inter_energy>  (5) 
-1295.2295936177075

>  <intra_energy>  (5) 
36.09451371872256

>  <rmsd>  (5) 
2.13118

>  <sdf_rank>  (5) 
0

$$$$

     RDKit          3D

 59 61  0  0  0  0  0  0  0  0999 V2000
    5.7647    3.7107  -23.0882 C   0  0  0  0  0  0  0  0  0  0  0  0
    5.4124    2.8101  -24.0780 C   0  0  0  0  0  0  0  0  0  0  0  0
    5.4055    1.4611  -23.7649 C   0  0  0  0  0  0  0  0  0  0  0  0
    5.6995    1.0404  -22.4769 C   0  0  0  0  0  0  0  0  0  0  0  0
    4.6346   -2.5320  -22.2967 C   0  0  0  0  0  0  0  0  0  0  0  0
    2.2595   -1.2713  -21.5528 C   0  0  0  0  0  0  0  0  0  0  0  0
   -1.3788   -0.9055  -20.5966 C   0  0  0  0  0  0  0  0  0  0  0  0
    6.4542    4.2676  -28.6919 C   0  0  0  0  0  0  0  0  0  0  0  0
    5.5580    5.6020  -30.6833 C   0  0  1  0  0  0  0  0  0  0  0  0
    6.3930    1.5985  -20.0800 C   0  0  0  0  0  0  0  0  0  0  0  0
    3.4916   -3.2850  -22.1262 C   0  0  0  0  0  0  0  0  0  0  0  0
    2.2954   -2.6690  -21.7521 C   0  0  0  0  0  0  0  0  0  0  0  0
    3.4252   -0.5190  -21.7253 C   0  0  0  0  0  0  0  0  0  0  0  0
    0.9768   -0.6816  -21.1534 C   0  0  0  0  0  0  0  0  0  0  0  0
    0.0396   -2.8318  -21.2076 C   0  0  0  0  0  0  0  0  0  0  0  0
    6.0407    1.9699  -21.4934 C   0  0  0  0  0  0  0  0  0  0  0  0
    6.0375    3.5110  -26.3650 C   0  0  0  0  0  0  0  0  0  0  0  0
    5.5704    4.2648  -29.9400 C   0  0  0  0  0  0  0  0  0  0  0  0
    4.1475    5.8758  -31.2014 C   0  0  0  0  0  0  0  0  0  0  0  0
    6.0689    3.3033  -21.8079 C   0  0  0  0  0  0  0  0  0  0  0  0
    6.0043    6.7716  -29.7925 C   0  0  0  0  0  0  0  0  0  0  0  0
    6.5314    5.4763  -31.8493 C   0  0  0  0  0  0  0  0  0  0  0  0
    4.5839   -1.1581  -22.1008 C   0  0  0  0  0  0  0  0  0  0  0  0
    3.4707    0.8201  -21.5355 F   0  0  0  0  0  0  0  0  0  0  0  0
    5.7934    5.0156  -23.3827 F   0  0  0  0  0  0  0  0  0  0  0  0
   -0.0841   -1.4949  -20.9939 N   0  0  0  0  0  0  0  0  0  0  0  0
    1.1556   -3.3863  -21.5707 N   0  0  0  0  0  0  0  0  0  0  0  0
    5.1489    3.3174  -25.3639 N   0  0  0  0  0  0  0  0  0  0  0  0
    5.5835    4.0167  -27.5335 N   0  0  0  0  0  0  0  0  0  0  0  0
    5.6887   -0.3386  -22.2534 N   0  0  0  0  0  0  0  0  0  0  0  0
    0.8467    0.5111  -20.9755 O   0  0  0  0  0  0  0  0  0  0  0  0
    7.2120    3.2400  -26.2288 O   0  0  0  0  0  0  0  0  0  0  0  0
    5.1657    0.7200  -24.5416 H   0  0  0  0  0  0  0  0  0  0  0  0
    5.5792   -3.0160  -22.5856 H   0  0  0  0  0  0  0  0  0  0  0  0
   -1.4463   -0.8748  -19.4991 H   0  0  0  0  0  0  0  0  0  0  0  0
   -1.4551    0.1160  -20.9973 H   0  0  0  0  0  0  0  0  0  0  0  0
   -2.1993   -1.5188  -20.9973 H   0  0  0  0  0  0  0  0  0  0  0  0
    7.2148    3.4766  -28.7684 H   0  0  0  0  0  0  0  0  0  0  0  0
    6.9719    5.2323  -28.5858 H   0  0  0  0  0  0  0  0  0  0  0  0
    5.8079    2.2154  -19.3821 H   0  0  0  0  0  0  0  0  0  0  0  0
    6.1628    0.5361  -19.9118 H   0  0  0  0  0  0  0  0  0  0  0  0
    7.4661    1.7722  -19.9118 H   0  0  0  0  0  0  0  0  0  0  0  0
    3.5223   -4.3730  -22.2852 H   0  0  0  0  0  0  0  0  0  0  0  0
   -0.8443   -3.4712  -21.0667 H   0  0  0  0  0  0  0  0  0  0  0  0
    5.9399    3.4886  -30.6263 H   0  0  0  0  0  0  0  0  0  0  0  0
    4.5403    4.0711  -29.6061 H   0  0  0  0  0  0  0  0  0  0  0  0
    3.4635    6.0086  -30.3502 H   0  0  0  0  0  0  0  0  0  0  0  0
    4.1528    6.7897  -31.8136 H   0  0  0  0  0  0  0  0  0  0  0  0
    3.8105    5.0263  -31.8136 H   0  0  0  0  0  0  0  0  0  0  0  0
    6.3336    4.0458  -21.0407 H   0  0  0  0  0  0  0  0  0  0  0  0
    5.8965    6.4889  -28.7349 H   0  0  0  0  0  0  0  0  0  0  0  0
    7.0572    7.0113  -30.0024 H   0  0  0  0  0  0  0  0  0  0  0  0
    5.3789    7.6518  -30.0024 H   0  0  0  0  0  0  0  0  0  0  0  0
    7.5525    5.3445  -31.4620 H   0  0  0  0  0  0  0  0  0  0  0  0
    6.2571    4.6061  -32.4638 H   0  0  0  0  0  0  0  0  0  0  0  0
    6.4871    6.3876  -32.4638 H   0  0  0  0  0  0  0  0  0  0  0  0
    4.1706    3.5692  -25.5651 H   0  0  0  0  0  0  0  0  0  0  0  0
    4.5807    4.2366  -27.6165 H   0  0  0  0  0  0  0  0  0  0  0  0
    6.6086   -0.7983  -22.1956 H   0  0  0  0  0  0  0  0  0  0  0  0
  1  2  2  0
  1 20  1  0
  1 25  1  0
  2  3  1  0
  2 28  1  0
  3  4  2  0
  4 16  1  0
  4 30  1  0
  5 11  2  0
  5 23  1  0
  6 12  2  0
  6 13  1  0
  6 14  1  0
  7 26  1  0
  8 18  1  0
  8 29  1  0
  9 18  1  1
  9 19  1  0
  9 21  1  0
  9 22  1  0
 10 16  1  0
 11 12  1  0
 12 27  1  0
 13 23  2  0
 13 24  1  0
 14 26  1  0
 14 31  2  0
 15 26  1  0
 15 27  2  0
 16 20  2  0
 17 28  1  0
 17 29  1  0
 17 32  2  0
 23 30  1  0
  3 33  1  0
  5 34  1  0
  7 35  1  0
  7 36  1  0
  7 37  1  0
  8 38  1  0
  8 39  1  0
 10 40  1  0
 10 41  1  0
 10 42  1  0
 11 43  1  0
 15 44  1  0
 18 45  1  0
 18 46  1  0
 19 47  1  0
 19 48  1  0
 19 49  1  0
 20 50  1  0
 21 51  1  0
 21 52  1  0
 21 53  1  0
 22 54  1  0
 22 55  1  0
 22 56  1  0
 28 57  1  0
 29 58  1  0
 30 59  1  0
M  END
>  <filename_input>  (6) 
7K0V_VQP_docked.sdf

>  <pdb_id>  (6) 
7K0V_VQP

>  <pose_rank>  (6) 
5

>  <num_atoms_heavy>  (6) 
32

>  <num_torsions>  (6) 
6

>  <pose>  (6) 
[5.7646773106382065, 3.7107495872072835, -23.08816726847379, -0.014049675340593468, 0.4502480619846282, 0.6301162911039302, -2.228351032415095, 0.6985658019530236, -1.1761342390625482, -1.14419855028294, -5.418865836373631, 2.4341841731617193]

>  <energy>  (6) 
-946.1264949893089

>  <inter_energy>  (6) 
-981.3954793362637

>  <intra_energy>  (6) 
48.18310470676025

>  <rmsd>  (6) 
2.24668

>  <sdf_rank>  (6) 
0

$$$$

     RDKit          3D

 59 61  0  0  0  0  0  0  0  0999 V2000
    7.6783    2.4760  -22.4752 C   0  0  0  0  0  0  0  0  0  0  0  0
    7.3734    1.5704  -23.4762 C   0  0  0  0  0  0  0  0  0  0  0  0
    6.1058    1.0128  -23.4923 C   0  0  0  0  0  0  0  0  0  0  0  0
    5.1609    1.3963  -22.5528 C   0  0  0  0  0  0  0  0  0  0  0  0
    3.9728   -0.4405  -20.5191 C   0  0  0  0  0  0  0  0  0  0  0  0
    1.3773   -1.2976  -21.0781 C   0  0  0  0  0  0  0  0  0  0  0  0
   -1.9280   -3.0622  -20.5817 C   0  0  0  0  0  0  0  0  0  0  0  0
   11.0032   -1.2062  -25.3768 C   0  0  0  0  0  0  0  0  0  0  0  0
   11.8793   -2.8125  -27.1662 C   0  0  1  0  0  0  0  0  0  0  0  0
    4.5341    2.7748  -20.4926 C   0  0  0  0  0  0  0  0  0  0  0  0
    3.3233   -1.2650  -19.6242 C   0  0  0  0  0  0  0  0  0  0  0  0
    2.0232   -1.7010  -19.8888 C   0  0  0  0  0  0  0  0  0  0  0  0
    2.0445   -0.4590  -21.9761 C   0  0  0  0  0  0  0  0  0  0  0  0
    0.0097   -1.7810  -21.2980 C   0  0  0  0  0  0  0  0  0  0  0  0
    0.1425   -2.9094  -19.2454 C   0  0  0  0  0  0  0  0  0  0  0  0
    5.4900    2.3204  -21.5602 C   0  0  0  0  0  0  0  0  0  0  0  0
    9.1691    0.1104  -24.3457 C   0  0  0  0  0  0  0  0  0  0  0  0
   10.7264   -1.9212  -26.7001 C   0  0  0  0  0  0  0  0  0  0  0  0
   11.3956   -3.7032  -28.3088 C   0  0  0  0  0  0  0  0  0  0  0  0
    6.7508    2.8564  -21.5304 C   0  0  0  0  0  0  0  0  0  0  0  0
   13.0939   -1.9994  -27.6396 C   0  0  0  0  0  0  0  0  0  0  0  0
   12.2967   -3.6661  -25.9745 C   0  0  0  0  0  0  0  0  0  0  0  0
    3.3269   -0.0546  -21.6864 C   0  0  0  0  0  0  0  0  0  0  0  0
    1.4835   -0.0183  -23.1259 F   0  0  0  0  0  0  0  0  0  0  0  0
    8.9054    3.0079  -22.4373 F   0  0  0  0  0  0  0  0  0  0  0  0
   -0.5531   -2.5691  -20.3628 N   0  0  0  0  0  0  0  0  0  0  0  0
    1.3566   -2.5083  -19.0225 N   0  0  0  0  0  0  0  0  0  0  0  0
    8.3954    1.2192  -24.3776 N   0  0  0  0  0  0  0  0  0  0  0  0
   10.1066   -0.0426  -25.3075 N   0  0  0  0  0  0  0  0  0  0  0  0
    3.9147    0.7698  -22.6300 N   0  0  0  0  0  0  0  0  0  0  0  0
   -0.6173   -1.4998  -22.2976 O   0  0  0  0  0  0  0  0  0  0  0  0
    9.0326   -0.7311  -23.4827 O   0  0  0  0  0  0  0  0  0  0  0  0
    5.8474    0.2624  -24.2539 H   0  0  0  0  0  0  0  0  0  0  0  0
    4.9947   -0.0912  -20.3098 H   0  0  0  0  0  0  0  0  0  0  0  0
   -2.4140   -3.2366  -19.6104 H   0  0  0  0  0  0  0  0  0  0  0  0
   -2.5002   -2.3133  -21.1489 H   0  0  0  0  0  0  0  0  0  0  0  0
   -1.8937   -4.0041  -21.1489 H   0  0  0  0  0  0  0  0  0  0  0  0
   10.8038   -1.8848  -24.5343 H   0  0  0  0  0  0  0  0  0  0  0  0
   12.0549   -0.8890  -25.3203 H   0  0  0  0  0  0  0  0  0  0  0  0
    4.9661    2.5695  -19.5021 H   0  0  0  0  0  0  0  0  0  0  0  0
    4.3540    3.8549  -20.5973 H   0  0  0  0  0  0  0  0  0  0  0  0
    3.5828    2.2326  -20.5973 H   0  0  0  0  0  0  0  0  0  0  0  0
    3.8304   -1.5798  -18.7002 H   0  0  0  0  0  0  0  0  0  0  0  0
   -0.3448   -3.5525  -18.4977 H   0  0  0  0  0  0  0  0  0  0  0  0
    9.8305   -2.5474  -26.5765 H   0  0  0  0  0  0  0  0  0  0  0  0
   10.5898   -1.1430  -27.4654 H   0  0  0  0  0  0  0  0  0  0  0  0
   10.9092   -4.5988  -27.8948 H   0  0  0  0  0  0  0  0  0  0  0  0
   10.6753   -3.1476  -28.9272 H   0  0  0  0  0  0  0  0  0  0  0  0
   12.2538   -4.0048  -28.9272 H   0  0  0  0  0  0  0  0  0  0  0  0
    7.0213    3.5879  -20.7546 H   0  0  0  0  0  0  0  0  0  0  0  0
   13.6493   -1.6276  -26.7660 H   0  0  0  0  0  0  0  0  0  0  0  0
   13.7506   -2.6406  -28.2459 H   0  0  0  0  0  0  0  0  0  0  0  0
   12.7514   -1.1478  -28.2459 H   0  0  0  0  0  0  0  0  0  0  0  0
   12.0409   -3.1430  -25.0413 H   0  0  0  0  0  0  0  0  0  0  0  0
   11.7685   -4.6302  -26.0111 H   0  0  0  0  0  0  0  0  0  0  0  0
   13.3821   -3.8411  -26.0111 H   0  0  0  0  0  0  0  0  0  0  0  0
    8.5740    1.8801  -25.1472 H   0  0  0  0  0  0  0  0  0  0  0  0
   10.1972    0.6903  -26.0256 H   0  0  0  0  0  0  0  0  0  0  0  0
    3.3707    0.9410  -23.4877 H   0  0  0  0  0  0  0  0  0  0  0  0
  1  2  2  0
  1 20  1  0
  1 25  1  0
  2  3  1  0
  2 28  1  0
  3  4  2  0
  4 16  1  0
  4 30  1  0
  5 11  2  0
  5 23  1  0
  6 12  2  0
  6 13  1  0
  6 14  1  0
  7 26  1  0
  8 18  1  0
  8 29  1  0
  9 18  1  1
  9 19  1  0
  9 21  1  0
  9 22  1  0
 10 16  1  0
 11 12  1  0
 12 27  1  0
 13 23  2  0
 13 24  1  0
 14 26  1  0
 14 31  2  0
 15 26  1  0
 15 27  2  0
 16 20  2  0
 17 28  1  0
 17 29  1  0
 17 32  2  0
 23 30  1  0
  3 33  1  0
  5 34  1  0
  7 35  1  0
  7 36  1  0
  7 37  1  0
  8 38  1  0
  8 39  1  0
 10 40  1  0
 10 41  1  0
 10 42  1  0
 11 43  1  0
 15 44  1  0
 18 45  1  0
 18 46  1  0
 19 47  1  0
 19 48  1  0
 19 49  1  0
 20 50  1  0
 21 51  1  0
 21 52  1  0
 21 53  1  0
 22 54  1  0
 22 55  1  0
 22 56  1  0
 28 57  1  0
 29 58  1  0
 30 59  1  0
M  END
>  <filename_input>  (7) 
7K0V_VQP_docked.sdf

>  <pdb_id>  (7) 
7K0V_VQP

>  <pose_rank>  (7) 
6

>  <num_atoms_heavy>  (7) 
32

>  <num_torsions>  (7) 
6

>  <pose>  (7) 
[7.678260789819964, 2.4760043852337303, -22.475181514317402, -0.3575513734261059, -0.3523259428020803, -0.4294130682981358, -2.0509600479607477, 0.025671512517888524, -0.4610903749020231, -2.0285832798144137, -2.043040886675169, -0.41664783797297883]

>  <energy>  (7) 
-930.7837331311717

>  <inter_energy>  (7) 
-934.4611766486129

>  <intra_energy>  (7) 
24.217893371935517

>  <rmsd>  (7) 
4.91419

>  <sdf_rank>  (7) 
0

$$$$

     RDKit          3D

 59 61  0  0  0  0  0  0  0  0999 V2000
    5.1985    1.6717  -21.5661 C   0  0  0  0  0  0  0  0  0  0  0  0
    4.9598    0.7461  -22.5668 C   0  0  0  0  0  0  0  0  0  0  0  0
    5.4355    1.0181  -23.8387 C   0  0  0  0  0  0  0  0  0  0  0  0
    6.1714    2.1684  -24.0792 C   0  0  0  0  0  0  0  0  0  0  0  0
    4.7159    3.6868  -26.2111 C   0  0  0  0  0  0  0  0  0  0  0  0
    6.2166    4.1811  -28.5106 C   0  0  0  0  0  0  0  0  0  0  0  0
    7.0829    5.5841  -31.9114 C   0  0  0  0  0  0  0  0  0  0  0  0
    0.8466   -1.8046  -21.5311 C   0  0  0  0  0  0  0  0  0  0  0  0
   -0.5233   -3.8411  -20.8061 C   0  0  1  0  0  0  0  0  0  0  0  0
    7.1771    4.3599  -23.2288 C   0  0  0  0  0  0  0  0  0  0  0  0
    4.1791    4.4622  -27.2177 C   0  0  0  0  0  0  0  0  0  0  0  0
    4.9184    4.7203  -28.3740 C   0  0  0  0  0  0  0  0  0  0  0  0
    6.7513    3.3993  -27.4822 C   0  0  0  0  0  0  0  0  0  0  0  0
    6.9479    4.4925  -29.7437 C   0  0  0  0  0  0  0  0  0  0  0  0
    5.0977    5.7487  -30.4528 C   0  0  0  0  0  0  0  0  0  0  0  0
    6.4082    3.0806  -23.0499 C   0  0  0  0  0  0  0  0  0  0  0  0
    2.8477   -0.4355  -22.0618 C   0  0  0  0  0  0  0  0  0  0  0  0
    0.5240   -3.2803  -21.7702 C   0  0  0  0  0  0  0  0  0  0  0  0
   -1.1818   -5.0664  -21.4368 C   0  0  0  0  0  0  0  0  0  0  0  0
    5.9193    2.8229  -21.7960 C   0  0  0  0  0  0  0  0  0  0  0  0
    0.0807   -4.2349  -19.4494 C   0  0  0  0  0  0  0  0  0  0  0  0
   -1.5583   -2.7452  -20.5809 C   0  0  0  0  0  0  0  0  0  0  0  0
    5.9921    3.1600  -26.3604 C   0  0  0  0  0  0  0  0  0  0  0  0
    7.9931    2.8643  -27.5353 F   0  0  0  0  0  0  0  0  0  0  0  0
    4.7282    1.4298  -20.3370 F   0  0  0  0  0  0  0  0  0  0  0  0
    6.3527    5.2716  -30.6662 N   0  0  0  0  0  0  0  0  0  0  0  0
    4.4178    5.4859  -29.3789 N   0  0  0  0  0  0  0  0  0  0  0  0
    4.1868   -0.3848  -22.2446 N   0  0  0  0  0  0  0  0  0  0  0  0
    2.2899   -1.6268  -21.7504 N   0  0  0  0  0  0  0  0  0  0  0  0
    6.5955    2.3739  -25.3943 N   0  0  0  0  0  0  0  0  0  0  0  0
    8.0613    4.0604  -29.9558 O   0  0  0  0  0  0  0  0  0  0  0  0
    2.1566    0.5551  -22.1733 O   0  0  0  0  0  0  0  0  0  0  0  0
    5.2286    0.3183  -24.6618 H   0  0  0  0  0  0  0  0  0  0  0  0
    4.1374    3.4872  -25.2970 H   0  0  0  0  0  0  0  0  0  0  0  0
    8.0681    6.0057  -31.6628 H   0  0  0  0  0  0  0  0  0  0  0  0
    7.2157    4.6640  -32.4995 H   0  0  0  0  0  0  0  0  0  0  0  0
    6.5090    6.3154  -32.4995 H   0  0  0  0  0  0  0  0  0  0  0  0
    0.2797   -1.1774  -22.2349 H   0  0  0  0  0  0  0  0  0  0  0  0
    0.5706   -1.5083  -20.5084 H   0  0  0  0  0  0  0  0  0  0  0  0
    7.4282    4.7777  -22.2427 H   0  0  0  0  0  0  0  0  0  0  0  0
    8.1026    4.1564  -23.7873 H   0  0  0  0  0  0  0  0  0  0  0  0
    6.5630    5.0818  -23.7873 H   0  0  0  0  0  0  0  0  0  0  0  0
    3.1665    4.8782  -27.1094 H   0  0  0  0  0  0  0  0  0  0  0  0
    4.6385    6.3850  -31.2237 H   0  0  0  0  0  0  0  0  0  0  0  0
    0.1466   -3.3920  -22.7974 H   0  0  0  0  0  0  0  0  0  0  0  0
    1.4528   -3.8453  -21.6026 H   0  0  0  0  0  0  0  0  0  0  0  0
   -1.5427   -5.7377  -20.6437 H   0  0  0  0  0  0  0  0  0  0  0  0
   -2.0297   -4.7467  -22.0605 H   0  0  0  0  0  0  0  0  0  0  0  0
   -0.4474   -5.5971  -22.0605 H   0  0  0  0  0  0  0  0  0  0  0  0
    6.1018    3.5328  -20.9758 H   0  0  0  0  0  0  0  0  0  0  0  0
   -0.5423   -3.8287  -18.6389 H   0  0  0  0  0  0  0  0  0  0  0  0
    0.1178   -5.3313  -19.3689 H   0  0  0  0  0  0  0  0  0  0  0  0
    1.0990   -3.8267  -19.3689 H   0  0  0  0  0  0  0  0  0  0  0  0
   -1.7021   -2.5930  -19.5010 H   0  0  0  0  0  0  0  0  0  0  0  0
   -1.2070   -1.8092  -21.0396 H   0  0  0  0  0  0  0  0  0  0  0  0
   -2.5129   -3.0426  -21.0396 H   0  0  0  0  0  0  0  0  0  0  0  0
    4.6976   -1.2726  -22.1358 H   0  0  0  0  0  0  0  0  0  0  0  0
    2.9046   -2.4486  -21.6626 H   0  0  0  0  0  0  0  0  0  0  0  0
    7.4561    1.8840  -25.6775 H   0  0  0  0  0  0  0  0  0  0  0  0
  1  2  2  0
  1 20  1  0
  1 25  1  0
  2  3  1  0
  2 28  1  0
  3  4  2  0
  4 16  1  0
  4 30  1  0
  5 11  2  0
  5 23  1  0
  6 12  2  0
  6 13  1  0
  6 14  1  0
  7 26  1  0
  8 18  1  0
  8 29  1  0
  9 18  1  6
  9 19  1  0
  9 21  1  0
  9 22  1  0
 10 16  1  0
 11 12  1  0
 12 27  1  0
 13 23  2  0
 13 24  1  0
 14 26  1  0
 14 31  2  0
 15 26  1  0
 15 27  2  0
 16 20  2  0
 17 28  1  0
 17 29  1  0
 17 32  2  0
 23 30  1  0
  3 33  1  0
  5 34  1  0
  7 35  1  0
  7 36  1  0
  7 37  1  0
  8 38  1  0
  8 39  1  0
 10 40  1  0
 10 41  1  0
 10 42  1  0
 11 43  1  0
 15 44  1  0
 18 45  1  0
 18 46  1  0
 19 47  1  0
 19 48  1  0
 19 49  1  0
 20 50  1  0
 21 51  1  0
 21 52  1  0
 21 53  1  0
 22 54  1  0
 22 55  1  0
 22 56  1  0
 28 57  1  0
 29 58  1  0
 30 59  1  0
M  END
>  <filename_input>  (8) 
7K0V_VQP_docked.sdf

>  <pdb_id>  (8) 
7K0V_VQP

>  <pose_rank>  (8) 
7

>  <num_atoms_heavy>  (8) 
32

>  <num_torsions>  (8) 
6

>  <pose>  (8) 
[5.198548101347085, 1.6717005140366168, -21.566081514066152, 0.7200698571698971, 1.864027333187564, 2.554775210358415, -2.474053929625389, 0.7067363548681015, -0.7507666445371992, -2.2114682008772912, -2.3764935945316905, -0.5514205462548244]

>  <energy>  (8) 
-923.0287890329319

>  <inter_energy>  (8) 
-889.9751693765853

>  <intra_energy>  (8) 
7.793308516057184

>  <rmsd>  (8) 
10.042

>  <sdf_rank>  (8) 
0

$$$$

     RDKit          3D

 59 61  0  0  0  0  0  0  0  0999 V2000
    4.9354    2.4058  -22.8493 C   0  0  0  0  0  0  0  0  0  0  0  0
    4.8539    1.4958  -23.8887 C   0  0  0  0  0  0  0  0  0  0  0  0
    4.7863    0.1482  -23.5768 C   0  0  0  0  0  0  0  0  0  0  0  0
    4.7538   -0.2626  -22.2529 C   0  0  0  0  0  0  0  0  0  0  0  0
    3.6711   -3.7646  -21.4426 C   0  0  0  0  0  0  0  0  0  0  0  0
    1.2461   -2.3965  -21.2645 C   0  0  0  0  0  0  0  0  0  0  0  0
   -2.4464   -1.8447  -20.6760 C   0  0  0  0  0  0  0  0  0  0  0  0
    6.6714    4.0998  -27.6852 C   0  0  0  0  0  0  0  0  0  0  0  0
    6.0603    5.5747  -29.6854 C   0  0  1  0  0  0  0  0  0  0  0  0
    4.8177    0.3159  -19.7632 C   0  0  0  0  0  0  0  0  0  0  0  0
    2.5251   -4.4562  -21.1094 C   0  0  0  0  0  0  0  0  0  0  0  0
    1.3039   -3.7852  -21.0144 C   0  0  0  0  0  0  0  0  0  0  0  0
    2.4149   -1.7056  -21.5981 C   0  0  0  0  0  0  0  0  0  0  0  0
   -0.0627   -1.7450  -21.1421 C   0  0  0  0  0  0  0  0  0  0  0  0
   -0.9798   -3.8282  -20.5735 C   0  0  0  0  0  0  0  0  0  0  0  0
    4.8258    0.6760  -21.2227 C   0  0  0  0  0  0  0  0  0  0  0  0
    5.8434    2.8299  -25.7200 C   0  0  0  0  0  0  0  0  0  0  0  0
    6.2869    4.1541  -29.1644 C   0  0  0  0  0  0  0  0  0  0  0  0
    5.1791    5.5183  -30.9316 C   0  0  0  0  0  0  0  0  0  0  0  0
    4.9146    2.0083  -21.5305 C   0  0  0  0  0  0  0  0  0  0  0  0
    5.3972    6.4836  -28.6390 C   0  0  0  0  0  0  0  0  0  0  0  0
    7.4286    6.1483  -30.0344 C   0  0  0  0  0  0  0  0  0  0  0  0
    3.5989   -2.3998  -21.6894 C   0  0  0  0  0  0  0  0  0  0  0  0
    2.4393   -0.3734  -21.8344 F   0  0  0  0  0  0  0  0  0  0  0  0
    5.0201    3.7096  -23.1375 F   0  0  0  0  0  0  0  0  0  0  0  0
   -1.1257   -2.4951  -20.7959 N   0  0  0  0  0  0  0  0  0  0  0  0
    0.1602   -4.4393  -20.6819 N   0  0  0  0  0  0  0  0  0  0  0  0
    4.9143    1.9936  -25.2036 N   0  0  0  0  0  0  0  0  0  0  0  0
    5.7222    3.1985  -27.0149 N   0  0  0  0  0  0  0  0  0  0  0  0
    4.7052   -1.6406  -22.0285 N   0  0  0  0  0  0  0  0  0  0  0  0
   -0.2118   -0.5600  -21.3538 O   0  0  0  0  0  0  0  0  0  0  0  0
    6.7654    3.2426  -25.0483 O   0  0  0  0  0  0  0  0  0  0  0  0
    4.7582   -0.5996  -24.3830 H   0  0  0  0  0  0  0  0  0  0  0  0
    4.6349   -4.2901  -21.5122 H   0  0  0  0  0  0  0  0  0  0  0  0
   -2.6987   -1.7205  -19.6126 H   0  0  0  0  0  0  0  0  0  0  0  0
   -2.4153   -0.8589  -21.1631 H   0  0  0  0  0  0  0  0  0  0  0  0
   -3.2088   -2.4704  -21.1631 H   0  0  0  0  0  0  0  0  0  0  0  0
    7.6959    3.7140  -27.5773 H   0  0  0  0  0  0  0  0  0  0  0  0
    6.6342    5.1041  -27.2379 H   0  0  0  0  0  0  0  0  0  0  0  0
    4.8384    1.2346  -19.1587 H   0  0  0  0  0  0  0  0  0  0  0  0
    3.9064   -0.2550  -19.5314 H   0  0  0  0  0  0  0  0  0  0  0  0
    5.7023   -0.2955  -19.5314 H   0  0  0  0  0  0  0  0  0  0  0  0
    2.5731   -5.5383  -20.9182 H   0  0  0  0  0  0  0  0  0  0  0  0
   -1.8661   -4.4144  -20.2895 H   0  0  0  0  0  0  0  0  0  0  0  0
    7.0951    3.6931  -29.7512 H   0  0  0  0  0  0  0  0  0  0  0  0
    5.3339    3.6152  -29.2705 H   0  0  0  0  0  0  0  0  0  0  0  0
    4.1230    5.4507  -30.6311 H   0  0  0  0  0  0  0  0  0  0  0  0
    5.3324    6.4281  -31.5305 H   0  0  0  0  0  0  0  0  0  0  0  0
    5.4471    4.6355  -31.5305 H   0  0  0  0  0  0  0  0  0  0  0  0
    4.9691    2.7579  -20.7273 H   0  0  0  0  0  0  0  0  0  0  0  0
    5.6553    6.1300  -27.6299 H   0  0  0  0  0  0  0  0  0  0  0  0
    5.7564    7.5152  -28.7690 H   0  0  0  0  0  0  0  0  0  0  0  0
    4.3053    6.4565  -28.7690 H   0  0  0  0  0  0  0  0  0  0  0  0
    7.9768    6.3781  -29.1089 H   0  0  0  0  0  0  0  0  0  0  0  0
    7.9955    5.4121  -30.6232 H   0  0  0  0  0  0  0  0  0  0  0  0
    7.3010    7.0687  -30.6232 H   0  0  0  0  0  0  0  0  0  0  0  0
    4.1680    1.6871  -25.8439 H   0  0  0  0  0  0  0  0  0  0  0  0
    4.9277    2.8308  -27.5575 H   0  0  0  0  0  0  0  0  0  0  0  0
    5.5949   -2.1501  -22.1268 H   0  0  0  0  0  0  0  0  0  0  0  0
  1  2  2  0
  1 20  1  0
  1 25  1  0
  2  3  1  0
  2 28  1  0
  3  4  2  0
  4 16  1  0
  4 30  1  0
  5 11  2  0
  5 23  1  0
  6 12  2  0
  6 13  1  0
  6 14  1  0
  7 26  1  0
  8 18  1  0
  8 29  1  0
  9 18  1  1
  9 19  1  0
  9 21  1  0
  9 22  1  0
 10 16  1  0
 11 12  1  0
 12 27  1  0
 13 23  2  0
 13 24  1  0
 14 26  1  0
 14 31  2  0
 15 26  1  0
 15 27  2  0
 16 20  2  0
 17 28  1  0
 17 29  1  0
 17 32  2  0
 23 30  1  0
  3 33  1  0
  5 34  1  0
  7 35  1  0
  7 36  1  0
  7 37  1  0
  8 38  1  0
  8 39  1  0
 10 40  1  0
 10 41  1  0
 10 42  1  0
 11 43  1  0
 15 44  1  0
 18 45  1  0
 18 46  1  0
 19 47  1  0
 19 48  1  0
 19 49  1  0
 20 50  1  0
 21 51  1  0
 21 52  1  0
 21 53  1  0
 22 54  1  0
 22 55  1  0
 22 56  1  0
 28 57  1  0
 29 58  1  0
 30 59  1  0
M  END
>  <filename_input>  (9) 
7K0V_VQP_docked.sdf

>  <pdb_id>  (9) 
7K0V_VQP

>  <pose_rank>  (9) 
8

>  <num_atoms_heavy>  (9) 
32

>  <num_torsions>  (9) 
6

>  <pose>  (9) 
[4.935424291281628, 2.4057546035785595, -22.849294805070148, -0.10174171418243737, 0.2075256979116069, 0.631078044571067, -2.888991437343337, 0.9975274910024373, -1.0394248029989328, -1.4262781673706195, -5.847971045665827, 2.8350591837351224]

>  <energy>  (9) 
-858.6704886094449

>  <inter_energy>  (9) 
-929.2520775531858

>  <intra_energy>  (9) 
93.72329003540226

>  <rmsd>  (9) 
2.40931

>  <sdf_rank>  (9) 
0

$$$$

     RDKit          3D

 59 61  0  0  0  0  0  0  0  0999 V2000
    6.6362    3.3714  -24.2085 C   0  0  0  0  0  0  0  0  0  0  0  0
    6.8805    2.0093  -24.1992 C   0  0  0  0  0  0  0  0  0  0  0  0
    6.1330    1.2147  -23.3461 C   0  0  0  0  0  0  0  0  0  0  0  0
    5.1362    1.7752  -22.5619 C   0  0  0  0  0  0  0  0  0  0  0  0
    4.0452   -1.0335  -23.1333 C   0  0  0  0  0  0  0  0  0  0  0  0
    1.7660   -1.5312  -21.6033 C   0  0  0  0  0  0  0  0  0  0  0  0
   -1.3685   -3.2870  -20.4297 C   0  0  0  0  0  0  0  0  0  0  0  0
   10.4221   -1.1260  -25.6570 C   0  0  0  0  0  0  0  0  0  0  0  0
   12.7516   -1.8955  -24.9288 C   0  0  1  0  0  0  0  0  0  0  0  0
    3.8570    3.8414  -21.7670 C   0  0  0  0  0  0  0  0  0  0  0  0
    3.2498   -2.1193  -23.4347 C   0  0  0  0  0  0  0  0  0  0  0  0
    2.1067   -2.3829  -22.6770 C   0  0  0  0  0  0  0  0  0  0  0  0
    2.5817   -0.4355  -21.3053 C   0  0  0  0  0  0  0  0  0  0  0  0
    0.5584   -1.8627  -20.8389 C   0  0  0  0  0  0  0  0  0  0  0  0
    0.2514   -3.7172  -22.2426 C   0  0  0  0  0  0  0  0  0  0  0  0
    4.9018    3.1504  -22.5982 C   0  0  0  0  0  0  0  0  0  0  0  0
    8.6234    0.3783  -24.8429 C   0  0  0  0  0  0  0  0  0  0  0  0
   11.7944   -0.7174  -25.1198 C   0  0  0  0  0  0  0  0  0  0  0  0
   12.7434   -2.7590  -26.1887 C   0  0  0  0  0  0  0  0  0  0  0  0
    5.6556    3.9405  -23.4260 C   0  0  0  0  0  0  0  0  0  0  0  0
   14.1901   -1.4405  -24.6382 C   0  0  0  0  0  0  0  0  0  0  0  0
   12.2428   -2.6987  -23.7376 C   0  0  0  0  0  0  0  0  0  0  0  0
    3.6962   -0.2023  -22.0770 C   0  0  0  0  0  0  0  0  0  0  0  0
    2.3280    0.4131  -20.2822 F   0  0  0  0  0  0  0  0  0  0  0  0
    7.3643    4.1527  -25.0146 F   0  0  0  0  0  0  0  0  0  0  0  0
   -0.1494   -2.9517  -21.1931 N   0  0  0  0  0  0  0  0  0  0  0  0
    1.3081   -3.4488  -22.9468 N   0  0  0  0  0  0  0  0  0  0  0  0
    7.9237    1.5237  -25.0093 N   0  0  0  0  0  0  0  0  0  0  0  0
    9.5981    0.0897  -25.7341 N   0  0  0  0  0  0  0  0  0  0  0  0
    4.4445    0.9046  -21.7162 N   0  0  0  0  0  0  0  0  0  0  0  0
    0.1789   -1.1800  -19.9109 O   0  0  0  0  0  0  0  0  0  0  0  0
    8.3897   -0.3773  -23.9233 O   0  0  0  0  0  0  0  0  0  0  0  0
    6.3309    0.1341  -23.2903 H   0  0  0  0  0  0  0  0  0  0  0  0
    4.9492   -0.8274  -23.7252 H   0  0  0  0  0  0  0  0  0  0  0  0
   -1.1543   -3.2281  -19.3523 H   0  0  0  0  0  0  0  0  0  0  0  0
   -2.1678   -2.5754  -20.6840 H   0  0  0  0  0  0  0  0  0  0  0  0
   -1.6914   -4.3073  -20.6840 H   0  0  0  0  0  0  0  0  0  0  0  0
   10.5277   -1.5722  -26.6568 H   0  0  0  0  0  0  0  0  0  0  0  0
    9.9534   -1.8706  -24.9967 H   0  0  0  0  0  0  0  0  0  0  0  0
    4.0804    3.6936  -20.7002 H   0  0  0  0  0  0  0  0  0  0  0  0
    3.8584    4.9172  -21.9964 H   0  0  0  0  0  0  0  0  0  0  0  0
    2.8676    3.4189  -21.9964 H   0  0  0  0  0  0  0  0  0  0  0  0
    3.5165   -2.7790  -24.2736 H   0  0  0  0  0  0  0  0  0  0  0  0
   -0.3459   -4.6025  -22.5066 H   0  0  0  0  0  0  0  0  0  0  0  0
   12.2496   -0.0107  -25.8293 H   0  0  0  0  0  0  0  0  0  0  0  0
   11.6328   -0.2685  -24.1286 H   0  0  0  0  0  0  0  0  0  0  0  0
   12.7332   -3.8217  -25.9048 H   0  0  0  0  0  0  0  0  0  0  0  0
   11.8474   -2.5300  -26.7843 H   0  0  0  0  0  0  0  0  0  0  0  0
   13.6436   -2.5472  -26.7843 H   0  0  0  0  0  0  0  0  0  0  0  0
    5.4784    5.0254  -23.4656 H   0  0  0  0  0  0  0  0  0  0  0  0
   14.3464   -1.3911  -23.5505 H   0  0  0  0  0  0  0  0  0  0  0  0
   14.8978   -2.1587  -25.0780 H   0  0  0  0  0  0  0  0  0  0  0  0
   14.3560   -0.4460  -25.0780 H   0  0  0  0  0  0  0  0  0  0  0  0
   12.5542   -2.2072  -22.8041 H   0  0  0  0  0  0  0  0  0  0  0  0
   11.1448   -2.7536  -23.7745 H   0  0  0  0  0  0  0  0  0  0  0  0
   12.6622   -3.7149  -23.7745 H   0  0  0  0  0  0  0  0  0  0  0  0
    8.1833    2.1052  -25.8189 H   0  0  0  0  0  0  0  0  0  0  0  0
    9.7717    0.7524  -26.5033 H   0  0  0  0  0  0  0  0  0  0  0  0
    4.4975    1.1102  -20.7083 H   0  0  0  0  0  0  0  0  0  0  0  0
  1  2  2  0
  1 20  1  0
  1 25  1  0
  2  3  1  0
  2 28  1  0
  3  4  2  0
  4 16  1  0
  4 30  1  0
  5 11  2  0
  5 23  1  0
  6 12  2  0
  6 13  1  0
  6 14  1  0
  7 26  1  0
  8 18  1  0
  8 29  1  0
  9 18  1  6
  9 19  1  0
  9 21  1  0
  9 22  1  0
 10 16  1  0
 11 12  1  0
 12 27  1  0
 13 23  2  0
 13 24  1  0
 14 26  1  0
 14 31  2  0
 15 26  1  0
 15 27  2  0
 16 20  2  0
 17 28  1  0
 17 29  1  0
 17 32  2  0
 23 30  1  0
  3 33  1  0
  5 34  1  0
  7 35  1  0
  7 36  1  0
  7 37  1  0
  8 38  1  0
  8 39  1  0
 10 40  1  0
 10 41  1  0
 10 42  1  0
 11 43  1  0
 15 44  1  0
 18 45  1  0
 18 46  1  0
 19 47  1  0
 19 48  1  0
 19 49  1  0
 20 50  1  0
 21 51  1  0
 21 52  1  0
 21 53  1  0
 22 54  1  0
 22 55  1  0
 22 56  1  0
 28 57  1  0
 29 58  1  0
 30 59  1  0
M  END
>  <filename_input>  (10) 
7K0V_VQP_docked.sdf

>  <pdb_id>  (10) 
7K0V_VQP

>  <pose_rank>  (10) 
9

>  <num_atoms_heavy>  (10) 
32

>  <num_torsions>  (10) 
6

>  <pose>  (10) 
[6.636167490463317, 3.3713659568965166, -24.208513614927913, 4.664455939876738, 1.5670866390786027, -1.4255400916209697, 17.792325556310182, 33.843310000707206, 12.43557888329965, -4.114264518256459, 32.57594500409244, 6.5617838663511066]

>  <energy>  (10) 
-759.3751481129178

>  <inter_energy>  (10) 
-788.1040175018475

>  <intra_energy>  (10) 
33.93379054386389

>  <rmsd>  (10) 
5.20979

>  <sdf_rank>  (10) 
0

$$$$

     RDKit          3D

 59 61  0  0  0  0  0  0  0  0999 V2000
    5.6009    3.9760  -23.2630 C   0  0  0  0  0  0  0  0  0  0  0  0
    5.4255    2.8690  -24.0747 C   0  0  0  0  0  0  0  0  0  0  0  0
    5.3794    1.6196  -23.4789 C   0  0  0  0  0  0  0  0  0  0  0  0
    5.4601    1.4988  -22.1000 C   0  0  0  0  0  0  0  0  0  0  0  0
    4.6169   -2.0124  -22.1951 C   0  0  0  0  0  0  0  0  0  0  0  0
    2.0771   -1.1700  -21.4054 C   0  0  0  0  0  0  0  0  0  0  0  0
   -1.6339   -1.3572  -20.7139 C   0  0  0  0  0  0  0  0  0  0  0  0
    7.1779    3.9153  -28.5838 C   0  0  0  0  0  0  0  0  0  0  0  0
    6.8735    5.0134  -30.8752 C   0  0  1  0  0  0  0  0  0  0  0  0
    5.7424    2.5888  -19.8045 C   0  0  0  0  0  0  0  0  0  0  0  0
    3.5525   -2.8841  -22.2928 C   0  0  0  0  0  0  0  0  0  0  0  0
    2.2754   -2.4780  -21.8997 C   0  0  0  0  0  0  0  0  0  0  0  0
    3.1644   -0.2964  -21.3080 C   0  0  0  0  0  0  0  0  0  0  0  0
    0.7155   -0.8030  -21.0010 C   0  0  0  0  0  0  0  0  0  0  0  0
    0.0193   -2.9612  -21.6026 C   0  0  0  0  0  0  0  0  0  0  0  0
    5.6254    2.6320  -21.3026 C   0  0  0  0  0  0  0  0  0  0  0  0
    6.4006    3.4026  -26.2830 C   0  0  0  0  0  0  0  0  0  0  0  0
    6.5426    3.8238  -29.9719 C   0  0  0  0  0  0  0  0  0  0  0  0
    5.7225    5.2364  -31.8542 C   0  0  0  0  0  0  0  0  0  0  0  0
    5.6929    3.8668  -21.8928 C   0  0  0  0  0  0  0  0  0  0  0  0
    7.1157    6.3046  -30.0784 C   0  0  0  0  0  0  0  0  0  0  0  0
    8.1477    4.6605  -31.6334 C   0  0  0  0  0  0  0  0  0  0  0  0
    4.4069   -0.7279  -21.7107 C   0  0  0  0  0  0  0  0  0  0  0  0
    3.0538    0.9642  -20.8286 F   0  0  0  0  0  0  0  0  0  0  0  0
    5.6659    5.1872  -23.8277 F   0  0  0  0  0  0  0  0  0  0  0  0
   -0.2605   -1.7233  -21.1152 N   0  0  0  0  0  0  0  0  0  0  0  0
    1.2095   -3.3172  -21.9786 N   0  0  0  0  0  0  0  0  0  0  0  0
    5.3737    3.0762  -25.4656 N   0  0  0  0  0  0  0  0  0  0  0  0
    6.1427    3.5634  -27.6002 N   0  0  0  0  0  0  0  0  0  0  0  0
    5.4252    0.2008  -21.5846 N   0  0  0  0  0  0  0  0  0  0  0  0
    0.4471    0.3026  -20.5804 O   0  0  0  0  0  0  0  0  0  0  0  0
    7.5267    3.5479  -25.8561 O   0  0  0  0  0  0  0  0  0  0  0  0
    5.2782    0.7191  -24.1025 H   0  0  0  0  0  0  0  0  0  0  0  0
    5.6247   -2.3322  -22.4987 H   0  0  0  0  0  0  0  0  0  0  0  0
   -1.7026   -1.3388  -19.6162 H   0  0  0  0  0  0  0  0  0  0  0  0
   -1.8797   -0.3621  -21.1133 H   0  0  0  0  0  0  0  0  0  0  0  0
   -2.3424   -2.0978  -21.1133 H   0  0  0  0  0  0  0  0  0  0  0  0
    8.0210    3.2127  -28.5095 H   0  0  0  0  0  0  0  0  0  0  0  0
    7.5596    4.9302  -28.3984 H   0  0  0  0  0  0  0  0  0  0  0  0
    4.8015    2.9367  -19.3530 H   0  0  0  0  0  0  0  0  0  0  0  0
    5.9441    1.5566  -19.4821 H   0  0  0  0  0  0  0  0  0  0  0  0
    6.5671    3.2414  -19.4821 H   0  0  0  0  0  0  0  0  0  0  0  0
    3.7098   -3.9012  -22.6810 H   0  0  0  0  0  0  0  0  0  0  0  0
   -0.7983   -3.6927  -21.6816 H   0  0  0  0  0  0  0  0  0  0  0  0
    6.9027    2.9059  -30.4595 H   0  0  0  0  0  0  0  0  0  0  0  0
    5.4520    3.8205  -29.8286 H   0  0  0  0  0  0  0  0  0  0  0  0
    4.7936    5.4164  -31.2931 H   0  0  0  0  0  0  0  0  0  0  0  0
    5.9433    6.1085  -32.4872 H   0  0  0  0  0  0  0  0  0  0  0  0
    5.6016    4.3450  -32.4872 H   0  0  0  0  0  0  0  0  0  0  0  0
    5.8201    4.7678  -21.2747 H   0  0  0  0  0  0  0  0  0  0  0  0
    7.0743    6.0841  -29.0016 H   0  0  0  0  0  0  0  0  0  0  0  0
    8.1058    6.7115  -30.3317 H   0  0  0  0  0  0  0  0  0  0  0  0
    6.3403    7.0426  -30.3317 H   0  0  0  0  0  0  0  0  0  0  0  0
    8.9514    4.4379  -30.9161 H   0  0  0  0  0  0  0  0  0  0  0  0
    7.9659    3.7789  -32.2656 H   0  0  0  0  0  0  0  0  0  0  0  0
    8.4454    5.5100  -32.2656 H   0  0  0  0  0  0  0  0  0  0  0  0
    4.4513    2.9671  -25.9107 H   0  0  0  0  0  0  0  0  0  0  0  0
    5.1758    3.4333  -27.9305 H   0  0  0  0  0  0  0  0  0  0  0  0
    6.2523   -0.0996  -21.0493 H   0  0  0  0  0  0  0  0  0  0  0  0
  1  2  2  0
  1 20  1  0
  1 25  1  0
  2  3  1  0
  2 28  1  0
  3  4  2  0
  4 16  1  0
  4 30  1  0
  5 11  2  0
  5 23  1  0
  6 12  2  0
  6 13  1  0
  6 14  1  0
  7 26  1  0
  8 18  1  0
  8 29  1  0
  9 18  1  1
  9 19  1  0
  9 21  1  0
  9 22  1  0
 10 16  1  0
 11 12  1  0
 12 27  1  0
 13 23  2  0
 13 24  1  0
 14 26  1  0
 14 31  2  0
 15 26  1  0
 15 27  2  0
 16 20  2  0
 17 28  1  0
 17 29  1  0
 17 32  2  0
 23 30  1  0
  3 33  1  0
  5 34  1  0
  7 35  1  0
  7 36  1  0
  7 37  1  0
  8 38  1  0
  8 39  1  0
 10 40  1  0
 10 41  1  0
 10 42  1  0
 11 43  1  0
 15 44  1  0
 18 45  1  0
 18 46  1  0
 19 47  1  0
 19 48  1  0
 19 49  1  0
 20 50  1  0
 21 51  1  0
 21 52  1  0
 21 53  1  0
 22 54  1  0
 22 55  1  0
 22 56  1  0
 28 57  1  0
 29 58  1  0
 30 59  1  0
M  END
>  <filename_input>  (11) 
7K0V_VQP_docked.sdf

>  <pdb_id>  (11) 
7K0V_VQP

>  <pose_rank>  (11) 
10

>  <num_atoms_heavy>  (11) 
32

>  <num_torsions>  (11) 
6

>  <pose>  (11) 
[5.6009156936708075, 3.9759776714650426, -23.26296350114644, -0.2791370336519698, 0.35851161842921886, 0.598864967145848, -2.5228347939962954, 0.97399633942206, -0.8830671902815987, -1.301664605356832, -5.134636829193171, 1.8622024506860169]

>  <energy>  (11) 
-1084.0979612279332

>  <inter_energy>  (11) 
-1097.7005233105012

>  <intra_energy>  (11) 
21.241857989810146

>  <rmsd>  (11) 
2.19048

>  <sdf_rank>  (11) 
0

$$$$

     RDKit          3D

 59 61  0  0  0  0  0  0  0  0999 V2000
    4.2996    2.3416  -22.6768 C   0  0  0  0  0  0  0  0  0  0  0  0
    4.4768    1.2353  -23.4890 C   0  0  0  0  0  0  0  0  0  0  0  0
    5.4228    1.3072  -24.4978 C   0  0  0  0  0  0  0  0  0  0  0  0
    6.1989    2.4462  -24.6492 C   0  0  0  0  0  0  0  0  0  0  0  0
    8.3712    4.3652  -26.5063 C   0  0  0  0  0  0  0  0  0  0  0  0
    6.6217    4.4496  -28.6780 C   0  0  0  0  0  0  0  0  0  0  0  0
    5.1098    5.6347  -31.9329 C   0  0  0  0  0  0  0  0  0  0  0  0
    2.0305   -2.1947  -20.8913 C   0  0  0  0  0  0  0  0  0  0  0  0
   -0.1153   -3.5491  -21.2240 C   0  0  1  0  0  0  0  0  0  0  0  0
    6.7908    4.8236  -23.9176 C   0  0  0  0  0  0  0  0  0  0  0  0
    8.5321    5.3394  -27.4694 C   0  0  0  0  0  0  0  0  0  0  0  0
    7.6658    5.3937  -28.5634 C   0  0  0  0  0  0  0  0  0  0  0  0
    6.4706    3.4647  -27.6972 C   0  0  0  0  0  0  0  0  0  0  0  0
    5.7484    4.5518  -29.8524 C   0  0  0  0  0  0  0  0  0  0  0  0
    7.0179    6.3928  -30.5618 C   0  0  0  0  0  0  0  0  0  0  0  0
    6.0085    3.5444  -23.8094 C   0  0  0  0  0  0  0  0  0  0  0  0
    3.2950   -0.4336  -22.0996 C   0  0  0  0  0  0  0  0  0  0  0  0
    0.5012   -2.1904  -20.8854 C   0  0  0  0  0  0  0  0  0  0  0  0
   -0.4428   -4.2890  -19.9286 C   0  0  0  0  0  0  0  0  0  0  0  0
    5.0576    3.4823  -22.8247 C   0  0  0  0  0  0  0  0  0  0  0  0
   -1.3927   -3.4190  -22.0677 C   0  0  0  0  0  0  0  0  0  0  0  0
    0.9229   -4.3258  -22.0252 C   0  0  0  0  0  0  0  0  0  0  0  0
    7.3380    3.4455  -26.6299 C   0  0  0  0  0  0  0  0  0  0  0  0
    5.5053    2.5177  -27.7490 F   0  0  0  0  0  0  0  0  0  0  0  0
    3.3757    2.2919  -21.7102 F   0  0  0  0  0  0  0  0  0  0  0  0
    5.9891    5.5246  -30.7513 N   0  0  0  0  0  0  0  0  0  0  0  0
    7.8042    6.3382  -29.5306 N   0  0  0  0  0  0  0  0  0  0  0  0
    3.6340    0.1273  -23.2826 N   0  0  0  0  0  0  0  0  0  0  0  0
    2.4696   -1.5041  -22.1132 N   0  0  0  0  0  0  0  0  0  0  0  0
    7.1147    2.4412  -25.7041 N   0  0  0  0  0  0  0  0  0  0  0  0
    4.8164    3.7953  -30.0266 O   0  0  0  0  0  0  0  0  0  0  0  0
    3.7134    0.0052  -21.0490 O   0  0  0  0  0  0  0  0  0  0  0  0
    5.5592    0.4568  -25.1821 H   0  0  0  0  0  0  0  0  0  0  0  0
    9.0561    4.3171  -25.6469 H   0  0  0  0  0  0  0  0  0  0  0  0
    4.0682    5.7650  -31.6040 H   0  0  0  0  0  0  0  0  0  0  0  0
    5.4146    6.5017  -32.5374 H   0  0  0  0  0  0  0  0  0  0  0  0
    5.1916    4.7193  -32.5374 H   0  0  0  0  0  0  0  0  0  0  0  0
    2.4110   -1.6672  -20.0042 H   0  0  0  0  0  0  0  0  0  0  0  0
    2.4153   -3.2250  -20.8689 H   0  0  0  0  0  0  0  0  0  0  0  0
    7.0205    5.1992  -22.9095 H   0  0  0  0  0  0  0  0  0  0  0  0
    7.7283    4.6351  -24.4611 H   0  0  0  0  0  0  0  0  0  0  0  0
    6.1959    5.5723  -24.4611 H   0  0  0  0  0  0  0  0  0  0  0  0
    9.3445    6.0751  -27.3756 H   0  0  0  0  0  0  0  0  0  0  0  0
    7.1915    7.1755  -31.3149 H   0  0  0  0  0  0  0  0  0  0  0  0
    0.1579   -1.8924  -19.8838 H   0  0  0  0  0  0  0  0  0  0  0  0
    0.1771   -1.4853  -21.6651 H   0  0  0  0  0  0  0  0  0  0  0  0
   -0.1654   -3.6624  -19.0681 H   0  0  0  0  0  0  0  0  0  0  0  0
   -1.5207   -4.5053  -19.8923 H   0  0  0  0  0  0  0  0  0  0  0  0
    0.1218   -5.2324  -19.8923 H   0  0  0  0  0  0  0  0  0  0  0  0
    4.9000    4.3404  -22.1547 H   0  0  0  0  0  0  0  0  0  0  0  0
   -2.2641   -3.3303  -21.4024 H   0  0  0  0  0  0  0  0  0  0  0  0
   -1.3232   -2.5233  -22.7025 H   0  0  0  0  0  0  0  0  0  0  0  0
   -1.5052   -4.3103  -22.7025 H   0  0  0  0  0  0  0  0  0  0  0  0
    1.6091   -4.8393  -21.3356 H   0  0  0  0  0  0  0  0  0  0  0  0
    0.4163   -5.0685  -22.6590 H   0  0  0  0  0  0  0  0  0  0  0  0
    1.4924   -3.6303  -22.6590 H   0  0  0  0  0  0  0  0  0  0  0  0
    3.2306   -0.3044  -24.1263 H   0  0  0  0  0  0  0  0  0  0  0  0
    2.1323   -1.8523  -23.0219 H   0  0  0  0  0  0  0  0  0  0  0  0
    7.6898    1.5926  -25.8045 H   0  0  0  0  0  0  0  0  0  0  0  0
  1  2  2  0
  1 20  1  0
  1 25  1  0
  2  3  1  0
  2 28  1  0
  3  4  2  0
  4 16  1  0
  4 30  1  0
  5 11  2  0
  5 23  1  0
  6 12  2  0
  6 13  1  0
  6 14  1  0
  7 26  1  0
  8 18  1  0
  8 29  1  0
  9 18  1  1
  9 19  1  0
  9 21  1  0
  9 22  1  0
 10 16  1  0
 11 12  1  0
 12 27  1  0
 13 23  2  0
 13 24  1  0
 14 26  1  0
 14 31  2  0
 15 26  1  0
 15 27  2  0
 16 20  2  0
 17 28  1  0
 17 29  1  0
 17 32  2  0
 23 30  1  0
  3 33  1  0
  5 34  1  0
  7 35  1  0
  7 36  1  0
  7 37  1  0
  8 38  1  0
  8 39  1  0
 10 40  1  0
 10 41  1  0
 10 42  1  0
 11 43  1  0
 15 44  1  0
 18 45  1  0
 18 46  1  0
 19 47  1  0
 19 48  1  0
 19 49  1  0
 20 50  1  0
 21 51  1  0
 21 52  1  0
 21 53  1  0
 22 54  1  0
 22 55  1  0
 22 56  1  0
 28 57  1  0
 29 58  1  0
 30 59  1  0
M  END
>  <filename_input>  (12) 
7K0V_VQP_docked.sdf

>  <pdb_id>  (12) 
7K0V_VQP

>  <pose_rank>  (12) 
11

>  <num_atoms_heavy>  (12) 
32

>  <num_torsions>  (12) 
6

>  <pose>  (12) 
[4.299560576393371, 2.3416179639346666, -22.676750560548644, -0.16687051978669803, -2.1430406792100847, -2.4922278614009854, -4.569085788660076, 0.1210598696889304, 4.893287017243464, -9.569633839767077, -8.02867179040535, 13.924053177659442]

>  <energy>  (12) 
-750.2902887942084

>  <inter_energy>  (12) 
-787.9881100135848

>  <intra_energy>  (12) 
85.94560141744539

>  <rmsd>  (12) 
10.1779

>  <sdf_rank>  (12) 
0

$$$$

     RDKit          3D

 59 61  0  0  0  0  0  0  0  0999 V2000
   -0.4652   -3.7880  -20.7778 C   0  0  0  0  0  0  0  0  0  0  0  0
    0.2988   -3.7885  -21.9316 C   0  0  0  0  0  0  0  0  0  0  0  0
    1.4701   -3.0496  -21.9429 C   0  0  0  0  0  0  0  0  0  0  0  0
    1.8795   -2.3702  -20.8057 C   0  0  0  0  0  0  0  0  0  0  0  0
    2.1540    0.5693  -21.4037 C   0  0  0  0  0  0  0  0  0  0  0  0
    4.7137    1.3054  -22.2343 C   0  0  0  0  0  0  0  0  0  0  0  0
    7.4855    3.5103  -23.5536 C   0  0  0  0  0  0  0  0  0  0  0  0
   -0.0413   -7.4943  -25.1949 C   0  0  0  0  0  0  0  0  0  0  0  0
   -0.7048   -7.4522  -27.6662 C   0  0  1  0  0  0  0  0  0  0  0  0
    1.4554   -1.6708  -18.3832 C   0  0  0  0  0  0  0  0  0  0  0  0
    2.3746    1.8495  -21.8674 C   0  0  0  0  0  0  0  0  0  0  0  0
    3.6507    2.2338  -22.2849 C   0  0  0  0  0  0  0  0  0  0  0  0
    4.4786    0.0116  -21.7593 C   0  0  0  0  0  0  0  0  0  0  0  0
    6.0329    1.7685  -22.6788 C   0  0  0  0  0  0  0  0  0  0  0  0
    5.0819    3.8681  -23.1168 C   0  0  0  0  0  0  0  0  0  0  0  0
    1.0965   -2.3950  -19.6507 C   0  0  0  0  0  0  0  0  0  0  0  0
    0.2085   -5.6917  -23.5071 C   0  0  0  0  0  0  0  0  0  0  0  0
   -1.1059   -7.8322  -26.2395 C   0  0  0  0  0  0  0  0  0  0  0  0
   -1.4354   -8.3612  -28.6525 C   0  0  0  0  0  0  0  0  0  0  0  0
   -0.0736   -3.1082  -19.6456 C   0  0  0  0  0  0  0  0  0  0  0  0
   -1.0286   -5.9868  -27.9952 C   0  0  0  0  0  0  0  0  0  0  0  0
    0.8013   -7.6572  -27.7786 C   0  0  0  0  0  0  0  0  0  0  0  0
    3.2077   -0.3343  -21.3628 C   0  0  0  0  0  0  0  0  0  0  0  0
    5.4507   -0.9252  -21.6662 F   0  0  0  0  0  0  0  0  0  0  0  0
   -1.6086   -4.4828  -20.7600 F   0  0  0  0  0  0  0  0  0  0  0  0
    6.1605    3.0406  -23.1006 N   0  0  0  0  0  0  0  0  0  0  0  0
    3.8988    3.4899  -22.7402 N   0  0  0  0  0  0  0  0  0  0  0  0
   -0.1982   -4.4862  -23.0481 N   0  0  0  0  0  0  0  0  0  0  0  0
   -0.3966   -6.1941  -24.6065 N   0  0  0  0  0  0  0  0  0  0  0  0
    3.0623   -1.6343  -20.9107 N   0  0  0  0  0  0  0  0  0  0  0  0
    7.0007    1.0373  -22.6861 O   0  0  0  0  0  0  0  0  0  0  0  0
    1.0903   -6.3141  -22.9536 O   0  0  0  0  0  0  0  0  0  0  0  0
    2.0783   -3.0014  -22.8582 H   0  0  0  0  0  0  0  0  0  0  0  0
    1.1509    0.2664  -21.0688 H   0  0  0  0  0  0  0  0  0  0  0  0
    8.1142    3.7332  -22.6790 H   0  0  0  0  0  0  0  0  0  0  0  0
    7.9646    2.7273  -24.1597 H   0  0  0  0  0  0  0  0  0  0  0  0
    7.3645    4.4203  -24.1597 H   0  0  0  0  0  0  0  0  0  0  0  0
   -0.0232   -8.2680  -24.4131 H   0  0  0  0  0  0  0  0  0  0  0  0
    0.9557   -7.4508  -25.6576 H   0  0  0  0  0  0  0  0  0  0  0  0
    1.1546   -2.2777  -17.5164 H   0  0  0  0  0  0  0  0  0  0  0  0
    2.5418   -1.5012  -18.3528 H   0  0  0  0  0  0  0  0  0  0  0  0
    0.9323   -0.7036  -18.3528 H   0  0  0  0  0  0  0  0  0  0  0  0
    1.5438    2.5693  -21.9083 H   0  0  0  0  0  0  0  0  0  0  0  0
    5.2178    4.9029  -23.4642 H   0  0  0  0  0  0  0  0  0  0  0  0
   -1.2933   -8.9156  -26.2075 H   0  0  0  0  0  0  0  0  0  0  0  0
   -2.0021   -7.2457  -25.9888 H   0  0  0  0  0  0  0  0  0  0  0  0
   -2.0304   -9.1014  -28.0974 H   0  0  0  0  0  0  0  0  0  0  0  0
   -2.1010   -7.7557  -29.2852 H   0  0  0  0  0  0  0  0  0  0  0  0
   -0.7010   -8.8811  -29.2852 H   0  0  0  0  0  0  0  0  0  0  0  0
   -0.6979   -3.1377  -18.7404 H   0  0  0  0  0  0  0  0  0  0  0  0
   -1.1538   -5.4202  -27.0608 H   0  0  0  0  0  0  0  0  0  0  0  0
   -0.2050   -5.5517  -28.5803 H   0  0  0  0  0  0  0  0  0  0  0  0
   -1.9589   -5.9393  -28.5803 H   0  0  0  0  0  0  0  0  0  0  0  0
    1.2394   -7.7169  -26.7713 H   0  0  0  0  0  0  0  0  0  0  0  0
    1.0046   -8.5913  -28.3227 H   0  0  0  0  0  0  0  0  0  0  0  0
    1.2469   -6.8114  -28.3227 H   0  0  0  0  0  0  0  0  0  0  0  0
   -0.9559   -4.0279  -23.5743 H   0  0  0  0  0  0  0  0  0  0  0  0
   -1.1414   -5.6404  -25.0531 H   0  0  0  0  0  0  0  0  0  0  0  0
    3.9253   -2.1143  -20.6182 H   0  0  0  0  0  0  0  0  0  0  0  0
  1  2  2  0
  1 20  1  0
  1 25  1  0
  2  3  1  0
  2 28  1  0
  3  4  2  0
  4 16  1  0
  4 30  1  0
  5 11  2  0
  5 23  1  0
  6 12  2  0
  6 13  1  0
  6 14  1  0
  7 26  1  0
  8 18  1  0
  8 29  1  0
  9 18  1  1
  9 19  1  0
  9 21  1  0
  9 22  1  0
 10 16  1  0
 11 12  1  0
 12 27  1  0
 13 23  2  0
 13 24  1  0
 14 26  1  0
 14 31  2  0
 15 26  1  0
 15 27  2  0
 16 20  2  0
 17 28  1  0
 17 29  1  0
 17 32  2  0
 23 30  1  0
  3 33  1  0
  5 34  1  0
  7 35  1  0
  7 36  1  0
  7 37  1  0
  8 38  1  0
  8 39  1  0
 10 40  1  0
 10 41  1  0
 10 42  1  0
 11 43  1  0
 15 44  1  0
 18 45  1  0
 18 46  1  0
 19 47  1  0
 19 48  1  0
 19 49  1  0
 20 50  1  0
 21 51  1  0
 21 52  1  0
 21 53  1  0
 22 54  1  0
 22 55  1  0
 22 56  1  0
 28 57  1  0
 29 58  1  0
 30 59  1  0
M  END
>  <filename_input>  (13) 
7K0V_VQP_docked.sdf

>  <pdb_id>  (13) 
7K0V_VQP

>  <pose_rank>  (13) 
12

>  <num_atoms_heavy>  (13) 
32

>  <num_torsions>  (13) 
6

>  <pose>  (13) 
[-0.4652344317440492, -3.7880085162608337, -20.777826385136954, 0.4416327085991444, -0.6825729967512831, -3.349540935232581, 0.6928556681941943, 0.9155795234631839, -1.5492570964069103, -2.277908612898834, 3.712580511065393, 6.2880229790824576]

>  <energy>  (13) 
-565.4352525881471

>  <inter_energy>  (13) 
-566.4930633536769

>  <intra_energy>  (13) 
4.2247020533161095

>  <rmsd>  (13) 
9.53762

>  <sdf_rank>  (13) 
0

$$$$

     RDKit          3D

 59 61  0  0  0  0  0  0  0  0999 V2000
    4.4973   -7.1530  -20.8206 C   0  0  0  0  0  0  0  0  0  0  0  0
    5.1401   -5.9572  -21.0891 C   0  0  0  0  0  0  0  0  0  0  0  0
    4.4315   -4.9647  -21.7452 C   0  0  0  0  0  0  0  0  0  0  0  0
    3.0991   -5.1588  -22.0765 C   0  0  0  0  0  0  0  0  0  0  0  0
    0.2060   -3.5477  -22.0508 C   0  0  0  0  0  0  0  0  0  0  0  0
    1.1701   -1.0083  -21.4140 C   0  0  0  0  0  0  0  0  0  0  0  0
    1.1272    2.5611  -20.1718 C   0  0  0  0  0  0  0  0  0  0  0  0
    9.9705   -7.0273  -21.2299 C   0  0  0  0  0  0  0  0  0  0  0  0
   11.5699   -5.3916  -22.3770 C   0  0  1  0  0  0  0  0  0  0  0  0
    1.0379   -6.6708  -22.1266 C   0  0  0  0  0  0  0  0  0  0  0  0
   -0.6587   -2.6025  -21.5395 C   0  0  0  0  0  0  0  0  0  0  0  0
   -0.1910   -1.3275  -21.2140 C   0  0  0  0  0  0  0  0  0  0  0  0
    2.0378   -1.9757  -21.9298 C   0  0  0  0  0  0  0  0  0  0  0  0
    1.6048    0.3440  -21.0467 C   0  0  0  0  0  0  0  0  0  0  0  0
   -0.5967    0.8058  -20.3800 C   0  0  0  0  0  0  0  0  0  0  0  0
    2.4705   -6.3700  -21.7844 C   0  0  0  0  0  0  0  0  0  0  0  0
    7.5316   -6.5665  -21.2367 C   0  0  0  0  0  0  0  0  0  0  0  0
   10.4108   -6.3764  -22.5419 C   0  0  0  0  0  0  0  0  0  0  0  0
   12.7296   -5.8261  -23.2710 C   0  0  0  0  0  0  0  0  0  0  0  0
    3.1771   -7.3608  -21.1546 C   0  0  0  0  0  0  0  0  0  0  0  0
   11.1703   -3.9514  -22.7330 C   0  0  0  0  0  0  0  0  0  0  0  0
   11.9903   -5.4345  -20.9126 C   0  0  0  0  0  0  0  0  0  0  0  0
    1.5411   -3.2189  -22.2456 C   0  0  0  0  0  0  0  0  0  0  0  0
    3.3562   -1.7477  -22.1321 F   0  0  0  0  0  0  0  0  0  0  0  0
    5.1764   -8.1270  -20.2038 F   0  0  0  0  0  0  0  0  0  0  0  0
    0.6956    1.1970  -20.5387 N   0  0  0  0  0  0  0  0  0  0  0  0
   -1.0184   -0.3785  -20.7028 N   0  0  0  0  0  0  0  0  0  0  0  0
    6.4988   -5.8490  -20.7390 N   0  0  0  0  0  0  0  0  0  0  0  0
    8.7723   -6.3137  -20.7632 N   0  0  0  0  0  0  0  0  0  0  0  0
    2.4663   -4.1138  -22.7541 N   0  0  0  0  0  0  0  0  0  0  0  0
    2.7503    0.7130  -21.1981 O   0  0  0  0  0  0  0  0  0  0  0  0
    7.3604   -7.4151  -22.0864 O   0  0  0  0  0  0  0  0  0  0  0  0
    4.9278   -4.0179  -22.0047 H   0  0  0  0  0  0  0  0  0  0  0  0
   -0.1591   -4.5544  -22.3023 H   0  0  0  0  0  0  0  0  0  0  0  0
    1.1566    2.6541  -19.0761 H   0  0  0  0  0  0  0  0  0  0  0  0
    2.1295    2.7516  -20.5830 H   0  0  0  0  0  0  0  0  0  0  0  0
    0.4169    3.2935  -20.5830 H   0  0  0  0  0  0  0  0  0  0  0  0
    9.7342   -8.0884  -21.3977 H   0  0  0  0  0  0  0  0  0  0  0  0
   10.7730   -6.9689  -20.4799 H   0  0  0  0  0  0  0  0  0  0  0  0
    0.4574   -6.7927  -21.2002 H   0  0  0  0  0  0  0  0  0  0  0  0
    0.6194   -5.8410  -22.7150 H   0  0  0  0  0  0  0  0  0  0  0  0
    0.9886   -7.5989  -22.7150 H   0  0  0  0  0  0  0  0  0  0  0  0
   -1.7189   -2.8535  -21.3878 H   0  0  0  0  0  0  0  0  0  0  0  0
   -1.3161    1.5241  -19.9599 H   0  0  0  0  0  0  0  0  0  0  0  0
   10.7246   -7.1701  -23.2359 H   0  0  0  0  0  0  0  0  0  0  0  0
    9.5522   -5.8040  -22.9227 H   0  0  0  0  0  0  0  0  0  0  0  0
   13.5764   -6.1434  -22.6448 H   0  0  0  0  0  0  0  0  0  0  0  0
   12.4086   -6.6649  -23.9061 H   0  0  0  0  0  0  0  0  0  0  0  0
   13.0388   -4.9828  -23.9061 H   0  0  0  0  0  0  0  0  0  0  0  0
    2.6919   -8.3189  -20.9164 H   0  0  0  0  0  0  0  0  0  0  0  0
   11.0107   -3.3761  -21.8091 H   0  0  0  0  0  0  0  0  0  0  0  0
   11.9725   -3.4833  -23.3224 H   0  0  0  0  0  0  0  0  0  0  0  0
   10.2416   -3.9636  -23.3224 H   0  0  0  0  0  0  0  0  0  0  0  0
   11.1002   -5.3436  -20.2728 H   0  0  0  0  0  0  0  0  0  0  0  0
   12.4959   -6.3889  -20.7041 H   0  0  0  0  0  0  0  0  0  0  0  0
   12.6783   -4.6019  -20.7041 H   0  0  0  0  0  0  0  0  0  0  0  0
    6.7327   -5.1452  -20.0242 H   0  0  0  0  0  0  0  0  0  0  0  0
    8.8836   -5.5871  -20.0416 H   0  0  0  0  0  0  0  0  0  0  0  0
    2.7170   -3.9959  -23.7461 H   0  0  0  0  0  0  0  0  0  0  0  0
  1  2  2  0
  1 20  1  0
  1 25  1  0
  2  3  1  0
  2 28  1  0
  3  4  2  0
  4 16  1  0
  4 30  1  0
  5 11  2  0
  5 23  1  0
  6 12  2  0
  6 13  1  0
  6 14  1  0
  7 26  1  0
  8 18  1  0
  8 29  1  0
  9 18  1  1
  9 19  1  0
  9 21  1  0
  9 22  1  0
 10 16  1  0
 11 12  1  0
 12 27  1  0
 13 23  2  0
 13 24  1  0
 14 26  1  0
 14 31  2  0
 15 26  1  0
 15 27  2  0
 16 20  2  0
 17 28  1  0
 17 29  1  0
 17 32  2  0
 23 30  1  0
  3 33  1  0
  5 34  1  0
  7 35  1  0
  7 36  1  0
  7 37  1  0
  8 38  1  0
  8 39  1  0
 10 40  1  0
 10 41  1  0
 10 42  1  0
 11 43  1  0
 15 44  1  0
 18 45  1  0
 18 46  1  0
 19 47  1  0
 19 48  1  0
 19 49  1  0
 20 50  1  0
 21 51  1  0
 21 52  1  0
 21 53  1  0
 22 54  1  0
 22 55  1  0
 22 56  1  0
 28 57  1  0
 29 58  1  0
 30 59  1  0
M  END
>  <filename_input>  (14) 
7K0V_VQP_docked.sdf

>  <pdb_id>  (14) 
7K0V_VQP

>  <pose_rank>  (14) 
13

>  <num_atoms_heavy>  (14) 
32

>  <num_torsions>  (14) 
6

>  <pose>  (14) 
[4.497315293572025, -7.153009146147034, -20.8206371982798, 1.7709724239220377, -0.5006371734699017, -0.9360615325415835, 3.6106731751423293, -0.6200088550903543, -1.4870164987527807, -2.8130566838864817, -5.918658896675531, 4.574985593734113]

>  <energy>  (14) 
-596.6033376855297

>  <inter_energy>  (14) 
-607.291741547204

>  <intra_energy>  (14) 
33.395197303353676

>  <rmsd>  (14) 
9.07729

>  <sdf_rank>  (14) 
0

$$$$

     RDKit          3D

 59 61  0  0  0  0  0  0  0  0999 V2000
    1.7217   -7.3231  -23.0121 C   0  0  0  0  0  0  0  0  0  0  0  0
    1.2502   -6.4707  -23.9950 C   0  0  0  0  0  0  0  0  0  0  0  0
    1.5396   -5.1208  -23.8864 C   0  0  0  0  0  0  0  0  0  0  0  0
    2.3226   -4.6551  -22.8411 C   0  0  0  0  0  0  0  0  0  0  0  0
    0.4054   -2.5244  -21.9237 C   0  0  0  0  0  0  0  0  0  0  0  0
    1.6308   -0.0828  -21.3572 C   0  0  0  0  0  0  0  0  0  0  0  0
    1.9905    3.4665  -20.1089 C   0  0  0  0  0  0  0  0  0  0  0  0
   -2.9026   -8.1677  -26.0861 C   0  0  0  0  0  0  0  0  0  0  0  0
   -3.9963   -6.9032  -28.0236 C   0  0  1  0  0  0  0  0  0  0  0  0
    3.6318   -5.1140  -20.6933 C   0  0  0  0  0  0  0  0  0  0  0  0
   -0.3333   -1.5125  -21.3467 C   0  0  0  0  0  0  0  0  0  0  0  0
    0.2661   -0.2853  -21.0553 C   0  0  0  0  0  0  0  0  0  0  0  0
    2.3702   -1.1170  -21.9389 C   0  0  0  0  0  0  0  0  0  0  0  0
    2.2073    1.2239  -21.0214 C   0  0  0  0  0  0  0  0  0  0  0  0
    0.1105    1.8681  -20.1891 C   0  0  0  0  0  0  0  0  0  0  0  0
    2.7956   -5.5373  -21.8687 C   0  0  0  0  0  0  0  0  0  0  0  0
   -0.8775   -7.2951  -24.9466 C   0  0  0  0  0  0  0  0  0  0  0  0
   -3.3179   -8.1929  -27.5577 C   0  0  0  0  0  0  0  0  0  0  0  0
   -4.4122   -6.0849  -26.8028 C   0  0  0  0  0  0  0  0  0  0  0  0
    2.4916   -6.8701  -21.9635 C   0  0  0  0  0  0  0  0  0  0  0  0
   -3.0820   -6.0495  -28.9158 C   0  0  0  0  0  0  0  0  0  0  0  0
   -5.2254   -7.3082  -28.8288 C   0  0  0  0  0  0  0  0  0  0  0  0
    1.7455   -2.3102  -22.2184 C   0  0  0  0  0  0  0  0  0  0  0  0
    3.6845   -1.0018  -22.2401 F   0  0  0  0  0  0  0  0  0  0  0  0
    1.4333   -8.6271  -23.0953 F   0  0  0  0  0  0  0  0  0  0  0  0
    1.4161    2.1478  -20.4445 N   0  0  0  0  0  0  0  0  0  0  0  0
   -0.4352    0.7272  -20.4812 N   0  0  0  0  0  0  0  0  0  0  0  0
    0.4452   -7.0203  -25.0101 N   0  0  0  0  0  0  0  0  0  0  0  0
   -1.4721   -7.8297  -26.0366 N   0  0  0  0  0  0  0  0  0  0  0  0
    2.5488   -3.2772  -22.7971 N   0  0  0  0  0  0  0  0  0  0  0  0
    3.3657    1.4941  -21.2585 O   0  0  0  0  0  0  0  0  0  0  0  0
   -1.5225   -7.0703  -23.9441 O   0  0  0  0  0  0  0  0  0  0  0  0
    1.1466   -4.4148  -24.6328 H   0  0  0  0  0  0  0  0  0  0  0  0
   -0.0634   -3.4938  -22.1486 H   0  0  0  0  0  0  0  0  0  0  0  0
    2.0390    3.5778  -19.0156 H   0  0  0  0  0  0  0  0  0  0  0  0
    3.0036    3.5432  -20.5306 H   0  0  0  0  0  0  0  0  0  0  0  0
    1.3567    4.2606  -20.5306 H   0  0  0  0  0  0  0  0  0  0  0  0
   -3.4866   -7.4095  -25.5439 H   0  0  0  0  0  0  0  0  0  0  0  0
   -3.0866   -9.1444  -25.6146 H   0  0  0  0  0  0  0  0  0  0  0  0
    3.1123   -5.3770  -19.7601 H   0  0  0  0  0  0  0  0  0  0  0  0
    4.6031   -5.6289  -20.7299 H   0  0  0  0  0  0  0  0  0  0  0  0
    3.7918   -4.0263  -20.7299 H   0  0  0  0  0  0  0  0  0  0  0  0
   -1.3968   -1.6725  -21.1156 H   0  0  0  0  0  0  0  0  0  0  0  0
   -0.5104    2.6421  -19.7144 H   0  0  0  0  0  0  0  0  0  0  0  0
   -2.4187   -8.3540  -28.1704 H   0  0  0  0  0  0  0  0  0  0  0  0
   -4.0523   -9.0038  -27.6723 H   0  0  0  0  0  0  0  0  0  0  0  0
   -4.1365   -6.6274  -25.8865 H   0  0  0  0  0  0  0  0  0  0  0  0
   -3.8992   -5.1120  -26.8214 H   0  0  0  0  0  0  0  0  0  0  0  0
   -5.5005   -5.9259  -26.8214 H   0  0  0  0  0  0  0  0  0  0  0  0
    2.8610   -7.5757  -21.2048 H   0  0  0  0  0  0  0  0  0  0  0  0
   -2.4236   -5.4348  -28.2844 H   0  0  0  0  0  0  0  0  0  0  0  0
   -2.4710   -6.7078  -29.5509 H   0  0  0  0  0  0  0  0  0  0  0  0
   -3.6968   -5.3948  -29.5509 H   0  0  0  0  0  0  0  0  0  0  0  0
   -6.0415   -7.5770  -28.1419 H   0  0  0  0  0  0  0  0  0  0  0  0
   -5.5420   -6.4668  -29.4628 H   0  0  0  0  0  0  0  0  0  0  0  0
   -4.9799   -8.1729  -29.4628 H   0  0  0  0  0  0  0  0  0  0  0  0
    0.9156   -7.2373  -25.9003 H   0  0  0  0  0  0  0  0  0  0  0  0
   -0.8963   -8.0088  -26.8716 H   0  0  0  0  0  0  0  0  0  0  0  0
    3.4128   -2.9426  -23.2471 H   0  0  0  0  0  0  0  0  0  0  0  0
  1  2  2  0
  1 20  1  0
  1 25  1  0
  2  3  1  0
  2 28  1  0
  3  4  2  0
  4 16  1  0
  4 30  1  0
  5 11  2  0
  5 23  1  0
  6 12  2  0
  6 13  1  0
  6 14  1  0
  7 26  1  0
  8 18  1  0
  8 29  1  0
  9 18  1  1
  9 19  1  0
  9 21  1  0
  9 22  1  0
 10 16  1  0
 11 12  1  0
 12 27  1  0
 13 23  2  0
 13 24  1  0
 14 26  1  0
 14 31  2  0
 15 26  1  0
 15 27  2  0
 16 20  2  0
 17 28  1  0
 17 29  1  0
 17 32  2  0
 23 30  1  0
  3 33  1  0
  5 34  1  0
  7 35  1  0
  7 36  1  0
  7 37  1  0
  8 38  1  0
  8 39  1  0
 10 40  1  0
 10 41  1  0
 10 42  1  0
 11 43  1  0
 15 44  1  0
 18 45  1  0
 18 46  1  0
 19 47  1  0
 19 48  1  0
 19 49  1  0
 20 50  1  0
 21 51  1  0
 21 52  1  0
 21 53  1  0
 22 54  1  0
 22 55  1  0
 22 56  1  0
 28 57  1  0
 29 58  1  0
 30 59  1  0
M  END
>  <filename_input>  (15) 
7K0V_VQP_docked.sdf

>  <pdb_id>  (15) 
7K0V_VQP

>  <pose_rank>  (15) 
14

>  <num_atoms_heavy>  (15) 
32

>  <num_torsions>  (15) 
6

>  <pose>  (15) 
[1.7216952824141287, -7.323144075588434, -23.012113668036807, 0.7011044554996022, -0.38726356301278797, 3.5650924792126095, -2.3627432173893523, 0.7081531273264566, 1.33464497264105, 1.0626880316501988, -2.5723913779123144, -0.6794597271355299]

>  <energy>  (15) 
-526.9244940286233

>  <inter_energy>  (15) 
-524.4511959714303

>  <intra_energy>  (15) 
7.250387589128529

>  <rmsd>  (15) 
10.0225

>  <sdf_rank>  (15) 
0

$$$$

     RDKit          3D

 59 61  0  0  0  0  0  0  0  0999 V2000
    1.2853   -4.6614  -21.0745 C   0  0  0  0  0  0  0  0  0  0  0  0
    0.3787   -3.7620  -20.5414 C   0  0  0  0  0  0  0  0  0  0  0  0
    0.5965   -2.4102  -20.7490 C   0  0  0  0  0  0  0  0  0  0  0  0
    1.6721   -1.9843  -21.5133 C   0  0  0  0  0  0  0  0  0  0  0  0
    3.0685    0.0999  -23.6280 C   0  0  0  0  0  0  0  0  0  0  0  0
    4.8230    1.4188  -21.9058 C   0  0  0  0  0  0  0  0  0  0  0  0
    7.7621    3.5328  -20.8206 C   0  0  0  0  0  0  0  0  0  0  0  0
   -3.3640   -6.7848  -19.3783 C   0  0  0  0  0  0  0  0  0  0  0  0
   -5.3914   -7.3117  -17.9081 C   0  0  1  0  0  0  0  0  0  0  0  0
    3.7674   -2.5358  -22.8709 C   0  0  0  0  0  0  0  0  0  0  0  0
    4.1420    0.7900  -24.1515 C   0  0  0  0  0  0  0  0  0  0  0  0
    5.0280    1.4569  -23.3026 C   0  0  0  0  0  0  0  0  0  0  0  0
    3.7295    0.7188  -21.3872 C   0  0  0  0  0  0  0  0  0  0  0  0
    5.7820    2.1441  -21.0652 C   0  0  0  0  0  0  0  0  0  0  0  0
    6.9140    2.7884  -23.0166 C   0  0  0  0  0  0  0  0  0  0  0  0
    2.5658   -2.9123  -22.0497 C   0  0  0  0  0  0  0  0  0  0  0  0
   -1.4732   -5.3259  -20.0542 C   0  0  0  0  0  0  0  0  0  0  0  0
   -3.8667   -7.2283  -18.0037 C   0  0  0  0  0  0  0  0  0  0  0  0
   -5.9388   -7.9709  -19.1725 C   0  0  0  0  0  0  0  0  0  0  0  0
    2.3633   -4.2490  -21.8265 C   0  0  0  0  0  0  0  0  0  0  0  0
   -5.8587   -8.1087  -16.6805 C   0  0  0  0  0  0  0  0  0  0  0  0
   -5.9125   -5.8841  -17.7915 C   0  0  0  0  0  0  0  0  0  0  0  0
    2.8810    0.0679  -22.2524 C   0  0  0  0  0  0  0  0  0  0  0  0
    3.4600    0.6528  -20.0627 F   0  0  0  0  0  0  0  0  0  0  0  0
    1.0967   -5.9694  -20.8654 F   0  0  0  0  0  0  0  0  0  0  0  0
    6.7913    2.8050  -21.6628 N   0  0  0  0  0  0  0  0  0  0  0  0
    6.0903    2.1499  -23.7903 N   0  0  0  0  0  0  0  0  0  0  0  0
   -0.6737   -4.2753  -19.7606 N   0  0  0  0  0  0  0  0  0  0  0  0
   -2.4378   -5.6619  -19.1687 N   0  0  0  0  0  0  0  0  0  0  0  0
    1.8282   -0.6033  -21.6555 N   0  0  0  0  0  0  0  0  0  0  0  0
    5.6955    2.1542  -19.8554 O   0  0  0  0  0  0  0  0  0  0  0  0
   -1.3359   -5.9572  -21.0809 O   0  0  0  0  0  0  0  0  0  0  0  0
   -0.0870   -1.6711  -20.3057 H   0  0  0  0  0  0  0  0  0  0  0  0
    2.3661   -0.4211  -24.2953 H   0  0  0  0  0  0  0  0  0  0  0  0
    7.5300    3.3588  -19.7596 H   0  0  0  0  0  0  0  0  0  0  0  0
    8.7785    3.1722  -21.0376 H   0  0  0  0  0  0  0  0  0  0  0  0
    7.7010    4.6095  -21.0376 H   0  0  0  0  0  0  0  0  0  0  0  0
   -2.8405   -7.6162  -19.8730 H   0  0  0  0  0  0  0  0  0  0  0  0
   -4.2048   -6.4794  -20.0185 H   0  0  0  0  0  0  0  0  0  0  0  0
    4.6011   -2.2746  -22.2026 H   0  0  0  0  0  0  0  0  0  0  0  0
    4.0587   -3.3857  -23.5056 H   0  0  0  0  0  0  0  0  0  0  0  0
    3.5216   -1.6716  -23.5056 H   0  0  0  0  0  0  0  0  0  0  0  0
    4.3005    0.8151  -25.2397 H   0  0  0  0  0  0  0  0  0  0  0  0
    7.7473    3.3399  -23.4762 H   0  0  0  0  0  0  0  0  0  0  0  0
   -3.4494   -8.2222  -17.7846 H   0  0  0  0  0  0  0  0  0  0  0  0
   -3.5386   -6.4685  -17.2791 H   0  0  0  0  0  0  0  0  0  0  0  0
   -6.6188   -8.7895  -18.8942 H   0  0  0  0  0  0  0  0  0  0  0  0
   -6.4870   -7.2251  -19.7669 H   0  0  0  0  0  0  0  0  0  0  0  0
   -5.1051   -8.3727  -19.7669 H   0  0  0  0  0  0  0  0  0  0  0  0
    3.0592   -4.9903  -22.2464 H   0  0  0  0  0  0  0  0  0  0  0  0
   -5.5511   -7.5841  -15.7639 H   0  0  0  0  0  0  0  0  0  0  0  0
   -6.9546   -8.2020  -16.6994 H   0  0  0  0  0  0  0  0  0  0  0  0
   -5.4050   -9.1106  -16.6994 H   0  0  0  0  0  0  0  0  0  0  0  0
   -6.0106   -5.6152  -16.7294 H   0  0  0  0  0  0  0  0  0  0  0  0
   -5.2078   -5.1955  -18.2805 H   0  0  0  0  0  0  0  0  0  0  0  0
   -6.8951   -5.8114  -18.2805 H   0  0  0  0  0  0  0  0  0  0  0  0
   -0.8551   -3.7978  -18.8662 H   0  0  0  0  0  0  0  0  0  0  0  0
   -2.5283   -5.1053  -18.3068 H   0  0  0  0  0  0  0  0  0  0  0  0
    1.0729   -0.0174  -21.2720 H   0  0  0  0  0  0  0  0  0  0  0  0
  1  2  2  0
  1 20  1  0
  1 25  1  0
  2  3  1  0
  2 28  1  0
  3  4  2  0
  4 16  1  0
  4 30  1  0
  5 11  2  0
  5 23  1  0
  6 12  2  0
  6 13  1  0
  6 14  1  0
  7 26  1  0
  8 18  1  0
  8 29  1  0
  9 18  1  6
  9 19  1  0
  9 21  1  0
  9 22  1  0
 10 16  1  0
 11 12  1  0
 12 27  1  0
 13 23  2  0
 13 24  1  0
 14 26  1  0
 14 31  2  0
 15 26  1  0
 15 27  2  0
 16 20  2  0
 17 28  1  0
 17 29  1  0
 17 32  2  0
 23 30  1  0
  3 33  1  0
  5 34  1  0
  7 35  1  0
  7 36  1  0
  7 37  1  0
  8 38  1  0
  8 39  1  0
 10 40  1  0
 10 41  1  0
 10 42  1  0
 11 43  1  0
 15 44  1  0
 18 45  1  0
 18 46  1  0
 19 47  1  0
 19 48  1  0
 19 49  1  0
 20 50  1  0
 21 51  1  0
 21 52  1  0
 21 53  1  0
 22 54  1  0
 22 55  1  0
 22 56  1  0
 28 57  1  0
 29 58  1  0
 30 59  1  0
M  END
>  <filename_input>  (16) 
7K0V_VQP_docked.sdf

>  <pdb_id>  (16) 
7K0V_VQP

>  <pose_rank>  (16) 
15

>  <num_atoms_heavy>  (16) 
32

>  <num_torsions>  (16) 
6

>  <pose>  (16) 
[1.2853318883646092, -4.661372179559635, -21.074540643229373, 2.65544006823894, -1.0169797887014869, 1.7862414206799397, 1.6887495734464602, 0.6875697860569778, -0.994093855564151, 2.079277696491961, -1.0492918688268338, 0.9345633474090149]

>  <energy>  (16) 
-435.8321018024585

>  <inter_energy>  (16) 
-538.6883098449963

>  <intra_energy>  (16) 
106.74879412508616

>  <rmsd>  (16) 
11.7801

>  <sdf_rank>  (16) 
0

$$$$

     RDKit          3D

 59 61  0  0  0  0  0  0  0  0999 V2000
    0.4749   -5.8956  -22.8766 C   0  0  0  0  0  0  0  0  0  0  0  0
   -0.1613   -4.7706  -23.3714 C   0  0  0  0  0  0  0  0  0  0  0  0
    0.2108   -3.5337  -22.8719 C   0  0  0  0  0  0  0  0  0  0  0  0
    1.2286   -3.4349  -21.9355 C   0  0  0  0  0  0  0  0  0  0  0  0
    2.7508   -1.1956  -23.3445 C   0  0  0  0  0  0  0  0  0  0  0  0
    3.9936    0.5002  -21.5105 C   0  0  0  0  0  0  0  0  0  0  0  0
    6.2631    3.2368  -20.2277 C   0  0  0  0  0  0  0  0  0  0  0  0
   -2.1880   -5.6000  -27.8101 C   0  0  0  0  0  0  0  0  0  0  0  0
   -1.4277   -7.5418  -29.2937 C   0  0  1  0  0  0  0  0  0  0  0  0
    2.9589   -4.5683  -20.4326 C   0  0  0  0  0  0  0  0  0  0  0  0
    3.6831   -0.2817  -23.7896 C   0  0  0  0  0  0  0  0  0  0  0  0
    4.3125    0.5753  -22.8843 C   0  0  0  0  0  0  0  0  0  0  0  0
    3.0445   -0.4280  -21.0717 C   0  0  0  0  0  0  0  0  0  0  0  0
    4.6811    1.4307  -20.6085 C   0  0  0  0  0  0  0  0  0  0  0  0
    5.8122    2.3045  -22.4690 C   0  0  0  0  0  0  0  0  0  0  0  0
    1.8625   -4.5840  -21.4609 C   0  0  0  0  0  0  0  0  0  0  0  0
   -1.0727   -5.1916  -25.6307 C   0  0  0  0  0  0  0  0  0  0  0  0
   -2.1353   -7.1159  -28.0059 C   0  0  0  0  0  0  0  0  0  0  0  0
   -0.2129   -8.3975  -28.9402 C   0  0  0  0  0  0  0  0  0  0  0  0
    1.4801   -5.8101  -21.9386 C   0  0  0  0  0  0  0  0  0  0  0  0
   -2.3484   -8.3359  -30.2330 C   0  0  0  0  0  0  0  0  0  0  0  0
   -0.9849   -6.2684  -30.0047 C   0  0  0  0  0  0  0  0  0  0  0  0
    2.4495   -1.2610  -21.9905 C   0  0  0  0  0  0  0  0  0  0  0  0
    2.6762   -0.5456  -19.7749 F   0  0  0  0  0  0  0  0  0  0  0  0
    0.1117   -7.0981  -23.3373 F   0  0  0  0  0  0  0  0  0  0  0  0
    5.5647    2.3011  -21.1323 N   0  0  0  0  0  0  0  0  0  0  0  0
    5.2300    1.4898  -23.2948 N   0  0  0  0  0  0  0  0  0  0  0  0
   -1.1979   -4.9593  -24.3043 N   0  0  0  0  0  0  0  0  0  0  0  0
   -2.1994   -5.3417  -26.3624 N   0  0  0  0  0  0  0  0  0  0  0  0
    1.5261   -2.1514  -21.4709 N   0  0  0  0  0  0  0  0  0  0  0  0
    4.4835    1.4283  -19.4118 O   0  0  0  0  0  0  0  0  0  0  0  0
    0.0166   -5.2666  -26.1593 O   0  0  0  0  0  0  0  0  0  0  0  0
   -0.3035   -2.6256  -23.2195 H   0  0  0  0  0  0  0  0  0  0  0  0
    2.2496   -1.8676  -24.0568 H   0  0  0  0  0  0  0  0  0  0  0  0
    6.0565    2.9601  -19.1833 H   0  0  0  0  0  0  0  0  0  0  0  0
    7.3462    3.1864  -20.4131 H   0  0  0  0  0  0  0  0  0  0  0  0
    5.9066    4.2608  -20.4131 H   0  0  0  0  0  0  0  0  0  0  0  0
   -1.3047   -5.1312  -28.2684 H   0  0  0  0  0  0  0  0  0  0  0  0
   -3.0858   -5.1788  -28.2861 H   0  0  0  0  0  0  0  0  0  0  0  0
    2.5171   -4.5746  -19.4252 H   0  0  0  0  0  0  0  0  0  0  0  0
    3.5939   -5.4574  -20.5600 H   0  0  0  0  0  0  0  0  0  0  0  0
    3.5682   -3.6613  -20.5600 H   0  0  0  0  0  0  0  0  0  0  0  0
    3.9314   -0.2278  -24.8599 H   0  0  0  0  0  0  0  0  0  0  0  0
    6.5373    3.0290  -22.8681 H   0  0  0  0  0  0  0  0  0  0  0  0
   -1.6008   -7.5586  -27.1524 H   0  0  0  0  0  0  0  0  0  0  0  0
   -3.1748   -7.4689  -28.0764 H   0  0  0  0  0  0  0  0  0  0  0  0
   -0.1175   -8.4647  -27.8464 H   0  0  0  0  0  0  0  0  0  0  0  0
   -0.3404   -9.4063  -29.3598 H   0  0  0  0  0  0  0  0  0  0  0  0
    0.6940   -7.9378  -29.3598 H   0  0  0  0  0  0  0  0  0  0  0  0
    1.9741   -6.7229  -21.5743 H   0  0  0  0  0  0  0  0  0  0  0  0
   -3.0482   -8.9396  -29.6364 H   0  0  0  0  0  0  0  0  0  0  0  0
   -2.9147   -7.6383  -30.8675 H   0  0  0  0  0  0  0  0  0  0  0  0
   -1.7414   -8.9985  -30.8675 H   0  0  0  0  0  0  0  0  0  0  0  0
   -0.7195   -5.5051  -29.2583 H   0  0  0  0  0  0  0  0  0  0  0  0
   -0.1095   -6.4855  -30.6344 H   0  0  0  0  0  0  0  0  0  0  0  0
   -1.8062   -5.8955  -30.6344 H   0  0  0  0  0  0  0  0  0  0  0  0
   -2.1588   -4.9156  -23.9359 H   0  0  0  0  0  0  0  0  0  0  0  0
   -3.1086   -5.2719  -25.8834 H   0  0  0  0  0  0  0  0  0  0  0  0
    0.9976   -1.8310  -20.6470 H   0  0  0  0  0  0  0  0  0  0  0  0
  1  2  2  0
  1 20  1  0
  1 25  1  0
  2  3  1  0
  2 28  1  0
  3  4  2  0
  4 16  1  0
  4 30  1  0
  5 11  2  0
  5 23  1  0
  6 12  2  0
  6 13  1  0
  6 14  1  0
  7 26  1  0
  8 18  1  0
  8 29  1  0
  9 18  1  1
  9 19  1  0
  9 21  1  0
  9 22  1  0
 10 16  1  0
 11 12  1  0
 12 27  1  0
 13 23  2  0
 13 24  1  0
 14 26  1  0
 14 31  2  0
 15 26  1  0
 15 27  2  0
 16 20  2  0
 17 28  1  0
 17 29  1  0
 17 32  2  0
 23 30  1  0
  3 33  1  0
  5 34  1  0
  7 35  1  0
  7 36  1  0
  7 37  1  0
  8 38  1  0
  8 39  1  0
 10 40  1  0
 10 41  1  0
 10 42  1  0
 11 43  1  0
 15 44  1  0
 18 45  1  0
 18 46  1  0
 19 47  1  0
 19 48  1  0
 19 49  1  0
 20 50  1  0
 21 51  1  0
 21 52  1  0
 21 53  1  0
 22 54  1  0
 22 55  1  0
 22 56  1  0
 28 57  1  0
 29 58  1  0
 30 59  1  0
M  END
>  <filename_input>  (17) 
7K0V_VQP_docked.sdf

>  <pdb_id>  (17) 
7K0V_VQP

>  <pose_rank>  (17) 
16

>  <num_atoms_heavy>  (17) 
32

>  <num_torsions>  (17) 
6

>  <pose>  (17) 
[0.47486993503639535, -5.895551939901637, -22.87660750793602, 0.9317489930279862, -1.1332716595548455, 3.3721787395800398, 1.094468767780585, -0.4851129185405304, 0.4251448825139442, -2.8758883040817746, 0.624076276099971, 0.21754449176420704]

>  <energy>  (17) 
-426.45416346334775

>  <inter_energy>  (17) 
-457.4996375070175

>  <intra_energy>  (17) 
7.356565594325595

>  <rmsd>  (17) 
9.6585

>  <sdf_rank>  (17) 
0

$$$$

     RDKit          3D

 59 61  0  0  0  0  0  0  0  0999 V2000
    3.6624   -7.2252  -22.0594 C   0  0  0  0  0  0  0  0  0  0  0  0
    2.8360   -6.4844  -22.8862 C   0  0  0  0  0  0  0  0  0  0  0  0
    3.0092   -5.1110  -22.9265 C   0  0  0  0  0  0  0  0  0  0  0  0
    4.0190   -4.5114  -22.1893 C   0  0  0  0  0  0  0  0  0  0  0  0
    3.1764   -0.8869  -22.5299 C   0  0  0  0  0  0  0  0  0  0  0  0
    0.9273   -1.8006  -21.1549 C   0  0  0  0  0  0  0  0  0  0  0  0
   -2.4990   -1.7103  -19.5620 C   0  0  0  0  0  0  0  0  0  0  0  0
   -1.7619   -7.4225  -24.4598 C   0  0  0  0  0  0  0  0  0  0  0  0
   -3.6264   -7.4825  -26.2118 C   0  0  1  0  0  0  0  0  0  0  0  0
    5.9499   -4.7113  -20.5253 C   0  0  0  0  0  0  0  0  0  0  0  0
    2.1278   -0.0222  -22.2943 C   0  0  0  0  0  0  0  0  0  0  0  0
    0.9944   -0.4650  -21.6092 C   0  0  0  0  0  0  0  0  0  0  0  0
    1.9950   -2.6686  -21.4025 C   0  0  0  0  0  0  0  0  0  0  0  0
   -0.2912   -2.2103  -20.4481 C   0  0  0  0  0  0  0  0  0  0  0  0
   -1.1236   -0.0373  -20.7474 C   0  0  0  0  0  0  0  0  0  0  0  0
    4.8466   -5.2823  -21.3718 C   0  0  0  0  0  0  0  0  0  0  0  0
    0.5049   -6.8653  -23.6161 C   0  0  0  0  0  0  0  0  0  0  0  0
   -2.1950   -7.8851  -25.8517 C   0  0  0  0  0  0  0  0  0  0  0  0
   -3.9815   -6.1864  -25.4860 C   0  0  0  0  0  0  0  0  0  0  0  0
    4.6620   -6.6389  -21.3146 C   0  0  0  0  0  0  0  0  0  0  0  0
   -3.8162   -7.2829  -27.7233 C   0  0  0  0  0  0  0  0  0  0  0  0
   -4.5400   -8.6114  -25.7492 C   0  0  0  0  0  0  0  0  0  0  0  0
    3.0985   -2.1964  -22.0744 C   0  0  0  0  0  0  0  0  0  0  0  0
    1.9944   -3.9645  -21.0129 F   0  0  0  0  0  0  0  0  0  0  0  0
    3.4933   -8.5510  -21.9971 F   0  0  0  0  0  0  0  0  0  0  0  0
   -1.2722   -1.3042  -20.2772 N   0  0  0  0  0  0  0  0  0  0  0  0
   -0.0563    0.3625  -21.3684 N   0  0  0  0  0  0  0  0  0  0  0  0
    1.8228   -7.1673  -23.5844 N   0  0  0  0  0  0  0  0  0  0  0  0
   -0.3138   -7.6534  -24.3483 N   0  0  0  0  0  0  0  0  0  0  0  0
    4.1101   -3.1198  -22.2730 N   0  0  0  0  0  0  0  0  0  0  0  0
   -0.4314   -3.3319  -20.0080 O   0  0  0  0  0  0  0  0  0  0  0  0
    0.0594   -5.9144  -23.0089 O   0  0  0  0  0  0  0  0  0  0  0  0
    2.3427   -4.4931  -23.5461 H   0  0  0  0  0  0  0  0  0  0  0  0
    4.0676   -0.5417  -23.0745 H   0  0  0  0  0  0  0  0  0  0  0  0
   -2.3269   -1.6534  -18.4771 H   0  0  0  0  0  0  0  0  0  0  0  0
   -3.3242   -1.0375  -19.8382 H   0  0  0  0  0  0  0  0  0  0  0  0
   -2.7596   -2.7427  -19.8382 H   0  0  0  0  0  0  0  0  0  0  0  0
   -1.9824   -6.3521  -24.3343 H   0  0  0  0  0  0  0  0  0  0  0  0
   -2.3041   -7.9781  -23.6806 H   0  0  0  0  0  0  0  0  0  0  0  0
    5.7004   -4.8404  -19.4618 H   0  0  0  0  0  0  0  0  0  0  0  0
    6.8911   -5.2355  -20.7474 H   0  0  0  0  0  0  0  0  0  0  0  0
    6.0656   -3.6402  -20.7474 H   0  0  0  0  0  0  0  0  0  0  0  0
    2.1845    1.0182  -22.6469 H   0  0  0  0  0  0  0  0  0  0  0  0
   -1.9435    0.6800  -20.5951 H   0  0  0  0  0  0  0  0  0  0  0  0
   -1.5125   -7.4440  -26.5930 H   0  0  0  0  0  0  0  0  0  0  0  0
   -2.1586   -8.9845  -25.8526 H   0  0  0  0  0  0  0  0  0  0  0  0
   -3.9366   -6.3505  -24.3993 H   0  0  0  0  0  0  0  0  0  0  0  0
   -3.2656   -5.4003  -25.7681 H   0  0  0  0  0  0  0  0  0  0  0  0
   -4.9981   -5.8749  -25.7681 H   0  0  0  0  0  0  0  0  0  0  0  0
    5.3097   -7.2576  -20.6761 H   0  0  0  0  0  0  0  0  0  0  0  0
   -4.5646   -6.4959  -27.8981 H   0  0  0  0  0  0  0  0  0  0  0  0
   -2.8591   -6.9861  -28.1770 H   0  0  0  0  0  0  0  0  0  0  0  0
   -4.1609   -8.2239  -28.1770 H   0  0  0  0  0  0  0  0  0  0  0  0
   -4.5617   -8.6383  -24.6497 H   0  0  0  0  0  0  0  0  0  0  0  0
   -5.5569   -8.4404  -26.1320 H   0  0  0  0  0  0  0  0  0  0  0  0
   -4.1606   -9.5704  -26.1320 H   0  0  0  0  0  0  0  0  0  0  0  0
    2.1177   -7.9882  -24.1322 H   0  0  0  0  0  0  0  0  0  0  0  0
    0.0959   -8.4532  -24.8517 H   0  0  0  0  0  0  0  0  0  0  0  0
    5.0366   -2.7371  -22.5098 H   0  0  0  0  0  0  0  0  0  0  0  0
  1  2  2  0
  1 20  1  0
  1 25  1  0
  2  3  1  0
  2 28  1  0
  3  4  2  0
  4 16  1  0
  4 30  1  0
  5 11  2  0
  5 23  1  0
  6 12  2  0
  6 13  1  0
  6 14  1  0
  7 26  1  0
  8 18  1  0
  8 29  1  0
  9 18  1  6
  9 19  1  0
  9 21  1  0
  9 22  1  0
 10 16  1  0
 11 12  1  0
 12 27  1  0
 13 23  2  0
 13 24  1  0
 14 26  1  0
 14 31  2  0
 15 26  1  0
 15 27  2  0
 16 20  2  0
 17 28  1  0
 17 29  1  0
 17 32  2  0
 23 30  1  0
  3 33  1  0
  5 34  1  0
  7 35  1  0
  7 36  1  0
  7 37  1  0
  8 38  1  0
  8 39  1  0
 10 40  1  0
 10 41  1  0
 10 42  1  0
 11 43  1  0
 15 44  1  0
 18 45  1  0
 18 46  1  0
 19 47  1  0
 19 48  1  0
 19 49  1  0
 20 50  1  0
 21 51  1  0
 21 52  1  0
 21 53  1  0
 22 54  1  0
 22 55  1  0
 22 56  1  0
 28 57  1  0
 29 58  1  0
 30 59  1  0
M  END
>  <filename_input>  (18) 
7K0V_VQP_docked.sdf

>  <pdb_id>  (18) 
7K0V_VQP

>  <pose_rank>  (18) 
17

>  <num_atoms_heavy>  (18) 
32

>  <num_torsions>  (18) 
6

>  <pose>  (18) 
[3.66240135842095, -7.225170748240399, -22.059394783701038, 1.302813871436538, -0.4031597327954546, 3.4326682320645765, -1.547088254530695, 0.541679804197877, 0.08940157367155192, 1.8395208251569772, 3.114179129991621, -3.1678697369646125]

>  <energy>  (18) 
-453.6380280202706

>  <inter_energy>  (18) 
-533.4670432586631

>  <intra_energy>  (18) 
84.69530398613794

>  <rmsd>  (18) 
9.5817

>  <sdf_rank>  (18) 
0

$$$$

     RDKit          3D

 59 61  0  0  0  0  0  0  0  0999 V2000
    1.6002   -0.0461  -21.0430 C   0  0  0  0  0  0  0  0  0  0  0  0
    1.7892   -0.6414  -22.2779 C   0  0  0  0  0  0  0  0  0  0  0  0
    1.3225   -1.9323  -22.4620 C   0  0  0  0  0  0  0  0  0  0  0  0
    0.6432   -2.5824  -21.4430 C   0  0  0  0  0  0  0  0  0  0  0  0
    2.0691   -5.4710  -21.5701 C   0  0  0  0  0  0  0  0  0  0  0  0
    1.2699   -6.4328  -24.0641 C   0  0  0  0  0  0  0  0  0  0  0  0
    1.2770   -8.5840  -27.1718 C   0  0  0  0  0  0  0  0  0  0  0  0
    5.7462    1.4662  -24.3750 C   0  0  0  0  0  0  0  0  0  0  0  0
    6.5729    3.8148  -23.7832 C   0  0  1  0  0  0  0  0  0  0  0  0
   -0.2501   -2.5954  -19.0473 C   0  0  0  0  0  0  0  0  0  0  0  0
    2.7728   -6.5022  -22.1566 C   0  0  0  0  0  0  0  0  0  0  0  0
    2.3841   -6.9959  -23.4038 C   0  0  0  0  0  0  0  0  0  0  0  0
    0.5625   -5.3901  -23.4582 C   0  0  0  0  0  0  0  0  0  0  0  0
    0.9045   -6.9977  -25.3679 C   0  0  0  0  0  0  0  0  0  0  0  0
    2.6967   -8.4965  -25.1537 C   0  0  0  0  0  0  0  0  0  0  0  0
    0.4556   -1.9556  -20.2103 C   0  0  0  0  0  0  0  0  0  0  0  0
    3.8263    0.3756  -23.2414 C   0  0  0  0  0  0  0  0  0  0  0  0
    6.0288    2.4814  -23.2667 C   0  0  0  0  0  0  0  0  0  0  0  0
    6.2093    4.9221  -22.7961 C   0  0  0  0  0  0  0  0  0  0  0  0
    0.9361   -0.6865  -20.0201 C   0  0  0  0  0  0  0  0  0  0  0  0
    8.0970    3.7905  -23.9756 C   0  0  0  0  0  0  0  0  0  0  0  0
    5.9139    4.0759  -25.1325 C   0  0  0  0  0  0  0  0  0  0  0  0
    0.9777   -4.9243  -22.2324 C   0  0  0  0  0  0  0  0  0  0  0  0
   -0.5239   -4.8135  -24.0226 F   0  0  0  0  0  0  0  0  0  0  0  0
    2.0628    1.1939  -20.8462 F   0  0  0  0  0  0  0  0  0  0  0  0
    1.6379   -8.0150  -25.8574 N   0  0  0  0  0  0  0  0  0  0  0  0
    3.0544   -8.0151  -24.0026 N   0  0  0  0  0  0  0  0  0  0  0  0
    2.5069    0.0785  -23.2511 N   0  0  0  0  0  0  0  0  0  0  0  0
    4.3289    1.0866  -24.2754 N   0  0  0  0  0  0  0  0  0  0  0  0
    0.2246   -3.8889  -21.7070 N   0  0  0  0  0  0  0  0  0  0  0  0
   -0.0268   -6.5677  -26.0151 O   0  0  0  0  0  0  0  0  0  0  0  0
    4.5483    0.0172  -22.3349 O   0  0  0  0  0  0  0  0  0  0  0  0
    1.4916   -2.4441  -23.4209 H   0  0  0  0  0  0  0  0  0  0  0  0
    2.3701   -5.0845  -20.5852 H   0  0  0  0  0  0  0  0  0  0  0  0
    0.6931   -9.5046  -27.0249 H   0  0  0  0  0  0  0  0  0  0  0  0
    0.6761   -7.8546  -27.7346 H   0  0  0  0  0  0  0  0  0  0  0  0
    2.1930   -8.8167  -27.7346 H   0  0  0  0  0  0  0  0  0  0  0  0
    5.9459    1.9179  -25.3580 H   0  0  0  0  0  0  0  0  0  0  0  0
    6.3926    0.5829  -24.2656 H   0  0  0  0  0  0  0  0  0  0  0  0
    0.1722   -2.2125  -18.1065 H   0  0  0  0  0  0  0  0  0  0  0  0
   -1.3227   -2.3554  -19.0922 H   0  0  0  0  0  0  0  0  0  0  0  0
   -0.1162   -3.6863  -19.0922 H   0  0  0  0  0  0  0  0  0  0  0  0
    3.6420   -6.9365  -21.6410 H   0  0  0  0  0  0  0  0  0  0  0  0
    3.2754   -9.3301  -25.5782 H   0  0  0  0  0  0  0  0  0  0  0  0
    5.0914    2.6747  -22.7246 H   0  0  0  0  0  0  0  0  0  0  0  0
    6.8036    2.0454  -22.6190 H   0  0  0  0  0  0  0  0  0  0  0  0
    6.3311    4.5511  -21.7677 H   0  0  0  0  0  0  0  0  0  0  0  0
    6.8708    5.7865  -22.9548 H   0  0  0  0  0  0  0  0  0  0  0  0
    5.1641    5.2262  -22.9548 H   0  0  0  0  0  0  0  0  0  0  0  0
    0.7919   -0.1808  -19.0539 H   0  0  0  0  0  0  0  0  0  0  0  0
    8.5906    3.7827  -22.9925 H   0  0  0  0  0  0  0  0  0  0  0  0
    8.3816    2.8878  -24.5359 H   0  0  0  0  0  0  0  0  0  0  0  0
    8.4101    4.6838  -24.5359 H   0  0  0  0  0  0  0  0  0  0  0  0
    4.9019    4.4770  -24.9748 H   0  0  0  0  0  0  0  0  0  0  0  0
    6.5131    4.8046  -25.6983 H   0  0  0  0  0  0  0  0  0  0  0  0
    5.8512    3.1347  -25.6983 H   0  0  0  0  0  0  0  0  0  0  0  0
    1.9675    0.4167  -24.0607 H   0  0  0  0  0  0  0  0  0  0  0  0
    3.6891    1.3760  -25.0290 H   0  0  0  0  0  0  0  0  0  0  0  0
   -0.7574   -4.1065  -21.4850 H   0  0  0  0  0  0  0  0  0  0  0  0
  1  2  2  0
  1 20  1  0
  1 25  1  0
  2  3  1  0
  2 28  1  0
  3  4  2  0
  4 16  1  0
  4 30  1  0
  5 11  2  0
  5 23  1  0
  6 12  2  0
  6 13  1  0
  6 14  1  0
  7 26  1  0
  8 18  1  0
  8 29  1  0
  9 18  1  1
  9 19  1  0
  9 21  1  0
  9 22  1  0
 10 16  1  0
 11 12  1  0
 12 27  1  0
 13 23  2  0
 13 24  1  0
 14 26  1  0
 14 31  2  0
 15 26  1  0
 15 27  2  0
 16 20  2  0
 17 28  1  0
 17 29  1  0
 17 32  2  0
 23 30  1  0
  3 33  1  0
  5 34  1  0
  7 35  1  0
  7 36  1  0
  7 37  1  0
  8 38  1  0
  8 39  1  0
 10 40  1  0
 10 41  1  0
 10 42  1  0
 11 43  1  0
 15 44  1  0
 18 45  1  0
 18 46  1  0
 19 47  1  0
 19 48  1  0
 19 49  1  0
 20 50  1  0
 21 51  1  0
 21 52  1  0
 21 53  1  0
 22 54  1  0
 22 55  1  0
 22 56  1  0
 28 57  1  0
 29 58  1  0
 30 59  1  0
M  END
>  <filename_input>  (19) 
7K0V_VQP_docked.sdf

>  <pdb_id>  (19) 
7K0V_VQP

>  <pose_rank>  (19) 
18

>  <num_atoms_heavy>  (19) 
32

>  <num_torsions>  (19) 
6

>  <pose>  (19) 
[1.6002133190455607, -0.04609029058119177, -21.043046315027027, -0.9067582487476411, 3.475595188098348, -4.604285676927889, -2.5722952848827623, 3.0586013900799873, 7.196247327264744, 4.0055222218838535, -3.2191115176207687, -5.503128181863663]

>  <energy>  (19) 
-398.34666861837746

>  <inter_energy>  (19) 
-406.32502196370564

>  <intra_energy>  (19) 
19.442999667892487

>  <rmsd>  (19) 
6.56304

>  <sdf_rank>  (19) 
0

$$$$

     RDKit          3D

 59 61  0  0  0  0  0  0  0  0999 V2000
    6.8665   -7.8376  -20.2477 C   0  0  0  0  0  0  0  0  0  0  0  0
    7.2165   -6.7396  -21.0139 C   0  0  0  0  0  0  0  0  0  0  0  0
    6.2332   -6.1315  -21.7762 C   0  0  0  0  0  0  0  0  0  0  0  0
    4.9260   -6.5912  -21.7275 C   0  0  0  0  0  0  0  0  0  0  0  0
    3.1692   -3.7079  -22.0131 C   0  0  0  0  0  0  0  0  0  0  0  0
    0.6954   -4.8897  -21.4956 C   0  0  0  0  0  0  0  0  0  0  0  0
   -2.9575   -5.1367  -20.5575 C   0  0  0  0  0  0  0  0  0  0  0  0
   12.0106   -6.9886  -22.2191 C   0  0  0  0  0  0  0  0  0  0  0  0
   13.2788   -6.8284  -24.4362 C   0  0  1  0  0  0  0  0  0  0  0  0
    3.2106   -8.2685  -20.8434 C   0  0  0  0  0  0  0  0  0  0  0  0
    2.1109   -2.9187  -21.6131 C   0  0  0  0  0  0  0  0  0  0  0  0
    0.8659   -3.4951  -21.3522 C   0  0  0  0  0  0  0  0  0  0  0  0
    1.7746   -5.6788  -21.9048 C   0  0  0  0  0  0  0  0  0  0  0  0
   -0.6365   -5.4369  -21.2149 C   0  0  0  0  0  0  0  0  0  0  0  0
   -1.3637   -3.2592  -20.7320 C   0  0  0  0  0  0  0  0  0  0  0  0
    4.5964   -7.6935  -20.9377 C   0  0  0  0  0  0  0  0  0  0  0  0
    9.5888   -6.9525  -21.6766 C   0  0  0  0  0  0  0  0  0  0  0  0
   12.2302   -6.2041  -23.5134 C   0  0  0  0  0  0  0  0  0  0  0  0
   14.1191   -7.8249  -23.6402 C   0  0  0  0  0  0  0  0  0  0  0  0
    5.5731   -8.3093  -20.1997 C   0  0  0  0  0  0  0  0  0  0  0  0
   12.6475   -7.5473  -25.6384 C   0  0  0  0  0  0  0  0  0  0  0  0
   14.1564   -5.6935  -24.9508 C   0  0  0  0  0  0  0  0  0  0  0  0
    2.9882   -5.0783  -22.1466 C   0  0  0  0  0  0  0  0  0  0  0  0
    1.6816   -7.0174  -22.0801 F   0  0  0  0  0  0  0  0  0  0  0  0
    7.8111   -8.4457  -19.5210 F   0  0  0  0  0  0  0  0  0  0  0  0
   -1.6160   -4.5902  -20.8458 N   0  0  0  0  0  0  0  0  0  0  0  0
   -0.1959   -2.7418  -20.9629 N   0  0  0  0  0  0  0  0  0  0  0  0
    8.5688   -6.3501  -21.0240 N   0  0  0  0  0  0  0  0  0  0  0  0
   10.8266   -6.4228  -21.5551 N   0  0  0  0  0  0  0  0  0  0  0  0
    4.0024   -5.9325  -22.5429 N   0  0  0  0  0  0  0  0  0  0  0  0
   -0.8726   -6.6239  -21.2957 O   0  0  0  0  0  0  0  0  0  0  0  0
    9.4084   -7.9408  -22.3564 O   0  0  0  0  0  0  0  0  0  0  0  0
    6.4904   -5.2801  -22.4234 H   0  0  0  0  0  0  0  0  0  0  0  0
    4.1491   -3.2551  -22.2248 H   0  0  0  0  0  0  0  0  0  0  0  0
   -3.1031   -5.1960  -19.4688 H   0  0  0  0  0  0  0  0  0  0  0  0
   -3.7232   -4.4788  -20.9945 H   0  0  0  0  0  0  0  0  0  0  0  0
   -3.0454   -6.1423  -20.9945 H   0  0  0  0  0  0  0  0  0  0  0  0
   11.8411   -8.0510  -22.4480 H   0  0  0  0  0  0  0  0  0  0  0  0
   12.8931   -6.9148  -21.5666 H   0  0  0  0  0  0  0  0  0  0  0  0
    2.9327   -8.3838  -19.7853 H   0  0  0  0  0  0  0  0  0  0  0  0
    2.4984   -7.5916  -21.3379 H   0  0  0  0  0  0  0  0  0  0  0  0
    3.1867   -9.2508  -21.3379 H   0  0  0  0  0  0  0  0  0  0  0  0
    2.2479   -1.8332  -21.4995 H   0  0  0  0  0  0  0  0  0  0  0  0
   -2.1847   -2.5918  -20.4312 H   0  0  0  0  0  0  0  0  0  0  0  0
   11.2748   -6.1537  -24.0562 H   0  0  0  0  0  0  0  0  0  0  0  0
   12.6019   -5.2087  -23.2288 H   0  0  0  0  0  0  0  0  0  0  0  0
   13.9724   -7.6510  -22.5640 H   0  0  0  0  0  0  0  0  0  0  0  0
   13.8084   -8.8497  -23.8917 H   0  0  0  0  0  0  0  0  0  0  0  0
   15.1817   -7.6918  -23.8917 H   0  0  0  0  0  0  0  0  0  0  0  0
    5.3252   -9.1774  -19.5712 H   0  0  0  0  0  0  0  0  0  0  0  0
   11.9615   -8.3287  -25.2795 H   0  0  0  0  0  0  0  0  0  0  0  0
   12.0897   -6.8214  -26.2482 H   0  0  0  0  0  0  0  0  0  0  0  0
   13.4395   -8.0066  -26.2482 H   0  0  0  0  0  0  0  0  0  0  0  0
   14.5817   -5.1435  -24.0984 H   0  0  0  0  0  0  0  0  0  0  0  0
   14.9709   -6.1084  -25.5627 H   0  0  0  0  0  0  0  0  0  0  0  0
   13.5499   -5.0096  -25.5627 H   0  0  0  0  0  0  0  0  0  0  0  0
    8.8083   -5.5134  -20.4732 H   0  0  0  0  0  0  0  0  0  0  0  0
   10.9460   -5.5835  -20.9701 H   0  0  0  0  0  0  0  0  0  0  0  0
    4.0860   -6.1020  -23.5554 H   0  0  0  0  0  0  0  0  0  0  0  0
  1  2  2  0
  1 20  1  0
  1 25  1  0
  2  3  1  0
  2 28  1  0
  3  4  2  0
  4 16  1  0
  4 30  1  0
  5 11  2  0
  5 23  1  0
  6 12  2  0
  6 13  1  0
  6 14  1  0
  7 26  1  0
  8 18  1  0
  8 29  1  0
  9 18  1  1
  9 19  1  0
  9 21  1  0
  9 22  1  0
 10 16  1  0
 11 12  1  0
 12 27  1  0
 13 23  2  0
 13 24  1  0
 14 26  1  0
 14 31  2  0
 15 26  1  0
 15 27  2  0
 16 20  2  0
 17 28  1  0
 17 29  1  0
 17 32  2  0
 23 30  1  0
  3 33  1  0
  5 34  1  0
  7 35  1  0
  7 36  1  0
  7 37  1  0
  8 38  1  0
  8 39  1  0
 10 40  1  0
 10 41  1  0
 10 42  1  0
 11 43  1  0
 15 44  1  0
 18 45  1  0
 18 46  1  0
 19 47  1  0
 19 48  1  0
 19 49  1  0
 20 50  1  0
 21 51  1  0
 21 52  1  0
 21 53  1  0
 22 54  1  0
 22 55  1  0
 22 56  1  0
 28 57  1  0
 29 58  1  0
 30 59  1  0
M  END
>  <filename_input>  (20) 
7K0V_VQP_docked.sdf

>  <pdb_id>  (20) 
7K0V_VQP

>  <pose_rank>  (20) 
19

>  <num_atoms_heavy>  (20) 
32

>  <num_torsions>  (20) 
6

>  <pose>  (20) 
[6.8664629344044945, -7.837598183891948, -20.247705273575978, -3.8475574947871043, 1.005202809660836, 2.3722892474830277, 10.101805342157904, 12.213944054444726, 12.651784655375979, 1.0323338138158944, -5.966408206547781, -5.0684130674875325]

>  <energy>  (20) 
-195.8297624907412

>  <inter_energy>  (20) 
-250.36252999924088

>  <intra_energy>  (20) 
57.95640226166341

>  <rmsd>  (20) 
9.57475

>  <sdf_rank>  (20) 
0

$$$$

     RDKit          3D

 59 61  0  0  0  0  0  0  0  0999 V2000
   -1.9248   -6.7409  -25.4879 C   0  0  0  0  0  0  0  0  0  0  0  0
   -0.6668   -6.5494  -24.9438 C   0  0  0  0  0  0  0  0  0  0  0  0
    0.4346   -6.6983  -25.7700 C   0  0  0  0  0  0  0  0  0  0  0  0
    0.2657   -6.9849  -27.1161 C   0  0  0  0  0  0  0  0  0  0  0  0
    1.3074   -5.1217  -29.2304 C   0  0  0  0  0  0  0  0  0  0  0  0
    3.9701   -5.5754  -29.9290 C   0  0  0  0  0  0  0  0  0  0  0  0
    7.3226   -4.9959  -31.5752 C   0  0  0  0  0  0  0  0  0  0  0  0
    0.9120   -4.2706  -20.8436 C   0  0  0  0  0  0  0  0  0  0  0  0
    0.5300   -1.7401  -20.8419 C   0  0  1  0  0  0  0  0  0  0  0  0
   -1.2856   -7.4945  -29.0836 C   0  0  0  0  0  0  0  0  0  0  0  0
    1.9426   -4.2463  -30.0865 C   0  0  0  0  0  0  0  0  0  0  0  0
    3.2757   -4.4587  -30.4442 C   0  0  0  0  0  0  0  0  0  0  0  0
    3.3167   -6.4539  -29.0595 C   0  0  0  0  0  0  0  0  0  0  0  0
    5.3702   -5.7423  -30.3341 C   0  0  0  0  0  0  0  0  0  0  0  0
    5.1721   -3.7835  -31.6101 C   0  0  0  0  0  0  0  0  0  0  0  0
   -1.0144   -7.1620  -27.6428 C   0  0  0  0  0  0  0  0  0  0  0  0
    0.1843   -5.3466  -22.9586 C   0  0  0  0  0  0  0  0  0  0  0  0
    0.9420   -2.9718  -21.6505 C   0  0  0  0  0  0  0  0  0  0  0  0
    1.1073   -0.4895  -21.5020 C   0  0  0  0  0  0  0  0  0  0  0  0
   -2.1040   -7.0363  -26.8214 C   0  0  0  0  0  0  0  0  0  0  0  0
   -0.9956   -1.5944  -20.7325 C   0  0  0  0  0  0  0  0  0  0  0  0
    1.1067   -1.9093  -19.4413 C   0  0  0  0  0  0  0  0  0  0  0  0
    2.0012   -6.2176  -28.7343 C   0  0  0  0  0  0  0  0  0  0  0  0
    3.9223   -7.5340  -28.5138 F   0  0  0  0  0  0  0  0  0  0  0  0
   -2.9964   -6.6184  -24.6961 F   0  0  0  0  0  0  0  0  0  0  0  0
    5.9147   -4.8297  -31.1607 N   0  0  0  0  0  0  0  0  0  0  0  0
    3.9288   -3.6097  -31.2804 N   0  0  0  0  0  0  0  0  0  0  0  0
   -0.5815   -6.2822  -23.5648 N   0  0  0  0  0  0  0  0  0  0  0  0
    0.1280   -5.2497  -21.6115 N   0  0  0  0  0  0  0  0  0  0  0  0
    1.4305   -7.1375  -27.8722 N   0  0  0  0  0  0  0  0  0  0  0  0
    6.0404   -6.6795  -29.9551 O   0  0  0  0  0  0  0  0  0  0  0  0
    0.9044   -4.6083  -23.5973 O   0  0  0  0  0  0  0  0  0  0  0  0
    1.4480   -6.5886  -25.3565 H   0  0  0  0  0  0  0  0  0  0  0  0
    0.2591   -4.9530  -28.9429 H   0  0  0  0  0  0  0  0  0  0  0  0
    7.9612   -5.0712  -30.6827 H   0  0  0  0  0  0  0  0  0  0  0  0
    7.4223   -5.9120  -32.1758 H   0  0  0  0  0  0  0  0  0  0  0  0
    7.6328   -4.1281  -32.1758 H   0  0  0  0  0  0  0  0  0  0  0  0
    1.9359   -4.6436  -20.6940 H   0  0  0  0  0  0  0  0  0  0  0  0
    0.4603   -4.1022  -19.8549 H   0  0  0  0  0  0  0  0  0  0  0  0
   -1.9800   -8.3458  -29.1390 H   0  0  0  0  0  0  0  0  0  0  0  0
   -1.7336   -6.6228  -29.5830 H   0  0  0  0  0  0  0  0  0  0  0  0
   -0.3416   -7.7581  -29.5830 H   0  0  0  0  0  0  0  0  0  0  0  0
    1.3979   -3.3792  -30.4884 H   0  0  0  0  0  0  0  0  0  0  0  0
    5.6453   -3.0525  -32.2822 H   0  0  0  0  0  0  0  0  0  0  0  0
    1.9653   -2.8172  -22.0231 H   0  0  0  0  0  0  0  0  0  0  0  0
    0.2124   -3.0814  -22.4665 H   0  0  0  0  0  0  0  0  0  0  0  0
    1.4338    0.2176  -20.7252 H   0  0  0  0  0  0  0  0  0  0  0  0
    1.9675   -0.7692  -22.1280 H   0  0  0  0  0  0  0  0  0  0  0  0
    0.3366   -0.0163  -22.1280 H   0  0  0  0  0  0  0  0  0  0  0  0
   -3.1182   -7.1708  -27.2254 H   0  0  0  0  0  0  0  0  0  0  0  0
   -1.2861   -1.5667  -19.6719 H   0  0  0  0  0  0  0  0  0  0  0  0
   -1.3111   -0.6621  -21.2236 H   0  0  0  0  0  0  0  0  0  0  0  0
   -1.4818   -2.4502  -21.2236 H   0  0  0  0  0  0  0  0  0  0  0  0
    0.3309   -1.6817  -18.6954 H   0  0  0  0  0  0  0  0  0  0  0  0
    1.4498   -2.9460  -19.3088 H   0  0  0  0  0  0  0  0  0  0  0  0
    1.9555   -1.2223  -19.3088 H   0  0  0  0  0  0  0  0  0  0  0  0
   -1.1673   -6.8636  -22.9487 H   0  0  0  0  0  0  0  0  0  0  0  0
   -0.4931   -5.8917  -21.0987 H   0  0  0  0  0  0  0  0  0  0  0  0
    1.9209   -8.0383  -27.7770 H   0  0  0  0  0  0  0  0  0  0  0  0
  1  2  2  0
  1 20  1  0
  1 25  1  0
  2  3  1  0
  2 28  1  0
  3  4  2  0
  4 16  1  0
  4 30  1  0
  5 11  2  0
  5 23  1  0
  6 12  2  0
  6 13  1  0
  6 14  1  0
  7 26  1  0
  8 18  1  0
  8 29  1  0
  9 18  1  6
  9 19  1  0
  9 21  1  0
  9 22  1  0
 10 16  1  0
 11 12  1  0
 12 27  1  0
 13 23  2  0
 13 24  1  0
 14 26  1  0
 14 31  2  0
 15 26  1  0
 15 27  2  0
 16 20  2  0
 17 28  1  0
 17 29  1  0
 17 32  2  0
 23 30  1  0
  3 33  1  0
  5 34  1  0
  7 35  1  0
  7 36  1  0
  7 37  1  0
  8 38  1  0
  8 39  1  0
 10 40  1  0
 10 41  1  0
 10 42  1  0
 11 43  1  0
 15 44  1  0
 18 45  1  0
 18 46  1  0
 19 47  1  0
 19 48  1  0
 19 49  1  0
 20 50  1  0
 21 51  1  0
 21 52  1  0
 21 53  1  0
 22 54  1  0
 22 55  1  0
 22 56  1  0
 28 57  1  0
 29 58  1  0
 30 59  1  0
M  END
>  <filename_input>  (21) 
7K0V_VQP_docked.sdf

>  <pdb_id>  (21) 
7K0V_VQP

>  <pose_rank>  (21) 
20

>  <num_atoms_heavy>  (21) 
32

>  <num_torsions>  (21) 
6

>  <pose>  (21) 
[-1.924768364459525, -6.740944276571247, -25.487893798140032, -1.6382638176276947, 3.4647673148532916, -0.1594939433200733, -6.149249166018244, -1.3758579015047125, -0.9823540678685235, -2.2079525732828778, 0.432480637277279, 5.641210327248418]

>  <energy>  (21) 
-322.9602005897779

>  <inter_energy>  (21) 
-353.3486528899845

>  <intra_energy>  (21) 
50.06003957183723

>  <rmsd>  (21) 
11.916

>  <sdf_rank>  (21) 
0

$$$$

     RDKit          3D

 59 61  0  0  0  0  0  0  0  0999 V2000
    3.3359    1.6107  -22.5629 C   0  0  0  0  0  0  0  0  0  0  0  0
    3.6547    0.3026  -22.2435 C   0  0  0  0  0  0  0  0  0  0  0  0
    4.9897   -0.0660  -22.2442 C   0  0  0  0  0  0  0  0  0  0  0  0
    5.9743    0.8725  -22.5130 C   0  0  0  0  0  0  0  0  0  0  0  0
    7.9860    1.0644  -24.7518 C   0  0  0  0  0  0  0  0  0  0  0  0
   10.1183   -0.7141  -24.4798 C   0  0  0  0  0  0  0  0  0  0  0  0
   13.2622   -2.6026  -25.3936 C   0  0  0  0  0  0  0  0  0  0  0  0
    1.3397   -4.0699  -22.1037 C   0  0  0  0  0  0  0  0  0  0  0  0
   -0.7837   -3.8564  -20.6913 C   0  0  1  0  0  0  0  0  0  0  0  0
    6.6282    3.2622  -23.1447 C   0  0  0  0  0  0  0  0  0  0  0  0
    8.8848    0.9196  -25.7881 C   0  0  0  0  0  0  0  0  0  0  0  0
    9.9584    0.0348  -25.6665 C   0  0  0  0  0  0  0  0  0  0  0  0
    9.2027   -0.5564  -23.4350 C   0  0  0  0  0  0  0  0  0  0  0  0
   11.2688   -1.6215  -24.4070 C   0  0  0  0  0  0  0  0  0  0  0  0
   11.8751   -0.9295  -26.5652 C   0  0  0  0  0  0  0  0  0  0  0  0
    5.6270    2.1886  -22.8211 C   0  0  0  0  0  0  0  0  0  0  0  0
    2.5897   -1.9284  -22.2122 C   0  0  0  0  0  0  0  0  0  0  0  0
   -0.1398   -4.4280  -21.9560 C   0  0  0  0  0  0  0  0  0  0  0  0
    0.2932   -3.1934  -19.8348 C   0  0  0  0  0  0  0  0  0  0  0  0
    4.3051    2.5490  -22.8419 C   0  0  0  0  0  0  0  0  0  0  0  0
   -1.8818   -2.8289  -21.0060 C   0  0  0  0  0  0  0  0  0  0  0  0
   -1.4088   -5.0249  -19.9385 C   0  0  0  0  0  0  0  0  0  0  0  0
    8.1534    0.3190  -23.5921 C   0  0  0  0  0  0  0  0  0  0  0  0
    9.3015   -1.2266  -22.2636 F   0  0  0  0  0  0  0  0  0  0  0  0
    2.0486    1.9751  -22.5840 F   0  0  0  0  0  0  0  0  0  0  0  0
   12.1050   -1.6871  -25.4601 N   0  0  0  0  0  0  0  0  0  0  0  0
   10.8629   -0.1236  -26.6682 N   0  0  0  0  0  0  0  0  0  0  0  0
    2.5950   -0.5920  -22.0042 N   0  0  0  0  0  0  0  0  0  0  0  0
    1.4626   -2.6158  -21.9215 N   0  0  0  0  0  0  0  0  0  0  0  0
    7.2928    0.4108  -22.5121 N   0  0  0  0  0  0  0  0  0  0  0  0
   11.4776   -2.3161  -23.4348 O   0  0  0  0  0  0  0  0  0  0  0  0
    3.5650   -2.5045  -22.6460 O   0  0  0  0  0  0  0  0  0  0  0  0
    5.2701   -1.1080  -22.0305 H   0  0  0  0  0  0  0  0  0  0  0  0
    7.1430    1.7651  -24.8433 H   0  0  0  0  0  0  0  0  0  0  0  0
   13.5128   -2.8009  -24.3410 H   0  0  0  0  0  0  0  0  0  0  0  0
   13.0104   -3.5487  -25.8951 H   0  0  0  0  0  0  0  0  0  0  0  0
   14.1250   -2.1400  -25.8951 H   0  0  0  0  0  0  0  0  0  0  0  0
    1.9315   -4.5956  -21.3399 H   0  0  0  0  0  0  0  0  0  0  0  0
    1.7139   -4.3694  -23.0938 H   0  0  0  0  0  0  0  0  0  0  0  0
    7.0247    3.6874  -22.2109 H   0  0  0  0  0  0  0  0  0  0  0  0
    7.4532    2.8299  -23.7300 H   0  0  0  0  0  0  0  0  0  0  0  0
    6.1395    4.0550  -23.7300 H   0  0  0  0  0  0  0  0  0  0  0  0
    8.7556    1.5022  -26.7122 H   0  0  0  0  0  0  0  0  0  0  0  0
   12.5774   -1.0026  -27.4087 H   0  0  0  0  0  0  0  0  0  0  0  0
   -0.6815   -4.0365  -22.8297 H   0  0  0  0  0  0  0  0  0  0  0  0
   -0.2013   -5.5238  -21.8829 H   0  0  0  0  0  0  0  0  0  0  0  0
    0.0564   -3.3391  -18.7705 H   0  0  0  0  0  0  0  0  0  0  0  0
    1.2702   -3.6466  -20.0585 H   0  0  0  0  0  0  0  0  0  0  0  0
    0.3284   -2.1169  -20.0585 H   0  0  0  0  0  0  0  0  0  0  0  0
    4.0190    3.5839  -23.0806 H   0  0  0  0  0  0  0  0  0  0  0  0
   -2.2990   -2.4385  -20.0661 H   0  0  0  0  0  0  0  0  0  0  0  0
   -1.4527   -2.0004  -21.5887 H   0  0  0  0  0  0  0  0  0  0  0  0
   -2.6800   -3.3120  -21.5887 H   0  0  0  0  0  0  0  0  0  0  0  0
   -1.3176   -4.8544  -18.8557 H   0  0  0  0  0  0  0  0  0  0  0  0
   -2.4720   -5.1082  -20.2083 H   0  0  0  0  0  0  0  0  0  0  0  0
   -0.8881   -5.9555  -20.2083 H   0  0  0  0  0  0  0  0  0  0  0  0
    1.7271   -0.1836  -21.6290 H   0  0  0  0  0  0  0  0  0  0  0  0
    0.6519   -2.0968  -21.5551 H   0  0  0  0  0  0  0  0  0  0  0  0
    7.6676    0.1035  -21.6033 H   0  0  0  0  0  0  0  0  0  0  0  0
  1  2  2  0
  1 20  1  0
  1 25  1  0
  2  3  1  0
  2 28  1  0
  3  4  2  0
  4 16  1  0
  4 30  1  0
  5 11  2  0
  5 23  1  0
  6 12  2  0
  6 13  1  0
  6 14  1  0
  7 26  1  0
  8 18  1  0
  8 29  1  0
  9 18  1  6
  9 19  1  0
  9 21  1  0
  9 22  1  0
 10 16  1  0
 11 12  1  0
 12 27  1  0
 13 23  2  0
 13 24  1  0
 14 26  1  0
 14 31  2  0
 15 26  1  0
 15 27  2  0
 16 20  2  0
 17 28  1  0
 17 29  1  0
 17 32  2  0
 23 30  1  0
  3 33  1  0
  5 34  1  0
  7 35  1  0
  7 36  1  0
  7 37  1  0
  8 38  1  0
  8 39  1  0
 10 40  1  0
 10 41  1  0
 10 42  1  0
 11 43  1  0
 15 44  1  0
 18 45  1  0
 18 46  1  0
 19 47  1  0
 19 48  1  0
 19 49  1  0
 20 50  1  0
 21 51  1  0
 21 52  1  0
 21 53  1  0
 22 54  1  0
 22 55  1  0
 22 56  1  0
 28 57  1  0
 29 58  1  0
 30 59  1  0
M  END
>  <filename_input>  (22) 
7K0V_VQP_docked.sdf

>  <pdb_id>  (22) 
7K0V_VQP

>  <pose_rank>  (22) 
21

>  <num_atoms_heavy>  (22) 
32

>  <num_torsions>  (22) 
6

>  <pose>  (22) 
[3.3358752746637466, 1.6107456997096874, -22.56289890887955, 0.91161898831736, -3.1952980342583235, -1.825698768538269, -1.1465125062968282, -4.975800196782613, 2.171495221706657, 1.2231864553485257, -2.103015264859232, 0.029214225397051014]

>  <energy>  (22) 
-304.45885640418686

>  <inter_energy>  (22) 
-381.7016752604355

>  <intra_energy>  (22) 
98.93183553129984

>  <rmsd>  (22) 
9.98406

>  <sdf_rank>  (22) 
0

$$$$

     RDKit          3D

 59 61  0  0  0  0  0  0  0  0999 V2000
   12.0048   -1.5661  -25.0249 C   0  0  0  0  0  0  0  0  0  0  0  0
   11.0521   -1.3793  -26.0111 C   0  0  0  0  0  0  0  0  0  0  0  0
   10.9781   -2.3081  -27.0357 C   0  0  0  0  0  0  0  0  0  0  0  0
   11.8104   -3.4171  -27.0361 C   0  0  0  0  0  0  0  0  0  0  0  0
   10.3616   -6.2533  -27.5382 C   0  0  0  0  0  0  0  0  0  0  0  0
    8.8391   -5.7524  -29.8218 C   0  0  0  0  0  0  0  0  0  0  0  0
    6.1189   -6.2088  -32.4058 C   0  0  0  0  0  0  0  0  0  0  0  0
    7.3501    1.5236  -24.4730 C   0  0  0  0  0  0  0  0  0  0  0  0
    6.6491    3.0788  -22.5654 C   0  0  1  0  0  0  0  0  0  0  0  0
   13.7088   -4.7488  -25.9591 C   0  0  0  0  0  0  0  0  0  0  0  0
    9.3126   -7.0924  -27.8515 C   0  0  0  0  0  0  0  0  0  0  0  0
    8.5400   -6.8539  -28.9901 C   0  0  0  0  0  0  0  0  0  0  0  0
    9.9028   -4.9070  -29.4922 C   0  0  0  0  0  0  0  0  0  0  0  0
    7.9882   -5.5481  -30.9994 C   0  0  0  0  0  0  0  0  0  0  0  0
    6.7588   -7.4431  -30.3655 C   0  0  0  0  0  0  0  0  0  0  0  0
   12.7552   -3.5884  -26.0235 C   0  0  0  0  0  0  0  0  0  0  0  0
    9.1710   -0.0098  -25.1756 C   0  0  0  0  0  0  0  0  0  0  0  0
    7.8050    2.4182  -23.3191 C   0  0  0  0  0  0  0  0  0  0  0  0
    6.4843    4.5154  -23.0573 C   0  0  0  0  0  0  0  0  0  0  0  0
   12.8440   -2.6585  -25.0209 C   0  0  0  0  0  0  0  0  0  0  0  0
    5.3225    2.3264  -22.7512 C   0  0  0  0  0  0  0  0  0  0  0  0
    7.0140    3.0684  -21.0856 C   0  0  0  0  0  0  0  0  0  0  0  0
   10.6467   -5.1760  -28.3670 C   0  0  0  0  0  0  0  0  0  0  0  0
   10.2372   -3.8239  -30.2314 F   0  0  0  0  0  0  0  0  0  0  0  0
   12.0993   -0.6661  -24.0394 F   0  0  0  0  0  0  0  0  0  0  0  0
    6.9754   -6.4074  -31.2191 N   0  0  0  0  0  0  0  0  0  0  0  0
    7.4968   -7.6598  -29.3200 N   0  0  0  0  0  0  0  0  0  0  0  0
   10.2613   -0.2169  -25.9485 N   0  0  0  0  0  0  0  0  0  0  0  0
    8.5419    1.1834  -25.2646 N   0  0  0  0  0  0  0  0  0  0  0  0
   11.6823   -4.2926  -28.1172 N   0  0  0  0  0  0  0  0  0  0  0  0
    8.1794   -4.6389  -31.7792 O   0  0  0  0  0  0  0  0  0  0  0  0
    8.7613   -0.8644  -24.4185 O   0  0  0  0  0  0  0  0  0  0  0  0
   10.2557   -2.1654  -27.8529 H   0  0  0  0  0  0  0  0  0  0  0  0
   10.9677   -6.4360  -26.6386 H   0  0  0  0  0  0  0  0  0  0  0  0
    5.0945   -5.9713  -32.0830 H   0  0  0  0  0  0  0  0  0  0  0  0
    6.5150   -5.3787  -33.0092 H   0  0  0  0  0  0  0  0  0  0  0  0
    6.1092   -7.1286  -33.0092 H   0  0  0  0  0  0  0  0  0  0  0  0
    6.8875    0.6071  -24.0779 H   0  0  0  0  0  0  0  0  0  0  0  0
    6.6064    2.0424  -25.0957 H   0  0  0  0  0  0  0  0  0  0  0  0
   13.9131   -4.9975  -24.9072 H   0  0  0  0  0  0  0  0  0  0  0  0
   13.2615   -5.6192  -26.4614 H   0  0  0  0  0  0  0  0  0  0  0  0
   14.6494   -4.4788  -26.4614 H   0  0  0  0  0  0  0  0  0  0  0  0
    9.0842   -7.9511  -27.2032 H   0  0  0  0  0  0  0  0  0  0  0  0
    5.9218   -8.1270  -30.5697 H   0  0  0  0  0  0  0  0  0  0  0  0
    8.3785    1.8049  -22.6085 H   0  0  0  0  0  0  0  0  0  0  0  0
    8.4097    3.2266  -23.7561 H   0  0  0  0  0  0  0  0  0  0  0  0
    6.4066    5.1921  -22.1936 H   0  0  0  0  0  0  0  0  0  0  0  0
    7.3560    4.7967  -23.6663 H   0  0  0  0  0  0  0  0  0  0  0  0
    5.5714    4.5919  -23.6663 H   0  0  0  0  0  0  0  0  0  0  0  0
   13.5828   -2.7840  -24.2156 H   0  0  0  0  0  0  0  0  0  0  0  0
    4.8968    2.0849  -21.7660 H   0  0  0  0  0  0  0  0  0  0  0  0
    4.6173    2.9589  -23.3102 H   0  0  0  0  0  0  0  0  0  0  0  0
    5.5035    1.3965  -23.3102 H   0  0  0  0  0  0  0  0  0  0  0  0
    6.0954    3.0947  -20.4812 H   0  0  0  0  0  0  0  0  0  0  0  0
    7.5794    2.1536  -20.8538 H   0  0  0  0  0  0  0  0  0  0  0  0
    7.6308    3.9492  -20.8538 H   0  0  0  0  0  0  0  0  0  0  0  0
   10.5444    0.5627  -26.5592 H   0  0  0  0  0  0  0  0  0  0  0  0
    8.9149    1.8874  -25.9175 H   0  0  0  0  0  0  0  0  0  0  0  0
   12.4464   -4.2790  -28.8078 H   0  0  0  0  0  0  0  0  0  0  0  0
  1  2  2  0
  1 20  1  0
  1 25  1  0
  2  3  1  0
  2 28  1  0
  3  4  2  0
  4 16  1  0
  4 30  1  0
  5 11  2  0
  5 23  1  0
  6 12  2  0
  6 13  1  0
  6 14  1  0
  7 26  1  0
  8 18  1  0
  8 29  1  0
  9 18  1  6
  9 19  1  0
  9 21  1  0
  9 22  1  0
 10 16  1  0
 11 12  1  0
 12 27  1  0
 13 23  2  0
 13 24  1  0
 14 26  1  0
 14 31  2  0
 15 26  1  0
 15 27  2  0
 16 20  2  0
 17 28  1  0
 17 29  1  0
 17 32  2  0
 23 30  1  0
  3 33  1  0
  5 34  1  0
  7 35  1  0
  7 36  1  0
  7 37  1  0
  8 38  1  0
  8 39  1  0
 10 40  1  0
 10 41  1  0
 10 42  1  0
 11 43  1  0
 15 44  1  0
 18 45  1  0
 18 46  1  0
 19 47  1  0
 19 48  1  0
 19 49  1  0
 20 50  1  0
 21 51  1  0
 21 52  1  0
 21 53  1  0
 22 54  1  0
 22 55  1  0
 22 56  1  0
 28 57  1  0
 29 58  1  0
 30 59  1  0
M  END
>  <filename_input>  (23) 
7K0V_VQP_docked.sdf

>  <pdb_id>  (23) 
7K0V_VQP

>  <pose_rank>  (23) 
22

>  <num_atoms_heavy>  (23) 
32

>  <num_torsions>  (23) 
6

>  <pose>  (23) 
[12.004811942040769, -1.5661225612709024, -25.024896874040135, -3.347129440697521, -1.802542504325249, -2.6922726524792746, 7.377805316872296, -0.2614231173842115, -0.28715615998502314, -0.40971826898615615, 0.9392326846721551, -1.4747866821947917]

>  <energy>  (23) 
-298.71101476650074

>  <inter_energy>  (23) 
-310.44773709747045

>  <intra_energy>  (23) 
2.7671063757275065

>  <rmsd>  (23) 
10.2123

>  <sdf_rank>  (23) 
0

$$$$

     RDKit          3D

 59 61  0  0  0  0  0  0  0  0999 V2000
   12.1552   -1.3975  -26.0312 C   0  0  0  0  0  0  0  0  0  0  0  0
   11.5629   -1.0942  -24.8178 C   0  0  0  0  0  0  0  0  0  0  0  0
   11.7603   -1.9618  -23.7566 C   0  0  0  0  0  0  0  0  0  0  0  0
   12.5713   -3.0765  -23.9059 C   0  0  0  0  0  0  0  0  0  0  0  0
   12.3249   -6.2786  -23.1961 C   0  0  0  0  0  0  0  0  0  0  0  0
   10.3094   -6.1653  -21.2703 C   0  0  0  0  0  0  0  0  0  0  0  0
    7.5305   -7.3740  -19.0116 C   0  0  0  0  0  0  0  0  0  0  0  0
    7.4253    1.5591  -25.3988 C   0  0  0  0  0  0  0  0  0  0  0  0
    6.4005    3.9040  -25.3761 C   0  0  1  0  0  0  0  0  0  0  0  0
   14.0417   -4.5498  -25.3908 C   0  0  0  0  0  0  0  0  0  0  0  0
   11.6103   -7.4192  -22.8944 C   0  0  0  0  0  0  0  0  0  0  0  0
   10.5996   -7.3791  -21.9314 C   0  0  0  0  0  0  0  0  0  0  0  0
   11.0428   -5.0166  -21.5823 C   0  0  0  0  0  0  0  0  0  0  0  0
    9.2426   -6.1862  -20.2634 C   0  0  0  0  0  0  0  0  0  0  0  0
    8.9522   -8.4719  -20.7054 C   0  0  0  0  0  0  0  0  0  0  0  0
   13.1666   -3.3540  -25.1373 C   0  0  0  0  0  0  0  0  0  0  0  0
    9.4473    0.1416  -25.1483 C   0  0  0  0  0  0  0  0  0  0  0  0
    6.8928    2.7143  -24.5498 C   0  0  0  0  0  0  0  0  0  0  0  0
    7.4716    4.9929  -25.3769 C   0  0  0  0  0  0  0  0  0  0  0  0
   12.9543   -2.5078  -26.1939 C   0  0  0  0  0  0  0  0  0  0  0  0
    6.0749    3.5153  -26.8265 C   0  0  0  0  0  0  0  0  0  0  0  0
    5.1292    4.4174  -24.7103 C   0  0  0  0  0  0  0  0  0  0  0  0
   12.0264   -5.0912  -22.5408 C   0  0  0  0  0  0  0  0  0  0  0  0
   10.8327   -3.8239  -20.9785 F   0  0  0  0  0  0  0  0  0  0  0  0
   11.9571   -0.5773  -27.0696 F   0  0  0  0  0  0  0  0  0  0  0  0
    8.6084   -7.3487  -20.0210 N   0  0  0  0  0  0  0  0  0  0  0  0
    9.8837   -8.4882  -21.6092 N   0  0  0  0  0  0  0  0  0  0  0  0
   10.7380    0.0443  -24.7561 N   0  0  0  0  0  0  0  0  0  0  0  0
    8.8257    1.3340  -25.0101 N   0  0  0  0  0  0  0  0  0  0  0  0
   12.6998   -3.9082  -22.7908 N   0  0  0  0  0  0  0  0  0  0  0  0
    8.9132   -5.1888  -19.6569 O   0  0  0  0  0  0  0  0  0  0  0  0
    8.8539   -0.8096  -25.6115 O   0  0  0  0  0  0  0  0  0  0  0  0
   11.2716   -1.7657  -22.7909 H   0  0  0  0  0  0  0  0  0  0  0  0
   13.1253   -6.3095  -23.9501 H   0  0  0  0  0  0  0  0  0  0  0  0
    7.9715   -7.3636  -18.0039 H   0  0  0  0  0  0  0  0  0  0  0  0
    6.8876   -6.4906  -19.1396 H   0  0  0  0  0  0  0  0  0  0  0  0
    6.9296   -8.2864  -19.1396 H   0  0  0  0  0  0  0  0  0  0  0  0
    6.8330    0.6513  -25.2118 H   0  0  0  0  0  0  0  0  0  0  0  0
    7.3544    1.8004  -26.4697 H   0  0  0  0  0  0  0  0  0  0  0  0
   14.3584   -4.9826  -24.4304 H   0  0  0  0  0  0  0  0  0  0  0  0
   13.4787   -5.3013  -25.9638 H   0  0  0  0  0  0  0  0  0  0  0  0
   14.9283   -4.2405  -25.9638 H   0  0  0  0  0  0  0  0  0  0  0  0
   11.8368   -8.3622  -23.4133 H   0  0  0  0  0  0  0  0  0  0  0  0
    8.4179   -9.4075  -20.4836 H   0  0  0  0  0  0  0  0  0  0  0  0
    6.0548    2.3421  -23.9421 H   0  0  0  0  0  0  0  0  0  0  0  0
    7.7292    3.0737  -23.9323 H   0  0  0  0  0  0  0  0  0  0  0  0
    7.7291    5.2547  -24.3400 H   0  0  0  0  0  0  0  0  0  0  0  0
    8.3688    4.6242  -25.8956 H   0  0  0  0  0  0  0  0  0  0  0  0
    7.0883    5.8839  -25.8956 H   0  0  0  0  0  0  0  0  0  0  0  0
   13.4203   -2.7143  -27.1687 H   0  0  0  0  0  0  0  0  0  0  0  0
    5.3684    2.6721  -26.8303 H   0  0  0  0  0  0  0  0  0  0  0  0
    5.6230    4.3746  -27.3437 H   0  0  0  0  0  0  0  0  0  0  0  0
    7.0000    3.2210  -27.3437 H   0  0  0  0  0  0  0  0  0  0  0  0
    5.2434    4.3713  -23.6173 H   0  0  0  0  0  0  0  0  0  0  0  0
    4.9497    5.4586  -25.0166 H   0  0  0  0  0  0  0  0  0  0  0  0
    4.2770    3.7930  -25.0166 H   0  0  0  0  0  0  0  0  0  0  0  0
   11.1646    0.8982  -24.3693 H   0  0  0  0  0  0  0  0  0  0  0  0
    9.3577    2.1219  -24.6138 H   0  0  0  0  0  0  0  0  0  0  0  0
   13.3730   -3.6063  -22.0721 H   0  0  0  0  0  0  0  0  0  0  0  0
  1  2  2  0
  1 20  1  0
  1 25  1  0
  2  3  1  0
  2 28  1  0
  3  4  2  0
  4 16  1  0
  4 30  1  0
  5 11  2  0
  5 23  1  0
  6 12  2  0
  6 13  1  0
  6 14  1  0
  7 26  1  0
  8 18  1  0
  8 29  1  0
  9 18  1  1
  9 19  1  0
  9 21  1  0
  9 22  1  0
 10 16  1  0
 11 12  1  0
 12 27  1  0
 13 23  2  0
 13 24  1  0
 14 26  1  0
 14 31  2  0
 15 26  1  0
 15 27  2  0
 16 20  2  0
 17 28  1  0
 17 29  1  0
 17 32  2  0
 23 30  1  0
  3 33  1  0
  5 34  1  0
  7 35  1  0
  7 36  1  0
  7 37  1  0
  8 38  1  0
  8 39  1  0
 10 40  1  0
 10 41  1  0
 10 42  1  0
 11 43  1  0
 15 44  1  0
 18 45  1  0
 18 46  1  0
 19 47  1  0
 19 48  1  0
 19 49  1  0
 20 50  1  0
 21 51  1  0
 21 52  1  0
 21 53  1  0
 22 54  1  0
 22 55  1  0
 22 56  1  0
 28 57  1  0
 29 58  1  0
 30 59  1  0
M  END
>  <filename_input>  (24) 
7K0V_VQP_docked.sdf

>  <pdb_id>  (24) 
7K0V_VQP

>  <pose_rank>  (24) 
23

>  <num_atoms_heavy>  (24) 
32

>  <num_torsions>  (24) 
6

>  <pose>  (24) 
[12.155195148122594, -1.397546482987423, -26.031195479826795, -0.611175179477945, -3.5051853181123764, 1.3417834256687957, -2.3696773376783584, 0.6511447880908569, -1.122046139503018, -0.4319621451134645, -2.3449211494485662, 0.9555757524512788]

>  <energy>  (24) 
-337.19862542700236

>  <inter_energy>  (24) 
-329.7910887477032

>  <intra_energy>  (24) 
13.58972746745594

>  <rmsd>  (24) 
8.91689

>  <sdf_rank>  (24) 
0

$$$$

     RDKit          3D

 59 61  0  0  0  0  0  0  0  0999 V2000
    6.4458    4.4285  -29.9373 C   0  0  0  0  0  0  0  0  0  0  0  0
    6.1810    3.2497  -29.2624 C   0  0  0  0  0  0  0  0  0  0  0  0
    5.3049    2.3460  -29.8399 C   0  0  0  0  0  0  0  0  0  0  0  0
    4.7512    2.6059  -31.0842 C   0  0  0  0  0  0  0  0  0  0  0  0
    5.1392   -0.3546  -31.0585 C   0  0  0  0  0  0  0  0  0  0  0  0
    3.0680   -1.8279  -32.2087 C   0  0  0  0  0  0  0  0  0  0  0  0
    1.1251   -4.8585  -33.3602 C   0  0  0  0  0  0  0  0  0  0  0  0
    6.7119    3.8383  -24.3768 C   0  0  0  0  0  0  0  0  0  0  0  0
    5.7531    2.3665  -22.5157 C   0  0  1  0  0  0  0  0  0  0  0  0
    4.4712    4.1668  -33.0898 C   0  0  0  0  0  0  0  0  0  0  0  0
    5.2289   -1.7303  -31.1029 C   0  0  0  0  0  0  0  0  0  0  0  0
    4.1996   -2.4820  -31.6736 C   0  0  0  0  0  0  0  0  0  0  0  0
    2.9868   -0.4332  -32.1550 C   0  0  0  0  0  0  0  0  0  0  0  0
    2.0157   -2.6702  -32.7881 C   0  0  0  0  0  0  0  0  0  0  0  0
    3.3028   -4.5530  -32.2377 C   0  0  0  0  0  0  0  0  0  0  0  0
    5.0434    3.7972  -31.7497 C   0  0  0  0  0  0  0  0  0  0  0  0
    6.3569    3.6073  -26.8224 C   0  0  0  0  0  0  0  0  0  0  0  0
    5.5131    3.0346  -23.8709 C   0  0  0  0  0  0  0  0  0  0  0  0
    6.5313    1.0692  -22.7257 C   0  0  0  0  0  0  0  0  0  0  0  0
    5.8933    4.7019  -31.1692 C   0  0  0  0  0  0  0  0  0  0  0  0
    6.5307    3.2702  -21.5465 C   0  0  0  0  0  0  0  0  0  0  0  0
    4.3849    2.0675  -21.9142 C   0  0  0  0  0  0  0  0  0  0  0  0
    4.0224    0.2755  -31.5917 C   0  0  0  0  0  0  0  0  0  0  0  0
    1.9270    0.2603  -32.6314 F   0  0  0  0  0  0  0  0  0  0  0  0
    7.2761    5.3184  -29.3816 F   0  0  0  0  0  0  0  0  0  0  0  0
    2.1794   -4.0064  -32.7738 N   0  0  0  0  0  0  0  0  0  0  0  0
    4.2578   -3.8386  -31.7254 N   0  0  0  0  0  0  0  0  0  0  0  0
    6.7669    3.0728  -27.9952 N   0  0  0  0  0  0  0  0  0  0  0  0
    7.0631    3.3179  -25.7067 N   0  0  0  0  0  0  0  0  0  0  0  0
    3.8629    1.6502  -31.5835 N   0  0  0  0  0  0  0  0  0  0  0  0
    1.0158   -2.1966  -33.2852 O   0  0  0  0  0  0  0  0  0  0  0  0
    5.3823    4.3270  -26.7622 O   0  0  0  0  0  0  0  0  0  0  0  0
    5.0470    1.4177  -29.3089 H   0  0  0  0  0  0  0  0  0  0  0  0
    5.9463    0.2390  -30.6042 H   0  0  0  0  0  0  0  0  0  0  0  0
    0.5431   -5.3289  -32.5539 H   0  0  0  0  0  0  0  0  0  0  0  0
    0.4589   -4.2421  -33.9817 H   0  0  0  0  0  0  0  0  0  0  0  0
    1.5880   -5.6392  -33.9817 H   0  0  0  0  0  0  0  0  0  0  0  0
    6.4468    4.9035  -24.4482 H   0  0  0  0  0  0  0  0  0  0  0  0
    7.5624    3.7421  -23.6859 H   0  0  0  0  0  0  0  0  0  0  0  0
    3.5551    4.7586  -32.9468 H   0  0  0  0  0  0  0  0  0  0  0  0
    5.2073    4.7606  -33.6517 H   0  0  0  0  0  0  0  0  0  0  0  0
    4.2326    3.2517  -33.6517 H   0  0  0  0  0  0  0  0  0  0  0  0
    6.1131   -2.2364  -30.6879 H   0  0  0  0  0  0  0  0  0  0  0  0
    3.4069   -5.6480  -32.2380 H   0  0  0  0  0  0  0  0  0  0  0  0
    4.6534    3.7143  -23.7765 H   0  0  0  0  0  0  0  0  0  0  0  0
    5.3322    2.2309  -24.5998 H   0  0  0  0  0  0  0  0  0  0  0  0
    6.7915    0.6354  -21.7489 H   0  0  0  0  0  0  0  0  0  0  0  0
    5.9112    0.3569  -23.2898 H   0  0  0  0  0  0  0  0  0  0  0  0
    7.4516    1.2809  -23.2898 H   0  0  0  0  0  0  0  0  0  0  0  0
    6.1335    5.6432  -31.6852 H   0  0  0  0  0  0  0  0  0  0  0  0
    6.2895    2.9900  -20.5104 H   0  0  0  0  0  0  0  0  0  0  0  0
    7.6104    3.1480  -21.7175 H   0  0  0  0  0  0  0  0  0  0  0  0
    6.2488    4.3196  -21.7175 H   0  0  0  0  0  0  0  0  0  0  0  0
    4.4556    2.0830  -20.8166 H   0  0  0  0  0  0  0  0  0  0  0  0
    3.6641    2.8294  -22.2460 H   0  0  0  0  0  0  0  0  0  0  0  0
    4.0476    1.0745  -22.2460 H   0  0  0  0  0  0  0  0  0  0  0  0
    7.6005    2.4690  -27.9565 H   0  0  0  0  0  0  0  0  0  0  0  0
    7.8859    2.7042  -25.7920 H   0  0  0  0  0  0  0  0  0  0  0  0
    2.9888    2.0101  -31.9925 H   0  0  0  0  0  0  0  0  0  0  0  0
  1  2  2  0
  1 20  1  0
  1 25  1  0
  2  3  1  0
  2 28  1  0
  3  4  2  0
  4 16  1  0
  4 30  1  0
  5 11  2  0
  5 23  1  0
  6 12  2  0
  6 13  1  0
  6 14  1  0
  7 26  1  0
  8 18  1  0
  8 29  1  0
  9 18  1  6
  9 19  1  0
  9 21  1  0
  9 22  1  0
 10 16  1  0
 11 12  1  0
 12 27  1  0
 13 23  2  0
 13 24  1  0
 14 26  1  0
 14 31  2  0
 15 26  1  0
 15 27  2  0
 16 20  2  0
 17 28  1  0
 17 29  1  0
 17 32  2  0
 23 30  1  0
  3 33  1  0
  5 34  1  0
  7 35  1  0
  7 36  1  0
  7 37  1  0
  8 38  1  0
  8 39  1  0
 10 40  1  0
 10 41  1  0
 10 42  1  0
 11 43  1  0
 15 44  1  0
 18 45  1  0
 18 46  1  0
 19 47  1  0
 19 48  1  0
 19 49  1  0
 20 50  1  0
 21 51  1  0
 21 52  1  0
 21 53  1  0
 22 54  1  0
 22 55  1  0
 22 56  1  0
 28 57  1  0
 29 58  1  0
 30 59  1  0
M  END
>  <filename_input>  (25) 
7K0V_VQP_docked.sdf

>  <pdb_id>  (25) 
7K0V_VQP

>  <pose_rank>  (25) 
24

>  <num_atoms_heavy>  (25) 
32

>  <num_torsions>  (25) 
6

>  <pose>  (25) 
[6.4458227252043345, 4.42845592322342, -29.93734914346065, 2.2503786105216412, 2.943506461500523, 0.7339295547347168, 10.15961366508549, -0.7058666195553456, -1.0666667149809228, -0.09236090439644926, 1.4168555222128723, -0.3304570804772819]

>  <energy>  (25) 
-300.950020042727

>  <inter_energy>  (25) 
-321.4970251064222

>  <intra_energy>  (25) 
29.27750645834027

>  <rmsd>  (25) 
9.4534

>  <sdf_rank>  (25) 
0

$$$$

     RDKit          3D

 59 61  0  0  0  0  0  0  0  0999 V2000
    6.8550    3.2080  -22.7440 C   0  0  0  0  0  0  0  0  0  0  0  0
    6.5000    2.5580  -23.9130 C   0  0  0  0  0  0  0  0  0  0  0  0
    5.6030    1.5060  -23.8320 C   0  0  0  0  0  0  0  0  0  0  0  0
    5.0460    1.1540  -22.6120 C   0  0  0  0  0  0  0  0  0  0  0  0
    2.1180    1.1760  -21.9080 C   0  0  0  0  0  0  0  0  0  0  0  0
    1.0770   -1.3570  -21.3750 C   0  0  0  0  0  0  0  0  0  0  0  0
   -1.4320   -3.9770  -20.3140 C   0  0  0  0  0  0  0  0  0  0  0  0
    6.8560    3.5740  -28.7440 C   0  0  0  0  0  0  0  0  0  0  0  0
    6.3580    5.3570  -30.5110 C   0  0  1  0  0  0  0  0  0  0  0  0
    4.8730    1.5030  -20.0850 C   0  0  0  0  0  0  0  0  0  0  0  0
    0.8350    1.0600  -21.4150 C   0  0  0  0  0  0  0  0  0  0  0  0
    0.2990   -0.2010  -21.1450 C   0  0  0  0  0  0  0  0  0  0  0  0
    2.3750   -1.2270  -21.8780 C   0  0  0  0  0  0  0  0  0  0  0  0
    0.4580   -2.6540  -21.0800 C   0  0  0  0  0  0  0  0  0  0  0  0
   -1.4830   -1.5110  -20.4240 C   0  0  0  0  0  0  0  0  0  0  0  0
    5.4120    1.8330  -21.4490 C   0  0  0  0  0  0  0  0  0  0  0  0
    6.5720    3.0390  -26.3370 C   0  0  0  0  0  0  0  0  0  0  0  0
    6.9540    5.0490  -29.1360 C   0  0  0  0  0  0  0  0  0  0  0  0
    7.3240    4.8830  -31.5950 C   0  0  0  0  0  0  0  0  0  0  0  0
    6.3160    2.8600  -21.5250 C   0  0  0  0  0  0  0  0  0  0  0  0
    4.9930    4.6840  -30.7220 C   0  0  0  0  0  0  0  0  0  0  0  0
    6.1760    6.8680  -30.5930 C   0  0  0  0  0  0  0  0  0  0  0  0
    2.8730    0.0310  -22.1260 C   0  0  0  0  0  0  0  0  0  0  0  0
    3.1720   -2.2890  -22.1390 F   0  0  0  0  0  0  0  0  0  0  0  0
    7.7350    4.2140  -22.8060 F   0  0  0  0  0  0  0  0  0  0  0  0
   -0.8060   -2.6740  -20.6170 N   0  0  0  0  0  0  0  0  0  0  0  0
   -0.9640   -0.3460  -20.6650 N   0  0  0  0  0  0  0  0  0  0  0  0
    7.1270    2.9630  -25.1060 N   0  0  0  0  0  0  0  0  0  0  0  0
    7.3490    3.4500  -27.3640 N   0  0  0  0  0  0  0  0  0  0  0  0
    4.1660    0.0690  -22.6180 N   0  0  0  0  0  0  0  0  0  0  0  0
    1.0550   -3.6990  -21.2310 O   0  0  0  0  0  0  0  0  0  0  0  0
    5.4090    2.7500  -26.5250 O   0  0  0  0  0  0  0  0  0  0  0  0
    5.3312    0.9471  -24.7396 H   0  0  0  0  0  0  0  0  0  0  0  0
    2.5400    2.1680  -22.1268 H   0  0  0  0  0  0  0  0  0  0  0  0
   -1.4953   -4.1087  -19.2237 H   0  0  0  0  0  0  0  0  0  0  0  0
   -2.4430   -4.0074  -20.7463 H   0  0  0  0  0  0  0  0  0  0  0  0
   -0.8239   -4.7853  -20.7463 H   0  0  0  0  0  0  0  0  0  0  0  0
    5.8098    3.2390  -28.8006 H   0  0  0  0  0  0  0  0  0  0  0  0
    7.4531    2.9512  -29.4263 H   0  0  0  0  0  0  0  0  0  0  0  0
    5.5441    1.9139  -19.3163 H   0  0  0  0  0  0  0  0  0  0  0  0
    3.8713    1.9428  -19.9703 H   0  0  0  0  0  0  0  0  0  0  0  0
    4.8092    0.4109  -19.9703 H   0  0  0  0  0  0  0  0  0  0  0  0
    0.2328    1.9626  -21.2341 H   0  0  0  0  0  0  0  0  0  0  0  0
   -2.5153   -1.5594  -20.0473 H   0  0  0  0  0  0  0  0  0  0  0  0
    6.4182    5.6455  -28.3829 H   0  0  0  0  0  0  0  0  0  0  0  0
    8.0239    5.3002  -29.1840 H   0  0  0  0  0  0  0  0  0  0  0  0
    8.2167    4.4450  -31.1246 H   0  0  0  0  0  0  0  0  0  0  0  0
    6.8299    4.1250  -32.2205 H   0  0  0  0  0  0  0  0  0  0  0  0
    7.6211    5.7376  -32.2205 H   0  0  0  0  0  0  0  0  0  0  0  0
    6.6103    3.4046  -20.6157 H   0  0  0  0  0  0  0  0  0  0  0  0
    4.5395    4.4604  -29.7451 H   0  0  0  0  0  0  0  0  0  0  0  0
    4.3339    5.3604  -31.2860 H   0  0  0  0  0  0  0  0  0  0  0  0
    5.1283    3.7493  -31.2860 H   0  0  0  0  0  0  0  0  0  0  0  0
    6.1255    7.2869  -29.5771 H   0  0  0  0  0  0  0  0  0  0  0  0
    7.0272    7.3112  -31.1305 H   0  0  0  0  0  0  0  0  0  0  0  0
    5.2438    7.0964  -31.1305 H   0  0  0  0  0  0  0  0  0  0  0  0
    8.1188    3.2314  -25.0336 H   0  0  0  0  0  0  0  0  0  0  0  0
    8.3325    3.6875  -27.1709 H   0  0  0  0  0  0  0  0  0  0  0  0
    4.5202   -0.8029  -23.0367 H   0  0  0  0  0  0  0  0  0  0  0  0
  1  2  2  0
  1 20  1  0
  1 25  1  0
  2  3  1  0
  2 28  1  0
  3  4  2  0
  4 16  1  0
  4 30  1  0
  5 11  2  0
  5 23  1  0
  6 12  2  0
  6 13  1  0
  6 14  1  0
  7 26  1  0
  8 18  1  0
  8 29  1  0
  9 18  1  1
  9 19  1  0
  9 21  1  0
  9 22  1  0
 10 16  1  0
 11 12  1  0
 12 27  1  0
 13 23  2  0
 13 24  1  0
 14 26  1  0
 14 31  2  0
 15 26  1  0
 15 27  2  0
 16 20  2  0
 17 28  1  0
 17 29  1  0
 17 32  2  0
 23 30  1  0
  3 33  1  0
  5 34  1  0
  7 35  1  0
  7 36  1  0
  7 37  1  0
  8 38  1  0
  8 39  1  0
 10 40  1  0
 10 41  1  0
 10 42  1  0
 11 43  1  0
 15 44  1  0
 18 45  1  0
 18 46  1  0
 19 47  1  0
 19 48  1  0
 19 49  1  0
 20 50  1  0
 21 51  1  0
 21 52  1  0
 21 53  1  0
 22 54  1  0
 22 55  1  0
 22 56  1  0
 28 57  1  0
 29 58  1  0
 30 59  1  0
M  END
>  <filename_input>  (26) 
7K0V_VQP_docked.sdf

>  <pdb_id>  (26) 
7K0V_VQP

>  <pose_rank>  (26) 
25

>  <num_atoms_heavy>  (26) 
32

>  <num_torsions>  (26) 
6

>  <pose>  (26) 
[6.855, 3.208, -22.744, 1e-06, 1e-06, 1e-06, 0.0, 0.0, 0.0, 0.0, 0.0, 0.0]

>  <energy>  (26) 
-2077.1252522739883

>  <inter_energy>  (26) 
-2102.562148926738

>  <intra_energy>  (26) 
34.051204835269914

>  <rmsd>  (26) 
0.0

>  <sdf_rank>  (26) 
0

$$$$
