
     RDKit          3D

 34 34  0  0  0  0  0  0  0  0999 V2000
    0.3475  -32.5198   15.9281 C   0  0  0  0  0  0  0  0  0  0  0  0
    0.2424  -26.7912   15.1610 C   0  0  0  0  0  0  0  0  0  0  0  0
   -5.0557  -28.9943   18.2735 C   0  0  0  0  0  0  0  0  0  0  0  0
   -5.2297  -26.0309   17.7618 C   0  0  0  0  0  0  0  0  0  0  0  0
   -4.0792  -26.6289   17.5351 C   0  0  0  0  0  0  0  0  0  0  0  0
   -3.9225  -28.1377   17.7222 C   0  0  0  0  0  0  0  0  0  0  0  0
   -1.7328  -27.9688   16.8858 C   0  0  0  0  0  0  0  0  0  0  0  0
   -0.7102  -28.8927   16.2203 C   0  0  0  0  0  0  0  0  0  0  0  0
   -0.6811  -30.2799   16.4058 C   0  0  0  0  0  0  0  0  0  0  0  0
    0.2936  -31.0065   15.7442 C   0  0  0  0  0  0  0  0  0  0  0  0
    1.1669  -29.1164   14.7714 C   0  0  0  0  0  0  0  0  0  0  0  0
    0.2323  -28.3057   15.3884 C   0  0  0  0  0  0  0  0  0  0  0  0
   -2.8603  -28.7044   17.4160 N   0  0  0  0  0  0  0  0  0  0  0  0
    1.1773  -30.4227   14.9596 N   0  0  0  0  0  0  0  0  0  0  0  0
   -1.5809  -30.9743   17.2195 O   0  0  0  0  0  0  0  0  0  0  0  0
    1.0872  -26.2204   16.1229 O   0  0  0  0  0  0  0  0  0  0  0  0
   -0.7594  -24.7489   17.1594 O   0  0  0  0  0  0  0  0  0  0  0  0
    1.5360  -24.5346   18.0210 O   0  0  0  0  0  0  0  0  0  0  0  0
    0.9931  -23.6815   15.7671 O   0  0  0  0  0  0  0  0  0  0  0  0
   -5.1029  -29.2728   19.5007 O   0  0  0  0  0  0  0  0  0  0  0  0
   -5.9356  -29.4306   17.4849 O   0  0  0  0  0  0  0  0  0  0  0  0
    0.7016  -24.7634   16.7858 P   0  0  1  0  0  0  0  0  0  0  0  0
    0.3560  -32.7587   17.0018 H   0  0  0  0  0  0  0  0  0  0  0  0
   -0.5349  -32.9780   15.4575 H   0  0  0  0  0  0  0  0  0  0  0  0
    1.2602  -32.9141   15.4575 H   0  0  0  0  0  0  0  0  0  0  0  0
    0.6182  -26.5665   14.1519 H   0  0  0  0  0  0  0  0  0  0  0  0
   -0.7747  -26.3818   15.2506 H   0  0  0  0  0  0  0  0  0  0  0  0
   -5.3216  -24.9438   17.6213 H   0  0  0  0  0  0  0  0  0  0  0  0
   -6.0993  -26.6182   18.0919 H   0  0  0  0  0  0  0  0  0  0  0  0
   -3.2157  -26.0326   17.2054 H   0  0  0  0  0  0  0  0  0  0  0  0
   -1.2416  -27.4291   17.7089 H   0  0  0  0  0  0  0  0  0  0  0  0
   -2.1092  -27.2715   16.1229 H   0  0  0  0  0  0  0  0  0  0  0  0
    1.9185  -28.6627   14.1088 H   0  0  0  0  0  0  0  0  0  0  0  0
   -1.5088  -31.9575   17.3104 H   0  0  0  0  0  0  0  0  0  0  0  0
  1 10  1  0
  2 12  1  0
  2 16  1  0
  3  6  1  0
  3 20  1  0
  3 21  2  0
  4  5  2  0
  5  6  1  0
  6 13  2  3
  7  8  1  0
  7 13  1  0
  8  9  2  0
  8 12  1  0
  9 10  1  0
  9 15  1  0
 10 14  2  0
 11 12  2  0
 11 14  1  0
 16 22  1  0
 22 17  1  1
 18 22  1  0
 19 22  2  0
  1 23  1  0
  1 24  1  0
  1 25  1  0
  2 26  1  0
  2 27  1  0
  4 28  1  0
  4 29  1  0
  5 30  1  0
  7 31  1  0
  7 32  1  0
 11 33  1  0
 15 34  1  0
M  CHG  3  17  -1  18  -1  20  -1
M  END
>  <filename_input>  (1) 
7KB1_WBJ_docked.sdf

>  <pdb_id>  (1) 
7KB1_WBJ

>  <pose_rank>  (1) 
0

>  <num_atoms_heavy>  (1) 
22

>  <num_torsions>  (1) 
7

>  <pose>  (1) 
[0.34746329680310434, -32.51983507683774, 15.928050276888342, -0.029771864379259418, 0.05305626555038246, -0.04015261134625463, -0.024976207861880494, 0.12878182497217272, -0.23360764714425974, -0.1210579314136609, 0.1291846785642709, -1.0168726623332647, 0.1918974049020565]

>  <energy>  (1) 
-1068.580162988721

>  <inter_energy>  (1) 
-1077.9684128832787

>  <intra_energy>  (1) 
26.674933109734283

>  <rmsd>  (1) 
0.3897

>  <sdf_rank>  (1) 
0

$$$$

     RDKit          3D

 34 34  0  0  0  0  0  0  0  0999 V2000
    1.3349  -32.4387   15.2942 C   0  0  0  0  0  0  0  0  0  0  0  0
   -2.6932  -30.0099   18.6546 C   0  0  0  0  0  0  0  0  0  0  0  0
    0.7559  -25.9171   14.9035 C   0  0  0  0  0  0  0  0  0  0  0  0
    0.5841  -25.0645   17.7937 C   0  0  0  0  0  0  0  0  0  0  0  0
   -0.1843  -26.0548   17.3916 C   0  0  0  0  0  0  0  0  0  0  0  0
   -0.0744  -26.6148   15.9738 C   0  0  0  0  0  0  0  0  0  0  0  0
   -1.4676  -28.3948   16.6169 C   0  0  0  0  0  0  0  0  0  0  0  0
   -1.0182  -29.8514   16.7533 C   0  0  0  0  0  0  0  0  0  0  0  0
   -0.0446  -30.4426   15.9397 C   0  0  0  0  0  0  0  0  0  0  0  0
    0.2766  -31.7699   16.1658 C   0  0  0  0  0  0  0  0  0  0  0  0
   -1.2303  -31.9318   17.8933 C   0  0  0  0  0  0  0  0  0  0  0  0
   -1.6187  -30.6132   17.7452 C   0  0  0  0  0  0  0  0  0  0  0  0
   -0.6578  -27.6669   15.6641 N   0  0  0  0  0  0  0  0  0  0  0  0
   -0.3102  -32.4706   17.1155 N   0  0  0  0  0  0  0  0  0  0  0  0
    0.6236  -29.7696   14.9128 O   0  0  0  0  0  0  0  0  0  0  0  0
   -3.5046  -29.1823   17.8663 O   0  0  0  0  0  0  0  0  0  0  0  0
   -6.0672  -29.3138   17.6107 O   0  0  0  0  0  0  0  0  0  0  0  0
   -5.1203  -29.1239   19.8745 O   0  0  0  0  0  0  0  0  0  0  0  0
   -5.0372  -27.1824   18.3492 O   0  0  0  0  0  0  0  0  0  0  0  0
    1.3881  -26.5923   14.0488 O   0  0  0  0  0  0  0  0  0  0  0  0
    0.8125  -24.6589   14.8929 O   0  0  0  0  0  0  0  0  0  0  0  0
   -4.9693  -28.6927   18.4373 P   0  0  1  0  0  0  0  0  0  0  0  0
    2.0902  -32.9160   15.9358 H   0  0  0  0  0  0  0  0  0  0  0  0
    0.8589  -33.2004   14.6591 H   0  0  0  0  0  0  0  0  0  0  0  0
    1.8186  -31.6819   14.6591 H   0  0  0  0  0  0  0  0  0  0  0  0
   -3.2988  -30.8120   19.1018 H   0  0  0  0  0  0  0  0  0  0  0  0
   -2.2292  -29.4323   19.4677 H   0  0  0  0  0  0  0  0  0  0  0  0
    0.4893  -24.6758   18.8183 H   0  0  0  0  0  0  0  0  0  0  0  0
    1.3211  -24.6256   17.1050 H   0  0  0  0  0  0  0  0  0  0  0  0
   -0.9182  -26.4867   18.0880 H   0  0  0  0  0  0  0  0  0  0  0  0
   -2.5149  -28.3758   16.2812 H   0  0  0  0  0  0  0  0  0  0  0  0
   -1.3567  -27.9107   17.5984 H   0  0  0  0  0  0  0  0  0  0  0  0
   -1.6986  -32.5455   18.6769 H   0  0  0  0  0  0  0  0  0  0  0  0
    1.3035  -30.2433   14.3710 H   0  0  0  0  0  0  0  0  0  0  0  0
  1 10  1  0
  2 12  1  0
  2 16  1  0
  3  6  1  0
  3 20  1  0
  3 21  2  0
  4  5  2  0
  5  6  1  0
  6 13  2  3
  7  8  1  0
  7 13  1  0
  8  9  2  0
  8 12  1  0
  9 10  1  0
  9 15  1  0
 10 14  2  0
 11 12  2  0
 11 14  1  0
 16 22  1  0
 22 17  1  6
 18 22  1  0
 19 22  2  0
  1 23  1  0
  1 24  1  0
  1 25  1  0
  2 26  1  0
  2 27  1  0
  4 28  1  0
  4 29  1  0
  5 30  1  0
  7 31  1  0
  7 32  1  0
 11 33  1  0
 15 34  1  0
M  CHG  3  17  -1  18  -1  20  -1
M  END
>  <filename_input>  (2) 
7KB1_WBJ_docked.sdf

>  <pdb_id>  (2) 
7KB1_WBJ

>  <pose_rank>  (2) 
1

>  <num_atoms_heavy>  (2) 
22

>  <num_torsions>  (2) 
7

>  <pose>  (2) 
[1.3348732095748914, -32.438685031140366, 15.294183770229838, 1.4574672274388267, -2.389048351013218, -0.6246044942103282, -0.9245212423527877, -0.788182417861783, -2.996683300260235, 0.03272417753632889, 0.8093335358897031, 3.1687552681760383, 0.09583750701562074]

>  <energy>  (2) 
-635.9422139483853

>  <inter_energy>  (2) 
-694.0797774126277

>  <intra_energy>  (2) 
75.34525686751954

>  <rmsd>  (2) 
5.41424

>  <sdf_rank>  (2) 
0

$$$$

     RDKit          3D

 34 34  0  0  0  0  0  0  0  0999 V2000
   -5.5182  -27.4680   18.5757 C   0  0  0  0  0  0  0  0  0  0  0  0
   -0.9572  -30.7423   17.1998 C   0  0  0  0  0  0  0  0  0  0  0  0
    0.7605  -24.7216   16.7391 C   0  0  0  0  0  0  0  0  0  0  0  0
    0.8167  -27.7247   14.4045 C   0  0  0  0  0  0  0  0  0  0  0  0
    1.3233  -26.8683   15.2663 C   0  0  0  0  0  0  0  0  0  0  0  0
    0.4317  -26.1322   16.2659 C   0  0  0  0  0  0  0  0  0  0  0  0
   -0.9842  -28.0073   16.3155 C   0  0  0  0  0  0  0  0  0  0  0  0
   -2.1784  -28.5177   17.1253 C   0  0  0  0  0  0  0  0  0  0  0  0
   -3.2831  -27.7265   17.4616 C   0  0  0  0  0  0  0  0  0  0  0  0
   -4.3022  -28.3073   18.1963 C   0  0  0  0  0  0  0  0  0  0  0  0
   -3.2151  -30.3307   18.2702 C   0  0  0  0  0  0  0  0  0  0  0  0
   -2.1483  -29.8415   17.5394 C   0  0  0  0  0  0  0  0  0  0  0  0
   -0.5958  -26.6705   16.7103 N   0  0  0  0  0  0  0  0  0  0  0  0
   -4.2476  -29.5680   18.5772 N   0  0  0  0  0  0  0  0  0  0  0  0
   -3.4175  -26.3839   17.0968 O   0  0  0  0  0  0  0  0  0  0  0  0
   -0.8919  -30.8561   15.8043 O   0  0  0  0  0  0  0  0  0  0  0  0
    0.1814  -31.6882   13.6122 O   0  0  0  0  0  0  0  0  0  0  0  0
    1.6586  -30.9957   15.4549 O   0  0  0  0  0  0  0  0  0  0  0  0
    0.3617  -33.0892   15.6504 O   0  0  0  0  0  0  0  0  0  0  0  0
    1.0771  -24.5115   17.9398 O   0  0  0  0  0  0  0  0  0  0  0  0
    0.6988  -23.7683   15.9183 O   0  0  0  0  0  0  0  0  0  0  0  0
    0.3568  -31.6745   15.1100 P   0  0  1  0  0  0  0  0  0  0  0  0
   -5.5982  -27.4128   19.6714 H   0  0  0  0  0  0  0  0  0  0  0  0
   -5.4064  -26.4538   18.1647 H   0  0  0  0  0  0  0  0  0  0  0  0
   -6.4268  -27.9321   18.1647 H   0  0  0  0  0  0  0  0  0  0  0  0
   -0.0282  -30.2949   17.5829 H   0  0  0  0  0  0  0  0  0  0  0  0
   -1.0802  -31.7332   17.6614 H   0  0  0  0  0  0  0  0  0  0  0  0
    1.4757  -28.2441   13.6932 H   0  0  0  0  0  0  0  0  0  0  0  0
   -0.2656  -27.9209   14.3955 H   0  0  0  0  0  0  0  0  0  0  0  0
    2.4069  -26.6792   15.2671 H   0  0  0  0  0  0  0  0  0  0  0  0
   -0.1325  -28.6857   16.4719 H   0  0  0  0  0  0  0  0  0  0  0  0
   -1.2786  -27.9777   15.2561 H   0  0  0  0  0  0  0  0  0  0  0  0
   -3.2031  -31.3789   18.6033 H   0  0  0  0  0  0  0  0  0  0  0  0
   -4.2241  -25.8764   17.3652 H   0  0  0  0  0  0  0  0  0  0  0  0
  1 10  1  0
  2 12  1  0
  2 16  1  0
  3  6  1  0
  3 20  1  0
  3 21  2  0
  4  5  2  0
  5  6  1  0
  6 13  2  3
  7  8  1  0
  7 13  1  0
  8  9  2  0
  8 12  1  0
  9 10  1  0
  9 15  1  0
 10 14  2  0
 11 12  2  0
 11 14  1  0
 16 22  1  0
 22 17  1  6
 18 22  1  0
 19 22  2  0
  1 23  1  0
  1 24  1  0
  1 25  1  0
  2 26  1  0
  2 27  1  0
  4 28  1  0
  4 29  1  0
  5 30  1  0
  7 31  1  0
  7 32  1  0
 11 33  1  0
 15 34  1  0
M  CHG  3  17  -1  18  -1  20  -1
M  END
>  <filename_input>  (3) 
7KB1_WBJ_docked.sdf

>  <pdb_id>  (3) 
7KB1_WBJ

>  <pose_rank>  (3) 
2

>  <num_atoms_heavy>  (3) 
22

>  <num_torsions>  (3) 
7

>  <pose>  (3) 
[-5.518167587591591, -27.467974948761356, 18.57573688530181, -1.2055038739041843, -0.4975204436381707, -1.7861530051856351, -2.7082814417631793, -0.5925830026595962, 2.0910199540676824, 7.152693379801147, -0.28181893218598936, -1.3319673980267888, -2.3110938520589936]

>  <energy>  (3) 
-674.790004631032

>  <inter_energy>  (3) 
-736.3092670918702

>  <intra_energy>  (3) 
67.48312820497301

>  <rmsd>  (3) 
6.25582

>  <sdf_rank>  (3) 
0

$$$$

     RDKit          3D

 34 34  0  0  0  0  0  0  0  0999 V2000
   -5.2073  -29.7763   18.6848 C   0  0  0  0  0  0  0  0  0  0  0  0
   -1.7034  -25.7575   16.4512 C   0  0  0  0  0  0  0  0  0  0  0  0
    0.6220  -31.8098   15.6442 C   0  0  0  0  0  0  0  0  0  0  0  0
    1.6725  -28.1235   15.8798 C   0  0  0  0  0  0  0  0  0  0  0  0
    1.5910  -29.3421   15.3886 C   0  0  0  0  0  0  0  0  0  0  0  0
    0.4927  -30.3042   15.8402 C   0  0  0  0  0  0  0  0  0  0  0  0
   -0.7405  -28.4609   16.6175 C   0  0  0  0  0  0  0  0  0  0  0  0
   -2.1533  -28.1635   17.1252 C   0  0  0  0  0  0  0  0  0  0  0  0
   -3.0046  -29.1350   17.6646 C   0  0  0  0  0  0  0  0  0  0  0  0
   -4.2598  -28.7380   18.0922 C   0  0  0  0  0  0  0  0  0  0  0  0
   -3.8696  -26.5538   17.4937 C   0  0  0  0  0  0  0  0  0  0  0  0
   -2.5982  -26.8521   17.0399 C   0  0  0  0  0  0  0  0  0  0  0  0
   -0.5345  -29.8751   16.3914 N   0  0  0  0  0  0  0  0  0  0  0  0
   -4.6570  -27.4847   17.9990 N   0  0  0  0  0  0  0  0  0  0  0  0
   -2.6599  -30.4830   17.7981 O   0  0  0  0  0  0  0  0  0  0  0  0
   -0.5035  -25.7509   17.1757 O   0  0  0  0  0  0  0  0  0  0  0  0
    1.8293  -24.8145   17.7505 O   0  0  0  0  0  0  0  0  0  0  0  0
    0.9831  -24.5342   15.4565 O   0  0  0  0  0  0  0  0  0  0  0  0
   -0.0264  -23.2332   17.2980 O   0  0  0  0  0  0  0  0  0  0  0  0
    0.7487  -32.5718   16.6389 O   0  0  0  0  0  0  0  0  0  0  0  0
    0.6140  -32.2801   14.4759 O   0  0  0  0  0  0  0  0  0  0  0  0
    0.6005  -24.5575   16.9150 P   0  0  1  0  0  0  0  0  0  0  0  0
   -5.1635  -29.7282   19.7828 H   0  0  0  0  0  0  0  0  0  0  0  0
   -6.2343  -29.5692   18.3494 H   0  0  0  0  0  0  0  0  0  0  0  0
   -4.9075  -30.7801   18.3494 H   0  0  0  0  0  0  0  0  0  0  0  0
   -1.4997  -25.9701   15.3913 H   0  0  0  0  0  0  0  0  0  0  0  0
   -2.1990  -24.7778   16.5186 H   0  0  0  0  0  0  0  0  0  0  0  0
    2.4707  -27.4464   15.5415 H   0  0  0  0  0  0  0  0  0  0  0  0
    0.9425  -27.7823   16.6286 H   0  0  0  0  0  0  0  0  0  0  0  0
    2.3259  -29.6735   14.6402 H   0  0  0  0  0  0  0  0  0  0  0  0
   -0.5822  -27.9228   15.6712 H   0  0  0  0  0  0  0  0  0  0  0  0
   -0.0259  -28.1310   17.3859 H   0  0  0  0  0  0  0  0  0  0  0  0
   -4.2330  -25.5174   17.4323 H   0  0  0  0  0  0  0  0  0  0  0  0
   -3.3067  -31.1231   18.1881 H   0  0  0  0  0  0  0  0  0  0  0  0
  1 10  1  0
  2 12  1  0
  2 16  1  0
  3  6  1  0
  3 20  1  0
  3 21  2  0
  4  5  2  0
  5  6  1  0
  6 13  2  3
  7  8  1  0
  7 13  1  0
  8  9  2  0
  8 12  1  0
  9 10  1  0
  9 15  1  0
 10 14  2  0
 11 12  2  0
 11 14  1  0
 16 22  1  0
 22 17  1  1
 18 22  1  0
 19 22  2  0
  1 23  1  0
  1 24  1  0
  1 25  1  0
  2 26  1  0
  2 27  1  0
  4 28  1  0
  4 29  1  0
  5 30  1  0
  7 31  1  0
  7 32  1  0
 11 33  1  0
 15 34  1  0
M  CHG  3  17  -1  18  -1  20  -1
M  END
>  <filename_input>  (4) 
7KB1_WBJ_docked.sdf

>  <pdb_id>  (4) 
7KB1_WBJ

>  <pose_rank>  (4) 
3

>  <num_atoms_heavy>  (4) 
22

>  <num_torsions>  (4) 
7

>  <pose>  (4) 
[-5.207322031036064, -29.776263133521386, 18.684765824233178, 0.8120620535401966, 2.6448061047792693, -0.9017135689296217, 3.693045147255016, -0.3770194381559421, -4.108857132201286, 19.300161600186122, -0.296695217977252, -3.6760752404696775, 10.038846437293172]

>  <energy>  (4) 
-708.1086363758391

>  <inter_energy>  (4) 
-785.539655775877

>  <intra_energy>  (4) 
91.78685971991646

>  <rmsd>  (4) 
4.78891

>  <sdf_rank>  (4) 
0

$$$$

     RDKit          3D

 34 34  0  0  0  0  0  0  0  0999 V2000
   -6.5836  -27.7877   18.5091 C   0  0  0  0  0  0  0  0  0  0  0  0
   -1.0861  -27.4410   16.7558 C   0  0  0  0  0  0  0  0  0  0  0  0
    0.9432  -30.3226   15.3598 C   0  0  0  0  0  0  0  0  0  0  0  0
    0.2892  -33.0764   16.5801 C   0  0  0  0  0  0  0  0  0  0  0  0
   -0.1746  -31.9724   17.1269 C   0  0  0  0  0  0  0  0  0  0  0  0
   -0.1518  -30.6453   16.3691 C   0  0  0  0  0  0  0  0  0  0  0  0
   -2.1180  -30.0203   17.4945 C   0  0  0  0  0  0  0  0  0  0  0  0
   -3.0541  -28.8131   17.5867 C   0  0  0  0  0  0  0  0  0  0  0  0
   -4.3862  -28.8944   18.0089 C   0  0  0  0  0  0  0  0  0  0  0  0
   -5.1296  -27.7276   18.0519 C   0  0  0  0  0  0  0  0  0  0  0  0
   -3.3584  -26.4676   17.3058 C   0  0  0  0  0  0  0  0  0  0  0  0
   -2.5362  -27.5765   17.2296 C   0  0  0  0  0  0  0  0  0  0  0  0
   -1.0404  -29.7975   16.5549 N   0  0  0  0  0  0  0  0  0  0  0  0
   -4.6121  -26.5656   17.7065 N   0  0  0  0  0  0  0  0  0  0  0  0
   -5.0090  -30.0859   18.3916 O   0  0  0  0  0  0  0  0  0  0  0  0
   -0.8868  -26.1095   16.3656 O   0  0  0  0  0  0  0  0  0  0  0  0
    0.7021  -24.7205   17.8472 O   0  0  0  0  0  0  0  0  0  0  0  0
    1.6596  -26.5038   16.4471 O   0  0  0  0  0  0  0  0  0  0  0  0
    0.8013  -24.4452   15.3848 O   0  0  0  0  0  0  0  0  0  0  0  0
    1.9556  -29.6605   15.7102 O   0  0  0  0  0  0  0  0  0  0  0  0
    0.8166  -30.7146   14.1696 O   0  0  0  0  0  0  0  0  0  0  0  0
    0.6044  -25.4287   16.5194 P   0  0  1  0  0  0  0  0  0  0  0  0
   -6.6226  -27.7893   19.6084 H   0  0  0  0  0  0  0  0  0  0  0  0
   -7.1255  -26.9111   18.1243 H   0  0  0  0  0  0  0  0  0  0  0  0
   -7.0514  -28.7059   18.1243 H   0  0  0  0  0  0  0  0  0  0  0  0
   -0.3988  -27.6979   17.5753 H   0  0  0  0  0  0  0  0  0  0  0  0
   -0.8911  -28.1219   15.9142 H   0  0  0  0  0  0  0  0  0  0  0  0
    0.2636  -34.0215   17.1424 H   0  0  0  0  0  0  0  0  0  0  0  0
    0.7023  -33.0539   15.5608 H   0  0  0  0  0  0  0  0  0  0  0  0
   -0.5857  -32.0056   18.1466 H   0  0  0  0  0  0  0  0  0  0  0  0
   -1.6885  -30.2140   18.4885 H   0  0  0  0  0  0  0  0  0  0  0  0
   -2.7053  -30.8807   17.1415 H   0  0  0  0  0  0  0  0  0  0  0  0
   -2.9588  -25.4816   17.0263 H   0  0  0  0  0  0  0  0  0  0  0  0
   -5.9556  -30.0788   18.6812 H   0  0  0  0  0  0  0  0  0  0  0  0
  1 10  1  0
  2 12  1  0
  2 16  1  0
  3  6  1  0
  3 20  1  0
  3 21  2  0
  4  5  2  0
  5  6  1  0
  6 13  2  3
  7  8  1  0
  7 13  1  0
  8  9  2  0
  8 12  1  0
  9 10  1  0
  9 15  1  0
 10 14  2  0
 11 12  2  0
 11 14  1  0
 16 22  1  0
 22 17  1  1
 18 22  1  0
 19 22  2  0
  1 23  1  0
  1 24  1  0
  1 25  1  0
  2 26  1  0
  2 27  1  0
  4 28  1  0
  4 29  1  0
  5 30  1  0
  7 31  1  0
  7 32  1  0
 11 33  1  0
 15 34  1  0
M  CHG  3  17  -1  18  -1  20  -1
M  END
>  <filename_input>  (5) 
7KB1_WBJ_docked.sdf

>  <pdb_id>  (5) 
7KB1_WBJ

>  <pose_rank>  (5) 
4

>  <num_atoms_heavy>  (5) 
22

>  <num_torsions>  (5) 
7

>  <pose>  (5) 
[-6.583643253425818, -27.787675423085428, 18.50907655343479, 1.6897724727529162, 2.057682024954705, -1.1384316278668225, 1.4452219777421582, -1.0419186595924035, -2.6483364209634153, 2.8808728421288574, -0.19380413992124218, -1.0127113776458898, -0.2815398927756362]

>  <energy>  (5) 
-723.649296563888

>  <inter_energy>  (5) 
-790.8604925398347

>  <intra_energy>  (5) 
60.88901816799766

>  <rmsd>  (5) 
5.25046

>  <sdf_rank>  (5) 
0

$$$$

     RDKit          3D

 34 34  0  0  0  0  0  0  0  0999 V2000
   -0.2762  -32.9285   15.4837 C   0  0  0  0  0  0  0  0  0  0  0  0
    1.0309  -27.2976   15.5138 C   0  0  0  0  0  0  0  0  0  0  0  0
   -4.8704  -28.7033   18.1246 C   0  0  0  0  0  0  0  0  0  0  0  0
   -5.0028  -26.0230   16.7074 C   0  0  0  0  0  0  0  0  0  0  0  0
   -3.8286  -26.5936   16.8766 C   0  0  0  0  0  0  0  0  0  0  0  0
   -3.7136  -28.0243   17.4018 C   0  0  0  0  0  0  0  0  0  0  0  0
   -1.5191  -28.1075   16.5649 C   0  0  0  0  0  0  0  0  0  0  0  0
   -0.5810  -29.1907   16.0276 C   0  0  0  0  0  0  0  0  0  0  0  0
   -0.8940  -30.5550   16.0209 C   0  0  0  0  0  0  0  0  0  0  0  0
    0.0397  -31.4363   15.5038 C   0  0  0  0  0  0  0  0  0  0  0  0
    1.5100  -29.7360   15.0261 C   0  0  0  0  0  0  0  0  0  0  0  0
    0.6434  -28.7792   15.5209 C   0  0  0  0  0  0  0  0  0  0  0  0
   -2.6670  -28.6735   17.2398 N   0  0  0  0  0  0  0  0  0  0  0  0
    1.1959  -31.0179   15.0290 N   0  0  0  0  0  0  0  0  0  0  0  0
   -2.0961  -31.0791   16.5048 O   0  0  0  0  0  0  0  0  0  0  0  0
    1.6457  -27.0228   14.2844 O   0  0  0  0  0  0  0  0  0  0  0  0
    1.0956  -28.8059   12.5047 O   0  0  0  0  0  0  0  0  0  0  0  0
   -0.6245  -27.1383   13.0684 O   0  0  0  0  0  0  0  0  0  0  0  0
    1.3784  -26.4455   11.7991 O   0  0  0  0  0  0  0  0  0  0  0  0
   -5.0993  -29.9289   17.9470 O   0  0  0  0  0  0  0  0  0  0  0  0
   -5.6017  -28.0211   18.8902 O   0  0  0  0  0  0  0  0  0  0  0  0
    0.8546  -27.3657   12.8818 P   0  0  1  0  0  0  0  0  0  0  0  0
   -0.3550  -33.3006   16.5158 H   0  0  0  0  0  0  0  0  0  0  0  0
   -1.2294  -33.0945   14.9603 H   0  0  0  0  0  0  0  0  0  0  0  0
    0.5279  -33.4666   14.9603 H   0  0  0  0  0  0  0  0  0  0  0  0
    0.1316  -26.6748   15.6302 H   0  0  0  0  0  0  0  0  0  0  0  0
    1.7161  -27.0750   16.3450 H   0  0  0  0  0  0  0  0  0  0  0  0
   -5.0639  -24.9923   16.3282 H   0  0  0  0  0  0  0  0  0  0  0  0
   -5.9228  -26.5770   16.9453 H   0  0  0  0  0  0  0  0  0  0  0  0
   -2.9145  -26.0311   16.6357 H   0  0  0  0  0  0  0  0  0  0  0  0
   -0.9642  -27.4770   17.2752 H   0  0  0  0  0  0  0  0  0  0  0  0
   -1.8828  -27.5174   15.7108 H   0  0  0  0  0  0  0  0  0  0  0  0
    2.4832  -29.4219   14.6209 H   0  0  0  0  0  0  0  0  0  0  0  0
   -2.2592  -32.0551   16.4726 H   0  0  0  0  0  0  0  0  0  0  0  0
  1 10  1  0
  2 12  1  0
  2 16  1  0
  3  6  1  0
  3 20  1  0
  3 21  2  0
  4  5  2  0
  5  6  1  0
  6 13  2  3
  7  8  1  0
  7 13  1  0
  8  9  2  0
  8 12  1  0
  9 10  1  0
  9 15  1  0
 10 14  2  0
 11 12  2  0
 11 14  1  0
 16 22  1  0
 22 17  1  6
 18 22  1  0
 19 22  2  0
  1 23  1  0
  1 24  1  0
  1 25  1  0
  2 26  1  0
  2 27  1  0
  4 28  1  0
  4 29  1  0
  5 30  1  0
  7 31  1  0
  7 32  1  0
 11 33  1  0
 15 34  1  0
M  CHG  3  17  -1  18  -1  20  -1
M  END
>  <filename_input>  (6) 
7KB1_WBJ_docked.sdf

>  <pdb_id>  (6) 
7KB1_WBJ

>  <pose_rank>  (6) 
5

>  <num_atoms_heavy>  (6) 
22

>  <num_torsions>  (6) 
7

>  <pose>  (6) 
[-0.27623857507219973, -32.928535702071116, 15.483661992211417, -1.6415458281316038, 3.24469794196678, 4.6987527358680055, -29.157141805630186, -8.971281132857388, -2.51617872977394, 19.153838897399197, 12.781239314439654, -3.1447718940427944, -6.32816115585419]

>  <energy>  (6) 
-613.0327213576966

>  <inter_energy>  (6) 
-702.1733716766444

>  <intra_energy>  (6) 
89.5972677054488

>  <rmsd>  (6) 
2.45327

>  <sdf_rank>  (6) 
0

$$$$

     RDKit          3D

 34 34  0  0  0  0  0  0  0  0999 V2000
   -0.7008  -33.1778   16.0604 C   0  0  0  0  0  0  0  0  0  0  0  0
    1.6293  -27.9118   15.5537 C   0  0  0  0  0  0  0  0  0  0  0  0
    0.4804  -24.7381   17.0287 C   0  0  0  0  0  0  0  0  0  0  0  0
   -2.8987  -25.1799   16.8971 C   0  0  0  0  0  0  0  0  0  0  0  0
   -1.9305  -25.7046   17.6183 C   0  0  0  0  0  0  0  0  0  0  0  0
   -0.5252  -25.8829   17.0443 C   0  0  0  0  0  0  0  0  0  0  0  0
   -1.0562  -28.1199   16.5577 C   0  0  0  0  0  0  0  0  0  0  0  0
   -0.3207  -29.4095   16.1862 C   0  0  0  0  0  0  0  0  0  0  0  0
   -0.8817  -30.6860   16.3099 C   0  0  0  0  0  0  0  0  0  0  0  0
   -0.1136  -31.7754   15.9367 C   0  0  0  0  0  0  0  0  0  0  0  0
    1.6606  -30.4361   15.3536 C   0  0  0  0  0  0  0  0  0  0  0  0
    0.9729  -29.2878   15.6999 C   0  0  0  0  0  0  0  0  0  0  0  0
   -0.1666  -26.9791   16.5830 N   0  0  0  0  0  0  0  0  0  0  0  0
    1.1135  -31.6307   15.4778 N   0  0  0  0  0  0  0  0  0  0  0  0
   -2.1738  -30.9244   16.7868 O   0  0  0  0  0  0  0  0  0  0  0  0
    2.3015  -27.8876   14.3239 O   0  0  0  0  0  0  0  0  0  0  0  0
    1.2250  -28.9350   12.2279 O   0  0  0  0  0  0  0  0  0  0  0  0
    0.1254  -26.9946   13.2687 O   0  0  0  0  0  0  0  0  0  0  0  0
    2.2564  -26.6863   12.0576 O   0  0  0  0  0  0  0  0  0  0  0  0
    0.8485  -24.2303   15.9367 O   0  0  0  0  0  0  0  0  0  0  0  0
    0.9478  -24.3161   18.1194 O   0  0  0  0  0  0  0  0  0  0  0  0
    1.4551  -27.6238   12.9365 P   0  0  1  0  0  0  0  0  0  0  0  0
   -0.8094  -33.4373   17.1238 H   0  0  0  0  0  0  0  0  0  0  0  0
   -1.6866  -33.2068   15.5733 H   0  0  0  0  0  0  0  0  0  0  0  0
   -0.0297  -33.9006   15.5733 H   0  0  0  0  0  0  0  0  0  0  0  0
    0.8600  -27.1258   15.5755 H   0  0  0  0  0  0  0  0  0  0  0  0
    2.3323  -27.7310   16.3802 H   0  0  0  0  0  0  0  0  0  0  0  0
   -3.9033  -25.0602   17.3290 H   0  0  0  0  0  0  0  0  0  0  0  0
   -2.7032  -24.8610   15.8627 H   0  0  0  0  0  0  0  0  0  0  0  0
   -2.1363  -26.0203   18.6517 H   0  0  0  0  0  0  0  0  0  0  0  0
   -1.8485  -27.9365   15.8170 H   0  0  0  0  0  0  0  0  0  0  0  0
   -1.4772  -28.2461   17.5661 H   0  0  0  0  0  0  0  0  0  0  0  0
    2.6865  -30.3522   14.9658 H   0  0  0  0  0  0  0  0  0  0  0  0
   -2.5145  -31.8517   16.8510 H   0  0  0  0  0  0  0  0  0  0  0  0
  1 10  1  0
  2 12  1  0
  2 16  1  0
  3  6  1  0
  3 20  1  0
  3 21  2  0
  4  5  2  0
  5  6  1  0
  6 13  2  3
  7  8  1  0
  7 13  1  0
  8  9  2  0
  8 12  1  0
  9 10  1  0
  9 15  1  0
 10 14  2  0
 11 12  2  0
 11 14  1  0
 16 22  1  0
 22 17  1  6
 18 22  1  0
 19 22  2  0
  1 23  1  0
  1 24  1  0
  1 25  1  0
  2 26  1  0
  2 27  1  0
  4 28  1  0
  4 29  1  0
  5 30  1  0
  7 31  1  0
  7 32  1  0
 11 33  1  0
 15 34  1  0
M  CHG  3  17  -1  18  -1  20  -1
M  END
>  <filename_input>  (7) 
7KB1_WBJ_docked.sdf

>  <pdb_id>  (7) 
7KB1_WBJ

>  <pose_rank>  (7) 
6

>  <num_atoms_heavy>  (7) 
22

>  <num_torsions>  (7) 
7

>  <pose>  (7) 
[-0.7007771759361631, -33.17779649561004, 16.060418770796776, -0.02827138992454503, -0.24982864619744832, -0.4420828817184637, -4.007666258278482, 10.304077497779122, 3.4945739016722888, 9.380464323948686, -6.256044355722485, -1.3173946835567483, 1.717663104291795]

>  <energy>  (7) 
-694.2746275134975

>  <inter_energy>  (7) 
-749.246053734943

>  <intra_energy>  (7) 
76.49126151708681

>  <rmsd>  (7) 
4.17722

>  <sdf_rank>  (7) 
0

$$$$

     RDKit          3D

 34 34  0  0  0  0  0  0  0  0999 V2000
   -7.0109  -27.0229   17.5239 C   0  0  0  0  0  0  0  0  0  0  0  0
   -2.1569  -30.1321   17.9572 C   0  0  0  0  0  0  0  0  0  0  0  0
    0.5954  -27.8895   14.9449 C   0  0  0  0  0  0  0  0  0  0  0  0
    1.0053  -25.5667   17.4681 C   0  0  0  0  0  0  0  0  0  0  0  0
    0.1260  -25.7891   16.5140 C   0  0  0  0  0  0  0  0  0  0  0  0
   -0.1984  -27.2100   16.0540 C   0  0  0  0  0  0  0  0  0  0  0  0
   -1.9244  -27.2838   17.6473 C   0  0  0  0  0  0  0  0  0  0  0  0
   -3.3268  -27.8950   17.6887 C   0  0  0  0  0  0  0  0  0  0  0  0
   -4.5039  -27.1443   17.5861 C   0  0  0  0  0  0  0  0  0  0  0  0
   -5.7129  -27.8165   17.6343 C   0  0  0  0  0  0  0  0  0  0  0  0
   -4.6723  -29.8517   17.8725 C   0  0  0  0  0  0  0  0  0  0  0  0
   -3.4179  -29.2717   17.8348 C   0  0  0  0  0  0  0  0  0  0  0  0
   -1.1192  -27.8510   16.5873 N   0  0  0  0  0  0  0  0  0  0  0  0
   -5.7702  -29.1259   17.7742 N   0  0  0  0  0  0  0  0  0  0  0  0
   -4.5291  -25.7548   17.4359 O   0  0  0  0  0  0  0  0  0  0  0  0
   -1.9014  -30.6969   16.7000 O   0  0  0  0  0  0  0  0  0  0  0  0
    0.5856  -31.2698   17.0692 O   0  0  0  0  0  0  0  0  0  0  0  0
   -1.0825  -33.0626   17.3159 O   0  0  0  0  0  0  0  0  0  0  0  0
   -0.5745  -32.1679   15.0700 O   0  0  0  0  0  0  0  0  0  0  0  0
    1.1499  -29.0015   15.1498 O   0  0  0  0  0  0  0  0  0  0  0  0
    0.7008  -27.3192   13.8269 O   0  0  0  0  0  0  0  0  0  0  0  0
   -0.7125  -31.8245   16.5385 P   0  0  1  0  0  0  0  0  0  0  0  0
   -7.3869  -26.7930   18.5318 H   0  0  0  0  0  0  0  0  0  0  0  0
   -6.8224  -26.0854   16.9802 H   0  0  0  0  0  0  0  0  0  0  0  0
   -7.7594  -27.6180   16.9802 H   0  0  0  0  0  0  0  0  0  0  0  0
   -1.3060  -29.5076   18.2670 H   0  0  0  0  0  0  0  0  0  0  0  0
   -2.3004  -30.9202   18.7111 H   0  0  0  0  0  0  0  0  0  0  0  0
    1.2245  -24.5363   17.7847 H   0  0  0  0  0  0  0  0  0  0  0  0
    1.5207  -26.4113   17.9489 H   0  0  0  0  0  0  0  0  0  0  0  0
   -0.3839  -24.9377   16.0397 H   0  0  0  0  0  0  0  0  0  0  0  0
   -2.0137  -26.1996   17.4847 H   0  0  0  0  0  0  0  0  0  0  0  0
   -1.4293  -27.5019   18.6051 H   0  0  0  0  0  0  0  0  0  0  0  0
   -4.7572  -30.9424   17.9871 H   0  0  0  0  0  0  0  0  0  0  0  0
   -5.3951  -25.2799   17.3687 H   0  0  0  0  0  0  0  0  0  0  0  0
  1 10  1  0
  2 12  1  0
  2 16  1  0
  3  6  1  0
  3 20  1  0
  3 21  2  0
  4  5  2  0
  5  6  1  0
  6 13  2  3
  7  8  1  0
  7 13  1  0
  8  9  2  0
  8 12  1  0
  9 10  1  0
  9 15  1  0
 10 14  2  0
 11 12  2  0
 11 14  1  0
 16 22  1  0
 22 17  1  1
 18 22  1  0
 19 22  2  0
  1 23  1  0
  1 24  1  0
  1 25  1  0
  2 26  1  0
  2 27  1  0
  4 28  1  0
  4 29  1  0
  5 30  1  0
  7 31  1  0
  7 32  1  0
 11 33  1  0
 15 34  1  0
M  CHG  3  17  -1  18  -1  20  -1
M  END
>  <filename_input>  (8) 
7KB1_WBJ_docked.sdf

>  <pdb_id>  (8) 
7KB1_WBJ

>  <pose_rank>  (8) 
7

>  <num_atoms_heavy>  (8) 
22

>  <num_torsions>  (8) 
7

>  <pose>  (8) 
[-7.010904815513434, -27.022901359068427, 17.523942950658874, 1.1197808336167645, 1.08948541532925, 3.7220564513958396, -9.635875150816824, -6.667505064924475, -1.9779910281192272, 4.295208080487311, -0.6332892510205966, -3.4651010627780505, -1.2788504954722535]

>  <energy>  (8) 
-563.5849424957464

>  <inter_energy>  (8) 
-605.1769585720702

>  <intra_energy>  (8) 
40.06197260427936

>  <rmsd>  (8) 
6.37828

>  <sdf_rank>  (8) 
0

$$$$

     RDKit          3D

 34 34  0  0  0  0  0  0  0  0999 V2000
   -4.3692  -30.8800   18.2156 C   0  0  0  0  0  0  0  0  0  0  0  0
   -1.8143  -25.9377   16.6459 C   0  0  0  0  0  0  0  0  0  0  0  0
   -6.9748  -25.4167   14.4612 C   0  0  0  0  0  0  0  0  0  0  0  0
   -8.4581  -26.6217   16.9293 C   0  0  0  0  0  0  0  0  0  0  0  0
   -7.3719  -25.8883   17.0523 C   0  0  0  0  0  0  0  0  0  0  0  0
   -6.4362  -25.6569   15.8662 C   0  0  0  0  0  0  0  0  0  0  0  0
   -4.6065  -25.8692   17.3257 C   0  0  0  0  0  0  0  0  0  0  0  0
   -3.8768  -27.2124   17.3990 C   0  0  0  0  0  0  0  0  0  0  0  0
   -4.4924  -28.4102   17.7807 C   0  0  0  0  0  0  0  0  0  0  0  0
   -3.7232  -29.5607   17.8041 C   0  0  0  0  0  0  0  0  0  0  0  0
   -1.8466  -28.4256   17.1178 C   0  0  0  0  0  0  0  0  0  0  0  0
   -2.5306  -27.2254   17.0633 C   0  0  0  0  0  0  0  0  0  0  0  0
   -5.2044  -25.6497   16.0265 N   0  0  0  0  0  0  0  0  0  0  0  0
   -2.4456  -29.5443   17.4805 N   0  0  0  0  0  0  0  0  0  0  0  0
   -5.8399  -28.5122   18.1380 O   0  0  0  0  0  0  0  0  0  0  0  0
   -0.5772  -25.9045   17.3043 O   0  0  0  0  0  0  0  0  0  0  0  0
    0.5040  -24.5568   15.3901 O   0  0  0  0  0  0  0  0  0  0  0  0
    0.2336  -23.4732   17.5833 O   0  0  0  0  0  0  0  0  0  0  0  0
    1.9081  -25.2683   17.3062 O   0  0  0  0  0  0  0  0  0  0  0  0
   -7.3038  -24.2572   14.0961 O   0  0  0  0  0  0  0  0  0  0  0  0
   -7.0989  -26.3933   13.6756 O   0  0  0  0  0  0  0  0  0  0  0  0
    0.5414  -24.7725   16.8822 P   0  0  1  0  0  0  0  0  0  0  0  0
   -4.4014  -30.9458   19.3131 H   0  0  0  0  0  0  0  0  0  0  0  0
   -5.3926  -30.9277   17.8152 H   0  0  0  0  0  0  0  0  0  0  0  0
   -3.7794  -31.7177   17.8152 H   0  0  0  0  0  0  0  0  0  0  0  0
   -1.6592  -25.9317   15.5569 H   0  0  0  0  0  0  0  0  0  0  0  0
   -2.4170  -25.0577   16.9146 H   0  0  0  0  0  0  0  0  0  0  0  0
   -9.1185  -26.7761   17.7953 H   0  0  0  0  0  0  0  0  0  0  0  0
   -8.7053  -27.0802   15.9604 H   0  0  0  0  0  0  0  0  0  0  0  0
   -7.1336  -25.4342   18.0254 H   0  0  0  0  0  0  0  0  0  0  0  0
   -5.3984  -25.8526   18.0889 H   0  0  0  0  0  0  0  0  0  0  0  0
   -3.8698  -25.0712   17.5009 H   0  0  0  0  0  0  0  0  0  0  0  0
   -0.7792  -28.4487   16.8529 H   0  0  0  0  0  0  0  0  0  0  0  0
   -6.2177  -29.3892   18.3992 H   0  0  0  0  0  0  0  0  0  0  0  0
  1 10  1  0
  2 12  1  0
  2 16  1  0
  3  6  1  0
  3 20  1  0
  3 21  2  0
  4  5  2  0
  5  6  1  0
  6 13  2  3
  7  8  1  0
  7 13  1  0
  8  9  2  0
  8 12  1  0
  9 10  1  0
  9 15  1  0
 10 14  2  0
 11 12  2  0
 11 14  1  0
 16 22  1  0
 22 17  1  6
 18 22  1  0
 19 22  2  0
  1 23  1  0
  1 24  1  0
  1 25  1  0
  2 26  1  0
  2 27  1  0
  4 28  1  0
  4 29  1  0
  5 30  1  0
  7 31  1  0
  7 32  1  0
 11 33  1  0
 15 34  1  0
M  CHG  3  17  -1  18  -1  20  -1
M  END
>  <filename_input>  (9) 
7KB1_WBJ_docked.sdf

>  <pdb_id>  (9) 
7KB1_WBJ

>  <pose_rank>  (9) 
8

>  <num_atoms_heavy>  (9) 
22

>  <num_torsions>  (9) 
7

>  <pose>  (9) 
[-4.369189395008773, -30.87995400864019, 18.215585442672097, 2.248210514055135, 3.655572728532431, 3.6317641522252533, 0.7566495847556894, -0.687451983614308, -1.6780586613658608, 11.167791476354285, 17.483589347733062, 2.138533569761137, 0.9655045907487255]

>  <energy>  (9) 
-663.6041803134269

>  <inter_energy>  (9) 
-632.8756426228031

>  <intra_energy>  (9) 
6.826137826845851

>  <rmsd>  (9) 
4.17966

>  <sdf_rank>  (9) 
0

$$$$

     RDKit          3D

 34 34  0  0  0  0  0  0  0  0999 V2000
   -5.6989  -27.9479   18.1673 C   0  0  0  0  0  0  0  0  0  0  0  0
   -0.1855  -29.3461   17.1356 C   0  0  0  0  0  0  0  0  0  0  0  0
    1.0350  -27.3640   13.8887 C   0  0  0  0  0  0  0  0  0  0  0  0
    2.7221  -28.2485   16.2205 C   0  0  0  0  0  0  0  0  0  0  0  0
    1.5397  -27.7305   16.4780 C   0  0  0  0  0  0  0  0  0  0  0  0
    0.6297  -27.2401   15.3523 C   0  0  0  0  0  0  0  0  0  0  0  0
   -0.9402  -26.5772   16.9707 C   0  0  0  0  0  0  0  0  0  0  0  0
   -2.0201  -27.6015   17.3269 C   0  0  0  0  0  0  0  0  0  0  0  0
   -3.3554  -27.2655   17.5792 C   0  0  0  0  0  0  0  0  0  0  0  0
   -4.2378  -28.2861   17.8886 C   0  0  0  0  0  0  0  0  0  0  0  0
   -2.5922  -29.8807   17.7148 C   0  0  0  0  0  0  0  0  0  0  0  0
   -1.6368  -28.9330   17.3977 C   0  0  0  0  0  0  0  0  0  0  0  0
   -0.4753  -26.7341   15.6095 N   0  0  0  0  0  0  0  0  0  0  0  0
   -3.8463  -29.5432   17.9494 N   0  0  0  0  0  0  0  0  0  0  0  0
   -3.8499  -25.9589   17.5351 O   0  0  0  0  0  0  0  0  0  0  0  0
   -0.1030  -30.7370   17.2883 O   0  0  0  0  0  0  0  0  0  0  0  0
   -0.3505  -32.8073   15.7710 O   0  0  0  0  0  0  0  0  0  0  0  0
    0.7523  -30.8057   14.8572 O   0  0  0  0  0  0  0  0  0  0  0  0
    1.9063  -32.1612   16.5700 O   0  0  0  0  0  0  0  0  0  0  0  0
    1.0671  -28.4929   13.3314 O   0  0  0  0  0  0  0  0  0  0  0  0
    1.3497  -26.3261   13.2483 O   0  0  0  0  0  0  0  0  0  0  0  0
    0.5631  -31.6510   16.0917 P   0  0  1  0  0  0  0  0  0  0  0  0
   -5.8656  -27.9094   19.2539 H   0  0  0  0  0  0  0  0  0  0  0  0
   -5.9399  -26.9703   17.7244 H   0  0  0  0  0  0  0  0  0  0  0  0
   -6.3449  -28.7203   17.7244 H   0  0  0  0  0  0  0  0  0  0  0  0
    0.1053  -29.0637   16.1130 H   0  0  0  0  0  0  0  0  0  0  0  0
    0.4916  -28.8408   17.8400 H   0  0  0  0  0  0  0  0  0  0  0  0
    3.3620  -28.5957   17.0452 H   0  0  0  0  0  0  0  0  0  0  0  0
    3.0704  -28.3342   15.1806 H   0  0  0  0  0  0  0  0  0  0  0  0
    1.2007  -27.6493   17.5213 H   0  0  0  0  0  0  0  0  0  0  0  0
   -1.3561  -25.5659   17.0900 H   0  0  0  0  0  0  0  0  0  0  0  0
   -0.0846  -26.7363   17.6434 H   0  0  0  0  0  0  0  0  0  0  0  0
   -2.3005  -30.9398   17.7729 H   0  0  0  0  0  0  0  0  0  0  0  0
   -4.8061  -25.7848   17.7235 H   0  0  0  0  0  0  0  0  0  0  0  0
  1 10  1  0
  2 12  1  0
  2 16  1  0
  3  6  1  0
  3 20  1  0
  3 21  2  0
  4  5  2  0
  5  6  1  0
  6 13  2  3
  7  8  1  0
  7 13  1  0
  8  9  2  0
  8 12  1  0
  9 10  1  0
  9 15  1  0
 10 14  2  0
 11 12  2  0
 11 14  1  0
 16 22  1  0
 22 17  1  6
 18 22  1  0
 19 22  2  0
  1 23  1  0
  1 24  1  0
  1 25  1  0
  2 26  1  0
  2 27  1  0
  4 28  1  0
  4 29  1  0
  5 30  1  0
  7 31  1  0
  7 32  1  0
 11 33  1  0
 15 34  1  0
M  CHG  3  17  -1  18  -1  20  -1
M  END
>  <filename_input>  (10) 
7KB1_WBJ_docked.sdf

>  <pdb_id>  (10) 
7KB1_WBJ

>  <pose_rank>  (10) 
9

>  <num_atoms_heavy>  (10) 
22

>  <num_torsions>  (10) 
7

>  <pose>  (10) 
[-5.698938857274613, -27.947932385361963, 18.167263426769537, -0.7211759756753614, -0.4884582274872306, -1.6591409694384478, 1.520361800742212, -1.4249277660841873, -3.30826438343219, -1.8089923542924706, 7.433254863668076, 1.8860128265741511, 0.2999769303265557]

>  <energy>  (10) 
-449.1674607506375

>  <inter_energy>  (10) 
-566.0772815258159

>  <intra_energy>  (10) 
122.08514233338948

>  <rmsd>  (10) 
6.22297

>  <sdf_rank>  (10) 
0

$$$$

     RDKit          3D

 34 34  0  0  0  0  0  0  0  0999 V2000
    0.5222  -31.9407   15.7192 C   0  0  0  0  0  0  0  0  0  0  0  0
   -3.6254  -28.9580   18.4242 C   0  0  0  0  0  0  0  0  0  0  0  0
    0.8521  -25.3736   15.1288 C   0  0  0  0  0  0  0  0  0  0  0  0
    0.4201  -24.0760   17.8366 C   0  0  0  0  0  0  0  0  0  0  0  0
   -0.0476  -25.2898   17.6343 C   0  0  0  0  0  0  0  0  0  0  0  0
   -0.0332  -25.9202   16.2421 C   0  0  0  0  0  0  0  0  0  0  0  0
   -1.6135  -27.4923   16.9866 C   0  0  0  0  0  0  0  0  0  0  0  0
   -1.5285  -29.0203   16.9943 C   0  0  0  0  0  0  0  0  0  0  0  0
   -0.5265  -29.7451   16.3385 C   0  0  0  0  0  0  0  0  0  0  0  0
   -0.5581  -31.1263   16.4237 C   0  0  0  0  0  0  0  0  0  0  0  0
   -2.4530  -31.0906   17.7235 C   0  0  0  0  0  0  0  0  0  0  0  0
   -2.5064  -29.7093   17.6969 C   0  0  0  0  0  0  0  0  0  0  0  0
   -0.7428  -26.9080   15.9895 N   0  0  0  0  0  0  0  0  0  0  0  0
   -1.4997  -31.7555   17.0983 N   0  0  0  0  0  0  0  0  0  0  0  0
    0.5057  -29.1547   15.6037 O   0  0  0  0  0  0  0  0  0  0  0  0
   -4.4652  -28.3970   17.4521 O   0  0  0  0  0  0  0  0  0  0  0  0
   -4.9373  -26.1523   18.6303 O   0  0  0  0  0  0  0  0  0  0  0  0
   -6.2915  -26.7561   16.6658 O   0  0  0  0  0  0  0  0  0  0  0  0
   -6.6122  -27.9739   18.7911 O   0  0  0  0  0  0  0  0  0  0  0  0
    1.4252  -26.1593   14.3286 O   0  0  0  0  0  0  0  0  0  0  0  0
    1.0135  -24.1286   15.0276 O   0  0  0  0  0  0  0  0  0  0  0  0
   -5.6006  -27.2900   17.8954 P   0  0  1  0  0  0  0  0  0  0  0  0
    1.1645  -32.4248   16.4696 H   0  0  0  0  0  0  0  0  0  0  0  0
    0.0501  -32.7095   15.0899 H   0  0  0  0  0  0  0  0  0  0  0  0
    1.1313  -31.2751   15.0899 H   0  0  0  0  0  0  0  0  0  0  0  0
   -4.1963  -29.6554   19.0548 H   0  0  0  0  0  0  0  0  0  0  0  0
   -3.2053  -28.1725   19.0695 H   0  0  0  0  0  0  0  0  0  0  0  0
    0.4005  -23.6403   18.8465 H   0  0  0  0  0  0  0  0  0  0  0  0
    0.8303  -23.4974   16.9958 H   0  0  0  0  0  0  0  0  0  0  0  0
   -0.4557  -25.8600   18.4817 H   0  0  0  0  0  0  0  0  0  0  0  0
   -2.6504  -27.1949   16.7711 H   0  0  0  0  0  0  0  0  0  0  0  0
   -1.2933  -27.1282   17.9739 H   0  0  0  0  0  0  0  0  0  0  0  0
   -3.2223  -31.6479   18.2781 H   0  0  0  0  0  0  0  0  0  0  0  0
    1.1860  -29.7222   15.1617 H   0  0  0  0  0  0  0  0  0  0  0  0
  1 10  1  0
  2 12  1  0
  2 16  1  0
  3  6  1  0
  3 20  1  0
  3 21  2  0
  4  5  2  0
  5  6  1  0
  6 13  2  3
  7  8  1  0
  7 13  1  0
  8  9  2  0
  8 12  1  0
  9 10  1  0
  9 15  1  0
 10 14  2  0
 11 12  2  0
 11 14  1  0
 16 22  1  0
 22 17  1  1
 18 22  1  0
 19 22  2  0
  1 23  1  0
  1 24  1  0
  1 25  1  0
  2 26  1  0
  2 27  1  0
  4 28  1  0
  4 29  1  0
  5 30  1  0
  7 31  1  0
  7 32  1  0
 11 33  1  0
 15 34  1  0
M  CHG  3  17  -1  18  -1  20  -1
M  END
>  <filename_input>  (11) 
7KB1_WBJ_docked.sdf

>  <pdb_id>  (11) 
7KB1_WBJ

>  <pose_rank>  (11) 
10

>  <num_atoms_heavy>  (11) 
22

>  <num_torsions>  (11) 
7

>  <pose>  (11) 
[0.5222476530707766, -31.940694853683564, 15.719152637990293, -1.3505937906114682, 2.7018357099155343, 0.6806956298867953, -6.679648408024036, -0.3110117737138439, -6.341037394694797, -5.896984589487434, 6.901137196078478, 3.119746613969779, 0.578564359365279]

>  <energy>  (11) 
-691.6317229216506

>  <inter_energy>  (11) 
-738.5903501531136

>  <intra_energy>  (11) 
52.121198674695655

>  <rmsd>  (11) 
5.43553

>  <sdf_rank>  (11) 
0

$$$$

     RDKit          3D

 34 34  0  0  0  0  0  0  0  0999 V2000
    1.9326  -25.1366   16.6256 C   0  0  0  0  0  0  0  0  0  0  0  0
   -3.0353  -28.0876   16.7935 C   0  0  0  0  0  0  0  0  0  0  0  0
    0.7072  -32.1075   14.5859 C   0  0  0  0  0  0  0  0  0  0  0  0
   -0.2347  -32.9560   17.7461 C   0  0  0  0  0  0  0  0  0  0  0  0
   -0.8202  -32.3125   16.7582 C   0  0  0  0  0  0  0  0  0  0  0  0
   -0.0094  -31.4729   15.7715 C   0  0  0  0  0  0  0  0  0  0  0  0
   -0.5734  -29.5559   17.0083 C   0  0  0  0  0  0  0  0  0  0  0  0
   -0.4978  -28.0349   16.8557 C   0  0  0  0  0  0  0  0  0  0  0  0
    0.7037  -27.3176   16.8168 C   0  0  0  0  0  0  0  0  0  0  0  0
    0.6384  -25.9426   16.6718 C   0  0  0  0  0  0  0  0  0  0  0  0
   -1.6587  -25.9701   16.6079 C   0  0  0  0  0  0  0  0  0  0  0  0
   -1.6967  -27.3448   16.7496 C   0  0  0  0  0  0  0  0  0  0  0  0
    0.0748  -30.2415   15.9114 N   0  0  0  0  0  0  0  0  0  0  0  0
   -0.5150  -25.3123   16.5736 N   0  0  0  0  0  0  0  0  0  0  0  0
    1.9660  -27.9098   16.9141 O   0  0  0  0  0  0  0  0  0  0  0  0
   -3.6228  -27.8359   18.0411 O   0  0  0  0  0  0  0  0  0  0  0  0
   -6.0231  -28.2817   17.2108 O   0  0  0  0  0  0  0  0  0  0  0  0
   -4.9616  -29.9431   18.6841 O   0  0  0  0  0  0  0  0  0  0  0  0
   -5.6538  -27.7583   19.6064 O   0  0  0  0  0  0  0  0  0  0  0  0
    0.5452  -31.6476   13.4248 O   0  0  0  0  0  0  0  0  0  0  0  0
    1.4519  -33.1045   14.7801 O   0  0  0  0  0  0  0  0  0  0  0  0
   -5.1015  -28.4707   18.3895 P   0  0  1  0  0  0  0  0  0  0  0  0
    2.2704  -24.9262   17.6511 H   0  0  0  0  0  0  0  0  0  0  0  0
    2.7052  -25.7135   16.0962 H   0  0  0  0  0  0  0  0  0  0  0  0
    1.7556  -24.1888   16.0962 H   0  0  0  0  0  0  0  0  0  0  0  0
   -3.6923  -27.7232   15.9900 H   0  0  0  0  0  0  0  0  0  0  0  0
   -2.8811  -29.1674   16.6516 H   0  0  0  0  0  0  0  0  0  0  0  0
   -0.8364  -33.5549   18.4455 H   0  0  0  0  0  0  0  0  0  0  0  0
    0.8564  -32.8947   17.8722 H   0  0  0  0  0  0  0  0  0  0  0  0
   -1.9118  -32.3802   16.6408 H   0  0  0  0  0  0  0  0  0  0  0  0
   -0.0804  -29.8438   17.9486 H   0  0  0  0  0  0  0  0  0  0  0  0
   -1.6346  -29.8456   17.0117 H   0  0  0  0  0  0  0  0  0  0  0  0
   -2.6027  -25.4121   16.5218 H   0  0  0  0  0  0  0  0  0  0  0  0
    2.7804  -27.3479   16.8799 H   0  0  0  0  0  0  0  0  0  0  0  0
  1 10  1  0
  2 12  1  0
  2 16  1  0
  3  6  1  0
  3 20  1  0
  3 21  2  0
  4  5  2  0
  5  6  1  0
  6 13  2  3
  7  8  1  0
  7 13  1  0
  8  9  2  0
  8 12  1  0
  9 10  1  0
  9 15  1  0
 10 14  2  0
 11 12  2  0
 11 14  1  0
 16 22  1  0
 22 17  1  6
 18 22  1  0
 19 22  2  0
  1 23  1  0
  1 24  1  0
  1 25  1  0
  2 26  1  0
  2 27  1  0
  4 28  1  0
  4 29  1  0
  5 30  1  0
  7 31  1  0
  7 32  1  0
 11 33  1  0
 15 34  1  0
M  CHG  3  17  -1  18  -1  20  -1
M  END
>  <filename_input>  (12) 
7KB1_WBJ_docked.sdf

>  <pdb_id>  (12) 
7KB1_WBJ

>  <pose_rank>  (12) 
11

>  <num_atoms_heavy>  (12) 
22

>  <num_torsions>  (12) 
7

>  <pose>  (12) 
[1.9326029695638152, -25.13659981445774, 16.625571643221846, -1.2053571993146028, 0.292654322701657, -3.9796804456619492, 6.522393775237993, -0.5380301509903287, 4.481914182130478, -0.9174422375798892, -0.00986665173462575, 2.9012349380266262, 1.7050195627173983]

>  <energy>  (12) 
-576.0849913908484

>  <inter_energy>  (12) 
-567.7525939741215

>  <intra_energy>  (12) 
7.1642952851407244

>  <rmsd>  (12) 
6.04794

>  <sdf_rank>  (12) 
0

$$$$

     RDKit          3D

 34 34  0  0  0  0  0  0  0  0999 V2000
   -5.7655  -26.5918   17.7977 C   0  0  0  0  0  0  0  0  0  0  0  0
   -0.4489  -28.5744   16.6935 C   0  0  0  0  0  0  0  0  0  0  0  0
   -0.1158  -32.3384   15.2815 C   0  0  0  0  0  0  0  0  0  0  0  0
   -1.5985  -34.3072   17.1755 C   0  0  0  0  0  0  0  0  0  0  0  0
   -1.4317  -33.0395   17.4885 C   0  0  0  0  0  0  0  0  0  0  0  0
   -1.0660  -32.0045   16.4250 C   0  0  0  0  0  0  0  0  0  0  0  0
   -2.4592  -30.4576   17.5154 C   0  0  0  0  0  0  0  0  0  0  0  0
   -2.8546  -28.9842   17.3939 C   0  0  0  0  0  0  0  0  0  0  0  0
   -4.1417  -28.5016   17.6586 C   0  0  0  0  0  0  0  0  0  0  0  0
   -4.3722  -27.1444   17.5148 C   0  0  0  0  0  0  0  0  0  0  0  0
   -2.1973  -26.7524   16.8842 C   0  0  0  0  0  0  0  0  0  0  0  0
   -1.8693  -28.0905   16.9997 C   0  0  0  0  0  0  0  0  0  0  0  0
   -1.5488  -30.8607   16.4655 N   0  0  0  0  0  0  0  0  0  0  0  0
   -3.4172  -26.3175   17.1384 N   0  0  0  0  0  0  0  0  0  0  0  0
   -5.2076  -29.3110   18.0616 O   0  0  0  0  0  0  0  0  0  0  0  0
    0.1953  -27.5702   15.9577 O   0  0  0  0  0  0  0  0  0  0  0  0
    2.3962  -28.7640   16.5747 O   0  0  0  0  0  0  0  0  0  0  0  0
    2.2099  -27.7159   14.3557 O   0  0  0  0  0  0  0  0  0  0  0  0
    2.3820  -26.2929   16.3677 O   0  0  0  0  0  0  0  0  0  0  0  0
    1.1301  -32.3203   15.4645 O   0  0  0  0  0  0  0  0  0  0  0  0
   -0.5914  -32.6192   14.1496 O   0  0  0  0  0  0  0  0  0  0  0  0
    1.8351  -27.5908   15.8111 P   0  0  1  0  0  0  0  0  0  0  0  0
   -5.9216  -26.5299   18.8848 H   0  0  0  0  0  0  0  0  0  0  0  0
   -5.8587  -25.5886   17.3562 H   0  0  0  0  0  0  0  0  0  0  0  0
   -6.5210  -27.2584   17.3562 H   0  0  0  0  0  0  0  0  0  0  0  0
    0.0946  -28.7580   17.6321 H   0  0  0  0  0  0  0  0  0  0  0  0
   -0.4773  -29.5131   16.1207 H   0  0  0  0  0  0  0  0  0  0  0  0
   -1.8616  -35.0364   17.9559 H   0  0  0  0  0  0  0  0  0  0  0  0
   -1.4749  -34.6373   16.1335 H   0  0  0  0  0  0  0  0  0  0  0  0
   -1.5577  -32.7196   18.5333 H   0  0  0  0  0  0  0  0  0  0  0  0
   -1.9718  -30.6158   18.4887 H   0  0  0  0  0  0  0  0  0  0  0  0
   -3.3726  -31.0640   17.4258 H   0  0  0  0  0  0  0  0  0  0  0  0
   -1.4243  -26.0341   16.5735 H   0  0  0  0  0  0  0  0  0  0  0  0
   -6.0961  -28.9098   18.2341 H   0  0  0  0  0  0  0  0  0  0  0  0
  1 10  1  0
  2 12  1  0
  2 16  1  0
  3  6  1  0
  3 20  1  0
  3 21  2  0
  4  5  2  0
  5  6  1  0
  6 13  2  3
  7  8  1  0
  7 13  1  0
  8  9  2  0
  8 12  1  0
  9 10  1  0
  9 15  1  0
 10 14  2  0
 11 12  2  0
 11 14  1  0
 16 22  1  0
 22 17  1  1
 18 22  1  0
 19 22  2  0
  1 23  1  0
  1 24  1  0
  1 25  1  0
  2 26  1  0
  2 27  1  0
  4 28  1  0
  4 29  1  0
  5 30  1  0
  7 31  1  0
  7 32  1  0
 11 33  1  0
 15 34  1  0
M  CHG  3  17  -1  18  -1  20  -1
M  END
>  <filename_input>  (13) 
7KB1_WBJ_docked.sdf

>  <pdb_id>  (13) 
7KB1_WBJ

>  <pose_rank>  (13) 
12

>  <num_atoms_heavy>  (13) 
22

>  <num_torsions>  (13) 
7

>  <pose>  (13) 
[-5.765523344205889, -26.591777683236938, 17.797705706711934, 2.11152734942757, 1.6134723823800332, -1.2154986728966977, 1.225608784893677, -0.7956842669572203, -1.0424417656707101, 2.6250073603420927, -0.2108244858643352, -0.7600581591954694, -0.3793288988387979]

>  <energy>  (13) 
-538.4965464097576

>  <inter_energy>  (13) 
-585.290009786843

>  <intra_energy>  (13) 
42.63908208936081

>  <rmsd>  (13) 
5.30034

>  <sdf_rank>  (13) 
0

$$$$

     RDKit          3D

 34 34  0  0  0  0  0  0  0  0999 V2000
    1.1367  -31.9774   13.9713 C   0  0  0  0  0  0  0  0  0  0  0  0
   -2.2627  -29.8061   18.1122 C   0  0  0  0  0  0  0  0  0  0  0  0
    0.5826  -24.9956   15.4907 C   0  0  0  0  0  0  0  0  0  0  0  0
    0.4185  -24.4259   18.4839 C   0  0  0  0  0  0  0  0  0  0  0  0
   -0.0165  -25.5783   18.0196 C   0  0  0  0  0  0  0  0  0  0  0  0
    0.2745  -26.0121   16.5833 C   0  0  0  0  0  0  0  0  0  0  0  0
   -0.0062  -28.2483   17.2491 C   0  0  0  0  0  0  0  0  0  0  0  0
   -0.2425  -29.6078   16.5872 C   0  0  0  0  0  0  0  0  0  0  0  0
    0.5778  -30.1351   15.5830 C   0  0  0  0  0  0  0  0  0  0  0  0
    0.2591  -31.3790   15.0661 C   0  0  0  0  0  0  0  0  0  0  0  0
   -1.5707  -31.5795   16.4420 C   0  0  0  0  0  0  0  0  0  0  0  0
   -1.3344  -30.3462   17.0203 C   0  0  0  0  0  0  0  0  0  0  0  0
    0.2759  -27.2156   16.2757 N   0  0  0  0  0  0  0  0  0  0  0  0
   -0.7850  -32.0589   15.4960 N   0  0  0  0  0  0  0  0  0  0  0  0
    1.7016  -29.4789   15.0729 O   0  0  0  0  0  0  0  0  0  0  0  0
   -3.5817  -29.9452   17.6587 O   0  0  0  0  0  0  0  0  0  0  0  0
   -4.2204  -27.4473   17.6118 O   0  0  0  0  0  0  0  0  0  0  0  0
   -6.0065  -29.1219   17.3604 O   0  0  0  0  0  0  0  0  0  0  0  0
   -4.9055  -28.8306   19.5526 O   0  0  0  0  0  0  0  0  0  0  0  0
    0.5700  -25.3406   14.2796 O   0  0  0  0  0  0  0  0  0  0  0  0
    0.8626  -23.8112   15.8148 O   0  0  0  0  0  0  0  0  0  0  0  0
   -4.7039  -28.8063   18.0519 P   0  0  1  0  0  0  0  0  0  0  0  0
    1.9626  -32.5406   14.4303 H   0  0  0  0  0  0  0  0  0  0  0  0
    0.5342  -32.6536   13.3470 H   0  0  0  0  0  0  0  0  0  0  0  0
    1.5462  -31.1695   13.3470 H   0  0  0  0  0  0  0  0  0  0  0  0
   -2.1232  -30.3803   19.0400 H   0  0  0  0  0  0  0  0  0  0  0  0
   -2.0370  -28.7500   18.3214 H   0  0  0  0  0  0  0  0  0  0  0  0
    0.1982  -24.1323   19.5209 H   0  0  0  0  0  0  0  0  0  0  0  0
    1.0023  -23.7565   17.8350 H   0  0  0  0  0  0  0  0  0  0  0  0
   -0.5994  -26.2405   18.6767 H   0  0  0  0  0  0  0  0  0  0  0  0
   -0.9066  -27.9671   17.8150 H   0  0  0  0  0  0  0  0  0  0  0  0
    0.8668  -28.3393   17.9121 H   0  0  0  0  0  0  0  0  0  0  0  0
   -2.4327  -32.1746   16.7778 H   0  0  0  0  0  0  0  0  0  0  0  0
    2.2429  -29.9044   14.3615 H   0  0  0  0  0  0  0  0  0  0  0  0
  1 10  1  0
  2 12  1  0
  2 16  1  0
  3  6  1  0
  3 20  1  0
  3 21  2  0
  4  5  2  0
  5  6  1  0
  6 13  2  3
  7  8  1  0
  7 13  1  0
  8  9  2  0
  8 12  1  0
  9 10  1  0
  9 15  1  0
 10 14  2  0
 11 12  2  0
 11 14  1  0
 16 22  1  0
 22 17  1  6
 18 22  1  0
 19 22  2  0
  1 23  1  0
  1 24  1  0
  1 25  1  0
  2 26  1  0
  2 27  1  0
  4 28  1  0
  4 29  1  0
  5 30  1  0
  7 31  1  0
  7 32  1  0
 11 33  1  0
 15 34  1  0
M  CHG  3  17  -1  18  -1  20  -1
M  END
>  <filename_input>  (14) 
7KB1_WBJ_docked.sdf

>  <pdb_id>  (14) 
7KB1_WBJ

>  <pose_rank>  (14) 
13

>  <num_atoms_heavy>  (14) 
22

>  <num_torsions>  (14) 
7

>  <pose>  (14) 
[1.1366835301059948, -31.9773855680023, 13.971287301657805, -0.9442110035827085, 2.458676746166031, 1.2320048956624903, -5.610630890582855, 0.10092125794464363, -6.336908044049859, -5.323721461287582, 5.914223575781311, 4.02498166010839, -0.14199914106542208]

>  <energy>  (14) 
-670.7358538557523

>  <inter_energy>  (14) 
-700.9729817755451

>  <intra_energy>  (14) 
30.077973356470746

>  <rmsd>  (14) 
5.35173

>  <sdf_rank>  (14) 
0

$$$$

     RDKit          3D

 34 34  0  0  0  0  0  0  0  0999 V2000
   -4.4181  -25.3531   17.4647 C   0  0  0  0  0  0  0  0  0  0  0  0
   -4.6267  -31.1247   17.7139 C   0  0  0  0  0  0  0  0  0  0  0  0
    1.1493  -28.7875   15.6804 C   0  0  0  0  0  0  0  0  0  0  0  0
    0.4244  -32.0718   16.3987 C   0  0  0  0  0  0  0  0  0  0  0  0
   -0.1353  -31.1206   15.6811 C   0  0  0  0  0  0  0  0  0  0  0  0
   -0.0333  -29.6534   16.0968 C   0  0  0  0  0  0  0  0  0  0  0  0
   -2.0851  -29.8757   17.2210 C   0  0  0  0  0  0  0  0  0  0  0  0
   -3.3099  -28.9764   17.4033 C   0  0  0  0  0  0  0  0  0  0  0  0
   -3.2619  -27.5786   17.3455 C   0  0  0  0  0  0  0  0  0  0  0  0
   -4.4418  -26.8772   17.5237 C   0  0  0  0  0  0  0  0  0  0  0  0
   -5.6522  -28.8108   17.8020 C   0  0  0  0  0  0  0  0  0  0  0  0
   -4.5280  -29.5984   17.6363 C   0  0  0  0  0  0  0  0  0  0  0  0
   -0.9269  -29.1281   16.7814 N   0  0  0  0  0  0  0  0  0  0  0  0
   -5.5857  -27.4940   17.7440 N   0  0  0  0  0  0  0  0  0  0  0  0
   -2.0914  -26.8498   17.1164 O   0  0  0  0  0  0  0  0  0  0  0  0
   -5.9450  -31.4840   17.4009 O   0  0  0  0  0  0  0  0  0  0  0  0
   -6.7874  -30.9122   15.0318 O   0  0  0  0  0  0  0  0  0  0  0  0
   -5.0654  -32.6533   15.2783 O   0  0  0  0  0  0  0  0  0  0  0  0
   -7.3766  -33.1073   16.0236 O   0  0  0  0  0  0  0  0  0  0  0  0
    2.2750  -29.3096   15.4656 O   0  0  0  0  0  0  0  0  0  0  0  0
    0.9900  -27.5433   15.5670 O   0  0  0  0  0  0  0  0  0  0  0  0
   -6.3013  -32.0486   15.8958 P   0  0  1  0  0  0  0  0  0  0  0  0
   -4.4118  -24.9467   18.4868 H   0  0  0  0  0  0  0  0  0  0  0  0
   -3.5147  -25.0208   16.9324 H   0  0  0  0  0  0  0  0  0  0  0  0
   -5.3107  -24.9928   16.9324 H   0  0  0  0  0  0  0  0  0  0  0  0
   -3.9328  -31.5820   16.9932 H   0  0  0  0  0  0  0  0  0  0  0  0
   -4.3609  -31.4768   18.7216 H   0  0  0  0  0  0  0  0  0  0  0  0
    0.3393  -33.1218   16.0821 H   0  0  0  0  0  0  0  0  0  0  0  0
    0.9771  -31.8165   17.3148 H   0  0  0  0  0  0  0  0  0  0  0  0
   -0.6859  -31.3863   14.7666 H   0  0  0  0  0  0  0  0  0  0  0  0
   -1.8527  -30.3590   18.1815 H   0  0  0  0  0  0  0  0  0  0  0  0
   -2.3222  -30.6220   16.4485 H   0  0  0  0  0  0  0  0  0  0  0  0
   -6.6238  -29.2925   17.9863 H   0  0  0  0  0  0  0  0  0  0  0  0
   -2.1219  -25.8607   17.0867 H   0  0  0  0  0  0  0  0  0  0  0  0
  1 10  1  0
  2 12  1  0
  2 16  1  0
  3  6  1  0
  3 20  1  0
  3 21  2  0
  4  5  2  0
  5  6  1  0
  6 13  2  3
  7  8  1  0
  7 13  1  0
  8  9  2  0
  8 12  1  0
  9 10  1  0
  9 15  1  0
 10 14  2  0
 11 12  2  0
 11 14  1  0
 16 22  1  0
 22 17  1  6
 18 22  1  0
 19 22  2  0
  1 23  1  0
  1 24  1  0
  1 25  1  0
  2 26  1  0
  2 27  1  0
  4 28  1  0
  4 29  1  0
  5 30  1  0
  7 31  1  0
  7 32  1  0
 11 33  1  0
 15 34  1  0
M  CHG  3  17  -1  18  -1  20  -1
M  END
>  <filename_input>  (15) 
7KB1_WBJ_docked.sdf

>  <pdb_id>  (15) 
7KB1_WBJ

>  <pose_rank>  (15) 
14

>  <num_atoms_heavy>  (15) 
22

>  <num_torsions>  (15) 
7

>  <pose>  (15) 
[-4.418094223845558, -25.353113751515345, 17.46469563151997, 1.171752171527632, 0.22071823451889372, 2.8440585199306527, 1.948380295472096, -1.891092007638621, -2.68227881173588, -0.001114862806058341, 0.3426526178498438, 0.15753261702950824, 1.7854871642018293]

>  <energy>  (15) 
-451.0440269213887

>  <inter_energy>  (15) 
-475.7163977896222

>  <intra_energy>  (15) 
31.06936681158085

>  <rmsd>  (15) 
7.36488

>  <sdf_rank>  (15) 
0

$$$$

     RDKit          3D

 34 34  0  0  0  0  0  0  0  0999 V2000
   -3.9374  -31.3085   17.9896 C   0  0  0  0  0  0  0  0  0  0  0  0
   -3.6153  -26.2096   15.2850 C   0  0  0  0  0  0  0  0  0  0  0  0
    1.7119  -29.5606   14.4393 C   0  0  0  0  0  0  0  0  0  0  0  0
    2.7481  -27.8186   16.7345 C   0  0  0  0  0  0  0  0  0  0  0  0
    1.5881  -27.5447   16.1756 C   0  0  0  0  0  0  0  0  0  0  0  0
    0.9081  -28.5414   15.2375 C   0  0  0  0  0  0  0  0  0  0  0  0
   -1.1686  -27.6159   15.8321 C   0  0  0  0  0  0  0  0  0  0  0  0
   -2.4861  -28.2578   16.2728 C   0  0  0  0  0  0  0  0  0  0  0  0
   -2.5672  -29.4932   16.9260 C   0  0  0  0  0  0  0  0  0  0  0  0
   -3.8204  -29.9653   17.2761 C   0  0  0  0  0  0  0  0  0  0  0  0
   -4.8606  -28.1164   16.3925 C   0  0  0  0  0  0  0  0  0  0  0  0
   -3.6556  -27.5617   16.0032 C   0  0  0  0  0  0  0  0  0  0  0  0
   -0.3278  -28.5481   15.1127 N   0  0  0  0  0  0  0  0  0  0  0  0
   -4.9156  -29.2829   17.0074 N   0  0  0  0  0  0  0  0  0  0  0  0
   -1.4554  -30.2773   17.2468 O   0  0  0  0  0  0  0  0  0  0  0  0
   -4.9320  -25.7394   15.1855 O   0  0  0  0  0  0  0  0  0  0  0  0
   -6.2857  -26.8598   13.2983 O   0  0  0  0  0  0  0  0  0  0  0  0
   -6.6627  -24.4712   13.7563 O   0  0  0  0  0  0  0  0  0  0  0  0
   -4.5457  -25.1944   12.7085 O   0  0  0  0  0  0  0  0  0  0  0  0
    2.8178  -29.9786   14.8731 O   0  0  0  0  0  0  0  0  0  0  0  0
    1.2629  -29.9688   13.3356 O   0  0  0  0  0  0  0  0  0  0  0  0
   -5.6262  -25.5653   13.7026 P   0  0  1  0  0  0  0  0  0  0  0  0
   -3.9234  -31.1481   19.0778 H   0  0  0  0  0  0  0  0  0  0  0  0
   -4.8813  -31.7950   17.7028 H   0  0  0  0  0  0  0  0  0  0  0  0
   -3.0918  -31.9509   17.7028 H   0  0  0  0  0  0  0  0  0  0  0  0
   -3.0060  -25.4976   15.8611 H   0  0  0  0  0  0  0  0  0  0  0  0
   -3.1687  -26.3179   14.2856 H   0  0  0  0  0  0  0  0  0  0  0  0
    3.2209  -27.0875   17.4068 H   0  0  0  0  0  0  0  0  0  0  0  0
    3.2446  -28.7785   16.5292 H   0  0  0  0  0  0  0  0  0  0  0  0
    1.0999  -26.5820   16.3874 H   0  0  0  0  0  0  0  0  0  0  0  0
   -1.3914  -26.7601   15.1779 H   0  0  0  0  0  0  0  0  0  0  0  0
   -0.6273  -27.2952   16.7344 H   0  0  0  0  0  0  0  0  0  0  0  0
   -5.7945  -27.5734   16.1852 H   0  0  0  0  0  0  0  0  0  0  0  0
   -1.5777  -31.1436   17.7101 H   0  0  0  0  0  0  0  0  0  0  0  0
  1 10  1  0
  2 12  1  0
  2 16  1  0
  3  6  1  0
  3 20  1  0
  3 21  2  0
  4  5  2  0
  5  6  1  0
  6 13  2  3
  7  8  1  0
  7 13  1  0
  8  9  2  0
  8 12  1  0
  9 10  1  0
  9 15  1  0
 10 14  2  0
 11 12  2  0
 11 14  1  0
 16 22  1  0
 22 17  1  6
 18 22  1  0
 19 22  2  0
  1 23  1  0
  1 24  1  0
  1 25  1  0
  2 26  1  0
  2 27  1  0
  4 28  1  0
  4 29  1  0
  5 30  1  0
  7 31  1  0
  7 32  1  0
 11 33  1  0
 15 34  1  0
M  CHG  3  17  -1  18  -1  20  -1
M  END
>  <filename_input>  (16) 
7KB1_WBJ_docked.sdf

>  <pdb_id>  (16) 
7KB1_WBJ

>  <pose_rank>  (16) 
15

>  <num_atoms_heavy>  (16) 
22

>  <num_torsions>  (16) 
7

>  <pose>  (16) 
[-3.9373579382663886, -31.30845554069838, 17.989640130938014, 0.18253869819961072, -3.4846475057966364, 1.120811988126018, 1.55358258737829, 0.6163300888716978, 0.5177549338037749, 1.0036775843129924, 0.48389818322051675, 1.1373344679188326, -0.1948076051742494]

>  <energy>  (16) 
-220.28201576657838

>  <inter_energy>  (16) 
-240.569976300508

>  <intra_energy>  (16) 
26.666398427223477

>  <rmsd>  (16) 
6.03017

>  <sdf_rank>  (16) 
0

$$$$

     RDKit          3D

 34 34  0  0  0  0  0  0  0  0999 V2000
   -8.3584  -23.5234   14.3698 C   0  0  0  0  0  0  0  0  0  0  0  0
   -4.2117  -25.9460   17.5874 C   0  0  0  0  0  0  0  0  0  0  0  0
   -4.3122  -29.1014   19.4113 C   0  0  0  0  0  0  0  0  0  0  0  0
   -6.2849  -30.7003   16.8382 C   0  0  0  0  0  0  0  0  0  0  0  0
   -5.1478  -30.0829   17.0806 C   0  0  0  0  0  0  0  0  0  0  0  0
   -5.0678  -28.9446   18.0974 C   0  0  0  0  0  0  0  0  0  0  0  0
   -6.3525  -27.6168   16.6450 C   0  0  0  0  0  0  0  0  0  0  0  0
   -6.3724  -26.1338   16.2676 C   0  0  0  0  0  0  0  0  0  0  0  0
   -7.3741  -25.5450   15.4870 C   0  0  0  0  0  0  0  0  0  0  0  0
   -7.2798  -24.1906   15.2174 C   0  0  0  0  0  0  0  0  0  0  0  0
   -5.3261  -23.9991   16.4122 C   0  0  0  0  0  0  0  0  0  0  0  0
   -5.3325  -25.3433   16.7353 C   0  0  0  0  0  0  0  0  0  0  0  0
   -5.6143  -27.8532   17.8668 N   0  0  0  0  0  0  0  0  0  0  0  0
   -6.2803  -23.4631   15.6745 N   0  0  0  0  0  0  0  0  0  0  0  0
   -8.4654  -26.2454   14.9651 O   0  0  0  0  0  0  0  0  0  0  0  0
   -3.0022  -25.3745   17.1684 O   0  0  0  0  0  0  0  0  0  0  0  0
   -0.7528  -26.0354   18.2421 O   0  0  0  0  0  0  0  0  0  0  0  0
   -2.0448  -27.7657   17.0614 O   0  0  0  0  0  0  0  0  0  0  0  0
   -0.9369  -25.9748   15.7699 O   0  0  0  0  0  0  0  0  0  0  0  0
   -4.8392  -28.7359   20.4951 O   0  0  0  0  0  0  0  0  0  0  0  0
   -3.1507  -29.5880   19.3978 O   0  0  0  0  0  0  0  0  0  0  0  0
   -1.6514  -26.3099   17.0625 P   0  0  1  0  0  0  0  0  0  0  0  0
   -9.1077  -23.0598   15.0284 H   0  0  0  0  0  0  0  0  0  0  0  0
   -7.9001  -22.7508   13.7350 H   0  0  0  0  0  0  0  0  0  0  0  0
   -8.8451  -24.2784   13.7350 H   0  0  0  0  0  0  0  0  0  0  0  0
   -4.3852  -25.7185   18.6495 H   0  0  0  0  0  0  0  0  0  0  0  0
   -4.1826  -27.0390   17.4677 H   0  0  0  0  0  0  0  0  0  0  0  0
   -6.3212  -31.5172   16.1024 H   0  0  0  0  0  0  0  0  0  0  0  0
   -7.1987  -30.3993   17.3713 H   0  0  0  0  0  0  0  0  0  0  0  0
   -4.2396  -30.3915   16.5421 H   0  0  0  0  0  0  0  0  0  0  0  0
   -7.3877  -27.9626   16.7825 H   0  0  0  0  0  0  0  0  0  0  0  0
   -5.8545  -28.1682   15.8339 H   0  0  0  0  0  0  0  0  0  0  0  0
   -4.5074  -23.3620   16.7781 H   0  0  0  0  0  0  0  0  0  0  0  0
   -9.1422  -25.7720   14.4192 H   0  0  0  0  0  0  0  0  0  0  0  0
  1 10  1  0
  2 12  1  0
  2 16  1  0
  3  6  1  0
  3 20  1  0
  3 21  2  0
  4  5  2  0
  5  6  1  0
  6 13  2  3
  7  8  1  0
  7 13  1  0
  8  9  2  0
  8 12  1  0
  9 10  1  0
  9 15  1  0
 10 14  2  0
 11 12  2  0
 11 14  1  0
 16 22  1  0
 22 17  1  1
 18 22  1  0
 19 22  2  0
  1 23  1  0
  1 24  1  0
  1 25  1  0
  2 26  1  0
  2 27  1  0
  4 28  1  0
  4 29  1  0
  5 30  1  0
  7 31  1  0
  7 32  1  0
 11 33  1  0
 15 34  1  0
M  CHG  3  17  -1  18  -1  20  -1
M  END
>  <filename_input>  (17) 
7KB1_WBJ_docked.sdf

>  <pdb_id>  (17) 
7KB1_WBJ

>  <pose_rank>  (17) 
16

>  <num_atoms_heavy>  (17) 
22

>  <num_torsions>  (17) 
7

>  <pose>  (17) 
[-8.358408777357228, -23.52336490629437, 14.369842565536642, -3.38720334844636, -1.652626740194071, 0.40979018531629036, -5.461621539926727, 6.461867877168927, -2.8266557772991967, -8.828371334852902, 6.589935719166728, -1.6743358669812525, 2.21829866213151]

>  <energy>  (17) 
-228.02226601760975

>  <inter_energy>  (17) 
-323.81334665572524

>  <intra_energy>  (17) 
83.05076881063512

>  <rmsd>  (17) 
6.15303

>  <sdf_rank>  (17) 
0

$$$$

     RDKit          3D

 34 34  0  0  0  0  0  0  0  0999 V2000
   -9.0754  -23.1939   18.3584 C   0  0  0  0  0  0  0  0  0  0  0  0
   -5.8140  -24.7267   13.8384 C   0  0  0  0  0  0  0  0  0  0  0  0
   -5.2202  -29.0453   18.3944 C   0  0  0  0  0  0  0  0  0  0  0  0
   -2.3258  -28.1824   17.2657 C   0  0  0  0  0  0  0  0  0  0  0  0
   -3.2649  -27.3725   17.7071 C   0  0  0  0  0  0  0  0  0  0  0  0
   -4.7366  -27.7845   17.6885 C   0  0  0  0  0  0  0  0  0  0  0  0
   -5.2088  -25.8742   16.4036 C   0  0  0  0  0  0  0  0  0  0  0  0
   -6.3772  -24.8904   16.3086 C   0  0  0  0  0  0  0  0  0  0  0  0
   -7.1699  -24.5191   17.4009 C   0  0  0  0  0  0  0  0  0  0  0  0
   -8.1968  -23.6164   17.1852 C   0  0  0  0  0  0  0  0  0  0  0  0
   -7.6991  -23.4505   14.9477 C   0  0  0  0  0  0  0  0  0  0  0  0
   -6.6508  -24.3445   15.0627 C   0  0  0  0  0  0  0  0  0  0  0  0
   -5.5795  -27.0872   17.0999 N   0  0  0  0  0  0  0  0  0  0  0  0
   -8.4348  -23.1134   15.9903 N   0  0  0  0  0  0  0  0  0  0  0  0
   -6.9833  -25.0058   18.6979 O   0  0  0  0  0  0  0  0  0  0  0  0
   -6.6960  -24.9628   12.7748 O   0  0  0  0  0  0  0  0  0  0  0  0
   -7.0155  -22.9138   11.2422 O   0  0  0  0  0  0  0  0  0  0  0  0
   -4.9089  -24.1774   11.0908 O   0  0  0  0  0  0  0  0  0  0  0  0
   -6.9986  -25.1805   10.2366 O   0  0  0  0  0  0  0  0  0  0  0  0
   -5.9096  -28.9610   19.4449 O   0  0  0  0  0  0  0  0  0  0  0  0
   -4.9110  -30.1710   17.9217 O   0  0  0  0  0  0  0  0  0  0  0  0
   -6.3979  -24.2883   11.3027 P   0  0  1  0  0  0  0  0  0  0  0  0
   -8.5678  -23.4380   19.3032 H   0  0  0  0  0  0  0  0  0  0  0  0
   -9.2569  -22.1101   18.3089 H   0  0  0  0  0  0  0  0  0  0  0  0
  -10.0353  -23.7290   18.3089 H   0  0  0  0  0  0  0  0  0  0  0  0
   -5.1291  -23.9051   13.5816 H   0  0  0  0  0  0  0  0  0  0  0  0
   -5.2141  -25.6248   14.0474 H   0  0  0  0  0  0  0  0  0  0  0  0
   -1.2723  -27.8668   17.2877 H   0  0  0  0  0  0  0  0  0  0  0  0
   -2.5946  -29.1749   16.8747 H   0  0  0  0  0  0  0  0  0  0  0  0
   -2.9857  -26.3821   18.0961 H   0  0  0  0  0  0  0  0  0  0  0  0
   -4.8795  -26.1344   15.3868 H   0  0  0  0  0  0  0  0  0  0  0  0
   -4.4004  -25.3894   16.9705 H   0  0  0  0  0  0  0  0  0  0  0  0
   -7.9251  -23.0102   13.9653 H   0  0  0  0  0  0  0  0  0  0  0  0
   -7.5780  -24.7047   19.4299 H   0  0  0  0  0  0  0  0  0  0  0  0
  1 10  1  0
  2 12  1  0
  2 16  1  0
  3  6  1  0
  3 20  1  0
  3 21  2  0
  4  5  2  0
  5  6  1  0
  6 13  2  3
  7  8  1  0
  7 13  1  0
  8  9  2  0
  8 12  1  0
  9 10  1  0
  9 15  1  0
 10 14  2  0
 11 12  2  0
 11 14  1  0
 16 22  1  0
 22 17  1  1
 18 22  1  0
 19 22  2  0
  1 23  1  0
  1 24  1  0
  1 25  1  0
  2 26  1  0
  2 27  1  0
  4 28  1  0
  4 29  1  0
  5 30  1  0
  7 31  1  0
  7 32  1  0
 11 33  1  0
 15 34  1  0
M  CHG  3  17  -1  18  -1  20  -1
M  END
>  <filename_input>  (18) 
7KB1_WBJ_docked.sdf

>  <pdb_id>  (18) 
7KB1_WBJ

>  <pose_rank>  (18) 
17

>  <num_atoms_heavy>  (18) 
22

>  <num_torsions>  (18) 
7

>  <pose>  (18) 
[-9.075445005581264, -23.19390983962567, 18.358358146383836, -0.8974288291645823, -1.889805827419365, 2.6963628455328568, 0.7509603924367566, -1.3393877449074116, -2.5559640735029294, 1.0117559614161253, 0.29117385645461, 2.5444812649315165, 1.2648660746612503]

>  <energy>  (18) 
-384.0611033050296

>  <inter_energy>  (18) 
-375.56678651072986

>  <intra_energy>  (18) 
10.525645004721214

>  <rmsd>  (18) 
7.81584

>  <sdf_rank>  (18) 
0

$$$$

     RDKit          3D

 34 34  0  0  0  0  0  0  0  0999 V2000
    1.9934  -29.0784   13.5564 C   0  0  0  0  0  0  0  0  0  0  0  0
   -1.9974  -27.4909   17.4256 C   0  0  0  0  0  0  0  0  0  0  0  0
    1.5642  -22.6522   14.8565 C   0  0  0  0  0  0  0  0  0  0  0  0
    2.0943  -24.8695   17.9202 C   0  0  0  0  0  0  0  0  0  0  0  0
    1.9653  -23.7417   17.2536 C   0  0  0  0  0  0  0  0  0  0  0  0
    1.2276  -23.6945   15.9158 C   0  0  0  0  0  0  0  0  0  0  0  0
   -0.0483  -25.5438   16.6051 C   0  0  0  0  0  0  0  0  0  0  0  0
    0.0268  -26.9448   15.9937 C   0  0  0  0  0  0  0  0  0  0  0  0
    0.9908  -27.3313   15.0552 C   0  0  0  0  0  0  0  0  0  0  0  0
    0.9541  -28.6306   14.5793 C   0  0  0  0  0  0  0  0  0  0  0  0
   -0.8748  -29.1459   15.8718 C   0  0  0  0  0  0  0  0  0  0  0  0
   -0.9203  -27.8713   16.4055 C   0  0  0  0  0  0  0  0  0  0  0  0
    0.3359  -24.5199   15.6577 N   0  0  0  0  0  0  0  0  0  0  0  0
    0.0424  -29.4905   14.9877 N   0  0  0  0  0  0  0  0  0  0  0  0
    1.9897  -26.4815   14.5718 O   0  0  0  0  0  0  0  0  0  0  0  0
   -2.3051  -28.6381   18.1698 O   0  0  0  0  0  0  0  0  0  0  0  0
   -3.8858  -30.3870   17.1247 O   0  0  0  0  0  0  0  0  0  0  0  0
   -4.2073  -29.7754   19.4868 O   0  0  0  0  0  0  0  0  0  0  0  0
   -4.7829  -28.1521   17.7159 O   0  0  0  0  0  0  0  0  0  0  0  0
    0.7500  -21.7285   14.5923 O   0  0  0  0  0  0  0  0  0  0  0  0
    2.6595  -22.7342   14.2402 O   0  0  0  0  0  0  0  0  0  0  0  0
   -3.8301  -29.2570   18.1218 P   0  0  1  0  0  0  0  0  0  0  0  0
    2.8818  -29.4613   14.0799 H   0  0  0  0  0  0  0  0  0  0  0  0
    1.5684  -29.8733   12.9258 H   0  0  0  0  0  0  0  0  0  0  0  0
    2.2793  -28.2236   12.9258 H   0  0  0  0  0  0  0  0  0  0  0  0
   -1.6195  -26.7020   18.0926 H   0  0  0  0  0  0  0  0  0  0  0  0
   -2.8946  -27.1116   16.9145 H   0  0  0  0  0  0  0  0  0  0  0  0
    2.6290  -24.8821   18.8814 H   0  0  0  0  0  0  0  0  0  0  0  0
    1.6675  -25.7992   17.5160 H   0  0  0  0  0  0  0  0  0  0  0  0
    2.3958  -22.8175   17.6664 H   0  0  0  0  0  0  0  0  0  0  0  0
   -1.0807  -25.3544   16.9341 H   0  0  0  0  0  0  0  0  0  0  0  0
    0.6519  -25.5039   17.4525 H   0  0  0  0  0  0  0  0  0  0  0  0
   -1.6198  -29.8895   16.1914 H   0  0  0  0  0  0  0  0  0  0  0  0
    2.6439  -26.8142   13.9073 H   0  0  0  0  0  0  0  0  0  0  0  0
  1 10  1  0
  2 12  1  0
  2 16  1  0
  3  6  1  0
  3 20  1  0
  3 21  2  0
  4  5  2  0
  5  6  1  0
  6 13  2  3
  7  8  1  0
  7 13  1  0
  8  9  2  0
  8 12  1  0
  9 10  1  0
  9 15  1  0
 10 14  2  0
 11 12  2  0
 11 14  1  0
 16 22  1  0
 22 17  1  6
 18 22  1  0
 19 22  2  0
  1 23  1  0
  1 24  1  0
  1 25  1  0
  2 26  1  0
  2 27  1  0
  4 28  1  0
  4 29  1  0
  5 30  1  0
  7 31  1  0
  7 32  1  0
 11 33  1  0
 15 34  1  0
M  CHG  3  17  -1  18  -1  20  -1
M  END
>  <filename_input>  (19) 
7KB1_WBJ_docked.sdf

>  <pdb_id>  (19) 
7KB1_WBJ

>  <pose_rank>  (19) 
18

>  <num_atoms_heavy>  (19) 
22

>  <num_torsions>  (19) 
7

>  <pose>  (19) 
[1.9933577118787535, -29.078420548213437, 13.55639477284305, -22.345959715078695, 43.188819494074956, 21.64488308090602, -4.205910488383742, 0.5702597095916995, -5.608205708135612, -5.5202917469114725, 7.076920375324129, 5.008346050625388, -2.3875982971708996]

>  <energy>  (19) 
-215.3943193301386

>  <inter_energy>  (19) 
-288.83438572415645

>  <intra_energy>  (19) 
68.88324706829567

>  <rmsd>  (19) 
6.3148

>  <sdf_rank>  (19) 
0

$$$$

     RDKit          3D

 34 34  0  0  0  0  0  0  0  0999 V2000
   -7.3039  -27.3134   10.6975 C   0  0  0  0  0  0  0  0  0  0  0  0
   -5.3509  -22.1483   12.4077 C   0  0  0  0  0  0  0  0  0  0  0  0
   -3.9558  -26.0377   16.7274 C   0  0  0  0  0  0  0  0  0  0  0  0
   -6.8784  -26.6137   17.4310 C   0  0  0  0  0  0  0  0  0  0  0  0
   -6.5744  -25.5517   16.7150 C   0  0  0  0  0  0  0  0  0  0  0  0
   -5.1826  -25.3803   16.1073 C   0  0  0  0  0  0  0  0  0  0  0  0
   -6.1313  -24.0429   14.4238 C   0  0  0  0  0  0  0  0  0  0  0  0
   -6.2554  -24.4565   12.9556 C   0  0  0  0  0  0  0  0  0  0  0  0
   -6.7261  -25.7072   12.5387 C   0  0  0  0  0  0  0  0  0  0  0  0
   -6.7940  -25.9589   11.1793 C   0  0  0  0  0  0  0  0  0  0  0  0
   -5.9817  -23.8721   10.6629 C   0  0  0  0  0  0  0  0  0  0  0  0
   -5.8775  -23.5267   11.9976 C   0  0  0  0  0  0  0  0  0  0  0  0
   -5.0225  -24.7025   15.0787 N   0  0  0  0  0  0  0  0  0  0  0  0
   -6.4279  -25.0570   10.2905 N   0  0  0  0  0  0  0  0  0  0  0  0
   -7.1332  -26.7164   13.4159 O   0  0  0  0  0  0  0  0  0  0  0  0
   -5.3541  -21.3332   11.2673 O   0  0  0  0  0  0  0  0  0  0  0  0
   -7.4623  -19.9876   11.8953 O   0  0  0  0  0  0  0  0  0  0  0  0
   -5.2602  -18.9311   12.1986 O   0  0  0  0  0  0  0  0  0  0  0  0
   -6.1356  -19.2963    9.9176 O   0  0  0  0  0  0  0  0  0  0  0  0
   -2.8894  -26.1450   16.0660 O   0  0  0  0  0  0  0  0  0  0  0  0
   -4.0259  -26.4836   17.9032 O   0  0  0  0  0  0  0  0  0  0  0  0
   -6.0729  -19.8530   11.3246 P   0  0  1  0  0  0  0  0  0  0  0  0
   -7.5419  -27.9455   11.5658 H   0  0  0  0  0  0  0  0  0  0  0  0
   -8.2094  -27.1693   10.0897 H   0  0  0  0  0  0  0  0  0  0  0  0
   -6.5283  -27.8022   10.0897 H   0  0  0  0  0  0  0  0  0  0  0  0
   -6.0019  -21.7136   13.1805 H   0  0  0  0  0  0  0  0  0  0  0  0
   -4.3339  -22.2315   12.8184 H   0  0  0  0  0  0  0  0  0  0  0  0
   -7.8860  -26.7181   17.8597 H   0  0  0  0  0  0  0  0  0  0  0  0
   -6.1247  -27.3968   17.6005 H   0  0  0  0  0  0  0  0  0  0  0  0
   -7.3352  -24.7743   16.5514 H   0  0  0  0  0  0  0  0  0  0  0  0
   -5.9782  -22.9548   14.4750 H   0  0  0  0  0  0  0  0  0  0  0  0
   -7.0566  -24.3381   14.9403 H   0  0  0  0  0  0  0  0  0  0  0  0
   -5.6860  -23.1429    9.8942 H   0  0  0  0  0  0  0  0  0  0  0  0
   -7.4571  -27.5812   13.0593 H   0  0  0  0  0  0  0  0  0  0  0  0
  1 10  1  0
  2 12  1  0
  2 16  1  0
  3  6  1  0
  3 20  1  0
  3 21  2  0
  4  5  2  0
  5  6  1  0
  6 13  2  3
  7  8  1  0
  7 13  1  0
  8  9  2  0
  8 12  1  0
  9 10  1  0
  9 15  1  0
 10 14  2  0
 11 12  2  0
 11 14  1  0
 16 22  1  0
 22 17  1  1
 18 22  1  0
 19 22  2  0
  1 23  1  0
  1 24  1  0
  1 25  1  0
  2 26  1  0
  2 27  1  0
  4 28  1  0
  4 29  1  0
  5 30  1  0
  7 31  1  0
  7 32  1  0
 11 33  1  0
 15 34  1  0
M  CHG  3  17  -1  18  -1  20  -1
M  END
>  <filename_input>  (20) 
7KB1_WBJ_docked.sdf

>  <pdb_id>  (20) 
7KB1_WBJ

>  <pose_rank>  (20) 
19

>  <num_atoms_heavy>  (20) 
22

>  <num_torsions>  (20) 
7

>  <pose>  (20) 
[-7.303930220631116, -27.31341183745664, 10.697548238915694, -2.56287732082877, -4.331554011798252, 1.4142427345033644, 1.768138752507574, -1.408126190633105, -1.8998699655757252, 1.433537919484286, 0.8238089326547735, 3.5066243308301686, -0.1887083028605649]

>  <energy>  (20) 
-182.4000525253382

>  <inter_energy>  (20) 
-215.60883600425012

>  <intra_energy>  (20) 
15.657358100512937

>  <rmsd>  (20) 
7.97521

>  <sdf_rank>  (20) 
0

$$$$

     RDKit          3D

 34 34  0  0  0  0  0  0  0  0999 V2000
   -6.6670  -28.2390   18.0649 C   0  0  0  0  0  0  0  0  0  0  0  0
   -1.1510  -27.0147   16.8432 C   0  0  0  0  0  0  0  0  0  0  0  0
    1.3208  -29.6636   15.5834 C   0  0  0  0  0  0  0  0  0  0  0  0
    0.3200  -32.5817   15.9588 C   0  0  0  0  0  0  0  0  0  0  0  0
    0.0111  -31.6295   16.8137 C   0  0  0  0  0  0  0  0  0  0  0  0
    0.1618  -30.1547   16.4422 C   0  0  0  0  0  0  0  0  0  0  0  0
   -1.8031  -29.6964   17.6472 C   0  0  0  0  0  0  0  0  0  0  0  0
   -2.9353  -28.6700   17.5658 C   0  0  0  0  0  0  0  0  0  0  0  0
   -4.2721  -28.9642   17.8591 C   0  0  0  0  0  0  0  0  0  0  0  0
   -5.2034  -27.9459   17.7504 C   0  0  0  0  0  0  0  0  0  0  0  0
   -3.6020  -26.4314   17.1001 C   0  0  0  0  0  0  0  0  0  0  0  0
   -2.5997  -27.3804   17.1797 C   0  0  0  0  0  0  0  0  0  0  0  0
   -0.6717  -29.3185   16.8283 N   0  0  0  0  0  0  0  0  0  0  0  0
   -4.8567  -26.7292   17.3808 N   0  0  0  0  0  0  0  0  0  0  0  0
   -4.7209  -30.2267   18.2571 O   0  0  0  0  0  0  0  0  0  0  0  0
   -1.0979  -25.6300   16.6325 O   0  0  0  0  0  0  0  0  0  0  0  0
    0.0007  -24.4195   18.6268 O   0  0  0  0  0  0  0  0  0  0  0  0
    1.4498  -25.6004   17.0259 O   0  0  0  0  0  0  0  0  0  0  0  0
    0.3209  -23.5125   16.3412 O   0  0  0  0  0  0  0  0  0  0  0  0
    2.4425  -29.4268   16.1047 O   0  0  0  0  0  0  0  0  0  0  0  0
    1.1390  -29.4852   14.3500 O   0  0  0  0  0  0  0  0  0  0  0  0
    0.1987  -24.7715   17.1738 P   0  0  1  0  0  0  0  0  0  0  0  0
   -6.8091  -28.2674   19.1553 H   0  0  0  0  0  0  0  0  0  0  0  0
   -7.2999  -27.4497   17.6331 H   0  0  0  0  0  0  0  0  0  0  0  0
   -6.9473  -29.2110   17.6331 H   0  0  0  0  0  0  0  0  0  0  0  0
   -0.4912  -27.2920   17.6785 H   0  0  0  0  0  0  0  0  0  0  0  0
   -0.8169  -27.5538   15.9444 H   0  0  0  0  0  0  0  0  0  0  0  0
    0.2042  -33.6373   16.2459 H   0  0  0  0  0  0  0  0  0  0  0  0
    0.6939  -32.3218   14.9575 H   0  0  0  0  0  0  0  0  0  0  0  0
   -0.3620  -31.8999   17.8125 H   0  0  0  0  0  0  0  0  0  0  0  0
   -1.4729  -29.7793   18.6932 H   0  0  0  0  0  0  0  0  0  0  0  0
   -2.1871  -30.6577   17.2750 H   0  0  0  0  0  0  0  0  0  0  0  0
   -3.3479  -25.4052   16.7961 H   0  0  0  0  0  0  0  0  0  0  0  0
   -5.6808  -30.3724   18.4508 H   0  0  0  0  0  0  0  0  0  0  0  0
  1 10  1  0
  2 12  1  0
  2 16  1  0
  3  6  1  0
  3 20  1  0
  3 21  2  0
  4  5  2  0
  5  6  1  0
  6 13  2  3
  7  8  1  0
  7 13  1  0
  8  9  2  0
  8 12  1  0
  9 10  1  0
  9 15  1  0
 10 14  2  0
 11 12  2  0
 11 14  1  0
 16 22  1  0
 22 17  1  1
 18 22  1  0
 19 22  2  0
  1 23  1  0
  1 24  1  0
  1 25  1  0
  2 26  1  0
  2 27  1  0
  4 28  1  0
  4 29  1  0
  5 30  1  0
  7 31  1  0
  7 32  1  0
 11 33  1  0
 15 34  1  0
M  CHG  3  17  -1  18  -1  20  -1
M  END
>  <filename_input>  (21) 
7KB1_WBJ_docked.sdf

>  <pdb_id>  (21) 
7KB1_WBJ

>  <pose_rank>  (21) 
20

>  <num_atoms_heavy>  (21) 
22

>  <num_torsions>  (21) 
7

>  <pose>  (21) 
[-6.66697124243126, -28.23895253748443, 18.064907377002164, 1.4775736148328367, 2.041381464311067, -1.0223647625080667, 1.6377094297640422, -1.1875321638736505, -2.4899279174316042, 2.9027655395614484, 0.2177287230817141, -0.7920464430267093, -0.37709344618717855]

>  <energy>  (21) 
-713.0107960531597

>  <inter_energy>  (21) 
-774.0452562523147

>  <intra_energy>  (21) 
58.60744792225242

>  <rmsd>  (21) 
5.21618

>  <sdf_rank>  (21) 
0

$$$$

     RDKit          3D

 34 34  0  0  0  0  0  0  0  0999 V2000
   -6.7226  -26.4660   18.6306 C   0  0  0  0  0  0  0  0  0  0  0  0
   -7.5407  -23.2505   13.8968 C   0  0  0  0  0  0  0  0  0  0  0  0
  -10.3081  -26.8221   11.6812 C   0  0  0  0  0  0  0  0  0  0  0  0
   -7.4823  -26.5608    9.9707 C   0  0  0  0  0  0  0  0  0  0  0  0
   -7.9690  -25.7966   10.9257 C   0  0  0  0  0  0  0  0  0  0  0  0
   -8.8895  -26.3686   12.0034 C   0  0  0  0  0  0  0  0  0  0  0  0
   -7.1610  -26.0810   13.5693 C   0  0  0  0  0  0  0  0  0  0  0  0
   -7.1356  -25.5070   14.9878 C   0  0  0  0  0  0  0  0  0  0  0  0
   -6.9397  -26.2835   16.1359 C   0  0  0  0  0  0  0  0  0  0  0  0
   -6.9348  -25.6438   17.3634 C   0  0  0  0  0  0  0  0  0  0  0  0
   -7.2958  -23.5915   16.3942 C   0  0  0  0  0  0  0  0  0  0  0  0
   -7.3168  -24.1382   15.1245 C   0  0  0  0  0  0  0  0  0  0  0  0
   -8.4927  -26.4862   13.1746 N   0  0  0  0  0  0  0  0  0  0  0  0
   -7.1098  -24.3413   17.4643 N   0  0  0  0  0  0  0  0  0  0  0  0
   -6.7471  -27.6678   16.1145 O   0  0  0  0  0  0  0  0  0  0  0  0
   -6.2981  -22.7237   13.5182 O   0  0  0  0  0  0  0  0  0  0  0  0
   -7.2448  -22.4196   11.1390 O   0  0  0  0  0  0  0  0  0  0  0  0
   -5.1852  -21.2172   11.7468 O   0  0  0  0  0  0  0  0  0  0  0  0
   -5.1237  -23.6679   11.4420 O   0  0  0  0  0  0  0  0  0  0  0  0
  -10.5061  -27.7522   10.8555 O   0  0  0  0  0  0  0  0  0  0  0  0
  -11.2790  -26.2467   12.2403 O   0  0  0  0  0  0  0  0  0  0  0  0
   -5.9589  -22.4997   11.9227 P   0  0  1  0  0  0  0  0  0  0  0  0
   -6.8868  -25.8294   19.5125 H   0  0  0  0  0  0  0  0  0  0  0  0
   -7.4336  -27.3052   18.6465 H   0  0  0  0  0  0  0  0  0  0  0  0
   -5.6943  -26.8564   18.6465 H   0  0  0  0  0  0  0  0  0  0  0  0
   -7.9604  -23.8481   13.0742 H   0  0  0  0  0  0  0  0  0  0  0  0
   -8.2468  -22.4404   14.1314 H   0  0  0  0  0  0  0  0  0  0  0  0
   -6.8214  -26.1296    9.2044 H   0  0  0  0  0  0  0  0  0  0  0  0
   -7.7365  -27.6305    9.9389 H   0  0  0  0  0  0  0  0  0  0  0  0
   -7.7087  -24.7281   10.9485 H   0  0  0  0  0  0  0  0  0  0  0  0
   -6.8005  -25.3135   12.8687 H   0  0  0  0  0  0  0  0  0  0  0  0
   -6.5144  -26.9707   13.5502 H   0  0  0  0  0  0  0  0  0  0  0  0
   -7.4373  -22.5074   16.5153 H   0  0  0  0  0  0  0  0  0  0  0  0
   -6.6136  -28.1621   16.9619 H   0  0  0  0  0  0  0  0  0  0  0  0
  1 10  1  0
  2 12  1  0
  2 16  1  0
  3  6  1  0
  3 20  1  0
  3 21  2  0
  4  5  2  0
  5  6  1  0
  6 13  2  3
  7  8  1  0
  7 13  1  0
  8  9  2  0
  8 12  1  0
  9 10  1  0
  9 15  1  0
 10 14  2  0
 11 12  2  0
 11 14  1  0
 16 22  1  0
 22 17  1  6
 18 22  1  0
 19 22  2  0
  1 23  1  0
  1 24  1  0
  1 25  1  0
  2 26  1  0
  2 27  1  0
  4 28  1  0
  4 29  1  0
  5 30  1  0
  7 31  1  0
  7 32  1  0
 11 33  1  0
 15 34  1  0
M  CHG  3  17  -1  18  -1  20  -1
M  END
>  <filename_input>  (22) 
7KB1_WBJ_docked.sdf

>  <pdb_id>  (22) 
7KB1_WBJ

>  <pose_rank>  (22) 
21

>  <num_atoms_heavy>  (22) 
22

>  <num_torsions>  (22) 
7

>  <pose>  (22) 
[-6.722599318101652, -26.466017889566814, 18.630556599560514, 0.4564908330653459, 3.386355873661135, -2.129824253729655, 3.0106349728714275, -1.1302625385477818, -0.6489638606868674, -4.570881148335135, -0.7638762150002641, -4.567368889173025, -7.23006137152722]

>  <energy>  (22) 
-261.8148481561791

>  <inter_energy>  (22) 
-263.12490147143814

>  <intra_energy>  (22) 
5.343205737808048

>  <rmsd>  (22) 
8.62943

>  <sdf_rank>  (22) 
0

$$$$

     RDKit          3D

 34 34  0  0  0  0  0  0  0  0999 V2000
   -6.7565  -25.3844   16.6727 C   0  0  0  0  0  0  0  0  0  0  0  0
   -8.6093  -25.0577   11.2067 C   0  0  0  0  0  0  0  0  0  0  0  0
   -6.3163  -21.6923    9.4283 C   0  0  0  0  0  0  0  0  0  0  0  0
   -9.0215  -20.1204    9.7510 C   0  0  0  0  0  0  0  0  0  0  0  0
   -8.8168  -21.3152   10.2642 C   0  0  0  0  0  0  0  0  0  0  0  0
   -7.4016  -21.8479   10.4864 C   0  0  0  0  0  0  0  0  0  0  0  0
   -8.0685  -22.6069   12.6082 C   0  0  0  0  0  0  0  0  0  0  0  0
   -7.8502  -23.9277   13.3498 C   0  0  0  0  0  0  0  0  0  0  0  0
   -7.3997  -24.0098   14.6726 C   0  0  0  0  0  0  0  0  0  0  0  0
   -7.2452  -25.2662   15.2326 C   0  0  0  0  0  0  0  0  0  0  0  0
   -7.9350  -26.3075   13.3036 C   0  0  0  0  0  0  0  0  0  0  0  0
   -8.1206  -25.0994   12.6575 C   0  0  0  0  0  0  0  0  0  0  0  0
   -7.1010  -22.4158   11.5495 N   0  0  0  0  0  0  0  0  0  0  0  0
   -7.5092  -26.3634   14.5515 N   0  0  0  0  0  0  0  0  0  0  0  0
   -7.0984  -22.8961   15.4617 O   0  0  0  0  0  0  0  0  0  0  0  0
   -7.6235  -25.6518   10.4066 O   0  0  0  0  0  0  0  0  0  0  0  0
   -9.2987  -27.2062    9.2121 O   0  0  0  0  0  0  0  0  0  0  0  0
   -8.3142  -25.3418    7.9423 O   0  0  0  0  0  0  0  0  0  0  0  0
   -6.9084  -27.2782    8.5560 O   0  0  0  0  0  0  0  0  0  0  0  0
   -5.8539  -22.7043    8.8383 O   0  0  0  0  0  0  0  0  0  0  0  0
   -5.8789  -20.5417    9.1614 O   0  0  0  0  0  0  0  0  0  0  0  0
   -8.0508  -26.3872    8.9968 P   0  0  1  0  0  0  0  0  0  0  0  0
   -7.5907  -25.1827   17.3608 H   0  0  0  0  0  0  0  0  0  0  0  0
   -6.3743  -26.4009   16.8480 H   0  0  0  0  0  0  0  0  0  0  0  0
   -5.9520  -24.6549   16.8480 H   0  0  0  0  0  0  0  0  0  0  0  0
   -9.5532  -25.6149   11.1135 H   0  0  0  0  0  0  0  0  0  0  0  0
   -8.7876  -24.0194   10.8903 H   0  0  0  0  0  0  0  0  0  0  0  0
  -10.0481  -19.7556    9.5991 H   0  0  0  0  0  0  0  0  0  0  0  0
   -8.1661  -19.4869    9.4739 H   0  0  0  0  0  0  0  0  0  0  0  0
   -9.6791  -21.9410   10.5380 H   0  0  0  0  0  0  0  0  0  0  0  0
   -9.0781  -22.6070   12.1714 H   0  0  0  0  0  0  0  0  0  0  0  0
   -7.9491  -21.7865   13.3311 H   0  0  0  0  0  0  0  0  0  0  0  0
   -8.1470  -27.2432   12.7654 H   0  0  0  0  0  0  0  0  0  0  0  0
   -6.7834  -23.0193   16.3921 H   0  0  0  0  0  0  0  0  0  0  0  0
  1 10  1  0
  2 12  1  0
  2 16  1  0
  3  6  1  0
  3 20  1  0
  3 21  2  0
  4  5  2  0
  5  6  1  0
  6 13  2  3
  7  8  1  0
  7 13  1  0
  8  9  2  0
  8 12  1  0
  9 10  1  0
  9 15  1  0
 10 14  2  0
 11 12  2  0
 11 14  1  0
 16 22  1  0
 22 17  1  1
 18 22  1  0
 19 22  2  0
  1 23  1  0
  1 24  1  0
  1 25  1  0
  2 26  1  0
  2 27  1  0
  4 28  1  0
  4 29  1  0
  5 30  1  0
  7 31  1  0
  7 32  1  0
 11 33  1  0
 15 34  1  0
M  CHG  3  17  -1  18  -1  20  -1
M  END
>  <filename_input>  (23) 
7KB1_WBJ_docked.sdf

>  <pdb_id>  (23) 
7KB1_WBJ

>  <pose_rank>  (23) 
22

>  <num_atoms_heavy>  (23) 
22

>  <num_torsions>  (23) 
7

>  <pose>  (23) 
[-6.756456792792703, -25.384416906349173, 16.67272503323328, 3.4973935253511357, -2.307041767540377, 1.4522779524697316, 0.3991140424542083, -1.000667977540588, -1.772619529378537, 2.0919387548213413, -0.7635664009202869, -1.3240218012667548, -0.5006114548750165]

>  <energy>  (23) 
-199.1702871240667

>  <inter_energy>  (23) 
-213.73044310283026

>  <intra_energy>  (23) 
19.096378457460826

>  <rmsd>  (23) 
10.7463

>  <sdf_rank>  (23) 
0

$$$$

     RDKit          3D

 34 34  0  0  0  0  0  0  0  0999 V2000
   -6.8917  -24.9440   16.2358 C   0  0  0  0  0  0  0  0  0  0  0  0
   -8.6653  -25.1145   10.7365 C   0  0  0  0  0  0  0  0  0  0  0  0
   -6.1445  -19.6002   11.4107 C   0  0  0  0  0  0  0  0  0  0  0  0
   -5.9550  -21.0767    8.5053 C   0  0  0  0  0  0  0  0  0  0  0  0
   -5.4424  -21.4726    9.6513 C   0  0  0  0  0  0  0  0  0  0  0  0
   -6.0707  -21.0607   10.9823 C   0  0  0  0  0  0  0  0  0  0  0  0
   -6.5214  -23.3254   11.4192 C   0  0  0  0  0  0  0  0  0  0  0  0
   -7.1315  -24.1813   12.5316 C   0  0  0  0  0  0  0  0  0  0  0  0
   -6.7026  -24.1436   13.8636 C   0  0  0  0  0  0  0  0  0  0  0  0
   -7.3386  -24.9659   14.7775 C   0  0  0  0  0  0  0  0  0  0  0  0
   -8.7398  -25.8188   13.1680 C   0  0  0  0  0  0  0  0  0  0  0  0
   -8.1676  -25.0355   12.1828 C   0  0  0  0  0  0  0  0  0  0  0  0
   -6.5485  -21.9161   11.7459 N   0  0  0  0  0  0  0  0  0  0  0  0
   -8.3206  -25.7684   14.4184 N   0  0  0  0  0  0  0  0  0  0  0  0
   -5.6702  -23.3219   14.3248 O   0  0  0  0  0  0  0  0  0  0  0  0
   -8.3924  -26.4045   10.2608 O   0  0  0  0  0  0  0  0  0  0  0  0
   -8.8313  -27.2352    7.8593 O   0  0  0  0  0  0  0  0  0  0  0  0
   -7.3963  -25.2609    8.1761 O   0  0  0  0  0  0  0  0  0  0  0  0
   -6.5635  -27.4932    8.8286 O   0  0  0  0  0  0  0  0  0  0  0  0
   -7.1957  -18.9338   11.2189 O   0  0  0  0  0  0  0  0  0  0  0  0
   -5.1377  -19.0655   11.9460 O   0  0  0  0  0  0  0  0  0  0  0  0
   -7.7856  -26.6030    8.7431 P   0  0  1  0  0  0  0  0  0  0  0  0
   -7.7745  -24.9873   16.8906 H   0  0  0  0  0  0  0  0  0  0  0  0
   -6.2452  -25.8116   16.4342 H   0  0  0  0  0  0  0  0  0  0  0  0
   -6.3330  -24.0174   16.4342 H   0  0  0  0  0  0  0  0  0  0  0  0
   -9.7481  -24.9240   10.7022 H   0  0  0  0  0  0  0  0  0  0  0  0
   -8.1612  -24.3603   10.1144 H   0  0  0  0  0  0  0  0  0  0  0  0
   -5.4877  -21.3843    7.5582 H   0  0  0  0  0  0  0  0  0  0  0  0
   -6.8508  -20.4383    8.4947 H   0  0  0  0  0  0  0  0  0  0  0  0
   -4.5465  -22.1108    9.6511 H   0  0  0  0  0  0  0  0  0  0  0  0
   -5.4771  -23.6346   11.2649 H   0  0  0  0  0  0  0  0  0  0  0  0
   -7.1185  -23.4754   10.5077 H   0  0  0  0  0  0  0  0  0  0  0  0
   -9.5627  -26.4992   12.9037 H   0  0  0  0  0  0  0  0  0  0  0  0
   -5.4122  -23.3404   15.2805 H   0  0  0  0  0  0  0  0  0  0  0  0
  1 10  1  0
  2 12  1  0
  2 16  1  0
  3  6  1  0
  3 20  1  0
  3 21  2  0
  4  5  2  0
  5  6  1  0
  6 13  2  3
  7  8  1  0
  7 13  1  0
  8  9  2  0
  8 12  1  0
  9 10  1  0
  9 15  1  0
 10 14  2  0
 11 12  2  0
 11 14  1  0
 16 22  1  0
 22 17  1  6
 18 22  1  0
 19 22  2  0
  1 23  1  0
  1 24  1  0
  1 25  1  0
  2 26  1  0
  2 27  1  0
  4 28  1  0
  4 29  1  0
  5 30  1  0
  7 31  1  0
  7 32  1  0
 11 33  1  0
 15 34  1  0
M  CHG  3  17  -1  18  -1  20  -1
M  END
>  <filename_input>  (24) 
7KB1_WBJ_docked.sdf

>  <pdb_id>  (24) 
7KB1_WBJ

>  <pose_rank>  (24) 
23

>  <num_atoms_heavy>  (24) 
22

>  <num_torsions>  (24) 
7

>  <pose>  (24) 
[-6.891671471058335, -24.94402166680191, 16.235810579834066, -1.3636435656642403, 1.4435616433948, -1.333283791993217, 0.4003760792835891, 0.23609868622061644, 3.3349105324846273, -0.8067490690864794, -0.18421528661381742, 2.341071666783971, -0.8264961725635396]

>  <energy>  (24) 
-241.6016057783856

>  <inter_energy>  (24) 
-243.82784286884484

>  <intra_energy>  (24) 
5.832080784470139

>  <rmsd>  (24) 
10.7927

>  <sdf_rank>  (24) 
0

$$$$

     RDKit          3D

 34 34  0  0  0  0  0  0  0  0999 V2000
   -9.9240  -19.7721   11.8444 C   0  0  0  0  0  0  0  0  0  0  0  0
   -5.6361  -22.9668    9.6480 C   0  0  0  0  0  0  0  0  0  0  0  0
   -6.8217  -24.0624   15.9031 C   0  0  0  0  0  0  0  0  0  0  0  0
   -8.2326  -26.4979   14.8331 C   0  0  0  0  0  0  0  0  0  0  0  0
   -7.7964  -25.6088   13.9660 C   0  0  0  0  0  0  0  0  0  0  0  0
   -7.0479  -24.3579   14.4255 C   0  0  0  0  0  0  0  0  0  0  0  0
   -6.7636  -23.7546   12.1720 C   0  0  0  0  0  0  0  0  0  0  0  0
   -7.3312  -22.5119   11.4824 C   0  0  0  0  0  0  0  0  0  0  0  0
   -8.3708  -21.7377   12.0110 C   0  0  0  0  0  0  0  0  0  0  0  0
   -8.7934  -20.6336   11.2909 C   0  0  0  0  0  0  0  0  0  0  0  0
   -7.2621  -21.0255    9.6227 C   0  0  0  0  0  0  0  0  0  0  0  0
   -6.7710  -22.1458   10.2671 C   0  0  0  0  0  0  0  0  0  0  0  0
   -6.5950  -23.5530   13.5949 N   0  0  0  0  0  0  0  0  0  0  0  0
   -8.2433  -20.3088   10.1380 N   0  0  0  0  0  0  0  0  0  0  0  0
   -9.0060  -22.0139   13.2251 O   0  0  0  0  0  0  0  0  0  0  0  0
   -6.0261  -23.3239    8.3499 O   0  0  0  0  0  0  0  0  0  0  0  0
   -4.7866  -25.1673    7.0403 O   0  0  0  0  0  0  0  0  0  0  0  0
   -5.9442  -25.7818    9.1235 O   0  0  0  0  0  0  0  0  0  0  0  0
   -7.2649  -25.2025    7.1178 O   0  0  0  0  0  0  0  0  0  0  0  0
   -6.0198  -24.7626   16.5759 O   0  0  0  0  0  0  0  0  0  0  0  0
   -7.4559  -23.1188   16.4450 O   0  0  0  0  0  0  0  0  0  0  0  0
   -6.0003  -24.9066    7.8966 P   0  0  1  0  0  0  0  0  0  0  0  0
   -9.8965  -19.7930   12.9438 H   0  0  0  0  0  0  0  0  0  0  0  0
   -9.8011  -18.7366   11.4942 H   0  0  0  0  0  0  0  0  0  0  0  0
  -10.8898  -20.1653   11.4942 H   0  0  0  0  0  0  0  0  0  0  0  0
   -4.7160  -22.3650    9.6103 H   0  0  0  0  0  0  0  0  0  0  0  0
   -5.4376  -23.8650   10.2510 H   0  0  0  0  0  0  0  0  0  0  0  0
   -8.7692  -27.3916   14.4818 H   0  0  0  0  0  0  0  0  0  0  0  0
   -8.0605  -26.3473   15.9091 H   0  0  0  0  0  0  0  0  0  0  0  0
   -7.9736  -25.7687   12.8922 H   0  0  0  0  0  0  0  0  0  0  0  0
   -7.4532  -24.5965   12.0115 H   0  0  0  0  0  0  0  0  0  0  0  0
   -5.7747  -23.9634   11.7379 H   0  0  0  0  0  0  0  0  0  0  0  0
   -6.8253  -20.7247    8.6590 H   0  0  0  0  0  0  0  0  0  0  0  0
   -9.7364  -21.4278   13.5462 H   0  0  0  0  0  0  0  0  0  0  0  0
  1 10  1  0
  2 12  1  0
  2 16  1  0
  3  6  1  0
  3 20  1  0
  3 21  2  0
  4  5  2  0
  5  6  1  0
  6 13  2  3
  7  8  1  0
  7 13  1  0
  8  9  2  0
  8 12  1  0
  9 10  1  0
  9 15  1  0
 10 14  2  0
 11 12  2  0
 11 14  1  0
 16 22  1  0
 22 17  1  6
 18 22  1  0
 19 22  2  0
  1 23  1  0
  1 24  1  0
  1 25  1  0
  2 26  1  0
  2 27  1  0
  4 28  1  0
  4 29  1  0
  5 30  1  0
  7 31  1  0
  7 32  1  0
 11 33  1  0
 15 34  1  0
M  CHG  3  17  -1  18  -1  20  -1
M  END
>  <filename_input>  (25) 
7KB1_WBJ_docked.sdf

>  <pdb_id>  (25) 
7KB1_WBJ

>  <pose_rank>  (25) 
24

>  <num_atoms_heavy>  (25) 
22

>  <num_torsions>  (25) 
7

>  <pose>  (25) 
[-9.924036548427607, -19.772076112721255, 11.844360615819209, -1.8717342610177217, -1.412138412225348, 2.5373224255358107, -5.705246654703134, 0.4281900940267988, -2.815973833973265, -0.5887724115800153, -1.0460299326629938, 1.877850289874651, 0.2302990106128011]

>  <energy>  (25) 
-165.27043269911331

>  <inter_energy>  (25) 
-168.72239579506072

>  <intra_energy>  (25) 
16.9687772972944

>  <rmsd>  (25) 
10.5689

>  <sdf_rank>  (25) 
0

$$$$

     RDKit          3D

 34 34  0  0  0  0  0  0  0  0999 V2000
    0.5590  -32.5320   15.8310 C   0  0  0  0  0  0  0  0  0  0  0  0
    0.2600  -26.7910   15.2240 C   0  0  0  0  0  0  0  0  0  0  0  0
   -4.8990  -29.3230   18.4250 C   0  0  0  0  0  0  0  0  0  0  0  0
   -5.2880  -26.3740   17.8560 C   0  0  0  0  0  0  0  0  0  0  0  0
   -4.0850  -26.8890   17.7130 C   0  0  0  0  0  0  0  0  0  0  0  0
   -3.8530  -28.3960   17.8180 C   0  0  0  0  0  0  0  0  0  0  0  0
   -1.7530  -28.0980   16.8060 C   0  0  0  0  0  0  0  0  0  0  0  0
   -0.6600  -28.9600   16.1700 C   0  0  0  0  0  0  0  0  0  0  0  0
   -0.5840  -30.3500   16.3170 C   0  0  0  0  0  0  0  0  0  0  0  0
    0.4530  -31.0170   15.6880 C   0  0  0  0  0  0  0  0  0  0  0  0
    1.2980  -29.0650   14.8180 C   0  0  0  0  0  0  0  0  0  0  0  0
    0.3000  -28.3110   15.4070 C   0  0  0  0  0  0  0  0  0  0  0  0
   -2.8000  -28.9030   17.3970 N   0  0  0  0  0  0  0  0  0  0  0  0
    1.3520  -30.3750   14.9690 N   0  0  0  0  0  0  0  0  0  0  0  0
   -1.4960  -31.1040   17.0610 O   0  0  0  0  0  0  0  0  0  0  0  0
    1.0560  -26.2190   16.2260 O   0  0  0  0  0  0  0  0  0  0  0  0
   -0.7010  -24.7020   17.3490 O   0  0  0  0  0  0  0  0  0  0  0  0
    1.6750  -24.3400   17.8790 O   0  0  0  0  0  0  0  0  0  0  0  0
    0.8160  -23.7320   15.6440 O   0  0  0  0  0  0  0  0  0  0  0  0
   -5.5840  -28.9480   19.4130 O   0  0  0  0  0  0  0  0  0  0  0  0
   -5.0600  -30.4720   17.9350 O   0  0  0  0  0  0  0  0  0  0  0  0
    0.7000  -24.7140   16.7910 P   0  0  1  0  0  0  0  0  0  0  0  0
    0.5777  -32.7992   16.8979 H   0  0  0  0  0  0  0  0  0  0  0  0
   -0.3081  -33.0073   15.3491 H   0  0  0  0  0  0  0  0  0  0  0  0
    1.4838  -32.8820   15.3491 H   0  0  0  0  0  0  0  0  0  0  0  0
    0.6551  -26.5226   14.2331 H   0  0  0  0  0  0  0  0  0  0  0  0
   -0.7737  -26.4218   15.2961 H   0  0  0  0  0  0  0  0  0  0  0  0
   -5.4337  -25.2866   17.7768 H   0  0  0  0  0  0  0  0  0  0  0  0
   -6.1475  -27.0311   18.0547 H   0  0  0  0  0  0  0  0  0  0  0  0
   -3.2321  -26.2233   17.5145 H   0  0  0  0  0  0  0  0  0  0  0  0
   -1.3011  -27.4717   17.5893 H   0  0  0  0  0  0  0  0  0  0  0  0
   -2.2034  -27.4805   16.0149 H   0  0  0  0  0  0  0  0  0  0  0  0
    2.0642  -28.5618   14.2099 H   0  0  0  0  0  0  0  0  0  0  0  0
   -1.3887  -32.0859   17.1275 H   0  0  0  0  0  0  0  0  0  0  0  0
  1 10  1  0
  2 12  1  0
  2 16  1  0
  3  6  1  0
  3 20  1  0
  3 21  2  0
  4  5  2  0
  5  6  1  0
  6 13  2  3
  7  8  1  0
  7 13  1  0
  8  9  2  0
  8 12  1  0
  9 10  1  0
  9 15  1  0
 10 14  2  0
 11 12  2  0
 11 14  1  0
 16 22  1  0
 22 17  1  1
 18 22  1  0
 19 22  2  0
  1 23  1  0
  1 24  1  0
  1 25  1  0
  2 26  1  0
  2 27  1  0
  4 28  1  0
  4 29  1  0
  5 30  1  0
  7 31  1  0
  7 32  1  0
 11 33  1  0
 15 34  1  0
M  CHG  3  17  -1  18  -1  20  -1
M  END
>  <filename_input>  (26) 
7KB1_WBJ_docked.sdf

>  <pdb_id>  (26) 
7KB1_WBJ

>  <pose_rank>  (26) 
25

>  <num_atoms_heavy>  (26) 
22

>  <num_torsions>  (26) 
7

>  <pose>  (26) 
[0.559, -32.532, 15.831, 1e-06, 1e-06, 1e-06, 0.0, 0.0, 0.0, 0.0, 0.0, 0.0, 0.0]

>  <energy>  (26) 
-1043.2613598302817

>  <inter_energy>  (26) 
-1068.5623529497034

>  <intra_energy>  (26) 
36.251018570209155

>  <rmsd>  (26) 
0.0

>  <sdf_rank>  (26) 
0

$$$$
