
     RDKit          3D

 55 59  0  0  0  0  0  0  0  0999 V2000
   -7.7818  -22.4433   14.9222 C   0  0  0  0  0  0  0  0  0  0  0  0
   -6.4987  -22.1503   15.3184 C   0  0  0  0  0  0  0  0  0  0  0  0
   -6.2224  -20.8512   15.7524 C   0  0  0  0  0  0  0  0  0  0  0  0
   -7.2247  -19.9066   15.8399 C   0  0  0  0  0  0  0  0  0  0  0  0
   -8.4996  -20.2601   15.4412 C   0  0  0  0  0  0  0  0  0  0  0  0
   -8.7935  -21.5398   15.0094 C   0  0  0  0  0  0  0  0  0  0  0  0
   -9.8215  -19.0961   15.5129 Cl  0  0  0  0  0  0  0  0  0  0  0  0
   -4.9126  -20.4387   16.2387 N   0  0  0  0  0  0  0  0  0  0  0  0
   -4.2413  -21.1778   17.3256 C   0  0  0  0  0  0  0  0  0  0  0  0
   -3.0111  -20.4345   17.6066 N   0  0  0  0  0  0  0  0  0  0  0  0
   -2.9717  -19.2102   16.7968 C   0  0  2  0  0  0  0  0  0  0  0  0
   -4.1702  -19.2776   15.8521 C   0  0  0  0  0  0  0  0  0  0  0  0
   -4.5536  -18.5729   15.0056 O   0  0  0  0  0  0  0  0  0  0  0  0
   -1.5119  -19.0314   16.0434 C   0  0  0  0  0  0  0  0  0  0  0  0
   -1.4755  -17.6852   15.9242 N   0  0  0  0  0  0  0  0  0  0  0  0
   -2.5155  -16.8602   16.7760 C   0  0  0  0  0  0  0  0  0  0  0  0
   -3.0681  -18.1047   17.6284 C   0  0  1  0  0  0  0  0  0  0  0  0
   -4.5391  -17.7981   18.1428 C   0  0  0  0  0  0  0  0  0  0  0  0
   -4.9881  -18.5084   19.2355 C   0  0  0  0  0  0  0  0  0  0  0  0
   -6.2819  -18.2973   19.7049 C   0  0  0  0  0  0  0  0  0  0  0  0
   -7.1161  -17.3747   19.1009 C   0  0  0  0  0  0  0  0  0  0  0  0
   -6.6545  -16.6391   18.0036 C   0  0  0  0  0  0  0  0  0  0  0  0
   -5.3645  -16.8639   17.5551 C   0  0  0  0  0  0  0  0  0  0  0  0
   -8.5214  -17.1763   19.6730 C   0  0  0  0  0  0  0  0  0  0  0  0
   -9.5391  -17.0440   20.0832 N   0  0  0  0  0  0  0  0  0  0  0  0
   -0.2356  -17.1023   15.4600 C   0  0  0  0  0  0  0  0  0  0  0  0
    0.6254  -17.9517   14.9159 N   0  0  0  0  0  0  0  0  0  0  0  0
    1.7921  -17.4560   14.4449 C   0  0  0  0  0  0  0  0  0  0  0  0
    2.0514  -16.1175   14.5489 C   0  0  0  0  0  0  0  0  0  0  0  0
    1.1523  -15.2423   15.0795 C   0  0  0  0  0  0  0  0  0  0  0  0
   -0.0159  -15.7261   15.5487 C   0  0  0  0  0  0  0  0  0  0  0  0
    3.3670  -15.5863   13.9892 C   0  0  0  0  0  0  0  0  0  0  0  0
    3.9289  -16.2469   13.0919 O   0  0  0  0  0  0  0  0  0  0  0  0
    3.8659  -14.5383   14.4649 O   0  0  0  0  0  0  0  0  0  0  0  0
   -2.0828  -20.8353   18.6362 C   0  0  0  0  0  0  0  0  0  0  0  0
   -4.6562  -22.1699   17.8207 O   0  0  0  0  0  0  0  0  0  0  0  0
   -8.0963  -24.0533   14.3444 Cl  0  0  0  0  0  0  0  0  0  0  0  0
   -5.7108  -22.9176   15.2944 H   0  0  0  0  0  0  0  0  0  0  0  0
   -7.0135  -18.8956   16.2184 H   0  0  0  0  0  0  0  0  0  0  0  0
   -9.8230  -21.8207   14.7424 H   0  0  0  0  0  0  0  0  0  0  0  0
   -0.6841  -19.4095   16.6613 H   0  0  0  0  0  0  0  0  0  0  0  0
   -1.4063  -19.5843   15.0984 H   0  0  0  0  0  0  0  0  0  0  0  0
   -2.0368  -16.0948   17.4045 H   0  0  0  0  0  0  0  0  0  0  0  0
   -3.2566  -16.2660   16.2212 H   0  0  0  0  0  0  0  0  0  0  0  0
   -2.4870  -18.2979   18.5422 H   0  0  0  0  0  0  0  0  0  0  0  0
   -4.3297  -19.2360   19.7326 H   0  0  0  0  0  0  0  0  0  0  0  0
   -6.6457  -18.8729   20.5687 H   0  0  0  0  0  0  0  0  0  0  0  0
   -7.3017  -15.8997   17.5091 H   0  0  0  0  0  0  0  0  0  0  0  0
   -4.9865  -16.2791   16.7036 H   0  0  0  0  0  0  0  0  0  0  0  0
    2.5296  -18.1268   13.9801 H   0  0  0  0  0  0  0  0  0  0  0  0
    1.3740  -14.1658   15.1242 H   0  0  0  0  0  0  0  0  0  0  0  0
   -0.7716  -15.0579   15.9874 H   0  0  0  0  0  0  0  0  0  0  0  0
   -2.5263  -20.6438   19.6245 H   0  0  0  0  0  0  0  0  0  0  0  0
   -1.8634  -21.9084   18.5345 H   0  0  0  0  0  0  0  0  0  0  0  0
   -1.1512  -20.2593   18.5345 H   0  0  0  0  0  0  0  0  0  0  0  0
  1  2  2  0
  1  6  1  0
  1 37  1  0
  2  3  1  0
  3  4  2  0
  3  8  1  0
  4  5  1  0
  5  6  2  0
  5  7  1  0
  8  9  1  0
  8 12  1  0
  9 10  1  0
  9 36  2  0
 11 10  1  1
 10 35  1  0
 11 12  1  0
 11 14  1  0
 11 17  1  0
 12 13  2  0
 14 15  1  0
 15 16  1  0
 15 26  1  0
 16 17  1  0
 17 18  1  0
 18 19  2  0
 18 23  1  0
 19 20  1  0
 20 21  2  0
 21 22  1  0
 21 24  1  0
 22 23  2  0
 24 25  3  0
 26 27  2  0
 26 31  1  0
 27 28  1  0
 28 29  2  0
 29 30  1  0
 29 32  1  0
 30 31  2  0
 32 33  2  0
 32 34  1  0
  2 38  1  0
  4 39  1  0
  6 40  1  0
 14 41  1  0
 14 42  1  0
 16 43  1  0
 16 44  1  0
 17 45  1  1
 19 46  1  0
 20 47  1  0
 22 48  1  0
 23 49  1  0
 28 50  1  0
 30 51  1  0
 31 52  1  0
 35 53  1  0
 35 54  1  0
 35 55  1  0
M  CHG  1  34  -1
M  END
>  <filename_input>  (1) 
7KC5_BJZ_docked.sdf

>  <pdb_id>  (1) 
7KC5_BJZ

>  <pose_rank>  (1) 
0

>  <num_atoms_heavy>  (1) 
37

>  <num_torsions>  (1) 
4

>  <pose>  (1) 
[-4.912631429790456, -20.438665036307125, 16.238700024909985, 5.4312491800069855, -0.7892176359449213, -2.903246800867218, 6.133233586251488, 6.122685419981453, 0.8404996184680078, -2.6517228713286953]

>  <energy>  (1) 
-904.3355943964127

>  <inter_energy>  (1) 
-940.9367316486863

>  <intra_energy>  (1) 
46.73716243070619

>  <rmsd>  (1) 
0.903108

>  <sdf_rank>  (1) 
0

$$$$

     RDKit          3D

 55 59  0  0  0  0  0  0  0  0999 V2000
   -7.6426  -22.3317   14.9910 C   0  0  0  0  0  0  0  0  0  0  0  0
   -6.3669  -22.0229   15.3993 C   0  0  0  0  0  0  0  0  0  0  0  0
   -6.1101  -20.7196   15.8329 C   0  0  0  0  0  0  0  0  0  0  0  0
   -7.1241  -19.7866   15.9082 C   0  0  0  0  0  0  0  0  0  0  0  0
   -8.3908  -20.1558   15.4976 C   0  0  0  0  0  0  0  0  0  0  0  0
   -8.6655  -21.4398   15.0660 C   0  0  0  0  0  0  0  0  0  0  0  0
   -9.7268  -19.0071   15.5533 Cl  0  0  0  0  0  0  0  0  0  0  0  0
   -4.8102  -20.2908   16.3313 N   0  0  0  0  0  0  0  0  0  0  0  0
   -4.1014  -21.0694   17.3656 C   0  0  0  0  0  0  0  0  0  0  0  0
   -2.8947  -20.3011   17.6796 N   0  0  0  0  0  0  0  0  0  0  0  0
   -2.9071  -19.0299   16.9447 C   0  0  2  0  0  0  0  0  0  0  0  0
   -4.1130  -19.0830   16.0086 C   0  0  0  0  0  0  0  0  0  0  0  0
   -4.5302  -18.3430   15.2096 O   0  0  0  0  0  0  0  0  0  0  0  0
   -1.4629  -18.7547   16.1903 C   0  0  0  0  0  0  0  0  0  0  0  0
   -1.4748  -17.4033   16.1521 N   0  0  0  0  0  0  0  0  0  0  0  0
   -2.5333  -16.6682   17.0614 C   0  0  0  0  0  0  0  0  0  0  0  0
   -3.0326  -17.9803   17.8423 C   0  0  1  0  0  0  0  0  0  0  0  0
   -4.5076  -17.7574   18.3875 C   0  0  0  0  0  0  0  0  0  0  0  0
   -5.2130  -16.6856   17.8836 C   0  0  0  0  0  0  0  0  0  0  0  0
   -6.4988  -16.4305   18.3532 C   0  0  0  0  0  0  0  0  0  0  0  0
   -7.0833  -17.2455   19.3050 C   0  0  0  0  0  0  0  0  0  0  0  0
   -6.3754  -18.3451   19.8030 C   0  0  0  0  0  0  0  0  0  0  0  0
   -5.0996  -18.5808   19.3206 C   0  0  0  0  0  0  0  0  0  0  0  0
   -8.5051  -16.9225   19.7693 C   0  0  0  0  0  0  0  0  0  0  0  0
   -9.5333  -16.7001   20.1086 N   0  0  0  0  0  0  0  0  0  0  0  0
   -0.2612  -16.7500   15.7125 C   0  0  0  0  0  0  0  0  0  0  0  0
    0.6227  -17.5343   15.1105 N   0  0  0  0  0  0  0  0  0  0  0  0
    1.7661  -16.9702   14.6597 C   0  0  0  0  0  0  0  0  0  0  0  0
    1.9797  -15.6320   14.8417 C   0  0  0  0  0  0  0  0  0  0  0  0
    1.0566  -14.8225   15.4322 C   0  0  0  0  0  0  0  0  0  0  0  0
   -0.0886  -15.3747   15.8820 C   0  0  0  0  0  0  0  0  0  0  0  0
    3.2697  -15.0219   14.3031 C   0  0  0  0  0  0  0  0  0  0  0  0
    3.6496  -13.9369   14.7886 O   0  0  0  0  0  0  0  0  0  0  0  0
    3.8853  -15.5938   13.3717 O   0  0  0  0  0  0  0  0  0  0  0  0
   -1.9416  -20.7297   18.6748 C   0  0  0  0  0  0  0  0  0  0  0  0
   -4.4759  -22.1035   17.8037 O   0  0  0  0  0  0  0  0  0  0  0  0
   -7.9325  -23.9465   14.4139 Cl  0  0  0  0  0  0  0  0  0  0  0  0
   -5.5700  -22.7809   15.3850 H   0  0  0  0  0  0  0  0  0  0  0  0
   -6.9285  -18.7723   16.2864 H   0  0  0  0  0  0  0  0  0  0  0  0
   -9.6889  -21.7332   14.7894 H   0  0  0  0  0  0  0  0  0  0  0  0
   -0.6156  -19.1395   16.7767 H   0  0  0  0  0  0  0  0  0  0  0  0
   -1.3486  -19.2459   15.2127 H   0  0  0  0  0  0  0  0  0  0  0  0
   -2.0746  -15.9253   17.7304 H   0  0  0  0  0  0  0  0  0  0  0  0
   -3.3008  -16.0685   16.5501 H   0  0  0  0  0  0  0  0  0  0  0  0
   -2.4350  -18.2072   18.7375 H   0  0  0  0  0  0  0  0  0  0  0  0
   -4.7639  -16.0373   17.1169 H   0  0  0  0  0  0  0  0  0  0  0  0
   -7.0577  -15.5679   17.9613 H   0  0  0  0  0  0  0  0  0  0  0  0
   -6.8223  -19.0065   20.5599 H   0  0  0  0  0  0  0  0  0  0  0  0
   -4.5411  -19.4521   19.6935 H   0  0  0  0  0  0  0  0  0  0  0  0
    2.5213  -17.5855   14.1487 H   0  0  0  0  0  0  0  0  0  0  0  0
    1.2412  -13.7435   15.5397 H   0  0  0  0  0  0  0  0  0  0  0  0
   -0.8622  -14.7612   16.3670 H   0  0  0  0  0  0  0  0  0  0  0  0
   -2.3517  -20.5453   19.6787 H   0  0  0  0  0  0  0  0  0  0  0  0
   -1.7417  -21.8044   18.5521 H   0  0  0  0  0  0  0  0  0  0  0  0
   -1.0049  -20.1662   18.5521 H   0  0  0  0  0  0  0  0  0  0  0  0
  1  2  2  0
  1  6  1  0
  1 37  1  0
  2  3  1  0
  3  4  2  0
  3  8  1  0
  4  5  1  0
  5  6  2  0
  5  7  1  0
  8  9  1  0
  8 12  1  0
  9 10  1  0
  9 36  2  0
 11 10  1  1
 10 35  1  0
 11 12  1  0
 11 14  1  0
 11 17  1  0
 12 13  2  0
 14 15  1  0
 15 16  1  0
 15 26  1  0
 16 17  1  0
 17 18  1  0
 18 19  2  0
 18 23  1  0
 19 20  1  0
 20 21  2  0
 21 22  1  0
 21 24  1  0
 22 23  2  0
 24 25  3  0
 26 27  2  0
 26 31  1  0
 27 28  1  0
 28 29  2  0
 29 30  1  0
 29 32  1  0
 30 31  2  0
 32 33  2  0
 32 34  1  0
  2 38  1  0
  4 39  1  0
  6 40  1  0
 14 41  1  0
 14 42  1  0
 16 43  1  0
 16 44  1  0
 17 45  1  1
 19 46  1  0
 20 47  1  0
 22 48  1  0
 23 49  1  0
 28 50  1  0
 30 51  1  0
 31 52  1  0
 35 53  1  0
 35 54  1  0
 35 55  1  0
M  CHG  1  34  -1
M  END
>  <filename_input>  (2) 
7KC5_BJZ_docked.sdf

>  <pdb_id>  (2) 
7KC5_BJZ

>  <pose_rank>  (2) 
1

>  <num_atoms_heavy>  (2) 
37

>  <num_torsions>  (2) 
4

>  <pose>  (2) 
[-4.810158613444976, -20.290791417244186, 16.331291080739334, 0.41723904217183383, -1.4831621077223591, -6.016265330704986, 6.202917087285045, -3.43674601597715, -1.5092866806837988, -5.850445192220502]

>  <energy>  (2) 
-867.2086600054325

>  <inter_energy>  (2) 
-921.3784191479295

>  <intra_energy>  (2) 
49.58656580010039

>  <rmsd>  (2) 
0.763618

>  <sdf_rank>  (2) 
0

$$$$

     RDKit          3D

 55 59  0  0  0  0  0  0  0  0999 V2000
   -8.8139  -19.7425   15.3176 C   0  0  0  0  0  0  0  0  0  0  0  0
   -7.5985  -19.3488   15.8248 C   0  0  0  0  0  0  0  0  0  0  0  0
   -6.5820  -20.3030   15.9180 C   0  0  0  0  0  0  0  0  0  0  0  0
   -6.7743  -21.5888   15.4552 C   0  0  0  0  0  0  0  0  0  0  0  0
   -8.0123  -21.9259   14.9423 C   0  0  0  0  0  0  0  0  0  0  0  0
   -9.0305  -20.9968   14.8409 C   0  0  0  0  0  0  0  0  0  0  0  0
   -8.3285  -23.5555   14.3490 Cl  0  0  0  0  0  0  0  0  0  0  0  0
   -5.2416  -19.9905   16.3953 N   0  0  0  0  0  0  0  0  0  0  0  0
   -4.5955  -20.8172   17.4333 C   0  0  0  0  0  0  0  0  0  0  0  0
   -3.3187  -20.1606   17.7222 N   0  0  0  0  0  0  0  0  0  0  0  0
   -3.2219  -18.9042   16.9684 C   0  0  2  0  0  0  0  0  0  0  0  0
   -4.4391  -18.8576   16.0467 C   0  0  0  0  0  0  0  0  0  0  0  0
   -4.7955  -18.0932   15.2413 O   0  0  0  0  0  0  0  0  0  0  0  0
   -1.7679  -18.7755   16.1938 C   0  0  0  0  0  0  0  0  0  0  0  0
   -1.6543  -17.4296   16.1353 N   0  0  0  0  0  0  0  0  0  0  0  0
   -2.6283  -16.5863   17.0452 C   0  0  0  0  0  0  0  0  0  0  0  0
   -3.2378  -17.8350   17.8513 C   0  0  1  0  0  0  0  0  0  0  0  0
   -4.6787  -17.4678   18.4096 C   0  0  0  0  0  0  0  0  0  0  0  0
   -5.1493  -18.2015   19.4774 C   0  0  0  0  0  0  0  0  0  0  0  0
   -6.4197  -17.9378   19.9826 C   0  0  0  0  0  0  0  0  0  0  0  0
   -7.2085  -16.9406   19.4392 C   0  0  0  0  0  0  0  0  0  0  0  0
   -6.7239  -16.1822   18.3677 C   0  0  0  0  0  0  0  0  0  0  0  0
   -5.4577  -16.4604   17.8827 C   0  0  0  0  0  0  0  0  0  0  0  0
   -8.5891  -16.6880   20.0487 C   0  0  0  0  0  0  0  0  0  0  0  0
   -9.5819  -16.4966   20.4953 N   0  0  0  0  0  0  0  0  0  0  0  0
   -0.3908  -16.8987   15.6724 C   0  0  0  0  0  0  0  0  0  0  0  0
    0.4087  -17.7703   15.0725 N   0  0  0  0  0  0  0  0  0  0  0  0
    1.5939  -17.3218   14.6005 C   0  0  0  0  0  0  0  0  0  0  0  0
    1.9335  -16.0070   14.7599 C   0  0  0  0  0  0  0  0  0  0  0  0
    1.0973  -15.1067   15.3484 C   0  0  0  0  0  0  0  0  0  0  0  0
   -0.0887  -15.5432   15.8192 C   0  0  0  0  0  0  0  0  0  0  0  0
    3.2679  -15.5275   14.1977 C   0  0  0  0  0  0  0  0  0  0  0  0
    3.7707  -14.4957   14.6874 O   0  0  0  0  0  0  0  0  0  0  0  0
    3.7985  -16.1468   13.2446 O   0  0  0  0  0  0  0  0  0  0  0  0
   -2.3973  -20.6623   18.7130 C   0  0  0  0  0  0  0  0  0  0  0  0
   -5.0592  -21.8056   17.8912 O   0  0  0  0  0  0  0  0  0  0  0  0
  -10.0797  -18.5518   15.2497 Cl  0  0  0  0  0  0  0  0  0  0  0  0
   -7.4307  -18.3110   16.1485 H   0  0  0  0  0  0  0  0  0  0  0  0
   -5.9608  -22.3282   15.4936 H   0  0  0  0  0  0  0  0  0  0  0  0
   -9.9945  -21.2664   14.3848 H   0  0  0  0  0  0  0  0  0  0  0  0
   -0.9528  -19.2295   16.7765 H   0  0  0  0  0  0  0  0  0  0  0  0
   -1.7121  -19.2889   15.2226 H   0  0  0  0  0  0  0  0  0  0  0  0
   -2.0940  -15.8801   17.6978 H   0  0  0  0  0  0  0  0  0  0  0  0
   -3.3429  -15.9248   16.5335 H   0  0  0  0  0  0  0  0  0  0  0  0
   -2.6527  -18.1041   18.7431 H   0  0  0  0  0  0  0  0  0  0  0  0
   -4.5263  -18.9889   19.9267 H   0  0  0  0  0  0  0  0  0  0  0  0
   -6.8014  -18.5314   20.8264 H   0  0  0  0  0  0  0  0  0  0  0  0
   -7.3349  -15.3838   17.9213 H   0  0  0  0  0  0  0  0  0  0  0  0
   -5.0611  -15.8590   17.0514 H   0  0  0  0  0  0  0  0  0  0  0  0
    2.2821  -18.0119   14.0904 H   0  0  0  0  0  0  0  0  0  0  0  0
    1.3829  -14.0481   15.4374 H   0  0  0  0  0  0  0  0  0  0  0  0
   -0.7956  -14.8535   16.3035 H   0  0  0  0  0  0  0  0  0  0  0  0
   -2.7885  -20.4493   19.7188 H   0  0  0  0  0  0  0  0  0  0  0  0
   -2.2800  -21.7488   18.5878 H   0  0  0  0  0  0  0  0  0  0  0  0
   -1.4210  -20.1713   18.5878 H   0  0  0  0  0  0  0  0  0  0  0  0
  1  2  2  0
  1  6  1  0
  1 37  1  0
  2  3  1  0
  3  4  2  0
  3  8  1  0
  4  5  1  0
  5  6  2  0
  5  7  1  0
  8  9  1  0
  8 12  1  0
  9 10  1  0
  9 36  2  0
 11 10  1  1
 10 35  1  0
 11 12  1  0
 11 14  1  0
 11 17  1  0
 12 13  2  0
 14 15  1  0
 15 16  1  0
 15 26  1  0
 16 17  1  0
 17 18  1  0
 18 19  2  0
 18 23  1  0
 19 20  1  0
 20 21  2  0
 21 22  1  0
 21 24  1  0
 22 23  2  0
 24 25  3  0
 26 27  2  0
 26 31  1  0
 27 28  1  0
 28 29  2  0
 29 30  1  0
 29 32  1  0
 30 31  2  0
 32 33  2  0
 32 34  1  0
  2 38  1  0
  4 39  1  0
  6 40  1  0
 14 41  1  0
 14 42  1  0
 16 43  1  0
 16 44  1  0
 17 45  1  1
 19 46  1  0
 20 47  1  0
 22 48  1  0
 23 49  1  0
 28 50  1  0
 30 51  1  0
 31 52  1  0
 35 53  1  0
 35 54  1  0
 35 55  1  0
M  CHG  1  34  -1
M  END
>  <filename_input>  (3) 
7KC5_BJZ_docked.sdf

>  <pdb_id>  (3) 
7KC5_BJZ

>  <pose_rank>  (3) 
2

>  <num_atoms_heavy>  (3) 
37

>  <num_torsions>  (3) 
4

>  <pose>  (3) 
[-5.241608967616123, -19.990450599411634, 16.395347520726677, 2.7119231349790796, -4.4595540514735355, 3.422184266859846, -3.216852381599431, -0.1611095965189237, -2.597006873777113, 0.465625750281353]

>  <energy>  (3) 
-848.6316802692733

>  <inter_energy>  (3) 
-885.9222396738147

>  <intra_energy>  (3) 
49.964837941613524

>  <rmsd>  (3) 
0.908832

>  <sdf_rank>  (3) 
0

$$$$

     RDKit          3D

 55 59  0  0  0  0  0  0  0  0999 V2000
   -8.8013  -19.9841   15.3155 C   0  0  0  0  0  0  0  0  0  0  0  0
   -7.6144  -19.5597   15.8638 C   0  0  0  0  0  0  0  0  0  0  0  0
   -6.5727  -20.4838   15.9785 C   0  0  0  0  0  0  0  0  0  0  0  0
   -6.7117  -21.7696   15.4969 C   0  0  0  0  0  0  0  0  0  0  0  0
   -7.9227  -22.1382   14.9428 C   0  0  0  0  0  0  0  0  0  0  0  0
   -8.9652  -21.2390   14.8197 C   0  0  0  0  0  0  0  0  0  0  0  0
   -8.1711  -23.7698   14.3236 Cl  0  0  0  0  0  0  0  0  0  0  0  0
   -5.2575  -20.1364   16.4998 N   0  0  0  0  0  0  0  0  0  0  0  0
   -4.5884  -20.9929   17.4983 C   0  0  0  0  0  0  0  0  0  0  0  0
   -3.3507  -20.2940   17.8512 N   0  0  0  0  0  0  0  0  0  0  0  0
   -3.3040  -18.9905   17.1768 C   0  0  2  0  0  0  0  0  0  0  0  0
   -4.5066  -18.9467   16.2360 C   0  0  0  0  0  0  0  0  0  0  0  0
   -4.8872  -18.1525   15.4715 O   0  0  0  0  0  0  0  0  0  0  0  0
   -1.8456  -18.7441   16.4398 C   0  0  0  0  0  0  0  0  0  0  0  0
   -1.7980  -17.3932   16.4650 N   0  0  0  0  0  0  0  0  0  0  0  0
   -2.8276  -16.6556   17.4050 C   0  0  0  0  0  0  0  0  0  0  0  0
   -3.3876  -17.9795   18.1222 C   0  0  1  0  0  0  0  0  0  0  0  0
   -4.8539  -17.7177   18.6734 C   0  0  0  0  0  0  0  0  0  0  0  0
   -5.5200  -16.6087   18.1973 C   0  0  0  0  0  0  0  0  0  0  0  0
   -6.7960  -16.3196   18.6737 C   0  0  0  0  0  0  0  0  0  0  0  0
   -7.4101  -17.1370   19.6045 C   0  0  0  0  0  0  0  0  0  0  0  0
   -6.7425  -18.2738   20.0740 C   0  0  0  0  0  0  0  0  0  0  0  0
   -5.4757  -18.5429   19.5854 C   0  0  0  0  0  0  0  0  0  0  0  0
   -8.8197  -16.7751   20.0774 C   0  0  0  0  0  0  0  0  0  0  0  0
   -9.8423  -16.5195   20.4099 N   0  0  0  0  0  0  0  0  0  0  0  0
   -0.5550  -16.7741   16.0598 C   0  0  0  0  0  0  0  0  0  0  0  0
    0.2966  -17.5675   15.4240 N   0  0  0  0  0  0  0  0  0  0  0  0
    1.4657  -17.0338   15.0032 C   0  0  0  0  0  0  0  0  0  0  0  0
    1.7368  -15.7163   15.2483 C   0  0  0  0  0  0  0  0  0  0  0  0
    0.8474  -14.8955   15.8737 C   0  0  0  0  0  0  0  0  0  0  0  0
   -0.3231  -15.4171   16.2941 C   0  0  0  0  0  0  0  0  0  0  0  0
    3.0548  -15.1390   14.7423 C   0  0  0  0  0  0  0  0  0  0  0  0
    3.8630  -15.9186   14.1980 O   0  0  0  0  0  0  0  0  0  0  0  0
    3.3090  -13.9235   14.9198 O   0  0  0  0  0  0  0  0  0  0  0  0
   -2.4220  -20.8102   18.8277 C   0  0  0  0  0  0  0  0  0  0  0  0
   -5.0099  -22.0289   17.8865 O   0  0  0  0  0  0  0  0  0  0  0  0
  -10.1001  -18.8313   15.2209 Cl  0  0  0  0  0  0  0  0  0  0  0  0
   -7.4882  -18.5209   16.2030 H   0  0  0  0  0  0  0  0  0  0  0  0
   -5.8776  -22.4846   15.5528 H   0  0  0  0  0  0  0  0  0  0  0  0
   -9.9062  -21.5324   14.3315 H   0  0  0  0  0  0  0  0  0  0  0  0
   -1.0187  -19.1929   17.0098 H   0  0  0  0  0  0  0  0  0  0  0  0
   -1.7484  -19.1936   15.4406 H   0  0  0  0  0  0  0  0  0  0  0  0
   -2.3399  -15.9656   18.1094 H   0  0  0  0  0  0  0  0  0  0  0  0
   -3.5657  -15.9994   16.9205 H   0  0  0  0  0  0  0  0  0  0  0  0
   -2.8047  -18.2741   19.0073 H   0  0  0  0  0  0  0  0  0  0  0  0
   -5.0474  -15.9576   17.4472 H   0  0  0  0  0  0  0  0  0  0  0  0
   -7.3233  -15.4277   18.3041 H   0  0  0  0  0  0  0  0  0  0  0  0
   -7.2133  -18.9378   20.8139 H   0  0  0  0  0  0  0  0  0  0  0  0
   -4.9491  -19.4429   19.9357 H   0  0  0  0  0  0  0  0  0  0  0  0
    2.1956  -17.6571   14.4658 H   0  0  0  0  0  0  0  0  0  0  0  0
    1.0785  -13.8318   16.0322 H   0  0  0  0  0  0  0  0  0  0  0  0
   -1.0713  -14.7935   16.8053 H   0  0  0  0  0  0  0  0  0  0  0  0
   -2.7994  -20.6004   19.8394 H   0  0  0  0  0  0  0  0  0  0  0  0
   -2.3157  -21.8968   18.6939 H   0  0  0  0  0  0  0  0  0  0  0  0
   -1.4430  -20.3268   18.6939 H   0  0  0  0  0  0  0  0  0  0  0  0
  1  2  2  0
  1  6  1  0
  1 37  1  0
  2  3  1  0
  3  4  2  0
  3  8  1  0
  4  5  1  0
  5  6  2  0
  5  7  1  0
  8  9  1  0
  8 12  1  0
  9 10  1  0
  9 36  2  0
 11 10  1  1
 10 35  1  0
 11 12  1  0
 11 14  1  0
 11 17  1  0
 12 13  2  0
 14 15  1  0
 15 16  1  0
 15 26  1  0
 16 17  1  0
 17 18  1  0
 18 19  2  0
 18 23  1  0
 19 20  1  0
 20 21  2  0
 21 22  1  0
 21 24  1  0
 22 23  2  0
 24 25  3  0
 26 27  2  0
 26 31  1  0
 27 28  1  0
 28 29  2  0
 29 30  1  0
 29 32  1  0
 30 31  2  0
 32 33  2  0
 32 34  1  0
  2 38  1  0
  4 39  1  0
  6 40  1  0
 14 41  1  0
 14 42  1  0
 16 43  1  0
 16 44  1  0
 17 45  1  1
 19 46  1  0
 20 47  1  0
 22 48  1  0
 23 49  1  0
 28 50  1  0
 30 51  1  0
 31 52  1  0
 35 53  1  0
 35 54  1  0
 35 55  1  0
M  CHG  1  34  -1
M  END
>  <filename_input>  (4) 
7KC5_BJZ_docked.sdf

>  <pdb_id>  (4) 
7KC5_BJZ

>  <pose_rank>  (4) 
3

>  <num_atoms_heavy>  (4) 
37

>  <num_torsions>  (4) 
4

>  <pose>  (4) 
[-5.257533484739316, -20.13640199553205, 16.499815617115672, 0.04220315246002126, 0.01216657981242579, 0.026944916235565015, 3.121549943269322, -3.4137343296417306, -2.7935542867082472, 3.13961979626916]

>  <energy>  (4) 
-826.966628167392

>  <inter_energy>  (4) 
-866.6422896115287

>  <intra_energy>  (4) 
52.03240104805076

>  <rmsd>  (4) 
0.99603

>  <sdf_rank>  (4) 
0

$$$$

     RDKit          3D

 55 59  0  0  0  0  0  0  0  0999 V2000
   -7.7388  -22.3698   14.8353 C   0  0  0  0  0  0  0  0  0  0  0  0
   -6.4552  -22.1332   15.2664 C   0  0  0  0  0  0  0  0  0  0  0  0
   -6.1397  -20.8527   15.7281 C   0  0  0  0  0  0  0  0  0  0  0  0
   -7.1067  -19.8713   15.8076 C   0  0  0  0  0  0  0  0  0  0  0  0
   -8.3842  -20.1687   15.3731 C   0  0  0  0  0  0  0  0  0  0  0  0
   -8.7167  -21.4291   14.9135 C   0  0  0  0  0  0  0  0  0  0  0  0
   -9.6616  -18.9554   15.4328 Cl  0  0  0  0  0  0  0  0  0  0  0  0
   -4.8271  -20.4991   16.2519 N   0  0  0  0  0  0  0  0  0  0  0  0
   -4.1477  -21.3621   17.2378 C   0  0  0  0  0  0  0  0  0  0  0  0
   -2.9165  -20.6556   17.5979 N   0  0  0  0  0  0  0  0  0  0  0  0
   -2.8839  -19.3429   16.9407 C   0  0  2  0  0  0  0  0  0  0  0  0
   -4.0885  -19.2986   16.0026 C   0  0  0  0  0  0  0  0  0  0  0  0
   -4.4784  -18.4982   15.2493 O   0  0  0  0  0  0  0  0  0  0  0  0
   -1.4293  -19.0723   16.2048 C   0  0  0  0  0  0  0  0  0  0  0  0
   -1.3951  -17.7214   16.2478 N   0  0  0  0  0  0  0  0  0  0  0  0
   -2.4303  -17.0066   17.1992 C   0  0  0  0  0  0  0  0  0  0  0  0
   -2.9758  -18.3454   17.8996 C   0  0  1  0  0  0  0  0  0  0  0  0
   -4.4437  -18.1055   18.4567 C   0  0  0  0  0  0  0  0  0  0  0  0
   -5.1470  -17.0355   17.9461 C   0  0  0  0  0  0  0  0  0  0  0  0
   -6.4262  -16.7656   18.4252 C   0  0  0  0  0  0  0  0  0  0  0  0
   -7.0066  -17.5644   19.3932 C   0  0  0  0  0  0  0  0  0  0  0  0
   -6.3010  -18.6623   19.8982 C   0  0  0  0  0  0  0  0  0  0  0  0
   -5.0317  -18.9128   19.4062 C   0  0  0  0  0  0  0  0  0  0  0  0
   -8.4214  -17.2258   19.8675 C   0  0  0  0  0  0  0  0  0  0  0  0
   -9.4446  -16.9738   20.2012 N   0  0  0  0  0  0  0  0  0  0  0  0
   -0.1590  -17.0847   15.8488 C   0  0  0  0  0  0  0  0  0  0  0  0
    0.6993  -17.8610   15.2011 N   0  0  0  0  0  0  0  0  0  0  0  0
    1.8623  -17.3102   14.7855 C   0  0  0  0  0  0  0  0  0  0  0  0
    2.1208  -15.9934   15.0476 C   0  0  0  0  0  0  0  0  0  0  0  0
    1.2243  -15.1899   15.6853 C   0  0  0  0  0  0  0  0  0  0  0  0
    0.0598  -15.7287   16.1007 C   0  0  0  0  0  0  0  0  0  0  0  0
    3.4321  -15.3964   14.5471 C   0  0  0  0  0  0  0  0  0  0  0  0
    4.0725  -16.0333   13.6861 O   0  0  0  0  0  0  0  0  0  0  0  0
    3.8497  -14.3188   15.0349 O   0  0  0  0  0  0  0  0  0  0  0  0
   -1.9809  -21.1754   18.5659 C   0  0  0  0  0  0  0  0  0  0  0  0
   -4.5583  -22.4072   17.6129 O   0  0  0  0  0  0  0  0  0  0  0  0
   -8.1010  -23.9571   14.2238 Cl  0  0  0  0  0  0  0  0  0  0  0  0
   -5.6972  -22.9301   15.2483 H   0  0  0  0  0  0  0  0  0  0  0  0
   -6.8659  -18.8753   16.2076 H   0  0  0  0  0  0  0  0  0  0  0  0
   -9.7495  -21.6655   14.6177 H   0  0  0  0  0  0  0  0  0  0  0  0
   -0.5970  -19.5203   16.7674 H   0  0  0  0  0  0  0  0  0  0  0  0
   -1.3294  -19.5075   15.1995 H   0  0  0  0  0  0  0  0  0  0  0  0
   -1.9482  -16.3212   17.9118 H   0  0  0  0  0  0  0  0  0  0  0  0
   -3.1757  -16.3514   16.7245 H   0  0  0  0  0  0  0  0  0  0  0  0
   -2.3884  -18.6458   18.7798 H   0  0  0  0  0  0  0  0  0  0  0  0
   -4.7014  -16.4001   17.1666 H   0  0  0  0  0  0  0  0  0  0  0  0
   -6.9833  -15.9044   18.0278 H   0  0  0  0  0  0  0  0  0  0  0  0
   -6.7446  -19.3108   20.6680 H   0  0  0  0  0  0  0  0  0  0  0  0
   -4.4753  -19.7830   19.7847 H   0  0  0  0  0  0  0  0  0  0  0  0
    2.5974  -17.9191   14.2387 H   0  0  0  0  0  0  0  0  0  0  0  0
    1.4452  -14.1261   15.8575 H   0  0  0  0  0  0  0  0  0  0  0  0
   -0.6936  -15.1194   16.6213 H   0  0  0  0  0  0  0  0  0  0  0  0
   -2.3513  -20.9696   19.5810 H   0  0  0  0  0  0  0  0  0  0  0  0
   -1.8754  -22.2615   18.4273 H   0  0  0  0  0  0  0  0  0  0  0  0
   -1.0029  -20.6913   18.4273 H   0  0  0  0  0  0  0  0  0  0  0  0
  1  2  2  0
  1  6  1  0
  1 37  1  0
  2  3  1  0
  3  4  2  0
  3  8  1  0
  4  5  1  0
  5  6  2  0
  5  7  1  0
  8  9  1  0
  8 12  1  0
  9 10  1  0
  9 36  2  0
 11 10  1  1
 10 35  1  0
 11 12  1  0
 11 14  1  0
 11 17  1  0
 12 13  2  0
 14 15  1  0
 15 16  1  0
 15 26  1  0
 16 17  1  0
 17 18  1  0
 18 19  2  0
 18 23  1  0
 19 20  1  0
 20 21  2  0
 21 22  1  0
 21 24  1  0
 22 23  2  0
 24 25  3  0
 26 27  2  0
 26 31  1  0
 27 28  1  0
 28 29  2  0
 29 30  1  0
 29 32  1  0
 30 31  2  0
 32 33  2  0
 32 34  1  0
  2 38  1  0
  4 39  1  0
  6 40  1  0
 14 41  1  0
 14 42  1  0
 16 43  1  0
 16 44  1  0
 17 45  1  1
 19 46  1  0
 20 47  1  0
 22 48  1  0
 23 49  1  0
 28 50  1  0
 30 51  1  0
 31 52  1  0
 35 53  1  0
 35 54  1  0
 35 55  1  0
M  CHG  1  34  -1
M  END
>  <filename_input>  (5) 
7KC5_BJZ_docked.sdf

>  <pdb_id>  (5) 
7KC5_BJZ

>  <pose_rank>  (5) 
4

>  <num_atoms_heavy>  (5) 
37

>  <num_torsions>  (5) 
4

>  <pose>  (5) 
[-4.82713996586422, -20.499121581754885, 16.25187070664328, -5.062668209677414, -1.2701632209036213, -3.3740581425895293, -0.034102163567492225, 2.9251915616157955, 2.1915772582924107, 3.480248990479711]

>  <energy>  (5) 
-836.7179023750136

>  <inter_energy>  (5) 
-889.0074554353808

>  <intra_energy>  (5) 
51.28635646830304

>  <rmsd>  (5) 
0.78856

>  <sdf_rank>  (5) 
0

$$$$

     RDKit          3D

 55 59  0  0  0  0  0  0  0  0999 V2000
   -7.7723  -22.2735   14.8984 C   0  0  0  0  0  0  0  0  0  0  0  0
   -6.4792  -22.0501   15.3078 C   0  0  0  0  0  0  0  0  0  0  0  0
   -6.1554  -20.7878   15.8119 C   0  0  0  0  0  0  0  0  0  0  0  0
   -7.1221  -19.8132   15.9531 C   0  0  0  0  0  0  0  0  0  0  0  0
   -8.4091  -20.0971   15.5379 C   0  0  0  0  0  0  0  0  0  0  0  0
   -8.7500  -21.3394   15.0370 C   0  0  0  0  0  0  0  0  0  0  0  0
   -9.6872  -18.8909   15.6758 Cl  0  0  0  0  0  0  0  0  0  0  0  0
   -4.8313  -20.4512   16.3177 N   0  0  0  0  0  0  0  0  0  0  0  0
   -4.1793  -21.2848   17.3465 C   0  0  0  0  0  0  0  0  0  0  0  0
   -2.9252  -20.6015   17.6709 N   0  0  0  0  0  0  0  0  0  0  0  0
   -2.8506  -19.3256   16.9481 C   0  0  2  0  0  0  0  0  0  0  0  0
   -4.0543  -19.2896   16.0083 C   0  0  0  0  0  0  0  0  0  0  0  0
   -4.4187  -18.5161   15.2152 O   0  0  0  0  0  0  0  0  0  0  0  0
   -1.3888  -19.1402   16.2000 C   0  0  0  0  0  0  0  0  0  0  0  0
   -1.3105  -17.7908   16.1745 N   0  0  0  0  0  0  0  0  0  0  0  0
   -2.3207  -16.9952   17.0879 C   0  0  0  0  0  0  0  0  0  0  0  0
   -2.9088  -18.2783   17.8551 C   0  0  1  0  0  0  0  0  0  0  0  0
   -4.3674  -17.9627   18.3986 C   0  0  0  0  0  0  0  0  0  0  0  0
   -5.0073  -16.8544   17.8863 C   0  0  0  0  0  0  0  0  0  0  0  0
   -6.2751  -16.5186   18.3539 C   0  0  0  0  0  0  0  0  0  0  0  0
   -6.9072  -17.2894   19.3120 C   0  0  0  0  0  0  0  0  0  0  0  0
   -6.2666  -18.4257   19.8186 C   0  0  0  0  0  0  0  0  0  0  0  0
   -5.0075  -18.7416   19.3381 C   0  0  0  0  0  0  0  0  0  0  0  0
   -8.3068  -16.8777   19.7738 C   0  0  0  0  0  0  0  0  0  0  0  0
   -9.3184  -16.5729   20.0983 N   0  0  0  0  0  0  0  0  0  0  0  0
   -0.0548  -17.2157   15.7444 C   0  0  0  0  0  0  0  0  0  0  0  0
    0.7770  -18.0515   15.1373 N   0  0  0  0  0  0  0  0  0  0  0  0
    1.9568  -17.5607   14.6948 C   0  0  0  0  0  0  0  0  0  0  0  0
    2.2584  -16.2415   14.8900 C   0  0  0  0  0  0  0  0  0  0  0  0
    1.3894  -15.3778   15.4857 C   0  0  0  0  0  0  0  0  0  0  0  0
    0.2085  -15.8566   15.9273 C   0  0  0  0  0  0  0  0  0  0  0  0
    3.5880  -15.7137   14.3606 C   0  0  0  0  0  0  0  0  0  0  0  0
    4.4057  -16.5405   13.9078 O   0  0  0  0  0  0  0  0  0  0  0  0
    3.8409  -14.4871   14.4302 O   0  0  0  0  0  0  0  0  0  0  0  0
   -2.0060  -21.1019   18.6645 C   0  0  0  0  0  0  0  0  0  0  0  0
   -4.6233  -22.2956   17.7739 O   0  0  0  0  0  0  0  0  0  0  0  0
   -8.1457  -23.8366   14.2337 Cl  0  0  0  0  0  0  0  0  0  0  0  0
   -5.7202  -22.8434   15.2403 H   0  0  0  0  0  0  0  0  0  0  0  0
   -6.8739  -18.8330   16.3861 H   0  0  0  0  0  0  0  0  0  0  0  0
   -9.7891  -21.5671   14.7569 H   0  0  0  0  0  0  0  0  0  0  0  0
   -0.5709  -19.5861   16.7850 H   0  0  0  0  0  0  0  0  0  0  0  0
   -1.3043  -19.6289   15.2182 H   0  0  0  0  0  0  0  0  0  0  0  0
   -1.8157  -16.2907   17.7652 H   0  0  0  0  0  0  0  0  0  0  0  0
   -3.0449  -16.3410   16.5804 H   0  0  0  0  0  0  0  0  0  0  0  0
   -2.3305  -18.5528   18.7497 H   0  0  0  0  0  0  0  0  0  0  0  0
   -4.5203  -16.2403   17.1144 H   0  0  0  0  0  0  0  0  0  0  0  0
   -6.7812  -15.6270   17.9551 H   0  0  0  0  0  0  0  0  0  0  0  0
   -6.7521  -19.0530   20.5807 H   0  0  0  0  0  0  0  0  0  0  0  0
   -4.5023  -19.6420   19.7178 H   0  0  0  0  0  0  0  0  0  0  0  0
    2.6710  -18.2202   14.1800 H   0  0  0  0  0  0  0  0  0  0  0  0
    1.6451  -14.3145   15.6038 H   0  0  0  0  0  0  0  0  0  0  0  0
   -0.5241  -15.1974   16.4160 H   0  0  0  0  0  0  0  0  0  0  0  0
   -2.3996  -20.8877   19.6691 H   0  0  0  0  0  0  0  0  0  0  0  0
   -1.8883  -22.1886   18.5408 H   0  0  0  0  0  0  0  0  0  0  0  0
   -1.0295  -20.6109   18.5408 H   0  0  0  0  0  0  0  0  0  0  0  0
  1  2  2  0
  1  6  1  0
  1 37  1  0
  2  3  1  0
  3  4  2  0
  3  8  1  0
  4  5  1  0
  5  6  2  0
  5  7  1  0
  8  9  1  0
  8 12  1  0
  9 10  1  0
  9 36  2  0
 11 10  1  1
 10 35  1  0
 11 12  1  0
 11 14  1  0
 11 17  1  0
 12 13  2  0
 14 15  1  0
 15 16  1  0
 15 26  1  0
 16 17  1  0
 17 18  1  0
 18 19  2  0
 18 23  1  0
 19 20  1  0
 20 21  2  0
 21 22  1  0
 21 24  1  0
 22 23  2  0
 24 25  3  0
 26 27  2  0
 26 31  1  0
 27 28  1  0
 28 29  2  0
 29 30  1  0
 29 32  1  0
 30 31  2  0
 32 33  2  0
 32 34  1  0
  2 38  1  0
  4 39  1  0
  6 40  1  0
 14 41  1  0
 14 42  1  0
 16 43  1  0
 16 44  1  0
 17 45  1  1
 19 46  1  0
 20 47  1  0
 22 48  1  0
 23 49  1  0
 28 50  1  0
 30 51  1  0
 31 52  1  0
 35 53  1  0
 35 54  1  0
 35 55  1  0
M  CHG  1  34  -1
M  END
>  <filename_input>  (6) 
7KC5_BJZ_docked.sdf

>  <pdb_id>  (6) 
7KC5_BJZ

>  <pose_rank>  (6) 
5

>  <num_atoms_heavy>  (6) 
37

>  <num_torsions>  (6) 
4

>  <pose>  (6) 
[-4.831332523455033, -20.451193940496452, 16.317744419916593, 1.9928901263231322, 5.76202389305981, 1.5818150827324213, -0.13365886031743537, 2.8650709618618344, 2.200112393510703, 3.076001567221376]

>  <energy>  (6) 
-847.3433088434564

>  <inter_energy>  (6) 
-888.1845253484839

>  <intra_energy>  (6) 
46.99808665564068

>  <rmsd>  (6) 
0.729123

>  <sdf_rank>  (6) 
0

$$$$

     RDKit          3D

 55 59  0  0  0  0  0  0  0  0999 V2000
   -7.7336  -22.3586   14.8398 C   0  0  0  0  0  0  0  0  0  0  0  0
   -6.4489  -22.1210   15.2670 C   0  0  0  0  0  0  0  0  0  0  0  0
   -6.1461  -20.8551   15.7754 C   0  0  0  0  0  0  0  0  0  0  0  0
   -7.1255  -19.8913   15.9029 C   0  0  0  0  0  0  0  0  0  0  0  0
   -8.4034  -20.1894   15.4699 C   0  0  0  0  0  0  0  0  0  0  0  0
   -8.7234  -21.4355   14.9646 C   0  0  0  0  0  0  0  0  0  0  0  0
   -9.6966  -18.9975   15.5898 Cl  0  0  0  0  0  0  0  0  0  0  0  0
   -4.8331  -20.5038   16.2995 N   0  0  0  0  0  0  0  0  0  0  0  0
   -4.1621  -21.3600   17.2971 C   0  0  0  0  0  0  0  0  0  0  0  0
   -2.9277  -20.6571   17.6535 N   0  0  0  0  0  0  0  0  0  0  0  0
   -2.8850  -19.3520   16.9819 C   0  0  2  0  0  0  0  0  0  0  0  0
   -4.0863  -19.3107   16.0395 C   0  0  0  0  0  0  0  0  0  0  0  0
   -4.4689  -18.5162   15.2761 O   0  0  0  0  0  0  0  0  0  0  0  0
   -1.4264  -19.0983   16.2478 C   0  0  0  0  0  0  0  0  0  0  0  0
   -1.3841  -17.7473   16.2760 N   0  0  0  0  0  0  0  0  0  0  0  0
   -2.4179  -17.0157   17.2161 C   0  0  0  0  0  0  0  0  0  0  0  0
   -2.9738  -18.3434   17.9295 C   0  0  1  0  0  0  0  0  0  0  0  0
   -4.4420  -18.0884   18.4791 C   0  0  0  0  0  0  0  0  0  0  0  0
   -5.0912  -16.9522   18.0457 C   0  0  0  0  0  0  0  0  0  0  0  0
   -6.3681  -16.6690   18.5233 C   0  0  0  0  0  0  0  0  0  0  0  0
   -6.9997  -17.5185   19.4127 C   0  0  0  0  0  0  0  0  0  0  0  0
   -6.3492  -18.6821   19.8383 C   0  0  0  0  0  0  0  0  0  0  0  0
   -5.0812  -18.9447   19.3493 C   0  0  0  0  0  0  0  0  0  0  0  0
   -8.4092  -17.1608   19.8888 C   0  0  0  0  0  0  0  0  0  0  0  0
   -9.4281  -16.8943   20.2243 N   0  0  0  0  0  0  0  0  0  0  0  0
   -0.1428  -17.1225   15.8741 C   0  0  0  0  0  0  0  0  0  0  0  0
    0.7127  -17.9112   15.2378 N   0  0  0  0  0  0  0  0  0  0  0  0
    1.8804  -17.3721   14.8199 C   0  0  0  0  0  0  0  0  0  0  0  0
    2.1461  -16.0541   15.0683 C   0  0  0  0  0  0  0  0  0  0  0  0
    1.2526  -15.2381   15.6942 C   0  0  0  0  0  0  0  0  0  0  0  0
    0.0835  -15.7652   16.1117 C   0  0  0  0  0  0  0  0  0  0  0  0
    3.4627  -15.4707   14.5656 C   0  0  0  0  0  0  0  0  0  0  0  0
    4.0604  -16.0785   13.6543 O   0  0  0  0  0  0  0  0  0  0  0  0
    3.9267  -14.4347   15.0995 O   0  0  0  0  0  0  0  0  0  0  0  0
   -1.9985  -21.1719   18.6301 C   0  0  0  0  0  0  0  0  0  0  0  0
   -4.5803  -22.3984   17.6824 O   0  0  0  0  0  0  0  0  0  0  0  0
   -8.0804  -23.9258   14.1703 Cl  0  0  0  0  0  0  0  0  0  0  0  0
   -5.6803  -22.9058   15.2102 H   0  0  0  0  0  0  0  0  0  0  0  0
   -6.8942  -18.9084   16.3392 H   0  0  0  0  0  0  0  0  0  0  0  0
   -9.7559  -21.6747   14.6701 H   0  0  0  0  0  0  0  0  0  0  0  0
   -0.5987  -19.5452   16.8180 H   0  0  0  0  0  0  0  0  0  0  0  0
   -1.3260  -19.5453   15.2477 H   0  0  0  0  0  0  0  0  0  0  0  0
   -1.9339  -16.3255   17.9228 H   0  0  0  0  0  0  0  0  0  0  0  0
   -3.1577  -16.3613   16.7319 H   0  0  0  0  0  0  0  0  0  0  0  0
   -2.3911  -18.6377   18.8149 H   0  0  0  0  0  0  0  0  0  0  0  0
   -4.6046  -16.2750   17.3284 H   0  0  0  0  0  0  0  0  0  0  0  0
   -6.8819  -15.7559   18.1881 H   0  0  0  0  0  0  0  0  0  0  0  0
   -6.8341  -19.3718   20.5449 H   0  0  0  0  0  0  0  0  0  0  0  0
   -4.5680  -19.8651   19.6649 H   0  0  0  0  0  0  0  0  0  0  0  0
    2.6135  -17.9914   14.2822 H   0  0  0  0  0  0  0  0  0  0  0  0
    1.4795  -14.1739   15.8554 H   0  0  0  0  0  0  0  0  0  0  0  0
   -0.6678  -15.1456   16.6231 H   0  0  0  0  0  0  0  0  0  0  0  0
   -2.3763  -20.9625   19.6418 H   0  0  0  0  0  0  0  0  0  0  0  0
   -1.8906  -22.2584   18.4966 H   0  0  0  0  0  0  0  0  0  0  0  0
   -1.0201  -20.6871   18.4966 H   0  0  0  0  0  0  0  0  0  0  0  0
  1  2  2  0
  1  6  1  0
  1 37  1  0
  2  3  1  0
  3  4  2  0
  3  8  1  0
  4  5  1  0
  5  6  2  0
  5  7  1  0
  8  9  1  0
  8 12  1  0
  9 10  1  0
  9 36  2  0
 11 10  1  1
 10 35  1  0
 11 12  1  0
 11 14  1  0
 11 17  1  0
 12 13  2  0
 14 15  1  0
 15 16  1  0
 15 26  1  0
 16 17  1  0
 17 18  1  0
 18 19  2  0
 18 23  1  0
 19 20  1  0
 20 21  2  0
 21 22  1  0
 21 24  1  0
 22 23  2  0
 24 25  3  0
 26 27  2  0
 26 31  1  0
 27 28  1  0
 28 29  2  0
 29 30  1  0
 29 32  1  0
 30 31  2  0
 32 33  2  0
 32 34  1  0
  2 38  1  0
  4 39  1  0
  6 40  1  0
 14 41  1  0
 14 42  1  0
 16 43  1  0
 16 44  1  0
 17 45  1  1
 19 46  1  0
 20 47  1  0
 22 48  1  0
 23 49  1  0
 28 50  1  0
 30 51  1  0
 31 52  1  0
 35 53  1  0
 35 54  1  0
 35 55  1  0
M  CHG  1  34  -1
M  END
>  <filename_input>  (7) 
7KC5_BJZ_docked.sdf

>  <pdb_id>  (7) 
7KC5_BJZ

>  <pose_rank>  (7) 
6

>  <num_atoms_heavy>  (7) 
37

>  <num_torsions>  (7) 
4

>  <pose>  (7) 
[-4.833078175542771, -20.503808158939936, 16.299524192164764, -5.017435434951805, -1.2114829870390165, -3.4852408908901977, -0.0897397938640461, 2.825182550530072, 2.1969498202863003, 3.5564036767506506]

>  <energy>  (7) 
-839.3705871755757

>  <inter_energy>  (7) 
-895.829406530758

>  <intra_energy>  (7) 
49.53410597275335

>  <rmsd>  (7) 
0.785932

>  <sdf_rank>  (7) 
0

$$$$

     RDKit          3D

 55 59  0  0  0  0  0  0  0  0999 V2000
   -7.9926  -20.1166   15.2558 C   0  0  0  0  0  0  0  0  0  0  0  0
   -6.8200  -19.5819   15.7338 C   0  0  0  0  0  0  0  0  0  0  0  0
   -5.7415  -20.4438   15.9498 C   0  0  0  0  0  0  0  0  0  0  0  0
   -5.8324  -21.7837   15.6324 C   0  0  0  0  0  0  0  0  0  0  0  0
   -7.0314  -22.2646   15.1421 C   0  0  0  0  0  0  0  0  0  0  0  0
   -8.1096  -21.4287   14.9208 C   0  0  0  0  0  0  0  0  0  0  0  0
   -7.2187  -23.9688   14.7321 Cl  0  0  0  0  0  0  0  0  0  0  0  0
   -4.4378  -19.9838   16.4091 N   0  0  0  0  0  0  0  0  0  0  0  0
   -3.6446  -20.7850   17.3616 C   0  0  0  0  0  0  0  0  0  0  0  0
   -2.4581  -19.9805   17.6612 N   0  0  0  0  0  0  0  0  0  0  0  0
   -2.5626  -18.6725   17.0022 C   0  0  2  0  0  0  0  0  0  0  0  0
   -3.8107  -18.7292   16.1235 C   0  0  0  0  0  0  0  0  0  0  0  0
   -4.2994  -17.9660   15.3893 O   0  0  0  0  0  0  0  0  0  0  0  0
   -1.1716  -18.2897   16.1964 C   0  0  0  0  0  0  0  0  0  0  0  0
   -1.2438  -16.9402   16.2367 N   0  0  0  0  0  0  0  0  0  0  0  0
   -2.2859  -16.3062   17.2366 C   0  0  0  0  0  0  0  0  0  0  0  0
   -2.6879  -17.6811   17.9637 C   0  0  1  0  0  0  0  0  0  0  0  0
   -4.1418  -17.5569   18.5909 C   0  0  0  0  0  0  0  0  0  0  0  0
   -4.8888  -16.4521   18.2425 C   0  0  0  0  0  0  0  0  0  0  0  0
   -6.1575  -16.2828   18.7906 C   0  0  0  0  0  0  0  0  0  0  0  0
   -6.6844  -17.2144   19.6661 C   0  0  0  0  0  0  0  0  0  0  0  0
   -5.9346  -18.3461   20.0054 C   0  0  0  0  0  0  0  0  0  0  0  0
   -4.6767  -18.4950   19.4472 C   0  0  0  0  0  0  0  0  0  0  0  0
   -8.0905  -16.9803   20.2223 C   0  0  0  0  0  0  0  0  0  0  0  0
   -9.1021  -16.8129   20.6349 N   0  0  0  0  0  0  0  0  0  0  0  0
   -0.0835  -16.2084   15.7778 C   0  0  0  0  0  0  0  0  0  0  0  0
    0.8021  -16.9165   15.0900 N   0  0  0  0  0  0  0  0  0  0  0  0
    1.8958  -16.2763   14.6180 C   0  0  0  0  0  0  0  0  0  0  0  0
    2.0602  -14.9419   14.8664 C   0  0  0  0  0  0  0  0  0  0  0  0
    1.1339  -14.2097   15.5461 C   0  0  0  0  0  0  0  0  0  0  0  0
    0.0378  -14.8381   16.0178 C   0  0  0  0  0  0  0  0  0  0  0  0
    3.2937  -14.2440   14.3025 C   0  0  0  0  0  0  0  0  0  0  0  0
    3.7258  -13.2422   14.9083 O   0  0  0  0  0  0  0  0  0  0  0  0
    3.8108  -14.6610   13.2384 O   0  0  0  0  0  0  0  0  0  0  0  0
   -1.4383  -20.4193   18.5831 C   0  0  0  0  0  0  0  0  0  0  0  0
   -3.9515  -21.8579   17.7570 O   0  0  0  0  0  0  0  0  0  0  0  0
   -9.3368  -19.0355   15.0344 Cl  0  0  0  0  0  0  0  0  0  0  0  0
   -6.7329  -18.5050   15.9406 H   0  0  0  0  0  0  0  0  0  0  0  0
   -4.9701  -22.4535   15.7666 H   0  0  0  0  0  0  0  0  0  0  0  0
   -9.0414  -21.8165   14.4834 H   0  0  0  0  0  0  0  0  0  0  0  0
   -0.2799  -18.6670   16.7184 H   0  0  0  0  0  0  0  0  0  0  0  0
   -1.0857  -18.7202   15.1878 H   0  0  0  0  0  0  0  0  0  0  0  0
   -1.8266  -15.5811   17.9245 H   0  0  0  0  0  0  0  0  0  0  0  0
   -3.1035  -15.7150   16.7981 H   0  0  0  0  0  0  0  0  0  0  0  0
   -2.0366  -17.9295   18.8146 H   0  0  0  0  0  0  0  0  0  0  0  0
   -4.4859  -15.7103   17.5372 H   0  0  0  0  0  0  0  0  0  0  0  0
   -6.7493  -15.3949   18.5233 H   0  0  0  0  0  0  0  0  0  0  0  0
   -6.3353  -19.0997   20.6993 H   0  0  0  0  0  0  0  0  0  0  0  0
   -4.0860  -19.3893   19.6946 H   0  0  0  0  0  0  0  0  0  0  0  0
    2.6501  -16.8269   14.0368 H   0  0  0  0  0  0  0  0  0  0  0  0
    1.2768  -13.1309   15.7065 H   0  0  0  0  0  0  0  0  0  0  0  0
   -0.7361  -14.2887   16.5738 H   0  0  0  0  0  0  0  0  0  0  0  0
   -1.7878  -20.2689   19.6152 H   0  0  0  0  0  0  0  0  0  0  0  0
   -1.2298  -21.4867   18.4184 H   0  0  0  0  0  0  0  0  0  0  0  0
   -0.5199  -19.8366   18.4184 H   0  0  0  0  0  0  0  0  0  0  0  0
  1  2  2  0
  1  6  1  0
  1 37  1  0
  2  3  1  0
  3  4  2  0
  3  8  1  0
  4  5  1  0
  5  6  2  0
  5  7  1  0
  8  9  1  0
  8 12  1  0
  9 10  1  0
  9 36  2  0
 11 10  1  1
 10 35  1  0
 11 12  1  0
 11 14  1  0
 11 17  1  0
 12 13  2  0
 14 15  1  0
 15 16  1  0
 15 26  1  0
 16 17  1  0
 17 18  1  0
 18 19  2  0
 18 23  1  0
 19 20  1  0
 20 21  2  0
 21 22  1  0
 21 24  1  0
 22 23  2  0
 24 25  3  0
 26 27  2  0
 26 31  1  0
 27 28  1  0
 28 29  2  0
 29 30  1  0
 29 32  1  0
 30 31  2  0
 32 33  2  0
 32 34  1  0
  2 38  1  0
  4 39  1  0
  6 40  1  0
 14 41  1  0
 14 42  1  0
 16 43  1  0
 16 44  1  0
 17 45  1  1
 19 46  1  0
 20 47  1  0
 22 48  1  0
 23 49  1  0
 28 50  1  0
 30 51  1  0
 31 52  1  0
 35 53  1  0
 35 54  1  0
 35 55  1  0
M  CHG  1  34  -1
M  END
>  <filename_input>  (8) 
7KC5_BJZ_docked.sdf

>  <pdb_id>  (8) 
7KC5_BJZ

>  <pose_rank>  (8) 
7

>  <num_atoms_heavy>  (8) 
37

>  <num_torsions>  (8) 
4

>  <pose>  (8) 
[-4.43780639633464, -19.983796302415794, 16.40911556622977, -2.2799997724077636, -2.7761740967675355, -4.97984746912836, -3.01184895847101, -3.4993189156830726, -0.2703489320834171, 6.833178663740894]

>  <energy>  (8) 
-725.7312517471747

>  <inter_energy>  (8) 
-784.6673073658105

>  <intra_energy>  (8) 
60.868426002955935

>  <rmsd>  (8) 
0.722377

>  <sdf_rank>  (8) 
0

$$$$

     RDKit          3D

 55 59  0  0  0  0  0  0  0  0999 V2000
   -7.9357  -21.4842   14.7931 C   0  0  0  0  0  0  0  0  0  0  0  0
   -6.6313  -21.3161   15.1926 C   0  0  0  0  0  0  0  0  0  0  0  0
   -6.2332  -20.0503   15.6306 C   0  0  0  0  0  0  0  0  0  0  0  0
   -7.1408  -19.0145   15.7186 C   0  0  0  0  0  0  0  0  0  0  0  0
   -8.4428  -19.2437   15.3164 C   0  0  0  0  0  0  0  0  0  0  0  0
   -8.8566  -20.4884   14.8807 C   0  0  0  0  0  0  0  0  0  0  0  0
   -9.6476  -17.9589   15.3885 Cl  0  0  0  0  0  0  0  0  0  0  0  0
   -4.8910  -19.7660   16.1206 N   0  0  0  0  0  0  0  0  0  0  0  0
   -4.2106  -20.6929   17.0458 C   0  0  0  0  0  0  0  0  0  0  0  0
   -2.9422  -20.0465   17.3896 N   0  0  0  0  0  0  0  0  0  0  0  0
   -2.8835  -18.7096   16.7851 C   0  0  2  0  0  0  0  0  0  0  0  0
   -4.1173  -18.5833   15.8935 C   0  0  0  0  0  0  0  0  0  0  0  0
   -4.5029  -17.7388   15.1876 O   0  0  0  0  0  0  0  0  0  0  0  0
   -1.4461  -18.4608   16.0087 C   0  0  0  0  0  0  0  0  0  0  0  0
   -1.3602  -17.1150   16.1049 N   0  0  0  0  0  0  0  0  0  0  0  0
   -2.3347  -16.4038   17.1210 C   0  0  0  0  0  0  0  0  0  0  0  0
   -2.9051  -17.7502   17.7861 C   0  0  1  0  0  0  0  0  0  0  0  0
   -4.3430  -17.4813   18.4048 C   0  0  0  0  0  0  0  0  0  0  0  0
   -4.7786  -18.3413   19.3901 C   0  0  0  0  0  0  0  0  0  0  0  0
   -6.0448  -18.1654   19.9418 C   0  0  0  0  0  0  0  0  0  0  0  0
   -6.8641  -17.1316   19.5271 C   0  0  0  0  0  0  0  0  0  0  0  0
   -6.4152  -16.2464   18.5408 C   0  0  0  0  0  0  0  0  0  0  0  0
   -5.1524  -16.4391   18.0076 C   0  0  0  0  0  0  0  0  0  0  0  0
   -8.2384  -16.9809   20.1830 C   0  0  0  0  0  0  0  0  0  0  0  0
   -9.2353  -16.8803   20.6495 N   0  0  0  0  0  0  0  0  0  0  0  0
   -0.1158  -16.5068   15.6876 C   0  0  0  0  0  0  0  0  0  0  0  0
    0.6901  -17.2857   14.9787 N   0  0  0  0  0  0  0  0  0  0  0  0
    1.8578  -16.7600   14.5440 C   0  0  0  0  0  0  0  0  0  0  0  0
    2.1740  -15.4654   14.8495 C   0  0  0  0  0  0  0  0  0  0  0  0
    1.3306  -14.6575   15.5510 C   0  0  0  0  0  0  0  0  0  0  0  0
    0.1619  -15.1712   15.9859 C   0  0  0  0  0  0  0  0  0  0  0  0
    3.4885  -14.8953   14.3266 C   0  0  0  0  0  0  0  0  0  0  0  0
    4.5462  -15.2738   14.8700 O   0  0  0  0  0  0  0  0  0  0  0  0
    3.4731  -14.0424   13.4069 O   0  0  0  0  0  0  0  0  0  0  0  0
   -1.9938  -20.6393   18.3015 C   0  0  0  0  0  0  0  0  0  0  0  0
   -4.6465  -21.7375   17.3930 O   0  0  0  0  0  0  0  0  0  0  0  0
   -8.4011  -23.0554   14.2105 Cl  0  0  0  0  0  0  0  0  0  0  0  0
   -5.9202  -22.1550   15.1682 H   0  0  0  0  0  0  0  0  0  0  0  0
   -6.8349  -18.0292   16.1002 H   0  0  0  0  0  0  0  0  0  0  0  0
   -9.9076  -20.6690   14.6109 H   0  0  0  0  0  0  0  0  0  0  0  0
   -0.6121  -18.9613   16.5224 H   0  0  0  0  0  0  0  0  0  0  0  0
   -1.3972  -18.8572   14.9838 H   0  0  0  0  0  0  0  0  0  0  0  0
   -1.8031  -15.7664   17.8429 H   0  0  0  0  0  0  0  0  0  0  0  0
   -3.0711  -15.7032   16.7003 H   0  0  0  0  0  0  0  0  0  0  0  0
   -2.2993  -18.1078   18.6318 H   0  0  0  0  0  0  0  0  0  0  0  0
   -4.1312  -19.1599   19.7377 H   0  0  0  0  0  0  0  0  0  0  0  0
   -6.3986  -18.8589   20.7189 H   0  0  0  0  0  0  0  0  0  0  0  0
   -7.0507  -15.4169   18.1972 H   0  0  0  0  0  0  0  0  0  0  0  0
   -4.7836  -15.7389   17.2435 H   0  0  0  0  0  0  0  0  0  0  0  0
    2.5504  -17.3715   13.9470 H   0  0  0  0  0  0  0  0  0  0  0  0
    1.5967  -13.6104   15.7578 H   0  0  0  0  0  0  0  0  0  0  0  0
   -0.5499  -14.5575   16.5575 H   0  0  0  0  0  0  0  0  0  0  0  0
   -2.3086  -20.4426   19.3370 H   0  0  0  0  0  0  0  0  0  0  0  0
   -1.9510  -21.7252   18.1313 H   0  0  0  0  0  0  0  0  0  0  0  0
   -0.9989  -20.2019   18.1313 H   0  0  0  0  0  0  0  0  0  0  0  0
  1  2  2  0
  1  6  1  0
  1 37  1  0
  2  3  1  0
  3  4  2  0
  3  8  1  0
  4  5  1  0
  5  6  2  0
  5  7  1  0
  8  9  1  0
  8 12  1  0
  9 10  1  0
  9 36  2  0
 11 10  1  1
 10 35  1  0
 11 12  1  0
 11 14  1  0
 11 17  1  0
 12 13  2  0
 14 15  1  0
 15 16  1  0
 15 26  1  0
 16 17  1  0
 17 18  1  0
 18 19  2  0
 18 23  1  0
 19 20  1  0
 20 21  2  0
 21 22  1  0
 21 24  1  0
 22 23  2  0
 24 25  3  0
 26 27  2  0
 26 31  1  0
 27 28  1  0
 28 29  2  0
 29 30  1  0
 29 32  1  0
 30 31  2  0
 32 33  2  0
 32 34  1  0
  2 38  1  0
  4 39  1  0
  6 40  1  0
 14 41  1  0
 14 42  1  0
 16 43  1  0
 16 44  1  0
 17 45  1  1
 19 46  1  0
 20 47  1  0
 22 48  1  0
 23 49  1  0
 28 50  1  0
 30 51  1  0
 31 52  1  0
 35 53  1  0
 35 54  1  0
 35 55  1  0
M  CHG  1  34  -1
M  END
>  <filename_input>  (9) 
7KC5_BJZ_docked.sdf

>  <pdb_id>  (9) 
7KC5_BJZ

>  <pose_rank>  (9) 
8

>  <num_atoms_heavy>  (9) 
37

>  <num_torsions>  (9) 
4

>  <pose>  (9) 
[-4.89104716698051, -19.765969192665697, 16.120573545693958, 0.09728261601018608, 0.04740837692881622, -0.0002675636181233478, 0.024448781117732292, -0.15796910707836953, 0.5471447027047087, 1.9269675235017618]

>  <energy>  (9) 
-776.8934089818035

>  <inter_energy>  (9) 
-834.7782453249112

>  <intra_energy>  (9) 
54.58963077055437

>  <rmsd>  (9) 
0.751446

>  <sdf_rank>  (9) 
0

$$$$

     RDKit          3D

 55 59  0  0  0  0  0  0  0  0999 V2000
   -7.9556  -21.6743   14.7605 C   0  0  0  0  0  0  0  0  0  0  0  0
   -6.6746  -21.4191   15.1886 C   0  0  0  0  0  0  0  0  0  0  0  0
   -6.4029  -20.1681   15.7486 C   0  0  0  0  0  0  0  0  0  0  0  0
   -7.4076  -19.2384   15.9241 C   0  0  0  0  0  0  0  0  0  0  0  0
   -8.6802  -19.5536   15.4876 C   0  0  0  0  0  0  0  0  0  0  0  0
   -8.9696  -20.7854   14.9316 C   0  0  0  0  0  0  0  0  0  0  0  0
  -10.0049  -18.4046   15.6674 Cl  0  0  0  0  0  0  0  0  0  0  0  0
   -5.0959  -19.8027   16.2782 N   0  0  0  0  0  0  0  0  0  0  0  0
   -4.5365  -20.4930   17.4567 C   0  0  0  0  0  0  0  0  0  0  0  0
   -3.2749  -19.8101   17.7516 N   0  0  0  0  0  0  0  0  0  0  0  0
   -3.1078  -18.6606   16.8534 C   0  0  2  0  0  0  0  0  0  0  0  0
   -4.2555  -18.7270   15.8476 C   0  0  0  0  0  0  0  0  0  0  0  0
   -4.5434  -18.0700   14.9280 O   0  0  0  0  0  0  0  0  0  0  0  0
   -1.6007  -18.6378   16.1761 C   0  0  0  0  0  0  0  0  0  0  0  0
   -1.4653  -17.3108   15.9556 N   0  0  0  0  0  0  0  0  0  0  0  0
   -2.4904  -16.3543   16.6781 C   0  0  0  0  0  0  0  0  0  0  0  0
   -3.1724  -17.4875   17.5900 C   0  0  1  0  0  0  0  0  0  0  0  0
   -4.6444  -17.0461   17.9913 C   0  0  0  0  0  0  0  0  0  0  0  0
   -5.2857  -16.1527   17.1602 C   0  0  0  0  0  0  0  0  0  0  0  0
   -6.5656  -15.7119   17.4860 C   0  0  0  0  0  0  0  0  0  0  0  0
   -7.2081  -16.1695   18.6217 C   0  0  0  0  0  0  0  0  0  0  0  0
   -6.5656  -17.0912   19.4558 C   0  0  0  0  0  0  0  0  0  0  0  0
   -5.2943  -17.5171   19.1116 C   0  0  0  0  0  0  0  0  0  0  0  0
   -8.6204  -15.6601   18.9171 C   0  0  0  0  0  0  0  0  0  0  0  0
   -9.6411  -15.2877   19.1197 N   0  0  0  0  0  0  0  0  0  0  0  0
   -0.1651  -16.8485   15.5218 C   0  0  0  0  0  0  0  0  0  0  0  0
    0.6634  -17.7928   15.0968 N   0  0  0  0  0  0  0  0  0  0  0  0
    1.8852  -17.4131   14.6588 C   0  0  0  0  0  0  0  0  0  0  0  0
    2.2300  -16.0901   14.6741 C   0  0  0  0  0  0  0  0  0  0  0  0
    1.3660  -15.1186   15.0815 C   0  0  0  0  0  0  0  0  0  0  0  0
    0.1438  -15.4866   15.5168 C   0  0  0  0  0  0  0  0  0  0  0  0
    3.6073  -15.6918   14.1538 C   0  0  0  0  0  0  0  0  0  0  0  0
    4.2163  -16.5064   13.4308 O   0  0  0  0  0  0  0  0  0  0  0  0
    4.1048  -14.5914   14.4932 O   0  0  0  0  0  0  0  0  0  0  0  0
   -2.4332  -20.1852   18.8622 C   0  0  0  0  0  0  0  0  0  0  0  0
   -5.0448  -21.4130   18.0016 O   0  0  0  0  0  0  0  0  0  0  0  0
   -8.2643  -23.2206   14.0269 Cl  0  0  0  0  0  0  0  0  0  0  0  0
   -5.8850  -22.1789   15.0929 H   0  0  0  0  0  0  0  0  0  0  0  0
   -7.2001  -18.2689   16.4005 H   0  0  0  0  0  0  0  0  0  0  0  0
   -9.9975  -21.0408   14.6343 H   0  0  0  0  0  0  0  0  0  0  0  0
   -0.8354  -19.0172   16.8691 H   0  0  0  0  0  0  0  0  0  0  0  0
   -1.4827  -19.2711   15.2845 H   0  0  0  0  0  0  0  0  0  0  0  0
   -1.9947  -15.5729   17.2728 H   0  0  0  0  0  0  0  0  0  0  0  0
   -3.1578  -15.7605   16.0363 H   0  0  0  0  0  0  0  0  0  0  0  0
   -2.6561  -17.6430   18.5488 H   0  0  0  0  0  0  0  0  0  0  0  0
   -4.7903  -15.7910   16.2471 H   0  0  0  0  0  0  0  0  0  0  0  0
   -7.0731  -14.9890   16.8303 H   0  0  0  0  0  0  0  0  0  0  0  0
   -7.0592  -17.4685   20.3635 H   0  0  0  0  0  0  0  0  0  0  0  0
   -4.7873  -18.2541   19.7518 H   0  0  0  0  0  0  0  0  0  0  0  0
    2.5986  -18.1655   14.2916 H   0  0  0  0  0  0  0  0  0  0  0  0
    1.6587  -14.0586   15.0559 H   0  0  0  0  0  0  0  0  0  0  0  0
   -0.5866  -14.7378   15.8571 H   0  0  0  0  0  0  0  0  0  0  0  0
   -2.9484  -19.9557   19.8066 H   0  0  0  0  0  0  0  0  0  0  0  0
   -2.2204  -21.2633   18.8132 H   0  0  0  0  0  0  0  0  0  0  0  0
   -1.4893  -19.6226   18.8132 H   0  0  0  0  0  0  0  0  0  0  0  0
  1  2  2  0
  1  6  1  0
  1 37  1  0
  2  3  1  0
  3  4  2  0
  3  8  1  0
  4  5  1  0
  5  6  2  0
  5  7  1  0
  8  9  1  0
  8 12  1  0
  9 10  1  0
  9 36  2  0
 11 10  1  1
 10 35  1  0
 11 12  1  0
 11 14  1  0
 11 17  1  0
 12 13  2  0
 14 15  1  0
 15 16  1  0
 15 26  1  0
 16 17  1  0
 17 18  1  0
 18 19  2  0
 18 23  1  0
 19 20  1  0
 20 21  2  0
 21 22  1  0
 21 24  1  0
 22 23  2  0
 24 25  3  0
 26 27  2  0
 26 31  1  0
 27 28  1  0
 28 29  2  0
 29 30  1  0
 29 32  1  0
 30 31  2  0
 32 33  2  0
 32 34  1  0
  2 38  1  0
  4 39  1  0
  6 40  1  0
 14 41  1  0
 14 42  1  0
 16 43  1  0
 16 44  1  0
 17 45  1  1
 19 46  1  0
 20 47  1  0
 22 48  1  0
 23 49  1  0
 28 50  1  0
 30 51  1  0
 31 52  1  0
 35 53  1  0
 35 54  1  0
 35 55  1  0
M  CHG  1  34  -1
M  END
>  <filename_input>  (10) 
7KC5_BJZ_docked.sdf

>  <pdb_id>  (10) 
7KC5_BJZ

>  <pose_rank>  (10) 
9

>  <num_atoms_heavy>  (10) 
37

>  <num_torsions>  (10) 
4

>  <pose>  (10) 
[-5.095878280799591, -19.80273969766276, 16.27818034104272, -6.0132501207265685, -1.8086733387534741, -1.4218914171029042, -0.3472382357887885, 3.032813412089749, 2.197576035806198, 3.5326023346334363]

>  <energy>  (10) 
-771.2261080458277

>  <inter_energy>  (10) 
-808.5514010366711

>  <intra_energy>  (10) 
40.63840895379777

>  <rmsd>  (10) 
1.03326

>  <sdf_rank>  (10) 
0

$$$$

     RDKit          3D

 55 59  0  0  0  0  0  0  0  0999 V2000
   -7.9974  -17.2808   16.8276 C   0  0  0  0  0  0  0  0  0  0  0  0
   -6.6330  -17.4166   16.7323 C   0  0  0  0  0  0  0  0  0  0  0  0
   -5.8783  -17.3362   17.9056 C   0  0  0  0  0  0  0  0  0  0  0  0
   -6.4921  -17.1875   19.1326 C   0  0  0  0  0  0  0  0  0  0  0  0
   -7.8684  -17.0696   19.1706 C   0  0  0  0  0  0  0  0  0  0  0  0
   -8.6328  -17.1471   18.0217 C   0  0  0  0  0  0  0  0  0  0  0  0
   -8.7130  -16.8614   20.7038 Cl  0  0  0  0  0  0  0  0  0  0  0  0
   -4.4323  -17.5113   17.9325 N   0  0  0  0  0  0  0  0  0  0  0  0
   -3.6095  -17.1983   16.7479 C   0  0  0  0  0  0  0  0  0  0  0  0
   -2.2412  -17.5775   17.1069 N   0  0  0  0  0  0  0  0  0  0  0  0
   -2.2299  -18.2093   18.4323 C   0  0  2  0  0  0  0  0  0  0  0  0
   -3.6466  -18.0754   18.9876 C   0  0  0  0  0  0  0  0  0  0  0  0
   -4.1339  -18.3847   20.0010 O   0  0  0  0  0  0  0  0  0  0  0  0
   -1.0504  -17.5690   19.3963 C   0  0  0  0  0  0  0  0  0  0  0  0
   -0.8163  -18.6239   20.2087 N   0  0  0  0  0  0  0  0  0  0  0  0
   -1.3972  -20.0197   19.7590 C   0  0  0  0  0  0  0  0  0  0  0  0
   -1.8814  -19.5453   18.3026 C   0  0  1  0  0  0  0  0  0  0  0  0
   -3.0574  -20.4824   17.7912 C   0  0  0  0  0  0  0  0  0  0  0  0
   -3.7487  -20.0754   16.6702 C   0  0  0  0  0  0  0  0  0  0  0  0
   -4.8082  -20.8475   16.2013 C   0  0  0  0  0  0  0  0  0  0  0  0
   -5.1661  -22.0236   16.8341 C   0  0  0  0  0  0  0  0  0  0  0  0
   -4.4526  -22.4477   17.9607 C   0  0  0  0  0  0  0  0  0  0  0  0
   -3.4019  -21.6655   18.4082 C   0  0  0  0  0  0  0  0  0  0  0  0
   -6.3292  -22.8364   16.2613 C   0  0  0  0  0  0  0  0  0  0  0  0
   -7.1618  -23.4304   15.8423 N   0  0  0  0  0  0  0  0  0  0  0  0
    0.3127  -18.5206   21.1072 C   0  0  0  0  0  0  0  0  0  0  0  0
    0.8122  -17.3013   21.2576 N   0  0  0  0  0  0  0  0  0  0  0  0
    1.8553  -17.1443   22.1038 C   0  0  0  0  0  0  0  0  0  0  0  0
    2.3632  -18.2293   22.7627 C   0  0  0  0  0  0  0  0  0  0  0  0
    1.8285  -19.4754   22.6308 C   0  0  0  0  0  0  0  0  0  0  0  0
    0.7856  -19.6420   21.7920 C   0  0  0  0  0  0  0  0  0  0  0  0
    3.5261  -18.0158   23.7263 C   0  0  0  0  0  0  0  0  0  0  0  0
    4.6794  -18.2478   23.3099 O   0  0  0  0  0  0  0  0  0  0  0  0
    3.2967  -17.6588   24.9067 O   0  0  0  0  0  0  0  0  0  0  0  0
   -1.1350  -17.4422   16.1901 C   0  0  0  0  0  0  0  0  0  0  0  0
   -4.0261  -16.7267   15.7451 O   0  0  0  0  0  0  0  0  0  0  0  0
   -8.9156  -17.3404   15.3517 Cl  0  0  0  0  0  0  0  0  0  0  0  0
   -6.1483  -17.5841   15.7591 H   0  0  0  0  0  0  0  0  0  0  0  0
   -5.8995  -17.1632   20.0589 H   0  0  0  0  0  0  0  0  0  0  0  0
   -9.7307  -17.1015   18.0725 H   0  0  0  0  0  0  0  0  0  0  0  0
   -0.1563  -17.2917   18.8186 H   0  0  0  0  0  0  0  0  0  0  0  0
   -1.3271  -16.6378   19.9124 H   0  0  0  0  0  0  0  0  0  0  0  0
   -0.6281  -20.8050   19.7153 H   0  0  0  0  0  0  0  0  0  0  0  0
   -2.1534  -20.4801   20.4118 H   0  0  0  0  0  0  0  0  0  0  0  0
   -1.0993  -19.6337   17.5342 H   0  0  0  0  0  0  0  0  0  0  0  0
   -3.4655  -19.1482   16.1504 H   0  0  0  0  0  0  0  0  0  0  0  0
   -5.3688  -20.5169   15.3145 H   0  0  0  0  0  0  0  0  0  0  0  0
   -4.7203  -23.3806   18.4784 H   0  0  0  0  0  0  0  0  0  0  0  0
   -2.8242  -21.9985   19.2831 H   0  0  0  0  0  0  0  0  0  0  0  0
    2.2933  -16.1476   22.2614 H   0  0  0  0  0  0  0  0  0  0  0  0
    2.2380  -20.3260   23.1954 H   0  0  0  0  0  0  0  0  0  0  0  0
    0.3223  -20.6297   21.6518 H   0  0  0  0  0  0  0  0  0  0  0  0
   -0.2000  -17.3278   16.7581 H   0  0  0  0  0  0  0  0  0  0  0  0
   -1.0719  -18.3393   15.5567 H   0  0  0  0  0  0  0  0  0  0  0  0
   -1.2899  -16.5563   15.5567 H   0  0  0  0  0  0  0  0  0  0  0  0
  1  2  2  0
  1  6  1  0
  1 37  1  0
  2  3  1  0
  3  4  2  0
  3  8  1  0
  4  5  1  0
  5  6  2  0
  5  7  1  0
  8  9  1  0
  8 12  1  0
  9 10  1  0
  9 36  2  0
 11 10  1  6
 10 35  1  0
 11 12  1  0
 11 14  1  0
 11 17  1  0
 12 13  2  0
 14 15  1  0
 15 16  1  0
 15 26  1  0
 16 17  1  0
 17 18  1  0
 18 19  2  0
 18 23  1  0
 19 20  1  0
 20 21  2  0
 21 22  1  0
 21 24  1  0
 22 23  2  0
 24 25  3  0
 26 27  2  0
 26 31  1  0
 27 28  1  0
 28 29  2  0
 29 30  1  0
 29 32  1  0
 30 31  2  0
 32 33  2  0
 32 34  1  0
  2 38  1  0
  4 39  1  0
  6 40  1  0
 14 41  1  0
 14 42  1  0
 16 43  1  0
 16 44  1  0
 17 45  1  6
 19 46  1  0
 20 47  1  0
 22 48  1  0
 23 49  1  0
 28 50  1  0
 30 51  1  0
 31 52  1  0
 35 53  1  0
 35 54  1  0
 35 55  1  0
M  CHG  1  34  -1
M  END
>  <filename_input>  (11) 
7KC5_BJZ_docked.sdf

>  <pdb_id>  (11) 
7KC5_BJZ

>  <pose_rank>  (11) 
10

>  <num_atoms_heavy>  (11) 
37

>  <num_torsions>  (11) 
4

>  <pose>  (11) 
[-4.43233143645871, -17.51131025967913, 17.932529689586655, 2.515212897325444, 0.2828520988966483, 0.35861708060390257, 1.2622541072690507, -0.7377984440417612, -2.584526483573133, 1.5057652684024638]

>  <energy>  (11) 
-497.8854301330182

>  <inter_energy>  (11) 
-613.9015282984187

>  <intra_energy>  (11) 
113.42053708229216

>  <rmsd>  (11) 
5.6535

>  <sdf_rank>  (11) 
0

$$$$

     RDKit          3D

 55 59  0  0  0  0  0  0  0  0999 V2000
   -7.6664  -22.4582   15.1298 C   0  0  0  0  0  0  0  0  0  0  0  0
   -6.4097  -22.0965   15.5533 C   0  0  0  0  0  0  0  0  0  0  0  0
   -6.1946  -20.7654   15.9197 C   0  0  0  0  0  0  0  0  0  0  0  0
   -7.2312  -19.8544   15.9162 C   0  0  0  0  0  0  0  0  0  0  0  0
   -8.4774  -20.2763   15.4940 C   0  0  0  0  0  0  0  0  0  0  0  0
   -8.7110  -21.5886   15.1280 C   0  0  0  0  0  0  0  0  0  0  0  0
   -9.8401  -19.1590   15.4504 Cl  0  0  0  0  0  0  0  0  0  0  0  0
   -4.9188  -20.2783   16.4270 N   0  0  0  0  0  0  0  0  0  0  0  0
   -4.2430  -20.9547   17.5513 C   0  0  0  0  0  0  0  0  0  0  0  0
   -3.0566  -20.1467   17.8419 N   0  0  0  0  0  0  0  0  0  0  0  0
   -3.0526  -18.9447   16.9985 C   0  0  2  0  0  0  0  0  0  0  0  0
   -4.2210  -19.0945   16.0261 C   0  0  0  0  0  0  0  0  0  0  0  0
   -4.6141  -18.4324   15.1502 O   0  0  0  0  0  0  0  0  0  0  0  0
   -1.5831  -18.7180   16.2774 C   0  0  0  0  0  0  0  0  0  0  0  0
   -1.6061  -17.3754   16.1205 N   0  0  0  0  0  0  0  0  0  0  0  0
   -2.7057  -16.5773   16.9216 C   0  0  0  0  0  0  0  0  0  0  0  0
   -3.2223  -17.8225   17.7952 C   0  0  1  0  0  0  0  0  0  0  0  0
   -4.7192  -17.5716   18.2631 C   0  0  0  0  0  0  0  0  0  0  0  0
   -5.1124  -18.1384   19.4566 C   0  0  0  0  0  0  0  0  0  0  0  0
   -6.4238  -17.9726   19.8941 C   0  0  0  0  0  0  0  0  0  0  0  0
   -7.3318  -17.2349   19.1571 C   0  0  0  0  0  0  0  0  0  0  0  0
   -6.9283  -16.6428   17.9551 C   0  0  0  0  0  0  0  0  0  0  0  0
   -5.6195  -16.8191   17.5403 C   0  0  0  0  0  0  0  0  0  0  0  0
   -8.7540  -17.0755   19.6987 C   0  0  0  0  0  0  0  0  0  0  0  0
   -9.7840  -16.9709   20.0856 N   0  0  0  0  0  0  0  0  0  0  0  0
   -0.3827  -16.7476   15.6712 C   0  0  0  0  0  0  0  0  0  0  0  0
    0.5310  -17.5701   15.1738 N   0  0  0  0  0  0  0  0  0  0  0  0
    1.6856  -17.0331   14.7185 C   0  0  0  0  0  0  0  0  0  0  0  0
    1.8795  -15.6815   14.7904 C   0  0  0  0  0  0  0  0  0  0  0  0
    0.9269  -14.8354   15.2727 C   0  0  0  0  0  0  0  0  0  0  0  0
   -0.2296  -15.3607   15.7259 C   0  0  0  0  0  0  0  0  0  0  0  0
    3.1835  -15.1044   14.2491 C   0  0  0  0  0  0  0  0  0  0  0  0
    4.1790  -15.1052   15.0015 O   0  0  0  0  0  0  0  0  0  0  0  0
    3.2131  -14.6127   13.0955 O   0  0  0  0  0  0  0  0  0  0  0  0
   -2.1385  -20.4748   18.9058 C   0  0  0  0  0  0  0  0  0  0  0  0
   -4.6244  -21.9513   18.0641 O   0  0  0  0  0  0  0  0  0  0  0  0
   -7.9037  -24.1091   14.6369 Cl  0  0  0  0  0  0  0  0  0  0  0  0
   -5.5957  -22.8347   15.6023 H   0  0  0  0  0  0  0  0  0  0  0  0
   -7.0691  -18.8163   16.2418 H   0  0  0  0  0  0  0  0  0  0  0  0
   -9.7195  -21.9216   14.8417 H   0  0  0  0  0  0  0  0  0  0  0  0
   -0.7554  -19.0395   16.9267 H   0  0  0  0  0  0  0  0  0  0  0  0
   -1.4267  -19.2912   15.3517 H   0  0  0  0  0  0  0  0  0  0  0  0
   -2.2800  -15.7731   17.5397 H   0  0  0  0  0  0  0  0  0  0  0  0
   -3.4585  -16.0342   16.3313 H   0  0  0  0  0  0  0  0  0  0  0  0
   -2.6575  -17.9628   18.7286 H   0  0  0  0  0  0  0  0  0  0  0  0
   -4.3960  -18.7169   20.0583 H   0  0  0  0  0  0  0  0  0  0  0  0
   -6.7422  -18.4354   20.8399 H   0  0  0  0  0  0  0  0  0  0  0  0
   -7.6346  -16.0513   17.3540 H   0  0  0  0  0  0  0  0  0  0  0  0
   -5.2880  -16.3441   16.6052 H   0  0  0  0  0  0  0  0  0  0  0  0
    2.4656  -17.6809   14.2920 H   0  0  0  0  0  0  0  0  0  0  0  0
    1.0971  -13.7488   15.2920 H   0  0  0  0  0  0  0  0  0  0  0  0
   -1.0270  -14.7171   16.1259 H   0  0  0  0  0  0  0  0  0  0  0  0
   -2.6252  -20.3008   19.8768 H   0  0  0  0  0  0  0  0  0  0  0  0
   -1.8474  -21.5326   18.8257 H   0  0  0  0  0  0  0  0  0  0  0  0
   -1.2430  -19.8410   18.8257 H   0  0  0  0  0  0  0  0  0  0  0  0
  1  2  2  0
  1  6  1  0
  1 37  1  0
  2  3  1  0
  3  4  2  0
  3  8  1  0
  4  5  1  0
  5  6  2  0
  5  7  1  0
  8  9  1  0
  8 12  1  0
  9 10  1  0
  9 36  2  0
 11 10  1  1
 10 35  1  0
 11 12  1  0
 11 14  1  0
 11 17  1  0
 12 13  2  0
 14 15  1  0
 15 16  1  0
 15 26  1  0
 16 17  1  0
 17 18  1  0
 18 19  2  0
 18 23  1  0
 19 20  1  0
 20 21  2  0
 21 22  1  0
 21 24  1  0
 22 23  2  0
 24 25  3  0
 26 27  2  0
 26 31  1  0
 27 28  1  0
 28 29  2  0
 29 30  1  0
 29 32  1  0
 30 31  2  0
 32 33  2  0
 32 34  1  0
  2 38  1  0
  4 39  1  0
  6 40  1  0
 14 41  1  0
 14 42  1  0
 16 43  1  0
 16 44  1  0
 17 45  1  1
 19 46  1  0
 20 47  1  0
 22 48  1  0
 23 49  1  0
 28 50  1  0
 30 51  1  0
 31 52  1  0
 35 53  1  0
 35 54  1  0
 35 55  1  0
M  CHG  1  34  -1
M  END
>  <filename_input>  (12) 
7KC5_BJZ_docked.sdf

>  <pdb_id>  (12) 
7KC5_BJZ

>  <pose_rank>  (12) 
11

>  <num_atoms_heavy>  (12) 
37

>  <num_torsions>  (12) 
4

>  <pose>  (12) 
[-4.91877964171566, -20.278301417543947, 16.426970788248635, -0.09384817669949638, -0.017582122008005824, 0.08061005932079177, -0.11620162996935271, -0.021339020051030805, 0.5505845269528806, 1.7456515006548707]

>  <energy>  (12) 
-848.7553149625572

>  <inter_energy>  (12) 
-899.2197457437915

>  <intra_energy>  (12) 
49.07414841665301

>  <rmsd>  (12) 
0.953471

>  <sdf_rank>  (12) 
0

$$$$

     RDKit          3D

 55 59  0  0  0  0  0  0  0  0999 V2000
   -8.1626  -20.4770   15.0918 C   0  0  0  0  0  0  0  0  0  0  0  0
   -6.9639  -20.0914   15.6431 C   0  0  0  0  0  0  0  0  0  0  0  0
   -6.0422  -21.0861   15.9800 C   0  0  0  0  0  0  0  0  0  0  0  0
   -6.3034  -22.4137   15.7085 C   0  0  0  0  0  0  0  0  0  0  0  0
   -7.5193  -22.7430   15.1407 C   0  0  0  0  0  0  0  0  0  0  0  0
   -8.4442  -21.7742   14.7995 C   0  0  0  0  0  0  0  0  0  0  0  0
   -7.9219  -24.4216   14.7833 Cl  0  0  0  0  0  0  0  0  0  0  0  0
   -4.7238  -20.7940   16.5264 N   0  0  0  0  0  0  0  0  0  0  0  0
   -4.1451  -21.6302   17.5961 C   0  0  0  0  0  0  0  0  0  0  0  0
   -2.8752  -20.9931   17.9512 N   0  0  0  0  0  0  0  0  0  0  0  0
   -2.7201  -19.7386   17.2039 C   0  0  2  0  0  0  0  0  0  0  0  0
   -3.8869  -19.6737   16.2203 C   0  0  0  0  0  0  0  0  0  0  0  0
   -4.1893  -18.9041   15.3979 O   0  0  0  0  0  0  0  0  0  0  0  0
   -1.2260  -19.6325   16.5059 C   0  0  0  0  0  0  0  0  0  0  0  0
   -1.0889  -18.2885   16.4540 N   0  0  0  0  0  0  0  0  0  0  0  0
   -2.0958  -17.4300   17.3124 C   0  0  0  0  0  0  0  0  0  0  0  0
   -2.7654  -18.6690   18.0853 C   0  0  1  0  0  0  0  0  0  0  0  0
   -4.2275  -18.2795   18.5682 C   0  0  0  0  0  0  0  0  0  0  0  0
   -4.7616  -17.1045   18.0841 C   0  0  0  0  0  0  0  0  0  0  0  0
   -6.0280  -16.7046   18.5024 C   0  0  0  0  0  0  0  0  0  0  0  0
   -6.7631  -17.4765   19.3830 C   0  0  0  0  0  0  0  0  0  0  0  0
   -6.2298  -18.6792   19.8599 C   0  0  0  0  0  0  0  0  0  0  0  0
   -4.9700  -19.0581   19.4294 C   0  0  0  0  0  0  0  0  0  0  0  0
   -8.1554  -16.9914   19.7927 C   0  0  0  0  0  0  0  0  0  0  0  0
   -9.1565  -16.6367   20.0985 N   0  0  0  0  0  0  0  0  0  0  0  0
    0.2049  -17.7771   16.0575 C   0  0  0  0  0  0  0  0  0  0  0  0
    1.0210  -18.6612   15.4995 N   0  0  0  0  0  0  0  0  0  0  0  0
    2.2358  -18.2310   15.0898 C   0  0  0  0  0  0  0  0  0  0  0  0
    2.5868  -16.9215   15.2672 C   0  0  0  0  0  0  0  0  0  0  0  0
    1.7351  -16.0083   15.8119 C   0  0  0  0  0  0  0  0  0  0  0  0
    0.5197  -16.4264   16.2204 C   0  0  0  0  0  0  0  0  0  0  0  0
    3.9557  -16.4627   14.7753 C   0  0  0  0  0  0  0  0  0  0  0  0
    4.4781  -17.0915   13.8324 O   0  0  0  0  0  0  0  0  0  0  0  0
    4.5329  -15.5073   15.3476 O   0  0  0  0  0  0  0  0  0  0  0  0
   -2.0142  -21.5085   18.9882 C   0  0  0  0  0  0  0  0  0  0  0  0
   -4.6471  -22.6112   18.0289 O   0  0  0  0  0  0  0  0  0  0  0  0
   -9.3141  -19.2281   14.7192 Cl  0  0  0  0  0  0  0  0  0  0  0  0
   -6.7365  -19.0289   15.8143 H   0  0  0  0  0  0  0  0  0  0  0  0
   -5.5608  -23.1918   15.9389 H   0  0  0  0  0  0  0  0  0  0  0  0
   -9.3870  -22.0469   14.3026 H   0  0  0  0  0  0  0  0  0  0  0  0
   -0.4493  -20.0988   17.1299 H   0  0  0  0  0  0  0  0  0  0  0  0
   -1.1278  -20.1470   15.5386 H   0  0  0  0  0  0  0  0  0  0  0  0
   -1.5854  -16.7319   17.9922 H   0  0  0  0  0  0  0  0  0  0  0  0
   -2.7727  -16.7578   16.7647 H   0  0  0  0  0  0  0  0  0  0  0  0
   -2.2316  -18.9467   19.0062 H   0  0  0  0  0  0  0  0  0  0  0  0
   -4.1919  -16.4880   17.3732 H   0  0  0  0  0  0  0  0  0  0  0  0
   -6.4498  -15.7606   18.1268 H   0  0  0  0  0  0  0  0  0  0  0  0
   -6.7983  -19.3085   20.5604 H   0  0  0  0  0  0  0  0  0  0  0  0
   -4.5487  -20.0097   19.7855 H   0  0  0  0  0  0  0  0  0  0  0  0
    2.9388  -18.9318   14.6158 H   0  0  0  0  0  0  0  0  0  0  0  0
    2.0319  -14.9542   15.9161 H   0  0  0  0  0  0  0  0  0  0  0  0
   -0.2007  -15.7258   16.6676 H   0  0  0  0  0  0  0  0  0  0  0  0
   -2.4349  -21.2567   19.9729 H   0  0  0  0  0  0  0  0  0  0  0  0
   -1.9370  -22.6015   18.8911 H   0  0  0  0  0  0  0  0  0  0  0  0
   -1.0143  -21.0603   18.8911 H   0  0  0  0  0  0  0  0  0  0  0  0
  1  2  2  0
  1  6  1  0
  1 37  1  0
  2  3  1  0
  3  4  2  0
  3  8  1  0
  4  5  1  0
  5  6  2  0
  5  7  1  0
  8  9  1  0
  8 12  1  0
  9 10  1  0
  9 36  2  0
 11 10  1  1
 10 35  1  0
 11 12  1  0
 11 14  1  0
 11 17  1  0
 12 13  2  0
 14 15  1  0
 15 16  1  0
 15 26  1  0
 16 17  1  0
 17 18  1  0
 18 19  2  0
 18 23  1  0
 19 20  1  0
 20 21  2  0
 21 22  1  0
 21 24  1  0
 22 23  2  0
 24 25  3  0
 26 27  2  0
 26 31  1  0
 27 28  1  0
 28 29  2  0
 29 30  1  0
 29 32  1  0
 30 31  2  0
 32 33  2  0
 32 34  1  0
  2 38  1  0
  4 39  1  0
  6 40  1  0
 14 41  1  0
 14 42  1  0
 16 43  1  0
 16 44  1  0
 17 45  1  1
 19 46  1  0
 20 47  1  0
 22 48  1  0
 23 49  1  0
 28 50  1  0
 30 51  1  0
 31 52  1  0
 35 53  1  0
 35 54  1  0
 35 55  1  0
M  CHG  1  34  -1
M  END
>  <filename_input>  (13) 
7KC5_BJZ_docked.sdf

>  <pdb_id>  (13) 
7KC5_BJZ

>  <pose_rank>  (13) 
12

>  <num_atoms_heavy>  (13) 
37

>  <num_torsions>  (13) 
4

>  <pose>  (13) 
[-4.723750708683883, -20.793953137432368, 16.52636697294909, -2.2980279510584234, -2.8936154851233105, -5.1407082122276595, -3.040135922241755, -3.4996363575105414, 0.2520521237963905, 3.6750844661571644]

>  <energy>  (13) 
-708.1289409885459

>  <inter_energy>  (13) 
-765.9533706632742

>  <intra_energy>  (13) 
59.52266018563198

>  <rmsd>  (13) 
0.98288

>  <sdf_rank>  (13) 
0

$$$$

     RDKit          3D

 55 59  0  0  0  0  0  0  0  0999 V2000
   -5.0879  -15.9379   18.8809 C   0  0  0  0  0  0  0  0  0  0  0  0
   -3.9669  -16.6927   19.1315 C   0  0  0  0  0  0  0  0  0  0  0  0
   -3.5723  -17.6273   18.1705 C   0  0  0  0  0  0  0  0  0  0  0  0
   -4.2534  -17.7441   16.9760 C   0  0  0  0  0  0  0  0  0  0  0  0
   -5.3657  -16.9502   16.7716 C   0  0  0  0  0  0  0  0  0  0  0  0
   -5.7720  -16.0194   17.7092 C   0  0  0  0  0  0  0  0  0  0  0  0
   -6.2895  -17.0615   15.2744 Cl  0  0  0  0  0  0  0  0  0  0  0  0
   -2.3769  -18.4487   18.3064 N   0  0  0  0  0  0  0  0  0  0  0  0
   -1.3541  -18.4791   17.2427 C   0  0  0  0  0  0  0  0  0  0  0  0
   -0.3626  -19.4654   17.6772 N   0  0  0  0  0  0  0  0  0  0  0  0
   -0.8100  -20.1093   18.9187 C   0  0  2  0  0  0  0  0  0  0  0  0
   -2.0742  -19.3724   19.3571 C   0  0  0  0  0  0  0  0  0  0  0  0
   -2.7764  -19.4827   20.2817 O   0  0  0  0  0  0  0  0  0  0  0  0
    0.3941  -20.1414   20.0500 C   0  0  0  0  0  0  0  0  0  0  0  0
    0.0203  -21.2321   20.7561 N   0  0  0  0  0  0  0  0  0  0  0  0
   -1.0617  -22.1751   20.1020 C   0  0  0  0  0  0  0  0  0  0  0  0
   -1.0858  -21.4456   18.6710 C   0  0  1  0  0  0  0  0  0  0  0  0
   -2.4793  -21.7050   17.9544 C   0  0  0  0  0  0  0  0  0  0  0  0
   -3.5951  -21.8029   18.7578 C   0  0  0  0  0  0  0  0  0  0  0  0
   -4.8350  -22.0606   18.1791 C   0  0  0  0  0  0  0  0  0  0  0  0
   -4.9652  -22.2035   16.8100 C   0  0  0  0  0  0  0  0  0  0  0  0
   -3.8362  -22.0849   15.9918 C   0  0  0  0  0  0  0  0  0  0  0  0
   -2.6141  -21.8268   16.5884 C   0  0  0  0  0  0  0  0  0  0  0  0
   -6.3571  -22.4696   16.2325 C   0  0  0  0  0  0  0  0  0  0  0  0
   -7.3664  -22.6640   15.8262 N   0  0  0  0  0  0  0  0  0  0  0  0
    0.9468  -21.7129   21.7575 C   0  0  0  0  0  0  0  0  0  0  0  0
    1.9167  -20.8710   22.0882 N   0  0  0  0  0  0  0  0  0  0  0  0
    2.7983  -21.2617   23.0364 C   0  0  0  0  0  0  0  0  0  0  0  0
    2.6731  -22.4958   23.6115 C   0  0  0  0  0  0  0  0  0  0  0  0
    1.6577  -23.3463   23.2929 C   0  0  0  0  0  0  0  0  0  0  0  0
    0.7710  -22.9646   22.3511 C   0  0  0  0  0  0  0  0  0  0  0  0
    3.6707  -22.8984   24.6928 C   0  0  0  0  0  0  0  0  0  0  0  0
    3.9629  -22.0520   25.5619 O   0  0  0  0  0  0  0  0  0  0  0  0
    4.1966  -24.0368   24.6594 O   0  0  0  0  0  0  0  0  0  0  0  0
    0.7956  -19.7996   16.8839 C   0  0  0  0  0  0  0  0  0  0  0  0
   -1.3790  -17.8101   16.2663 O   0  0  0  0  0  0  0  0  0  0  0  0
   -5.5881  -14.8109   20.1074 Cl  0  0  0  0  0  0  0  0  0  0  0  0
   -3.3960  -16.5647   20.0629 H   0  0  0  0  0  0  0  0  0  0  0  0
   -3.9186  -18.4530   16.2044 H   0  0  0  0  0  0  0  0  0  0  0  0
   -6.6297  -15.3596   17.5116 H   0  0  0  0  0  0  0  0  0  0  0  0
    1.3843  -20.2723   19.5893 H   0  0  0  0  0  0  0  0  0  0  0  0
    0.5007  -19.2197   20.6410 H   0  0  0  0  0  0  0  0  0  0  0  0
   -0.7295  -23.2218   20.0389 H   0  0  0  0  0  0  0  0  0  0  0  0
   -2.0223  -22.2743   20.6287 H   0  0  0  0  0  0  0  0  0  0  0  0
   -0.3339  -21.8378   17.9703 H   0  0  0  0  0  0  0  0  0  0  0  0
   -3.5067  -21.6785   19.8472 H   0  0  0  0  0  0  0  0  0  0  0  0
   -5.7240  -22.1518   18.8204 H   0  0  0  0  0  0  0  0  0  0  0  0
   -3.9179  -22.1943   14.9003 H   0  0  0  0  0  0  0  0  0  0  0  0
   -1.7234  -21.7154   15.9526 H   0  0  0  0  0  0  0  0  0  0  0  0
    3.6129  -20.5893   23.3437 H   0  0  0  0  0  0  0  0  0  0  0  0
    1.5632  -24.3218   23.7923 H   0  0  0  0  0  0  0  0  0  0  0  0
   -0.0641  -23.6186   22.0598 H   0  0  0  0  0  0  0  0  0  0  0  0
    1.6377  -20.0425   17.5486 H   0  0  0  0  0  0  0  0  0  0  0  0
    0.5671  -20.6684   16.2491 H   0  0  0  0  0  0  0  0  0  0  0  0
    1.0650  -18.9425   16.2491 H   0  0  0  0  0  0  0  0  0  0  0  0
  1  2  2  0
  1  6  1  0
  1 37  1  0
  2  3  1  0
  3  4  2  0
  3  8  1  0
  4  5  1  0
  5  6  2  0
  5  7  1  0
  8  9  1  0
  8 12  1  0
  9 10  1  0
  9 36  2  0
 11 10  1  6
 10 35  1  0
 11 12  1  0
 11 14  1  0
 11 17  1  0
 12 13  2  0
 14 15  1  0
 15 16  1  0
 15 26  1  0
 16 17  1  0
 17 18  1  0
 18 19  2  0
 18 23  1  0
 19 20  1  0
 20 21  2  0
 21 22  1  0
 21 24  1  0
 22 23  2  0
 24 25  3  0
 26 27  2  0
 26 31  1  0
 27 28  1  0
 28 29  2  0
 29 30  1  0
 29 32  1  0
 30 31  2  0
 32 33  2  0
 32 34  1  0
  2 38  1  0
  4 39  1  0
  6 40  1  0
 14 41  1  0
 14 42  1  0
 16 43  1  0
 16 44  1  0
 17 45  1  6
 19 46  1  0
 20 47  1  0
 22 48  1  0
 23 49  1  0
 28 50  1  0
 30 51  1  0
 31 52  1  0
 35 53  1  0
 35 54  1  0
 35 55  1  0
M  CHG  1  34  -1
M  END
>  <filename_input>  (14) 
7KC5_BJZ_docked.sdf

>  <pdb_id>  (14) 
7KC5_BJZ

>  <pose_rank>  (14) 
13

>  <num_atoms_heavy>  (14) 
37

>  <num_torsions>  (14) 
4

>  <pose>  (14) 
[-2.376856039525354, -18.44868615578309, 18.306410379093986, -3.6301586846464313, 0.5407506199272444, -0.4645435985562193, -1.4165189621272412, 3.1866394732983254, 1.770377600489127, 10.257096608381303]

>  <energy>  (14) 
-256.740841821775

>  <inter_energy>  (14) 
-317.57171267916567

>  <intra_energy>  (14) 
57.003329167607525

>  <rmsd>  (14) 
6.95919

>  <sdf_rank>  (14) 
0

$$$$

     RDKit          3D

 55 59  0  0  0  0  0  0  0  0999 V2000
   -8.8429  -20.0321   15.3294 C   0  0  0  0  0  0  0  0  0  0  0  0
   -7.6532  -19.5993   15.8647 C   0  0  0  0  0  0  0  0  0  0  0  0
   -6.6190  -20.5276   16.0112 C   0  0  0  0  0  0  0  0  0  0  0  0
   -6.7679  -21.8274   15.5722 C   0  0  0  0  0  0  0  0  0  0  0  0
   -7.9813  -22.2043   15.0291 C   0  0  0  0  0  0  0  0  0  0  0  0
   -9.0164  -21.3014   14.8751 C   0  0  0  0  0  0  0  0  0  0  0  0
   -8.2423  -23.8535   14.4639 Cl  0  0  0  0  0  0  0  0  0  0  0  0
   -5.3016  -20.1737   16.5224 N   0  0  0  0  0  0  0  0  0  0  0  0
   -4.6400  -21.0025   17.5489 C   0  0  0  0  0  0  0  0  0  0  0  0
   -3.3972  -20.3022   17.8803 N   0  0  0  0  0  0  0  0  0  0  0  0
   -3.3397  -19.0217   17.1639 C   0  0  2  0  0  0  0  0  0  0  0  0
   -4.5411  -18.9991   16.2209 C   0  0  0  0  0  0  0  0  0  0  0  0
   -4.9149  -18.2272   15.4306 O   0  0  0  0  0  0  0  0  0  0  0  0
   -1.8788  -18.8108   16.4210 C   0  0  0  0  0  0  0  0  0  0  0  0
   -1.8206  -17.4602   16.4023 N   0  0  0  0  0  0  0  0  0  0  0  0
   -2.8452  -16.6844   17.3167 C   0  0  0  0  0  0  0  0  0  0  0  0
   -3.4161  -17.9799   18.0759 C   0  0  1  0  0  0  0  0  0  0  0  0
   -4.8808  -17.6888   18.6167 C   0  0  0  0  0  0  0  0  0  0  0  0
   -5.5073  -16.5477   18.1635 C   0  0  0  0  0  0  0  0  0  0  0  0
   -6.7800  -16.2330   18.6325 C   0  0  0  0  0  0  0  0  0  0  0  0
   -7.4300  -17.0565   19.5332 C   0  0  0  0  0  0  0  0  0  0  0  0
   -6.8028  -18.2253   19.9790 C   0  0  0  0  0  0  0  0  0  0  0  0
   -5.5385  -18.5193   19.4982 C   0  0  0  0  0  0  0  0  0  0  0  0
   -8.8340  -16.6650   19.9991 C   0  0  0  0  0  0  0  0  0  0  0  0
   -9.8435  -16.3777   20.3454 N   0  0  0  0  0  0  0  0  0  0  0  0
   -0.5724  -16.8644   15.9786 C   0  0  0  0  0  0  0  0  0  0  0  0
    0.2734  -17.6846   15.3698 N   0  0  0  0  0  0  0  0  0  0  0  0
    1.4470  -17.1740   14.9331 C   0  0  0  0  0  0  0  0  0  0  0  0
    1.7283  -15.8514   15.1356 C   0  0  0  0  0  0  0  0  0  0  0  0
    0.8448  -15.0038   15.7331 C   0  0  0  0  0  0  0  0  0  0  0  0
   -0.3300  -15.5024   16.1689 C   0  0  0  0  0  0  0  0  0  0  0  0
    3.0513  -15.3012   14.6125 C   0  0  0  0  0  0  0  0  0  0  0  0
    3.5795  -15.8775   13.6398 O   0  0  0  0  0  0  0  0  0  0  0  0
    3.5889  -14.3253   15.1888 O   0  0  0  0  0  0  0  0  0  0  0  0
   -2.4734  -20.7936   18.8740 C   0  0  0  0  0  0  0  0  0  0  0  0
   -5.0700  -22.0220   17.9701 O   0  0  0  0  0  0  0  0  0  0  0  0
  -10.1322  -18.8727   15.1950 Cl  0  0  0  0  0  0  0  0  0  0  0  0
   -7.5188  -18.5510   16.1696 H   0  0  0  0  0  0  0  0  0  0  0  0
   -5.9397  -22.5468   15.6528 H   0  0  0  0  0  0  0  0  0  0  0  0
   -9.9593  -21.6031   14.3956 H   0  0  0  0  0  0  0  0  0  0  0  0
   -1.0559  -19.2473   17.0061 H   0  0  0  0  0  0  0  0  0  0  0  0
   -1.7843  -19.2933   15.4370 H   0  0  0  0  0  0  0  0  0  0  0  0
   -2.3527  -15.9758   17.9989 H   0  0  0  0  0  0  0  0  0  0  0  0
   -3.5776  -16.0386   16.8103 H   0  0  0  0  0  0  0  0  0  0  0  0
   -2.8363  -18.2501   18.9708 H   0  0  0  0  0  0  0  0  0  0  0  0
   -5.0059  -15.8910   17.4373 H   0  0  0  0  0  0  0  0  0  0  0  0
   -7.2756  -15.3159   18.2814 H   0  0  0  0  0  0  0  0  0  0  0  0
   -7.3026  -18.8946   20.6947 H   0  0  0  0  0  0  0  0  0  0  0  0
   -5.0436  -19.4440   19.8298 H   0  0  0  0  0  0  0  0  0  0  0  0
    2.1724  -17.8202   14.4170 H   0  0  0  0  0  0  0  0  0  0  0  0
    1.0842  -13.9374   15.8571 H   0  0  0  0  0  0  0  0  0  0  0  0
   -1.0737  -14.8567   16.6588 H   0  0  0  0  0  0  0  0  0  0  0  0
   -2.8691  -20.5831   19.8785 H   0  0  0  0  0  0  0  0  0  0  0  0
   -2.3452  -21.8791   18.7505 H   0  0  0  0  0  0  0  0  0  0  0  0
   -1.5016  -20.2933   18.7505 H   0  0  0  0  0  0  0  0  0  0  0  0
  1  2  2  0
  1  6  1  0
  1 37  1  0
  2  3  1  0
  3  4  2  0
  3  8  1  0
  4  5  1  0
  5  6  2  0
  5  7  1  0
  8  9  1  0
  8 12  1  0
  9 10  1  0
  9 36  2  0
 11 10  1  1
 10 35  1  0
 11 12  1  0
 11 14  1  0
 11 17  1  0
 12 13  2  0
 14 15  1  0
 15 16  1  0
 15 26  1  0
 16 17  1  0
 17 18  1  0
 18 19  2  0
 18 23  1  0
 19 20  1  0
 20 21  2  0
 21 22  1  0
 21 24  1  0
 22 23  2  0
 24 25  3  0
 26 27  2  0
 26 31  1  0
 27 28  1  0
 28 29  2  0
 29 30  1  0
 29 32  1  0
 30 31  2  0
 32 33  2  0
 32 34  1  0
  2 38  1  0
  4 39  1  0
  6 40  1  0
 14 41  1  0
 14 42  1  0
 16 43  1  0
 16 44  1  0
 17 45  1  1
 19 46  1  0
 20 47  1  0
 22 48  1  0
 23 49  1  0
 28 50  1  0
 30 51  1  0
 31 52  1  0
 35 53  1  0
 35 54  1  0
 35 55  1  0
M  CHG  1  34  -1
M  END
>  <filename_input>  (15) 
7KC5_BJZ_docked.sdf

>  <pdb_id>  (15) 
7KC5_BJZ

>  <pose_rank>  (15) 
14

>  <num_atoms_heavy>  (15) 
37

>  <num_torsions>  (15) 
4

>  <pose>  (15) 
[-5.301604911284932, -20.173678826385895, 16.522434982466336, -2.5226990024167226, -2.9708758191825497, -4.897452783877337, -3.1609952212805323, -3.4785893150151272, 0.25220613531324604, 3.669511031013977]

>  <energy>  (15) 
-813.3660098785192

>  <inter_energy>  (15) 
-868.314612692617

>  <intra_energy>  (15) 
53.17655217337817

>  <rmsd>  (15) 
1.03417

>  <sdf_rank>  (15) 
0

$$$$

     RDKit          3D

 55 59  0  0  0  0  0  0  0  0999 V2000
   -8.6205  -18.0734   17.0905 C   0  0  0  0  0  0  0  0  0  0  0  0
   -7.2566  -18.1560   16.9411 C   0  0  0  0  0  0  0  0  0  0  0  0
   -6.4501  -17.7451   18.0057 C   0  0  0  0  0  0  0  0  0  0  0  0
   -7.0090  -17.3275   19.1963 C   0  0  0  0  0  0  0  0  0  0  0  0
   -8.3863  -17.2772   19.2955 C   0  0  0  0  0  0  0  0  0  0  0  0
   -9.2016  -17.6797   18.2544 C   0  0  0  0  0  0  0  0  0  0  0  0
   -9.1636  -16.7379   20.7829 Cl  0  0  0  0  0  0  0  0  0  0  0  0
   -4.9961  -17.8307   17.9787 N   0  0  0  0  0  0  0  0  0  0  0  0
   -4.2310  -17.3535   16.8103 C   0  0  0  0  0  0  0  0  0  0  0  0
   -2.8319  -17.6789   17.0955 N   0  0  0  0  0  0  0  0  0  0  0  0
   -2.7412  -18.4340   18.3515 C   0  0  2  0  0  0  0  0  0  0  0  0
   -4.1452  -18.4437   18.9530 C   0  0  0  0  0  0  0  0  0  0  0  0
   -4.5812  -18.8796   19.9430 O   0  0  0  0  0  0  0  0  0  0  0  0
   -1.5727  -17.8170   19.3438 C   0  0  0  0  0  0  0  0  0  0  0  0
   -1.2503  -18.9288   20.0422 N   0  0  0  0  0  0  0  0  0  0  0  0
   -1.7601  -20.3083   19.4721 C   0  0  0  0  0  0  0  0  0  0  0  0
   -2.3173  -19.7266   18.0822 C   0  0  1  0  0  0  0  0  0  0  0  0
   -3.4502  -20.6819   17.5109 C   0  0  0  0  0  0  0  0  0  0  0  0
   -4.2446  -20.1865   16.4991 C   0  0  0  0  0  0  0  0  0  0  0  0
   -5.2715  -20.9748   15.9865 C   0  0  0  0  0  0  0  0  0  0  0  0
   -5.4951  -22.2521   16.4664 C   0  0  0  0  0  0  0  0  0  0  0  0
   -4.6769  -22.7632   17.4801 C   0  0  0  0  0  0  0  0  0  0  0  0
   -3.6611  -21.9628   17.9735 C   0  0  0  0  0  0  0  0  0  0  0  0
   -6.6289  -23.0752   15.8513 C   0  0  0  0  0  0  0  0  0  0  0  0
   -7.4549  -23.6664   15.4156 N   0  0  0  0  0  0  0  0  0  0  0  0
   -0.1020  -18.8421   20.9177 C   0  0  0  0  0  0  0  0  0  0  0  0
    0.3278  -17.6141   21.1748 N   0  0  0  0  0  0  0  0  0  0  0  0
    1.3855  -17.4743   22.0057 C   0  0  0  0  0  0  0  0  0  0  0  0
    1.9781  -18.5839   22.5415 C   0  0  0  0  0  0  0  0  0  0  0  0
    1.5154  -19.8426   22.3011 C   0  0  0  0  0  0  0  0  0  0  0  0
    0.4586  -19.9924   21.4767 C   0  0  0  0  0  0  0  0  0  0  0  0
    3.1556  -18.3920   23.4917 C   0  0  0  0  0  0  0  0  0  0  0  0
    4.0773  -17.6310   23.1329 O   0  0  0  0  0  0  0  0  0  0  0  0
    3.1895  -19.0251   24.5741 O   0  0  0  0  0  0  0  0  0  0  0  0
   -1.7650  -17.3863   16.1689 C   0  0  0  0  0  0  0  0  0  0  0  0
   -4.7063  -16.8142   15.8696 O   0  0  0  0  0  0  0  0  0  0  0  0
   -9.6067  -18.5485   15.7391 Cl  0  0  0  0  0  0  0  0  0  0  0  0
   -6.8121  -18.5351   16.0091 H   0  0  0  0  0  0  0  0  0  0  0  0
   -6.3728  -17.0411   20.0467 H   0  0  0  0  0  0  0  0  0  0  0  0
  -10.2960  -17.6813   18.3654 H   0  0  0  0  0  0  0  0  0  0  0  0
   -0.7153  -17.4295   18.7738 H   0  0  0  0  0  0  0  0  0  0  0  0
   -1.8886  -16.9593   19.9559 H   0  0  0  0  0  0  0  0  0  0  0  0
   -0.9469  -21.0357   19.3319 H   0  0  0  0  0  0  0  0  0  0  0  0
   -2.4665  -20.8763   20.0953 H   0  0  0  0  0  0  0  0  0  0  0  0
   -1.5556  -19.6909   17.2893 H   0  0  0  0  0  0  0  0  0  0  0  0
   -4.0687  -19.1766   16.1000 H   0  0  0  0  0  0  0  0  0  0  0  0
   -5.9142  -20.5756   15.1881 H   0  0  0  0  0  0  0  0  0  0  0  0
   -4.8372  -23.7771   17.8754 H   0  0  0  0  0  0  0  0  0  0  0  0
   -3.0020  -22.3613   18.7588 H   0  0  0  0  0  0  0  0  0  0  0  0
    1.7676  -16.4721   22.2495 H   0  0  0  0  0  0  0  0  0  0  0  0
    1.9926  -20.7164   22.7687 H   0  0  0  0  0  0  0  0  0  0  0  0
    0.0513  -20.9892   21.2516 H   0  0  0  0  0  0  0  0  0  0  0  0
   -0.8517  -17.1359   16.7285 H   0  0  0  0  0  0  0  0  0  0  0  0
   -1.5775  -18.2662   15.5359 H   0  0  0  0  0  0  0  0  0  0  0  0
   -2.0525  -16.5339   15.5359 H   0  0  0  0  0  0  0  0  0  0  0  0
  1  2  2  0
  1  6  1  0
  1 37  1  0
  2  3  1  0
  3  4  2  0
  3  8  1  0
  4  5  1  0
  5  6  2  0
  5  7  1  0
  8  9  1  0
  8 12  1  0
  9 10  1  0
  9 36  2  0
 11 10  1  6
 10 35  1  0
 11 12  1  0
 11 14  1  0
 11 17  1  0
 12 13  2  0
 14 15  1  0
 15 16  1  0
 15 26  1  0
 16 17  1  0
 17 18  1  0
 18 19  2  0
 18 23  1  0
 19 20  1  0
 20 21  2  0
 21 22  1  0
 21 24  1  0
 22 23  2  0
 24 25  3  0
 26 27  2  0
 26 31  1  0
 27 28  1  0
 28 29  2  0
 29 30  1  0
 29 32  1  0
 30 31  2  0
 32 33  2  0
 32 34  1  0
  2 38  1  0
  4 39  1  0
  6 40  1  0
 14 41  1  0
 14 42  1  0
 16 43  1  0
 16 44  1  0
 17 45  1  6
 19 46  1  0
 20 47  1  0
 22 48  1  0
 23 49  1  0
 28 50  1  0
 30 51  1  0
 31 52  1  0
 35 53  1  0
 35 54  1  0
 35 55  1  0
M  CHG  1  34  -1
M  END
>  <filename_input>  (16) 
7KC5_BJZ_docked.sdf

>  <pdb_id>  (16) 
7KC5_BJZ

>  <pose_rank>  (16) 
15

>  <num_atoms_heavy>  (16) 
37

>  <num_torsions>  (16) 
4

>  <pose>  (16) 
[-4.996080619715243, -17.830717368792573, 17.97872413268686, 2.6137227128787908, 0.36273600762634617, 0.3696540912764396, 1.612237134405426, -0.7945455156202307, 0.301231843131963, 2.360801931279625]

>  <energy>  (16) 
-582.07097513531

>  <inter_energy>  (16) 
-678.6000381129622

>  <intra_energy>  (16) 
107.22450570138813

>  <rmsd>  (16) 
5.64651

>  <sdf_rank>  (16) 
0

$$$$

     RDKit          3D

 55 59  0  0  0  0  0  0  0  0999 V2000
   -8.6073  -19.9595   15.2453 C   0  0  0  0  0  0  0  0  0  0  0  0
   -7.4216  -19.5090   15.7749 C   0  0  0  0  0  0  0  0  0  0  0  0
   -6.3961  -20.4358   15.9800 C   0  0  0  0  0  0  0  0  0  0  0  0
   -6.5486  -21.7544   15.6026 C   0  0  0  0  0  0  0  0  0  0  0  0
   -7.7575  -22.1493   15.0623 C   0  0  0  0  0  0  0  0  0  0  0  0
   -8.7840  -21.2482   14.8508 C   0  0  0  0  0  0  0  0  0  0  0  0
   -8.0229  -23.8223   14.5743 Cl  0  0  0  0  0  0  0  0  0  0  0  0
   -5.0830  -20.0661   16.4910 N   0  0  0  0  0  0  0  0  0  0  0  0
   -4.4135  -20.8841   17.5210 C   0  0  0  0  0  0  0  0  0  0  0  0
   -3.1785  -20.1694   17.8509 N   0  0  0  0  0  0  0  0  0  0  0  0
   -3.1339  -18.8910   17.1299 C   0  0  2  0  0  0  0  0  0  0  0  0
   -4.3348  -18.8846   16.1859 C   0  0  0  0  0  0  0  0  0  0  0  0
   -4.7160  -18.1195   15.3924 O   0  0  0  0  0  0  0  0  0  0  0  0
   -1.6747  -18.6673   16.3873 C   0  0  0  0  0  0  0  0  0  0  0  0
   -1.6309  -17.3162   16.3639 N   0  0  0  0  0  0  0  0  0  0  0  0
   -2.6644  -16.5480   17.2747 C   0  0  0  0  0  0  0  0  0  0  0  0
   -3.2222  -17.8468   18.0381 C   0  0  1  0  0  0  0  0  0  0  0  0
   -4.6904  -17.5693   18.5767 C   0  0  0  0  0  0  0  0  0  0  0  0
   -5.3624  -16.4863   18.0520 C   0  0  0  0  0  0  0  0  0  0  0  0
   -6.6404  -16.1837   18.5147 C   0  0  0  0  0  0  0  0  0  0  0  0
   -7.2504  -16.9630   19.4804 C   0  0  0  0  0  0  0  0  0  0  0  0
   -6.5766  -18.0741   19.9996 C   0  0  0  0  0  0  0  0  0  0  0  0
   -5.3080  -18.3572   19.5238 C   0  0  0  0  0  0  0  0  0  0  0  0
   -8.6623  -16.5886   19.9363 C   0  0  0  0  0  0  0  0  0  0  0  0
   -9.6776  -16.3129   20.2750 N   0  0  0  0  0  0  0  0  0  0  0  0
   -0.3888  -16.7087   15.9390 C   0  0  0  0  0  0  0  0  0  0  0  0
    0.4663  -17.5221   15.3338 N   0  0  0  0  0  0  0  0  0  0  0  0
    1.6348  -17.0006   14.8962 C   0  0  0  0  0  0  0  0  0  0  0  0
    1.9018  -15.6744   15.0942 C   0  0  0  0  0  0  0  0  0  0  0  0
    1.0088  -14.8340   15.6879 C   0  0  0  0  0  0  0  0  0  0  0  0
   -0.1610  -15.3435   16.1246 C   0  0  0  0  0  0  0  0  0  0  0  0
    3.2192  -15.1120   14.5702 C   0  0  0  0  0  0  0  0  0  0  0  0
    3.7908  -15.7274   13.6473 O   0  0  0  0  0  0  0  0  0  0  0  0
    3.7099  -14.0856   15.0985 O   0  0  0  0  0  0  0  0  0  0  0  0
   -2.2503  -20.6475   18.8471 C   0  0  0  0  0  0  0  0  0  0  0  0
   -4.8329  -21.9066   17.9455 O   0  0  0  0  0  0  0  0  0  0  0  0
   -9.8864  -18.7996   15.0377 Cl  0  0  0  0  0  0  0  0  0  0  0  0
   -7.2837  -18.4480   16.0303 H   0  0  0  0  0  0  0  0  0  0  0  0
   -5.7267  -22.4745   15.7290 H   0  0  0  0  0  0  0  0  0  0  0  0
   -9.7227  -21.5668   14.3741 H   0  0  0  0  0  0  0  0  0  0  0  0
   -0.8478  -19.0929   16.9747 H   0  0  0  0  0  0  0  0  0  0  0  0
   -1.5743  -19.1523   15.4052 H   0  0  0  0  0  0  0  0  0  0  0  0
   -2.1800  -15.8318   17.9546 H   0  0  0  0  0  0  0  0  0  0  0  0
   -3.4033  -15.9119   16.7653 H   0  0  0  0  0  0  0  0  0  0  0  0
   -2.6402  -18.1076   18.9344 H   0  0  0  0  0  0  0  0  0  0  0  0
   -4.8931  -15.8660   17.2742 H   0  0  0  0  0  0  0  0  0  0  0  0
   -7.1725  -15.3120   18.1061 H   0  0  0  0  0  0  0  0  0  0  0  0
   -7.0441  -18.7076   20.7678 H   0  0  0  0  0  0  0  0  0  0  0  0
   -4.7765  -19.2379   19.9135 H   0  0  0  0  0  0  0  0  0  0  0  0
    2.3674  -17.6409   14.3831 H   0  0  0  0  0  0  0  0  0  0  0  0
    1.2368  -13.7647   15.8083 H   0  0  0  0  0  0  0  0  0  0  0  0
   -0.9120  -14.7040   16.6115 H   0  0  0  0  0  0  0  0  0  0  0  0
   -2.6509  -20.4411   19.8505 H   0  0  0  0  0  0  0  0  0  0  0  0
   -2.1074  -21.7313   18.7250 H   0  0  0  0  0  0  0  0  0  0  0  0
   -1.2850  -20.1344   18.7250 H   0  0  0  0  0  0  0  0  0  0  0  0
  1  2  2  0
  1  6  1  0
  1 37  1  0
  2  3  1  0
  3  4  2  0
  3  8  1  0
  4  5  1  0
  5  6  2  0
  5  7  1  0
  8  9  1  0
  8 12  1  0
  9 10  1  0
  9 36  2  0
 11 10  1  1
 10 35  1  0
 11 12  1  0
 11 14  1  0
 11 17  1  0
 12 13  2  0
 14 15  1  0
 15 16  1  0
 15 26  1  0
 16 17  1  0
 17 18  1  0
 18 19  2  0
 18 23  1  0
 19 20  1  0
 20 21  2  0
 21 22  1  0
 21 24  1  0
 22 23  2  0
 24 25  3  0
 26 27  2  0
 26 31  1  0
 27 28  1  0
 28 29  2  0
 29 30  1  0
 29 32  1  0
 30 31  2  0
 32 33  2  0
 32 34  1  0
  2 38  1  0
  4 39  1  0
  6 40  1  0
 14 41  1  0
 14 42  1  0
 16 43  1  0
 16 44  1  0
 17 45  1  1
 19 46  1  0
 20 47  1  0
 22 48  1  0
 23 49  1  0
 28 50  1  0
 30 51  1  0
 31 52  1  0
 35 53  1  0
 35 54  1  0
 35 55  1  0
M  CHG  1  34  -1
M  END
>  <filename_input>  (17) 
7KC5_BJZ_docked.sdf

>  <pdb_id>  (17) 
7KC5_BJZ

>  <pose_rank>  (17) 
16

>  <num_atoms_heavy>  (17) 
37

>  <num_torsions>  (17) 
4

>  <pose>  (17) 
[-5.08296651068634, -20.06607255006543, 16.49100099483701, -1.1857261264319738, -2.098665786653392, -5.767747560382177, -3.1112063615084606, -3.4051832498357824, 0.24983586813157552, 3.6037013729131613]

>  <energy>  (17) 
-813.1102802723098

>  <inter_energy>  (17) 
-869.3604878740842

>  <intra_energy>  (17) 
54.3510615197088

>  <rmsd>  (17) 
0.83821

>  <sdf_rank>  (17) 
0

$$$$

     RDKit          3D

 55 59  0  0  0  0  0  0  0  0999 V2000
   -7.6068  -22.1475   15.0063 C   0  0  0  0  0  0  0  0  0  0  0  0
   -6.3423  -21.8462   15.4532 C   0  0  0  0  0  0  0  0  0  0  0  0
   -6.0814  -20.5354   15.8610 C   0  0  0  0  0  0  0  0  0  0  0  0
   -7.0829  -19.5861   15.8738 C   0  0  0  0  0  0  0  0  0  0  0  0
   -8.3392  -19.9479   15.4265 C   0  0  0  0  0  0  0  0  0  0  0  0
   -8.6178  -21.2391   15.0195 C   0  0  0  0  0  0  0  0  0  0  0  0
   -9.6584  -18.7789   15.4020 Cl  0  0  0  0  0  0  0  0  0  0  0  0
   -4.7941  -20.1121   16.3956 N   0  0  0  0  0  0  0  0  0  0  0  0
   -4.1520  -20.8524   17.4992 C   0  0  0  0  0  0  0  0  0  0  0  0
   -2.9410  -20.0975   17.8284 N   0  0  0  0  0  0  0  0  0  0  0  0
   -2.8880  -18.8662   17.0301 C   0  0  2  0  0  0  0  0  0  0  0  0
   -4.0523  -18.9394   16.0440 C   0  0  0  0  0  0  0  0  0  0  0  0
   -4.4145  -18.2323   15.1902 O   0  0  0  0  0  0  0  0  0  0  0  0
   -1.4053  -18.6646   16.3290 C   0  0  0  0  0  0  0  0  0  0  0  0
   -1.3804  -17.3172   16.2217 N   0  0  0  0  0  0  0  0  0  0  0  0
   -2.4588  -16.5111   17.0434 C   0  0  0  0  0  0  0  0  0  0  0  0
   -3.0259  -17.7688   17.8665 C   0  0  1  0  0  0  0  0  0  0  0  0
   -4.5173  -17.4832   18.3320 C   0  0  0  0  0  0  0  0  0  0  0  0
   -4.9521  -18.1087   19.4808 C   0  0  0  0  0  0  0  0  0  0  0  0
   -6.2615  -17.9142   19.9127 C   0  0  0  0  0  0  0  0  0  0  0  0
   -7.1258  -17.0906   19.2151 C   0  0  0  0  0  0  0  0  0  0  0  0
   -6.6794  -16.4398   18.0595 C   0  0  0  0  0  0  0  0  0  0  0  0
   -5.3735  -16.6462   17.6496 C   0  0  0  0  0  0  0  0  0  0  0  0
   -8.5476  -16.9044   19.7491 C   0  0  0  0  0  0  0  0  0  0  0  0
   -9.5777  -16.7799   20.1297 N   0  0  0  0  0  0  0  0  0  0  0  0
   -0.1322  -16.7164   15.8052 C   0  0  0  0  0  0  0  0  0  0  0  0
    0.7569  -17.5514   15.2846 N   0  0  0  0  0  0  0  0  0  0  0  0
    1.9334  -17.0386   14.8582 C   0  0  0  0  0  0  0  0  0  0  0  0
    2.1732  -15.6982   14.9815 C   0  0  0  0  0  0  0  0  0  0  0  0
    1.2462  -14.8376   15.4875 C   0  0  0  0  0  0  0  0  0  0  0  0
    0.0683  -15.3386   15.9123 C   0  0  0  0  0  0  0  0  0  0  0  0
    3.5011  -15.1474   14.4718 C   0  0  0  0  0  0  0  0  0  0  0  0
    4.4951  -15.2334   15.2213 O   0  0  0  0  0  0  0  0  0  0  0  0
    3.5527  -14.5928   13.3478 O   0  0  0  0  0  0  0  0  0  0  0  0
   -2.0442  -20.4962   18.8863 C   0  0  0  0  0  0  0  0  0  0  0  0
   -4.5722  -21.8532   17.9719 O   0  0  0  0  0  0  0  0  0  0  0  0
   -7.9003  -23.7730   14.4623 Cl  0  0  0  0  0  0  0  0  0  0  0  0
   -5.5572  -22.6158   15.4887 H   0  0  0  0  0  0  0  0  0  0  0  0
   -6.8856  -18.5648   16.2317 H   0  0  0  0  0  0  0  0  0  0  0  0
   -9.6349  -21.5251   14.7131 H   0  0  0  0  0  0  0  0  0  0  0  0
   -0.5949  -19.0384   16.9722 H   0  0  0  0  0  0  0  0  0  0  0  0
   -1.2606  -19.2085   15.3839 H   0  0  0  0  0  0  0  0  0  0  0  0
   -2.0110  -15.7455   17.6941 H   0  0  0  0  0  0  0  0  0  0  0  0
   -3.1871  -15.9208   16.4680 H   0  0  0  0  0  0  0  0  0  0  0  0
   -2.4745  -17.9629   18.7983 H   0  0  0  0  0  0  0  0  0  0  0  0
   -4.2703  -18.7562   20.0517 H   0  0  0  0  0  0  0  0  0  0  0  0
   -6.6135  -18.4231   20.8221 H   0  0  0  0  0  0  0  0  0  0  0  0
   -7.3505  -15.7798   17.4902 H   0  0  0  0  0  0  0  0  0  0  0  0
   -5.0079  -16.1264   16.7518 H   0  0  0  0  0  0  0  0  0  0  0  0
    2.6942  -17.6972   14.4139 H   0  0  0  0  0  0  0  0  0  0  0  0
    1.4537  -13.7591   15.5483 H   0  0  0  0  0  0  0  0  0  0  0  0
   -0.7098  -14.6826   16.3298 H   0  0  0  0  0  0  0  0  0  0  0  0
   -2.5111  -20.2887   19.8604 H   0  0  0  0  0  0  0  0  0  0  0  0
   -1.8339  -21.5727   18.8024 H   0  0  0  0  0  0  0  0  0  0  0  0
   -1.1041  -19.9313   18.8024 H   0  0  0  0  0  0  0  0  0  0  0  0
  1  2  2  0
  1  6  1  0
  1 37  1  0
  2  3  1  0
  3  4  2  0
  3  8  1  0
  4  5  1  0
  5  6  2  0
  5  7  1  0
  8  9  1  0
  8 12  1  0
  9 10  1  0
  9 36  2  0
 11 10  1  1
 10 35  1  0
 11 12  1  0
 11 14  1  0
 11 17  1  0
 12 13  2  0
 14 15  1  0
 15 16  1  0
 15 26  1  0
 16 17  1  0
 17 18  1  0
 18 19  2  0
 18 23  1  0
 19 20  1  0
 20 21  2  0
 21 22  1  0
 21 24  1  0
 22 23  2  0
 24 25  3  0
 26 27  2  0
 26 31  1  0
 27 28  1  0
 28 29  2  0
 29 30  1  0
 29 32  1  0
 30 31  2  0
 32 33  2  0
 32 34  1  0
  2 38  1  0
  4 39  1  0
  6 40  1  0
 14 41  1  0
 14 42  1  0
 16 43  1  0
 16 44  1  0
 17 45  1  1
 19 46  1  0
 20 47  1  0
 22 48  1  0
 23 49  1  0
 28 50  1  0
 30 51  1  0
 31 52  1  0
 35 53  1  0
 35 54  1  0
 35 55  1  0
M  CHG  1  34  -1
M  END
>  <filename_input>  (18) 
7KC5_BJZ_docked.sdf

>  <pdb_id>  (18) 
7KC5_BJZ

>  <pose_rank>  (18) 
17

>  <num_atoms_heavy>  (18) 
37

>  <num_torsions>  (18) 
4

>  <pose>  (18) 
[-4.794069111636531, -20.112071662624277, 16.39555813978121, -0.057618449818450684, -0.025598933735502954, 0.04516815050952074, -0.10771880954906049, -0.05183264845615856, 0.5511864840757686, 1.7686906731632797]

>  <energy>  (18) 
-848.2552410287578

>  <inter_energy>  (18) 
-892.9809622042114

>  <intra_energy>  (18) 
48.83590643739744

>  <rmsd>  (18) 
0.717858

>  <sdf_rank>  (18) 
0

$$$$

     RDKit          3D

 55 59  0  0  0  0  0  0  0  0999 V2000
   -8.6912  -20.5454   15.0493 C   0  0  0  0  0  0  0  0  0  0  0  0
   -7.5030  -20.1017   15.5791 C   0  0  0  0  0  0  0  0  0  0  0  0
   -6.4581  -21.0192   15.7162 C   0  0  0  0  0  0  0  0  0  0  0  0
   -6.5956  -22.3191   15.2737 C   0  0  0  0  0  0  0  0  0  0  0  0
   -7.8081  -22.7072   14.7366 C   0  0  0  0  0  0  0  0  0  0  0  0
   -8.8537  -21.8150   14.5918 C   0  0  0  0  0  0  0  0  0  0  0  0
   -8.0547  -24.3572   14.1673 Cl  0  0  0  0  0  0  0  0  0  0  0  0
   -5.1415  -20.6528   16.2208 N   0  0  0  0  0  0  0  0  0  0  0  0
   -4.4641  -21.4789   17.2391 C   0  0  0  0  0  0  0  0  0  0  0  0
   -3.2272  -20.7661   17.5659 N   0  0  0  0  0  0  0  0  0  0  0  0
   -3.1886  -19.4818   16.8553 C   0  0  2  0  0  0  0  0  0  0  0  0
   -4.3962  -19.4683   15.9200 C   0  0  0  0  0  0  0  0  0  0  0  0
   -4.7837  -18.6970   15.1357 O   0  0  0  0  0  0  0  0  0  0  0  0
   -1.7349  -19.2509   16.1041 C   0  0  0  0  0  0  0  0  0  0  0  0
   -1.6921  -17.8997   16.0915 N   0  0  0  0  0  0  0  0  0  0  0  0
   -2.7195  -17.1398   17.0160 C   0  0  0  0  0  0  0  0  0  0  0  0
   -3.2709  -18.4452   17.7727 C   0  0  1  0  0  0  0  0  0  0  0  0
   -4.7354  -18.1732   18.3241 C   0  0  0  0  0  0  0  0  0  0  0  0
   -5.5248  -17.2931   17.6154 C   0  0  0  0  0  0  0  0  0  0  0  0
   -6.8053  -16.9984   18.0761 C   0  0  0  0  0  0  0  0  0  0  0  0
   -7.3015  -17.5878   19.2242 C   0  0  0  0  0  0  0  0  0  0  0  0
   -6.5081  -18.4962   19.9337 C   0  0  0  0  0  0  0  0  0  0  0  0
   -5.2391  -18.7757   19.4566 C   0  0  0  0  0  0  0  0  0  0  0  0
   -8.7222  -17.2357   19.6705 C   0  0  0  0  0  0  0  0  0  0  0  0
   -9.7440  -16.9738   20.0006 N   0  0  0  0  0  0  0  0  0  0  0  0
   -0.4535  -17.2878   15.6627 C   0  0  0  0  0  0  0  0  0  0  0  0
    0.3977  -18.0956   15.0447 N   0  0  0  0  0  0  0  0  0  0  0  0
    1.5627  -17.5698   14.6030 C   0  0  0  0  0  0  0  0  0  0  0  0
    1.8303  -16.2450   14.8100 C   0  0  0  0  0  0  0  0  0  0  0  0
    0.9412  -15.4102   15.4171 C   0  0  0  0  0  0  0  0  0  0  0  0
   -0.2252  -15.9241   15.8580 C   0  0  0  0  0  0  0  0  0  0  0  0
    3.1436  -15.6774   14.2812 C   0  0  0  0  0  0  0  0  0  0  0  0
    3.9859  -16.4792   13.8285 O   0  0  0  0  0  0  0  0  0  0  0  0
    3.3596  -14.4438   14.3513 O   0  0  0  0  0  0  0  0  0  0  0  0
   -2.2915  -21.2518   18.5514 C   0  0  0  0  0  0  0  0  0  0  0  0
   -4.8798  -22.5052   17.6581 O   0  0  0  0  0  0  0  0  0  0  0  0
   -9.9937  -19.3995   14.9267 Cl  0  0  0  0  0  0  0  0  0  0  0  0
   -7.3781  -19.0530   15.8867 H   0  0  0  0  0  0  0  0  0  0  0  0
   -5.7592  -23.0298   15.3468 H   0  0  0  0  0  0  0  0  0  0  0  0
   -9.7962  -22.1253   14.1169 H   0  0  0  0  0  0  0  0  0  0  0  0
   -0.9035  -19.6808   16.6819 H   0  0  0  0  0  0  0  0  0  0  0  0
   -1.6413  -19.7277   15.1173 H   0  0  0  0  0  0  0  0  0  0  0  0
   -2.2306  -16.4289   17.6984 H   0  0  0  0  0  0  0  0  0  0  0  0
   -3.4624  -16.4999   16.5173 H   0  0  0  0  0  0  0  0  0  0  0  0
   -2.6824  -18.7130   18.6626 H   0  0  0  0  0  0  0  0  0  0  0  0
   -5.1463  -16.8274   16.6936 H   0  0  0  0  0  0  0  0  0  0  0  0
   -7.4314  -16.2863   17.5184 H   0  0  0  0  0  0  0  0  0  0  0  0
   -6.8839  -18.9769   20.8490 H   0  0  0  0  0  0  0  0  0  0  0  0
   -4.6136  -19.5008   19.9979 H   0  0  0  0  0  0  0  0  0  0  0  0
    2.2920  -18.2052   14.0793 H   0  0  0  0  0  0  0  0  0  0  0  0
    1.1693  -14.3417   15.5447 H   0  0  0  0  0  0  0  0  0  0  0  0
   -0.9730  -15.2891   16.3556 H   0  0  0  0  0  0  0  0  0  0  0  0
   -2.6824  -21.0489   19.5594 H   0  0  0  0  0  0  0  0  0  0  0  0
   -2.1532  -22.3355   18.4230 H   0  0  0  0  0  0  0  0  0  0  0  0
   -1.3257  -20.7412   18.4230 H   0  0  0  0  0  0  0  0  0  0  0  0
  1  2  2  0
  1  6  1  0
  1 37  1  0
  2  3  1  0
  3  4  2  0
  3  8  1  0
  4  5  1  0
  5  6  2  0
  5  7  1  0
  8  9  1  0
  8 12  1  0
  9 10  1  0
  9 36  2  0
 11 10  1  1
 10 35  1  0
 11 12  1  0
 11 14  1  0
 11 17  1  0
 12 13  2  0
 14 15  1  0
 15 16  1  0
 15 26  1  0
 16 17  1  0
 17 18  1  0
 18 19  2  0
 18 23  1  0
 19 20  1  0
 20 21  2  0
 21 22  1  0
 21 24  1  0
 22 23  2  0
 24 25  3  0
 26 27  2  0
 26 31  1  0
 27 28  1  0
 28 29  2  0
 29 30  1  0
 29 32  1  0
 30 31  2  0
 32 33  2  0
 32 34  1  0
  2 38  1  0
  4 39  1  0
  6 40  1  0
 14 41  1  0
 14 42  1  0
 16 43  1  0
 16 44  1  0
 17 45  1  1
 19 46  1  0
 20 47  1  0
 22 48  1  0
 23 49  1  0
 28 50  1  0
 30 51  1  0
 31 52  1  0
 35 53  1  0
 35 54  1  0
 35 55  1  0
M  CHG  1  34  -1
M  END
>  <filename_input>  (19) 
7KC5_BJZ_docked.sdf

>  <pdb_id>  (19) 
7KC5_BJZ

>  <pose_rank>  (19) 
18

>  <num_atoms_heavy>  (19) 
37

>  <num_torsions>  (19) 
4

>  <pose>  (19) 
[-5.14147782993372, -20.65283453745957, 16.220754492605295, -2.379221766287822, -2.9370376453433673, -4.9715462755658875, -3.1595242782763826, -3.153257424598937, 0.24700960141502687, 3.0651293670156234]

>  <energy>  (19) 
-759.349904708544

>  <inter_energy>  (19) 
-822.85209663512

>  <intra_energy>  (19) 
58.14351297336942

>  <rmsd>  (19) 
1.13615

>  <sdf_rank>  (19) 
0

$$$$

     RDKit          3D

 55 59  0  0  0  0  0  0  0  0999 V2000
   -7.2263  -21.9043   15.6547 C   0  0  0  0  0  0  0  0  0  0  0  0
   -5.9752  -21.5745   16.1188 C   0  0  0  0  0  0  0  0  0  0  0  0
   -5.7656  -20.2736   16.5837 C   0  0  0  0  0  0  0  0  0  0  0  0
   -6.8027  -19.3646   16.6336 C   0  0  0  0  0  0  0  0  0  0  0  0
   -8.0434  -19.7546   16.1666 C   0  0  0  0  0  0  0  0  0  0  0  0
   -8.2714  -21.0367   15.7033 C   0  0  0  0  0  0  0  0  0  0  0  0
   -9.4063  -18.6369   16.1877 Cl  0  0  0  0  0  0  0  0  0  0  0  0
   -4.4965  -19.8248   17.1407 N   0  0  0  0  0  0  0  0  0  0  0  0
   -3.9176  -20.4799   18.3298 C   0  0  0  0  0  0  0  0  0  0  0  0
   -2.7098  -19.7167   18.6517 N   0  0  0  0  0  0  0  0  0  0  0  0
   -2.5998  -18.5565   17.7584 C   0  0  2  0  0  0  0  0  0  0  0  0
   -3.7196  -18.6954   16.7289 C   0  0  0  0  0  0  0  0  0  0  0  0
   -4.0308  -18.0564   15.8042 O   0  0  0  0  0  0  0  0  0  0  0  0
   -1.0837  -18.4335   17.1126 C   0  0  0  0  0  0  0  0  0  0  0  0
   -1.0309  -17.1000   16.8964 N   0  0  0  0  0  0  0  0  0  0  0  0
   -2.1311  -16.2143   17.5985 C   0  0  0  0  0  0  0  0  0  0  0  0
   -2.7562  -17.3919   18.4948 C   0  0  1  0  0  0  0  0  0  0  0  0
   -4.2619  -17.0487   18.8658 C   0  0  0  0  0  0  0  0  0  0  0  0
   -4.8307  -17.7459   19.9101 C   0  0  0  0  0  0  0  0  0  0  0  0
   -6.1580  -17.5027   20.2533 C   0  0  0  0  0  0  0  0  0  0  0  0
   -6.9078  -16.5612   19.5727 C   0  0  0  0  0  0  0  0  0  0  0  0
   -6.3254  -15.8390   18.5251 C   0  0  0  0  0  0  0  0  0  0  0  0
   -5.0041  -16.0959   18.2022 C   0  0  0  0  0  0  0  0  0  0  0  0
   -8.3562  -16.3278   20.0075 C   0  0  0  0  0  0  0  0  0  0  0  0
   -9.4057  -16.1685   20.3153 N   0  0  0  0  0  0  0  0  0  0  0  0
    0.2450  -16.5525   16.4902 C   0  0  0  0  0  0  0  0  0  0  0  0
    1.1421  -17.4396   16.0816 N   0  0  0  0  0  0  0  0  0  0  0  0
    2.3452  -16.9797   15.6694 C   0  0  0  0  0  0  0  0  0  0  0  0
    2.6023  -15.6371   15.6933 C   0  0  0  0  0  0  0  0  0  0  0  0
    1.6684  -14.7252   16.0837 C   0  0  0  0  0  0  0  0  0  0  0  0
    0.4641  -15.1734   16.4931 C   0  0  0  0  0  0  0  0  0  0  0  0
    3.9611  -15.1482   15.2022 C   0  0  0  0  0  0  0  0  0  0  0  0
    4.9532  -15.3516   15.9313 O   0  0  0  0  0  0  0  0  0  0  0  0
    4.0416  -14.5269   14.1154 O   0  0  0  0  0  0  0  0  0  0  0  0
   -1.8685  -20.0386   19.7791 C   0  0  0  0  0  0  0  0  0  0  0  0
   -4.3758  -21.4325   18.8630 O   0  0  0  0  0  0  0  0  0  0  0  0
   -7.4562  -23.5149   15.0401 Cl  0  0  0  0  0  0  0  0  0  0  0  0
   -5.1612  -22.3144   16.1240 H   0  0  0  0  0  0  0  0  0  0  0  0
   -6.6455  -18.3530   17.0360 H   0  0  0  0  0  0  0  0  0  0  0  0
   -9.2761  -21.3479   15.3812 H   0  0  0  0  0  0  0  0  0  0  0  0
   -0.3097  -18.7637   17.8210 H   0  0  0  0  0  0  0  0  0  0  0  0
   -0.9061  -19.0556   16.2229 H   0  0  0  0  0  0  0  0  0  0  0  0
   -1.7000  -15.4036   18.2042 H   0  0  0  0  0  0  0  0  0  0  0  0
   -2.8225  -15.6639   16.9435 H   0  0  0  0  0  0  0  0  0  0  0  0
   -2.2507  -17.5157   19.4639 H   0  0  0  0  0  0  0  0  0  0  0  0
   -4.2409  -18.4884   20.4676 H   0  0  0  0  0  0  0  0  0  0  0  0
   -6.6169  -18.0677   21.0781 H   0  0  0  0  0  0  0  0  0  0  0  0
   -6.9039  -15.0850   17.9712 H   0  0  0  0  0  0  0  0  0  0  0  0
   -4.5321  -15.5220   17.3911 H   0  0  0  0  0  0  0  0  0  0  0  0
    3.1138  -17.6830   15.3163 H   0  0  0  0  0  0  0  0  0  0  0  0
    1.8915  -13.6482   16.0654 H   0  0  0  0  0  0  0  0  0  0  0  0
   -0.3206  -14.4748   16.8190 H   0  0  0  0  0  0  0  0  0  0  0  0
   -2.4115  -19.8309   20.7129 H   0  0  0  0  0  0  0  0  0  0  0  0
   -1.5974  -21.1041   19.7419 H   0  0  0  0  0  0  0  0  0  0  0  0
   -0.9554  -19.4264   19.7419 H   0  0  0  0  0  0  0  0  0  0  0  0
  1  2  2  0
  1  6  1  0
  1 37  1  0
  2  3  1  0
  3  4  2  0
  3  8  1  0
  4  5  1  0
  5  6  2  0
  5  7  1  0
  8  9  1  0
  8 12  1  0
  9 10  1  0
  9 36  2  0
 11 10  1  1
 10 35  1  0
 11 12  1  0
 11 14  1  0
 11 17  1  0
 12 13  2  0
 14 15  1  0
 15 16  1  0
 15 26  1  0
 16 17  1  0
 17 18  1  0
 18 19  2  0
 18 23  1  0
 19 20  1  0
 20 21  2  0
 21 22  1  0
 21 24  1  0
 22 23  2  0
 24 25  3  0
 26 27  2  0
 26 31  1  0
 27 28  1  0
 28 29  2  0
 29 30  1  0
 29 32  1  0
 30 31  2  0
 32 33  2  0
 32 34  1  0
  2 38  1  0
  4 39  1  0
  6 40  1  0
 14 41  1  0
 14 42  1  0
 16 43  1  0
 16 44  1  0
 17 45  1  1
 19 46  1  0
 20 47  1  0
 22 48  1  0
 23 49  1  0
 28 50  1  0
 30 51  1  0
 31 52  1  0
 35 53  1  0
 35 54  1  0
 35 55  1  0
M  CHG  1  34  -1
M  END
>  <filename_input>  (20) 
7KC5_BJZ_docked.sdf

>  <pdb_id>  (20) 
7KC5_BJZ

>  <pose_rank>  (20) 
19

>  <num_atoms_heavy>  (20) 
37

>  <num_torsions>  (20) 
4

>  <pose>  (20) 
[-4.49648751152809, -19.82481552528026, 17.140697907320458, -0.14128640265541992, -0.06898201244574718, 0.029543733646724538, -0.25088603521872604, -0.23969081572325468, 0.5463411857255835, 1.935501885360724]

>  <energy>  (20) 
-658.2286385857028

>  <inter_energy>  (20) 
-703.0643141081007

>  <intra_energy>  (20) 
44.42371564674515

>  <rmsd>  (20) 
0.749941

>  <sdf_rank>  (20) 
0

$$$$

     RDKit          3D

 55 59  0  0  0  0  0  0  0  0999 V2000
   -8.1524  -19.8018   15.3492 C   0  0  0  0  0  0  0  0  0  0  0  0
   -6.9589  -19.3500   15.8599 C   0  0  0  0  0  0  0  0  0  0  0  0
   -5.9568  -20.2874   16.1234 C   0  0  0  0  0  0  0  0  0  0  0  0
   -6.1386  -21.6213   15.8201 C   0  0  0  0  0  0  0  0  0  0  0  0
   -7.3538  -22.0178   15.2954 C   0  0  0  0  0  0  0  0  0  0  0  0
   -8.3576  -21.1063   15.0270 C   0  0  0  0  0  0  0  0  0  0  0  0
   -7.6564  -23.7090   14.9009 Cl  0  0  0  0  0  0  0  0  0  0  0  0
   -4.6377  -19.9201   16.6209 N   0  0  0  0  0  0  0  0  0  0  0  0
   -3.9581  -20.7410   17.6419 C   0  0  0  0  0  0  0  0  0  0  0  0
   -2.7188  -20.0284   17.9599 N   0  0  0  0  0  0  0  0  0  0  0  0
   -2.6806  -18.7486   17.2411 C   0  0  2  0  0  0  0  0  0  0  0  0
   -3.8916  -18.7388   16.3101 C   0  0  0  0  0  0  0  0  0  0  0  0
   -4.2805  -17.9717   15.5225 O   0  0  0  0  0  0  0  0  0  0  0  0
   -1.2293  -18.5248   16.4833 C   0  0  0  0  0  0  0  0  0  0  0  0
   -1.1842  -17.1738   16.4621 N   0  0  0  0  0  0  0  0  0  0  0  0
   -2.2069  -16.4064   17.3856 C   0  0  0  0  0  0  0  0  0  0  0  0
   -2.7578  -17.7061   18.1523 C   0  0  1  0  0  0  0  0  0  0  0  0
   -4.2198  -17.4282   18.7074 C   0  0  0  0  0  0  0  0  0  0  0  0
   -4.9575  -16.4457   18.0824 C   0  0  0  0  0  0  0  0  0  0  0  0
   -6.2330  -16.1439   18.5522 C   0  0  0  0  0  0  0  0  0  0  0  0
   -6.7758  -16.8262   19.6254 C   0  0  0  0  0  0  0  0  0  0  0  0
   -6.0353  -17.8372   20.2482 C   0  0  0  0  0  0  0  0  0  0  0  0
   -4.7703  -18.1216   19.7634 C   0  0  0  0  0  0  0  0  0  0  0  0
   -8.1886  -16.4598   20.0848 C   0  0  0  0  0  0  0  0  0  0  0  0
   -9.2046  -16.1885   20.4251 N   0  0  0  0  0  0  0  0  0  0  0  0
    0.0539  -16.5667   16.0250 C   0  0  0  0  0  0  0  0  0  0  0  0
    0.9015  -17.3798   15.4090 N   0  0  0  0  0  0  0  0  0  0  0  0
    2.0657  -16.8587   14.9599 C   0  0  0  0  0  0  0  0  0  0  0  0
    2.3364  -15.5332   15.1577 C   0  0  0  0  0  0  0  0  0  0  0  0
    1.4508  -14.6931   15.7627 C   0  0  0  0  0  0  0  0  0  0  0  0
    0.2852  -15.2022   16.2110 C   0  0  0  0  0  0  0  0  0  0  0  0
    3.6487  -14.9711   14.6206 C   0  0  0  0  0  0  0  0  0  0  0  0
    4.2731  -15.6488   13.7792 O   0  0  0  0  0  0  0  0  0  0  0  0
    4.0830  -13.8798   15.0609 O   0  0  0  0  0  0  0  0  0  0  0  0
   -1.7804  -20.5095   18.9450 C   0  0  0  0  0  0  0  0  0  0  0  0
   -4.3740  -21.7639   18.0688 O   0  0  0  0  0  0  0  0  0  0  0  0
   -9.4026  -18.6259   15.0684 Cl  0  0  0  0  0  0  0  0  0  0  0  0
   -6.7972  -18.2797   16.0558 H   0  0  0  0  0  0  0  0  0  0  0  0
   -5.3346  -22.3521   15.9921 H   0  0  0  0  0  0  0  0  0  0  0  0
   -9.3012  -21.4293   14.5631 H   0  0  0  0  0  0  0  0  0  0  0  0
   -0.3965  -18.9526   17.0608 H   0  0  0  0  0  0  0  0  0  0  0  0
   -1.1400  -19.0079   15.4991 H   0  0  0  0  0  0  0  0  0  0  0  0
   -1.7144  -15.6921   18.0618 H   0  0  0  0  0  0  0  0  0  0  0  0
   -2.9505  -15.7684   16.8856 H   0  0  0  0  0  0  0  0  0  0  0  0
   -2.1666  -17.9694   19.0418 H   0  0  0  0  0  0  0  0  0  0  0  0
   -4.5419  -15.9044   17.2197 H   0  0  0  0  0  0  0  0  0  0  0  0
   -6.8175  -15.3512   18.0624 H   0  0  0  0  0  0  0  0  0  0  0  0
   -6.4487  -18.3927   21.1029 H   0  0  0  0  0  0  0  0  0  0  0  0
   -4.1867  -18.9256   20.2356 H   0  0  0  0  0  0  0  0  0  0  0  0
    2.7921  -17.4987   14.4375 H   0  0  0  0  0  0  0  0  0  0  0  0
    1.6812  -13.6242   15.8829 H   0  0  0  0  0  0  0  0  0  0  0  0
   -0.4597  -14.5628   16.7073 H   0  0  0  0  0  0  0  0  0  0  0  0
   -2.1719  -20.3088   19.9531 H   0  0  0  0  0  0  0  0  0  0  0  0
   -1.6367  -21.5925   18.8164 H   0  0  0  0  0  0  0  0  0  0  0  0
   -0.8172  -19.9940   18.8164 H   0  0  0  0  0  0  0  0  0  0  0  0
  1  2  2  0
  1  6  1  0
  1 37  1  0
  2  3  1  0
  3  4  2  0
  3  8  1  0
  4  5  1  0
  5  6  2  0
  5  7  1  0
  8  9  1  0
  8 12  1  0
  9 10  1  0
  9 36  2  0
 11 10  1  1
 10 35  1  0
 11 12  1  0
 11 14  1  0
 11 17  1  0
 12 13  2  0
 14 15  1  0
 15 16  1  0
 15 26  1  0
 16 17  1  0
 17 18  1  0
 18 19  2  0
 18 23  1  0
 19 20  1  0
 20 21  2  0
 21 22  1  0
 21 24  1  0
 22 23  2  0
 24 25  3  0
 26 27  2  0
 26 31  1  0
 27 28  1  0
 28 29  2  0
 29 30  1  0
 29 32  1  0
 30 31  2  0
 32 33  2  0
 32 34  1  0
  2 38  1  0
  4 39  1  0
  6 40  1  0
 14 41  1  0
 14 42  1  0
 16 43  1  0
 16 44  1  0
 17 45  1  1
 19 46  1  0
 20 47  1  0
 22 48  1  0
 23 49  1  0
 28 50  1  0
 30 51  1  0
 31 52  1  0
 35 53  1  0
 35 54  1  0
 35 55  1  0
M  CHG  1  34  -1
M  END
>  <filename_input>  (21) 
7KC5_BJZ_docked.sdf

>  <pdb_id>  (21) 
7KC5_BJZ

>  <pose_rank>  (21) 
20

>  <num_atoms_heavy>  (21) 
37

>  <num_torsions>  (21) 
4

>  <pose>  (21) 
[-4.637735401249428, -19.92014065132091, 16.62090981887131, -1.4176900417764666, -3.674304022169982, -4.848658570840429, -3.046322489360802, -3.2727062885223765, 0.247525679622379, 3.4890150926684855]

>  <energy>  (21) 
-774.6457098796328

>  <inter_energy>  (21) 
-827.7816348697343

>  <intra_energy>  (21) 
58.71599011412158

>  <rmsd>  (21) 
0.436159

>  <sdf_rank>  (21) 
0

$$$$

     RDKit          3D

 55 59  0  0  0  0  0  0  0  0999 V2000
    2.2713  -17.1217   14.0531 C   0  0  0  0  0  0  0  0  0  0  0  0
    0.9654  -17.4754   14.2959 C   0  0  0  0  0  0  0  0  0  0  0  0
    0.2352  -16.7148   15.2128 C   0  0  0  0  0  0  0  0  0  0  0  0
    0.7912  -15.6019   15.8101 C   0  0  0  0  0  0  0  0  0  0  0  0
    2.1041  -15.2846   15.5188 C   0  0  0  0  0  0  0  0  0  0  0  0
    2.8432  -16.0238   14.6145 C   0  0  0  0  0  0  0  0  0  0  0  0
    2.8789  -13.8855   16.2600 Cl  0  0  0  0  0  0  0  0  0  0  0  0
   -1.1675  -16.9671   15.5143 N   0  0  0  0  0  0  0  0  0  0  0  0
   -2.1227  -15.8518   15.6623 C   0  0  0  0  0  0  0  0  0  0  0  0
   -3.3934  -16.4695   16.0478 N   0  0  0  0  0  0  0  0  0  0  0  0
   -3.2080  -17.9131   16.2417 C   0  0  2  0  0  0  0  0  0  0  0  0
   -1.7790  -18.2285   15.8039 C   0  0  0  0  0  0  0  0  0  0  0  0
   -1.1702  -19.2211   15.7382 O   0  0  0  0  0  0  0  0  0  0  0  0
   -4.3746  -18.7822   15.4580 C   0  0  0  0  0  0  0  0  0  0  0  0
   -4.3974  -19.8907   16.2316 N   0  0  0  0  0  0  0  0  0  0  0  0
   -3.6786  -19.8037   17.6329 C   0  0  0  0  0  0  0  0  0  0  0  0
   -3.3875  -18.2247   17.5810 C   0  0  1  0  0  0  0  0  0  0  0  0
   -2.1466  -17.8722   18.5076 C   0  0  0  0  0  0  0  0  0  0  0  0
   -1.4255  -18.9260   19.0270 C   0  0  0  0  0  0  0  0  0  0  0  0
   -0.3476  -18.6685   19.8700 C   0  0  0  0  0  0  0  0  0  0  0  0
    0.0192  -17.3719   20.1801 C   0  0  0  0  0  0  0  0  0  0  0  0
   -0.7002  -16.3012   19.6378 C   0  0  0  0  0  0  0  0  0  0  0  0
   -1.7668  -16.5804   18.8009 C   0  0  0  0  0  0  0  0  0  0  0  0
    1.2229  -17.1535   21.0993 C   0  0  0  0  0  0  0  0  0  0  0  0
    2.0995  -16.9976   21.7542 N   0  0  0  0  0  0  0  0  0  0  0  0
   -5.4491  -20.8493   15.9714 C   0  0  0  0  0  0  0  0  0  0  0  0
   -6.0899  -20.6945   14.8207 N   0  0  0  0  0  0  0  0  0  0  0  0
   -7.0683  -21.5773   14.5170 C   0  0  0  0  0  0  0  0  0  0  0  0
   -7.3708  -22.5822   15.3934 C   0  0  0  0  0  0  0  0  0  0  0  0
   -6.6901  -22.7582   16.5603 C   0  0  0  0  0  0  0  0  0  0  0  0
   -5.7100  -21.8853   16.8707 C   0  0  0  0  0  0  0  0  0  0  0  0
   -8.4649  -23.5743   15.0123 C   0  0  0  0  0  0  0  0  0  0  0  0
   -9.4367  -23.6972   15.7855 O   0  0  0  0  0  0  0  0  0  0  0  0
   -8.3438  -24.2619   13.9702 O   0  0  0  0  0  0  0  0  0  0  0  0
   -4.5822  -15.6947   16.3104 C   0  0  0  0  0  0  0  0  0  0  0  0
   -1.8592  -14.7119   15.4811 O   0  0  0  0  0  0  0  0  0  0  0  0
    3.1769  -18.1062   12.9417 Cl  0  0  0  0  0  0  0  0  0  0  0  0
    0.5077  -18.3339   13.7825 H   0  0  0  0  0  0  0  0  0  0  0  0
    0.2026  -14.9816   16.5021 H   0  0  0  0  0  0  0  0  0  0  0  0
    3.8710  -15.7303   14.3550 H   0  0  0  0  0  0  0  0  0  0  0  0
   -5.3436  -18.2616   15.4612 H   0  0  0  0  0  0  0  0  0  0  0  0
   -4.1796  -18.9646   14.3909 H   0  0  0  0  0  0  0  0  0  0  0  0
   -4.3386  -20.0861   18.4664 H   0  0  0  0  0  0  0  0  0  0  0  0
   -2.8153  -20.4661   17.7938 H   0  0  0  0  0  0  0  0  0  0  0  0
   -4.2141  -17.6169   17.9777 H   0  0  0  0  0  0  0  0  0  0  0  0
   -1.6994  -19.9617   18.7776 H   0  0  0  0  0  0  0  0  0  0  0  0
    0.2205  -19.5089   20.2954 H   0  0  0  0  0  0  0  0  0  0  0  0
   -0.4246  -15.2621   19.8711 H   0  0  0  0  0  0  0  0  0  0  0  0
   -2.3285  -15.7455   18.3564 H   0  0  0  0  0  0  0  0  0  0  0  0
   -7.6185  -21.4873   13.5688 H   0  0  0  0  0  0  0  0  0  0  0  0
   -6.9342  -23.5929   17.2338 H   0  0  0  0  0  0  0  0  0  0  0  0
   -5.1345  -21.9861   17.8027 H   0  0  0  0  0  0  0  0  0  0  0  0
   -4.7262  -15.6009   17.3969 H   0  0  0  0  0  0  0  0  0  0  0  0
   -4.4729  -14.6939   15.8672 H   0  0  0  0  0  0  0  0  0  0  0  0
   -5.4537  -16.1988   15.8672 H   0  0  0  0  0  0  0  0  0  0  0  0
  1  2  2  0
  1  6  1  0
  1 37  1  0
  2  3  1  0
  3  4  2  0
  3  8  1  0
  4  5  1  0
  5  6  2  0
  5  7  1  0
  8  9  1  0
  8 12  1  0
  9 10  1  0
  9 36  2  0
 11 10  1  1
 10 35  1  0
 11 12  1  0
 11 14  1  0
 11 17  1  0
 12 13  2  0
 14 15  1  0
 15 16  1  0
 15 26  1  0
 16 17  1  0
 17 18  1  0
 18 19  2  0
 18 23  1  0
 19 20  1  0
 20 21  2  0
 21 22  1  0
 21 24  1  0
 22 23  2  0
 24 25  3  0
 26 27  2  0
 26 31  1  0
 27 28  1  0
 28 29  2  0
 29 30  1  0
 29 32  1  0
 30 31  2  0
 32 33  2  0
 32 34  1  0
  2 38  1  0
  4 39  1  0
  6 40  1  0
 14 41  1  0
 14 42  1  0
 16 43  1  0
 16 44  1  0
 17 45  1  1
 19 46  1  0
 20 47  1  0
 22 48  1  0
 23 49  1  0
 28 50  1  0
 30 51  1  0
 31 52  1  0
 35 53  1  0
 35 54  1  0
 35 55  1  0
M  CHG  1  34  -1
M  END
>  <filename_input>  (22) 
7KC5_BJZ_docked.sdf

>  <pdb_id>  (22) 
7KC5_BJZ

>  <pose_rank>  (22) 
21

>  <num_atoms_heavy>  (22) 
37

>  <num_torsions>  (22) 
4

>  <pose>  (22) 
[-1.1674721362884362, -16.967143887654192, 15.514319601198464, -0.471559639220155, 1.0270035613634718, 3.0739873962193456, -1.6236510930851975, 2.7560522862333525, -2.9152870107065447, 1.0747653118976697]

>  <energy>  (22) 
-541.7292515213696

>  <inter_energy>  (22) 
-601.8659943482255

>  <intra_energy>  (22) 
59.70039687767837

>  <rmsd>  (22) 
8.68221

>  <sdf_rank>  (22) 
0

$$$$

     RDKit          3D

 55 59  0  0  0  0  0  0  0  0999 V2000
   -7.4760  -22.2689   14.9682 C   0  0  0  0  0  0  0  0  0  0  0  0
   -6.2164  -21.9406   15.4096 C   0  0  0  0  0  0  0  0  0  0  0  0
   -5.9944  -20.6371   15.8614 C   0  0  0  0  0  0  0  0  0  0  0  0
   -7.0272  -19.7238   15.9214 C   0  0  0  0  0  0  0  0  0  0  0  0
   -8.2767  -20.1123   15.4773 C   0  0  0  0  0  0  0  0  0  0  0  0
   -8.5170  -21.3969   15.0272 C   0  0  0  0  0  0  0  0  0  0  0  0
   -9.6349  -18.9892   15.5120 Cl  0  0  0  0  0  0  0  0  0  0  0  0
   -4.7148  -20.1892   16.3946 N   0  0  0  0  0  0  0  0  0  0  0  0
   -4.0548  -20.9204   17.4937 C   0  0  0  0  0  0  0  0  0  0  0  0
   -2.8589  -20.1418   17.8230 N   0  0  0  0  0  0  0  0  0  0  0  0
   -2.8335  -18.9066   17.0296 C   0  0  2  0  0  0  0  0  0  0  0  0
   -3.9985  -19.0000   16.0460 C   0  0  0  0  0  0  0  0  0  0  0  0
   -4.3774  -18.2971   15.1960 O   0  0  0  0  0  0  0  0  0  0  0  0
   -1.3570  -18.6714   16.3258 C   0  0  0  0  0  0  0  0  0  0  0  0
   -1.3604  -17.3233   16.2239 N   0  0  0  0  0  0  0  0  0  0  0  0
   -2.4533  -16.5431   17.0514 C   0  0  0  0  0  0  0  0  0  0  0  0
   -2.9920  -17.8156   17.8707 C   0  0  1  0  0  0  0  0  0  0  0  0
   -4.4879  -17.5629   18.3410 C   0  0  0  0  0  0  0  0  0  0  0  0
   -4.9360  -18.2734   19.4339 C   0  0  0  0  0  0  0  0  0  0  0  0
   -6.2496  -18.1094   19.8655 C   0  0  0  0  0  0  0  0  0  0  0  0
   -7.1051  -17.2329   19.2239 C   0  0  0  0  0  0  0  0  0  0  0  0
   -6.6454  -16.4966   18.1263 C   0  0  0  0  0  0  0  0  0  0  0  0
   -5.3354  -16.6742   17.7156 C   0  0  0  0  0  0  0  0  0  0  0  0
   -8.5323  -17.0846   19.7555 C   0  0  0  0  0  0  0  0  0  0  0  0
   -9.5642  -16.9891   20.1399 N   0  0  0  0  0  0  0  0  0  0  0  0
   -0.1260  -16.6950   15.8068 C   0  0  0  0  0  0  0  0  0  0  0  0
    0.7790  -17.5093   15.2808 N   0  0  0  0  0  0  0  0  0  0  0  0
    1.9435  -16.9705   14.8536 C   0  0  0  0  0  0  0  0  0  0  0  0
    2.1558  -15.6259   14.9817 C   0  0  0  0  0  0  0  0  0  0  0  0
    1.2123  -14.7868   15.4935 C   0  0  0  0  0  0  0  0  0  0  0  0
    0.0461  -15.3138   15.9190 C   0  0  0  0  0  0  0  0  0  0  0  0
    3.4707  -15.0456   14.4711 C   0  0  0  0  0  0  0  0  0  0  0  0
    4.3075  -15.8341   13.9862 O   0  0  0  0  0  0  0  0  0  0  0  0
    3.6934  -13.8166   14.5870 O   0  0  0  0  0  0  0  0  0  0  0  0
   -1.9514  -20.5261   18.8772 C   0  0  0  0  0  0  0  0  0  0  0  0
   -4.4529  -21.9317   17.9633 O   0  0  0  0  0  0  0  0  0  0  0  0
   -7.7219  -23.8830   14.3692 Cl  0  0  0  0  0  0  0  0  0  0  0  0
   -5.4053  -22.6836   15.4071 H   0  0  0  0  0  0  0  0  0  0  0  0
   -6.8597  -18.7099   16.3136 H   0  0  0  0  0  0  0  0  0  0  0  0
   -9.5279  -21.7065   14.7236 H   0  0  0  0  0  0  0  0  0  0  0  0
   -0.5375  -19.0308   16.9655 H   0  0  0  0  0  0  0  0  0  0  0  0
   -1.2034  -19.2084   15.3782 H   0  0  0  0  0  0  0  0  0  0  0  0
   -2.0199  -15.7710   17.7041 H   0  0  0  0  0  0  0  0  0  0  0  0
   -3.1951  -15.9658   16.4801 H   0  0  0  0  0  0  0  0  0  0  0  0
   -2.4344  -18.0019   18.8004 H   0  0  0  0  0  0  0  0  0  0  0  0
   -4.2614  -18.9643   19.9607 H   0  0  0  0  0  0  0  0  0  0  0  0
   -6.6121  -18.6856   20.7296 H   0  0  0  0  0  0  0  0  0  0  0  0
   -7.3093  -15.7934   17.6021 H   0  0  0  0  0  0  0  0  0  0  0  0
   -4.9595  -16.0880   16.8641 H   0  0  0  0  0  0  0  0  0  0  0  0
    2.7167  -17.6114   14.4048 H   0  0  0  0  0  0  0  0  0  0  0  0
    1.3975  -13.7044   15.5581 H   0  0  0  0  0  0  0  0  0  0  0  0
   -0.7444  -14.6759   16.3410 H   0  0  0  0  0  0  0  0  0  0  0  0
   -2.4185  -20.3283   19.8533 H   0  0  0  0  0  0  0  0  0  0  0  0
   -1.7222  -21.5985   18.7909 H   0  0  0  0  0  0  0  0  0  0  0  0
   -1.0218  -19.9443   18.7909 H   0  0  0  0  0  0  0  0  0  0  0  0
  1  2  2  0
  1  6  1  0
  1 37  1  0
  2  3  1  0
  3  4  2  0
  3  8  1  0
  4  5  1  0
  5  6  2  0
  5  7  1  0
  8  9  1  0
  8 12  1  0
  9 10  1  0
  9 36  2  0
 11 10  1  1
 10 35  1  0
 11 12  1  0
 11 14  1  0
 11 17  1  0
 12 13  2  0
 14 15  1  0
 15 16  1  0
 15 26  1  0
 16 17  1  0
 17 18  1  0
 18 19  2  0
 18 23  1  0
 19 20  1  0
 20 21  2  0
 21 22  1  0
 21 24  1  0
 22 23  2  0
 24 25  3  0
 26 27  2  0
 26 31  1  0
 27 28  1  0
 28 29  2  0
 29 30  1  0
 29 32  1  0
 30 31  2  0
 32 33  2  0
 32 34  1  0
  2 38  1  0
  4 39  1  0
  6 40  1  0
 14 41  1  0
 14 42  1  0
 16 43  1  0
 16 44  1  0
 17 45  1  1
 19 46  1  0
 20 47  1  0
 22 48  1  0
 23 49  1  0
 28 50  1  0
 30 51  1  0
 31 52  1  0
 35 53  1  0
 35 54  1  0
 35 55  1  0
M  CHG  1  34  -1
M  END
>  <filename_input>  (23) 
7KC5_BJZ_docked.sdf

>  <pdb_id>  (23) 
7KC5_BJZ

>  <pose_rank>  (23) 
22

>  <num_atoms_heavy>  (23) 
37

>  <num_torsions>  (23) 
4

>  <pose>  (23) 
[-4.714830364246829, -20.189221703890702, 16.394602671985254, -0.05328785299423537, -0.023860391146393885, 0.06595756035064936, -0.14416556400300967, -0.12901133209213544, 1.1451257252572133, 3.1863810750378807]

>  <energy>  (23) 
-863.058518091284

>  <inter_energy>  (23) 
-907.3864049435384

>  <intra_energy>  (23) 
46.74363086377991

>  <rmsd>  (23) 
0.640881

>  <sdf_rank>  (23) 
0

$$$$

     RDKit          3D

 55 59  0  0  0  0  0  0  0  0999 V2000
    2.9885  -15.9000   15.2787 C   0  0  0  0  0  0  0  0  0  0  0  0
    1.6382  -15.9379   15.5327 C   0  0  0  0  0  0  0  0  0  0  0  0
    0.9904  -17.1746   15.4754 C   0  0  0  0  0  0  0  0  0  0  0  0
    1.6990  -18.3336   15.2324 C   0  0  0  0  0  0  0  0  0  0  0  0
    3.0573  -18.2382   14.9974 C   0  0  0  0  0  0  0  0  0  0  0  0
    3.7168  -17.0246   15.0501 C   0  0  0  0  0  0  0  0  0  0  0  0
    4.0177  -19.6785   14.6650 Cl  0  0  0  0  0  0  0  0  0  0  0  0
   -0.4262  -17.3429   15.7710 N   0  0  0  0  0  0  0  0  0  0  0  0
   -1.2887  -16.1745   16.0342 C   0  0  0  0  0  0  0  0  0  0  0  0
   -2.6022  -16.7236   16.3779 N   0  0  0  0  0  0  0  0  0  0  0  0
   -2.5311  -18.1891   16.4350 C   0  0  2  0  0  0  0  0  0  0  0  0
   -1.1343  -18.5737   15.9509 C   0  0  0  0  0  0  0  0  0  0  0  0
   -0.6069  -19.6007   15.7856 O   0  0  0  0  0  0  0  0  0  0  0  0
   -3.7678  -18.8869   15.5899 C   0  0  0  0  0  0  0  0  0  0  0  0
   -3.8741  -20.0574   16.2580 N   0  0  0  0  0  0  0  0  0  0  0  0
   -3.1423  -20.1582   17.6516 C   0  0  0  0  0  0  0  0  0  0  0  0
   -2.7268  -18.6090   17.7421 C   0  0  1  0  0  0  0  0  0  0  0  0
   -1.4563  -18.4432   18.6806 C   0  0  0  0  0  0  0  0  0  0  0  0
   -1.3354  -17.2607   19.3786 C   0  0  0  0  0  0  0  0  0  0  0  0
   -0.2231  -17.0556   20.1907 C   0  0  0  0  0  0  0  0  0  0  0  0
    0.7527  -18.0267   20.3192 C   0  0  0  0  0  0  0  0  0  0  0  0
    0.6212  -19.2353   19.6263 C   0  0  0  0  0  0  0  0  0  0  0  0
   -0.4934  -19.4184   18.8262 C   0  0  0  0  0  0  0  0  0  0  0  0
    1.9432  -17.7484   21.2394 C   0  0  0  0  0  0  0  0  0  0  0  0
    2.7959  -17.5428   21.9119 N   0  0  0  0  0  0  0  0  0  0  0  0
   -5.0003  -20.9019   15.9244 C   0  0  0  0  0  0  0  0  0  0  0  0
   -5.6336  -20.5906   14.8015 N   0  0  0  0  0  0  0  0  0  0  0  0
   -6.6809  -21.3615   14.4306 C   0  0  0  0  0  0  0  0  0  0  0  0
   -7.0572  -22.4168   15.2143 C   0  0  0  0  0  0  0  0  0  0  0  0
   -6.3857  -22.7538   16.3508 C   0  0  0  0  0  0  0  0  0  0  0  0
   -5.3374  -21.9934   16.7275 C   0  0  0  0  0  0  0  0  0  0  0  0
   -8.2290  -23.2799   14.7578 C   0  0  0  0  0  0  0  0  0  0  0  0
   -8.0789  -23.9719   13.7302 O   0  0  0  0  0  0  0  0  0  0  0  0
   -9.3113  -23.2423   15.3908 O   0  0  0  0  0  0  0  0  0  0  0  0
   -3.7240  -15.8855   16.7268 C   0  0  0  0  0  0  0  0  0  0  0  0
   -0.9364  -15.0470   15.9556 O   0  0  0  0  0  0  0  0  0  0  0  0
    3.7688  -14.3461   15.3121 Cl  0  0  0  0  0  0  0  0  0  0  0  0
    1.0827  -15.0197   15.7744 H   0  0  0  0  0  0  0  0  0  0  0  0
    1.1941  -19.3109   15.2260 H   0  0  0  0  0  0  0  0  0  0  0  0
    4.8065  -16.9702   14.9101 H   0  0  0  0  0  0  0  0  0  0  0  0
   -4.6922  -18.2942   15.6542 H   0  0  0  0  0  0  0  0  0  0  0  0
   -3.5943  -18.9838   14.5080 H   0  0  0  0  0  0  0  0  0  0  0  0
   -3.8177  -20.4643   18.4641 H   0  0  0  0  0  0  0  0  0  0  0  0
   -2.3335  -20.8986   17.7391 H   0  0  0  0  0  0  0  0  0  0  0  0
   -3.5000  -17.9778   18.2043 H   0  0  0  0  0  0  0  0  0  0  0  0
   -2.1112  -16.4855   19.2947 H   0  0  0  0  0  0  0  0  0  0  0  0
   -0.1191  -16.1071   20.7379 H   0  0  0  0  0  0  0  0  0  0  0  0
    1.3856  -20.0213   19.7152 H   0  0  0  0  0  0  0  0  0  0  0  0
   -0.6144  -20.3714   18.2903 H   0  0  0  0  0  0  0  0  0  0  0  0
   -7.2279  -21.1404   13.5022 H   0  0  0  0  0  0  0  0  0  0  0  0
   -6.6914  -23.6259   16.9474 H   0  0  0  0  0  0  0  0  0  0  0  0
   -4.7662  -22.2257   17.6383 H   0  0  0  0  0  0  0  0  0  0  0  0
   -3.8081  -15.8227   17.8218 H   0  0  0  0  0  0  0  0  0  0  0  0
   -3.5719  -14.8780   16.3123 H   0  0  0  0  0  0  0  0  0  0  0  0
   -4.6470  -16.3171   16.3123 H   0  0  0  0  0  0  0  0  0  0  0  0
  1  2  2  0
  1  6  1  0
  1 37  1  0
  2  3  1  0
  3  4  2  0
  3  8  1  0
  4  5  1  0
  5  6  2  0
  5  7  1  0
  8  9  1  0
  8 12  1  0
  9 10  1  0
  9 36  2  0
 11 10  1  1
 10 35  1  0
 11 12  1  0
 11 14  1  0
 11 17  1  0
 12 13  2  0
 14 15  1  0
 15 16  1  0
 15 26  1  0
 16 17  1  0
 17 18  1  0
 18 19  2  0
 18 23  1  0
 19 20  1  0
 20 21  2  0
 21 22  1  0
 21 24  1  0
 22 23  2  0
 24 25  3  0
 26 27  2  0
 26 31  1  0
 27 28  1  0
 28 29  2  0
 29 30  1  0
 29 32  1  0
 30 31  2  0
 32 33  2  0
 32 34  1  0
  2 38  1  0
  4 39  1  0
  6 40  1  0
 14 41  1  0
 14 42  1  0
 16 43  1  0
 16 44  1  0
 17 45  1  1
 19 46  1  0
 20 47  1  0
 22 48  1  0
 23 49  1  0
 28 50  1  0
 30 51  1  0
 31 52  1  0
 35 53  1  0
 35 54  1  0
 35 55  1  0
M  CHG  1  34  -1
M  END
>  <filename_input>  (24) 
7KC5_BJZ_docked.sdf

>  <pdb_id>  (24) 
7KC5_BJZ

>  <pose_rank>  (24) 
23

>  <num_atoms_heavy>  (24) 
37

>  <num_torsions>  (24) 
4

>  <pose>  (24) 
[-0.42615258350976837, -17.342883715750872, 15.77100056693976, -0.41344855874199243, 0.8747296183375606, 3.039981052704178, 0.8841170623883845, -0.014567472641438326, 2.7104312345501196, -1.8939363941507117]

>  <energy>  (24) 
-517.8438653144101

>  <inter_energy>  (24) 
-591.457198866053

>  <intra_energy>  (24) 
79.24153656649804

>  <rmsd>  (24) 
8.77538

>  <sdf_rank>  (24) 
0

$$$$

     RDKit          3D

 55 59  0  0  0  0  0  0  0  0999 V2000
    3.4160  -17.1708   14.0994 C   0  0  0  0  0  0  0  0  0  0  0  0
    2.1640  -17.5096   14.5542 C   0  0  0  0  0  0  0  0  0  0  0  0
    1.6325  -16.7857   15.6247 C   0  0  0  0  0  0  0  0  0  0  0  0
    2.3199  -15.7197   16.1684 C   0  0  0  0  0  0  0  0  0  0  0  0
    3.5692  -15.4148   15.6628 C   0  0  0  0  0  0  0  0  0  0  0  0
    4.1123  -16.1182   14.6041 C   0  0  0  0  0  0  0  0  0  0  0  0
    4.5064  -14.0758   16.3232 Cl  0  0  0  0  0  0  0  0  0  0  0  0
    0.2987  -17.0245   16.1597 N   0  0  0  0  0  0  0  0  0  0  0  0
   -0.4281  -15.9631   16.8833 C   0  0  0  0  0  0  0  0  0  0  0  0
   -1.6718  -16.5823   17.3465 N   0  0  0  0  0  0  0  0  0  0  0  0
   -1.6696  -18.0133   17.0174 C   0  0  2  0  0  0  0  0  0  0  0  0
   -0.4233  -18.2604   16.1695 C   0  0  0  0  0  0  0  0  0  0  0  0
    0.0034  -19.2103   15.6443 O   0  0  0  0  0  0  0  0  0  0  0  0
   -3.0881  -18.4708   16.3039 C   0  0  0  0  0  0  0  0  0  0  0  0
   -3.1192  -19.7738   16.6634 N   0  0  0  0  0  0  0  0  0  0  0  0
   -2.1258  -20.2290   17.8008 C   0  0  0  0  0  0  0  0  0  0  0  0
   -1.6177  -18.7550   18.1880 C   0  0  1  0  0  0  0  0  0  0  0  0
   -0.1758  -18.8356   18.8490 C   0  0  0  0  0  0  0  0  0  0  0  0
    0.5456  -19.9939   18.6541 C   0  0  0  0  0  0  0  0  0  0  0  0
    1.8022  -20.1246   19.2394 C   0  0  0  0  0  0  0  0  0  0  0  0
    2.3428  -19.1037   19.9992 C   0  0  0  0  0  0  0  0  0  0  0  0
    1.6195  -17.9198   20.1816 C   0  0  0  0  0  0  0  0  0  0  0  0
    0.3732  -17.8109   19.5891 C   0  0  0  0  0  0  0  0  0  0  0  0
    3.7350  -19.3010   20.6028 C   0  0  0  0  0  0  0  0  0  0  0  0
    4.7453  -19.4411   21.0284 N   0  0  0  0  0  0  0  0  0  0  0  0
   -4.3335  -20.5043   16.3730 C   0  0  0  0  0  0  0  0  0  0  0  0
   -5.1643  -19.9151   15.5236 N   0  0  0  0  0  0  0  0  0  0  0  0
   -6.3051  -20.5651   15.1999 C   0  0  0  0  0  0  0  0  0  0  0  0
   -6.5704  -21.7864   15.7544 C   0  0  0  0  0  0  0  0  0  0  0  0
   -5.7009  -22.4039   16.6022 C   0  0  0  0  0  0  0  0  0  0  0  0
   -4.5586  -21.7656   16.9285 C   0  0  0  0  0  0  0  0  0  0  0  0
   -7.8553  -22.5035   15.3528 C   0  0  0  0  0  0  0  0  0  0  0  0
   -8.5006  -23.0893   16.2460 O   0  0  0  0  0  0  0  0  0  0  0  0
   -8.2050  -22.5228   14.1483 O   0  0  0  0  0  0  0  0  0  0  0  0
   -2.6524  -15.8623   18.1227 C   0  0  0  0  0  0  0  0  0  0  0  0
   -0.0389  -14.8532   17.0182 O   0  0  0  0  0  0  0  0  0  0  0  0
    4.0785  -18.1111   12.7949 Cl  0  0  0  0  0  0  0  0  0  0  0  0
    1.5959  -18.3282   14.0882 H   0  0  0  0  0  0  0  0  0  0  0  0
    1.8834  -15.1265   16.9854 H   0  0  0  0  0  0  0  0  0  0  0  0
    5.0861  -15.8326   14.1797 H   0  0  0  0  0  0  0  0  0  0  0  0
   -3.9469  -17.9147   16.7080 H   0  0  0  0  0  0  0  0  0  0  0  0
   -3.1438  -18.2865   15.2209 H   0  0  0  0  0  0  0  0  0  0  0  0
   -2.6373  -20.7337   18.6337 H   0  0  0  0  0  0  0  0  0  0  0  0
   -1.3572  -20.9668   17.5272 H   0  0  0  0  0  0  0  0  0  0  0  0
   -2.2457  -18.2638   18.9459 H   0  0  0  0  0  0  0  0  0  0  0  0
    0.1319  -20.8083   18.0412 H   0  0  0  0  0  0  0  0  0  0  0  0
    2.3733  -21.0536   19.0951 H   0  0  0  0  0  0  0  0  0  0  0  0
    2.0315  -17.0951   20.7817 H   0  0  0  0  0  0  0  0  0  0  0  0
   -0.1963  -16.8780   19.7128 H   0  0  0  0  0  0  0  0  0  0  0  0
   -7.0168  -20.1131   14.4933 H   0  0  0  0  0  0  0  0  0  0  0  0
   -5.9254  -23.4001   17.0111 H   0  0  0  0  0  0  0  0  0  0  0  0
   -3.8274  -22.2240   17.6106 H   0  0  0  0  0  0  0  0  0  0  0  0
   -2.4519  -16.0095   19.1942 H   0  0  0  0  0  0  0  0  0  0  0  0
   -2.5948  -14.7903   17.8828 H   0  0  0  0  0  0  0  0  0  0  0  0
   -3.6579  -16.2382   17.8828 H   0  0  0  0  0  0  0  0  0  0  0  0
  1  2  2  0
  1  6  1  0
  1 37  1  0
  2  3  1  0
  3  4  2  0
  3  8  1  0
  4  5  1  0
  5  6  2  0
  5  7  1  0
  8  9  1  0
  8 12  1  0
  9 10  1  0
  9 36  2  0
 11 10  1  1
 10 35  1  0
 11 12  1  0
 11 14  1  0
 11 17  1  0
 12 13  2  0
 14 15  1  0
 15 16  1  0
 15 26  1  0
 16 17  1  0
 17 18  1  0
 18 19  2  0
 18 23  1  0
 19 20  1  0
 20 21  2  0
 21 22  1  0
 21 24  1  0
 22 23  2  0
 24 25  3  0
 26 27  2  0
 26 31  1  0
 27 28  1  0
 28 29  2  0
 29 30  1  0
 29 32  1  0
 30 31  2  0
 32 33  2  0
 32 34  1  0
  2 38  1  0
  4 39  1  0
  6 40  1  0
 14 41  1  0
 14 42  1  0
 16 43  1  0
 16 44  1  0
 17 45  1  1
 19 46  1  0
 20 47  1  0
 22 48  1  0
 23 49  1  0
 28 50  1  0
 30 51  1  0
 31 52  1  0
 35 53  1  0
 35 54  1  0
 35 55  1  0
M  CHG  1  34  -1
M  END
>  <filename_input>  (25) 
7KC5_BJZ_docked.sdf

>  <pdb_id>  (25) 
7KC5_BJZ

>  <pose_rank>  (25) 
24

>  <num_atoms_heavy>  (25) 
37

>  <num_torsions>  (25) 
4

>  <pose>  (25) 
[0.29872146486443385, -17.024497916307237, 16.159717424251724, -0.0867473172119848, 0.4679603523478157, 3.1520304314908634, -1.9303591548265266, 2.9081163187191637, -2.928104738999744, 0.7878050755655028]

>  <energy>  (25) 
-405.0196337064398

>  <inter_energy>  (25) 
-468.41011650313624

>  <intra_energy>  (25) 
70.59488176256312

>  <rmsd>  (25) 
9.09435

>  <sdf_rank>  (25) 
0

$$$$

     RDKit          3D

 55 59  0  0  0  0  0  0  0  0999 V2000
   -7.2990  -21.8280   15.1960 C   0  0  0  0  0  0  0  0  0  0  0  0
   -6.0140  -21.6170   15.6360 C   0  0  0  0  0  0  0  0  0  0  0  0
   -5.6440  -20.3180   15.9940 C   0  0  0  0  0  0  0  0  0  0  0  0
   -6.5620  -19.2880   15.9660 C   0  0  0  0  0  0  0  0  0  0  0  0
   -7.8440  -19.5600   15.5280 C   0  0  0  0  0  0  0  0  0  0  0  0
   -8.2300  -20.8380   15.1700 C   0  0  0  0  0  0  0  0  0  0  0  0
   -9.0600  -18.2860   15.4530 Cl  0  0  0  0  0  0  0  0  0  0  0  0
   -4.3260  -19.9840   16.5170 N   0  0  0  0  0  0  0  0  0  0  0  0
   -3.6920  -20.8150   17.5590 C   0  0  0  0  0  0  0  0  0  0  0  0
   -2.4400  -20.1350   17.8980 N   0  0  0  0  0  0  0  0  0  0  0  0
   -2.3500  -18.8630   17.1700 C   0  0  2  0  0  0  0  0  0  0  0  0
   -3.5400  -18.8270   16.2130 C   0  0  0  0  0  0  0  0  0  0  0  0
   -3.8900  -18.0560   15.4110 O   0  0  0  0  0  0  0  0  0  0  0  0
   -0.8770  -18.6870   16.4420 C   0  0  0  0  0  0  0  0  0  0  0  0
   -0.7930  -17.3380   16.4110 N   0  0  0  0  0  0  0  0  0  0  0  0
   -1.8130  -16.5340   17.3060 C   0  0  0  0  0  0  0  0  0  0  0  0
   -2.4170  -17.8110   18.0710 C   0  0  1  0  0  0  0  0  0  0  0  0
   -3.8820  -17.4870   18.5920 C   0  0  0  0  0  0  0  0  0  0  0  0
   -4.2940  -18.1110   19.7500 C   0  0  0  0  0  0  0  0  0  0  0  0
   -5.5810  -17.8830   20.2300 C   0  0  0  0  0  0  0  0  0  0  0  0
   -6.4450  -17.0280   19.5710 C   0  0  0  0  0  0  0  0  0  0  0  0
   -6.0210  -16.3790   18.4060 C   0  0  0  0  0  0  0  0  0  0  0  0
   -4.7370  -16.6190   17.9480 C   0  0  0  0  0  0  0  0  0  0  0  0
   -7.8410  -16.8060   20.1570 C   0  0  0  0  0  0  0  0  0  0  0  0
   -8.8540  -16.6510   20.5710 N   0  0  0  0  0  0  0  0  0  0  0  0
    0.4710  -16.7700   15.9960 C   0  0  0  0  0  0  0  0  0  0  0  0
    1.3080  -17.6120   15.4050 N   0  0  0  0  0  0  0  0  0  0  0  0
    2.4960  -17.1280   14.9770 C   0  0  0  0  0  0  0  0  0  0  0  0
    2.8000  -15.8090   15.1700 C   0  0  0  0  0  0  0  0  0  0  0  0
    1.9260  -14.9390   15.7490 C   0  0  0  0  0  0  0  0  0  0  0  0
    0.7370  -15.4110   16.1760 C   0  0  0  0  0  0  0  0  0  0  0  0
    4.1390  -15.2890   14.6570 C   0  0  0  0  0  0  0  0  0  0  0  0
    4.3720  -14.0680   14.7670 O   0  0  0  0  0  0  0  0  0  0  0  0
    4.9430  -16.0800   14.1080 O   0  0  0  0  0  0  0  0  0  0  0  0
   -1.5370  -20.6340   18.9070 C   0  0  0  0  0  0  0  0  0  0  0  0
   -4.1460  -21.8220   17.9850 O   0  0  0  0  0  0  0  0  0  0  0  0
   -7.7280  -23.4430   14.7140 Cl  0  0  0  0  0  0  0  0  0  0  0  0
   -5.2966  -22.4480   15.7044 H   0  0  0  0  0  0  0  0  0  0  0  0
   -6.2797  -18.2738   16.2850 H   0  0  0  0  0  0  0  0  0  0  0  0
   -9.2673  -21.0491   14.8708 H   0  0  0  0  0  0  0  0  0  0  0  0
   -0.0693  -19.1331   17.0408 H   0  0  0  0  0  0  0  0  0  0  0  0
   -0.7805  -19.1809   15.4639 H   0  0  0  0  0  0  0  0  0  0  0  0
   -1.3149  -15.8281   17.9869 H   0  0  0  0  0  0  0  0  0  0  0  0
   -2.5273  -15.8795   16.7849 H   0  0  0  0  0  0  0  0  0  0  0  0
   -1.8526  -18.0833   18.9751 H   0  0  0  0  0  0  0  0  0  0  0  0
   -3.6116  -18.7836   20.2904 H   0  0  0  0  0  0  0  0  0  0  0  0
   -5.9153  -18.3905   21.1469 H   0  0  0  0  0  0  0  0  0  0  0  0
   -6.6922  -15.6943   17.8669 H   0  0  0  0  0  0  0  0  0  0  0  0
   -4.3884  -16.1011   17.0423 H   0  0  0  0  0  0  0  0  0  0  0  0
    3.2148  -17.7928   14.4756 H   0  0  0  0  0  0  0  0  0  0  0  0
    2.1841  -13.8761   15.8655 H   0  0  0  0  0  0  0  0  0  0  0  0
    0.0001  -14.7466   16.6510 H   0  0  0  0  0  0  0  0  0  0  0  0
   -1.9422  -20.4101   19.9048 H   0  0  0  0  0  0  0  0  0  0  0  0
   -1.4246  -21.7223   18.7926 H   0  0  0  0  0  0  0  0  0  0  0  0
   -0.5558  -20.1500   18.7926 H   0  0  0  0  0  0  0  0  0  0  0  0
  1  2  2  0
  1  6  1  0
  1 37  1  0
  2  3  1  0
  3  4  2  0
  3  8  1  0
  4  5  1  0
  5  6  2  0
  5  7  1  0
  8  9  1  0
  8 12  1  0
  9 10  1  0
  9 36  2  0
 11 10  1  1
 10 35  1  0
 11 12  1  0
 11 14  1  0
 11 17  1  0
 12 13  2  0
 14 15  1  0
 15 16  1  0
 15 26  1  0
 16 17  1  0
 17 18  1  0
 18 19  2  0
 18 23  1  0
 19 20  1  0
 20 21  2  0
 21 22  1  0
 21 24  1  0
 22 23  2  0
 24 25  3  0
 26 27  2  0
 26 31  1  0
 27 28  1  0
 28 29  2  0
 29 30  1  0
 29 32  1  0
 30 31  2  0
 32 33  2  0
 32 34  1  0
  2 38  1  0
  4 39  1  0
  6 40  1  0
 14 41  1  0
 14 42  1  0
 16 43  1  0
 16 44  1  0
 17 45  1  1
 19 46  1  0
 20 47  1  0
 22 48  1  0
 23 49  1  0
 28 50  1  0
 30 51  1  0
 31 52  1  0
 35 53  1  0
 35 54  1  0
 35 55  1  0
M  CHG  1  34  -1
M  END
>  <filename_input>  (26) 
7KC5_BJZ_docked.sdf

>  <pdb_id>  (26) 
7KC5_BJZ

>  <pose_rank>  (26) 
25

>  <num_atoms_heavy>  (26) 
37

>  <num_torsions>  (26) 
4

>  <pose>  (26) 
[-4.326, -19.984, 16.517, 1e-06, 1e-06, 1e-06, 0.0, 0.0, 0.0, 0.0]

>  <energy>  (26) 
-764.5093653472649

>  <inter_energy>  (26) 
-822.0921328227763

>  <intra_energy>  (26) 
54.90021070401836

>  <rmsd>  (26) 
0.0

>  <sdf_rank>  (26) 
0

$$$$
