
     RDKit          3D

 52 53  0  0  0  0  0  0  0  0999 V2000
  -19.9915  -13.3566  -21.7943 C   0  0  0  0  0  0  0  0  0  0  0  0
  -21.2972  -13.6639  -22.1766 O   0  0  0  0  0  0  0  0  0  0  0  0
  -21.2295  -12.0345  -19.0500 C   0  0  0  0  0  0  0  0  0  0  0  0
  -20.7702  -11.4281  -20.3972 C   0  0  0  0  0  0  0  0  0  0  0  0
  -19.7105  -12.3357  -20.9526 C   0  0  0  0  0  0  0  0  0  0  0  0
  -17.4710  -12.8486  -21.0475 C   0  0  0  0  0  0  0  0  0  0  0  0
  -18.9041  -14.1376  -22.2590 C   0  0  0  0  0  0  0  0  0  0  0  0
  -21.7143  -13.2018  -23.4996 C   0  0  0  0  0  0  0  0  0  0  0  0
  -23.1162  -13.7592  -23.6913 C   0  0  0  0  0  0  0  0  0  0  0  0
  -24.1793  -12.6906  -23.4259 C   0  0  0  0  0  0  0  0  0  0  0  0
  -24.3548  -10.3550  -24.0162 C   0  0  0  0  0  0  0  0  0  0  0  0
  -25.1807  -10.0511  -22.9540 C   0  0  0  0  0  0  0  0  0  0  0  0
  -25.5191   -8.7234  -22.7252 C   0  0  0  0  0  0  0  0  0  0  0  0
  -25.0632   -7.7118  -23.5485 C   0  0  0  0  0  0  0  0  0  0  0  0
  -24.2241   -8.0258  -24.6227 C   0  0  0  0  0  0  0  0  0  0  0  0
  -23.7060   -6.9433  -25.5613 C   0  0  0  0  0  0  0  0  0  0  0  0
  -22.2630   -6.4511  -25.3346 C   0  0  2  0  0  0  0  0  0  0  0  0
  -22.3119   -5.3845  -24.2693 C   0  0  2  0  0  0  0  0  0  0  0  0
  -21.7484   -5.8356  -26.6818 C   0  0  0  0  0  0  0  0  0  0  0  0
  -23.8852   -9.3468  -24.8393 C   0  0  0  0  0  0  0  0  0  0  0  0
  -21.5280   -4.3049  -24.6268 F   0  0  0  0  0  0  0  0  0  0  0  0
  -21.7923   -5.8460  -23.0654 F   0  0  0  0  0  0  0  0  0  0  0  0
  -18.4464  -12.0709  -20.5706 N   0  0  0  0  0  0  0  0  0  0  0  0
  -16.1978  -12.5812  -20.6646 N   0  0  0  0  0  0  0  0  0  0  0  0
  -17.6499  -13.8704  -21.8800 N   0  0  0  0  0  0  0  0  0  0  0  0
  -19.1072  -15.1615  -23.0865 N   0  0  0  0  0  0  0  0  0  0  0  0
  -23.9581  -11.6269  -24.3417 O   0  0  0  0  0  0  0  0  0  0  0  0
  -22.5999   -5.1764  -27.3019 O   0  0  0  0  0  0  0  0  0  0  0  0
  -20.5617   -6.0746  -26.9683 O   0  0  0  0  0  0  0  0  0  0  0  0
  -20.7931  -11.4583  -18.2208 H   0  0  0  0  0  0  0  0  0  0  0  0
  -22.3269  -11.9960  -18.9857 H   0  0  0  0  0  0  0  0  0  0  0  0
  -20.8949  -13.0804  -18.9857 H   0  0  0  0  0  0  0  0  0  0  0  0
  -21.6197  -11.3697  -21.0937 H   0  0  0  0  0  0  0  0  0  0  0  0
  -20.3781  -10.4103  -20.2546 H   0  0  0  0  0  0  0  0  0  0  0  0
  -21.7274  -12.1025  -23.5382 H   0  0  0  0  0  0  0  0  0  0  0  0
  -21.0260  -13.5380  -24.2891 H   0  0  0  0  0  0  0  0  0  0  0  0
  -23.2205  -14.1196  -24.7254 H   0  0  0  0  0  0  0  0  0  0  0  0
  -23.2641  -14.5820  -22.9764 H   0  0  0  0  0  0  0  0  0  0  0  0
  -25.1830  -13.1141  -23.5784 H   0  0  0  0  0  0  0  0  0  0  0  0
  -24.1119  -12.3281  -22.3895 H   0  0  0  0  0  0  0  0  0  0  0  0
  -25.5649  -10.8469  -22.2990 H   0  0  0  0  0  0  0  0  0  0  0  0
  -26.1640   -8.4720  -21.8703 H   0  0  0  0  0  0  0  0  0  0  0  0
  -25.3575   -6.6687  -23.3608 H   0  0  0  0  0  0  0  0  0  0  0  0
  -23.7648   -7.3374  -26.5866 H   0  0  0  0  0  0  0  0  0  0  0  0
  -24.3407   -6.0668  -25.3638 H   0  0  0  0  0  0  0  0  0  0  0  0
  -21.5942   -7.2663  -25.0213 H   0  0  0  0  0  0  0  0  0  0  0  0
  -23.3702   -5.1046  -24.1617 H   0  0  0  0  0  0  0  0  0  0  0  0
  -23.2283   -9.6029  -25.6836 H   0  0  0  0  0  0  0  0  0  0  0  0
  -15.4221  -13.1618  -21.0141 H   0  0  0  0  0  0  0  0  0  0  0  0
  -16.0065  -11.7975  -20.0242 H   0  0  0  0  0  0  0  0  0  0  0  0
  -18.3091  -15.7221  -23.4177 H   0  0  0  0  0  0  0  0  0  0  0  0
  -20.0622  -15.3926  -23.3953 H   0  0  0  0  0  0  0  0  0  0  0  0
  1  2  1  0
  1  5  2  0
  1  7  1  0
  2  8  1  0
  3  4  1  0
  4  5  1  0
  5 23  1  0
  6 23  2  0
  6 24  1  0
  6 25  1  0
  7 25  2  0
  7 26  1  0
  8  9  1  0
  9 10  1  0
 10 27  1  0
 11 12  2  0
 11 20  1  0
 11 27  1  0
 12 13  1  0
 13 14  2  0
 14 15  1  0
 15 16  1  0
 15 20  2  0
 17 16  1  0
 17 18  1  0
 17 19  1  0
 18 21  1  0
 18 22  1  0
 19 28  2  0
 19 29  1  0
  3 30  1  0
  3 31  1  0
  3 32  1  0
  4 33  1  0
  4 34  1  0
  8 35  1  0
  8 36  1  0
  9 37  1  0
  9 38  1  0
 10 39  1  0
 10 40  1  0
 12 41  1  0
 13 42  1  0
 14 43  1  0
 16 44  1  0
 16 45  1  0
 17 46  1  1
 18 47  1  1
 20 48  1  0
 24 49  1  0
 24 50  1  0
 26 51  1  0
 26 52  1  0
M  CHG  1  29  -1
M  END
>  <filename_input>  (1) 
7KM8_WPD_docked.sdf

>  <pdb_id>  (1) 
7KM8_WPD

>  <pose_rank>  (1) 
0

>  <num_atoms_heavy>  (1) 
29

>  <num_torsions>  (1) 
11

>  <pose>  (1) 
[-23.95812076634706, -11.626856849487535, -24.34171715369379, 1.7489542701938807, -5.706792626071993, 0.44888205813626214, -6.61188667510084, -0.13236548187718244, 0.6188589653028397, 0.7875673211022741, -0.6148961241488149, 0.5541574967060938, -6.254267470439397, 0.37634008942564784, -6.648085189445784, -0.06759720657568609, -3.0225046299552125]

>  <energy>  (1) 
-1778.0489313377468

>  <inter_energy>  (1) 
-1776.9747641015397

>  <intra_energy>  (1) 
7.493206527718575

>  <rmsd>  (1) 
0.845496

>  <sdf_rank>  (1) 
0

$$$$

     RDKit          3D

 52 53  0  0  0  0  0  0  0  0999 V2000
  -19.9996  -13.2452  -22.1123 C   0  0  0  0  0  0  0  0  0  0  0  0
  -21.2581  -13.4726  -22.6691 O   0  0  0  0  0  0  0  0  0  0  0  0
  -20.1963  -10.2861  -19.8152 C   0  0  0  0  0  0  0  0  0  0  0  0
  -20.8461  -11.2840  -20.8029 C   0  0  0  0  0  0  0  0  0  0  0  0
  -19.7755  -12.2484  -21.2258 C   0  0  0  0  0  0  0  0  0  0  0  0
  -17.5764  -12.8913  -21.0300 C   0  0  0  0  0  0  0  0  0  0  0  0
  -18.9065  -14.0855  -22.4399 C   0  0  0  0  0  0  0  0  0  0  0  0
  -21.8083  -12.3990  -23.4954 C   0  0  0  0  0  0  0  0  0  0  0  0
  -23.1730  -12.0964  -22.8963 C   0  0  0  0  0  0  0  0  0  0  0  0
  -23.9823  -11.1649  -23.8018 C   0  0  0  0  0  0  0  0  0  0  0  0
  -23.9112   -8.8066  -24.3193 C   0  0  0  0  0  0  0  0  0  0  0  0
  -24.9851   -8.7744  -25.1843 C   0  0  0  0  0  0  0  0  0  0  0  0
  -25.1286   -7.6866  -26.0361 C   0  0  0  0  0  0  0  0  0  0  0  0
  -24.2106   -6.6541  -26.0465 C   0  0  0  0  0  0  0  0  0  0  0  0
  -23.1249   -6.6910  -25.1655 C   0  0  0  0  0  0  0  0  0  0  0  0
  -22.0837   -5.5788  -25.1499 C   0  0  0  0  0  0  0  0  0  0  0  0
  -21.7798   -4.9226  -23.7887 C   0  0  2  0  0  0  0  0  0  0  0  0
  -23.0626   -4.3080  -23.2873 C   0  0  2  0  0  0  0  0  0  0  0  0
  -20.7084   -3.8021  -24.0243 C   0  0  0  0  0  0  0  0  0  0  0  0
  -22.9930   -7.7715  -24.3158 C   0  0  0  0  0  0  0  0  0  0  0  0
  -23.8369   -3.8700  -24.3440 F   0  0  0  0  0  0  0  0  0  0  0  0
  -22.8157   -3.1832  -22.5087 F   0  0  0  0  0  0  0  0  0  0  0  0
  -18.5606  -12.0610  -20.6755 N   0  0  0  0  0  0  0  0  0  0  0  0
  -16.3525  -12.7018  -20.4774 N   0  0  0  0  0  0  0  0  0  0  0  0
  -17.7009  -13.8950  -21.8938 N   0  0  0  0  0  0  0  0  0  0  0  0
  -19.0556  -15.0899  -23.3021 N   0  0  0  0  0  0  0  0  0  0  0  0
  -23.6643   -9.8285  -23.4384 O   0  0  0  0  0  0  0  0  0  0  0  0
  -19.9986   -3.5562  -23.0344 O   0  0  0  0  0  0  0  0  0  0  0  0
  -20.6930   -3.2976  -25.1612 O   0  0  0  0  0  0  0  0  0  0  0  0
  -20.4035  -10.6044  -18.7829 H   0  0  0  0  0  0  0  0  0  0  0  0
  -19.1090  -10.2622  -19.9803 H   0  0  0  0  0  0  0  0  0  0  0  0
  -20.6143   -9.2821  -19.9803 H   0  0  0  0  0  0  0  0  0  0  0  0
  -21.6664  -11.8245  -20.3079 H   0  0  0  0  0  0  0  0  0  0  0  0
  -21.2639  -10.7570  -21.6733 H   0  0  0  0  0  0  0  0  0  0  0  0
  -21.1623  -11.5097  -23.4531 H   0  0  0  0  0  0  0  0  0  0  0  0
  -21.8785  -12.6891  -24.5541 H   0  0  0  0  0  0  0  0  0  0  0  0
  -23.7248  -13.0391  -22.7668 H   0  0  0  0  0  0  0  0  0  0  0  0
  -23.0244  -11.5969  -21.9275 H   0  0  0  0  0  0  0  0  0  0  0  0
  -23.7159  -11.3408  -24.8545 H   0  0  0  0  0  0  0  0  0  0  0  0
  -25.0598  -11.3514  -23.6831 H   0  0  0  0  0  0  0  0  0  0  0  0
  -25.7158   -9.5965  -25.1993 H   0  0  0  0  0  0  0  0  0  0  0  0
  -25.9916   -7.6464  -26.7170 H   0  0  0  0  0  0  0  0  0  0  0  0
  -24.3326   -5.8103  -26.7417 H   0  0  0  0  0  0  0  0  0  0  0  0
  -21.1424   -6.0003  -25.5324 H   0  0  0  0  0  0  0  0  0  0  0  0
  -22.5158   -4.7750  -25.7639 H   0  0  0  0  0  0  0  0  0  0  0  0
  -21.3991   -5.6500  -23.0566 H   0  0  0  0  0  0  0  0  0  0  0  0
  -23.5710   -5.0892  -22.7031 H   0  0  0  0  0  0  0  0  0  0  0  0
  -22.1404   -7.8101  -23.6219 H   0  0  0  0  0  0  0  0  0  0  0  0
  -15.5717  -13.3245  -20.7293 H   0  0  0  0  0  0  0  0  0  0  0  0
  -16.2038  -11.9351  -19.8058 H   0  0  0  0  0  0  0  0  0  0  0  0
  -18.2538  -15.6941  -23.5325 H   0  0  0  0  0  0  0  0  0  0  0  0
  -19.9726  -15.2624  -23.7383 H   0  0  0  0  0  0  0  0  0  0  0  0
  1  2  1  0
  1  5  2  0
  1  7  1  0
  2  8  1  0
  3  4  1  0
  4  5  1  0
  5 23  1  0
  6 23  2  0
  6 24  1  0
  6 25  1  0
  7 25  2  0
  7 26  1  0
  8  9  1  0
  9 10  1  0
 10 27  1  0
 11 12  2  0
 11 20  1  0
 11 27  1  0
 12 13  1  0
 13 14  2  0
 14 15  1  0
 15 16  1  0
 15 20  2  0
 17 16  1  0
 17 18  1  0
 17 19  1  0
 18 21  1  0
 18 22  1  0
 19 28  2  0
 19 29  1  0
  3 30  1  0
  3 31  1  0
  3 32  1  0
  4 33  1  0
  4 34  1  0
  8 35  1  0
  8 36  1  0
  9 37  1  0
  9 38  1  0
 10 39  1  0
 10 40  1  0
 12 41  1  0
 13 42  1  0
 14 43  1  0
 16 44  1  0
 16 45  1  0
 17 46  1  1
 18 47  1  1
 20 48  1  0
 24 49  1  0
 24 50  1  0
 26 51  1  0
 26 52  1  0
M  CHG  1  29  -1
M  END
>  <filename_input>  (2) 
7KM8_WPD_docked.sdf

>  <pdb_id>  (2) 
7KM8_WPD

>  <pose_rank>  (2) 
1

>  <num_atoms_heavy>  (2) 
29

>  <num_torsions>  (2) 
11

>  <pose>  (2) 
[-23.66432831876015, -9.82845796609041, -23.43839975899884, 0.04562917530124914, 4.232636027621033, -0.7469555881692624, 19.342928734531675, 6.616337866863931, 1.0369624378480589, 2.592408767016962, -3.973596855766402, -19.10738179618507, -15.127038096399176, -29.47790160145496, -5.625861496859483, -7.018167229839702, 4.822072441619257]

>  <energy>  (2) 
-1583.892194816295

>  <inter_energy>  (2) 
-1593.7417124063759

>  <intra_energy>  (2) 
34.24160889149106

>  <rmsd>  (2) 
2.1183

>  <sdf_rank>  (2) 
0

$$$$

     RDKit          3D

 52 53  0  0  0  0  0  0  0  0999 V2000
  -19.9403  -13.2808  -21.8120 C   0  0  0  0  0  0  0  0  0  0  0  0
  -21.2651  -13.5054  -22.1862 O   0  0  0  0  0  0  0  0  0  0  0  0
  -19.8381  -10.1923  -19.7361 C   0  0  0  0  0  0  0  0  0  0  0  0
  -20.6083  -11.4242  -20.2679 C   0  0  0  0  0  0  0  0  0  0  0  0
  -19.5996  -12.3343  -20.9078 C   0  0  0  0  0  0  0  0  0  0  0  0
  -17.3866  -12.9329  -21.0866 C   0  0  0  0  0  0  0  0  0  0  0  0
  -18.8968  -14.0723  -22.3532 C   0  0  0  0  0  0  0  0  0  0  0  0
  -21.6891  -12.9261  -23.4601 C   0  0  0  0  0  0  0  0  0  0  0  0
  -21.5139  -11.4248  -23.2916 C   0  0  0  0  0  0  0  0  0  0  0  0
  -22.8058  -10.6747  -23.6246 C   0  0  0  0  0  0  0  0  0  0  0  0
  -23.1287   -8.3483  -24.1885 C   0  0  0  0  0  0  0  0  0  0  0  0
  -23.7341   -7.9915  -23.0016 C   0  0  0  0  0  0  0  0  0  0  0  0
  -24.3956   -6.7724  -22.9254 C   0  0  0  0  0  0  0  0  0  0  0  0
  -24.4747   -5.9266  -24.0150 C   0  0  0  0  0  0  0  0  0  0  0  0
  -23.8568   -6.2927  -25.2153 C   0  0  0  0  0  0  0  0  0  0  0  0
  -23.9271   -5.3950  -26.4443 C   0  0  0  0  0  0  0  0  0  0  0  0
  -22.9497   -4.2043  -26.4992 C   0  0  2  0  0  0  0  0  0  0  0  0
  -23.0389   -3.6103  -27.8827 C   0  0  2  0  0  0  0  0  0  0  0  0
  -21.5041   -4.7578  -26.2490 C   0  0  0  0  0  0  0  0  0  0  0  0
  -23.1940   -7.5022  -25.2814 C   0  0  0  0  0  0  0  0  0  0  0  0
  -22.0391   -2.6770  -28.0759 F   0  0  0  0  0  0  0  0  0  0  0  0
  -24.2348   -2.9253  -28.0644 F   0  0  0  0  0  0  0  0  0  0  0  0
  -18.3182  -12.1503  -20.5359 N   0  0  0  0  0  0  0  0  0  0  0  0
  -16.0961  -12.7467  -20.7137 N   0  0  0  0  0  0  0  0  0  0  0  0
  -17.6253  -13.8853  -21.9839 N   0  0  0  0  0  0  0  0  0  0  0  0
  -19.1596  -15.0261  -23.2451 N   0  0  0  0  0  0  0  0  0  0  0  0
  -22.4529   -9.5259  -24.3829 O   0  0  0  0  0  0  0  0  0  0  0  0
  -21.0032   -4.4107  -25.1661 O   0  0  0  0  0  0  0  0  0  0  0  0
  -21.0337   -5.4726  -27.1520 O   0  0  0  0  0  0  0  0  0  0  0  0
  -19.8445  -10.2026  -18.6362 H   0  0  0  0  0  0  0  0  0  0  0  0
  -18.7995  -10.2253  -20.0971 H   0  0  0  0  0  0  0  0  0  0  0  0
  -20.3226   -9.2730  -20.0971 H   0  0  0  0  0  0  0  0  0  0  0  0
  -21.1106  -11.9422  -19.4377 H   0  0  0  0  0  0  0  0  0  0  0  0
  -21.3776  -11.1212  -20.9935 H   0  0  0  0  0  0  0  0  0  0  0  0
  -21.0597  -13.2984  -24.2819 H   0  0  0  0  0  0  0  0  0  0  0  0
  -22.7264  -13.1943  -23.7093 H   0  0  0  0  0  0  0  0  0  0  0  0
  -21.2337  -11.2112  -22.2496 H   0  0  0  0  0  0  0  0  0  0  0  0
  -20.7275  -11.0868  -23.9826 H   0  0  0  0  0  0  0  0  0  0  0  0
  -23.4739  -11.3213  -24.2124 H   0  0  0  0  0  0  0  0  0  0  0  0
  -23.3311  -10.3828  -22.7033 H   0  0  0  0  0  0  0  0  0  0  0  0
  -23.6938   -8.6612  -22.1299 H   0  0  0  0  0  0  0  0  0  0  0  0
  -24.8667   -6.4741  -21.9772 H   0  0  0  0  0  0  0  0  0  0  0  0
  -25.0189   -4.9736  -23.9393 H   0  0  0  0  0  0  0  0  0  0  0  0
  -23.7335   -6.0238  -27.3259 H   0  0  0  0  0  0  0  0  0  0  0  0
  -24.9283   -4.9408  -26.4089 H   0  0  0  0  0  0  0  0  0  0  0  0
  -23.1887   -3.4402  -25.7448 H   0  0  0  0  0  0  0  0  0  0  0  0
  -22.9548   -4.4522  -28.5856 H   0  0  0  0  0  0  0  0  0  0  0  0
  -22.7079   -7.7993  -26.2224 H   0  0  0  0  0  0  0  0  0  0  0  0
  -15.3530  -13.3334  -21.1194 H   0  0  0  0  0  0  0  0  0  0  0  0
  -15.8589  -12.0187  -20.0248 H   0  0  0  0  0  0  0  0  0  0  0  0
  -18.3929  -15.5951  -23.6316 H   0  0  0  0  0  0  0  0  0  0  0  0
  -20.1294  -15.1946  -23.5484 H   0  0  0  0  0  0  0  0  0  0  0  0
  1  2  1  0
  1  5  2  0
  1  7  1  0
  2  8  1  0
  3  4  1  0
  4  5  1  0
  5 23  1  0
  6 23  2  0
  6 24  1  0
  6 25  1  0
  7 25  2  0
  7 26  1  0
  8  9  1  0
  9 10  1  0
 10 27  1  0
 11 12  2  0
 11 20  1  0
 11 27  1  0
 12 13  1  0
 13 14  2  0
 14 15  1  0
 15 16  1  0
 15 20  2  0
 17 16  1  0
 17 18  1  0
 17 19  1  0
 18 21  1  0
 18 22  1  0
 19 28  2  0
 19 29  1  0
  3 30  1  0
  3 31  1  0
  3 32  1  0
  4 33  1  0
  4 34  1  0
  8 35  1  0
  8 36  1  0
  9 37  1  0
  9 38  1  0
 10 39  1  0
 10 40  1  0
 12 41  1  0
 13 42  1  0
 14 43  1  0
 16 44  1  0
 16 45  1  0
 17 46  1  1
 18 47  1  6
 20 48  1  0
 24 49  1  0
 24 50  1  0
 26 51  1  0
 26 52  1  0
M  CHG  1  29  -1
M  END
>  <filename_input>  (3) 
7KM8_WPD_docked.sdf

>  <pdb_id>  (3) 
7KM8_WPD

>  <pose_rank>  (3) 
2

>  <num_atoms_heavy>  (3) 
29

>  <num_torsions>  (3) 
11

>  <pose>  (3) 
[-22.45294118090429, -9.525854883657225, -24.382879682159036, 2.2134547382098204, 3.1096755563233907, -4.800850021380874, 0.3687828897770795, -6.76973718512993, 5.074545563019439, 0.17990360817668913, 3.0418889509183287, -5.538557452460607, 2.8630963640960196, -3.587328746708242, 1.7793519918399707, -0.07509503253360891, -1.1248601216474463]

>  <energy>  (3) 
-1567.4672821723002

>  <inter_energy>  (3) 
-1600.021219231588

>  <intra_energy>  (3) 
36.25408899539403

>  <rmsd>  (3) 
2.12739

>  <sdf_rank>  (3) 
0

$$$$

     RDKit          3D

 52 53  0  0  0  0  0  0  0  0999 V2000
  -20.0394  -13.2455  -21.7660 C   0  0  0  0  0  0  0  0  0  0  0  0
  -21.3679  -13.4951  -22.1098 O   0  0  0  0  0  0  0  0  0  0  0  0
  -20.6635  -11.5795  -18.7581 C   0  0  0  0  0  0  0  0  0  0  0  0
  -20.6988  -11.3350  -20.2854 C   0  0  0  0  0  0  0  0  0  0  0  0
  -19.6926  -12.2615  -20.9052 C   0  0  0  0  0  0  0  0  0  0  0  0
  -17.4777  -12.8491  -21.0960 C   0  0  0  0  0  0  0  0  0  0  0  0
  -18.9978  -14.0493  -22.2925 C   0  0  0  0  0  0  0  0  0  0  0  0
  -21.8675  -12.8238  -23.3088 C   0  0  0  0  0  0  0  0  0  0  0  0
  -23.0739  -13.6394  -23.7472 C   0  0  0  0  0  0  0  0  0  0  0  0
  -24.3264  -12.7659  -23.8503 C   0  0  0  0  0  0  0  0  0  0  0  0
  -24.4951  -10.3741  -24.1429 C   0  0  0  0  0  0  0  0  0  0  0  0
  -25.2282   -9.5445  -24.9657 C   0  0  0  0  0  0  0  0  0  0  0  0
  -25.7100   -8.3465  -24.4537 C   0  0  0  0  0  0  0  0  0  0  0  0
  -25.4526   -7.9645  -23.1511 C   0  0  0  0  0  0  0  0  0  0  0  0
  -24.7106   -8.8110  -22.3208 C   0  0  0  0  0  0  0  0  0  0  0  0
  -24.3951   -8.4253  -20.8810 C   0  0  0  0  0  0  0  0  0  0  0  0
  -25.1179   -9.2124  -19.7703 C   0  0  2  0  0  0  0  0  0  0  0  0
  -24.9366   -8.4471  -18.4833 C   0  0  2  0  0  0  0  0  0  0  0  0
  -24.4337  -10.6186  -19.6550 C   0  0  0  0  0  0  0  0  0  0  0  0
  -24.2417  -10.0042  -22.8339 C   0  0  0  0  0  0  0  0  0  0  0  0
  -24.0070   -7.4383  -18.6450 F   0  0  0  0  0  0  0  0  0  0  0  0
  -24.4370   -9.2625  -17.4744 F   0  0  0  0  0  0  0  0  0  0  0  0
  -18.4071  -12.0528  -20.5615 N   0  0  0  0  0  0  0  0  0  0  0  0
  -16.1830  -12.6382  -20.7515 N   0  0  0  0  0  0  0  0  0  0  0  0
  -17.7223  -13.8379  -21.9513 N   0  0  0  0  0  0  0  0  0  0  0  0
  -19.2664  -15.0396  -23.1420 N   0  0  0  0  0  0  0  0  0  0  0  0
  -23.9657  -11.5760  -24.5383 O   0  0  0  0  0  0  0  0  0  0  0  0
  -25.2285  -11.5671  -19.5424 O   0  0  0  0  0  0  0  0  0  0  0  0
  -23.1903  -10.6207  -19.6912 O   0  0  0  0  0  0  0  0  0  0  0  0
  -20.8015  -10.6242  -18.2305 H   0  0  0  0  0  0  0  0  0  0  0  0
  -21.4708  -12.2726  -18.4790 H   0  0  0  0  0  0  0  0  0  0  0  0
  -19.6930  -12.0157  -18.4790 H   0  0  0  0  0  0  0  0  0  0  0  0
  -21.7031  -11.5511  -20.6788 H   0  0  0  0  0  0  0  0  0  0  0  0
  -20.4614  -10.2866  -20.5192 H   0  0  0  0  0  0  0  0  0  0  0  0
  -22.1639  -11.7901  -23.0773 H   0  0  0  0  0  0  0  0  0  0  0  0
  -21.1021  -12.7646  -24.0967 H   0  0  0  0  0  0  0  0  0  0  0  0
  -22.8664  -14.0862  -24.7307 H   0  0  0  0  0  0  0  0  0  0  0  0
  -23.2565  -14.4217  -22.9957 H   0  0  0  0  0  0  0  0  0  0  0  0
  -25.1103  -13.2987  -24.4085 H   0  0  0  0  0  0  0  0  0  0  0  0
  -24.7160  -12.5299  -22.8491 H   0  0  0  0  0  0  0  0  0  0  0  0
  -25.4281   -9.8270  -26.0098 H   0  0  0  0  0  0  0  0  0  0  0  0
  -26.3094   -7.6876  -25.0993 H   0  0  0  0  0  0  0  0  0  0  0  0
  -25.8279   -7.0032  -22.7703 H   0  0  0  0  0  0  0  0  0  0  0  0
  -23.3134   -8.5582  -20.7315 H   0  0  0  0  0  0  0  0  0  0  0  0
  -24.7543   -7.3908  -20.7776 H   0  0  0  0  0  0  0  0  0  0  0  0
  -26.1892   -9.3391  -19.9856 H   0  0  0  0  0  0  0  0  0  0  0  0
  -25.9281   -8.0518  -18.2175 H   0  0  0  0  0  0  0  0  0  0  0  0
  -23.6547  -10.6743  -22.1888 H   0  0  0  0  0  0  0  0  0  0  0  0
  -15.4415  -13.2345  -21.1458 H   0  0  0  0  0  0  0  0  0  0  0  0
  -15.9413  -11.8817  -20.0956 H   0  0  0  0  0  0  0  0  0  0  0  0
  -18.5011  -15.6172  -23.5182 H   0  0  0  0  0  0  0  0  0  0  0  0
  -20.2394  -15.2276  -23.4228 H   0  0  0  0  0  0  0  0  0  0  0  0
  1  2  1  0
  1  5  2  0
  1  7  1  0
  2  8  1  0
  3  4  1  0
  4  5  1  0
  5 23  1  0
  6 23  2  0
  6 24  1  0
  6 25  1  0
  7 25  2  0
  7 26  1  0
  8  9  1  0
  9 10  1  0
 10 27  1  0
 11 12  2  0
 11 20  1  0
 11 27  1  0
 12 13  1  0
 13 14  2  0
 14 15  1  0
 15 16  1  0
 15 20  2  0
 17 16  1  0
 17 18  1  0
 17 19  1  0
 18 21  1  0
 18 22  1  0
 19 28  2  0
 19 29  1  0
  3 30  1  0
  3 31  1  0
  3 32  1  0
  4 33  1  0
  4 34  1  0
  8 35  1  0
  8 36  1  0
  9 37  1  0
  9 38  1  0
 10 39  1  0
 10 40  1  0
 12 41  1  0
 13 42  1  0
 14 43  1  0
 16 44  1  0
 16 45  1  0
 17 46  1  6
 18 47  1  1
 20 48  1  0
 24 49  1  0
 24 50  1  0
 26 51  1  0
 26 52  1  0
M  CHG  1  29  -1
M  END
>  <filename_input>  (4) 
7KM8_WPD_docked.sdf

>  <pdb_id>  (4) 
7KM8_WPD

>  <pose_rank>  (4) 
3

>  <num_atoms_heavy>  (4) 
29

>  <num_torsions>  (4) 
11

>  <pose>  (4) 
[-23.96565815012292, -11.575968113232845, -24.538283086675317, -3.9914981804909786, -4.23712163196479, -2.145750807321182, 10.326060014321943, 12.5849533512134, 5.486446866167437, -3.3136310084345117, 2.6013951924156458, -11.803697974913938, -25.350967515730687, -36.91738798776305, 18.18972962844711, -6.494834392901936, -2.5899881720743445]

>  <energy>  (4) 
-1490.0724338197315

>  <inter_energy>  (4) 
-1526.2240850790497

>  <intra_energy>  (4) 
61.580999991492305

>  <rmsd>  (4) 
4.16295

>  <sdf_rank>  (4) 
0

$$$$

     RDKit          3D

 52 53  0  0  0  0  0  0  0  0999 V2000
  -20.0047  -13.2038  -21.8400 C   0  0  0  0  0  0  0  0  0  0  0  0
  -21.3170  -13.4320  -22.2538 O   0  0  0  0  0  0  0  0  0  0  0  0
  -19.9370  -10.0720  -19.8098 C   0  0  0  0  0  0  0  0  0  0  0  0
  -20.7086  -11.2724  -20.4076 C   0  0  0  0  0  0  0  0  0  0  0  0
  -19.6872  -12.2206  -20.9670 C   0  0  0  0  0  0  0  0  0  0  0  0
  -17.4762  -12.8486  -21.0345 C   0  0  0  0  0  0  0  0  0  0  0  0
  -18.9509  -14.0293  -22.3049 C   0  0  0  0  0  0  0  0  0  0  0  0
  -21.7372  -12.7640  -23.4847 C   0  0  0  0  0  0  0  0  0  0  0  0
  -23.0697  -12.1127  -23.1483 C   0  0  0  0  0  0  0  0  0  0  0  0
  -22.9077  -10.6098  -22.9081 C   0  0  0  0  0  0  0  0  0  0  0  0
  -21.2392   -9.0392  -23.6721 C   0  0  0  0  0  0  0  0  0  0  0  0
  -20.0060   -8.4370  -23.5334 C   0  0  0  0  0  0  0  0  0  0  0  0
  -19.8089   -7.1765  -24.0829 C   0  0  0  0  0  0  0  0  0  0  0  0
  -20.8244   -6.5119  -24.7432 C   0  0  0  0  0  0  0  0  0  0  0  0
  -22.0720   -7.1286  -24.8829 C   0  0  0  0  0  0  0  0  0  0  0  0
  -23.2226   -6.4283  -25.5950 C   0  0  0  0  0  0  0  0  0  0  0  0
  -23.0022   -6.0425  -27.0709 C   0  0  2  0  0  0  0  0  0  0  0  0
  -22.7680   -4.5533  -27.1182 C   0  0  2  0  0  0  0  0  0  0  0  0
  -24.3079   -6.4020  -27.8614 C   0  0  0  0  0  0  0  0  0  0  0  0
  -22.2584   -8.3851  -24.3412 C   0  0  0  0  0  0  0  0  0  0  0  0
  -23.8828   -3.8718  -26.6704 F   0  0  0  0  0  0  0  0  0  0  0  0
  -22.5550   -4.1145  -28.4199 F   0  0  0  0  0  0  0  0  0  0  0  0
  -18.4186  -12.0326  -20.5554 N   0  0  0  0  0  0  0  0  0  0  0  0
  -16.1984  -12.6584  -20.6216 N   0  0  0  0  0  0  0  0  0  0  0  0
  -17.6921  -13.8383  -21.8964 N   0  0  0  0  0  0  0  0  0  0  0  0
  -19.1911  -15.0200  -23.1624 N   0  0  0  0  0  0  0  0  0  0  0  0
  -21.5512  -10.2762  -23.1687 O   0  0  0  0  0  0  0  0  0  0  0  0
  -24.3880   -7.5942  -28.2024 O   0  0  0  0  0  0  0  0  0  0  0  0
  -25.1022   -5.4637  -28.0509 O   0  0  0  0  0  0  0  0  0  0  0  0
  -19.9708  -10.1246  -18.7116 H   0  0  0  0  0  0  0  0  0  0  0  0
  -18.8903  -10.1046  -20.1464 H   0  0  0  0  0  0  0  0  0  0  0  0
  -20.4013   -9.1334  -20.1464 H   0  0  0  0  0  0  0  0  0  0  0  0
  -21.2966  -11.7713  -19.6231 H   0  0  0  0  0  0  0  0  0  0  0  0
  -21.4038  -10.9390  -21.1921 H   0  0  0  0  0  0  0  0  0  0  0  0
  -21.0001  -12.0036  -23.7822 H   0  0  0  0  0  0  0  0  0  0  0  0
  -21.8235  -13.4674  -24.3261 H   0  0  0  0  0  0  0  0  0  0  0  0
  -23.7666  -12.2691  -23.9848 H   0  0  0  0  0  0  0  0  0  0  0  0
  -23.4586  -12.5720  -22.2275 H   0  0  0  0  0  0  0  0  0  0  0  0
  -23.5686  -10.0485  -23.5851 H   0  0  0  0  0  0  0  0  0  0  0  0
  -23.1764  -10.3531  -21.8728 H   0  0  0  0  0  0  0  0  0  0  0  0
  -19.1922   -8.9463  -22.9965 H   0  0  0  0  0  0  0  0  0  0  0  0
  -18.8232   -6.6972  -23.9903 H   0  0  0  0  0  0  0  0  0  0  0  0
  -20.6532   -5.5066  -25.1555 H   0  0  0  0  0  0  0  0  0  0  0  0
  -24.0946   -7.0976  -25.5538 H   0  0  0  0  0  0  0  0  0  0  0  0
  -23.3460   -5.4721  -25.0655 H   0  0  0  0  0  0  0  0  0  0  0  0
  -22.1453   -6.5729  -27.5117 H   0  0  0  0  0  0  0  0  0  0  0  0
  -21.8883   -4.3595  -26.4868 H   0  0  0  0  0  0  0  0  0  0  0  0
  -23.2374   -8.8760  -24.4438 H   0  0  0  0  0  0  0  0  0  0  0  0
  -15.4476  -13.2703  -20.9719 H   0  0  0  0  0  0  0  0  0  0  0  0
  -15.9789  -11.9022  -19.9577 H   0  0  0  0  0  0  0  0  0  0  0  0
  -18.4171  -15.6136  -23.4935 H   0  0  0  0  0  0  0  0  0  0  0  0
  -20.1507  -15.1926  -23.4943 H   0  0  0  0  0  0  0  0  0  0  0  0
  1  2  1  0
  1  5  2  0
  1  7  1  0
  2  8  1  0
  3  4  1  0
  4  5  1  0
  5 23  1  0
  6 23  2  0
  6 24  1  0
  6 25  1  0
  7 25  2  0
  7 26  1  0
  8  9  1  0
  9 10  1  0
 10 27  1  0
 11 12  2  0
 11 20  1  0
 11 27  1  0
 12 13  1  0
 13 14  2  0
 14 15  1  0
 15 16  1  0
 15 20  2  0
 17 16  1  0
 17 18  1  0
 17 19  1  0
 18 21  1  0
 18 22  1  0
 19 28  2  0
 19 29  1  0
  3 30  1  0
  3 31  1  0
  3 32  1  0
  4 33  1  0
  4 34  1  0
  8 35  1  0
  8 36  1  0
  9 37  1  0
  9 38  1  0
 10 39  1  0
 10 40  1  0
 12 41  1  0
 13 42  1  0
 14 43  1  0
 16 44  1  0
 16 45  1  0
 17 46  1  6
 18 47  1  1
 20 48  1  0
 24 49  1  0
 24 50  1  0
 26 51  1  0
 26 52  1  0
M  CHG  1  29  -1
M  END
>  <filename_input>  (5) 
7KM8_WPD_docked.sdf

>  <pdb_id>  (5) 
7KM8_WPD

>  <pose_rank>  (5) 
4

>  <num_atoms_heavy>  (5) 
29

>  <num_torsions>  (5) 
11

>  <pose>  (5) 
[-21.551191630359614, -10.276240478753305, -23.168695960465833, -0.5086559420318226, -0.8827198432530234, -0.523651797775694, -3.665610578066641, -7.1209785977264035, -18.580593834690674, 2.0562972640517394, -2.7403711839473153, -6.752841797575877, 5.336101084864183, 44.38617019666443, 25.68836182219352, 6.075811909815255, 5.087646265343021]

>  <energy>  (5) 
-1425.5259199214754

>  <inter_energy>  (5) 
-1455.4992321112525

>  <intra_energy>  (5) 
39.84744960630547

>  <rmsd>  (5) 
2.6276

>  <sdf_rank>  (5) 
0

$$$$

     RDKit          3D

 52 53  0  0  0  0  0  0  0  0999 V2000
  -19.9732  -13.3148  -21.7153 C   0  0  0  0  0  0  0  0  0  0  0  0
  -21.3304  -13.5817  -21.8952 O   0  0  0  0  0  0  0  0  0  0  0  0
  -20.5091  -11.9152  -18.6820 C   0  0  0  0  0  0  0  0  0  0  0  0
  -20.4718  -11.4242  -20.1487 C   0  0  0  0  0  0  0  0  0  0  0  0
  -19.5367  -12.3316  -20.8953 C   0  0  0  0  0  0  0  0  0  0  0  0
  -17.3543  -12.8852  -21.3620 C   0  0  0  0  0  0  0  0  0  0  0  0
  -18.9934  -14.0997  -22.3726 C   0  0  0  0  0  0  0  0  0  0  0  0
  -21.8754  -13.3165  -23.2259 C   0  0  0  0  0  0  0  0  0  0  0  0
  -22.9295  -12.2404  -23.0161 C   0  0  0  0  0  0  0  0  0  0  0  0
  -22.3354  -11.0080  -22.3300 C   0  0  0  0  0  0  0  0  0  0  0  0
  -24.4671  -10.3300  -21.4188 C   0  0  0  0  0  0  0  0  0  0  0  0
  -25.7255  -10.5913  -21.9196 C   0  0  0  0  0  0  0  0  0  0  0  0
  -26.7590  -10.8601  -21.0313 C   0  0  0  0  0  0  0  0  0  0  0  0
  -26.5550  -10.8505  -19.6648 C   0  0  0  0  0  0  0  0  0  0  0  0
  -25.2762  -10.5873  -19.1628 C   0  0  0  0  0  0  0  0  0  0  0  0
  -25.0084  -10.5572  -17.6633 C   0  0  0  0  0  0  0  0  0  0  0  0
  -24.1030   -9.4268  -17.1358 C   0  0  2  0  0  0  0  0  0  0  0  0
  -22.8540  -10.0685  -16.5853 C   0  0  2  0  0  0  0  0  0  0  0  0
  -24.8746   -8.6902  -15.9866 C   0  0  0  0  0  0  0  0  0  0  0  0
  -24.2518  -10.3289  -20.0519 C   0  0  0  0  0  0  0  0  0  0  0  0
  -21.7383   -9.3264  -16.9209 F   0  0  0  0  0  0  0  0  0  0  0  0
  -22.6476  -11.3292  -17.1334 F   0  0  0  0  0  0  0  0  0  0  0  0
  -18.2218  -12.1063  -20.7105 N   0  0  0  0  0  0  0  0  0  0  0  0
  -16.0301  -12.6576  -21.1775 N   0  0  0  0  0  0  0  0  0  0  0  0
  -17.6886  -13.8718  -22.1891 N   0  0  0  0  0  0  0  0  0  0  0  0
  -19.3508  -15.0880  -23.1911 N   0  0  0  0  0  0  0  0  0  0  0  0
  -23.3738  -10.0472  -22.1970 O   0  0  0  0  0  0  0  0  0  0  0  0
  -25.6665   -7.8168  -16.3795 O   0  0  0  0  0  0  0  0  0  0  0  0
  -24.6087   -9.0627  -14.8299 O   0  0  0  0  0  0  0  0  0  0  0  0
  -20.4434  -11.0512  -18.0043 H   0  0  0  0  0  0  0  0  0  0  0  0
  -21.4508  -12.4536  -18.4995 H   0  0  0  0  0  0  0  0  0  0  0  0
  -19.6597  -12.5898  -18.4995 H   0  0  0  0  0  0  0  0  0  0  0  0
  -21.4785  -11.4749  -20.5891 H   0  0  0  0  0  0  0  0  0  0  0  0
  -20.1301  -10.3800  -20.2030 H   0  0  0  0  0  0  0  0  0  0  0  0
  -21.0857  -12.9567  -23.9018 H   0  0  0  0  0  0  0  0  0  0  0  0
  -22.2974  -14.2221  -23.6860 H   0  0  0  0  0  0  0  0  0  0  0  0
  -23.3390  -11.9443  -23.9932 H   0  0  0  0  0  0  0  0  0  0  0  0
  -23.7209  -12.6499  -22.3711 H   0  0  0  0  0  0  0  0  0  0  0  0
  -21.9482  -11.2816  -21.3374 H   0  0  0  0  0  0  0  0  0  0  0  0
  -21.5044  -10.5988  -22.9234 H   0  0  0  0  0  0  0  0  0  0  0  0
  -25.9076  -10.5868  -23.0044 H   0  0  0  0  0  0  0  0  0  0  0  0
  -27.7614  -11.0855  -21.4242 H   0  0  0  0  0  0  0  0  0  0  0  0
  -27.3909  -11.0482  -18.9776 H   0  0  0  0  0  0  0  0  0  0  0  0
  -25.9798  -10.4687  -17.1546 H   0  0  0  0  0  0  0  0  0  0  0  0
  -24.4573  -11.4857  -17.4532 H   0  0  0  0  0  0  0  0  0  0  0  0
  -23.8404   -8.7071  -17.9252 H   0  0  0  0  0  0  0  0  0  0  0  0
  -22.9932  -10.1291  -15.4958 H   0  0  0  0  0  0  0  0  0  0  0  0
  -23.2437  -10.1178  -19.6656 H   0  0  0  0  0  0  0  0  0  0  0  0
  -15.3345  -13.2402  -21.6650 H   0  0  0  0  0  0  0  0  0  0  0  0
  -15.7200  -11.9020  -20.5499 H   0  0  0  0  0  0  0  0  0  0  0  0
  -18.6297  -15.6518  -23.6634 H   0  0  0  0  0  0  0  0  0  0  0  0
  -20.3482  -15.2885  -23.3516 H   0  0  0  0  0  0  0  0  0  0  0  0
  1  2  1  0
  1  5  2  0
  1  7  1  0
  2  8  1  0
  3  4  1  0
  4  5  1  0
  5 23  1  0
  6 23  2  0
  6 24  1  0
  6 25  1  0
  7 25  2  0
  7 26  1  0
  8  9  1  0
  9 10  1  0
 10 27  1  0
 11 12  2  0
 11 20  1  0
 11 27  1  0
 12 13  1  0
 13 14  2  0
 14 15  1  0
 15 16  1  0
 15 20  2  0
 17 16  1  0
 17 18  1  0
 17 19  1  0
 18 21  1  0
 18 22  1  0
 19 28  2  0
 19 29  1  0
  3 30  1  0
  3 31  1  0
  3 32  1  0
  4 33  1  0
  4 34  1  0
  8 35  1  0
  8 36  1  0
  9 37  1  0
  9 38  1  0
 10 39  1  0
 10 40  1  0
 12 41  1  0
 13 42  1  0
 14 43  1  0
 16 44  1  0
 16 45  1  0
 17 46  1  6
 18 47  1  1
 20 48  1  0
 24 49  1  0
 24 50  1  0
 26 51  1  0
 26 52  1  0
M  CHG  1  29  -1
M  END
>  <filename_input>  (6) 
7KM8_WPD_docked.sdf

>  <pdb_id>  (6) 
7KM8_WPD

>  <pose_rank>  (6) 
5

>  <num_atoms_heavy>  (6) 
29

>  <num_torsions>  (6) 
11

>  <pose>  (6) 
[-23.373812401558684, -10.047151683961914, -22.197014121510993, -2.4528092339622494, -0.4004208002362904, -4.2806460813332965, -2.0051114450258356, 1.9918114344808053, 0.087044258276638, -0.6938303783725662, -2.762927958776067, -1.9477797341667185, 2.106341212388381, -0.4015613124148612, 0.7917566490749642, 0.14873954609379053, 3.451185023307702]

>  <energy>  (6) 
-1268.1115060396955

>  <inter_energy>  (6) 
-1334.1518965174794

>  <intra_energy>  (6) 
65.63512979044401

>  <rmsd>  (6) 
5.64407

>  <sdf_rank>  (6) 
0

$$$$

     RDKit          3D

 52 53  0  0  0  0  0  0  0  0999 V2000
  -20.0086  -13.1453  -22.1272 C   0  0  0  0  0  0  0  0  0  0  0  0
  -21.2695  -13.2859  -22.7066 O   0  0  0  0  0  0  0  0  0  0  0  0
  -21.4053  -11.6280  -19.5236 C   0  0  0  0  0  0  0  0  0  0  0  0
  -20.7423  -11.1311  -20.8302 C   0  0  0  0  0  0  0  0  0  0  0  0
  -19.7327  -12.1664  -21.2354 C   0  0  0  0  0  0  0  0  0  0  0  0
  -17.5866  -12.9583  -21.0013 C   0  0  0  0  0  0  0  0  0  0  0  0
  -18.9698  -14.0583  -22.4364 C   0  0  0  0  0  0  0  0  0  0  0  0
  -22.0685  -14.4257  -22.2589 C   0  0  0  0  0  0  0  0  0  0  0  0
  -23.3282  -13.8177  -21.6620 C   0  0  0  0  0  0  0  0  0  0  0  0
  -24.1401  -13.0706  -22.7227 C   0  0  0  0  0  0  0  0  0  0  0  0
  -23.9715  -10.6722  -22.4903 C   0  0  0  0  0  0  0  0  0  0  0  0
  -23.8539   -9.4501  -23.1189 C   0  0  0  0  0  0  0  0  0  0  0  0
  -24.3975   -8.3266  -22.5092 C   0  0  0  0  0  0  0  0  0  0  0  0
  -25.0312   -8.4075  -21.2841 C   0  0  0  0  0  0  0  0  0  0  0  0
  -25.1494   -9.6499  -20.6525 C   0  0  0  0  0  0  0  0  0  0  0  0
  -25.8316   -9.7836  -19.2968 C   0  0  0  0  0  0  0  0  0  0  0  0
  -24.9221   -9.7910  -18.0524 C   0  0  2  0  0  0  0  0  0  0  0  0
  -25.8114   -9.9447  -16.8440 C   0  0  2  0  0  0  0  0  0  0  0  0
  -24.1770   -8.4125  -17.9940 C   0  0  0  0  0  0  0  0  0  0  0  0
  -24.6138  -10.7639  -21.2682 C   0  0  0  0  0  0  0  0  0  0  0  0
  -26.0481  -11.2800  -16.5818 F   0  0  0  0  0  0  0  0  0  0  0  0
  -27.0611   -9.3748  -17.0581 F   0  0  0  0  0  0  0  0  0  0  0  0
  -18.5179  -12.0626  -20.6632 N   0  0  0  0  0  0  0  0  0  0  0  0
  -16.3627  -12.8530  -20.4267 N   0  0  0  0  0  0  0  0  0  0  0  0
  -17.7640  -13.9509  -21.8687 N   0  0  0  0  0  0  0  0  0  0  0  0
  -19.1718  -15.0500  -23.3026 N   0  0  0  0  0  0  0  0  0  0  0  0
  -23.4713  -11.8462  -22.9929 O   0  0  0  0  0  0  0  0  0  0  0  0
  -22.9379   -8.4982  -18.0297 O   0  0  0  0  0  0  0  0  0  0  0  0
  -24.9045   -7.4060  -17.9215 O   0  0  0  0  0  0  0  0  0  0  0  0
  -20.8616  -11.2206  -18.6586 H   0  0  0  0  0  0  0  0  0  0  0  0
  -22.4515  -11.2896  -19.4917 H   0  0  0  0  0  0  0  0  0  0  0  0
  -21.3744  -12.7271  -19.4917 H   0  0  0  0  0  0  0  0  0  0  0  0
  -21.5012  -11.0157  -21.6180 H   0  0  0  0  0  0  0  0  0  0  0  0
  -20.2608  -10.1540  -20.6774 H   0  0  0  0  0  0  0  0  0  0  0  0
  -22.3198  -15.0783  -23.1080 H   0  0  0  0  0  0  0  0  0  0  0  0
  -21.5268  -15.0478  -21.5311 H   0  0  0  0  0  0  0  0  0  0  0  0
  -23.9475  -14.6213  -21.2367 H   0  0  0  0  0  0  0  0  0  0  0  0
  -23.0324  -13.1009  -20.8818 H   0  0  0  0  0  0  0  0  0  0  0  0
  -24.2032  -13.6738  -23.6404 H   0  0  0  0  0  0  0  0  0  0  0  0
  -25.1624  -12.8810  -22.3638 H   0  0  0  0  0  0  0  0  0  0  0  0
  -23.3382   -9.3666  -24.0870 H   0  0  0  0  0  0  0  0  0  0  0  0
  -24.3219   -7.3514  -23.0126 H   0  0  0  0  0  0  0  0  0  0  0  0
  -25.4390   -7.5028  -20.8096 H   0  0  0  0  0  0  0  0  0  0  0  0
  -26.5299   -8.9401  -19.1922 H   0  0  0  0  0  0  0  0  0  0  0  0
  -26.3030  -10.7774  -19.3114 H   0  0  0  0  0  0  0  0  0  0  0  0
  -24.1861  -10.6079  -18.0850 H   0  0  0  0  0  0  0  0  0  0  0  0
  -25.2888   -9.4501  -16.0119 H   0  0  0  0  0  0  0  0  0  0  0  0
  -24.6996  -11.7443  -20.7769 H   0  0  0  0  0  0  0  0  0  0  0  0
  -15.6219  -13.5276  -20.6656 H   0  0  0  0  0  0  0  0  0  0  0  0
  -16.1739  -12.0985  -19.7515 H   0  0  0  0  0  0  0  0  0  0  0  0
  -18.4093  -15.7075  -23.5196 H   0  0  0  0  0  0  0  0  0  0  0  0
  -20.0905  -15.1592  -23.7553 H   0  0  0  0  0  0  0  0  0  0  0  0
  1  2  1  0
  1  5  2  0
  1  7  1  0
  2  8  1  0
  3  4  1  0
  4  5  1  0
  5 23  1  0
  6 23  2  0
  6 24  1  0
  6 25  1  0
  7 25  2  0
  7 26  1  0
  8  9  1  0
  9 10  1  0
 10 27  1  0
 11 12  2  0
 11 20  1  0
 11 27  1  0
 12 13  1  0
 13 14  2  0
 14 15  1  0
 15 16  1  0
 15 20  2  0
 17 16  1  0
 17 18  1  0
 17 19  1  0
 18 21  1  0
 18 22  1  0
 19 28  2  0
 19 29  1  0
  3 30  1  0
  3 31  1  0
  3 32  1  0
  4 33  1  0
  4 34  1  0
  8 35  1  0
  8 36  1  0
  9 37  1  0
  9 38  1  0
 10 39  1  0
 10 40  1  0
 12 41  1  0
 13 42  1  0
 14 43  1  0
 16 44  1  0
 16 45  1  0
 17 46  1  6
 18 47  1  1
 20 48  1  0
 24 49  1  0
 24 50  1  0
 26 51  1  0
 26 52  1  0
M  CHG  1  29  -1
M  END
>  <filename_input>  (7) 
7KM8_WPD_docked.sdf

>  <pdb_id>  (7) 
7KM8_WPD

>  <pose_rank>  (7) 
6

>  <num_atoms_heavy>  (7) 
29

>  <num_torsions>  (7) 
11

>  <pose>  (7) 
[-23.471321409857854, -11.846195196091578, -22.9929372332703, 0.26611384946361877, -0.2463470251943099, -0.09483340406550271, -8.986044005628667, -3.5709255285257933, -1.036681053766653, -1.6135887179512627, 2.8812514756519616, -4.876832862609802, -14.890901098145168, -12.834685721030887, 11.223742488910945, 2.5608749122787096, 3.3261875835069583]

>  <energy>  (7) 
-1355.802346950408

>  <inter_energy>  (7) 
-1385.131204142482

>  <intra_energy>  (7) 
40.460905847613304

>  <rmsd>  (7) 
5.01784

>  <sdf_rank>  (7) 
0

$$$$

     RDKit          3D

 52 53  0  0  0  0  0  0  0  0999 V2000
  -19.9416  -13.1489  -22.0520 C   0  0  0  0  0  0  0  0  0  0  0  0
  -21.2117  -13.3259  -22.6006 O   0  0  0  0  0  0  0  0  0  0  0  0
  -20.7818  -11.1392  -19.2543 C   0  0  0  0  0  0  0  0  0  0  0  0
  -20.6810  -11.1098  -20.7979 C   0  0  0  0  0  0  0  0  0  0  0  0
  -19.6634  -12.1404  -21.1945 C   0  0  0  0  0  0  0  0  0  0  0  0
  -17.5003  -12.8915  -20.9831 C   0  0  0  0  0  0  0  0  0  0  0  0
  -18.8947  -14.0541  -22.3568 C   0  0  0  0  0  0  0  0  0  0  0  0
  -21.8359  -14.6313  -22.3898 C   0  0  0  0  0  0  0  0  0  0  0  0
  -23.3326  -14.3610  -22.3931 C   0  0  0  0  0  0  0  0  0  0  0  0
  -23.8814  -14.2957  -23.8203 C   0  0  0  0  0  0  0  0  0  0  0  0
  -23.6220  -12.0166  -24.5771 C   0  0  0  0  0  0  0  0  0  0  0  0
  -24.2182  -11.4629  -25.6908 C   0  0  0  0  0  0  0  0  0  0  0  0
  -24.6583  -10.1466  -25.6322 C   0  0  0  0  0  0  0  0  0  0  0  0
  -24.4923   -9.3818  -24.4936 C   0  0  0  0  0  0  0  0  0  0  0  0
  -23.8892   -9.9495  -23.3665 C   0  0  0  0  0  0  0  0  0  0  0  0
  -23.6774   -9.1398  -22.0933 C   0  0  0  0  0  0  0  0  0  0  0  0
  -24.7188   -8.0488  -21.7755 C   0  0  2  0  0  0  0  0  0  0  0  0
  -24.1922   -6.7475  -22.3272 C   0  0  2  0  0  0  0  0  0  0  0  0
  -24.8519   -7.9515  -20.2161 C   0  0  0  0  0  0  0  0  0  0  0  0
  -23.4615  -11.2609  -23.4291 C   0  0  0  0  0  0  0  0  0  0  0  0
  -22.9155   -6.5031  -21.8600 F   0  0  0  0  0  0  0  0  0  0  0  0
  -24.9614   -5.6693  -21.9049 F   0  0  0  0  0  0  0  0  0  0  0  0
  -18.4389  -12.0012  -20.6512 N   0  0  0  0  0  0  0  0  0  0  0  0
  -16.2667  -12.7506  -20.4375 N   0  0  0  0  0  0  0  0  0  0  0  0
  -17.6793  -13.9115  -21.8178 N   0  0  0  0  0  0  0  0  0  0  0  0
  -19.0983  -15.0734  -23.1898 N   0  0  0  0  0  0  0  0  0  0  0  0
  -23.1454  -13.3013  -24.5193 O   0  0  0  0  0  0  0  0  0  0  0  0
  -25.5694   -8.8295  -19.7078 O   0  0  0  0  0  0  0  0  0  0  0  0
  -24.2297   -7.0194  -19.6763 O   0  0  0  0  0  0  0  0  0  0  0  0
  -19.8124  -10.8565  -18.8181 H   0  0  0  0  0  0  0  0  0  0  0  0
  -21.5539  -10.4288  -18.9237 H   0  0  0  0  0  0  0  0  0  0  0  0
  -21.0509  -12.1532  -18.9237 H   0  0  0  0  0  0  0  0  0  0  0  0
  -21.6568  -11.3520  -21.2443 H   0  0  0  0  0  0  0  0  0  0  0  0
  -20.3848  -10.1112  -21.1516 H   0  0  0  0  0  0  0  0  0  0  0  0
  -21.5669  -15.3234  -23.2014 H   0  0  0  0  0  0  0  0  0  0  0  0
  -21.5042  -15.0997  -21.4514 H   0  0  0  0  0  0  0  0  0  0  0  0
  -23.8440  -15.1686  -21.8488 H   0  0  0  0  0  0  0  0  0  0  0  0
  -23.5118  -13.3907  -21.9069 H   0  0  0  0  0  0  0  0  0  0  0  0
  -23.7577  -15.2706  -24.3146 H   0  0  0  0  0  0  0  0  0  0  0  0
  -24.9530  -14.0476  -23.8108 H   0  0  0  0  0  0  0  0  0  0  0  0
  -24.3432  -12.0538  -26.6102 H   0  0  0  0  0  0  0  0  0  0  0  0
  -25.1495   -9.7037  -26.5112 H   0  0  0  0  0  0  0  0  0  0  0  0
  -24.8315   -8.3356  -24.4737 H   0  0  0  0  0  0  0  0  0  0  0  0
  -23.6680   -9.8452  -21.2493 H   0  0  0  0  0  0  0  0  0  0  0  0
  -22.7348   -8.5961  -22.2544 H   0  0  0  0  0  0  0  0  0  0  0  0
  -25.7006   -8.2753  -22.2169 H   0  0  0  0  0  0  0  0  0  0  0  0
  -24.2160   -6.8451  -23.4226 H   0  0  0  0  0  0  0  0  0  0  0  0
  -22.9833  -11.7142  -22.5483 H   0  0  0  0  0  0  0  0  0  0  0  0
  -15.5201  -13.4201  -20.6725 H   0  0  0  0  0  0  0  0  0  0  0  0
  -16.0764  -11.9740  -19.7882 H   0  0  0  0  0  0  0  0  0  0  0  0
  -18.3298  -15.7250  -23.4039 H   0  0  0  0  0  0  0  0  0  0  0  0
  -20.0242  -15.2101  -23.6198 H   0  0  0  0  0  0  0  0  0  0  0  0
  1  2  1  0
  1  5  2  0
  1  7  1  0
  2  8  1  0
  3  4  1  0
  4  5  1  0
  5 23  1  0
  6 23  2  0
  6 24  1  0
  6 25  1  0
  7 25  2  0
  7 26  1  0
  8  9  1  0
  9 10  1  0
 10 27  1  0
 11 12  2  0
 11 20  1  0
 11 27  1  0
 12 13  1  0
 13 14  2  0
 14 15  1  0
 15 16  1  0
 15 20  2  0
 17 16  1  0
 17 18  1  0
 17 19  1  0
 18 21  1  0
 18 22  1  0
 19 28  2  0
 19 29  1  0
  3 30  1  0
  3 31  1  0
  3 32  1  0
  4 33  1  0
  4 34  1  0
  8 35  1  0
  8 36  1  0
  9 37  1  0
  9 38  1  0
 10 39  1  0
 10 40  1  0
 12 41  1  0
 13 42  1  0
 14 43  1  0
 16 44  1  0
 16 45  1  0
 17 46  1  6
 18 47  1  6
 20 48  1  0
 24 49  1  0
 24 50  1  0
 26 51  1  0
 26 52  1  0
M  CHG  1  29  -1
M  END
>  <filename_input>  (8) 
7KM8_WPD_docked.sdf

>  <pdb_id>  (8) 
7KM8_WPD

>  <pose_rank>  (8) 
7

>  <num_atoms_heavy>  (8) 
29

>  <num_torsions>  (8) 
11

>  <pose>  (8) 
[-23.145368642825453, -13.301311246908329, -24.519290063411127, 2.480137848875772, 5.274591276940511, 0.9993056982122352, 4.351087720325647, -1.3352563856530006, 0.4479701138637329, 2.224334245866512, -2.6947754964967614, 1.594376480943, -1.9962754989181803, -6.220837728843709, -7.075525679187529, 2.283368943662426, -2.4665699965246595]

>  <energy>  (8) 
-1346.7593577302384

>  <inter_energy>  (8) 
-1420.657653671034

>  <intra_energy>  (8) 
71.43260819859117

>  <rmsd>  (8) 
3.33757

>  <sdf_rank>  (8) 
0

$$$$

     RDKit          3D

 52 53  0  0  0  0  0  0  0  0999 V2000
  -19.9582  -13.2499  -22.0063 C   0  0  0  0  0  0  0  0  0  0  0  0
  -21.2314  -13.4694  -22.5320 O   0  0  0  0  0  0  0  0  0  0  0  0
  -20.3855   -9.9011  -21.2668 C   0  0  0  0  0  0  0  0  0  0  0  0
  -20.7595  -11.2822  -20.6784 C   0  0  0  0  0  0  0  0  0  0  0  0
  -19.7059  -12.2540  -21.1265 C   0  0  0  0  0  0  0  0  0  0  0  0
  -17.5070  -12.9113  -20.9839 C   0  0  0  0  0  0  0  0  0  0  0  0
  -18.8790  -14.0977  -22.3597 C   0  0  0  0  0  0  0  0  0  0  0  0
  -22.1009  -14.3709  -21.7775 C   0  0  0  0  0  0  0  0  0  0  0  0
  -23.3000  -13.5247  -21.3785 C   0  0  0  0  0  0  0  0  0  0  0  0
  -24.6108  -14.2872  -21.5856 C   0  0  0  0  0  0  0  0  0  0  0  0
  -25.7097  -12.3995  -20.5546 C   0  0  0  0  0  0  0  0  0  0  0  0
  -26.6351  -11.6556  -21.2567 C   0  0  0  0  0  0  0  0  0  0  0  0
  -26.6851  -10.2822  -21.0545 C   0  0  0  0  0  0  0  0  0  0  0  0
  -25.8175   -9.6502  -20.1845 C   0  0  0  0  0  0  0  0  0  0  0  0
  -24.8828  -10.4101  -19.4735 C   0  0  0  0  0  0  0  0  0  0  0  0
  -23.9008   -9.7535  -18.5113 C   0  0  0  0  0  0  0  0  0  0  0  0
  -24.0950  -10.0388  -17.0091 C   0  0  2  0  0  0  0  0  0  0  0  0
  -25.2817   -9.2314  -16.5457 C   0  0  2  0  0  0  0  0  0  0  0  0
  -22.8021   -9.5645  -16.2592 C   0  0  0  0  0  0  0  0  0  0  0  0
  -24.8442  -11.7759  -19.6734 C   0  0  0  0  0  0  0  0  0  0  0  0
  -25.3066   -9.1519  -15.1670 F   0  0  0  0  0  0  0  0  0  0  0  0
  -26.4795   -9.8351  -16.9106 F   0  0  0  0  0  0  0  0  0  0  0  0
  -18.4767  -12.0742  -20.6062 N   0  0  0  0  0  0  0  0  0  0  0  0
  -16.2687  -12.7294  -20.4615 N   0  0  0  0  0  0  0  0  0  0  0  0
  -17.6592  -13.9148  -21.8435 N   0  0  0  0  0  0  0  0  0  0  0  0
  -19.0558  -15.1018  -23.2171 N   0  0  0  0  0  0  0  0  0  0  0  0
  -25.5648  -13.7579  -20.6752 O   0  0  0  0  0  0  0  0  0  0  0  0
  -22.7769   -8.3493  -16.0006 O   0  0  0  0  0  0  0  0  0  0  0  0
  -21.9636  -10.4495  -16.0120 O   0  0  0  0  0  0  0  0  0  0  0  0
  -20.1938   -9.1930  -20.4471 H   0  0  0  0  0  0  0  0  0  0  0  0
  -19.4815   -9.9989  -21.8859 H   0  0  0  0  0  0  0  0  0  0  0  0
  -21.2154   -9.5294  -21.8859 H   0  0  0  0  0  0  0  0  0  0  0  0
  -20.7822  -11.2305  -19.5799 H   0  0  0  0  0  0  0  0  0  0  0  0
  -21.7551  -11.5979  -21.0236 H   0  0  0  0  0  0  0  0  0  0  0  0
  -22.4173  -15.2171  -22.4051 H   0  0  0  0  0  0  0  0  0  0  0  0
  -21.5900  -14.7994  -20.9027 H   0  0  0  0  0  0  0  0  0  0  0  0
  -23.2083  -13.2509  -20.3171 H   0  0  0  0  0  0  0  0  0  0  0  0
  -23.3170  -12.6254  -22.0117 H   0  0  0  0  0  0  0  0  0  0  0  0
  -24.9636  -14.1528  -22.6188 H   0  0  0  0  0  0  0  0  0  0  0  0
  -24.4637  -15.3629  -21.4087 H   0  0  0  0  0  0  0  0  0  0  0  0
  -27.3220  -12.1418  -21.9650 H   0  0  0  0  0  0  0  0  0  0  0  0
  -27.4314   -9.6849  -21.5988 H   0  0  0  0  0  0  0  0  0  0  0  0
  -25.8614   -8.5591  -20.0522 H   0  0  0  0  0  0  0  0  0  0  0  0
  -22.8909  -10.0925  -18.7855 H   0  0  0  0  0  0  0  0  0  0  0  0
  -24.0734   -8.6727  -18.6210 H   0  0  0  0  0  0  0  0  0  0  0  0
  -24.2659  -11.1074  -16.8114 H   0  0  0  0  0  0  0  0  0  0  0  0
  -25.1807   -8.2400  -17.0115 H   0  0  0  0  0  0  0  0  0  0  0  0
  -24.1102  -12.3806  -19.1206 H   0  0  0  0  0  0  0  0  0  0  0  0
  -15.4984  -13.3574  -20.7318 H   0  0  0  0  0  0  0  0  0  0  0  0
  -16.0986  -11.9632  -19.7945 H   0  0  0  0  0  0  0  0  0  0  0  0
  -18.2639  -15.7114  -23.4665 H   0  0  0  0  0  0  0  0  0  0  0  0
  -19.9843  -15.2685  -23.6306 H   0  0  0  0  0  0  0  0  0  0  0  0
  1  2  1  0
  1  5  2  0
  1  7  1  0
  2  8  1  0
  3  4  1  0
  4  5  1  0
  5 23  1  0
  6 23  2  0
  6 24  1  0
  6 25  1  0
  7 25  2  0
  7 26  1  0
  8  9  1  0
  9 10  1  0
 10 27  1  0
 11 12  2  0
 11 20  1  0
 11 27  1  0
 12 13  1  0
 13 14  2  0
 14 15  1  0
 15 16  1  0
 15 20  2  0
 17 16  1  0
 17 18  1  0
 17 19  1  0
 18 21  1  0
 18 22  1  0
 19 28  2  0
 19 29  1  0
  3 30  1  0
  3 31  1  0
  3 32  1  0
  4 33  1  0
  4 34  1  0
  8 35  1  0
  8 36  1  0
  9 37  1  0
  9 38  1  0
 10 39  1  0
 10 40  1  0
 12 41  1  0
 13 42  1  0
 14 43  1  0
 16 44  1  0
 16 45  1  0
 17 46  1  6
 18 47  1  6
 20 48  1  0
 24 49  1  0
 24 50  1  0
 26 51  1  0
 26 52  1  0
M  CHG  1  29  -1
M  END
>  <filename_input>  (9) 
7KM8_WPD_docked.sdf

>  <pdb_id>  (9) 
7KM8_WPD

>  <pose_rank>  (9) 
8

>  <num_atoms_heavy>  (9) 
29

>  <num_torsions>  (9) 
11

>  <pose>  (9) 
[-25.564843210124664, -13.757946370837944, -20.67519429412303, 0.8036484745319236, -3.1090355920023764, -0.485781665409691, 7.8058387918865915, -6.231229428702141, 7.0680690851075765, 0.28847763818323474, -6.135937606833754, 4.048983150857919, -4.619425532813135, 13.566420030967103, 17.49072115768917, 9.171621797832856, -0.28922598344877853]

>  <energy>  (9) 
-1287.6353344681092

>  <inter_energy>  (9) 
-1335.7986357329573

>  <intra_energy>  (9) 
41.05610333022585

>  <rmsd>  (9) 
5.66772

>  <sdf_rank>  (9) 
0

$$$$

     RDKit          3D

 52 53  0  0  0  0  0  0  0  0999 V2000
  -19.9401  -13.2409  -22.0725 C   0  0  0  0  0  0  0  0  0  0  0  0
  -21.2233  -13.4881  -22.5599 O   0  0  0  0  0  0  0  0  0  0  0  0
  -20.6028  -11.2532  -19.1366 C   0  0  0  0  0  0  0  0  0  0  0  0
  -20.7541  -11.3276  -20.6745 C   0  0  0  0  0  0  0  0  0  0  0  0
  -19.6878  -12.2567  -21.1795 C   0  0  0  0  0  0  0  0  0  0  0  0
  -17.4666  -12.8490  -21.1255 C   0  0  0  0  0  0  0  0  0  0  0  0
  -18.8487  -14.0473  -22.4809 C   0  0  0  0  0  0  0  0  0  0  0  0
  -22.3201  -12.7912  -21.8893 C   0  0  0  0  0  0  0  0  0  0  0  0
  -23.4281  -12.7028  -22.9274 C   0  0  0  0  0  0  0  0  0  0  0  0
  -24.6024  -13.6148  -22.5645 C   0  0  0  0  0  0  0  0  0  0  0  0
  -25.9850  -12.7881  -20.7647 C   0  0  0  0  0  0  0  0  0  0  0  0
  -26.0101  -11.4532  -20.4182 C   0  0  0  0  0  0  0  0  0  0  0  0
  -27.2117  -10.8880  -20.0106 C   0  0  0  0  0  0  0  0  0  0  0  0
  -28.3689  -11.6382  -19.9273 C   0  0  0  0  0  0  0  0  0  0  0  0
  -28.3379  -12.9909  -20.2822 C   0  0  0  0  0  0  0  0  0  0  0  0
  -29.5879  -13.8577  -20.1962 C   0  0  0  0  0  0  0  0  0  0  0  0
  -30.2528  -13.9929  -18.8122 C   0  0  2  0  0  0  0  0  0  0  0  0
  -29.5564  -13.0325  -17.8809 C   0  0  2  0  0  0  0  0  0  0  0  0
  -30.0375  -15.4653  -18.3179 C   0  0  0  0  0  0  0  0  0  0  0  0
  -27.1417  -13.5442  -20.6942 C   0  0  0  0  0  0  0  0  0  0  0  0
  -29.4725  -13.5642  -16.6088 F   0  0  0  0  0  0  0  0  0  0  0  0
  -30.2704  -11.8471  -17.7481 F   0  0  0  0  0  0  0  0  0  0  0  0
  -18.4474  -12.0504  -20.6968 N   0  0  0  0  0  0  0  0  0  0  0  0
  -16.2171  -12.6404  -20.6411 N   0  0  0  0  0  0  0  0  0  0  0  0
  -17.6179  -13.8381  -22.0019 N   0  0  0  0  0  0  0  0  0  0  0  0
  -19.0245  -15.0377  -23.3541 N   0  0  0  0  0  0  0  0  0  0  0  0
  -24.8589  -13.4542  -21.1761 O   0  0  0  0  0  0  0  0  0  0  0  0
  -28.8668  -15.7319  -17.9978 O   0  0  0  0  0  0  0  0  0  0  0  0
  -31.0517  -16.1855  -18.3022 O   0  0  0  0  0  0  0  0  0  0  0  0
  -21.4919  -11.6908  -18.6591 H   0  0  0  0  0  0  0  0  0  0  0  0
  -19.7079  -11.8137  -18.8286 H   0  0  0  0  0  0  0  0  0  0  0  0
  -20.5011  -10.2021  -18.8286 H   0  0  0  0  0  0  0  0  0  0  0  0
  -21.7488  -11.7168  -20.9373 H   0  0  0  0  0  0  0  0  0  0  0  0
  -20.6499  -10.3302  -21.1265 H   0  0  0  0  0  0  0  0  0  0  0  0
  -22.6588  -13.3598  -21.0107 H   0  0  0  0  0  0  0  0  0  0  0  0
  -22.0161  -11.7985  -21.5259 H   0  0  0  0  0  0  0  0  0  0  0  0
  -23.7850  -11.6638  -22.9832 H   0  0  0  0  0  0  0  0  0  0  0  0
  -23.0227  -13.0270  -23.8972 H   0  0  0  0  0  0  0  0  0  0  0  0
  -25.4919  -13.3299  -23.1456 H   0  0  0  0  0  0  0  0  0  0  0  0
  -24.3620  -14.6634  -22.7939 H   0  0  0  0  0  0  0  0  0  0  0  0
  -25.0938  -10.8464  -20.4639 H   0  0  0  0  0  0  0  0  0  0  0  0
  -27.2427   -9.8201  -19.7486 H   0  0  0  0  0  0  0  0  0  0  0  0
  -29.3065  -11.1759  -19.5848 H   0  0  0  0  0  0  0  0  0  0  0  0
  -30.3346  -13.4320  -20.8827 H   0  0  0  0  0  0  0  0  0  0  0  0
  -29.2491  -14.8729  -20.4503 H   0  0  0  0  0  0  0  0  0  0  0  0
  -31.3292  -13.7689  -18.8487 H   0  0  0  0  0  0  0  0  0  0  0  0
  -28.5624  -12.8487  -18.3146 H   0  0  0  0  0  0  0  0  0  0  0  0
  -27.1077  -14.6079  -20.9722 H   0  0  0  0  0  0  0  0  0  0  0  0
  -15.4380  -13.2385  -20.9512 H   0  0  0  0  0  0  0  0  0  0  0  0
  -16.0473  -11.8838  -19.9631 H   0  0  0  0  0  0  0  0  0  0  0  0
  -18.2237  -15.6173  -23.6436 H   0  0  0  0  0  0  0  0  0  0  0  0
  -19.9612  -15.2240  -23.7399 H   0  0  0  0  0  0  0  0  0  0  0  0
  1  2  1  0
  1  5  2  0
  1  7  1  0
  2  8  1  0
  3  4  1  0
  4  5  1  0
  5 23  1  0
  6 23  2  0
  6 24  1  0
  6 25  1  0
  7 25  2  0
  7 26  1  0
  8  9  1  0
  9 10  1  0
 10 27  1  0
 11 12  2  0
 11 20  1  0
 11 27  1  0
 12 13  1  0
 13 14  2  0
 14 15  1  0
 15 16  1  0
 15 20  2  0
 17 16  1  0
 17 18  1  0
 17 19  1  0
 18 21  1  0
 18 22  1  0
 19 28  2  0
 19 29  1  0
  3 30  1  0
  3 31  1  0
  3 32  1  0
  4 33  1  0
  4 34  1  0
  8 35  1  0
  8 36  1  0
  9 37  1  0
  9 38  1  0
 10 39  1  0
 10 40  1  0
 12 41  1  0
 13 42  1  0
 14 43  1  0
 16 44  1  0
 16 45  1  0
 17 46  1  6
 18 47  1  6
 20 48  1  0
 24 49  1  0
 24 50  1  0
 26 51  1  0
 26 52  1  0
M  CHG  1  29  -1
M  END
>  <filename_input>  (10) 
7KM8_WPD_docked.sdf

>  <pdb_id>  (10) 
7KM8_WPD

>  <pose_rank>  (10) 
9

>  <num_atoms_heavy>  (10) 
29

>  <num_torsions>  (10) 
11

>  <pose>  (10) 
[-24.858871653601863, -13.454190497379852, -21.17611716912915, 1.5011708673694097, -1.6690714660494035, -0.28736707922307275, 17.053419886583725, -2.927088202500641, -4.054242869086901, -5.655874493639281, -0.060870673328253286, 5.122328770342728, -0.24676444712215465, -12.030399866435152, -19.58039475276022, -20.863918396699756, 3.982776733235017]

>  <energy>  (10) 
-1164.7052165735035

>  <inter_energy>  (10) 
-1258.5541871638727

>  <intra_energy>  (10) 
105.10403679238118

>  <rmsd>  (10) 
7.63999

>  <sdf_rank>  (10) 
0

$$$$

     RDKit          3D

 52 53  0  0  0  0  0  0  0  0999 V2000
  -19.8797  -13.5426  -21.6763 C   0  0  0  0  0  0  0  0  0  0  0  0
  -21.1967  -13.8409  -22.0257 O   0  0  0  0  0  0  0  0  0  0  0  0
  -18.4522  -15.9606  -23.6418 C   0  0  0  0  0  0  0  0  0  0  0  0
  -19.0077  -14.5264  -23.8092 C   0  0  0  0  0  0  0  0  0  0  0  0
  -18.8379  -13.8293  -22.4900 C   0  0  0  0  0  0  0  0  0  0  0  0
  -17.3770  -12.8938  -20.9806 C   0  0  0  0  0  0  0  0  0  0  0  0
  -19.5913  -12.8904  -20.4517 C   0  0  0  0  0  0  0  0  0  0  0  0
  -21.8685  -12.8875  -22.9075 C   0  0  0  0  0  0  0  0  0  0  0  0
  -22.9493  -12.2471  -22.0503 C   0  0  0  0  0  0  0  0  0  0  0  0
  -24.1829  -11.8945  -22.8848 C   0  0  0  0  0  0  0  0  0  0  0  0
  -24.2582   -9.6352  -23.7357 C   0  0  0  0  0  0  0  0  0  0  0  0
  -25.2224   -9.2356  -22.8338 C   0  0  0  0  0  0  0  0  0  0  0  0
  -25.6209   -7.9050  -22.8226 C   0  0  0  0  0  0  0  0  0  0  0  0
  -25.0875   -6.9860  -23.7057 C   0  0  0  0  0  0  0  0  0  0  0  0
  -24.1084   -7.3965  -24.6165 C   0  0  0  0  0  0  0  0  0  0  0  0
  -23.5002   -6.4190  -25.6144 C   0  0  0  0  0  0  0  0  0  0  0  0
  -22.2443   -5.6477  -25.1633 C   0  0  2  0  0  0  0  0  0  0  0  0
  -22.3611   -4.2422  -25.6981 C   0  0  2  0  0  0  0  0  0  0  0  0
  -20.9944   -6.3552  -25.7925 C   0  0  0  0  0  0  0  0  0  0  0  0
  -23.7112   -8.7189  -24.6165 C   0  0  0  0  0  0  0  0  0  0  0  0
  -21.1949   -3.5378  -25.4713 F   0  0  0  0  0  0  0  0  0  0  0  0
  -23.3633   -3.5331  -25.0460 F   0  0  0  0  0  0  0  0  0  0  0  0
  -17.5749  -13.5079  -22.1500 N   0  0  0  0  0  0  0  0  0  0  0  0
  -16.1052  -12.5716  -20.6371 N   0  0  0  0  0  0  0  0  0  0  0  0
  -18.3360  -12.5751  -20.1159 N   0  0  0  0  0  0  0  0  0  0  0  0
  -20.5684  -12.5735  -19.6036 N   0  0  0  0  0  0  0  0  0  0  0  0
  -23.7907  -10.9201  -23.8419 O   0  0  0  0  0  0  0  0  0  0  0  0
  -19.9711   -6.3078  -25.0892 O   0  0  0  0  0  0  0  0  0  0  0  0
  -21.1713   -6.8765  -26.9080 O   0  0  0  0  0  0  0  0  0  0  0  0
  -18.3611  -16.1958  -22.5711 H   0  0  0  0  0  0  0  0  0  0  0  0
  -19.1378  -16.6772  -24.1176 H   0  0  0  0  0  0  0  0  0  0  0  0
  -17.4627  -16.0284  -24.1176 H   0  0  0  0  0  0  0  0  0  0  0  0
  -18.4476  -13.9939  -24.5920 H   0  0  0  0  0  0  0  0  0  0  0  0
  -20.0667  -14.5493  -24.1060 H   0  0  0  0  0  0  0  0  0  0  0  0
  -21.1590  -12.1270  -23.2658 H   0  0  0  0  0  0  0  0  0  0  0  0
  -22.2864  -13.3760  -23.8001 H   0  0  0  0  0  0  0  0  0  0  0  0
  -23.2421  -12.9511  -21.2574 H   0  0  0  0  0  0  0  0  0  0  0  0
  -22.5459  -11.3200  -21.6172 H   0  0  0  0  0  0  0  0  0  0  0  0
  -24.5587  -12.7928  -23.3966 H   0  0  0  0  0  0  0  0  0  0  0  0
  -24.9850  -11.5031  -22.2418 H   0  0  0  0  0  0  0  0  0  0  0  0
  -25.6683   -9.9587  -22.1350 H   0  0  0  0  0  0  0  0  0  0  0  0
  -26.3774   -7.5758  -22.0951 H   0  0  0  0  0  0  0  0  0  0  0  0
  -25.4298   -5.9407  -23.6928 H   0  0  0  0  0  0  0  0  0  0  0  0
  -23.2331   -6.9891  -26.5164 H   0  0  0  0  0  0  0  0  0  0  0  0
  -24.2703   -5.6478  -25.7638 H   0  0  0  0  0  0  0  0  0  0  0  0
  -22.1449   -5.6270  -24.0680 H   0  0  0  0  0  0  0  0  0  0  0  0
  -22.5795   -4.3383  -26.7719 H   0  0  0  0  0  0  0  0  0  0  0  0
  -22.9440   -9.0509  -25.3314 H   0  0  0  0  0  0  0  0  0  0  0  0
  -15.9178  -12.0974  -19.7422 H   0  0  0  0  0  0  0  0  0  0  0  0
  -15.3266  -12.8011  -21.2712 H   0  0  0  0  0  0  0  0  0  0  0  0
  -20.3467  -12.0995  -18.7165 H   0  0  0  0  0  0  0  0  0  0  0  0
  -21.5456  -12.8024  -19.8351 H   0  0  0  0  0  0  0  0  0  0  0  0
  1  2  1  0
  1  5  2  0
  1  7  1  0
  2  8  1  0
  3  4  1  0
  4  5  1  0
  5 23  1  0
  6 23  2  0
  6 24  1  0
  6 25  1  0
  7 25  2  0
  7 26  1  0
  8  9  1  0
  9 10  1  0
 10 27  1  0
 11 12  2  0
 11 20  1  0
 11 27  1  0
 12 13  1  0
 13 14  2  0
 14 15  1  0
 15 16  1  0
 15 20  2  0
 17 16  1  0
 17 18  1  0
 17 19  1  0
 18 21  1  0
 18 22  1  0
 19 28  2  0
 19 29  1  0
  3 30  1  0
  3 31  1  0
  3 32  1  0
  4 33  1  0
  4 34  1  0
  8 35  1  0
  8 36  1  0
  9 37  1  0
  9 38  1  0
 10 39  1  0
 10 40  1  0
 12 41  1  0
 13 42  1  0
 14 43  1  0
 16 44  1  0
 16 45  1  0
 17 46  1  1
 18 47  1  6
 20 48  1  0
 24 49  1  0
 24 50  1  0
 26 51  1  0
 26 52  1  0
M  CHG  1  29  -1
M  END
>  <filename_input>  (11) 
7KM8_WPD_docked.sdf

>  <pdb_id>  (11) 
7KM8_WPD

>  <pose_rank>  (11) 
10

>  <num_atoms_heavy>  (11) 
29

>  <num_torsions>  (11) 
11

>  <pose>  (11) 
[-23.790732238533227, -10.920139523012661, -23.84191666373614, 5.57685202011273, -2.3021187690191285, 0.7427474099348446, 31.16826014146202, 12.243890306145978, 5.913015390815401, 0.138753920945652, 2.4131475213483387, 45.272964415790916, 29.292907128393782, 52.60128200075463, 32.31164458041499, -40.961666202012125, -0.2271139897167343]

>  <energy>  (11) 
-1117.635797748814

>  <inter_energy>  (11) 
-1084.5644272747306

>  <intra_energy>  (11) 
7.802954854089714

>  <rmsd>  (11) 
2.1489

>  <sdf_rank>  (11) 
0

$$$$

     RDKit          3D

 52 53  0  0  0  0  0  0  0  0999 V2000
  -20.1477  -12.9175  -21.4593 C   0  0  0  0  0  0  0  0  0  0  0  0
  -21.5169  -12.9685  -21.7204 O   0  0  0  0  0  0  0  0  0  0  0  0
  -19.7063   -9.7267  -19.8139 C   0  0  0  0  0  0  0  0  0  0  0  0
  -20.4557  -11.0799  -19.7841 C   0  0  0  0  0  0  0  0  0  0  0  0
  -19.6208  -12.0650  -20.5509 C   0  0  0  0  0  0  0  0  0  0  0  0
  -17.5182  -12.9034  -20.9555 C   0  0  0  0  0  0  0  0  0  0  0  0
  -19.2559  -13.7939  -22.1261 C   0  0  0  0  0  0  0  0  0  0  0  0
  -22.3357  -11.9215  -21.1110 C   0  0  0  0  0  0  0  0  0  0  0  0
  -22.5637  -10.9019  -22.2161 C   0  0  0  0  0  0  0  0  0  0  0  0
  -21.2427  -10.2887  -22.6866 C   0  0  0  0  0  0  0  0  0  0  0  0
  -22.8444   -8.6846  -23.5208 C   0  0  0  0  0  0  0  0  0  0  0  0
  -23.2293   -7.5390  -24.1857 C   0  0  0  0  0  0  0  0  0  0  0  0
  -24.5841   -7.2878  -24.3611 C   0  0  0  0  0  0  0  0  0  0  0  0
  -25.5460   -8.1482  -23.8676 C   0  0  0  0  0  0  0  0  0  0  0  0
  -25.1496   -9.3095  -23.1962 C   0  0  0  0  0  0  0  0  0  0  0  0
  -26.1763  -10.2809  -22.6274 C   0  0  0  0  0  0  0  0  0  0  0  0
  -25.6849  -11.2689  -21.5511 C   0  0  2  0  0  0  0  0  0  0  0  0
  -25.5196  -12.6135  -22.2142 C   0  0  2  0  0  0  0  0  0  0  0  0
  -26.7872  -11.3550  -20.4392 C   0  0  0  0  0  0  0  0  0  0  0  0
  -23.8010   -9.5570  -23.0326 C   0  0  0  0  0  0  0  0  0  0  0  0
  -25.0212  -12.4659  -23.4940 F   0  0  0  0  0  0  0  0  0  0  0  0
  -26.7407  -13.2621  -22.3572 F   0  0  0  0  0  0  0  0  0  0  0  0
  -18.2996  -12.0490  -20.2898 N   0  0  0  0  0  0  0  0  0  0  0  0
  -16.1875  -12.8864  -20.6942 N   0  0  0  0  0  0  0  0  0  0  0  0
  -17.9443  -13.7737  -21.8666 N   0  0  0  0  0  0  0  0  0  0  0  0
  -19.7056  -14.6632  -23.0297 N   0  0  0  0  0  0  0  0  0  0  0  0
  -21.5394   -9.0342  -23.2843 O   0  0  0  0  0  0  0  0  0  0  0  0
  -26.8371  -12.4486  -19.8513 O   0  0  0  0  0  0  0  0  0  0  0  0
  -27.4736  -10.3305  -20.2761 O   0  0  0  0  0  0  0  0  0  0  0  0
  -19.5191   -9.3885  -18.7841 H   0  0  0  0  0  0  0  0  0  0  0  0
  -18.7479   -9.8498  -20.3395 H   0  0  0  0  0  0  0  0  0  0  0  0
  -20.3193   -8.9797  -20.3395 H   0  0  0  0  0  0  0  0  0  0  0  0
  -20.5803  -11.4192  -18.7452 H   0  0  0  0  0  0  0  0  0  0  0  0
  -21.4559  -10.9831  -20.2315 H   0  0  0  0  0  0  0  0  0  0  0  0
  -23.2940  -12.3344  -20.7629 H   0  0  0  0  0  0  0  0  0  0  0  0
  -21.8461  -11.4746  -20.2331 H   0  0  0  0  0  0  0  0  0  0  0  0
  -23.0516  -11.3990  -23.0675 H   0  0  0  0  0  0  0  0  0  0  0  0
  -23.1995  -10.0963  -21.8202 H   0  0  0  0  0  0  0  0  0  0  0  0
  -20.5693  -10.1454  -21.8287 H   0  0  0  0  0  0  0  0  0  0  0  0
  -20.7446  -10.9523  -23.4088 H   0  0  0  0  0  0  0  0  0  0  0  0
  -22.4758   -6.8360  -24.5705 H   0  0  0  0  0  0  0  0  0  0  0  0
  -24.8980   -6.3845  -24.9048 H   0  0  0  0  0  0  0  0  0  0  0  0
  -26.6141   -7.9218  -24.0013 H   0  0  0  0  0  0  0  0  0  0  0  0
  -26.9874   -9.6844  -22.1844 H   0  0  0  0  0  0  0  0  0  0  0  0
  -26.4748  -10.9111  -23.4781 H   0  0  0  0  0  0  0  0  0  0  0  0
  -24.7322  -10.9499  -21.1033 H   0  0  0  0  0  0  0  0  0  0  0  0
  -24.8376  -13.1914  -21.5732 H   0  0  0  0  0  0  0  0  0  0  0  0
  -23.4806  -10.4664  -22.5031 H   0  0  0  0  0  0  0  0  0  0  0  0
  -15.5570  -13.5324  -21.1902 H   0  0  0  0  0  0  0  0  0  0  0  0
  -15.8075  -12.2274  -19.9997 H   0  0  0  0  0  0  0  0  0  0  0  0
  -19.0479  -15.2954  -23.5080 H   0  0  0  0  0  0  0  0  0  0  0  0
  -20.7109  -14.7032  -23.2502 H   0  0  0  0  0  0  0  0  0  0  0  0
  1  2  1  0
  1  5  2  0
  1  7  1  0
  2  8  1  0
  3  4  1  0
  4  5  1  0
  5 23  1  0
  6 23  2  0
  6 24  1  0
  6 25  1  0
  7 25  2  0
  7 26  1  0
  8  9  1  0
  9 10  1  0
 10 27  1  0
 11 12  2  0
 11 20  1  0
 11 27  1  0
 12 13  1  0
 13 14  2  0
 14 15  1  0
 15 16  1  0
 15 20  2  0
 17 16  1  0
 17 18  1  0
 17 19  1  0
 18 21  1  0
 18 22  1  0
 19 28  2  0
 19 29  1  0
  3 30  1  0
  3 31  1  0
  3 32  1  0
  4 33  1  0
  4 34  1  0
  8 35  1  0
  8 36  1  0
  9 37  1  0
  9 38  1  0
 10 39  1  0
 10 40  1  0
 12 41  1  0
 13 42  1  0
 14 43  1  0
 16 44  1  0
 16 45  1  0
 17 46  1  1
 18 47  1  1
 20 48  1  0
 24 49  1  0
 24 50  1  0
 26 51  1  0
 26 52  1  0
M  CHG  1  29  -1
M  END
>  <filename_input>  (12) 
7KM8_WPD_docked.sdf

>  <pdb_id>  (12) 
7KM8_WPD

>  <pose_rank>  (12) 
11

>  <num_atoms_heavy>  (12) 
29

>  <num_torsions>  (12) 
11

>  <pose>  (12) 
[-21.539396834665677, -9.0341699653245, -23.284342767407015, 0.06351748541820139, -0.5934266108827843, 0.8767005932828174, 3.1172049000907593, 1.5758985565677588, 0.294279440059401, -2.4701199740207023, 1.3281471299485241, 3.066434262230059, 2.523354324543975, 3.8157768815422313, -1.6967092209278698, -1.6806122125505703, -0.6963077527927517]

>  <energy>  (12) 
-898.3603089625124

>  <inter_energy>  (12) 
-1152.6276567784985

>  <intra_energy>  (12) 
264.62722382622223

>  <rmsd>  (12) 
4.91035

>  <sdf_rank>  (12) 
0

$$$$

     RDKit          3D

 52 53  0  0  0  0  0  0  0  0999 V2000
  -20.0593  -13.5134  -21.9021 C   0  0  0  0  0  0  0  0  0  0  0  0
  -21.3132  -13.9298  -22.3490 O   0  0  0  0  0  0  0  0  0  0  0  0
  -20.8754  -11.3124  -19.1467 C   0  0  0  0  0  0  0  0  0  0  0  0
  -21.0568  -11.5797  -20.6598 C   0  0  0  0  0  0  0  0  0  0  0  0
  -19.9040  -12.4360  -21.0990 C   0  0  0  0  0  0  0  0  0  0  0  0
  -17.6337  -12.7940  -21.0259 C   0  0  0  0  0  0  0  0  0  0  0  0
  -18.8936  -14.2373  -22.2558 C   0  0  0  0  0  0  0  0  0  0  0  0
  -22.4638  -13.1715  -21.8599 C   0  0  0  0  0  0  0  0  0  0  0  0
  -22.7609  -12.1534  -22.9499 C   0  0  0  0  0  0  0  0  0  0  0  0
  -23.2585  -10.8336  -22.3557 C   0  0  0  0  0  0  0  0  0  0  0  0
  -23.6974   -8.6305  -23.2435 C   0  0  0  0  0  0  0  0  0  0  0  0
  -25.0001   -8.5266  -22.8020 C   0  0  0  0  0  0  0  0  0  0  0  0
  -25.6068   -7.2771  -22.7890 C   0  0  0  0  0  0  0  0  0  0  0  0
  -24.9405   -6.1484  -23.2262 C   0  0  0  0  0  0  0  0  0  0  0  0
  -23.6189   -6.2595  -23.6705 C   0  0  0  0  0  0  0  0  0  0  0  0
  -22.8499   -5.0429  -24.1702 C   0  0  0  0  0  0  0  0  0  0  0  0
  -21.8109   -5.2796  -25.2838 C   0  0  2  0  0  0  0  0  0  0  0  0
  -20.6652   -4.3290  -25.0419 C   0  0  2  0  0  0  0  0  0  0  0  0
  -22.4948   -4.9516  -26.6563 C   0  0  0  0  0  0  0  0  0  0  0  0
  -23.0194   -7.5034  -23.6730 C   0  0  0  0  0  0  0  0  0  0  0  0
  -20.3438   -4.2874  -23.6992 F   0  0  0  0  0  0  0  0  0  0  0  0
  -21.0048   -3.0265  -25.3891 F   0  0  0  0  0  0  0  0  0  0  0  0
  -18.6886  -12.0649  -20.6528 N   0  0  0  0  0  0  0  0  0  0  0  0
  -16.4096  -12.4195  -20.5782 N   0  0  0  0  0  0  0  0  0  0  0  0
  -17.6880  -13.8646  -21.8133 N   0  0  0  0  0  0  0  0  0  0  0  0
  -18.9720  -15.3115  -23.0397 N   0  0  0  0  0  0  0  0  0  0  0  0
  -22.9988   -9.8091  -23.3056 O   0  0  0  0  0  0  0  0  0  0  0  0
  -23.6163   -4.4259  -26.5568 O   0  0  0  0  0  0  0  0  0  0  0  0
  -21.8421   -5.2507  -27.6721 O   0  0  0  0  0  0  0  0  0  0  0  0
  -21.4019  -12.0884  -18.5717 H   0  0  0  0  0  0  0  0  0  0  0  0
  -19.8045  -11.3337  -18.8964 H   0  0  0  0  0  0  0  0  0  0  0  0
  -21.2910  -10.3252  -18.8964 H   0  0  0  0  0  0  0  0  0  0  0  0
  -22.0065  -12.1049  -20.8388 H   0  0  0  0  0  0  0  0  0  0  0  0
  -21.0799  -10.6355  -21.2237 H   0  0  0  0  0  0  0  0  0  0  0  0
  -23.3270  -13.8358  -21.7065 H   0  0  0  0  0  0  0  0  0  0  0  0
  -22.2587  -12.6905  -20.8921 H   0  0  0  0  0  0  0  0  0  0  0  0
  -21.8419  -11.9643  -23.5241 H   0  0  0  0  0  0  0  0  0  0  0  0
  -23.5487  -12.5607  -23.6007 H   0  0  0  0  0  0  0  0  0  0  0  0
  -24.3386  -10.8955  -22.1568 H   0  0  0  0  0  0  0  0  0  0  0  0
  -22.7449  -10.6195  -21.4069 H   0  0  0  0  0  0  0  0  0  0  0  0
  -25.5493   -9.4184  -22.4659 H   0  0  0  0  0  0  0  0  0  0  0  0
  -26.6399   -7.1842  -22.4228 H   0  0  0  0  0  0  0  0  0  0  0  0
  -25.4451   -5.1709  -23.2248 H   0  0  0  0  0  0  0  0  0  0  0  0
  -23.5855   -4.3192  -24.5513 H   0  0  0  0  0  0  0  0  0  0  0  0
  -22.2660   -4.6988  -23.3038 H   0  0  0  0  0  0  0  0  0  0  0  0
  -21.4447   -6.3168  -25.2918 H   0  0  0  0  0  0  0  0  0  0  0  0
  -19.8268   -4.6950  -25.6528 H   0  0  0  0  0  0  0  0  0  0  0  0
  -21.9813   -7.6003  -24.0238 H   0  0  0  0  0  0  0  0  0  0  0  0
  -15.5752  -12.9601  -20.8473 H   0  0  0  0  0  0  0  0  0  0  0  0
  -16.3142  -11.5944  -19.9690 H   0  0  0  0  0  0  0  0  0  0  0  0
  -18.1179  -15.8297  -23.2902 H   0  0  0  0  0  0  0  0  0  0  0  0
  -19.8868  -15.6238  -23.3953 H   0  0  0  0  0  0  0  0  0  0  0  0
  1  2  1  0
  1  5  2  0
  1  7  1  0
  2  8  1  0
  3  4  1  0
  4  5  1  0
  5 23  1  0
  6 23  2  0
  6 24  1  0
  6 25  1  0
  7 25  2  0
  7 26  1  0
  8  9  1  0
  9 10  1  0
 10 27  1  0
 11 12  2  0
 11 20  1  0
 11 27  1  0
 12 13  1  0
 13 14  2  0
 14 15  1  0
 15 16  1  0
 15 20  2  0
 17 16  1  0
 17 18  1  0
 17 19  1  0
 18 21  1  0
 18 22  1  0
 19 28  2  0
 19 29  1  0
  3 30  1  0
  3 31  1  0
  3 32  1  0
  4 33  1  0
  4 34  1  0
  8 35  1  0
  8 36  1  0
  9 37  1  0
  9 38  1  0
 10 39  1  0
 10 40  1  0
 12 41  1  0
 13 42  1  0
 14 43  1  0
 16 44  1  0
 16 45  1  0
 17 46  1  6
 18 47  1  6
 20 48  1  0
 24 49  1  0
 24 50  1  0
 26 51  1  0
 26 52  1  0
M  CHG  1  29  -1
M  END
>  <filename_input>  (13) 
7KM8_WPD_docked.sdf

>  <pdb_id>  (13) 
7KM8_WPD

>  <pose_rank>  (13) 
12

>  <num_atoms_heavy>  (13) 
29

>  <num_torsions>  (13) 
11

>  <pose>  (13) 
[-22.998808792959263, -9.809123855195661, -23.30561272666266, 4.824523511909141, -0.1504661367532807, -3.612405658561725, -0.6713303967941356, -4.466025054880619, -0.43884344741767095, -2.383002284129136, -1.1480783574497992, -0.2730793641131174, 1.720924948360992, 2.3686959982289606, -1.7588680743387726, -1.8754943098281496, -2.262007865401818]

>  <energy>  (13) 
-1410.2023070100827

>  <inter_energy>  (13) 
-1521.364988331606

>  <intra_energy>  (13) 
110.74373989502834

>  <rmsd>  (13) 
1.5074

>  <sdf_rank>  (13) 
0

$$$$

     RDKit          3D

 52 53  0  0  0  0  0  0  0  0999 V2000
  -20.3258  -13.4720  -21.4994 C   0  0  0  0  0  0  0  0  0  0  0  0
  -21.6780  -13.6864  -21.7659 O   0  0  0  0  0  0  0  0  0  0  0  0
  -19.5574  -16.3796  -22.8880 C   0  0  0  0  0  0  0  0  0  0  0  0
  -19.6358  -14.9282  -23.4180 C   0  0  0  0  0  0  0  0  0  0  0  0
  -19.3484  -14.0179  -22.2587 C   0  0  0  0  0  0  0  0  0  0  0  0
  -17.7465  -12.9788  -20.9774 C   0  0  0  0  0  0  0  0  0  0  0  0
  -19.9287  -12.6361  -20.4263 C   0  0  0  0  0  0  0  0  0  0  0  0
  -22.4599  -12.5125  -22.1515 C   0  0  0  0  0  0  0  0  0  0  0  0
  -21.4317  -11.4511  -22.5113 C   0  0  0  0  0  0  0  0  0  0  0  0
  -21.9484  -10.0467  -22.1903 C   0  0  0  0  0  0  0  0  0  0  0  0
  -20.9028   -8.0495  -23.0577 C   0  0  0  0  0  0  0  0  0  0  0  0
  -19.8028   -7.4604  -23.6455 C   0  0  0  0  0  0  0  0  0  0  0  0
  -19.9879   -6.3363  -24.4404 C   0  0  0  0  0  0  0  0  0  0  0  0
  -21.2420   -5.7901  -24.6346 C   0  0  0  0  0  0  0  0  0  0  0  0
  -22.3541   -6.3933  -24.0379 C   0  0  0  0  0  0  0  0  0  0  0  0
  -23.7538   -5.8190  -24.2174 C   0  0  0  0  0  0  0  0  0  0  0  0
  -24.6661   -6.5072  -25.2518 C   0  0  2  0  0  0  0  0  0  0  0  0
  -24.6735   -7.9822  -24.9367 C   0  0  2  0  0  0  0  0  0  0  0  0
  -24.0465   -6.2688  -26.6724 C   0  0  0  0  0  0  0  0  0  0  0  0
  -22.1637   -7.5151  -23.2556 C   0  0  0  0  0  0  0  0  0  0  0  0
  -23.4644   -8.5574  -25.2758 F   0  0  0  0  0  0  0  0  0  0  0  0
  -25.6340   -8.6554  -25.6828 F   0  0  0  0  0  0  0  0  0  0  0  0
  -18.0478  -13.7769  -22.0050 N   0  0  0  0  0  0  0  0  0  0  0  0
  -16.4369  -12.7374  -20.7206 N   0  0  0  0  0  0  0  0  0  0  0  0
  -18.6365  -12.4010  -20.1753 N   0  0  0  0  0  0  0  0  0  0  0  0
  -20.8374  -12.0613  -19.6399 N   0  0  0  0  0  0  0  0  0  0  0  0
  -20.8421   -9.1569  -22.2509 O   0  0  0  0  0  0  0  0  0  0  0  0
  -23.0921   -5.4733  -26.6878 O   0  0  0  0  0  0  0  0  0  0  0  0
  -24.5751   -6.8976  -27.6065 O   0  0  0  0  0  0  0  0  0  0  0  0
  -19.5580  -16.3689  -21.7881 H   0  0  0  0  0  0  0  0  0  0  0  0
  -20.4261  -16.9494  -23.2496 H   0  0  0  0  0  0  0  0  0  0  0  0
  -18.6324  -16.8526  -23.2496 H   0  0  0  0  0  0  0  0  0  0  0  0
  -18.8894  -14.7756  -24.2114 H   0  0  0  0  0  0  0  0  0  0  0  0
  -20.6290  -14.7198  -23.8422 H   0  0  0  0  0  0  0  0  0  0  0  0
  -23.0979  -12.7412  -23.0179 H   0  0  0  0  0  0  0  0  0  0  0  0
  -23.1294  -12.1803  -21.3444 H   0  0  0  0  0  0  0  0  0  0  0  0
  -20.5113  -11.6344  -21.9374 H   0  0  0  0  0  0  0  0  0  0  0  0
  -21.2341  -11.5104  -23.5917 H   0  0  0  0  0  0  0  0  0  0  0  0
  -22.7093   -9.7496  -22.9270 H   0  0  0  0  0  0  0  0  0  0  0  0
  -22.4083  -10.0235  -21.1913 H   0  0  0  0  0  0  0  0  0  0  0  0
  -18.7958   -7.8738  -23.4875 H   0  0  0  0  0  0  0  0  0  0  0  0
  -19.1172   -5.8711  -24.9257 H   0  0  0  0  0  0  0  0  0  0  0  0
  -21.3649   -4.8888  -25.2531 H   0  0  0  0  0  0  0  0  0  0  0  0
  -24.2607   -5.8697  -23.2424 H   0  0  0  0  0  0  0  0  0  0  0  0
  -23.5972   -4.8023  -24.6069 H   0  0  0  0  0  0  0  0  0  0  0  0
  -25.6919   -6.1109  -25.2246 H   0  0  0  0  0  0  0  0  0  0  0  0
  -24.8794   -8.0662  -23.8594 H   0  0  0  0  0  0  0  0  0  0  0  0
  -23.0324   -7.9939  -22.7801 H   0  0  0  0  0  0  0  0  0  0  0  0
  -16.1702  -12.1263  -19.9355 H   0  0  0  0  0  0  0  0  0  0  0  0
  -15.7090  -13.1651  -21.3106 H   0  0  0  0  0  0  0  0  0  0  0  0
  -20.5368  -11.4557  -18.8629 H   0  0  0  0  0  0  0  0  0  0  0  0
  -21.8405  -12.2225  -19.8089 H   0  0  0  0  0  0  0  0  0  0  0  0
  1  2  1  0
  1  5  2  0
  1  7  1  0
  2  8  1  0
  3  4  1  0
  4  5  1  0
  5 23  1  0
  6 23  2  0
  6 24  1  0
  6 25  1  0
  7 25  2  0
  7 26  1  0
  8  9  1  0
  9 10  1  0
 10 27  1  0
 11 12  2  0
 11 20  1  0
 11 27  1  0
 12 13  1  0
 13 14  2  0
 14 15  1  0
 15 16  1  0
 15 20  2  0
 17 16  1  0
 17 18  1  0
 17 19  1  0
 18 21  1  0
 18 22  1  0
 19 28  2  0
 19 29  1  0
  3 30  1  0
  3 31  1  0
  3 32  1  0
  4 33  1  0
  4 34  1  0
  8 35  1  0
  8 36  1  0
  9 37  1  0
  9 38  1  0
 10 39  1  0
 10 40  1  0
 12 41  1  0
 13 42  1  0
 14 43  1  0
 16 44  1  0
 16 45  1  0
 17 46  1  6
 18 47  1  1
 20 48  1  0
 24 49  1  0
 24 50  1  0
 26 51  1  0
 26 52  1  0
M  CHG  1  29  -1
M  END
>  <filename_input>  (14) 
7KM8_WPD_docked.sdf

>  <pdb_id>  (14) 
7KM8_WPD

>  <pose_rank>  (14) 
13

>  <num_atoms_heavy>  (14) 
29

>  <num_torsions>  (14) 
11

>  <pose>  (14) 
[-20.84212240197953, -9.156927013564616, -22.250855855156434, -0.4612403711344605, -1.327971172536003, -0.0372843686881188, -2.7476630332650296, -0.13267480657353964, 3.000966352285893, 1.8926975825145467, -1.4445931816476039, 5.423034672441014, 1.8902894068648022, 2.309654098352425, -3.166665124228507, -3.8482312896727273, 0.007990315790987839]

>  <energy>  (14) 
-594.5016893535693

>  <inter_energy>  (14) 
-726.2031183652848

>  <intra_energy>  (14) 
156.99596094074374

>  <rmsd>  (14) 
3.55541

>  <sdf_rank>  (14) 
0

$$$$

     RDKit          3D

 52 53  0  0  0  0  0  0  0  0999 V2000
  -19.4948  -13.9627  -21.5225 C   0  0  0  0  0  0  0  0  0  0  0  0
  -20.2017  -13.6621  -20.3582 O   0  0  0  0  0  0  0  0  0  0  0  0
  -15.8252  -13.8195  -20.7751 C   0  0  0  0  0  0  0  0  0  0  0  0
  -17.2986  -13.5460  -20.3908 C   0  0  0  0  0  0  0  0  0  0  0  0
  -18.1432  -13.9379  -21.5691 C   0  0  0  0  0  0  0  0  0  0  0  0
  -18.1879  -14.6061  -23.7689 C   0  0  0  0  0  0  0  0  0  0  0  0
  -20.1819  -14.3403  -22.7029 C   0  0  0  0  0  0  0  0  0  0  0  0
  -20.6924  -12.2907  -20.2299 C   0  0  0  0  0  0  0  0  0  0  0  0
  -21.7570  -12.1475  -21.3066 C   0  0  0  0  0  0  0  0  0  0  0  0
  -22.5678  -10.8632  -21.1177 C   0  0  0  0  0  0  0  0  0  0  0  0
  -23.2711   -9.0387  -22.5357 C   0  0  0  0  0  0  0  0  0  0  0  0
  -24.6362   -9.1050  -22.3488 C   0  0  0  0  0  0  0  0  0  0  0  0
  -25.4081   -7.9862  -22.6354 C   0  0  0  0  0  0  0  0  0  0  0  0
  -24.8396   -6.8238  -23.1198 C   0  0  0  0  0  0  0  0  0  0  0  0
  -23.4545   -6.7618  -23.3051 C   0  0  0  0  0  0  0  0  0  0  0  0
  -22.7869   -5.5037  -23.8463 C   0  0  0  0  0  0  0  0  0  0  0  0
  -21.4443   -5.6840  -24.5816 C   0  0  2  0  0  0  0  0  0  0  0  0
  -20.4240   -4.8263  -23.8756 C   0  0  2  0  0  0  0  0  0  0  0  0
  -21.6330   -5.1834  -26.0556 C   0  0  0  0  0  0  0  0  0  0  0  0
  -22.6925   -7.8750  -23.0105 C   0  0  0  0  0  0  0  0  0  0  0  0
  -20.5218   -4.9826  -22.5067 F   0  0  0  0  0  0  0  0  0  0  0  0
  -20.6427   -3.4750  -24.1177 F   0  0  0  0  0  0  0  0  0  0  0  0
  -17.4755  -14.2592  -22.6938 N   0  0  0  0  0  0  0  0  0  0  0  0
  -17.5159  -14.9281  -24.9020 N   0  0  0  0  0  0  0  0  0  0  0  0
  -19.5161  -14.6561  -23.8187 N   0  0  0  0  0  0  0  0  0  0  0  0
  -21.5128  -14.3910  -22.7283 N   0  0  0  0  0  0  0  0  0  0  0  0
  -22.4108  -10.0786  -22.2920 O   0  0  0  0  0  0  0  0  0  0  0  0
  -22.8071   -4.9103  -26.3571 O   0  0  0  0  0  0  0  0  0  0  0  0
  -20.5978   -5.1171  -26.7421 O   0  0  0  0  0  0  0  0  0  0  0  0
  -15.2227  -13.9314  -19.8616 H   0  0  0  0  0  0  0  0  0  0  0  0
  -15.7665  -14.7439  -21.3685 H   0  0  0  0  0  0  0  0  0  0  0  0
  -15.4387  -12.9778  -21.3685 H   0  0  0  0  0  0  0  0  0  0  0  0
  -17.5766  -14.1456  -19.5115 H   0  0  0  0  0  0  0  0  0  0  0  0
  -17.4467  -12.4856  -20.1388 H   0  0  0  0  0  0  0  0  0  0  0  0
  -21.1275  -12.1281  -19.2328 H   0  0  0  0  0  0  0  0  0  0  0  0
  -19.8858  -11.5521  -20.3476 H   0  0  0  0  0  0  0  0  0  0  0  0
  -21.2691  -12.1217  -22.2921 H   0  0  0  0  0  0  0  0  0  0  0  0
  -22.4421  -13.0050  -21.2345 H   0  0  0  0  0  0  0  0  0  0  0  0
  -23.6298  -11.1086  -20.9698 H   0  0  0  0  0  0  0  0  0  0  0  0
  -22.2154  -10.3106  -20.2342 H   0  0  0  0  0  0  0  0  0  0  0  0
  -25.1057  -10.0284  -21.9790 H   0  0  0  0  0  0  0  0  0  0  0  0
  -26.4953   -8.0265  -22.4730 H   0  0  0  0  0  0  0  0  0  0  0  0
  -25.4707   -5.9549  -23.3578 H   0  0  0  0  0  0  0  0  0  0  0  0
  -23.4892   -5.0316  -24.5491 H   0  0  0  0  0  0  0  0  0  0  0  0
  -22.5464   -4.9032  -22.9566 H   0  0  0  0  0  0  0  0  0  0  0  0
  -21.1152   -6.7336  -24.5869 H   0  0  0  0  0  0  0  0  0  0  0  0
  -19.4408   -5.1418  -24.2548 H   0  0  0  0  0  0  0  0  0  0  0  0
  -21.6029   -7.8358  -23.1563 H   0  0  0  0  0  0  0  0  0  0  0  0
  -18.0351  -15.2001  -25.7490 H   0  0  0  0  0  0  0  0  0  0  0  0
  -16.4864  -14.9006  -24.9157 H   0  0  0  0  0  0  0  0  0  0  0  0
  -22.0013  -14.6669  -23.5921 H   0  0  0  0  0  0  0  0  0  0  0  0
  -22.0533  -14.1544  -21.8840 H   0  0  0  0  0  0  0  0  0  0  0  0
  1  2  1  0
  1  5  2  0
  1  7  1  0
  2  8  1  0
  3  4  1  0
  4  5  1  0
  5 23  1  0
  6 23  2  0
  6 24  1  0
  6 25  1  0
  7 25  2  0
  7 26  1  0
  8  9  1  0
  9 10  1  0
 10 27  1  0
 11 12  2  0
 11 20  1  0
 11 27  1  0
 12 13  1  0
 13 14  2  0
 14 15  1  0
 15 16  1  0
 15 20  2  0
 17 16  1  0
 17 18  1  0
 17 19  1  0
 18 21  1  0
 18 22  1  0
 19 28  2  0
 19 29  1  0
  3 30  1  0
  3 31  1  0
  3 32  1  0
  4 33  1  0
  4 34  1  0
  8 35  1  0
  8 36  1  0
  9 37  1  0
  9 38  1  0
 10 39  1  0
 10 40  1  0
 12 41  1  0
 13 42  1  0
 14 43  1  0
 16 44  1  0
 16 45  1  0
 17 46  1  6
 18 47  1  6
 20 48  1  0
 24 49  1  0
 24 50  1  0
 26 51  1  0
 26 52  1  0
M  CHG  1  29  -1
M  END
>  <filename_input>  (15) 
7KM8_WPD_docked.sdf

>  <pdb_id>  (15) 
7KM8_WPD

>  <pose_rank>  (15) 
14

>  <num_atoms_heavy>  (15) 
29

>  <num_torsions>  (15) 
11

>  <pose>  (15) 
[-22.410792338196547, -10.078585787529448, -22.29198188905657, 4.8207233067242505, 0.19671698823079636, -3.1034458345573266, -0.864373745292899, -4.578749557871238, -0.05217590960368933, -2.3365340003671276, -1.437866147841204, -0.1864623424393033, 1.0866406325677438, 1.556091625045203, -2.256696755004343, -0.15116170583857647, -1.610511276693894]

>  <energy>  (15) 
-653.9250148610537

>  <inter_energy>  (15) 
-682.5619008696552

>  <intra_energy>  (15) 
53.973344263570574

>  <rmsd>  (15) 
2.59842

>  <sdf_rank>  (15) 
0

$$$$

     RDKit          3D

 52 53  0  0  0  0  0  0  0  0999 V2000
  -22.3568   -6.2965  -25.5168 C   0  0  0  0  0  0  0  0  0  0  0  0
  -22.3618   -7.4451  -24.7255 O   0  0  0  0  0  0  0  0  0  0  0  0
  -20.0346   -3.8731  -23.9413 C   0  0  0  0  0  0  0  0  0  0  0  0
  -20.4158   -5.3396  -24.2541 C   0  0  0  0  0  0  0  0  0  0  0  0
  -21.4539   -5.3051  -25.3387 C   0  0  0  0  0  0  0  0  0  0  0  0
  -22.3566   -4.1401  -27.1037 C   0  0  0  0  0  0  0  0  0  0  0  0
  -23.2933   -6.1451  -26.5695 C   0  0  0  0  0  0  0  0  0  0  0  0
  -23.2740   -7.4447  -23.5827 C   0  0  0  0  0  0  0  0  0  0  0  0
  -24.2201   -8.6096  -23.8293 C   0  0  0  0  0  0  0  0  0  0  0  0
  -24.8959   -9.0598  -22.5319 C   0  0  0  0  0  0  0  0  0  0  0  0
  -23.5916  -11.0485  -22.1097 C   0  0  0  0  0  0  0  0  0  0  0  0
  -24.5082  -12.0326  -22.4162 C   0  0  0  0  0  0  0  0  0  0  0  0
  -24.0466  -13.3006  -22.7461 C   0  0  0  0  0  0  0  0  0  0  0  0
  -22.6971  -13.5967  -22.7527 C   0  0  0  0  0  0  0  0  0  0  0  0
  -21.7722  -12.5940  -22.4433 C   0  0  0  0  0  0  0  0  0  0  0  0
  -20.2755  -12.8788  -22.4290 C   0  0  0  0  0  0  0  0  0  0  0  0
  -19.4038  -11.9999  -21.5107 C   0  0  2  0  0  0  0  0  0  0  0  0
  -18.2934  -12.8689  -20.9752 C   0  0  2  0  0  0  0  0  0  0  0  0
  -20.3048  -11.4982  -20.3295 C   0  0  0  0  0  0  0  0  0  0  0  0
  -22.2377  -11.3337  -22.1243 C   0  0  0  0  0  0  0  0  0  0  0  0
  -18.7445  -14.1568  -20.7618 F   0  0  0  0  0  0  0  0  0  0  0  0
  -17.8461  -12.4161  -19.7394 F   0  0  0  0  0  0  0  0  0  0  0  0
  -21.4449   -4.2158  -26.1307 N   0  0  0  0  0  0  0  0  0  0  0  0
  -22.3490   -3.0425  -27.9003 N   0  0  0  0  0  0  0  0  0  0  0  0
  -23.2835   -5.0611  -27.3523 N   0  0  0  0  0  0  0  0  0  0  0  0
  -24.2084   -7.0839  -26.8056 N   0  0  0  0  0  0  0  0  0  0  0  0
  -23.9290   -9.7645  -21.7653 O   0  0  0  0  0  0  0  0  0  0  0  0
  -20.2340  -10.2764  -20.1147 O   0  0  0  0  0  0  0  0  0  0  0  0
  -20.9785  -12.3710  -19.7535 O   0  0  0  0  0  0  0  0  0  0  0  0
  -19.9970   -3.7285  -22.8515 H   0  0  0  0  0  0  0  0  0  0  0  0
  -19.0487   -3.6501  -24.3750 H   0  0  0  0  0  0  0  0  0  0  0  0
  -20.7872   -3.1982  -24.3750 H   0  0  0  0  0  0  0  0  0  0  0  0
  -19.5302   -5.8945  -24.5972 H   0  0  0  0  0  0  0  0  0  0  0  0
  -20.8045   -5.8427  -23.3564 H   0  0  0  0  0  0  0  0  0  0  0  0
  -22.7180   -7.5908  -22.6449 H   0  0  0  0  0  0  0  0  0  0  0  0
  -23.8125   -6.4903  -23.4860 H   0  0  0  0  0  0  0  0  0  0  0  0
  -24.9934   -8.2979  -24.5468 H   0  0  0  0  0  0  0  0  0  0  0  0
  -23.6370   -9.4527  -24.2283 H   0  0  0  0  0  0  0  0  0  0  0  0
  -25.2526   -8.1832  -21.9712 H   0  0  0  0  0  0  0  0  0  0  0  0
  -25.7600   -9.7044  -22.7502 H   0  0  0  0  0  0  0  0  0  0  0  0
  -25.5867  -11.8170  -22.3997 H   0  0  0  0  0  0  0  0  0  0  0  0
  -24.7712  -14.0859  -23.0076 H   0  0  0  0  0  0  0  0  0  0  0  0
  -22.3530  -14.6120  -22.9991 H   0  0  0  0  0  0  0  0  0  0  0  0
  -20.1398  -13.9240  -22.1142 H   0  0  0  0  0  0  0  0  0  0  0  0
  -19.9325  -12.6531  -23.4495 H   0  0  0  0  0  0  0  0  0  0  0  0
  -18.9818  -11.1366  -22.0462 H   0  0  0  0  0  0  0  0  0  0  0  0
  -17.4878  -12.8356  -21.7235 H   0  0  0  0  0  0  0  0  0  0  0  0
  -21.5174  -10.5401  -21.8767 H   0  0  0  0  0  0  0  0  0  0  0  0
  -23.0386   -2.9528  -28.6601 H   0  0  0  0  0  0  0  0  0  0  0  0
  -21.6535   -2.2987  -27.7456 H   0  0  0  0  0  0  0  0  0  0  0  0
  -24.8840   -6.9629  -27.5736 H   0  0  0  0  0  0  0  0  0  0  0  0
  -24.2404   -7.9307  -26.2202 H   0  0  0  0  0  0  0  0  0  0  0  0
  1  2  1  0
  1  5  2  0
  1  7  1  0
  2  8  1  0
  3  4  1  0
  4  5  1  0
  5 23  1  0
  6 23  2  0
  6 24  1  0
  6 25  1  0
  7 25  2  0
  7 26  1  0
  8  9  1  0
  9 10  1  0
 10 27  1  0
 11 12  2  0
 11 20  1  0
 11 27  1  0
 12 13  1  0
 13 14  2  0
 14 15  1  0
 15 16  1  0
 15 20  2  0
 17 16  1  0
 17 18  1  0
 17 19  1  0
 18 21  1  0
 18 22  1  0
 19 28  2  0
 19 29  1  0
  3 30  1  0
  3 31  1  0
  3 32  1  0
  4 33  1  0
  4 34  1  0
  8 35  1  0
  8 36  1  0
  9 37  1  0
  9 38  1  0
 10 39  1  0
 10 40  1  0
 12 41  1  0
 13 42  1  0
 14 43  1  0
 16 44  1  0
 16 45  1  0
 17 46  1  6
 18 47  1  6
 20 48  1  0
 24 49  1  0
 24 50  1  0
 26 51  1  0
 26 52  1  0
M  CHG  1  29  -1
M  END
>  <filename_input>  (16) 
7KM8_WPD_docked.sdf

>  <pdb_id>  (16) 
7KM8_WPD

>  <pose_rank>  (16) 
15

>  <num_atoms_heavy>  (16) 
29

>  <num_torsions>  (16) 
11

>  <pose>  (16) 
[-23.928958007761427, -9.764523872979227, -21.76527214443721, -2.9609719045448, -0.967603201685582, -0.13471881124443727, -0.9230318226392736, 1.7220804878391944, -1.6527842280407004, 2.5384408297832644, -3.5873174110644213, 1.8988095141114498, -2.3118080681979367, -4.879099501127364, -1.3484814291070986, -6.444699231139895, -1.0399429467405168]

>  <energy>  (16) 
-567.9492166646253

>  <inter_energy>  (16) 
-654.9049351275037

>  <intra_energy>  (16) 
93.4421821962058

>  <rmsd>  (16) 
8.12945

>  <sdf_rank>  (16) 
0

$$$$

     RDKit          3D

 52 53  0  0  0  0  0  0  0  0999 V2000
  -23.0591  -11.9086  -20.2389 C   0  0  0  0  0  0  0  0  0  0  0  0
  -21.6730  -12.0517  -20.3002 O   0  0  0  0  0  0  0  0  0  0  0  0
  -23.5044  -14.9309  -21.6344 C   0  0  0  0  0  0  0  0  0  0  0  0
  -23.3857  -13.4813  -22.1617 C   0  0  0  0  0  0  0  0  0  0  0  0
  -23.8879  -12.5732  -21.0762 C   0  0  0  0  0  0  0  0  0  0  0  0
  -25.7155  -11.6413  -20.0375 C   0  0  0  0  0  0  0  0  0  0  0  0
  -23.6525  -11.0730  -19.2602 C   0  0  0  0  0  0  0  0  0  0  0  0
  -20.9257  -10.9236  -20.8542 C   0  0  0  0  0  0  0  0  0  0  0  0
  -20.6342  -11.3099  -22.2960 C   0  0  0  0  0  0  0  0  0  0  0  0
  -21.9228  -11.6379  -23.0539 C   0  0  0  0  0  0  0  0  0  0  0  0
  -23.1558   -9.6872  -23.7673 C   0  0  0  0  0  0  0  0  0  0  0  0
  -24.3484   -9.9942  -23.1458 C   0  0  0  0  0  0  0  0  0  0  0  0
  -25.2968   -8.9927  -22.9812 C   0  0  0  0  0  0  0  0  0  0  0  0
  -25.0769   -7.7094  -23.4434 C   0  0  0  0  0  0  0  0  0  0  0  0
  -23.8647   -7.4035  -24.0708 C   0  0  0  0  0  0  0  0  0  0  0  0
  -23.5840   -6.0042  -24.6043 C   0  0  0  0  0  0  0  0  0  0  0  0
  -22.1229   -5.6724  -24.9661 C   0  0  2  0  0  0  0  0  0  0  0  0
  -21.9212   -4.1976  -24.7227 C   0  0  2  0  0  0  0  0  0  0  0  0
  -21.9199   -5.9942  -26.4873 C   0  0  0  0  0  0  0  0  0  0  0  0
  -22.9232   -8.4019  -24.2238 C   0  0  0  0  0  0  0  0  0  0  0  0
  -20.5795   -3.8746  -24.7816 F   0  0  0  0  0  0  0  0  0  0  0  0
  -22.3420   -3.8314  -23.4494 F   0  0  0  0  0  0  0  0  0  0  0  0
  -25.2255  -12.4459  -20.9842 N   0  0  0  0  0  0  0  0  0  0  0  0
  -27.0623  -11.5115  -19.9457 N   0  0  0  0  0  0  0  0  0  0  0  0
  -24.9808  -10.9467  -19.1732 N   0  0  0  0  0  0  0  0  0  0  0  0
  -22.8976  -10.3920  -18.3994 N   0  0  0  0  0  0  0  0  0  0  0  0
  -22.1497  -10.5924  -23.9892 O   0  0  0  0  0  0  0  0  0  0  0  0
  -22.8469   -5.6097  -27.2201 O   0  0  0  0  0  0  0  0  0  0  0  0
  -20.8666   -6.5879  -26.7797 O   0  0  0  0  0  0  0  0  0  0  0  0
  -23.5037  -14.9222  -20.5345 H   0  0  0  0  0  0  0  0  0  0  0  0
  -24.4422  -15.3773  -21.9970 H   0  0  0  0  0  0  0  0  0  0  0  0
  -22.6519  -15.5240  -21.9970 H   0  0  0  0  0  0  0  0  0  0  0  0
  -22.3356  -13.2487  -22.3924 H   0  0  0  0  0  0  0  0  0  0  0  0
  -23.9722  -13.3510  -23.0832 H   0  0  0  0  0  0  0  0  0  0  0  0
  -21.5289  -10.0046  -20.8153 H   0  0  0  0  0  0  0  0  0  0  0  0
  -20.0046  -10.7218  -20.2877 H   0  0  0  0  0  0  0  0  0  0  0  0
  -20.1273  -10.4716  -22.7963 H   0  0  0  0  0  0  0  0  0  0  0  0
  -19.9947  -12.2050  -22.2937 H   0  0  0  0  0  0  0  0  0  0  0  0
  -21.8134  -12.5965  -23.5822 H   0  0  0  0  0  0  0  0  0  0  0  0
  -22.7696  -11.7229  -22.3570 H   0  0  0  0  0  0  0  0  0  0  0  0
  -24.5451  -11.0151  -22.7865 H   0  0  0  0  0  0  0  0  0  0  0  0
  -26.2434   -9.2264  -22.4718 H   0  0  0  0  0  0  0  0  0  0  0  0
  -25.8483   -6.9351  -23.3193 H   0  0  0  0  0  0  0  0  0  0  0  0
  -24.1897   -5.8678  -25.5123 H   0  0  0  0  0  0  0  0  0  0  0  0
  -23.8331   -5.3271  -23.7739 H   0  0  0  0  0  0  0  0  0  0  0  0
  -21.4076   -6.2545  -24.3664 H   0  0  0  0  0  0  0  0  0  0  0  0
  -22.5027   -3.6752  -25.4967 H   0  0  0  0  0  0  0  0  0  0  0  0
  -21.9684   -8.1707  -24.7187 H   0  0  0  0  0  0  0  0  0  0  0  0
  -27.4728  -10.8989  -19.2266 H   0  0  0  0  0  0  0  0  0  0  0  0
  -27.6747  -12.0256  -20.5950 H   0  0  0  0  0  0  0  0  0  0  0  0
  -23.3402   -9.7877  -17.6924 H   0  0  0  0  0  0  0  0  0  0  0  0
  -21.8714  -10.4698  -18.4409 H   0  0  0  0  0  0  0  0  0  0  0  0
  1  2  1  0
  1  5  2  0
  1  7  1  0
  2  8  1  0
  3  4  1  0
  4  5  1  0
  5 23  1  0
  6 23  2  0
  6 24  1  0
  6 25  1  0
  7 25  2  0
  7 26  1  0
  8  9  1  0
  9 10  1  0
 10 27  1  0
 11 12  2  0
 11 20  1  0
 11 27  1  0
 12 13  1  0
 13 14  2  0
 14 15  1  0
 15 16  1  0
 15 20  2  0
 17 16  1  0
 17 18  1  0
 17 19  1  0
 18 21  1  0
 18 22  1  0
 19 28  2  0
 19 29  1  0
  3 30  1  0
  3 31  1  0
  3 32  1  0
  4 33  1  0
  4 34  1  0
  8 35  1  0
  8 36  1  0
  9 37  1  0
  9 38  1  0
 10 39  1  0
 10 40  1  0
 12 41  1  0
 13 42  1  0
 14 43  1  0
 16 44  1  0
 16 45  1  0
 17 46  1  1
 18 47  1  6
 20 48  1  0
 24 49  1  0
 24 50  1  0
 26 51  1  0
 26 52  1  0
M  CHG  1  29  -1
M  END
>  <filename_input>  (17) 
7KM8_WPD_docked.sdf

>  <pdb_id>  (17) 
7KM8_WPD

>  <pose_rank>  (17) 
16

>  <num_atoms_heavy>  (17) 
29

>  <num_torsions>  (17) 
11

>  <pose>  (17) 
[-22.14968887183718, -10.59240042046492, -23.989240880011153, -0.17390925232225152, 0.1379666979327505, 0.48234230129917993, -19.546532125192154, 44.984424769303175, 5.774675056144781, -0.18595670962406272, -6.822363199945349, -17.492012571136556, 0.896077393087824, 18.446162301238967, -5.1687941001678075, 6.316024965617441, 3.4007645036343463]

>  <energy>  (17) 
-570.1878108751985

>  <inter_energy>  (17) 
-674.5540909403403

>  <intra_energy>  (17) 
112.41829836208531

>  <rmsd>  (17) 
4.26589

>  <sdf_rank>  (17) 
0

$$$$

     RDKit          3D

 52 53  0  0  0  0  0  0  0  0999 V2000
  -23.2125   -9.8828  -16.9175 C   0  0  0  0  0  0  0  0  0  0  0  0
  -23.1744  -10.6239  -18.0985 O   0  0  0  0  0  0  0  0  0  0  0  0
  -26.7726   -8.9858  -16.2020 C   0  0  0  0  0  0  0  0  0  0  0  0
  -25.6644   -9.4403  -17.1813 C   0  0  0  0  0  0  0  0  0  0  0  0
  -24.3570   -9.3340  -16.4501 C   0  0  0  0  0  0  0  0  0  0  0  0
  -23.2389   -8.5196  -14.6133 C   0  0  0  0  0  0  0  0  0  0  0  0
  -22.0397   -9.7063  -16.1418 C   0  0  0  0  0  0  0  0  0  0  0  0
  -23.1455   -9.8608  -19.3455 C   0  0  0  0  0  0  0  0  0  0  0  0
  -22.1989  -10.6258  -20.2574 C   0  0  0  0  0  0  0  0  0  0  0  0
  -22.9615  -11.3368  -21.3779 C   0  0  0  0  0  0  0  0  0  0  0  0
  -23.7009   -9.6001  -22.8850 C   0  0  0  0  0  0  0  0  0  0  0  0
  -25.0654   -9.7385  -22.7381 C   0  0  0  0  0  0  0  0  0  0  0  0
  -25.8903   -8.6816  -23.1016 C   0  0  0  0  0  0  0  0  0  0  0  0
  -25.3737   -7.5110  -23.6227 C   0  0  0  0  0  0  0  0  0  0  0  0
  -23.9890   -7.3755  -23.7671 C   0  0  0  0  0  0  0  0  0  0  0  0
  -23.3770   -6.1060  -24.3462 C   0  0  0  0  0  0  0  0  0  0  0  0
  -22.0234   -6.2477  -25.0696 C   0  0  2  0  0  0  0  0  0  0  0  0
  -21.0811   -5.2360  -24.4668 C   0  0  2  0  0  0  0  0  0  0  0  0
  -22.2535   -5.9241  -26.5866 C   0  0  0  0  0  0  0  0  0  0  0  0
  -23.1745   -8.4270  -23.3961 C   0  0  0  0  0  0  0  0  0  0  0  0
  -20.9054   -5.4790  -23.1185 F   0  0  0  0  0  0  0  0  0  0  0  0
  -21.5963   -3.9479  -24.5542 F   0  0  0  0  0  0  0  0  0  0  0  0
  -24.3818   -8.6459  -15.2926 N   0  0  0  0  0  0  0  0  0  0  0  0
  -23.2631   -7.8253  -13.4485 N   0  0  0  0  0  0  0  0  0  0  0  0
  -22.0671   -9.0203  -14.9944 N   0  0  0  0  0  0  0  0  0  0  0  0
  -20.8779  -10.2232  -16.5388 N   0  0  0  0  0  0  0  0  0  0  0  0
  -22.7908  -10.5750  -22.5652 O   0  0  0  0  0  0  0  0  0  0  0  0
  -23.4415   -5.9772  -26.9470 O   0  0  0  0  0  0  0  0  0  0  0  0
  -21.2326   -5.6534  -27.2438 O   0  0  0  0  0  0  0  0  0  0  0  0
  -26.4279   -9.1272  -15.1670 H   0  0  0  0  0  0  0  0  0  0  0  0
  -26.9980   -7.9225  -16.3714 H   0  0  0  0  0  0  0  0  0  0  0  0
  -27.6797   -9.5844  -16.3714 H   0  0  0  0  0  0  0  0  0  0  0  0
  -25.8393  -10.4810  -17.4919 H   0  0  0  0  0  0  0  0  0  0  0  0
  -25.6595   -8.8130  -18.0848 H   0  0  0  0  0  0  0  0  0  0  0  0
  -24.1506   -9.8081  -19.7892 H   0  0  0  0  0  0  0  0  0  0  0  0
  -22.8152   -8.8237  -19.1860 H   0  0  0  0  0  0  0  0  0  0  0  0
  -21.4821   -9.9204  -20.7031 H   0  0  0  0  0  0  0  0  0  0  0  0
  -21.6752  -11.3845  -19.6573 H   0  0  0  0  0  0  0  0  0  0  0  0
  -22.5584  -12.3502  -21.5213 H   0  0  0  0  0  0  0  0  0  0  0  0
  -24.0284  -11.4228  -21.1244 H   0  0  0  0  0  0  0  0  0  0  0  0
  -25.4932  -10.6703  -22.3397 H   0  0  0  0  0  0  0  0  0  0  0  0
  -26.9783   -8.7788  -22.9718 H   0  0  0  0  0  0  0  0  0  0  0  0
  -26.0454   -6.6927  -23.9213 H   0  0  0  0  0  0  0  0  0  0  0  0
  -24.0963   -5.6899  -25.0669 H   0  0  0  0  0  0  0  0  0  0  0  0
  -23.1695   -5.4665  -23.4755 H   0  0  0  0  0  0  0  0  0  0  0  0
  -21.6054   -7.2600  -24.9669 H   0  0  0  0  0  0  0  0  0  0  0  0
  -20.1373   -5.3230  -25.0251 H   0  0  0  0  0  0  0  0  0  0  0  0
  -22.0846   -8.3300  -23.5093 H   0  0  0  0  0  0  0  0  0  0  0  0
  -22.3990   -7.7092  -12.9001 H   0  0  0  0  0  0  0  0  0  0  0  0
  -24.1456   -7.4141  -13.1123 H   0  0  0  0  0  0  0  0  0  0  0  0
  -20.0320  -10.0884  -15.9667 H   0  0  0  0  0  0  0  0  0  0  0  0
  -20.8254  -10.7576  -17.4177 H   0  0  0  0  0  0  0  0  0  0  0  0
  1  2  1  0
  1  5  2  0
  1  7  1  0
  2  8  1  0
  3  4  1  0
  4  5  1  0
  5 23  1  0
  6 23  2  0
  6 24  1  0
  6 25  1  0
  7 25  2  0
  7 26  1  0
  8  9  1  0
  9 10  1  0
 10 27  1  0
 11 12  2  0
 11 20  1  0
 11 27  1  0
 12 13  1  0
 13 14  2  0
 14 15  1  0
 15 16  1  0
 15 20  2  0
 17 16  1  0
 17 18  1  0
 17 19  1  0
 18 21  1  0
 18 22  1  0
 19 28  2  0
 19 29  1  0
  3 30  1  0
  3 31  1  0
  3 32  1  0
  4 33  1  0
  4 34  1  0
  8 35  1  0
  8 36  1  0
  9 37  1  0
  9 38  1  0
 10 39  1  0
 10 40  1  0
 12 41  1  0
 13 42  1  0
 14 43  1  0
 16 44  1  0
 16 45  1  0
 17 46  1  6
 18 47  1  6
 20 48  1  0
 24 49  1  0
 24 50  1  0
 26 51  1  0
 26 52  1  0
M  CHG  1  29  -1
M  END
>  <filename_input>  (18) 
7KM8_WPD_docked.sdf

>  <pdb_id>  (18) 
7KM8_WPD

>  <pose_rank>  (18) 
17

>  <num_atoms_heavy>  (18) 
29

>  <num_torsions>  (18) 
11

>  <pose>  (18) 
[-22.790788611862947, -10.57496525195598, -22.56519083132397, 4.6030769840756225, 0.7621558610692625, -3.2269300289876557, -0.8358950580048481, -4.545100449703664, -0.13629953511142454, -2.0686655253495307, -1.6111169103718093, 1.633954030622187, 0.7783776433763494, 0.5028117767792323, -0.9646868732000746, -0.44445104380585454, -1.7039163982889263]

>  <energy>  (18) 
-647.8935641787402

>  <inter_energy>  (18) 
-636.2835702054746

>  <intra_energy>  (18) 
7.807862772571144

>  <rmsd>  (18) 
5.38342

>  <sdf_rank>  (18) 
0

$$$$

     RDKit          3D

 52 53  0  0  0  0  0  0  0  0999 V2000
  -23.8929   -7.4403  -24.0114 C   0  0  0  0  0  0  0  0  0  0  0  0
  -24.9043   -7.8793  -23.1571 O   0  0  0  0  0  0  0  0  0  0  0  0
  -22.6789   -4.4077  -22.4136 C   0  0  0  0  0  0  0  0  0  0  0  0
  -23.9076   -5.1556  -22.9831 C   0  0  0  0  0  0  0  0  0  0  0  0
  -23.3913   -6.1858  -23.9461 C   0  0  0  0  0  0  0  0  0  0  0  0
  -21.9105   -6.6694  -25.6374 C   0  0  0  0  0  0  0  0  0  0  0  0
  -23.3289   -8.3198  -24.9688 C   0  0  0  0  0  0  0  0  0  0  0  0
  -24.4753   -8.4803  -21.8950 C   0  0  0  0  0  0  0  0  0  0  0  0
  -25.0291   -9.8965  -21.9209 C   0  0  0  0  0  0  0  0  0  0  0  0
  -24.3326  -10.7835  -20.8862 C   0  0  0  0  0  0  0  0  0  0  0  0
  -22.0950  -11.0177  -20.0073 C   0  0  0  0  0  0  0  0  0  0  0  0
  -22.3277  -10.8971  -18.6531 C   0  0  0  0  0  0  0  0  0  0  0  0
  -21.3989  -11.4212  -17.7631 C   0  0  0  0  0  0  0  0  0  0  0  0
  -20.2450  -12.0383  -18.2066 C   0  0  0  0  0  0  0  0  0  0  0  0
  -20.0156  -12.1597  -19.5810 C   0  0  0  0  0  0  0  0  0  0  0  0
  -18.7523  -12.8241  -20.1140 C   0  0  0  0  0  0  0  0  0  0  0  0
  -18.2317  -12.3430  -21.4827 C   0  0  2  0  0  0  0  0  0  0  0  0
  -18.6542  -13.3628  -22.5104 C   0  0  2  0  0  0  0  0  0  0  0  0
  -16.6667  -12.2803  -21.4061 C   0  0  0  0  0  0  0  0  0  0  0  0
  -20.9471  -11.6437  -20.4601 C   0  0  0  0  0  0  0  0  0  0  0  0
  -19.9642  -13.1516  -22.8942 F   0  0  0  0  0  0  0  0  0  0  0  0
  -18.6161  -14.6518  -21.9914 F   0  0  0  0  0  0  0  0  0  0  0  0
  -22.3944   -5.7872  -24.7593 N   0  0  0  0  0  0  0  0  0  0  0  0
  -20.9079   -6.2678  -26.4577 N   0  0  0  0  0  0  0  0  0  0  0  0
  -22.3411   -7.9201  -25.7766 N   0  0  0  0  0  0  0  0  0  0  0  0
  -23.7705   -9.5711  -25.0858 N   0  0  0  0  0  0  0  0  0  0  0  0
  -22.9363  -10.5361  -20.9775 O   0  0  0  0  0  0  0  0  0  0  0  0
  -16.0891  -13.2419  -21.9407 O   0  0  0  0  0  0  0  0  0  0  0  0
  -16.1918  -11.2866  -20.8279 O   0  0  0  0  0  0  0  0  0  0  0  0
  -22.7138   -4.4289  -21.3144 H   0  0  0  0  0  0  0  0  0  0  0  0
  -21.7576   -4.8984  -22.7608 H   0  0  0  0  0  0  0  0  0  0  0  0
  -22.6916   -3.3640  -22.7608 H   0  0  0  0  0  0  0  0  0  0  0  0
  -24.4621   -5.6449  -22.1688 H   0  0  0  0  0  0  0  0  0  0  0  0
  -24.5917   -4.4570  -23.4872 H   0  0  0  0  0  0  0  0  0  0  0  0
  -23.3775   -8.4962  -21.8285 H   0  0  0  0  0  0  0  0  0  0  0  0
  -24.8369   -7.9127  -21.0248 H   0  0  0  0  0  0  0  0  0  0  0  0
  -26.1060   -9.8646  -21.6991 H   0  0  0  0  0  0  0  0  0  0  0  0
  -24.8505  -10.3214  -22.9197 H   0  0  0  0  0  0  0  0  0  0  0  0
  -24.6923  -10.5353  -19.8767 H   0  0  0  0  0  0  0  0  0  0  0  0
  -24.5500  -11.8446  -21.0785 H   0  0  0  0  0  0  0  0  0  0  0  0
  -23.2338  -10.3943  -18.2841 H   0  0  0  0  0  0  0  0  0  0  0  0
  -21.5860  -11.3432  -16.6819 H   0  0  0  0  0  0  0  0  0  0  0  0
  -19.5132  -12.4307  -17.4851 H   0  0  0  0  0  0  0  0  0  0  0  0
  -17.9530  -12.6558  -19.3773 H   0  0  0  0  0  0  0  0  0  0  0  0
  -19.0274  -13.8780  -20.2679 H   0  0  0  0  0  0  0  0  0  0  0  0
  -18.6287  -11.3524  -21.7494 H   0  0  0  0  0  0  0  0  0  0  0  0
  -17.9576  -13.2560  -23.3550 H   0  0  0  0  0  0  0  0  0  0  0  0
  -20.7730  -11.7321  -21.5426 H   0  0  0  0  0  0  0  0  0  0  0  0
  -20.5120   -6.9235  -27.1464 H   0  0  0  0  0  0  0  0  0  0  0  0
  -20.5422   -5.3071  -26.3920 H   0  0  0  0  0  0  0  0  0  0  0  0
  -23.3528  -10.2013  -25.7852 H   0  0  0  0  0  0  0  0  0  0  0  0
  -24.5296   -9.9084  -24.4768 H   0  0  0  0  0  0  0  0  0  0  0  0
  1  2  1  0
  1  5  2  0
  1  7  1  0
  2  8  1  0
  3  4  1  0
  4  5  1  0
  5 23  1  0
  6 23  2  0
  6 24  1  0
  6 25  1  0
  7 25  2  0
  7 26  1  0
  8  9  1  0
  9 10  1  0
 10 27  1  0
 11 12  2  0
 11 20  1  0
 11 27  1  0
 12 13  1  0
 13 14  2  0
 14 15  1  0
 15 16  1  0
 15 20  2  0
 17 16  1  0
 17 18  1  0
 17 19  1  0
 18 21  1  0
 18 22  1  0
 19 28  2  0
 19 29  1  0
  3 30  1  0
  3 31  1  0
  3 32  1  0
  4 33  1  0
  4 34  1  0
  8 35  1  0
  8 36  1  0
  9 37  1  0
  9 38  1  0
 10 39  1  0
 10 40  1  0
 12 41  1  0
 13 42  1  0
 14 43  1  0
 16 44  1  0
 16 45  1  0
 17 46  1  6
 18 47  1  6
 20 48  1  0
 24 49  1  0
 24 50  1  0
 26 51  1  0
 26 52  1  0
M  CHG  1  29  -1
M  END
>  <filename_input>  (19) 
7KM8_WPD_docked.sdf

>  <pdb_id>  (19) 
7KM8_WPD

>  <pose_rank>  (19) 
18

>  <num_atoms_heavy>  (19) 
29

>  <num_torsions>  (19) 
11

>  <pose>  (19) 
[-22.93630814802951, -10.536084232296174, -20.977488643499854, -3.034635089422495, -1.3461972982151098, 2.7158199068818747, -0.9317849501974498, 1.760271386528305, 0.32966436445532693, -1.7066182913818997, 0.4696564348440009, -6.396735392646989, -1.7999397390029408, 1.4643318563085883, -5.525008563443346, -3.39659846632828, -2.20916048537643]

>  <energy>  (19) 
-540.2087247252801

>  <inter_energy>  (19) 
-529.2841357033839

>  <intra_energy>  (19) 
15.50702485508187

>  <rmsd>  (19) 
7.72297

>  <sdf_rank>  (19) 
0

$$$$

     RDKit          3D

 52 53  0  0  0  0  0  0  0  0999 V2000
  -23.9922   -8.8699  -24.3183 C   0  0  0  0  0  0  0  0  0  0  0  0
  -25.2838   -9.1824  -24.7420 O   0  0  0  0  0  0  0  0  0  0  0  0
  -23.7206   -5.1596  -23.9816 C   0  0  0  0  0  0  0  0  0  0  0  0
  -24.5756   -6.4461  -24.0688 C   0  0  0  0  0  0  0  0  0  0  0  0
  -23.6323   -7.6111  -23.9782 C   0  0  0  0  0  0  0  0  0  0  0  0
  -21.5143   -8.3375  -23.4549 C   0  0  0  0  0  0  0  0  0  0  0  0
  -23.0099   -9.8843  -24.1988 C   0  0  0  0  0  0  0  0  0  0  0  0
  -26.1442   -9.8531  -23.7684 C   0  0  0  0  0  0  0  0  0  0  0  0
  -25.5862   -9.4614  -22.4090 C   0  0  0  0  0  0  0  0  0  0  0  0
  -25.0550  -10.6825  -21.6545 C   0  0  0  0  0  0  0  0  0  0  0  0
  -23.3786  -10.6593  -19.9156 C   0  0  0  0  0  0  0  0  0  0  0  0
  -22.9788  -10.5531  -18.5997 C   0  0  0  0  0  0  0  0  0  0  0  0
  -21.7169  -11.0110  -18.2425 C   0  0  0  0  0  0  0  0  0  0  0  0
  -20.8541  -11.5481  -19.1784 C   0  0  0  0  0  0  0  0  0  0  0  0
  -21.2660  -11.6554  -20.5108 C   0  0  0  0  0  0  0  0  0  0  0  0
  -20.3435  -12.2323  -21.5774 C   0  0  0  0  0  0  0  0  0  0  0  0
  -19.3990  -13.3712  -21.1453 C   0  0  2  0  0  0  0  0  0  0  0  0
  -18.0571  -12.7538  -20.8404 C   0  0  2  0  0  0  0  0  0  0  0  0
  -19.2662  -14.3675  -22.3489 C   0  0  0  0  0  0  0  0  0  0  0  0
  -22.5247  -11.2057  -20.8572 C   0  0  0  0  0  0  0  0  0  0  0  0
  -17.3379  -12.5562  -22.0031 F   0  0  0  0  0  0  0  0  0  0  0  0
  -17.2787  -13.5950  -20.0537 F   0  0  0  0  0  0  0  0  0  0  0  0
  -22.3887   -7.3318  -23.5431 N   0  0  0  0  0  0  0  0  0  0  0  0
  -20.2614   -8.0564  -23.0185 N   0  0  0  0  0  0  0  0  0  0  0  0
  -21.7753   -9.6034  -23.7691 N   0  0  0  0  0  0  0  0  0  0  0  0
  -23.2954  -11.1473  -24.5118 N   0  0  0  0  0  0  0  0  0  0  0  0
  -24.5964  -10.2379  -20.3851 O   0  0  0  0  0  0  0  0  0  0  0  0
  -18.9889  -15.5334  -22.0202 O   0  0  0  0  0  0  0  0  0  0  0  0
  -19.4533  -13.8809  -23.4783 O   0  0  0  0  0  0  0  0  0  0  0  0
  -23.5504   -4.9033  -22.9255 H   0  0  0  0  0  0  0  0  0  0  0  0
  -22.7538   -5.3275  -24.4787 H   0  0  0  0  0  0  0  0  0  0  0  0
  -24.2499   -4.3332  -24.4787 H   0  0  0  0  0  0  0  0  0  0  0  0
  -25.2951   -6.4778  -23.2374 H   0  0  0  0  0  0  0  0  0  0  0  0
  -25.1438   -6.4751  -25.0102 H   0  0  0  0  0  0  0  0  0  0  0  0
  -27.1843   -9.5107  -23.8720 H   0  0  0  0  0  0  0  0  0  0  0  0
  -26.1544  -10.9439  -23.9105 H   0  0  0  0  0  0  0  0  0  0  0  0
  -24.7654   -8.7431  -22.5517 H   0  0  0  0  0  0  0  0  0  0  0  0
  -26.3970   -9.0122  -21.8166 H   0  0  0  0  0  0  0  0  0  0  0  0
  -25.8588  -11.4221  -21.5248 H   0  0  0  0  0  0  0  0  0  0  0  0
  -24.2369  -11.1574  -22.2158 H   0  0  0  0  0  0  0  0  0  0  0  0
  -23.6481  -10.1131  -17.8457 H   0  0  0  0  0  0  0  0  0  0  0  0
  -21.3978  -10.9445  -17.1919 H   0  0  0  0  0  0  0  0  0  0  0  0
  -19.8520  -11.8883  -18.8783 H   0  0  0  0  0  0  0  0  0  0  0  0
  -20.9765  -12.6169  -22.3906 H   0  0  0  0  0  0  0  0  0  0  0  0
  -19.6790  -11.4022  -21.8592 H   0  0  0  0  0  0  0  0  0  0  0  0
  -19.7768  -13.9069  -20.2619 H   0  0  0  0  0  0  0  0  0  0  0  0
  -18.2645  -11.8066  -20.3210 H   0  0  0  0  0  0  0  0  0  0  0  0
  -22.8554  -11.2835  -21.9035 H   0  0  0  0  0  0  0  0  0  0  0  0
  -19.5628   -8.8091  -22.9389 H   0  0  0  0  0  0  0  0  0  0  0  0
  -20.0085   -7.0902  -22.7667 H   0  0  0  0  0  0  0  0  0  0  0  0
  -22.5733  -11.8762  -24.4210 H   0  0  0  0  0  0  0  0  0  0  0  0
  -24.2382  -11.3949  -24.8447 H   0  0  0  0  0  0  0  0  0  0  0  0
  1  2  1  0
  1  5  2  0
  1  7  1  0
  2  8  1  0
  3  4  1  0
  4  5  1  0
  5 23  1  0
  6 23  2  0
  6 24  1  0
  6 25  1  0
  7 25  2  0
  7 26  1  0
  8  9  1  0
  9 10  1  0
 10 27  1  0
 11 12  2  0
 11 20  1  0
 11 27  1  0
 12 13  1  0
 13 14  2  0
 14 15  1  0
 15 16  1  0
 15 20  2  0
 17 16  1  0
 17 18  1  0
 17 19  1  0
 18 21  1  0
 18 22  1  0
 19 28  2  0
 19 29  1  0
  3 30  1  0
  3 31  1  0
  3 32  1  0
  4 33  1  0
  4 34  1  0
  8 35  1  0
  8 36  1  0
  9 37  1  0
  9 38  1  0
 10 39  1  0
 10 40  1  0
 12 41  1  0
 13 42  1  0
 14 43  1  0
 16 44  1  0
 16 45  1  0
 17 46  1  1
 18 47  1  1
 20 48  1  0
 24 49  1  0
 24 50  1  0
 26 51  1  0
 26 52  1  0
M  CHG  1  29  -1
M  END
>  <filename_input>  (20) 
7KM8_WPD_docked.sdf

>  <pdb_id>  (20) 
7KM8_WPD

>  <pose_rank>  (20) 
19

>  <num_atoms_heavy>  (20) 
29

>  <num_torsions>  (20) 
11

>  <pose>  (20) 
[-24.596430522748555, -10.237918355599085, -20.385056735000035, -2.33609851789245, -2.5301308716513153, -0.8533335085279056, -9.261879304709419, -7.566484417898195, -5.883509647436194, 1.7260741014002405, -3.9832594889449187, -43.08603245883206, -16.68979888743595, -41.106194686646724, -40.701446137236715, -9.926421355826752, -1.2163209434822688]

>  <energy>  (20) 
-518.5933294683215

>  <inter_energy>  (20) 
-570.0484989142649

>  <intra_energy>  (20) 
58.534157602375885

>  <rmsd>  (20) 
7.01429

>  <sdf_rank>  (20) 
0

$$$$

     RDKit          3D

 52 53  0  0  0  0  0  0  0  0999 V2000
  -22.7050   -5.8274  -24.6436 C   0  0  0  0  0  0  0  0  0  0  0  0
  -22.6300   -6.5975  -23.4831 O   0  0  0  0  0  0  0  0  0  0  0  0
  -20.2889   -7.5766  -26.2694 C   0  0  0  0  0  0  0  0  0  0  0  0
  -21.8138   -7.7055  -26.0421 C   0  0  0  0  0  0  0  0  0  0  0  0
  -22.3521   -6.3162  -25.8544 C   0  0  0  0  0  0  0  0  0  0  0  0
  -22.9252   -4.3230  -26.8474 C   0  0  0  0  0  0  0  0  0  0  0  0
  -23.1913   -4.4973  -24.5931 C   0  0  0  0  0  0  0  0  0  0  0  0
  -23.8979   -6.9068  -22.8236 C   0  0  0  0  0  0  0  0  0  0  0  0
  -24.6275   -7.8358  -23.7815 C   0  0  0  0  0  0  0  0  0  0  0  0
  -25.5614   -8.7865  -23.0290 C   0  0  0  0  0  0  0  0  0  0  0  0
  -23.7705  -10.4022  -22.8998 C   0  0  0  0  0  0  0  0  0  0  0  0
  -22.7335  -10.3938  -23.8093 C   0  0  0  0  0  0  0  0  0  0  0  0
  -21.4547  -10.7154  -23.3724 C   0  0  0  0  0  0  0  0  0  0  0  0
  -21.2085  -11.0605  -22.0574 C   0  0  0  0  0  0  0  0  0  0  0  0
  -22.2635  -11.0649  -21.1391 C   0  0  0  0  0  0  0  0  0  0  0  0
  -22.0390  -11.4484  -19.6817 C   0  0  0  0  0  0  0  0  0  0  0  0
  -20.5778  -11.5646  -19.2050 C   0  0  2  0  0  0  0  0  0  0  0  0
  -19.9942  -12.8040  -19.8359 C   0  0  2  0  0  0  0  0  0  0  0  0
  -20.5926  -11.7175  -17.6445 C   0  0  0  0  0  0  0  0  0  0  0  0
  -23.5306  -10.7363  -21.5786 C   0  0  0  0  0  0  0  0  0  0  0  0
  -19.0583  -12.4665  -20.7942 F   0  0  0  0  0  0  0  0  0  0  0  0
  -20.9672  -13.5405  -20.5017 F   0  0  0  0  0  0  0  0  0  0  0  0
  -22.4584   -5.5683  -26.9695 N   0  0  0  0  0  0  0  0  0  0  0  0
  -23.0306   -3.5689  -27.9697 N   0  0  0  0  0  0  0  0  0  0  0  0
  -23.2931   -3.7564  -25.7016 N   0  0  0  0  0  0  0  0  0  0  0  0
  -23.5615   -3.9523  -23.4354 N   0  0  0  0  0  0  0  0  0  0  0  0
  -25.0721  -10.1075  -23.2157 O   0  0  0  0  0  0  0  0  0  0  0  0
  -20.4916  -10.6456  -17.0240 O   0  0  0  0  0  0  0  0  0  0  0  0
  -20.7042  -12.8795  -17.2149 O   0  0  0  0  0  0  0  0  0  0  0  0
  -19.7756   -7.5332  -25.2974 H   0  0  0  0  0  0  0  0  0  0  0  0
  -19.9278   -8.4474  -26.8362 H   0  0  0  0  0  0  0  0  0  0  0  0
  -20.0791   -6.6575  -26.8362 H   0  0  0  0  0  0  0  0  0  0  0  0
  -22.2866   -8.1785  -26.9154 H   0  0  0  0  0  0  0  0  0  0  0  0
  -22.0266   -8.3297  -25.1617 H   0  0  0  0  0  0  0  0  0  0  0  0
  -23.7199   -7.4076  -21.8606 H   0  0  0  0  0  0  0  0  0  0  0  0
  -24.4807   -5.9997  -22.6057 H   0  0  0  0  0  0  0  0  0  0  0  0
  -25.2206   -7.2323  -24.4844 H   0  0  0  0  0  0  0  0  0  0  0  0
  -23.8800   -8.4367  -24.3203 H   0  0  0  0  0  0  0  0  0  0  0  0
  -25.5671   -8.5367  -21.9577 H   0  0  0  0  0  0  0  0  0  0  0  0
  -26.5899   -8.6985  -23.4090 H   0  0  0  0  0  0  0  0  0  0  0  0
  -22.9162  -10.1368  -24.8632 H   0  0  0  0  0  0  0  0  0  0  0  0
  -20.6202  -10.6948  -24.0887 H   0  0  0  0  0  0  0  0  0  0  0  0
  -20.1916  -11.3295  -21.7355 H   0  0  0  0  0  0  0  0  0  0  0  0
  -22.5316  -10.6873  -19.0588 H   0  0  0  0  0  0  0  0  0  0  0  0
  -22.4515  -12.4637  -19.5871 H   0  0  0  0  0  0  0  0  0  0  0  0
  -19.9820  -10.6832  -19.4844 H   0  0  0  0  0  0  0  0  0  0  0  0
  -19.5492  -13.3869  -19.0160 H   0  0  0  0  0  0  0  0  0  0  0  0
  -24.3667  -10.7403  -20.8638 H   0  0  0  0  0  0  0  0  0  0  0  0
  -23.3870   -2.6043  -27.9104 H   0  0  0  0  0  0  0  0  0  0  0  0
  -22.7544   -3.9608  -28.8813 H   0  0  0  0  0  0  0  0  0  0  0  0
  -23.9135   -2.9846  -23.4110 H   0  0  0  0  0  0  0  0  0  0  0  0
  -23.4958   -4.4985  -22.5646 H   0  0  0  0  0  0  0  0  0  0  0  0
  1  2  1  0
  1  5  2  0
  1  7  1  0
  2  8  1  0
  3  4  1  0
  4  5  1  0
  5 23  1  0
  6 23  2  0
  6 24  1  0
  6 25  1  0
  7 25  2  0
  7 26  1  0
  8  9  1  0
  9 10  1  0
 10 27  1  0
 11 12  2  0
 11 20  1  0
 11 27  1  0
 12 13  1  0
 13 14  2  0
 14 15  1  0
 15 16  1  0
 15 20  2  0
 17 16  1  0
 17 18  1  0
 17 19  1  0
 18 21  1  0
 18 22  1  0
 19 28  2  0
 19 29  1  0
  3 30  1  0
  3 31  1  0
  3 32  1  0
  4 33  1  0
  4 34  1  0
  8 35  1  0
  8 36  1  0
  9 37  1  0
  9 38  1  0
 10 39  1  0
 10 40  1  0
 12 41  1  0
 13 42  1  0
 14 43  1  0
 16 44  1  0
 16 45  1  0
 17 46  1  1
 18 47  1  1
 20 48  1  0
 24 49  1  0
 24 50  1  0
 26 51  1  0
 26 52  1  0
M  CHG  1  29  -1
M  END
>  <filename_input>  (21) 
7KM8_WPD_docked.sdf

>  <pdb_id>  (21) 
7KM8_WPD

>  <pose_rank>  (21) 
20

>  <num_atoms_heavy>  (21) 
29

>  <num_torsions>  (21) 
11

>  <pose>  (21) 
[-25.072135242091687, -10.107537522973372, -23.215721506059943, -0.4087129214100261, -0.5018503535643366, -2.2489250904458156, -1.770656231888675, 4.592415655261424, 0.8511066699185617, -1.21189953828219, -2.917148932831733, -2.1051344498531015, 9.543533805321692, 7.538988264173729, -2.2526221043238395, 2.4478123129321565, -0.16310427055340898]

>  <energy>  (21) 
-534.8260261177702

>  <inter_energy>  (21) 
-584.7995135758423

>  <intra_energy>  (21) 
73.14048639131207

>  <rmsd>  (21) 
8.43354

>  <sdf_rank>  (21) 
0

$$$$

     RDKit          3D

 52 53  0  0  0  0  0  0  0  0999 V2000
  -24.8513   -6.5260  -16.3600 C   0  0  0  0  0  0  0  0  0  0  0  0
  -25.2357   -7.2487  -17.4893 O   0  0  0  0  0  0  0  0  0  0  0  0
  -22.4875   -3.8680  -17.4511 C   0  0  0  0  0  0  0  0  0  0  0  0
  -23.6714   -4.8151  -17.7594 C   0  0  0  0  0  0  0  0  0  0  0  0
  -24.1397   -5.3790  -16.4487 C   0  0  0  0  0  0  0  0  0  0  0  0
  -24.1910   -5.1480  -14.1615 C   0  0  0  0  0  0  0  0  0  0  0  0
  -25.2280   -6.9620  -15.0653 C   0  0  0  0  0  0  0  0  0  0  0  0
  -24.2608   -8.2035  -18.0145 C   0  0  0  0  0  0  0  0  0  0  0  0
  -25.0421   -9.0758  -18.9849 C   0  0  0  0  0  0  0  0  0  0  0  0
  -24.1039   -9.9173  -19.8534 C   0  0  0  0  0  0  0  0  0  0  0  0
  -24.4158  -10.3352  -22.2119 C   0  0  0  0  0  0  0  0  0  0  0  0
  -24.1394  -11.4084  -23.0333 C   0  0  0  0  0  0  0  0  0  0  0  0
  -23.6768  -11.1667  -24.3206 C   0  0  0  0  0  0  0  0  0  0  0  0
  -23.4707   -9.8810  -24.7824 C   0  0  0  0  0  0  0  0  0  0  0  0
  -23.7550   -8.7966  -23.9457 C   0  0  0  0  0  0  0  0  0  0  0  0
  -23.5334   -7.3627  -24.4104 C   0  0  0  0  0  0  0  0  0  0  0  0
  -22.1140   -6.9904  -24.8821 C   0  0  2  0  0  0  0  0  0  0  0  0
  -21.5572   -5.9942  -23.8960 C   0  0  2  0  0  0  0  0  0  0  0  0
  -22.2368   -6.3273  -26.2977 C   0  0  0  0  0  0  0  0  0  0  0  0
  -24.2223   -9.0441  -22.6701 C   0  0  0  0  0  0  0  0  0  0  0  0
  -21.1746   -4.8343  -24.5410 F   0  0  0  0  0  0  0  0  0  0  0  0
  -20.4098   -6.4788  -23.2786 F   0  0  0  0  0  0  0  0  0  0  0  0
  -23.8018   -4.6780  -15.3495 N   0  0  0  0  0  0  0  0  0  0  0  0
  -23.8493   -4.4433  -13.0543 N   0  0  0  0  0  0  0  0  0  0  0  0
  -24.8886   -6.2651  -13.9758 N   0  0  0  0  0  0  0  0  0  0  0  0
  -25.9334   -8.0802  -14.9030 N   0  0  0  0  0  0  0  0  0  0  0  0
  -24.8715  -10.4510  -20.9236 O   0  0  0  0  0  0  0  0  0  0  0  0
  -21.2380   -6.4770  -27.0217 O   0  0  0  0  0  0  0  0  0  0  0  0
  -23.3074   -5.7375  -26.5288 O   0  0  0  0  0  0  0  0  0  0  0  0
  -22.3683   -3.7727  -16.3618 H   0  0  0  0  0  0  0  0  0  0  0  0
  -21.5652   -4.2804  -17.8862 H   0  0  0  0  0  0  0  0  0  0  0  0
  -22.6873   -2.8777  -17.8862 H   0  0  0  0  0  0  0  0  0  0  0  0
  -24.4863   -4.2555  -18.2419 H   0  0  0  0  0  0  0  0  0  0  0  0
  -23.3613   -5.6193  -18.4428 H   0  0  0  0  0  0  0  0  0  0  0  0
  -23.4480   -7.6775  -18.5368 H   0  0  0  0  0  0  0  0  0  0  0  0
  -23.7919   -8.7954  -17.2146 H   0  0  0  0  0  0  0  0  0  0  0  0
  -25.7001   -9.7471  -18.4136 H   0  0  0  0  0  0  0  0  0  0  0  0
  -25.6320   -8.4213  -19.6434 H   0  0  0  0  0  0  0  0  0  0  0  0
  -23.2945   -9.2870  -20.2505 H   0  0  0  0  0  0  0  0  0  0  0  0
  -23.6519  -10.7266  -19.2614 H   0  0  0  0  0  0  0  0  0  0  0  0
  -24.2830  -12.4384  -22.6749 H   0  0  0  0  0  0  0  0  0  0  0  0
  -23.4700  -12.0174  -24.9867 H   0  0  0  0  0  0  0  0  0  0  0  0
  -23.0865   -9.7115  -25.7991 H   0  0  0  0  0  0  0  0  0  0  0  0
  -24.2211   -7.1756  -25.2483 H   0  0  0  0  0  0  0  0  0  0  0  0
  -23.7091   -6.7434  -23.5185 H   0  0  0  0  0  0  0  0  0  0  0  0
  -21.4558   -7.8698  -24.9417 H   0  0  0  0  0  0  0  0  0  0  0  0
  -22.3542   -5.8102  -23.1605 H   0  0  0  0  0  0  0  0  0  0  0  0
  -24.4454   -8.1972  -22.0045 H   0  0  0  0  0  0  0  0  0  0  0  0
  -24.1337   -4.7781  -12.1226 H   0  0  0  0  0  0  0  0  0  0  0  0
  -23.3054   -3.5733  -13.1450 H   0  0  0  0  0  0  0  0  0  0  0  0
  -26.2016   -8.3872  -13.9571 H   0  0  0  0  0  0  0  0  0  0  0  0
  -26.2108   -8.6379  -15.7234 H   0  0  0  0  0  0  0  0  0  0  0  0
  1  2  1  0
  1  5  2  0
  1  7  1  0
  2  8  1  0
  3  4  1  0
  4  5  1  0
  5 23  1  0
  6 23  2  0
  6 24  1  0
  6 25  1  0
  7 25  2  0
  7 26  1  0
  8  9  1  0
  9 10  1  0
 10 27  1  0
 11 12  2  0
 11 20  1  0
 11 27  1  0
 12 13  1  0
 13 14  2  0
 14 15  1  0
 15 16  1  0
 15 20  2  0
 17 16  1  0
 17 18  1  0
 17 19  1  0
 18 21  1  0
 18 22  1  0
 19 28  2  0
 19 29  1  0
  3 30  1  0
  3 31  1  0
  3 32  1  0
  4 33  1  0
  4 34  1  0
  8 35  1  0
  8 36  1  0
  9 37  1  0
  9 38  1  0
 10 39  1  0
 10 40  1  0
 12 41  1  0
 13 42  1  0
 14 43  1  0
 16 44  1  0
 16 45  1  0
 17 46  1  6
 18 47  1  1
 20 48  1  0
 24 49  1  0
 24 50  1  0
 26 51  1  0
 26 52  1  0
M  CHG  1  29  -1
M  END
>  <filename_input>  (22) 
7KM8_WPD_docked.sdf

>  <pdb_id>  (22) 
7KM8_WPD

>  <pose_rank>  (22) 
21

>  <num_atoms_heavy>  (22) 
29

>  <num_torsions>  (22) 
11

>  <pose>  (22) 
[-24.871534758651766, -10.451036404995024, -20.923562899987893, 2.0654673760009077, -2.026569225155302, 2.680603762926052, 1.9724329181818336, 3.4031389958430935, 0.11350779916372628, 0.9943128827000571, 2.3368804804685026, 11.795224372873133, 52.627395625411, 32.95065164281096, -6.816660075224887, 5.944830137706228, -1.1114344601732349]

>  <energy>  (22) 
-557.5330207579417

>  <inter_energy>  (22) 
-557.4178323534054

>  <intra_energy>  (22) 
6.698674305083539

>  <rmsd>  (22) 
7.26172

>  <sdf_rank>  (22) 
0

$$$$

     RDKit          3D

 52 53  0  0  0  0  0  0  0  0999 V2000
  -22.9425   -5.4348  -23.5476 C   0  0  0  0  0  0  0  0  0  0  0  0
  -24.1342   -6.1378  -23.7239 O   0  0  0  0  0  0  0  0  0  0  0  0
  -20.6682   -6.8310  -26.0503 C   0  0  0  0  0  0  0  0  0  0  0  0
  -21.6613   -7.1119  -24.8978 C   0  0  0  0  0  0  0  0  0  0  0  0
  -21.7768   -5.8478  -24.0953 C   0  0  0  0  0  0  0  0  0  0  0  0
  -20.6963   -4.0139  -23.2256 C   0  0  0  0  0  0  0  0  0  0  0  0
  -22.9230   -4.2291  -22.8032 C   0  0  0  0  0  0  0  0  0  0  0  0
  -24.2017   -7.0244  -24.8847 C   0  0  0  0  0  0  0  0  0  0  0  0
  -24.7913   -8.3237  -24.3583 C   0  0  0  0  0  0  0  0  0  0  0  0
  -24.7540   -8.3705  -22.8289 C   0  0  0  0  0  0  0  0  0  0  0  0
  -23.9537  -10.1533  -21.4092 C   0  0  0  0  0  0  0  0  0  0  0  0
  -23.8105   -9.4728  -20.2180 C   0  0  0  0  0  0  0  0  0  0  0  0
  -22.9621   -9.9900  -19.2472 C   0  0  0  0  0  0  0  0  0  0  0  0
  -22.2491  -11.1541  -19.4600 C   0  0  0  0  0  0  0  0  0  0  0  0
  -22.4002  -11.8411  -20.6691 C   0  0  0  0  0  0  0  0  0  0  0  0
  -21.6262  -13.1231  -20.9497 C   0  0  0  0  0  0  0  0  0  0  0  0
  -20.7435  -13.1463  -22.2130 C   0  0  2  0  0  0  0  0  0  0  0  0
  -21.4803  -13.9378  -23.2644 C   0  0  2  0  0  0  0  0  0  0  0  0
  -19.4001  -13.8676  -21.8470 C   0  0  0  0  0  0  0  0  0  0  0  0
  -23.2514  -11.3255  -21.6263 C   0  0  0  0  0  0  0  0  0  0  0  0
  -21.8126  -13.1313  -24.3354 F   0  0  0  0  0  0  0  0  0  0  0  0
  -22.6845  -14.4318  -22.7762 F   0  0  0  0  0  0  0  0  0  0  0  0
  -20.6408   -5.1412  -23.9394 N   0  0  0  0  0  0  0  0  0  0  0  0
  -19.5522   -3.3030  -23.0669 N   0  0  0  0  0  0  0  0  0  0  0  0
  -21.7929   -3.5313  -22.6480 N   0  0  0  0  0  0  0  0  0  0  0  0
  -24.0350   -3.7600  -22.2395 N   0  0  0  0  0  0  0  0  0  0  0  0
  -24.7570   -9.7373  -22.4401 O   0  0  0  0  0  0  0  0  0  0  0  0
  -19.0400  -14.7271  -22.6690 O   0  0  0  0  0  0  0  0  0  0  0  0
  -18.8574  -13.4986  -20.7903 O   0  0  0  0  0  0  0  0  0  0  0  0
  -19.6894   -6.5542  -25.6316 H   0  0  0  0  0  0  0  0  0  0  0  0
  -20.5601   -7.7338  -26.6694 H   0  0  0  0  0  0  0  0  0  0  0  0
  -21.0490   -6.0054  -26.6694 H   0  0  0  0  0  0  0  0  0  0  0  0
  -22.6440   -7.3905  -25.3061 H   0  0  0  0  0  0  0  0  0  0  0  0
  -21.3071   -7.9428  -24.2700 H   0  0  0  0  0  0  0  0  0  0  0  0
  -24.8497   -6.5936  -25.6622 H   0  0  0  0  0  0  0  0  0  0  0  0
  -23.2141   -7.1768  -25.3444 H   0  0  0  0  0  0  0  0  0  0  0  0
  -25.8355   -8.4057  -24.6942 H   0  0  0  0  0  0  0  0  0  0  0  0
  -24.1914   -9.1601  -24.7465 H   0  0  0  0  0  0  0  0  0  0  0  0
  -23.8420   -7.8779  -22.4608 H   0  0  0  0  0  0  0  0  0  0  0  0
  -25.6237   -7.8467  -22.4054 H   0  0  0  0  0  0  0  0  0  0  0  0
  -24.3590   -8.5361  -20.0397 H   0  0  0  0  0  0  0  0  0  0  0  0
  -22.8557   -9.4613  -18.2885 H   0  0  0  0  0  0  0  0  0  0  0  0
  -21.5686  -11.5374  -18.6854 H   0  0  0  0  0  0  0  0  0  0  0  0
  -20.9730  -13.3122  -20.0851 H   0  0  0  0  0  0  0  0  0  0  0  0
  -22.3964  -13.8885  -21.1259 H   0  0  0  0  0  0  0  0  0  0  0  0
  -20.5297  -12.1333  -22.5848 H   0  0  0  0  0  0  0  0  0  0  0  0
  -20.8084  -14.7566  -23.5610 H   0  0  0  0  0  0  0  0  0  0  0  0
  -23.3737  -11.8578  -22.5812 H   0  0  0  0  0  0  0  0  0  0  0  0
  -19.5604   -2.4289  -22.5220 H   0  0  0  0  0  0  0  0  0  0  0  0
  -18.6752   -3.6372  -23.4912 H   0  0  0  0  0  0  0  0  0  0  0  0
  -24.0087   -2.8825  -21.7007 H   0  0  0  0  0  0  0  0  0  0  0  0
  -24.9212   -4.2747  -22.3424 H   0  0  0  0  0  0  0  0  0  0  0  0
  1  2  1  0
  1  5  2  0
  1  7  1  0
  2  8  1  0
  3  4  1  0
  4  5  1  0
  5 23  1  0
  6 23  2  0
  6 24  1  0
  6 25  1  0
  7 25  2  0
  7 26  1  0
  8  9  1  0
  9 10  1  0
 10 27  1  0
 11 12  2  0
 11 20  1  0
 11 27  1  0
 12 13  1  0
 13 14  2  0
 14 15  1  0
 15 16  1  0
 15 20  2  0
 17 16  1  0
 17 18  1  0
 17 19  1  0
 18 21  1  0
 18 22  1  0
 19 28  2  0
 19 29  1  0
  3 30  1  0
  3 31  1  0
  3 32  1  0
  4 33  1  0
  4 34  1  0
  8 35  1  0
  8 36  1  0
  9 37  1  0
  9 38  1  0
 10 39  1  0
 10 40  1  0
 12 41  1  0
 13 42  1  0
 14 43  1  0
 16 44  1  0
 16 45  1  0
 17 46  1  6
 18 47  1  6
 20 48  1  0
 24 49  1  0
 24 50  1  0
 26 51  1  0
 26 52  1  0
M  CHG  1  29  -1
M  END
>  <filename_input>  (23) 
7KM8_WPD_docked.sdf

>  <pdb_id>  (23) 
7KM8_WPD

>  <pose_rank>  (23) 
22

>  <num_atoms_heavy>  (23) 
29

>  <num_torsions>  (23) 
11

>  <pose>  (23) 
[-24.75698291136312, -9.737251968489923, -22.440079119058815, -0.011473341495718825, -1.1476895701557663, -2.5881328428387818, 6.93919117613065, 2.240618828586871, 0.30457607245696366, -1.1151637822154798, 1.022672042298924, -19.477018135413715, 27.688611565481985, 48.62911953127229, -1.0920221383181614, -14.78352730186051, -2.1332415125430737]

>  <energy>  (23) 
-548.6621853661053

>  <inter_energy>  (23) 
-586.5714244810943

>  <intra_energy>  (23) 
56.65493285274694

>  <rmsd>  (23) 
7.91551

>  <sdf_rank>  (23) 
0

$$$$

     RDKit          3D

 52 53  0  0  0  0  0  0  0  0999 V2000
  -21.5652   -6.7617  -24.2235 C   0  0  0  0  0  0  0  0  0  0  0  0
  -20.8913   -7.5496  -23.2904 O   0  0  0  0  0  0  0  0  0  0  0  0
  -21.5230   -3.5866  -22.6159 C   0  0  0  0  0  0  0  0  0  0  0  0
  -20.6085   -4.6581  -23.2556 C   0  0  0  0  0  0  0  0  0  0  0  0
  -21.4420   -5.4149  -24.2494 C   0  0  0  0  0  0  0  0  0  0  0  0
  -22.8361   -5.3035  -26.0746 C   0  0  0  0  0  0  0  0  0  0  0  0
  -22.3883   -7.3610  -25.2091 C   0  0  0  0  0  0  0  0  0  0  0  0
  -21.6235   -8.6976  -22.7575 C   0  0  0  0  0  0  0  0  0  0  0  0
  -20.6318   -9.4183  -21.8575 C   0  0  0  0  0  0  0  0  0  0  0  0
  -20.6612  -10.9296  -22.0975 C   0  0  0  0  0  0  0  0  0  0  0  0
  -22.7210  -12.0226  -22.7278 C   0  0  0  0  0  0  0  0  0  0  0  0
  -22.6865  -13.3954  -22.8576 C   0  0  0  0  0  0  0  0  0  0  0  0
  -23.8084  -14.1319  -22.4990 C   0  0  0  0  0  0  0  0  0  0  0  0
  -24.9564  -13.5170  -22.0375 C   0  0  0  0  0  0  0  0  0  0  0  0
  -24.9846  -12.1247  -21.9058 C   0  0  0  0  0  0  0  0  0  0  0  0
  -26.2324  -11.4046  -21.4102 C   0  0  0  0  0  0  0  0  0  0  0  0
  -26.0537   -9.9585  -20.9075 C   0  0  2  0  0  0  0  0  0  0  0  0
  -25.4042   -9.1714  -22.0182 C   0  0  2  0  0  0  0  0  0  0  0  0
  -25.1069   -9.9980  -19.6581 C   0  0  0  0  0  0  0  0  0  0  0  0
  -23.8630  -11.3996  -22.2564 C   0  0  0  0  0  0  0  0  0  0  0  0
  -24.0309   -9.3139  -21.9757 F   0  0  0  0  0  0  0  0  0  0  0  0
  -25.6466   -7.8093  -21.8834 F   0  0  0  0  0  0  0  0  0  0  0  0
  -22.0770   -4.6715  -25.1757 N   0  0  0  0  0  0  0  0  0  0  0  0
  -23.4771   -4.5551  -27.0064 N   0  0  0  0  0  0  0  0  0  0  0  0
  -23.0196   -6.6199  -26.1258 N   0  0  0  0  0  0  0  0  0  0  0  0
  -22.5519   -8.6825  -25.2466 N   0  0  0  0  0  0  0  0  0  0  0  0
  -21.6783  -11.1935  -23.0542 O   0  0  0  0  0  0  0  0  0  0  0  0
  -24.1644   -9.1894  -19.7042 O   0  0  0  0  0  0  0  0  0  0  0  0
  -25.4071  -10.8227  -18.7766 O   0  0  0  0  0  0  0  0  0  0  0  0
  -21.4613   -3.6588  -21.5200 H   0  0  0  0  0  0  0  0  0  0  0  0
  -21.1958   -2.5865  -22.9364 H   0  0  0  0  0  0  0  0  0  0  0  0
  -22.5621   -3.7526  -22.9364 H   0  0  0  0  0  0  0  0  0  0  0  0
  -19.7608   -4.1756  -23.7641 H   0  0  0  0  0  0  0  0  0  0  0  0
  -20.2033   -5.3348  -22.4889 H   0  0  0  0  0  0  0  0  0  0  0  0
  -22.4975   -8.3634  -22.1791 H   0  0  0  0  0  0  0  0  0  0  0  0
  -22.0039   -9.3506  -23.5569 H   0  0  0  0  0  0  0  0  0  0  0  0
  -19.6194   -9.0418  -22.0658 H   0  0  0  0  0  0  0  0  0  0  0  0
  -20.9097   -9.2270  -20.8105 H   0  0  0  0  0  0  0  0  0  0  0  0
  -19.6877  -11.2672  -22.4825 H   0  0  0  0  0  0  0  0  0  0  0  0
  -20.8655  -11.4656  -21.1590 H   0  0  0  0  0  0  0  0  0  0  0  0
  -21.7857  -13.8986  -23.2386 H   0  0  0  0  0  0  0  0  0  0  0  0
  -23.7823  -15.2283  -22.5843 H   0  0  0  0  0  0  0  0  0  0  0  0
  -25.8404  -14.1170  -21.7759 H   0  0  0  0  0  0  0  0  0  0  0  0
  -26.9532  -11.3803  -22.2407 H   0  0  0  0  0  0  0  0  0  0  0  0
  -26.5594  -11.9748  -20.5282 H   0  0  0  0  0  0  0  0  0  0  0  0
  -27.0130   -9.4973  -20.6299 H   0  0  0  0  0  0  0  0  0  0  0  0
  -25.8273   -9.5571  -22.9574 H   0  0  0  0  0  0  0  0  0  0  0  0
  -23.8777  -10.3040  -22.1589 H   0  0  0  0  0  0  0  0  0  0  0  0
  -24.0704   -5.0111  -27.7141 H   0  0  0  0  0  0  0  0  0  0  0  0
  -23.3706   -3.5306  -27.0064 H   0  0  0  0  0  0  0  0  0  0  0  0
  -23.1526   -9.1068  -25.9677 H   0  0  0  0  0  0  0  0  0  0  0  0
  -22.0776   -9.2799  -24.5544 H   0  0  0  0  0  0  0  0  0  0  0  0
  1  2  1  0
  1  5  2  0
  1  7  1  0
  2  8  1  0
  3  4  1  0
  4  5  1  0
  5 23  1  0
  6 23  2  0
  6 24  1  0
  6 25  1  0
  7 25  2  0
  7 26  1  0
  8  9  1  0
  9 10  1  0
 10 27  1  0
 11 12  2  0
 11 20  1  0
 11 27  1  0
 12 13  1  0
 13 14  2  0
 14 15  1  0
 15 16  1  0
 15 20  2  0
 17 16  1  0
 17 18  1  0
 17 19  1  0
 18 21  1  0
 18 22  1  0
 19 28  2  0
 19 29  1  0
  3 30  1  0
  3 31  1  0
  3 32  1  0
  4 33  1  0
  4 34  1  0
  8 35  1  0
  8 36  1  0
  9 37  1  0
  9 38  1  0
 10 39  1  0
 10 40  1  0
 12 41  1  0
 13 42  1  0
 14 43  1  0
 16 44  1  0
 16 45  1  0
 17 46  1  1
 18 47  1  6
 20 48  1  0
 24 49  1  0
 24 50  1  0
 26 51  1  0
 26 52  1  0
M  CHG  1  29  -1
M  END
>  <filename_input>  (24) 
7KM8_WPD_docked.sdf

>  <pdb_id>  (24) 
7KM8_WPD

>  <pose_rank>  (24) 
23

>  <num_atoms_heavy>  (24) 
29

>  <num_torsions>  (24) 
11

>  <pose>  (24) 
[-21.678333863776473, -11.19347819214365, -23.05418407096761, 0.9472929776851363, -0.2858001335903396, -4.204314902659746, 4.665061086673577, 0.9462909410688335, 21.91349019157709, 20.517958456683875, 0.9729318221112454, -24.0115086930984, -1.0701714211291316, 52.81595991920976, -25.49191973822882, -30.771339435684855, 5.748643916376094]

>  <energy>  (24) 
-396.2144596469964

>  <inter_energy>  (24) 
-568.8945013759765

>  <intra_energy>  (24) 
189.41408780045174

>  <rmsd>  (24) 
7.13446

>  <sdf_rank>  (24) 
0

$$$$

     RDKit          3D

 52 53  0  0  0  0  0  0  0  0999 V2000
  -22.6962   -6.1618  -25.5383 C   0  0  0  0  0  0  0  0  0  0  0  0
  -22.8047   -7.2263  -24.6434 O   0  0  0  0  0  0  0  0  0  0  0  0
  -20.6005   -4.0501  -23.6676 C   0  0  0  0  0  0  0  0  0  0  0  0
  -20.5726   -5.3745  -24.4668 C   0  0  0  0  0  0  0  0  0  0  0  0
  -21.6611   -5.2919  -25.4981 C   0  0  0  0  0  0  0  0  0  0  0  0
  -22.5078   -4.1710  -27.3186 C   0  0  0  0  0  0  0  0  0  0  0  0
  -23.6668   -5.9751  -26.5537 C   0  0  0  0  0  0  0  0  0  0  0  0
  -24.1190   -7.8587  -24.5400 C   0  0  0  0  0  0  0  0  0  0  0  0
  -23.8732   -9.1677  -23.8058 C   0  0  0  0  0  0  0  0  0  0  0  0
  -22.8559   -8.9879  -22.6765 C   0  0  0  0  0  0  0  0  0  0  0  0
  -24.5074  -10.0741  -21.2884 C   0  0  0  0  0  0  0  0  0  0  0  0
  -25.6539   -9.9219  -20.5366 C   0  0  0  0  0  0  0  0  0  0  0  0
  -26.5439  -10.9846  -20.4471 C   0  0  0  0  0  0  0  0  0  0  0  0
  -26.2933  -12.1889  -21.0762 C   0  0  0  0  0  0  0  0  0  0  0  0
  -25.1302  -12.3366  -21.8391 C   0  0  0  0  0  0  0  0  0  0  0  0
  -24.8094  -13.6499  -22.5417 C   0  0  0  0  0  0  0  0  0  0  0  0
  -23.3200  -14.0133  -22.7016 C   0  0  2  0  0  0  0  0  0  0  0  0
  -22.5180  -12.9596  -21.9794 C   0  0  2  0  0  0  0  0  0  0  0  0
  -22.9805  -13.9856  -24.2322 C   0  0  0  0  0  0  0  0  0  0  0  0
  -24.2539  -11.2733  -21.9304 C   0  0  0  0  0  0  0  0  0  0  0  0
  -21.9646  -12.0693  -22.8788 F   0  0  0  0  0  0  0  0  0  0  0  0
  -21.4459  -13.5193  -21.2941 F   0  0  0  0  0  0  0  0  0  0  0  0
  -21.5565   -4.2867  -26.3883 N   0  0  0  0  0  0  0  0  0  0  0  0
  -22.4037   -3.1578  -28.2140 N   0  0  0  0  0  0  0  0  0  0  0  0
  -23.5615   -4.9744  -27.4344 N   0  0  0  0  0  0  0  0  0  0  0  0
  -24.7105   -6.7965  -26.6560 N   0  0  0  0  0  0  0  0  0  0  0  0
  -23.5560   -9.0987  -21.4449 O   0  0  0  0  0  0  0  0  0  0  0  0
  -21.8529  -14.4247  -24.5146 O   0  0  0  0  0  0  0  0  0  0  0  0
  -23.8694  -13.5344  -24.9763 O   0  0  0  0  0  0  0  0  0  0  0  0
  -20.5959   -4.2718  -22.5902 H   0  0  0  0  0  0  0  0  0  0  0  0
  -19.7148   -3.4494  -23.9222 H   0  0  0  0  0  0  0  0  0  0  0  0
  -21.5107   -3.4873  -23.9222 H   0  0  0  0  0  0  0  0  0  0  0  0
  -19.5962   -5.4981  -24.9581 H   0  0  0  0  0  0  0  0  0  0  0  0
  -20.7288   -6.2363  -23.8013 H   0  0  0  0  0  0  0  0  0  0  0  0
  -24.8107   -7.2206  -23.9704 H   0  0  0  0  0  0  0  0  0  0  0  0
  -24.5771   -8.0200  -25.5270 H   0  0  0  0  0  0  0  0  0  0  0  0
  -24.8228   -9.5235  -23.3796 H   0  0  0  0  0  0  0  0  0  0  0  0
  -23.4711   -9.8985  -24.5229 H   0  0  0  0  0  0  0  0  0  0  0  0
  -22.0832   -9.7682  -22.7401 H   0  0  0  0  0  0  0  0  0  0  0  0
  -22.3629   -8.0075  -22.7535 H   0  0  0  0  0  0  0  0  0  0  0  0
  -25.8599   -8.9747  -20.0166 H   0  0  0  0  0  0  0  0  0  0  0  0
  -27.4682  -10.8648  -19.8629 H   0  0  0  0  0  0  0  0  0  0  0  0
  -27.0022  -13.0243  -20.9780 H   0  0  0  0  0  0  0  0  0  0  0  0
  -25.2884  -14.4579  -21.9693 H   0  0  0  0  0  0  0  0  0  0  0  0
  -25.1838  -13.5231  -23.5682 H   0  0  0  0  0  0  0  0  0  0  0  0
  -23.0923  -15.0079  -22.2904 H   0  0  0  0  0  0  0  0  0  0  0  0
  -23.2140  -12.4633  -21.2871 H   0  0  0  0  0  0  0  0  0  0  0  0
  -23.3353  -11.3819  -22.5257 H   0  0  0  0  0  0  0  0  0  0  0  0
  -23.1204   -3.0403  -28.9444 H   0  0  0  0  0  0  0  0  0  0  0  0
  -21.6080   -2.5058  -28.1637 H   0  0  0  0  0  0  0  0  0  0  0  0
  -25.4097   -6.6509  -27.3982 H   0  0  0  0  0  0  0  0  0  0  0  0
  -24.8183   -7.5772  -25.9929 H   0  0  0  0  0  0  0  0  0  0  0  0
  1  2  1  0
  1  5  2  0
  1  7  1  0
  2  8  1  0
  3  4  1  0
  4  5  1  0
  5 23  1  0
  6 23  2  0
  6 24  1  0
  6 25  1  0
  7 25  2  0
  7 26  1  0
  8  9  1  0
  9 10  1  0
 10 27  1  0
 11 12  2  0
 11 20  1  0
 11 27  1  0
 12 13  1  0
 13 14  2  0
 14 15  1  0
 15 16  1  0
 15 20  2  0
 17 16  1  0
 17 18  1  0
 17 19  1  0
 18 21  1  0
 18 22  1  0
 19 28  2  0
 19 29  1  0
  3 30  1  0
  3 31  1  0
  3 32  1  0
  4 33  1  0
  4 34  1  0
  8 35  1  0
  8 36  1  0
  9 37  1  0
  9 38  1  0
 10 39  1  0
 10 40  1  0
 12 41  1  0
 13 42  1  0
 14 43  1  0
 16 44  1  0
 16 45  1  0
 17 46  1  1
 18 47  1  1
 20 48  1  0
 24 49  1  0
 24 50  1  0
 26 51  1  0
 26 52  1  0
M  CHG  1  29  -1
M  END
>  <filename_input>  (25) 
7KM8_WPD_docked.sdf

>  <pdb_id>  (25) 
7KM8_WPD

>  <pose_rank>  (25) 
24

>  <num_atoms_heavy>  (25) 
29

>  <num_torsions>  (25) 
11

>  <pose>  (25) 
[-23.55604073759709, -9.098703537447522, -21.444949232203562, -3.576412949396172, 0.8103354827325548, -1.547614476785536, -8.942768500435792, -4.481500793831207, -4.1066278412768815, 1.3595075869520912, 1.9925489721462784, 3.9707386921866665, -5.387775973813602, -6.969166012254495, 5.743014545956699, -5.263525570219363, -0.422939242343226]

>  <energy>  (25) 
-380.1507057624894

>  <inter_energy>  (25) 
-531.470156831217

>  <intra_energy>  (25) 
157.07169270705077

>  <rmsd>  (25) 
7.9335

>  <sdf_rank>  (25) 
0

$$$$

     RDKit          3D

 52 53  0  0  0  0  0  0  0  0999 V2000
  -20.0680  -13.6270  -21.8120 C   0  0  0  0  0  0  0  0  0  0  0  0
  -21.3620  -13.9850  -22.1900 O   0  0  0  0  0  0  0  0  0  0  0  0
  -21.0260  -10.4860  -21.3470 C   0  0  0  0  0  0  0  0  0  0  0  0
  -20.9160  -11.7220  -20.4230 C   0  0  0  0  0  0  0  0  0  0  0  0
  -19.8240  -12.5920  -20.9760 C   0  0  0  0  0  0  0  0  0  0  0  0
  -17.5670  -13.0210  -21.0730 C   0  0  0  0  0  0  0  0  0  0  0  0
  -18.9530  -14.3690  -22.2750 C   0  0  0  0  0  0  0  0  0  0  0  0
  -21.7680  -13.6220  -23.5470 C   0  0  0  0  0  0  0  0  0  0  0  0
  -23.2850  -13.7300  -23.5500 C   0  0  0  0  0  0  0  0  0  0  0  0
  -23.9300  -12.5010  -22.9050 C   0  0  0  0  0  0  0  0  0  0  0  0
  -24.0140  -10.1240  -23.3260 C   0  0  0  0  0  0  0  0  0  0  0  0
  -24.8490   -9.8780  -22.2560 C   0  0  0  0  0  0  0  0  0  0  0  0
  -25.3130   -8.5850  -22.0500 C   0  0  0  0  0  0  0  0  0  0  0  0
  -24.9720   -7.5530  -22.9030 C   0  0  0  0  0  0  0  0  0  0  0  0
  -24.1230   -7.8080  -23.9850 C   0  0  0  0  0  0  0  0  0  0  0  0
  -23.7290   -6.7020  -24.9560 C   0  0  0  0  0  0  0  0  0  0  0  0
  -22.2770   -6.1900  -24.8830 C   0  0  2  0  0  0  0  0  0  0  0  0
  -22.3330   -4.7180  -24.5590 C   0  0  2  0  0  0  0  0  0  0  0  0
  -21.6220   -6.4010  -26.2920 C   0  0  0  0  0  0  0  0  0  0  0  0
  -23.6590   -9.0940  -24.1790 C   0  0  0  0  0  0  0  0  0  0  0  0
  -21.0590   -4.1930  -24.4630 F   0  0  0  0  0  0  0  0  0  0  0  0
  -22.9280   -4.4930  -23.3230 F   0  0  0  0  0  0  0  0  0  0  0  0
  -18.5700  -12.2780  -20.5980 N   0  0  0  0  0  0  0  0  0  0  0  0
  -16.3040  -12.7040  -20.6940 N   0  0  0  0  0  0  0  0  0  0  0  0
  -17.7090  -14.0530  -21.9000 N   0  0  0  0  0  0  0  0  0  0  0  0
  -19.1190  -15.4040  -23.0970 N   0  0  0  0  0  0  0  0  0  0  0  0
  -23.4990  -11.3580  -23.6310 O   0  0  0  0  0  0  0  0  0  0  0  0
  -22.0020   -5.5960  -27.1590 O   0  0  0  0  0  0  0  0  0  0  0  0
  -20.8070   -7.3370  -26.3760 O   0  0  0  0  0  0  0  0  0  0  0  0
  -21.1070   -9.5761  -20.7342 H   0  0  0  0  0  0  0  0  0  0  0  0
  -20.1300  -10.4219  -21.9819 H   0  0  0  0  0  0  0  0  0  0  0  0
  -21.9192  -10.5812  -21.9819 H   0  0  0  0  0  0  0  0  0  0  0  0
  -20.6651  -11.4066  -19.3995 H   0  0  0  0  0  0  0  0  0  0  0  0
  -21.8700  -12.2683  -20.3852 H   0  0  0  0  0  0  0  0  0  0  0  0
  -21.4537  -12.5944  -23.7821 H   0  0  0  0  0  0  0  0  0  0  0  0
  -21.3072  -14.2747  -24.3031 H   0  0  0  0  0  0  0  0  0  0  0  0
  -23.6363  -13.8157  -24.5889 H   0  0  0  0  0  0  0  0  0  0  0  0
  -23.5715  -14.6186  -22.9684 H   0  0  0  0  0  0  0  0  0  0  0  0
  -25.0258  -12.5842  -22.9525 H   0  0  0  0  0  0  0  0  0  0  0  0
  -23.6359  -12.4206  -21.8481 H   0  0  0  0  0  0  0  0  0  0  0  0
  -25.1426  -10.6922  -21.5771 H   0  0  0  0  0  0  0  0  0  0  0  0
  -25.9660   -8.3783  -21.1892 H   0  0  0  0  0  0  0  0  0  0  0  0
  -25.3647   -6.5397  -22.7327 H   0  0  0  0  0  0  0  0  0  0  0  0
  -23.8964   -7.0803  -25.9752 H   0  0  0  0  0  0  0  0  0  0  0  0
  -24.3502   -5.8394  -24.6731 H   0  0  0  0  0  0  0  0  0  0  0  0
  -21.6906   -6.7219  -24.1193 H   0  0  0  0  0  0  0  0  0  0  0  0
  -22.9107   -4.2462  -25.3675 H   0  0  0  0  0  0  0  0  0  0  0  0
  -22.9934   -9.3039  -25.0292 H   0  0  0  0  0  0  0  0  0  0  0  0
  -15.5077  -13.2568  -21.0422 H   0  0  0  0  0  0  0  0  0  0  0  0
  -16.1410  -11.9104  -20.0580 H   0  0  0  0  0  0  0  0  0  0  0  0
  -18.3010  -15.9359  -23.4270 H   0  0  0  0  0  0  0  0  0  0  0  0
  -20.0653  -15.6724  -23.4026 H   0  0  0  0  0  0  0  0  0  0  0  0
  1  2  1  0
  1  5  2  0
  1  7  1  0
  2  8  1  0
  3  4  1  0
  4  5  1  0
  5 23  1  0
  6 23  2  0
  6 24  1  0
  6 25  1  0
  7 25  2  0
  7 26  1  0
  8  9  1  0
  9 10  1  0
 10 27  1  0
 11 12  2  0
 11 20  1  0
 11 27  1  0
 12 13  1  0
 13 14  2  0
 14 15  1  0
 15 16  1  0
 15 20  2  0
 17 16  1  0
 17 18  1  0
 17 19  1  0
 18 21  1  0
 18 22  1  0
 19 28  2  0
 19 29  1  0
  3 30  1  0
  3 31  1  0
  3 32  1  0
  4 33  1  0
  4 34  1  0
  8 35  1  0
  8 36  1  0
  9 37  1  0
  9 38  1  0
 10 39  1  0
 10 40  1  0
 12 41  1  0
 13 42  1  0
 14 43  1  0
 16 44  1  0
 16 45  1  0
 17 46  1  1
 18 47  1  6
 20 48  1  0
 24 49  1  0
 24 50  1  0
 26 51  1  0
 26 52  1  0
M  CHG  1  29  -1
M  END
>  <filename_input>  (26) 
7KM8_WPD_docked.sdf

>  <pdb_id>  (26) 
7KM8_WPD

>  <pose_rank>  (26) 
25

>  <num_atoms_heavy>  (26) 
29

>  <num_torsions>  (26) 
11

>  <pose>  (26) 
[-23.499, -11.358, -23.631, 1e-06, 1e-06, 1e-06, 0.0, 0.0, 0.0, 0.0, 0.0, 0.0, 0.0, 0.0, 0.0, 0.0, 0.0]

>  <energy>  (26) 
-1600.0862228150802

>  <inter_energy>  (26) 
-1643.3794086302014

>  <intra_energy>  (26) 
8.489201523471932

>  <rmsd>  (26) 
0.0

>  <sdf_rank>  (26) 
0

$$$$
