
     RDKit          3D

 24 24  0  0  0  0  0  0  0  0999 V2000
   69.7706   -1.1036   77.1888 N   0  0  0  0  0  0  0  0  0  0  0  0
   70.8112   -1.2544   76.1838 C   0  0  2  0  0  0  0  0  0  0  0  0
   71.9674   -0.3017   76.4344 C   0  0  0  0  0  0  0  0  0  0  0  0
   72.2948    0.2717   77.4770 O   0  0  0  0  0  0  0  0  0  0  0  0
   72.7326   -0.0721   75.3394 O   0  0  0  0  0  0  0  0  0  0  0  0
   70.3888   -0.9853   74.7236 C   0  0  0  0  0  0  0  0  0  0  0  0
   69.2938   -1.8758   74.2556 C   0  0  0  0  0  0  0  0  0  0  0  0
   68.0254   -1.3315   74.0658 C   0  0  0  0  0  0  0  0  0  0  0  0
   69.5116   -3.2348   74.0004 C   0  0  0  0  0  0  0  0  0  0  0  0
   66.9629   -2.1155   73.6122 C   0  0  0  0  0  0  0  0  0  0  0  0
   68.4537   -4.0291   73.5578 C   0  0  0  0  0  0  0  0  0  0  0  0
   67.1804   -3.4805   73.3560 C   0  0  0  0  0  0  0  0  0  0  0  0
   66.1724   -4.3052   72.9258 O   0  0  0  0  0  0  0  0  0  0  0  0
   65.7230   -1.5845   73.4282 F   0  0  0  0  0  0  0  0  0  0  0  0
   70.1889   -1.1642   78.1280 H   0  0  0  0  0  0  0  0  0  0  0  0
   69.3135   -0.1876   77.0750 H   0  0  0  0  0  0  0  0  0  0  0  0
   69.0723   -1.8522   77.0750 H   0  0  0  0  0  0  0  0  0  0  0  0
   71.0785   -2.3162   76.2894 H   0  0  0  0  0  0  0  0  0  0  0  0
   70.0486    0.0578   74.6449 H   0  0  0  0  0  0  0  0  0  0  0  0
   71.2648   -1.1839   74.0887 H   0  0  0  0  0  0  0  0  0  0  0  0
   67.8580   -0.2650   74.2770 H   0  0  0  0  0  0  0  0  0  0  0  0
   70.5096   -3.6732   74.1479 H   0  0  0  0  0  0  0  0  0  0  0  0
   68.6213   -5.0991   73.3648 H   0  0  0  0  0  0  0  0  0  0  0  0
   66.3557   -5.2627   72.7535 H   0  0  0  0  0  0  0  0  0  0  0  0
  2  1  1  0
  2  3  1  0
  2  6  1  0
  3  4  2  0
  3  5  1  0
  6  7  1  0
  7  8  2  0
  7  9  1  0
  8 10  1  0
  9 11  2  0
 10 12  2  0
 10 14  1  0
 11 12  1  0
 12 13  1  0
  1 15  1  0
  1 16  1  0
  1 17  1  0
  2 18  1  6
  6 19  1  0
  6 20  1  0
  8 21  1  0
  9 22  1  0
 11 23  1  0
 13 24  1  0
M  CHG  2   1   1   5  -1
M  END
>  <filename_input>  (1) 
7KQU_YOF_docked.sdf

>  <pdb_id>  (1) 
7KQU_YOF

>  <pose_rank>  (1) 
0

>  <num_atoms_heavy>  (1) 
14

>  <num_torsions>  (1) 
3

>  <pose>  (1) 
[69.29380621098228, -1.8758134161723883, 74.25558420794081, -2.006049362445458, -0.29229621105633663, 5.8995725662389455, 6.002380051694786, 0.23060376066763275, -2.4888698070708255]

>  <energy>  (1) 
-938.527506174536

>  <inter_energy>  (1) 
-911.8063127452821

>  <intra_energy>  (1) 
0.3978578553754376

>  <rmsd>  (1) 
0.697095

>  <sdf_rank>  (1) 
0

$$$$

     RDKit          3D

 24 24  0  0  0  0  0  0  0  0999 V2000
   69.9469    0.3497   76.4793 N   0  0  0  0  0  0  0  0  0  0  0  0
   70.7122   -0.8663   76.2536 C   0  0  2  0  0  0  0  0  0  0  0  0
   72.1679   -0.6878   76.6492 C   0  0  0  0  0  0  0  0  0  0  0  0
   73.1786   -0.7175   75.9417 O   0  0  0  0  0  0  0  0  0  0  0  0
   72.3497   -0.4605   77.9730 O   0  0  0  0  0  0  0  0  0  0  0  0
   70.7599   -1.3781   74.7979 C   0  0  0  0  0  0  0  0  0  0  0  0
   69.4958   -2.0293   74.3629 C   0  0  0  0  0  0  0  0  0  0  0  0
   69.5590   -3.3049   73.8059 C   0  0  0  0  0  0  0  0  0  0  0  0
   68.2565   -1.3943   74.5050 C   0  0  0  0  0  0  0  0  0  0  0  0
   68.4036   -3.9720   73.3946 C   0  0  0  0  0  0  0  0  0  0  0  0
   67.0973   -2.0479   74.0867 C   0  0  0  0  0  0  0  0  0  0  0  0
   67.1586   -3.3350   73.5365 C   0  0  0  0  0  0  0  0  0  0  0  0
   65.9908   -3.9320   73.1349 O   0  0  0  0  0  0  0  0  0  0  0  0
   68.4650   -5.2176   72.8487 F   0  0  0  0  0  0  0  0  0  0  0  0
   69.8465    0.5092   77.4919 H   0  0  0  0  0  0  0  0  0  0  0  0
   70.4378    1.1485   76.0529 H   0  0  0  0  0  0  0  0  0  0  0  0
   69.0143    0.2526   76.0529 H   0  0  0  0  0  0  0  0  0  0  0  0
   70.1692   -1.5961   76.8722 H   0  0  0  0  0  0  0  0  0  0  0  0
   70.9595   -0.5242   74.1338 H   0  0  0  0  0  0  0  0  0  0  0  0
   71.5534   -2.1380   74.7450 H   0  0  0  0  0  0  0  0  0  0  0  0
   70.5367   -3.7950   73.6881 H   0  0  0  0  0  0  0  0  0  0  0  0
   68.1971   -0.3872   74.9433 H   0  0  0  0  0  0  0  0  0  0  0  0
   66.1235   -1.5468   74.1900 H   0  0  0  0  0  0  0  0  0  0  0  0
   65.1286   -3.4587   73.2476 H   0  0  0  0  0  0  0  0  0  0  0  0
  2  1  1  0
  2  3  1  0
  2  6  1  0
  3  4  2  0
  3  5  1  0
  6  7  1  0
  7  8  2  0
  7  9  1  0
  8 10  1  0
  9 11  2  0
 10 12  2  0
 10 14  1  0
 11 12  1  0
 12 13  1  0
  1 15  1  0
  1 16  1  0
  1 17  1  0
  2 18  1  1
  6 19  1  0
  6 20  1  0
  8 21  1  0
  9 22  1  0
 11 23  1  0
 13 24  1  0
M  CHG  2   1   1   5  -1
M  END
>  <filename_input>  (2) 
7KQU_YOF_docked.sdf

>  <pdb_id>  (2) 
7KQU_YOF

>  <pose_rank>  (2) 
1

>  <num_atoms_heavy>  (2) 
14

>  <num_torsions>  (2) 
3

>  <pose>  (2) 
[69.49581928257241, -2.029339186386826, 74.36294435487704, -2.2768060474911986, -1.5619968053385127, -0.9183587724236068, -4.403805857635816, 6.234993503302157, 1.4161364389724764]

>  <energy>  (2) 
-789.1271527985384

>  <inter_energy>  (2) 
-802.5035351507124

>  <intra_energy>  (2) 
9.747297180607262

>  <rmsd>  (2) 
1.89187

>  <sdf_rank>  (2) 
0

$$$$

     RDKit          3D

 24 24  0  0  0  0  0  0  0  0999 V2000
   69.3270    0.0332   77.0123 N   0  0  0  0  0  0  0  0  0  0  0  0
   70.4164   -0.6918   76.3775 C   0  0  2  0  0  0  0  0  0  0  0  0
   71.7453    0.0163   76.5770 C   0  0  0  0  0  0  0  0  0  0  0  0
   72.4706    0.5652   75.7429 O   0  0  0  0  0  0  0  0  0  0  0  0
   72.1655    0.0354   77.8655 O   0  0  0  0  0  0  0  0  0  0  0  0
   70.3013   -0.8900   74.8508 C   0  0  0  0  0  0  0  0  0  0  0  0
   69.2421   -1.8588   74.4628 C   0  0  0  0  0  0  0  0  0  0  0  0
   67.9419   -1.3909   74.2841 C   0  0  0  0  0  0  0  0  0  0  0  0
   69.5239   -3.2165   74.2713 C   0  0  0  0  0  0  0  0  0  0  0  0
   66.9100   -2.2510   73.9041 C   0  0  0  0  0  0  0  0  0  0  0  0
   68.4974   -4.0862   73.9025 C   0  0  0  0  0  0  0  0  0  0  0  0
   67.1919   -3.6147   73.7118 C   0  0  0  0  0  0  0  0  0  0  0  0
   66.2170   -4.5114   73.3555 O   0  0  0  0  0  0  0  0  0  0  0  0
   65.6392   -1.7946   73.7310 F   0  0  0  0  0  0  0  0  0  0  0  0
   69.4227   -0.0304   78.0358 H   0  0  0  0  0  0  0  0  0  0  0  0
   69.3594    1.0219   76.7253 H   0  0  0  0  0  0  0  0  0  0  0  0
   68.4275   -0.3783   76.7253 H   0  0  0  0  0  0  0  0  0  0  0  0
   70.3563   -1.6728   76.8715 H   0  0  0  0  0  0  0  0  0  0  0  0
   70.0724    0.0816   74.3887 H   0  0  0  0  0  0  0  0  0  0  0  0
   71.2610   -1.2986   74.5016 H   0  0  0  0  0  0  0  0  0  0  0  0
   67.7247   -0.3246   74.4453 H   0  0  0  0  0  0  0  0  0  0  0  0
   70.5473   -3.5949   74.4106 H   0  0  0  0  0  0  0  0  0  0  0  0
   68.7156   -5.1548   73.7597 H   0  0  0  0  0  0  0  0  0  0  0  0
   66.4456   -5.4661   73.2271 H   0  0  0  0  0  0  0  0  0  0  0  0
  2  1  1  0
  2  3  1  0
  2  6  1  0
  3  4  2  0
  3  5  1  0
  6  7  1  0
  7  8  2  0
  7  9  1  0
  8 10  1  0
  9 11  2  0
 10 12  2  0
 10 14  1  0
 11 12  1  0
 12 13  1  0
  1 15  1  0
  1 16  1  0
  1 17  1  0
  2 18  1  1
  6 19  1  0
  6 20  1  0
  8 21  1  0
  9 22  1  0
 11 23  1  0
 13 24  1  0
M  CHG  2   1   1   5  -1
M  END
>  <filename_input>  (3) 
7KQU_YOF_docked.sdf

>  <pdb_id>  (3) 
7KQU_YOF

>  <pose_rank>  (3) 
2

>  <num_atoms_heavy>  (3) 
14

>  <num_torsions>  (3) 
3

>  <pose>  (3) 
[69.24206956929177, -1.858822077770626, 74.46284414001046, -4.8693971071569955, 3.8815290854929536, 1.1534610731426276, -38.34862699035669, 12.593072650716303, -4.826489915179043]

>  <energy>  (3) 
-814.1862568163134

>  <inter_energy>  (3) 
-809.5247968071534

>  <intra_energy>  (3) 
3.1728474655526626

>  <rmsd>  (3) 
0.957904

>  <sdf_rank>  (3) 
0

$$$$

     RDKit          3D

 24 24  0  0  0  0  0  0  0  0999 V2000
   69.7040    0.6512   77.0440 N   0  0  0  0  0  0  0  0  0  0  0  0
   70.3497   -0.4945   76.4228 C   0  0  2  0  0  0  0  0  0  0  0  0
   71.8457   -0.4991   76.6860 C   0  0  0  0  0  0  0  0  0  0  0  0
   72.7525    0.0430   76.0481 O   0  0  0  0  0  0  0  0  0  0  0  0
   72.2039   -1.2032   77.7874 O   0  0  0  0  0  0  0  0  0  0  0  0
   70.2198   -0.5973   74.8879 C   0  0  0  0  0  0  0  0  0  0  0  0
   69.1622   -1.5467   74.4506 C   0  0  0  0  0  0  0  0  0  0  0  0
   67.8695   -1.0639   74.2580 C   0  0  0  0  0  0  0  0  0  0  0  0
   69.4384   -2.9005   74.2266 C   0  0  0  0  0  0  0  0  0  0  0  0
   66.8398   -1.9051   73.8323 C   0  0  0  0  0  0  0  0  0  0  0  0
   68.4138   -3.7516   73.8119 C   0  0  0  0  0  0  0  0  0  0  0  0
   67.1160   -3.2650   73.6073 C   0  0  0  0  0  0  0  0  0  0  0  0
   66.1426   -4.1438   73.2055 O   0  0  0  0  0  0  0  0  0  0  0  0
   65.5761   -1.4343   73.6456 F   0  0  0  0  0  0  0  0  0  0  0  0
   69.7553    0.5604   78.0687 H   0  0  0  0  0  0  0  0  0  0  0  0
   70.1825    1.5152   76.7516 H   0  0  0  0  0  0  0  0  0  0  0  0
   68.7172    0.6895   76.7516 H   0  0  0  0  0  0  0  0  0  0  0  0
   69.8139   -1.3368   76.8847 H   0  0  0  0  0  0  0  0  0  0  0  0
   69.9804    0.3999   74.4900 H   0  0  0  0  0  0  0  0  0  0  0  0
   71.1782   -0.9770   74.5041 H   0  0  0  0  0  0  0  0  0  0  0  0
   67.6563   -0.0011   74.4448 H   0  0  0  0  0  0  0  0  0  0  0  0
   70.4560   -3.2905   74.3764 H   0  0  0  0  0  0  0  0  0  0  0  0
   68.6274   -4.8174   73.6435 H   0  0  0  0  0  0  0  0  0  0  0  0
   66.3672   -5.0962   73.0549 H   0  0  0  0  0  0  0  0  0  0  0  0
  2  1  1  0
  2  3  1  0
  2  6  1  0
  3  4  2  0
  3  5  1  0
  6  7  1  0
  7  8  2  0
  7  9  1  0
  8 10  1  0
  9 11  2  0
 10 12  2  0
 10 14  1  0
 11 12  1  0
 12 13  1  0
  1 15  1  0
  1 16  1  0
  1 17  1  0
  2 18  1  1
  6 19  1  0
  6 20  1  0
  8 21  1  0
  9 22  1  0
 11 23  1  0
 13 24  1  0
M  CHG  2   1   1   5  -1
M  END
>  <filename_input>  (4) 
7KQU_YOF_docked.sdf

>  <pdb_id>  (4) 
7KQU_YOF

>  <pose_rank>  (4) 
3

>  <num_atoms_heavy>  (4) 
14

>  <num_torsions>  (4) 
3

>  <pose>  (4) 
[69.16219809197516, -1.54668734535226, 74.45056577855004, -4.535308739572949, 4.2958644948566365, 0.794384145225337, -38.30012066033025, 12.092135176165508, -4.382074544323997]

>  <energy>  (4) 
-794.4105423574505

>  <inter_energy>  (4) 
-798.717347917446

>  <intra_energy>  (4) 
0.0

>  <rmsd>  (4) 
1.10257

>  <sdf_rank>  (4) 
0

$$$$

     RDKit          3D

 24 24  0  0  0  0  0  0  0  0999 V2000
   69.7835    0.6004   76.8796 N   0  0  0  0  0  0  0  0  0  0  0  0
   70.3841   -0.6321   76.3940 C   0  0  2  0  0  0  0  0  0  0  0  0
   71.8411   -0.7410   76.8092 C   0  0  0  0  0  0  0  0  0  0  0  0
   72.7186   -1.4997   76.3879 O   0  0  0  0  0  0  0  0  0  0  0  0
   72.1993    0.1359   77.7788 O   0  0  0  0  0  0  0  0  0  0  0  0
   70.3959   -0.8241   74.8623 C   0  0  0  0  0  0  0  0  0  0  0  0
   69.3677   -1.7855   74.3832 C   0  0  0  0  0  0  0  0  0  0  0  0
   68.0709   -1.3241   74.1675 C   0  0  0  0  0  0  0  0  0  0  0  0
   69.6755   -3.1297   74.1428 C   0  0  0  0  0  0  0  0  0  0  0  0
   67.0682   -2.1771   73.7026 C   0  0  0  0  0  0  0  0  0  0  0  0
   68.6779   -3.9927   73.6889 C   0  0  0  0  0  0  0  0  0  0  0  0
   67.3761   -3.5273   73.4612 C   0  0  0  0  0  0  0  0  0  0  0  0
   66.4299   -4.4173   73.0208 O   0  0  0  0  0  0  0  0  0  0  0  0
   65.8005   -1.7272   73.4933 F   0  0  0  0  0  0  0  0  0  0  0  0
   69.7838    0.5999   77.9096 H   0  0  0  0  0  0  0  0  0  0  0  0
   70.3268    1.4054   76.5365 H   0  0  0  0  0  0  0  0  0  0  0  0
   68.8147    0.6686   76.5365 H   0  0  0  0  0  0  0  0  0  0  0  0
   69.7343   -1.3962   76.8457 H   0  0  0  0  0  0  0  0  0  0  0  0
   70.2115    0.1505   74.3867 H   0  0  0  0  0  0  0  0  0  0  0  0
   71.3793   -1.2367   74.5927 H   0  0  0  0  0  0  0  0  0  0  0  0
   67.8327   -0.2689   74.3672 H   0  0  0  0  0  0  0  0  0  0  0  0
   70.6965   -3.5029   74.3107 H   0  0  0  0  0  0  0  0  0  0  0  0
   68.9161   -5.0512   73.5075 H   0  0  0  0  0  0  0  0  0  0  0  0
   66.6764   -5.3624   72.8594 H   0  0  0  0  0  0  0  0  0  0  0  0
  2  1  1  0
  2  3  1  0
  2  6  1  0
  3  4  2  0
  3  5  1  0
  6  7  1  0
  7  8  2  0
  7  9  1  0
  8 10  1  0
  9 11  2  0
 10 12  2  0
 10 14  1  0
 11 12  1  0
 12 13  1  0
  1 15  1  0
  1 16  1  0
  1 17  1  0
  2 18  1  1
  6 19  1  0
  6 20  1  0
  8 21  1  0
  9 22  1  0
 11 23  1  0
 13 24  1  0
M  CHG  2   1   1   5  -1
M  END
>  <filename_input>  (5) 
7KQU_YOF_docked.sdf

>  <pdb_id>  (5) 
7KQU_YOF

>  <pose_rank>  (5) 
4

>  <num_atoms_heavy>  (5) 
14

>  <num_torsions>  (5) 
3

>  <pose>  (5) 
[69.36774353196314, -1.785527689372725, 74.38317796622779, 1.6979335177286314, -3.4932091546238326, 4.972684871666279, -0.7092685361601753, 5.738212910777564, 0.5445731892989008]

>  <energy>  (5) 
-839.0074620005516

>  <inter_energy>  (5) 
-844.4465977873693

>  <intra_energy>  (5) 
0.0

>  <rmsd>  (5) 
0.926704

>  <sdf_rank>  (5) 
0

$$$$

     RDKit          3D

 24 24  0  0  0  0  0  0  0  0999 V2000
   70.5718    0.7218   73.6897 N   0  0  0  0  0  0  0  0  0  0  0  0
   70.7658    0.7551   75.1309 C   0  0  2  0  0  0  0  0  0  0  0  0
   72.1566    0.2804   75.5151 C   0  0  0  0  0  0  0  0  0  0  0  0
   72.6966    0.2617   76.6246 O   0  0  0  0  0  0  0  0  0  0  0  0
   72.8816   -0.1877   74.4699 O   0  0  0  0  0  0  0  0  0  0  0  0
   69.8066   -0.1205   75.9654 C   0  0  0  0  0  0  0  0  0  0  0  0
   69.2547   -1.2741   75.2066 C   0  0  0  0  0  0  0  0  0  0  0  0
   67.9469   -1.1973   74.7321 C   0  0  0  0  0  0  0  0  0  0  0  0
   70.0171   -2.4216   74.9586 C   0  0  0  0  0  0  0  0  0  0  0  0
   67.3813   -2.2426   73.9997 C   0  0  0  0  0  0  0  0  0  0  0  0
   69.4571   -3.4763   74.2374 C   0  0  0  0  0  0  0  0  0  0  0  0
   68.1459   -3.3956   73.7504 C   0  0  0  0  0  0  0  0  0  0  0  0
   67.6396   -4.4622   73.0523 O   0  0  0  0  0  0  0  0  0  0  0  0
   66.1030   -2.1687   73.5372 F   0  0  0  0  0  0  0  0  0  0  0  0
   69.5777    0.5512   73.4810 H   0  0  0  0  0  0  0  0  0  0  0  0
   70.8579    1.6242   73.2839 H   0  0  0  0  0  0  0  0  0  0  0  0
   71.1424   -0.0336   73.2839 H   0  0  0  0  0  0  0  0  0  0  0  0
   70.5771    1.8138   75.3623 H   0  0  0  0  0  0  0  0  0  0  0  0
   70.3550   -0.5061   76.8374 H   0  0  0  0  0  0  0  0  0  0  0  0
   68.9570    0.5139   76.2581 H   0  0  0  0  0  0  0  0  0  0  0  0
   67.3495   -0.2970   74.9382 H   0  0  0  0  0  0  0  0  0  0  0  0
   71.0502   -2.4912   75.3298 H   0  0  0  0  0  0  0  0  0  0  0  0
   70.0521   -4.3820   74.0489 H   0  0  0  0  0  0  0  0  0  0  0  0
   68.2021   -5.2610   72.8922 H   0  0  0  0  0  0  0  0  0  0  0  0
  2  1  1  0
  2  3  1  0
  2  6  1  0
  3  4  2  0
  3  5  1  0
  6  7  1  0
  7  8  2  0
  7  9  1  0
  8 10  1  0
  9 11  2  0
 10 12  2  0
 10 14  1  0
 11 12  1  0
 12 13  1  0
  1 15  1  0
  1 16  1  0
  1 17  1  0
  2 18  1  1
  6 19  1  0
  6 20  1  0
  8 21  1  0
  9 22  1  0
 11 23  1  0
 13 24  1  0
M  CHG  2   1   1   5  -1
M  END
>  <filename_input>  (6) 
7KQU_YOF_docked.sdf

>  <pdb_id>  (6) 
7KQU_YOF

>  <pose_rank>  (6) 
5

>  <num_atoms_heavy>  (6) 
14

>  <num_torsions>  (6) 
3

>  <pose>  (6) 
[69.25469786916274, -1.274140422943565, 75.20661068473403, -7.776461349769019, 16.91782060023858, -24.775727190720787, 2.313307665740241, 7.989659464460313, 0.19295655107897697]

>  <energy>  (6) 
-623.8728256039409

>  <inter_energy>  (6) 
-635.4120448706067

>  <intra_energy>  (6) 
7.414742330533195

>  <rmsd>  (6) 
1.70643

>  <sdf_rank>  (6) 
0

$$$$

     RDKit          3D

 24 24  0  0  0  0  0  0  0  0999 V2000
   61.9531    2.9508   82.0986 N   0  0  0  0  0  0  0  0  0  0  0  0
   62.9266    1.8709   82.0562 C   0  0  2  0  0  0  0  0  0  0  0  0
   63.4677    1.5564   83.4402 C   0  0  0  0  0  0  0  0  0  0  0  0
   63.0467    1.9152   84.5434 O   0  0  0  0  0  0  0  0  0  0  0  0
   64.5667    0.7631   83.4292 O   0  0  0  0  0  0  0  0  0  0  0  0
   64.1803    2.1207   81.1907 C   0  0  0  0  0  0  0  0  0  0  0  0
   64.4840    3.5637   81.0001 C   0  0  0  0  0  0  0  0  0  0  0  0
   65.1244    4.2529   82.0278 C   0  0  0  0  0  0  0  0  0  0  0  0
   64.1467    4.2348   79.8189 C   0  0  0  0  0  0  0  0  0  0  0  0
   65.4494    5.6045   81.8988 C   0  0  0  0  0  0  0  0  0  0  0  0
   64.4570    5.5882   79.6847 C   0  0  0  0  0  0  0  0  0  0  0  0
   65.1108    6.2795   80.7131 C   0  0  0  0  0  0  0  0  0  0  0  0
   65.3880    7.6109   80.5345 O   0  0  0  0  0  0  0  0  0  0  0  0
   66.0736    6.2788   82.9033 F   0  0  0  0  0  0  0  0  0  0  0  0
   61.7423    3.1846   83.0793 H   0  0  0  0  0  0  0  0  0  0  0  0
   62.3385    3.7793   81.6233 H   0  0  0  0  0  0  0  0  0  0  0  0
   61.0892    2.6531   81.6233 H   0  0  0  0  0  0  0  0  0  0  0  0
   62.3411    1.0530   81.6108 H   0  0  0  0  0  0  0  0  0  0  0  0
   65.0427    1.6437   81.6793 H   0  0  0  0  0  0  0  0  0  0  0  0
   63.9803    1.6951   80.1963 H   0  0  0  0  0  0  0  0  0  0  0  0
   65.3785    3.7226   82.9574 H   0  0  0  0  0  0  0  0  0  0  0  0
   63.6407    3.6988   79.0024 H   0  0  0  0  0  0  0  0  0  0  0  0
   64.1851    6.1190   78.7604 H   0  0  0  0  0  0  0  0  0  0  0  0
   65.1375    8.0594   79.6882 H   0  0  0  0  0  0  0  0  0  0  0  0
  2  1  1  0
  2  3  1  0
  2  6  1  0
  3  4  2  0
  3  5  1  0
  6  7  1  0
  7  8  2  0
  7  9  1  0
  8 10  1  0
  9 11  2  0
 10 12  2  0
 10 14  1  0
 11 12  1  0
 12 13  1  0
  1 15  1  0
  1 16  1  0
  1 17  1  0
  2 18  1  6
  6 19  1  0
  6 20  1  0
  8 21  1  0
  9 22  1  0
 11 23  1  0
 13 24  1  0
M  CHG  2   1   1   5  -1
M  END
>  <filename_input>  (7) 
7KQU_YOF_docked.sdf

>  <pdb_id>  (7) 
7KQU_YOF

>  <pose_rank>  (7) 
6

>  <num_atoms_heavy>  (7) 
14

>  <num_torsions>  (7) 
3

>  <pose>  (7) 
[64.4840172349948, 3.5637417233555437, 81.00007730405119, 1.2829857044160122, -0.5148832278712957, -1.932476891677542, -0.7913950424638198, 1.6853609112644714, 3.6607465879145407]

>  <energy>  (7) 
-188.8993354828437

>  <inter_energy>  (7) 
-173.3610899809455

>  <intra_energy>  (7) 
8.006013842106645

>  <rmsd>  (7) 
11.5338

>  <sdf_rank>  (7) 
0

$$$$

     RDKit          3D

 24 24  0  0  0  0  0  0  0  0999 V2000
   66.4290    7.6179   78.5684 N   0  0  0  0  0  0  0  0  0  0  0  0
   65.1204    6.9983   78.4291 C   0  0  2  0  0  0  0  0  0  0  0  0
   64.4632    7.3785   77.1136 C   0  0  0  0  0  0  0  0  0  0  0  0
   63.2820    7.2735   76.7717 O   0  0  0  0  0  0  0  0  0  0  0  0
   65.3208    7.9102   76.2086 O   0  0  0  0  0  0  0  0  0  0  0  0
   64.0788    7.3617   79.5090 C   0  0  0  0  0  0  0  0  0  0  0  0
   64.2799    6.6307   80.7882 C   0  0  0  0  0  0  0  0  0  0  0  0
   64.9104    7.2892   81.8418 C   0  0  0  0  0  0  0  0  0  0  0  0
   63.8484    5.3094   80.9539 C   0  0  0  0  0  0  0  0  0  0  0  0
   65.1117    6.6588   83.0711 C   0  0  0  0  0  0  0  0  0  0  0  0
   64.0550    4.6669   82.1748 C   0  0  0  0  0  0  0  0  0  0  0  0
   64.6790    5.3318   83.2385 C   0  0  0  0  0  0  0  0  0  0  0  0
   64.8643    4.6539   84.4164 O   0  0  0  0  0  0  0  0  0  0  0  0
   65.7292    7.3012   84.1003 F   0  0  0  0  0  0  0  0  0  0  0  0
   66.6538    7.7244   79.5679 H   0  0  0  0  0  0  0  0  0  0  0  0
   67.1398    7.0240   78.1180 H   0  0  0  0  0  0  0  0  0  0  0  0
   66.4200    8.5441   78.1180 H   0  0  0  0  0  0  0  0  0  0  0  0
   65.3641    5.9288   78.5122 H   0  0  0  0  0  0  0  0  0  0  0  0
   64.1455    8.4412   79.7094 H   0  0  0  0  0  0  0  0  0  0  0  0
   63.0912    7.0731   79.1200 H   0  0  0  0  0  0  0  0  0  0  0  0
   65.2558    8.3242   81.7025 H   0  0  0  0  0  0  0  0  0  0  0  0
   63.3500    4.7816   80.1275 H   0  0  0  0  0  0  0  0  0  0  0  0
   63.7239    3.6259   82.3039 H   0  0  0  0  0  0  0  0  0  0  0  0
   64.5487    3.7197   84.5048 H   0  0  0  0  0  0  0  0  0  0  0  0
  2  1  1  0
  2  3  1  0
  2  6  1  0
  3  4  2  0
  3  5  1  0
  6  7  1  0
  7  8  2  0
  7  9  1  0
  8 10  1  0
  9 11  2  0
 10 12  2  0
 10 14  1  0
 11 12  1  0
 12 13  1  0
  1 15  1  0
  1 16  1  0
  1 17  1  0
  2 18  1  6
  6 19  1  0
  6 20  1  0
  8 21  1  0
  9 22  1  0
 11 23  1  0
 13 24  1  0
M  CHG  2   1   1   5  -1
M  END
>  <filename_input>  (8) 
7KQU_YOF_docked.sdf

>  <pdb_id>  (8) 
7KQU_YOF

>  <pose_rank>  (8) 
7

>  <num_atoms_heavy>  (8) 
14

>  <num_torsions>  (8) 
3

>  <pose>  (8) 
[64.27988262892988, 6.6306646824421325, 80.78818733463736, 0.07380402889892679, -4.054363995993803, 0.4415800909058206, -0.423316106081032, -0.09946199069766212, 0.5690352935260307]

>  <energy>  (8) 
-178.46293909123736

>  <inter_energy>  (8) 
-164.06288644237097

>  <intra_energy>  (8) 
0.17596812639217668

>  <rmsd>  (8) 
12.3644

>  <sdf_rank>  (8) 
0

$$$$

     RDKit          3D

 24 24  0  0  0  0  0  0  0  0999 V2000
   60.5963    4.6145   80.0459 N   0  0  0  0  0  0  0  0  0  0  0  0
   61.8322    5.3438   80.2829 C   0  0  2  0  0  0  0  0  0  0  0  0
   61.9033    6.6049   79.4393 C   0  0  0  0  0  0  0  0  0  0  0  0
   61.8419    6.7285   78.2129 O   0  0  0  0  0  0  0  0  0  0  0  0
   62.0507    7.7398   80.1656 O   0  0  0  0  0  0  0  0  0  0  0  0
   63.1392    4.5852   79.9678 C   0  0  0  0  0  0  0  0  0  0  0  0
   63.8664    4.1376   81.1852 C   0  0  0  0  0  0  0  0  0  0  0  0
   63.7892    2.7962   81.5539 C   0  0  0  0  0  0  0  0  0  0  0  0
   64.6226    5.0274   81.9570 C   0  0  0  0  0  0  0  0  0  0  0  0
   64.4640    2.3155   82.6775 C   0  0  0  0  0  0  0  0  0  0  0  0
   65.2915    4.5592   83.0880 C   0  0  0  0  0  0  0  0  0  0  0  0
   65.2235    3.2083   83.4535 C   0  0  0  0  0  0  0  0  0  0  0  0
   65.8941    2.7993   84.5779 O   0  0  0  0  0  0  0  0  0  0  0  0
   64.3876    1.0052   83.0391 F   0  0  0  0  0  0  0  0  0  0  0  0
   60.1683    4.3619   80.9481 H   0  0  0  0  0  0  0  0  0  0  0  0
   59.9453    5.2068   79.5109 H   0  0  0  0  0  0  0  0  0  0  0  0
   60.8001    3.7583   79.5109 H   0  0  0  0  0  0  0  0  0  0  0  0
   61.7809    5.5345   81.3651 H   0  0  0  0  0  0  0  0  0  0  0  0
   62.8923    3.7001   79.3631 H   0  0  0  0  0  0  0  0  0  0  0  0
   63.7997    5.2821   79.4310 H   0  0  0  0  0  0  0  0  0  0  0  0
   63.1857    2.1035   80.9488 H   0  0  0  0  0  0  0  0  0  0  0  0
   64.6889    6.0882   81.6737 H   0  0  0  0  0  0  0  0  0  0  0  0
   65.8793    5.2588   83.7003 H   0  0  0  0  0  0  0  0  0  0  0  0
   66.4211    3.4512   85.1045 H   0  0  0  0  0  0  0  0  0  0  0  0
  2  1  1  0
  2  3  1  0
  2  6  1  0
  3  4  2  0
  3  5  1  0
  6  7  1  0
  7  8  2  0
  7  9  1  0
  8 10  1  0
  9 11  2  0
 10 12  2  0
 10 14  1  0
 11 12  1  0
 12 13  1  0
  1 15  1  0
  1 16  1  0
  1 17  1  0
  2 18  1  1
  6 19  1  0
  6 20  1  0
  8 21  1  0
  9 22  1  0
 11 23  1  0
 13 24  1  0
M  CHG  2   1   1   5  -1
M  END
>  <filename_input>  (9) 
7KQU_YOF_docked.sdf

>  <pdb_id>  (9) 
7KQU_YOF

>  <pose_rank>  (9) 
8

>  <num_atoms_heavy>  (9) 
14

>  <num_torsions>  (9) 
3

>  <pose>  (9) 
[63.86639507670035, 4.137574024900962, 81.185164945374, -1.4269796920436486, -0.4341477888641574, 1.6472735230095865, -0.3761007216916451, -0.5801101155133127, 2.4229860509144507]

>  <energy>  (9) 
-177.6108958846989

>  <inter_energy>  (9) 
-150.9312004702837

>  <intra_energy>  (9) 
0.0

>  <rmsd>  (9) 
12.0708

>  <sdf_rank>  (9) 
0

$$$$

     RDKit          3D

 24 24  0  0  0  0  0  0  0  0999 V2000
   73.0637   -2.8718   85.1075 N   0  0  0  0  0  0  0  0  0  0  0  0
   73.4439   -4.1075   84.4409 C   0  0  2  0  0  0  0  0  0  0  0  0
   74.7986   -3.9802   83.7659 C   0  0  0  0  0  0  0  0  0  0  0  0
   75.8985   -4.3994   84.1371 O   0  0  0  0  0  0  0  0  0  0  0  0
   74.7609   -3.3100   82.5884 O   0  0  0  0  0  0  0  0  0  0  0  0
   72.4939   -4.5981   83.3274 C   0  0  0  0  0  0  0  0  0  0  0  0
   71.2988   -5.3134   83.8482 C   0  0  0  0  0  0  0  0  0  0  0  0
   70.1307   -4.5874   84.0717 C   0  0  0  0  0  0  0  0  0  0  0  0
   71.3231   -6.6880   84.1112 C   0  0  0  0  0  0  0  0  0  0  0  0
   68.9731   -5.2085   84.5442 C   0  0  0  0  0  0  0  0  0  0  0  0
   70.1748   -7.3158   84.5943 C   0  0  0  0  0  0  0  0  0  0  0  0
   68.9965   -6.5888   84.8090 C   0  0  0  0  0  0  0  0  0  0  0  0
   67.8965   -7.2515   85.2910 O   0  0  0  0  0  0  0  0  0  0  0  0
   67.8320   -4.4993   84.7643 F   0  0  0  0  0  0  0  0  0  0  0  0
   73.1049   -3.0056   86.1279 H   0  0  0  0  0  0  0  0  0  0  0  0
   73.7124   -2.1202   84.8333 H   0  0  0  0  0  0  0  0  0  0  0  0
   72.1048   -2.6148   84.8333 H   0  0  0  0  0  0  0  0  0  0  0  0
   73.4261   -4.8294   85.2706 H   0  0  0  0  0  0  0  0  0  0  0  0
   72.1546   -3.7265   82.7485 H   0  0  0  0  0  0  0  0  0  0  0  0
   73.0575   -5.3119   82.7087 H   0  0  0  0  0  0  0  0  0  0  0  0
   70.1204   -3.5057   83.8722 H   0  0  0  0  0  0  0  0  0  0  0  0
   72.2409   -7.2690   83.9381 H   0  0  0  0  0  0  0  0  0  0  0  0
   70.1948   -8.3943   84.8094 H   0  0  0  0  0  0  0  0  0  0  0  0
   67.9430   -8.2245   85.4680 H   0  0  0  0  0  0  0  0  0  0  0  0
  2  1  1  0
  2  3  1  0
  2  6  1  0
  3  4  2  0
  3  5  1  0
  6  7  1  0
  7  8  2  0
  7  9  1  0
  8 10  1  0
  9 11  2  0
 10 12  2  0
 10 14  1  0
 11 12  1  0
 12 13  1  0
  1 15  1  0
  1 16  1  0
  1 17  1  0
  2 18  1  1
  6 19  1  0
  6 20  1  0
  8 21  1  0
  9 22  1  0
 11 23  1  0
 13 24  1  0
M  CHG  2   1   1   5  -1
M  END
>  <filename_input>  (10) 
7KQU_YOF_docked.sdf

>  <pdb_id>  (10) 
7KQU_YOF

>  <pose_rank>  (10) 
9

>  <num_atoms_heavy>  (10) 
14

>  <num_torsions>  (10) 
3

>  <pose>  (10) 
[71.29877666377928, -5.313356172721306, 83.84821119822949, -0.40904611908180455, 0.5323592265703874, -0.18258104130793087, -0.5486001951440435, -0.13969472554673287, -1.0698182596234758]

>  <energy>  (10) 
-172.55377929360745

>  <inter_energy>  (10) 
-155.47005423110997

>  <intra_energy>  (10) 
0.6543594495625168

>  <rmsd>  (10) 
9.99384

>  <sdf_rank>  (10) 
0

$$$$

     RDKit          3D

 24 24  0  0  0  0  0  0  0  0999 V2000
   72.5140   -1.9697   83.2677 N   0  0  0  0  0  0  0  0  0  0  0  0
   72.9164   -3.3002   83.6959 C   0  0  2  0  0  0  0  0  0  0  0  0
   74.4209   -3.3917   83.8837 C   0  0  0  0  0  0  0  0  0  0  0  0
   75.3207   -3.2793   83.0465 O   0  0  0  0  0  0  0  0  0  0  0  0
   74.7978   -3.6263   85.1644 O   0  0  0  0  0  0  0  0  0  0  0  0
   72.5687   -4.4569   82.7346 C   0  0  0  0  0  0  0  0  0  0  0  0
   71.9128   -5.6066   83.4124 C   0  0  0  0  0  0  0  0  0  0  0  0
   72.5054   -6.8640   83.3182 C   0  0  0  0  0  0  0  0  0  0  0  0
   70.7268   -5.4506   84.1392 C   0  0  0  0  0  0  0  0  0  0  0  0
   71.9439   -7.9766   83.9473 C   0  0  0  0  0  0  0  0  0  0  0  0
   70.1516   -6.5584   84.7621 C   0  0  0  0  0  0  0  0  0  0  0  0
   70.7526   -7.8212   84.6772 C   0  0  0  0  0  0  0  0  0  0  0  0
   70.1440   -8.8796   85.3023 O   0  0  0  0  0  0  0  0  0  0  0  0
   72.5216   -9.2058   83.8543 F   0  0  0  0  0  0  0  0  0  0  0  0
   72.3362   -1.3820   84.0946 H   0  0  0  0  0  0  0  0  0  0  0  0
   73.2654   -1.5490   82.7026 H   0  0  0  0  0  0  0  0  0  0  0  0
   71.6554   -2.0360   82.7026 H   0  0  0  0  0  0  0  0  0  0  0  0
   72.3434   -3.4236   84.6267 H   0  0  0  0  0  0  0  0  0  0  0  0
   71.8887   -4.0743   81.9592 H   0  0  0  0  0  0  0  0  0  0  0  0
   73.5148   -4.8246   82.3107 H   0  0  0  0  0  0  0  0  0  0  0  0
   73.4323   -6.9823   82.7378 H   0  0  0  0  0  0  0  0  0  0  0  0
   70.2517   -4.4617   84.2185 H   0  0  0  0  0  0  0  0  0  0  0  0
   69.2151   -6.4390   85.3267 H   0  0  0  0  0  0  0  0  0  0  0  0
   69.3054   -8.7394   85.8093 H   0  0  0  0  0  0  0  0  0  0  0  0
  2  1  1  0
  2  3  1  0
  2  6  1  0
  3  4  2  0
  3  5  1  0
  6  7  1  0
  7  8  2  0
  7  9  1  0
  8 10  1  0
  9 11  2  0
 10 12  2  0
 10 14  1  0
 11 12  1  0
 12 13  1  0
  1 15  1  0
  1 16  1  0
  1 17  1  0
  2 18  1  1
  6 19  1  0
  6 20  1  0
  8 21  1  0
  9 22  1  0
 11 23  1  0
 13 24  1  0
M  CHG  2   1   1   5  -1
M  END
>  <filename_input>  (11) 
7KQU_YOF_docked.sdf

>  <pdb_id>  (11) 
7KQU_YOF

>  <pose_rank>  (11) 
10

>  <num_atoms_heavy>  (11) 
14

>  <num_torsions>  (11) 
3

>  <pose>  (11) 
[71.91283012903581, -5.6065648935910195, 83.41235318409069, 2.344865600411125, 2.5082444316391426, -0.36812197891992227, 1.9693723040739843, -1.0273974837078135, 2.3075886316184566]

>  <energy>  (11) 
-170.19124973394585

>  <inter_energy>  (11) 
-146.93294355899224

>  <intra_energy>  (11) 
0.0

>  <rmsd>  (11) 
10.313

>  <sdf_rank>  (11) 
0

$$$$

     RDKit          3D

 24 24  0  0  0  0  0  0  0  0999 V2000
   72.8438  -11.5470   76.4255 N   0  0  0  0  0  0  0  0  0  0  0  0
   73.3014  -11.1269   77.7407 C   0  0  2  0  0  0  0  0  0  0  0  0
   72.1340  -10.8298   78.6660 C   0  0  0  0  0  0  0  0  0  0  0  0
   71.1164  -10.1656   78.4508 O   0  0  0  0  0  0  0  0  0  0  0  0
   72.2541  -11.3915   79.8937 O   0  0  0  0  0  0  0  0  0  0  0  0
   74.1706   -9.8517   77.7817 C   0  0  0  0  0  0  0  0  0  0  0  0
   74.8709   -9.5771   76.4990 C   0  0  0  0  0  0  0  0  0  0  0  0
   74.3919   -8.5551   75.6821 C   0  0  0  0  0  0  0  0  0  0  0  0
   75.9927  -10.3146   76.1029 C   0  0  0  0  0  0  0  0  0  0  0  0
   75.0184   -8.2413   74.4746 C   0  0  0  0  0  0  0  0  0  0  0  0
   76.6191  -10.0163   74.8926 C   0  0  0  0  0  0  0  0  0  0  0  0
   76.1449   -8.9815   74.0756 C   0  0  0  0  0  0  0  0  0  0  0  0
   76.7923   -8.7320   72.8924 O   0  0  0  0  0  0  0  0  0  0  0  0
   74.5498   -7.2439   73.6753 F   0  0  0  0  0  0  0  0  0  0  0  0
   72.0890  -12.2400   76.5297 H   0  0  0  0  0  0  0  0  0  0  0  0
   72.4905  -10.7297   75.9076 H   0  0  0  0  0  0  0  0  0  0  0  0
   73.6280  -11.9687   75.9076 H   0  0  0  0  0  0  0  0  0  0  0  0
   73.9114  -11.9864   78.0555 H   0  0  0  0  0  0  0  0  0  0  0  0
   73.5225   -8.9945   78.0164 H   0  0  0  0  0  0  0  0  0  0  0  0
   74.9436  -10.0083   78.5485 H   0  0  0  0  0  0  0  0  0  0  0  0
   73.5043   -7.9852   75.9942 H   0  0  0  0  0  0  0  0  0  0  0  0
   76.3776  -11.1235   76.7412 H   0  0  0  0  0  0  0  0  0  0  0  0
   77.4958  -10.6004   74.5760 H   0  0  0  0  0  0  0  0  0  0  0  0
   77.5835   -9.2701   72.6380 H   0  0  0  0  0  0  0  0  0  0  0  0
  2  1  1  0
  2  3  1  0
  2  6  1  0
  3  4  2  0
  3  5  1  0
  6  7  1  0
  7  8  2  0
  7  9  1  0
  8 10  1  0
  9 11  2  0
 10 12  2  0
 10 14  1  0
 11 12  1  0
 12 13  1  0
  1 15  1  0
  1 16  1  0
  1 17  1  0
  2 18  1  1
  6 19  1  0
  6 20  1  0
  8 21  1  0
  9 22  1  0
 11 23  1  0
 13 24  1  0
M  CHG  2   1   1   5  -1
M  END
>  <filename_input>  (12) 
7KQU_YOF_docked.sdf

>  <pdb_id>  (12) 
7KQU_YOF

>  <pose_rank>  (12) 
11

>  <num_atoms_heavy>  (12) 
14

>  <num_torsions>  (12) 
3

>  <pose>  (12) 
[74.8708948411928, -9.577076143727286, 76.4990026351803, -2.698524556871782, 3.603516034628843, -0.4224147347923268, -0.34470142858266334, 0.8420943420997489, 2.6120518815886102]

>  <energy>  (12) 
-168.33805133430369

>  <inter_energy>  (12) 
-156.52829882582344

>  <intra_energy>  (12) 
4.636801589296762

>  <rmsd>  (12) 
10.0777

>  <sdf_rank>  (12) 
0

$$$$

     RDKit          3D

 24 24  0  0  0  0  0  0  0  0999 V2000
   61.6281    5.8394   68.6498 N   0  0  0  0  0  0  0  0  0  0  0  0
   62.8271    5.0632   68.3750 C   0  0  2  0  0  0  0  0  0  0  0  0
   62.5168    3.5799   68.2717 C   0  0  0  0  0  0  0  0  0  0  0  0
   62.8381    2.7741   67.3939 O   0  0  0  0  0  0  0  0  0  0  0  0
   61.7856    3.1018   69.3081 O   0  0  0  0  0  0  0  0  0  0  0  0
   63.9528    5.1575   69.4272 C   0  0  0  0  0  0  0  0  0  0  0  0
   65.2230    5.7044   68.8806 C   0  0  0  0  0  0  0  0  0  0  0  0
   65.9820    4.9055   68.0281 C   0  0  0  0  0  0  0  0  0  0  0  0
   65.6637    6.9942   69.1991 C   0  0  0  0  0  0  0  0  0  0  0  0
   67.1746    5.3716   67.4718 C   0  0  0  0  0  0  0  0  0  0  0  0
   66.8599    7.4652   68.6574 C   0  0  0  0  0  0  0  0  0  0  0  0
   67.6183    6.6667   67.7912 C   0  0  0  0  0  0  0  0  0  0  0  0
   68.7902    7.1738   67.2902 O   0  0  0  0  0  0  0  0  0  0  0  0
   67.9174    4.5908   66.6401 F   0  0  0  0  0  0  0  0  0  0  0  0
   61.4991    5.9229   69.6682 H   0  0  0  0  0  0  0  0  0  0  0  0
   61.7252    6.7785   68.2378 H   0  0  0  0  0  0  0  0  0  0  0  0
   60.8111    5.3665   68.2378 H   0  0  0  0  0  0  0  0  0  0  0  0
   63.1784    5.5110   67.4337 H   0  0  0  0  0  0  0  0  0  0  0  0
   63.6137    5.8116   70.2440 H   0  0  0  0  0  0  0  0  0  0  0  0
   64.1608    4.1349   69.7750 H   0  0  0  0  0  0  0  0  0  0  0  0
   65.6354    3.8892   67.7890 H   0  0  0  0  0  0  0  0  0  0  0  0
   65.0712    7.6319   69.8716 H   0  0  0  0  0  0  0  0  0  0  0  0
   67.2118    8.4755   68.9133 H   0  0  0  0  0  0  0  0  0  0  0  0
   69.0770    8.0897   67.5330 H   0  0  0  0  0  0  0  0  0  0  0  0
  2  1  1  0
  2  3  1  0
  2  6  1  0
  3  4  2  0
  3  5  1  0
  6  7  1  0
  7  8  2  0
  7  9  1  0
  8 10  1  0
  9 11  2  0
 10 12  2  0
 10 14  1  0
 11 12  1  0
 12 13  1  0
  1 15  1  0
  1 16  1  0
  1 17  1  0
  2 18  1  6
  6 19  1  0
  6 20  1  0
  8 21  1  0
  9 22  1  0
 11 23  1  0
 13 24  1  0
M  CHG  2   1   1   5  -1
M  END
>  <filename_input>  (13) 
7KQU_YOF_docked.sdf

>  <pdb_id>  (13) 
7KQU_YOF

>  <pose_rank>  (13) 
12

>  <num_atoms_heavy>  (13) 
14

>  <num_torsions>  (13) 
3

>  <pose>  (13) 
[65.22296487534688, 5.704399675166083, 68.88060913890062, -0.6302851556391066, 0.7730822047277168, -3.502563524037544, 2.84419655476954, -0.8158925494902208, -0.5795442175526514]

>  <energy>  (13) 
-166.38070684832002

>  <inter_energy>  (13) 
-142.9546390363923

>  <intra_energy>  (13) 
0.20135945564493413

>  <rmsd>  (13) 
12.3592

>  <sdf_rank>  (13) 
0

$$$$

     RDKit          3D

 24 24  0  0  0  0  0  0  0  0999 V2000
   76.2088   -9.3284   81.9695 N   0  0  0  0  0  0  0  0  0  0  0  0
   75.5411   -9.5820   80.7025 C   0  0  2  0  0  0  0  0  0  0  0  0
   74.3367  -10.4902   80.8815 C   0  0  0  0  0  0  0  0  0  0  0  0
   74.2955  -11.7175   81.0039 O   0  0  0  0  0  0  0  0  0  0  0  0
   73.1541   -9.8286   80.9118 O   0  0  0  0  0  0  0  0  0  0  0  0
   76.3921  -10.2672   79.6119 C   0  0  0  0  0  0  0  0  0  0  0  0
   75.8035  -10.1547   78.2510 C   0  0  0  0  0  0  0  0  0  0  0  0
   75.6433   -8.8870   77.6953 C   0  0  0  0  0  0  0  0  0  0  0  0
   75.4158  -11.2858   77.5233 C   0  0  0  0  0  0  0  0  0  0  0  0
   75.1117   -8.7209   76.4152 C   0  0  0  0  0  0  0  0  0  0  0  0
   74.8730  -11.1298   76.2478 C   0  0  0  0  0  0  0  0  0  0  0  0
   74.7216   -9.8562   75.6837 C   0  0  0  0  0  0  0  0  0  0  0  0
   74.1770   -9.7560   74.4288 O   0  0  0  0  0  0  0  0  0  0  0  0
   74.9534   -7.4825   75.8725 F   0  0  0  0  0  0  0  0  0  0  0  0
   75.5756   -9.5689   82.7455 H   0  0  0  0  0  0  0  0  0  0  0  0
   77.0604   -9.9046   82.0302 H   0  0  0  0  0  0  0  0  0  0  0  0
   76.4633   -8.3322   82.0302 H   0  0  0  0  0  0  0  0  0  0  0  0
   75.2860   -8.5646   80.3711 H   0  0  0  0  0  0  0  0  0  0  0  0
   77.3881   -9.8006   79.6014 H   0  0  0  0  0  0  0  0  0  0  0  0
   76.4392  -11.3379   79.8595 H   0  0  0  0  0  0  0  0  0  0  0  0
   75.9411   -8.0013   78.2757 H   0  0  0  0  0  0  0  0  0  0  0  0
   75.5382  -12.2905   77.9542 H   0  0  0  0  0  0  0  0  0  0  0  0
   74.5601  -12.0172   75.6780 H   0  0  0  0  0  0  0  0  0  0  0  0
   73.9117  -10.5736   73.9376 H   0  0  0  0  0  0  0  0  0  0  0  0
  2  1  1  0
  2  3  1  0
  2  6  1  0
  3  4  2  0
  3  5  1  0
  6  7  1  0
  7  8  2  0
  7  9  1  0
  8 10  1  0
  9 11  2  0
 10 12  2  0
 10 14  1  0
 11 12  1  0
 12 13  1  0
  1 15  1  0
  1 16  1  0
  1 17  1  0
  2 18  1  6
  6 19  1  0
  6 20  1  0
  8 21  1  0
  9 22  1  0
 11 23  1  0
 13 24  1  0
M  CHG  2   1   1   5  -1
M  END
>  <filename_input>  (14) 
7KQU_YOF_docked.sdf

>  <pdb_id>  (14) 
7KQU_YOF

>  <pose_rank>  (14) 
13

>  <num_atoms_heavy>  (14) 
14

>  <num_torsions>  (14) 
3

>  <pose>  (14) 
[75.80353727894106, -10.154650221634132, 78.25095994107691, 0.3136277441172548, -0.812287473682984, -0.7867007614190451, -1.0882689362788764, -1.5916772208765824, 2.0388030553347196]

>  <energy>  (14) 
-163.9337625332847

>  <inter_energy>  (14) 
-160.56936906880412

>  <intra_energy>  (14) 
1.2789580111285344

>  <rmsd>  (14) 
10.5255

>  <sdf_rank>  (14) 
0

$$$$

     RDKit          3D

 24 24  0  0  0  0  0  0  0  0999 V2000
   77.0905   -9.7740   71.3498 N   0  0  0  0  0  0  0  0  0  0  0  0
   77.3272   -9.8543   72.7827 C   0  0  2  0  0  0  0  0  0  0  0  0
   78.7931   -9.6371   73.1163 C   0  0  0  0  0  0  0  0  0  0  0  0
   79.5326   -8.6975   72.8109 O   0  0  0  0  0  0  0  0  0  0  0  0
   79.3366  -10.6314   73.8600 O   0  0  0  0  0  0  0  0  0  0  0  0
   76.9646  -11.1950   73.4566 C   0  0  0  0  0  0  0  0  0  0  0  0
   76.1605  -11.0302   74.6965 C   0  0  0  0  0  0  0  0  0  0  0  0
   76.7075  -11.4484   75.9077 C   0  0  0  0  0  0  0  0  0  0  0  0
   74.8801  -10.4650   74.6711 C   0  0  0  0  0  0  0  0  0  0  0  0
   76.0057  -11.3038   77.1059 C   0  0  0  0  0  0  0  0  0  0  0  0
   74.1662  -10.3266   75.8615 C   0  0  0  0  0  0  0  0  0  0  0  0
   74.7197  -10.7366   77.0815 C   0  0  0  0  0  0  0  0  0  0  0  0
   73.9745  -10.5846   78.2230 O   0  0  0  0  0  0  0  0  0  0  0  0
   76.5391  -11.7137   78.2895 F   0  0  0  0  0  0  0  0  0  0  0  0
   76.1286   -9.4478   71.1785 H   0  0  0  0  0  0  0  0  0  0  0  0
   77.7576   -9.1122   70.9281 H   0  0  0  0  0  0  0  0  0  0  0  0
   77.2175  -10.7051   70.9281 H   0  0  0  0  0  0  0  0  0  0  0  0
   76.6617   -9.0680   73.1685 H   0  0  0  0  0  0  0  0  0  0  0  0
   76.3859  -11.7995   72.7427 H   0  0  0  0  0  0  0  0  0  0  0  0
   77.9084  -11.6824   73.7421 H   0  0  0  0  0  0  0  0  0  0  0  0
   77.7102  -11.9005   75.9202 H   0  0  0  0  0  0  0  0  0  0  0  0
   74.4402  -10.1325   73.7193 H   0  0  0  0  0  0  0  0  0  0  0  0
   73.1566   -9.8903   75.8421 H   0  0  0  0  0  0  0  0  0  0  0  0
   73.0716  -10.1816   78.1747 H   0  0  0  0  0  0  0  0  0  0  0  0
  2  1  1  0
  2  3  1  0
  2  6  1  0
  3  4  2  0
  3  5  1  0
  6  7  1  0
  7  8  2  0
  7  9  1  0
  8 10  1  0
  9 11  2  0
 10 12  2  0
 10 14  1  0
 11 12  1  0
 12 13  1  0
  1 15  1  0
  1 16  1  0
  1 17  1  0
  2 18  1  1
  6 19  1  0
  6 20  1  0
  8 21  1  0
  9 22  1  0
 11 23  1  0
 13 24  1  0
M  CHG  2   1   1   5  -1
M  END
>  <filename_input>  (15) 
7KQU_YOF_docked.sdf

>  <pdb_id>  (15) 
7KQU_YOF

>  <pose_rank>  (15) 
14

>  <num_atoms_heavy>  (15) 
14

>  <num_torsions>  (15) 
3

>  <pose>  (15) 
[76.1604612241824, -11.030231146790667, 74.69647163961578, -2.48839674873279, -2.218572579526966, 1.8161801623520681, 2.0756867974472017, -1.0402737142656633, 4.378995113479603]

>  <energy>  (15) 
-98.59456255761359

>  <inter_energy>  (15) 
-94.38462086017748

>  <intra_energy>  (15) 
3.403304463534091

>  <rmsd>  (15) 
11.5559

>  <sdf_rank>  (15) 
0

$$$$

     RDKit          3D

 24 24  0  0  0  0  0  0  0  0999 V2000
   76.7937   -9.8461   66.8327 N   0  0  0  0  0  0  0  0  0  0  0  0
   75.7862  -10.4748   67.6726 C   0  0  2  0  0  0  0  0  0  0  0  0
   74.5644  -10.8793   66.8658 C   0  0  0  0  0  0  0  0  0  0  0  0
   73.4162  -11.1145   67.2524 O   0  0  0  0  0  0  0  0  0  0  0  0
   74.7993  -10.9840   65.5350 O   0  0  0  0  0  0  0  0  0  0  0  0
   75.2289   -9.6124   68.8253 C   0  0  0  0  0  0  0  0  0  0  0  0
   75.4528  -10.2113   70.1678 C   0  0  0  0  0  0  0  0  0  0  0  0
   75.8883   -9.3865   71.2029 C   0  0  0  0  0  0  0  0  0  0  0  0
   75.2324  -11.5722   70.4103 C   0  0  0  0  0  0  0  0  0  0  0  0
   76.0996   -9.8898   72.4879 C   0  0  0  0  0  0  0  0  0  0  0  0
   75.4515  -12.0870   71.6881 C   0  0  0  0  0  0  0  0  0  0  0  0
   75.8789  -11.2563   72.7324 C   0  0  0  0  0  0  0  0  0  0  0  0
   76.0859  -11.8125   73.9690 O   0  0  0  0  0  0  0  0  0  0  0  0
   76.5267   -9.0846   73.4991 F   0  0  0  0  0  0  0  0  0  0  0  0
   77.5072   -9.4009   67.4274 H   0  0  0  0  0  0  0  0  0  0  0  0
   77.2389  -10.5596   66.2381 H   0  0  0  0  0  0  0  0  0  0  0  0
   76.3484   -9.1327   66.2381 H   0  0  0  0  0  0  0  0  0  0  0  0
   76.3407  -11.3248   68.0970 H   0  0  0  0  0  0  0  0  0  0  0  0
   75.7206   -8.6289   68.7951 H   0  0  0  0  0  0  0  0  0  0  0  0
   74.1413   -9.5361   68.6793 H   0  0  0  0  0  0  0  0  0  0  0  0
   76.0689   -8.3198   71.0040 H   0  0  0  0  0  0  0  0  0  0  0  0
   74.8889  -12.2309   69.5990 H   0  0  0  0  0  0  0  0  0  0  0  0
   75.2868  -13.1579   71.8782 H   0  0  0  0  0  0  0  0  0  0  0  0
   75.9219  -12.7784   74.1111 H   0  0  0  0  0  0  0  0  0  0  0  0
  2  1  1  0
  2  3  1  0
  2  6  1  0
  3  4  2  0
  3  5  1  0
  6  7  1  0
  7  8  2  0
  7  9  1  0
  8 10  1  0
  9 11  2  0
 10 12  2  0
 10 14  1  0
 11 12  1  0
 12 13  1  0
  1 15  1  0
  1 16  1  0
  1 17  1  0
  2 18  1  1
  6 19  1  0
  6 20  1  0
  8 21  1  0
  9 22  1  0
 11 23  1  0
 13 24  1  0
M  CHG  2   1   1   5  -1
M  END
>  <filename_input>  (16) 
7KQU_YOF_docked.sdf

>  <pdb_id>  (16) 
7KQU_YOF

>  <pose_rank>  (16) 
15

>  <num_atoms_heavy>  (16) 
14

>  <num_torsions>  (16) 
3

>  <pose>  (16) 
[75.45277829950192, -10.211317059918052, 70.16781688742213, 0.4921840613413771, -4.1064484544832585, 0.43546452863725005, 6.487004521700255, -0.8351828529383449, 0.6410477549225359]

>  <energy>  (16) 
-61.286380032415366

>  <inter_energy>  (16) 
-62.2181993892434

>  <intra_energy>  (16) 
0.4855237650763545

>  <rmsd>  (16) 
12.5415

>  <sdf_rank>  (16) 
0

$$$$

     RDKit          3D

 24 24  0  0  0  0  0  0  0  0999 V2000
   64.6898    4.8264   66.8859 N   0  0  0  0  0  0  0  0  0  0  0  0
   64.0710    4.8780   68.2012 C   0  0  2  0  0  0  0  0  0  0  0  0
   62.7576    4.1155   68.2272 C   0  0  0  0  0  0  0  0  0  0  0  0
   61.6326    4.5087   68.5478 O   0  0  0  0  0  0  0  0  0  0  0  0
   62.8686    2.8235   67.8326 O   0  0  0  0  0  0  0  0  0  0  0  0
   63.7202    6.2846   68.7317 C   0  0  0  0  0  0  0  0  0  0  0  0
   64.4542    6.6434   69.9741 C   0  0  0  0  0  0  0  0  0  0  0  0
   65.8440    6.7304   69.9272 C   0  0  0  0  0  0  0  0  0  0  0  0
   63.7827    6.8973   71.1757 C   0  0  0  0  0  0  0  0  0  0  0  0
   66.5849    7.0791   71.0579 C   0  0  0  0  0  0  0  0  0  0  0  0
   64.5148    7.2355   72.3140 C   0  0  0  0  0  0  0  0  0  0  0  0
   65.9116    7.3340   72.2653 C   0  0  0  0  0  0  0  0  0  0  0  0
   66.5855    7.6637   73.4135 O   0  0  0  0  0  0  0  0  0  0  0  0
   67.9430    7.1626   71.0130 F   0  0  0  0  0  0  0  0  0  0  0  0
   65.7110    4.7413   66.9900 H   0  0  0  0  0  0  0  0  0  0  0  0
   64.3285    4.0126   66.3682 H   0  0  0  0  0  0  0  0  0  0  0  0
   64.4682    5.6888   66.3682 H   0  0  0  0  0  0  0  0  0  0  0  0
   64.8529    4.4395   68.8388 H   0  0  0  0  0  0  0  0  0  0  0  0
   63.9671    7.0227   67.9544 H   0  0  0  0  0  0  0  0  0  0  0  0
   62.6475    6.2832   68.9753 H   0  0  0  0  0  0  0  0  0  0  0  0
   66.3668    6.5205   68.9824 H   0  0  0  0  0  0  0  0  0  0  0  0
   62.6858    6.8307   71.2222 H   0  0  0  0  0  0  0  0  0  0  0  0
   63.9892    7.4272   73.2611 H   0  0  0  0  0  0  0  0  0  0  0  0
   66.0841    7.8377   74.2492 H   0  0  0  0  0  0  0  0  0  0  0  0
  2  1  1  0
  2  3  1  0
  2  6  1  0
  3  4  2  0
  3  5  1  0
  6  7  1  0
  7  8  2  0
  7  9  1  0
  8 10  1  0
  9 11  2  0
 10 12  2  0
 10 14  1  0
 11 12  1  0
 12 13  1  0
  1 15  1  0
  1 16  1  0
  1 17  1  0
  2 18  1  1
  6 19  1  0
  6 20  1  0
  8 21  1  0
  9 22  1  0
 11 23  1  0
 13 24  1  0
M  CHG  2   1   1   5  -1
M  END
>  <filename_input>  (17) 
7KQU_YOF_docked.sdf

>  <pdb_id>  (17) 
7KQU_YOF

>  <pose_rank>  (17) 
16

>  <num_atoms_heavy>  (17) 
14

>  <num_torsions>  (17) 
3

>  <pose>  (17) 
[64.45420671284715, 6.643447943671814, 69.97407935338715, -0.4796391011921541, -2.3350360622122683, 2.293773944531402, -1.082599756645745, -0.7839088620181004, 1.2660201826439603]

>  <energy>  (17) 
-158.79276832522243

>  <inter_energy>  (17) 
-147.62078485899298

>  <intra_energy>  (17) 
0.0

>  <rmsd>  (17) 
12.2267

>  <sdf_rank>  (17) 
0

$$$$

     RDKit          3D

 24 24  0  0  0  0  0  0  0  0999 V2000
   76.4010    5.9160   77.2534 N   0  0  0  0  0  0  0  0  0  0  0  0
   76.3496    6.0125   75.8030 C   0  0  2  0  0  0  0  0  0  0  0  0
   77.5822    5.3989   75.1616 C   0  0  0  0  0  0  0  0  0  0  0  0
   78.7380    5.3397   75.5903 O   0  0  0  0  0  0  0  0  0  0  0  0
   77.3461    4.8412   73.9491 O   0  0  0  0  0  0  0  0  0  0  0  0
   76.2716    7.4398   75.2200 C   0  0  0  0  0  0  0  0  0  0  0  0
   75.1961    7.6018   74.2060 C   0  0  0  0  0  0  0  0  0  0  0  0
   73.8739    7.4011   74.5969 C   0  0  0  0  0  0  0  0  0  0  0  0
   75.4831    7.9528   72.8817 C   0  0  0  0  0  0  0  0  0  0  0  0
   72.8216    7.5552   73.6925 C   0  0  0  0  0  0  0  0  0  0  0  0
   74.4394    8.0982   71.9676 C   0  0  0  0  0  0  0  0  0  0  0  0
   73.1086    7.9073   72.3622 C   0  0  0  0  0  0  0  0  0  0  0  0
   72.1193    8.0561   71.4239 O   0  0  0  0  0  0  0  0  0  0  0  0
   71.5296    7.3576   74.0735 F   0  0  0  0  0  0  0  0  0  0  0  0
   75.9579    6.7479   77.6688 H   0  0  0  0  0  0  0  0  0  0  0  0
   75.8984    5.0706   77.5593 H   0  0  0  0  0  0  0  0  0  0  0  0
   77.3830    5.8612   77.5593 H   0  0  0  0  0  0  0  0  0  0  0  0
   75.4155    5.4797   75.5717 H   0  0  0  0  0  0  0  0  0  0  0  0
   76.0839    8.1440   76.0439 H   0  0  0  0  0  0  0  0  0  0  0  0
   77.2286    7.6388   74.7153 H   0  0  0  0  0  0  0  0  0  0  0  0
   73.6553    7.1162   75.6366 H   0  0  0  0  0  0  0  0  0  0  0  0
   76.5240    8.1129   72.5641 H   0  0  0  0  0  0  0  0  0  0  0  0
   74.6638    8.3658   70.9245 H   0  0  0  0  0  0  0  0  0  0  0  0
   72.3521    8.3048   70.4943 H   0  0  0  0  0  0  0  0  0  0  0  0
  2  1  1  0
  2  3  1  0
  2  6  1  0
  3  4  2  0
  3  5  1  0
  6  7  1  0
  7  8  2  0
  7  9  1  0
  8 10  1  0
  9 11  2  0
 10 12  2  0
 10 14  1  0
 11 12  1  0
 12 13  1  0
  1 15  1  0
  1 16  1  0
  1 17  1  0
  2 18  1  6
  6 19  1  0
  6 20  1  0
  8 21  1  0
  9 22  1  0
 11 23  1  0
 13 24  1  0
M  CHG  2   1   1   5  -1
M  END
>  <filename_input>  (18) 
7KQU_YOF_docked.sdf

>  <pdb_id>  (18) 
7KQU_YOF

>  <pose_rank>  (18) 
17

>  <num_atoms_heavy>  (18) 
14

>  <num_torsions>  (18) 
3

>  <pose>  (18) 
[75.19613820341154, 7.601839920639348, 74.20598416396189, 1.5810767366667329, 0.17594621188319584, 0.290915931502542, -1.0963544525690527, -1.016785901094747, 2.8782172448709185]

>  <energy>  (18) 
-148.47521819952627

>  <inter_energy>  (18) 
-143.08970185637807

>  <intra_energy>  (18) 
0.25105975338827835

>  <rmsd>  (18) 
10.8517

>  <sdf_rank>  (18) 
0

$$$$

     RDKit          3D

 24 24  0  0  0  0  0  0  0  0999 V2000
   76.9039  -10.1983   70.7564 N   0  0  0  0  0  0  0  0  0  0  0  0
   75.7597  -10.0996   71.6490 C   0  0  2  0  0  0  0  0  0  0  0  0
   74.4666  -10.4545   70.9356 C   0  0  0  0  0  0  0  0  0  0  0  0
   74.2785  -10.7168   69.7444 O   0  0  0  0  0  0  0  0  0  0  0  0
   73.3839  -10.4837   71.7506 O   0  0  0  0  0  0  0  0  0  0  0  0
   75.4992   -8.7094   72.2675 C   0  0  0  0  0  0  0  0  0  0  0  0
   75.2086   -8.7603   73.7250 C   0  0  0  0  0  0  0  0  0  0  0  0
   75.6444   -9.8643   74.4547 C   0  0  0  0  0  0  0  0  0  0  0  0
   74.5170   -7.7295   74.3718 C   0  0  0  0  0  0  0  0  0  0  0  0
   75.4146   -9.9591   75.8285 C   0  0  0  0  0  0  0  0  0  0  0  0
   74.2725   -7.8201   75.7422 C   0  0  0  0  0  0  0  0  0  0  0  0
   74.7199   -8.9246   76.4790 C   0  0  0  0  0  0  0  0  0  0  0  0
   74.4486   -8.9690   77.8228 O   0  0  0  0  0  0  0  0  0  0  0  0
   75.8388  -11.0384   76.5416 F   0  0  0  0  0  0  0  0  0  0  0  0
   77.7677  -10.2728   71.3124 H   0  0  0  0  0  0  0  0  0  0  0  0
   76.8048  -11.0339   70.1623 H   0  0  0  0  0  0  0  0  0  0  0  0
   76.9494   -9.3581   70.1623 H   0  0  0  0  0  0  0  0  0  0  0  0
   76.0336  -10.8022   72.4498 H   0  0  0  0  0  0  0  0  0  0  0  0
   76.3909   -8.0846   72.1108 H   0  0  0  0  0  0  0  0  0  0  0  0
   74.6099   -8.2931   71.7718 H   0  0  0  0  0  0  0  0  0  0  0  0
   76.1790  -10.6758   73.9392 H   0  0  0  0  0  0  0  0  0  0  0  0
   74.1688   -6.8543   73.8036 H   0  0  0  0  0  0  0  0  0  0  0  0
   73.7219   -7.0147   76.2504 H   0  0  0  0  0  0  0  0  0  0  0  0
   73.9573   -8.2252   78.2535 H   0  0  0  0  0  0  0  0  0  0  0  0
  2  1  1  0
  2  3  1  0
  2  6  1  0
  3  4  2  0
  3  5  1  0
  6  7  1  0
  7  8  2  0
  7  9  1  0
  8 10  1  0
  9 11  2  0
 10 12  2  0
 10 14  1  0
 11 12  1  0
 12 13  1  0
  1 15  1  0
  1 16  1  0
  1 17  1  0
  2 18  1  1
  6 19  1  0
  6 20  1  0
  8 21  1  0
  9 22  1  0
 11 23  1  0
 13 24  1  0
M  CHG  2   1   1   5  -1
M  END
>  <filename_input>  (19) 
7KQU_YOF_docked.sdf

>  <pdb_id>  (19) 
7KQU_YOF

>  <pose_rank>  (19) 
18

>  <num_atoms_heavy>  (19) 
14

>  <num_torsions>  (19) 
3

>  <pose>  (19) 
[75.2085732727908, -8.760335364706055, 73.72495389598257, 2.2977063705080196, 1.5376319210911635, -1.6338361930663978, -1.785649226217874, -1.0829924972465987, 3.3454716800998296]

>  <energy>  (19) 
-157.19661362634946

>  <inter_energy>  (19) 
-150.0165574850622

>  <intra_energy>  (19) 
5.027874569059006

>  <rmsd>  (19) 
10.5452

>  <sdf_rank>  (19) 
0

$$$$

     RDKit          3D

 24 24  0  0  0  0  0  0  0  0999 V2000
   62.6222    4.1339   65.6588 N   0  0  0  0  0  0  0  0  0  0  0  0
   63.3390    4.6440   66.8170 C   0  0  2  0  0  0  0  0  0  0  0  0
   64.8119    4.2765   66.7647 C   0  0  0  0  0  0  0  0  0  0  0  0
   65.4169    3.5920   65.9350 O   0  0  0  0  0  0  0  0  0  0  0  0
   65.5397    4.7923   67.7852 O   0  0  0  0  0  0  0  0  0  0  0  0
   62.8553    4.1366   68.1924 C   0  0  0  0  0  0  0  0  0  0  0  0
   62.9083    5.1767   69.2538 C   0  0  0  0  0  0  0  0  0  0  0  0
   64.0868    5.9008   69.4210 C   0  0  0  0  0  0  0  0  0  0  0  0
   61.8072    5.4427   70.0761 C   0  0  0  0  0  0  0  0  0  0  0  0
   64.1894    6.9006   70.3901 C   0  0  0  0  0  0  0  0  0  0  0  0
   61.9034    6.4320   71.0549 C   0  0  0  0  0  0  0  0  0  0  0  0
   63.0844    7.1683   71.2167 C   0  0  0  0  0  0  0  0  0  0  0  0
   63.1302    8.1258   72.1978 O   0  0  0  0  0  0  0  0  0  0  0  0
   65.3413    7.6073   70.5550 F   0  0  0  0  0  0  0  0  0  0  0  0
   61.8229    3.5651   65.9729 H   0  0  0  0  0  0  0  0  0  0  0  0
   62.2803    4.9228   65.0917 H   0  0  0  0  0  0  0  0  0  0  0  0
   63.2556    3.5525   65.0917 H   0  0  0  0  0  0  0  0  0  0  0  0
   63.1472    5.7249   66.7465 H   0  0  0  0  0  0  0  0  0  0  0  0
   61.8153    3.7926   68.0919 H   0  0  0  0  0  0  0  0  0  0  0  0
   63.5321    3.3247   68.4971 H   0  0  0  0  0  0  0  0  0  0  0  0
   64.9518    5.6809   68.7781 H   0  0  0  0  0  0  0  0  0  0  0  0
   60.8729    4.8757   69.9515 H   0  0  0  0  0  0  0  0  0  0  0  0
   61.0418    6.6364   71.7075 H   0  0  0  0  0  0  0  0  0  0  0  0
   62.3358    8.2921   72.7646 H   0  0  0  0  0  0  0  0  0  0  0  0
  2  1  1  0
  2  3  1  0
  2  6  1  0
  3  4  2  0
  3  5  1  0
  6  7  1  0
  7  8  2  0
  7  9  1  0
  8 10  1  0
  9 11  2  0
 10 12  2  0
 10 14  1  0
 11 12  1  0
 12 13  1  0
  1 15  1  0
  1 16  1  0
  1 17  1  0
  2 18  1  1
  6 19  1  0
  6 20  1  0
  8 21  1  0
  9 22  1  0
 11 23  1  0
 13 24  1  0
M  CHG  2   1   1   5  -1
M  END
>  <filename_input>  (20) 
7KQU_YOF_docked.sdf

>  <pdb_id>  (20) 
7KQU_YOF

>  <pose_rank>  (20) 
19

>  <num_atoms_heavy>  (20) 
14

>  <num_torsions>  (20) 
3

>  <pose>  (20) 
[62.90826946070109, 5.17671218782889, 69.25376197159046, 0.15439044712194686, 1.4003660574692334, -1.941716717762027, -3.048649494286112, -1.226974005496238, -2.9094978949994217]

>  <energy>  (20) 
-46.46020123735568

>  <inter_energy>  (20) 
-111.70585737822498

>  <intra_energy>  (20) 
59.87820288308368

>  <rmsd>  (20) 
12.5016

>  <sdf_rank>  (20) 
0

$$$$

     RDKit          3D

 24 24  0  0  0  0  0  0  0  0999 V2000
   77.4947    5.6173   71.0411 N   0  0  0  0  0  0  0  0  0  0  0  0
   76.4176    6.4633   70.5514 C   0  0  2  0  0  0  0  0  0  0  0  0
   76.5857    6.7773   69.0748 C   0  0  0  0  0  0  0  0  0  0  0  0
   76.2327    7.7775   68.4440 O   0  0  0  0  0  0  0  0  0  0  0  0
   77.2215    5.8033   68.3787 O   0  0  0  0  0  0  0  0  0  0  0  0
   76.2732    7.8410   71.2328 C   0  0  0  0  0  0  0  0  0  0  0  0
   75.3878    7.8153   72.4272 C   0  0  0  0  0  0  0  0  0  0  0  0
   75.9683    7.9017   73.6908 C   0  0  0  0  0  0  0  0  0  0  0  0
   73.9970    7.7117   72.3076 C   0  0  0  0  0  0  0  0  0  0  0  0
   75.1861    7.8989   74.8472 C   0  0  0  0  0  0  0  0  0  0  0  0
   73.2075    7.6967   73.4575 C   0  0  0  0  0  0  0  0  0  0  0  0
   73.7894    7.7946   74.7283 C   0  0  0  0  0  0  0  0  0  0  0  0
   72.9698    7.7690   75.8278 O   0  0  0  0  0  0  0  0  0  0  0  0
   75.7530    7.9817   76.0822 F   0  0  0  0  0  0  0  0  0  0  0  0
   77.4917    5.6196   72.0711 H   0  0  0  0  0  0  0  0  0  0  0  0
   77.3580    4.6553   70.6996 H   0  0  0  0  0  0  0  0  0  0  0  0
   78.3969    5.9780   70.6996 H   0  0  0  0  0  0  0  0  0  0  0  0
   75.5289    5.8563   70.7790 H   0  0  0  0  0  0  0  0  0  0  0  0
   77.2711    8.1827   71.5449 H   0  0  0  0  0  0  0  0  0  0  0  0
   75.8133    8.5207   70.5003 H   0  0  0  0  0  0  0  0  0  0  0  0
   77.0624    7.9734   73.7789 H   0  0  0  0  0  0  0  0  0  0  0  0
   73.5301    7.6426   71.3140 H   0  0  0  0  0  0  0  0  0  0  0  0
   72.1150    7.6069   73.3655 H   0  0  0  0  0  0  0  0  0  0  0  0
   71.9893    7.6948   75.7127 H   0  0  0  0  0  0  0  0  0  0  0  0
  2  1  1  0
  2  3  1  0
  2  6  1  0
  3  4  2  0
  3  5  1  0
  6  7  1  0
  7  8  2  0
  7  9  1  0
  8 10  1  0
  9 11  2  0
 10 12  2  0
 10 14  1  0
 11 12  1  0
 12 13  1  0
  1 15  1  0
  1 16  1  0
  1 17  1  0
  2 18  1  6
  6 19  1  0
  6 20  1  0
  8 21  1  0
  9 22  1  0
 11 23  1  0
 13 24  1  0
M  CHG  2   1   1   5  -1
M  END
>  <filename_input>  (21) 
7KQU_YOF_docked.sdf

>  <pdb_id>  (21) 
7KQU_YOF

>  <pose_rank>  (21) 
20

>  <num_atoms_heavy>  (21) 
14

>  <num_torsions>  (21) 
3

>  <pose>  (21) 
[75.38780753311865, 7.815303220203345, 72.42715942962016, -2.1297892574541804, -3.01879210983711, 1.8956131687280753, -0.3190185388696618, -12.855049717521187, 7.095349377932651]

>  <energy>  (21) 
-149.82213818093325

>  <inter_energy>  (21) 
-129.5857360386137

>  <intra_energy>  (21) 
0.0

>  <rmsd>  (21) 
12.2695

>  <sdf_rank>  (21) 
0

$$$$

     RDKit          3D

 24 24  0  0  0  0  0  0  0  0999 V2000
   77.9538  -11.7602   74.1992 N   0  0  0  0  0  0  0  0  0  0  0  0
   77.6359  -10.4784   74.8087 C   0  0  2  0  0  0  0  0  0  0  0  0
   76.1856  -10.4209   75.2565 C   0  0  0  0  0  0  0  0  0  0  0  0
   75.2472  -11.1663   74.9619 O   0  0  0  0  0  0  0  0  0  0  0  0
   75.9161   -9.3972   76.1031 O   0  0  0  0  0  0  0  0  0  0  0  0
   77.8204   -9.2358   73.9115 C   0  0  0  0  0  0  0  0  0  0  0  0
   77.2923   -9.4226   72.5340 C   0  0  0  0  0  0  0  0  0  0  0  0
   75.9165   -9.5557   72.3586 C   0  0  0  0  0  0  0  0  0  0  0  0
   78.1411   -9.4622   71.4218 C   0  0  0  0  0  0  0  0  0  0  0  0
   75.3622   -9.7171   71.0875 C   0  0  0  0  0  0  0  0  0  0  0  0
   77.5980   -9.6344   70.1484 C   0  0  0  0  0  0  0  0  0  0  0  0
   76.2138   -9.7574   69.9698 C   0  0  0  0  0  0  0  0  0  0  0  0
   75.7303   -9.9311   68.6980 O   0  0  0  0  0  0  0  0  0  0  0  0
   74.0182   -9.8489   70.9157 F   0  0  0  0  0  0  0  0  0  0  0  0
   78.1268  -12.4577   74.9371 H   0  0  0  0  0  0  0  0  0  0  0  0
   77.1636  -12.0678   73.6145 H   0  0  0  0  0  0  0  0  0  0  0  0
   78.7961  -11.6629   73.6145 H   0  0  0  0  0  0  0  0  0  0  0  0
   78.3594  -10.4333   75.6361 H   0  0  0  0  0  0  0  0  0  0  0  0
   77.2942   -8.3886   74.3755 H   0  0  0  0  0  0  0  0  0  0  0  0
   78.9018   -9.0538   73.8244 H   0  0  0  0  0  0  0  0  0  0  0  0
   75.2552   -9.5333   73.2374 H   0  0  0  0  0  0  0  0  0  0  0  0
   79.2286   -9.3583   71.5508 H   0  0  0  0  0  0  0  0  0  0  0  0
   78.2645   -9.6741   69.2742 H   0  0  0  0  0  0  0  0  0  0  0  0
   76.3546   -9.9554   67.9301 H   0  0  0  0  0  0  0  0  0  0  0  0
  2  1  1  0
  2  3  1  0
  2  6  1  0
  3  4  2  0
  3  5  1  0
  6  7  1  0
  7  8  2  0
  7  9  1  0
  8 10  1  0
  9 11  2  0
 10 12  2  0
 10 14  1  0
 11 12  1  0
 12 13  1  0
  1 15  1  0
  1 16  1  0
  1 17  1  0
  2 18  1  1
  6 19  1  0
  6 20  1  0
  8 21  1  0
  9 22  1  0
 11 23  1  0
 13 24  1  0
M  CHG  2   1   1   5  -1
M  END
>  <filename_input>  (22) 
7KQU_YOF_docked.sdf

>  <pdb_id>  (22) 
7KQU_YOF

>  <pose_rank>  (22) 
21

>  <num_atoms_heavy>  (22) 
14

>  <num_torsions>  (22) 
3

>  <pose>  (22) 
[77.29227426621318, -9.422571687211883, 72.53403951075329, 1.1865573783763945, -0.1418190801262048, 0.5626566905952984, -1.0009144637639023, -29.38409512572295, 9.458067194626642]

>  <energy>  (22) 
-83.32575497160879

>  <inter_energy>  (22) 
-109.71164541057507

>  <intra_energy>  (22) 
25.233461064201038

>  <rmsd>  (22) 
11.1046

>  <sdf_rank>  (22) 
0

$$$$

     RDKit          3D

 24 24  0  0  0  0  0  0  0  0999 V2000
   64.2475    6.6734   67.3249 N   0  0  0  0  0  0  0  0  0  0  0  0
   64.1071    5.8436   68.5112 C   0  0  2  0  0  0  0  0  0  0  0  0
   63.4759    6.6153   69.6572 C   0  0  0  0  0  0  0  0  0  0  0  0
   62.8595    7.6842   69.6329 O   0  0  0  0  0  0  0  0  0  0  0  0
   63.6236    6.0174   70.8646 O   0  0  0  0  0  0  0  0  0  0  0  0
   65.4149    5.2692   69.0966 C   0  0  0  0  0  0  0  0  0  0  0  0
   66.3518    4.7655   68.0575 C   0  0  0  0  0  0  0  0  0  0  0  0
   67.4817    5.5220   67.7538 C   0  0  0  0  0  0  0  0  0  0  0  0
   66.1251    3.5567   67.3891 C   0  0  0  0  0  0  0  0  0  0  0  0
   68.4046    5.0912   66.7990 C   0  0  0  0  0  0  0  0  0  0  0  0
   67.0356    3.1230   66.4252 C   0  0  0  0  0  0  0  0  0  0  0  0
   68.1779    3.8775   66.1269 C   0  0  0  0  0  0  0  0  0  0  0  0
   69.0390    3.4107   65.1667 O   0  0  0  0  0  0  0  0  0  0  0  0
   69.5080    5.8308   66.5007 F   0  0  0  0  0  0  0  0  0  0  0  0
   64.4129    7.6502   67.6068 H   0  0  0  0  0  0  0  0  0  0  0  0
   65.0438    6.3384   66.7640 H   0  0  0  0  0  0  0  0  0  0  0  0
   63.3854    6.6192   66.7640 H   0  0  0  0  0  0  0  0  0  0  0  0
   63.4874    5.0148   68.1381 H   0  0  0  0  0  0  0  0  0  0  0  0
   65.9200    6.0622   69.6675 H   0  0  0  0  0  0  0  0  0  0  0  0
   65.1403    4.4134   69.7308 H   0  0  0  0  0  0  0  0  0  0  0  0
   67.6495    6.4757   68.2755 H   0  0  0  0  0  0  0  0  0  0  0  0
   65.2356    2.9531   67.6221 H   0  0  0  0  0  0  0  0  0  0  0  0
   66.8546    2.1775   65.8931 H   0  0  0  0  0  0  0  0  0  0  0  0
   68.8530    2.5521   64.7102 H   0  0  0  0  0  0  0  0  0  0  0  0
  2  1  1  0
  2  3  1  0
  2  6  1  0
  3  4  2  0
  3  5  1  0
  6  7  1  0
  7  8  2  0
  7  9  1  0
  8 10  1  0
  9 11  2  0
 10 12  2  0
 10 14  1  0
 11 12  1  0
 12 13  1  0
  1 15  1  0
  1 16  1  0
  1 17  1  0
  2 18  1  6
  6 19  1  0
  6 20  1  0
  8 21  1  0
  9 22  1  0
 11 23  1  0
 13 24  1  0
M  CHG  2   1   1   5  -1
M  END
>  <filename_input>  (23) 
7KQU_YOF_docked.sdf

>  <pdb_id>  (23) 
7KQU_YOF

>  <pose_rank>  (23) 
22

>  <num_atoms_heavy>  (23) 
14

>  <num_torsions>  (23) 
3

>  <pose>  (23) 
[66.35175145782664, 4.765467991843614, 68.05749521054202, 0.2018933676867531, -2.180257249882241, -0.9545258711346526, -0.33746286623661853, 0.5292816666564713, 3.7068467370829166]

>  <energy>  (23) 
-148.39560716090426

>  <inter_energy>  (23) 
-142.08825888096638

>  <intra_energy>  (23) 
1.8437780956511358

>  <rmsd>  (23) 
11.8393

>  <sdf_rank>  (23) 
0

$$$$

     RDKit          3D

 24 24  0  0  0  0  0  0  0  0999 V2000
   62.3505   -7.9136   83.2953 N   0  0  0  0  0  0  0  0  0  0  0  0
   62.6849   -7.4746   81.9495 C   0  0  2  0  0  0  0  0  0  0  0  0
   61.7979   -8.1405   80.9117 C   0  0  0  0  0  0  0  0  0  0  0  0
   60.5792   -8.0392   80.7453 O   0  0  0  0  0  0  0  0  0  0  0  0
   62.4701   -8.9517   80.0589 O   0  0  0  0  0  0  0  0  0  0  0  0
   64.1265   -7.7645   81.4795 C   0  0  0  0  0  0  0  0  0  0  0  0
   65.1622   -7.2903   82.4353 C   0  0  0  0  0  0  0  0  0  0  0  0
   65.9844   -8.2320   83.0505 C   0  0  0  0  0  0  0  0  0  0  0  0
   65.3281   -5.9305   82.7225 C   0  0  0  0  0  0  0  0  0  0  0  0
   66.9846   -7.8443   83.9440 C   0  0  0  0  0  0  0  0  0  0  0  0
   66.3173   -5.5338   83.6226 C   0  0  0  0  0  0  0  0  0  0  0  0
   67.1519   -6.4789   84.2334 C   0  0  0  0  0  0  0  0  0  0  0  0
   68.1051   -6.0382   85.1158 O   0  0  0  0  0  0  0  0  0  0  0  0
   67.7872   -8.7642   84.5466 F   0  0  0  0  0  0  0  0  0  0  0  0
   62.8161   -7.3024   83.9813 H   0  0  0  0  0  0  0  0  0  0  0  0
   61.3303   -7.8649   83.4287 H   0  0  0  0  0  0  0  0  0  0  0  0
   62.6683   -8.8842   83.4287 H   0  0  0  0  0  0  0  0  0  0  0  0
   62.5442   -6.3861   82.0227 H   0  0  0  0  0  0  0  0  0  0  0  0
   64.2404   -8.8511   81.3515 H   0  0  0  0  0  0  0  0  0  0  0  0
   64.2783   -7.2185   80.5366 H   0  0  0  0  0  0  0  0  0  0  0  0
   65.8431   -9.3000   82.8281 H   0  0  0  0  0  0  0  0  0  0  0  0
   64.6832   -5.1800   82.2419 H   0  0  0  0  0  0  0  0  0  0  0  0
   66.4434   -4.4662   83.8557 H   0  0  0  0  0  0  0  0  0  0  0  0
   68.1994   -5.0700   85.2996 H   0  0  0  0  0  0  0  0  0  0  0  0
  2  1  1  0
  2  3  1  0
  2  6  1  0
  3  4  2  0
  3  5  1  0
  6  7  1  0
  7  8  2  0
  7  9  1  0
  8 10  1  0
  9 11  2  0
 10 12  2  0
 10 14  1  0
 11 12  1  0
 12 13  1  0
  1 15  1  0
  1 16  1  0
  1 17  1  0
  2 18  1  1
  6 19  1  0
  6 20  1  0
  8 21  1  0
  9 22  1  0
 11 23  1  0
 13 24  1  0
M  CHG  2   1   1   5  -1
M  END
>  <filename_input>  (24) 
7KQU_YOF_docked.sdf

>  <pdb_id>  (24) 
7KQU_YOF

>  <pose_rank>  (24) 
23

>  <num_atoms_heavy>  (24) 
14

>  <num_torsions>  (24) 
3

>  <pose>  (24) 
[65.16215300396095, -7.290340735301344, 82.43534910312906, 1.584477196720127, 0.6391859475411558, -2.9856922653515388, -0.1499355158822583, 0.36470434549115177, -1.725458010168038]

>  <energy>  (24) 
-146.43223552772162

>  <inter_energy>  (24) 
-129.71714967702198

>  <intra_energy>  (24) 
0.23527142448082106

>  <rmsd>  (24) 
12.0379

>  <sdf_rank>  (24) 
0

$$$$

     RDKit          3D

 24 24  0  0  0  0  0  0  0  0999 V2000
   75.1387    7.1375   75.0569 N   0  0  0  0  0  0  0  0  0  0  0  0
   76.0634    6.3675   74.2398 C   0  0  2  0  0  0  0  0  0  0  0  0
   76.9998    5.5335   75.0970 C   0  0  0  0  0  0  0  0  0  0  0  0
   77.1776    5.5657   76.3178 O   0  0  0  0  0  0  0  0  0  0  0  0
   77.7265    4.6317   74.3928 O   0  0  0  0  0  0  0  0  0  0  0  0
   76.9951    7.1827   73.3175 C   0  0  0  0  0  0  0  0  0  0  0  0
   76.6758    7.0258   71.8737 C   0  0  0  0  0  0  0  0  0  0  0  0
   77.6405    6.4756   71.0323 C   0  0  0  0  0  0  0  0  0  0  0  0
   75.4365    7.4119   71.3501 C   0  0  0  0  0  0  0  0  0  0  0  0
   77.3911    6.2892   69.6714 C   0  0  0  0  0  0  0  0  0  0  0  0
   75.1816    7.2402   69.9893 C   0  0  0  0  0  0  0  0  0  0  0  0
   76.1469    6.6769   69.1444 C   0  0  0  0  0  0  0  0  0  0  0  0
   75.8496    6.5352   67.8129 O   0  0  0  0  0  0  0  0  0  0  0  0
   78.3339    5.7531   68.8486 F   0  0  0  0  0  0  0  0  0  0  0  0
   75.3397    6.9702   76.0531 H   0  0  0  0  0  0  0  0  0  0  0  0
   75.2491    8.1401   74.8481 H   0  0  0  0  0  0  0  0  0  0  0  0
   74.1727    6.8476   74.8481 H   0  0  0  0  0  0  0  0  0  0  0  0
   75.3779    5.7711   73.6197 H   0  0  0  0  0  0  0  0  0  0  0  0
   76.9046    8.2466   73.5817 H   0  0  0  0  0  0  0  0  0  0  0  0
   78.0167    6.8040   73.4688 H   0  0  0  0  0  0  0  0  0  0  0  0
   78.6161    6.1828   71.4478 H   0  0  0  0  0  0  0  0  0  0  0  0
   74.6690    7.8475   72.0068 H   0  0  0  0  0  0  0  0  0  0  0  0
   74.2112    7.5508   69.5748 H   0  0  0  0  0  0  0  0  0  0  0  0
   74.9645    6.8173   67.4706 H   0  0  0  0  0  0  0  0  0  0  0  0
  2  1  1  0
  2  3  1  0
  2  6  1  0
  3  4  2  0
  3  5  1  0
  6  7  1  0
  7  8  2  0
  7  9  1  0
  8 10  1  0
  9 11  2  0
 10 12  2  0
 10 14  1  0
 11 12  1  0
 12 13  1  0
  1 15  1  0
  1 16  1  0
  1 17  1  0
  2 18  1  6
  6 19  1  0
  6 20  1  0
  8 21  1  0
  9 22  1  0
 11 23  1  0
 13 24  1  0
M  CHG  2   1   1   5  -1
M  END
>  <filename_input>  (25) 
7KQU_YOF_docked.sdf

>  <pdb_id>  (25) 
7KQU_YOF

>  <pose_rank>  (25) 
24

>  <num_atoms_heavy>  (25) 
14

>  <num_torsions>  (25) 
3

>  <pose>  (25) 
[76.67582193447859, 7.025805234998762, 71.87370359855379, 1.5828406430231434, 1.8162788350802397, 2.627085631983484, 2.044702583735186, -0.6654009174432826, 3.250743779191489]

>  <energy>  (25) 
-144.30387047837314

>  <inter_energy>  (25) 
-136.12896183977566

>  <intra_energy>  (25) 
0.0

>  <rmsd>  (25) 
11.8928

>  <sdf_rank>  (25) 
0

$$$$

     RDKit          3D

 24 24  0  0  0  0  0  0  0  0999 V2000
   70.6150   -1.4660   77.5890 N   0  0  0  0  0  0  0  0  0  0  0  0
   71.3920   -1.5720   76.3640 C   0  0  2  0  0  0  0  0  0  0  0  0
   72.6550   -0.7310   76.4330 C   0  0  0  0  0  0  0  0  0  0  0  0
   73.6660   -0.7810   75.7270 O   0  0  0  0  0  0  0  0  0  0  0  0
   72.6370    0.2010   77.4170 O   0  0  0  0  0  0  0  0  0  0  0  0
   70.6850   -1.1150   75.0700 C   0  0  0  0  0  0  0  0  0  0  0  0
   69.6300   -2.0580   74.6130 C   0  0  0  0  0  0  0  0  0  0  0  0
   68.3400   -1.5710   74.4130 C   0  0  0  0  0  0  0  0  0  0  0  0
   69.9060   -3.4100   74.3780 C   0  0  0  0  0  0  0  0  0  0  0  0
   67.3130   -2.4060   73.9690 C   0  0  0  0  0  0  0  0  0  0  0  0
   68.8840   -4.2550   73.9450 C   0  0  0  0  0  0  0  0  0  0  0  0
   67.5890   -3.7640   73.7330 C   0  0  0  0  0  0  0  0  0  0  0  0
   66.6180   -4.6370   73.3130 O   0  0  0  0  0  0  0  0  0  0  0  0
   66.0520   -1.9310   73.7750 F   0  0  0  0  0  0  0  0  0  0  0  0
   71.2420   -1.5515   78.4017 H   0  0  0  0  0  0  0  0  0  0  0  0
   70.1401   -0.5524   77.6164 H   0  0  0  0  0  0  0  0  0  0  0  0
   69.9127   -2.2190   77.6164 H   0  0  0  0  0  0  0  0  0  0  0  0
   71.5805   -2.6542   76.3060 H   0  0  0  0  0  0  0  0  0  0  0  0
   70.2216   -0.1343   75.2528 H   0  0  0  0  0  0  0  0  0  0  0  0
   71.4483   -1.0712   74.2792 H   0  0  0  0  0  0  0  0  0  0  0  0
   68.1269   -0.5097   74.6084 H   0  0  0  0  0  0  0  0  0  0  0  0
   70.9214   -3.8033   74.5336 H   0  0  0  0  0  0  0  0  0  0  0  0
   69.0974   -5.3195   73.7679 H   0  0  0  0  0  0  0  0  0  0  0  0
   66.8423   -5.5882   73.1549 H   0  0  0  0  0  0  0  0  0  0  0  0
  2  1  1  0
  2  3  1  0
  2  6  1  0
  3  4  2  0
  3  5  1  0
  6  7  1  0
  7  8  2  0
  7  9  1  0
  8 10  1  0
  9 11  2  0
 10 12  2  0
 10 14  1  0
 11 12  1  0
 12 13  1  0
  1 15  1  0
  1 16  1  0
  1 17  1  0
  2 18  1  6
  6 19  1  0
  6 20  1  0
  8 21  1  0
  9 22  1  0
 11 23  1  0
 13 24  1  0
M  CHG  2   1   1   5  -1
M  END
>  <filename_input>  (26) 
7KQU_YOF_docked.sdf

>  <pdb_id>  (26) 
7KQU_YOF

>  <pose_rank>  (26) 
25

>  <num_atoms_heavy>  (26) 
14

>  <num_torsions>  (26) 
3

>  <pose>  (26) 
[69.63, -2.058, 74.613, 1e-06, 1e-06, 1e-06, 0.0, 0.0, 0.0]

>  <energy>  (26) 
-772.7085676175129

>  <inter_energy>  (26) 
-764.2530903348095

>  <intra_energy>  (26) 
0.0

>  <rmsd>  (26) 
0.0

>  <sdf_rank>  (26) 
0

$$$$
