
     RDKit          3D

 43 45  0  0  0  0  0  0  0  0999 V2000
   50.0623   43.2411  209.1655 P   0  0  2  0  0  0  0  0  0  0  0  0
   48.7985   42.5621  209.6228 O   0  0  0  0  0  0  0  0  0  0  0  0
   51.3096   42.3996  209.2911 O   0  0  0  0  0  0  0  0  0  0  0  0
   50.2468   44.6518  209.5954 O   0  0  0  0  0  0  0  0  0  0  0  0
   50.2470   42.3962  206.3662 P   0  0  1  0  0  0  0  0  0  0  0  0
   51.5714   42.7690  205.7526 O   0  0  0  0  0  0  0  0  0  0  0  0
   50.0728   40.9708  206.8597 O   0  0  0  0  0  0  0  0  0  0  0  0
   49.8489   43.4338  207.5502 O   0  0  0  0  0  0  0  0  0  0  0  0
   48.8590   42.0034  203.9040 P   0  0  2  0  0  0  0  0  0  0  0  0
   50.1602   41.3352  203.5143 O   0  0  0  0  0  0  0  0  0  0  0  0
   48.1783   42.9678  202.9552 O   0  0  0  0  0  0  0  0  0  0  0  0
   49.0207   42.7126  205.3472 O   0  0  0  0  0  0  0  0  0  0  0  0
   47.7899   40.8816  204.3331 O   0  0  0  0  0  0  0  0  0  0  0  0
   47.3297   39.9038  203.3794 C   0  0  0  0  0  0  0  0  0  0  0  0
   46.2090   39.0508  203.9648 C   0  0  1  0  0  0  0  0  0  0  0  0
   44.9926   39.3667  203.2749 O   0  0  0  0  0  0  0  0  0  0  0  0
   46.4442   37.5530  203.7988 C   0  0  1  0  0  0  0  0  0  0  0  0
   46.0346   36.8899  204.9890 O   0  0  0  0  0  0  0  0  0  0  0  0
   45.5620   37.1765  202.6155 C   0  0  1  0  0  0  0  0  0  0  0  0
   45.1255   35.8163  202.6506 O   0  0  0  0  0  0  0  0  0  0  0  0
   44.4143   38.1616  202.7845 C   0  0  2  0  0  0  0  0  0  0  0  0
   43.7232   38.5104  201.5327 N   0  0  0  0  0  0  0  0  0  0  0  0
   44.2874   38.8750  200.3592 C   0  0  0  0  0  0  0  0  0  0  0  0
   43.3252   39.1489  199.4238 N   0  0  0  0  0  0  0  0  0  0  0  0
   42.1350   38.9514  200.0431 C   0  0  0  0  0  0  0  0  0  0  0  0
   40.7224   39.0601  199.6505 C   0  0  0  0  0  0  0  0  0  0  0  0
   40.4117   39.4419  198.3888 N   0  0  0  0  0  0  0  0  0  0  0  0
   39.7972   38.7634  200.5724 N   0  0  0  0  0  0  0  0  0  0  0  0
   40.1095   38.3833  201.8189 C   0  0  0  0  0  0  0  0  0  0  0  0
   41.3729   38.2731  202.2485 N   0  0  0  0  0  0  0  0  0  0  0  0
   42.3992   38.5307  201.4142 C   0  0  0  0  0  0  0  0  0  0  0  0
   46.9560   40.4230  202.4845 H   0  0  0  0  0  0  0  0  0  0  0  0
   48.1716   39.2448  203.1208 H   0  0  0  0  0  0  0  0  0  0  0  0
   46.1641   39.2745  205.0409 H   0  0  0  0  0  0  0  0  0  0  0  0
   47.4947   37.2765  203.6254 H   0  0  0  0  0  0  0  0  0  0  0  0
   46.3499   37.4004  205.7764 H   0  0  0  0  0  0  0  0  0  0  0  0
   46.0737   37.2377  201.6437 H   0  0  0  0  0  0  0  0  0  0  0  0
   45.0317   35.5240  203.5918 H   0  0  0  0  0  0  0  0  0  0  0  0
   43.6721   37.6930  203.4476 H   0  0  0  0  0  0  0  0  0  0  0  0
   45.3707   38.9424  200.1804 H   0  0  0  0  0  0  0  0  0  0  0  0
   39.4254   39.5214  198.1029 H   0  0  0  0  0  0  0  0  0  0  0  0
   41.1618   39.6527  197.7151 H   0  0  0  0  0  0  0  0  0  0  0  0
   39.2932   38.1520  202.5190 H   0  0  0  0  0  0  0  0  0  0  0  0
  1  2  2  0
  1  3  1  6
  1  4  1  0
  1  8  1  0
  5  6  2  0
  5  7  1  1
  5  8  1  0
  5 12  1  0
  9 10  2  0
  9 11  1  6
  9 12  1  0
  9 13  1  0
 13 14  1  0
 15 14  1  0
 15 16  1  0
 15 17  1  0
 16 21  1  0
 17 18  1  0
 17 19  1  0
 19 20  1  0
 19 21  1  0
 21 22  1  0
 22 23  1  0
 22 31  1  0
 23 24  2  0
 24 25  1  0
 25 26  2  0
 25 31  1  0
 26 27  1  0
 26 28  1  0
 28 29  2  0
 29 30  1  0
 30 31  2  0
 14 32  1  0
 14 33  1  0
 15 34  1  1
 17 35  1  6
 18 36  1  0
 19 37  1  6
 20 38  1  0
 21 39  1  1
 23 40  1  0
 27 41  1  0
 27 42  1  0
 29 43  1  0
M  CHG  4   3  -1   4  -1   7  -1  11  -1
M  END
>  <filename_input>  (1) 
7KRU_ATP_docked.sdf

>  <pdb_id>  (1) 
7KRU_ATP

>  <pose_rank>  (1) 
0

>  <num_atoms_heavy>  (1) 
31

>  <num_torsions>  (1) 
8

>  <pose>  (1) 
[46.20897197426303, 39.05083063776983, 203.96479362567962, -2.4825379859852355, -0.28307579884490874, 5.8474254653918, 0.1254865648951983, 0.985499762756961, 0.4788729613140724, 4.232019627272638, -1.3170995184696683, 0.33955909299177567, 4.944374236050594, -0.32747700932012913]

>  <energy>  (1) 
-1005.2704001746414

>  <inter_energy>  (1) 
-1000.9339199928588

>  <intra_energy>  (1) 
7.690762641940326

>  <rmsd>  (1) 
1.08723

>  <sdf_rank>  (1) 
0

$$$$

     RDKit          3D

 43 45  0  0  0  0  0  0  0  0999 V2000
   50.8959   44.4889  203.5759 P   0  0  2  0  0  0  0  0  0  0  0  0
   51.6197   44.7980  202.2921 O   0  0  0  0  0  0  0  0  0  0  0  0
   49.5855   45.2181  203.7508 O   0  0  0  0  0  0  0  0  0  0  0  0
   51.7258   44.4465  204.8080 O   0  0  0  0  0  0  0  0  0  0  0  0
   50.0446   41.8825  204.6084 P   0  0  1  0  0  0  0  0  0  0  0  0
   51.2336   41.0964  205.0961 O   0  0  0  0  0  0  0  0  0  0  0  0
   49.2123   42.6200  205.6424 O   0  0  0  0  0  0  0  0  0  0  0  0
   50.4787   42.9091  203.4275 O   0  0  0  0  0  0  0  0  0  0  0  0
   47.7334   41.5097  202.9768 P   0  0  2  0  0  0  0  0  0  0  0  0
   48.1277   41.9881  201.5958 O   0  0  0  0  0  0  0  0  0  0  0  0
   46.9627   42.4183  203.9117 O   0  0  0  0  0  0  0  0  0  0  0  0
   49.0342   40.9422  203.7498 O   0  0  0  0  0  0  0  0  0  0  0  0
   46.9328   40.1208  202.8526 O   0  0  0  0  0  0  0  0  0  0  0  0
   47.2626   39.0051  203.7036 C   0  0  0  0  0  0  0  0  0  0  0  0
   46.0069   38.2572  204.1397 C   0  0  1  0  0  0  0  0  0  0  0  0
   44.8824   38.8224  203.4531 O   0  0  0  0  0  0  0  0  0  0  0  0
   46.0428   36.7713  203.7970 C   0  0  1  0  0  0  0  0  0  0  0  0
   45.4855   36.0372  204.8808 O   0  0  0  0  0  0  0  0  0  0  0  0
   45.1793   36.6669  202.5465 C   0  0  1  0  0  0  0  0  0  0  0  0
   44.5592   35.3882  202.3973 O   0  0  0  0  0  0  0  0  0  0  0  0
   44.1702   37.7783  202.7973 C   0  0  2  0  0  0  0  0  0  0  0  0
   43.5988   38.3675  201.5756 N   0  0  0  0  0  0  0  0  0  0  0  0
   44.2666   38.9732  200.5679 C   0  0  0  0  0  0  0  0  0  0  0  0
   43.3959   39.4203  199.6098 N   0  0  0  0  0  0  0  0  0  0  0  0
   42.1563   39.0836  200.0450 C   0  0  0  0  0  0  0  0  0  0  0  0
   40.7883   39.2515  199.5336 C   0  0  0  0  0  0  0  0  0  0  0  0
   40.5948   39.8801  198.3497 N   0  0  0  0  0  0  0  0  0  0  0  0
   39.7849   38.7591  200.2715 N   0  0  0  0  0  0  0  0  0  0  0  0
   39.9814   38.1352  201.4411 C   0  0  0  0  0  0  0  0  0  0  0  0
   41.1975   37.9562  201.9722 N   0  0  0  0  0  0  0  0  0  0  0  0
   42.2938   38.3938  201.3224 C   0  0  0  0  0  0  0  0  0  0  0  0
   47.9188   38.3150  203.1531 H   0  0  0  0  0  0  0  0  0  0  0  0
   47.7703   39.3884  204.6010 H   0  0  0  0  0  0  0  0  0  0  0  0
   45.9380   38.3561  205.2331 H   0  0  0  0  0  0  0  0  0  0  0  0
   47.0529   36.3706  203.6266 H   0  0  0  0  0  0  0  0  0  0  0  0
   45.7862   36.4333  205.7368 H   0  0  0  0  0  0  0  0  0  0  0  0
   45.7437   36.7692  201.6079 H   0  0  0  0  0  0  0  0  0  0  0  0
   44.3735   35.0052  203.2911 H   0  0  0  0  0  0  0  0  0  0  0  0
   43.3378   37.3450  203.3711 H   0  0  0  0  0  0  0  0  0  0  0  0
   45.3594   39.0906  200.5235 H   0  0  0  0  0  0  0  0  0  0  0  0
   39.6406   40.0032  197.9819 H   0  0  0  0  0  0  0  0  0  0  0  0
   41.4018   40.2350  197.8171 H   0  0  0  0  0  0  0  0  0  0  0  0
   39.1066   37.7538  201.9880 H   0  0  0  0  0  0  0  0  0  0  0  0
  1  2  2  0
  1  3  1  1
  1  4  1  0
  1  8  1  0
  5  6  2  0
  5  7  1  1
  5  8  1  0
  5 12  1  0
  9 10  2  0
  9 11  1  1
  9 12  1  0
  9 13  1  0
 13 14  1  0
 15 14  1  0
 15 16  1  0
 15 17  1  0
 16 21  1  0
 17 18  1  0
 17 19  1  0
 19 20  1  0
 19 21  1  0
 21 22  1  0
 22 23  1  0
 22 31  1  0
 23 24  2  0
 24 25  1  0
 25 26  2  0
 25 31  1  0
 26 27  1  0
 26 28  1  0
 28 29  2  0
 29 30  1  0
 30 31  2  0
 14 32  1  0
 14 33  1  0
 15 34  1  1
 17 35  1  6
 18 36  1  0
 19 37  1  6
 20 38  1  0
 21 39  1  1
 23 40  1  0
 27 41  1  0
 27 42  1  0
 29 43  1  0
M  CHG  4   3  -1   4  -1   7  -1  11  -1
M  END
>  <filename_input>  (2) 
7KRU_ATP_docked.sdf

>  <pdb_id>  (2) 
7KRU_ATP

>  <pose_rank>  (2) 
1

>  <num_atoms_heavy>  (2) 
31

>  <num_torsions>  (2) 
8

>  <pose>  (2) 
[46.00690971210832, 38.2571762943692, 204.13969178902414, -4.4505030128455365, 2.3817754114858425, 3.526730910471145, 6.213327695874174, 5.419963720452832, -0.3071914557282796, 7.659961643323691, 0.45760762833424246, -3.7870027834880466, -1.2801034480918123, -2.2263701347540623]

>  <energy>  (2) 
-1057.3630123765686

>  <inter_energy>  (2) 
-1063.3772761399152

>  <intra_energy>  (2) 
13.40386817110482

>  <rmsd>  (2) 
2.1384

>  <sdf_rank>  (2) 
0

$$$$

     RDKit          3D

 43 45  0  0  0  0  0  0  0  0999 V2000
   49.6151   43.9485  200.7911 P   0  0  2  0  0  0  0  0  0  0  0  0
   48.6530   44.8079  201.5678 O   0  0  0  0  0  0  0  0  0  0  0  0
   50.4434   44.6939  199.7723 O   0  0  0  0  0  0  0  0  0  0  0  0
   49.0899   42.6482  200.2990 O   0  0  0  0  0  0  0  0  0  0  0  0
   50.4203   43.1376  203.4889 P   0  0  1  0  0  0  0  0  0  0  0  0
   51.5392   42.3184  204.0777 O   0  0  0  0  0  0  0  0  0  0  0  0
   50.0391   44.4258  204.1965 O   0  0  0  0  0  0  0  0  0  0  0  0
   50.6949   43.4414  201.9175 O   0  0  0  0  0  0  0  0  0  0  0  0
   48.2483   41.6455  204.5839 P   0  0  2  0  0  0  0  0  0  0  0  0
   47.5491   42.7648  205.3253 O   0  0  0  0  0  0  0  0  0  0  0  0
   49.1370   40.6709  205.3283 O   0  0  0  0  0  0  0  0  0  0  0  0
   49.0676   42.2504  203.3291 O   0  0  0  0  0  0  0  0  0  0  0  0
   47.1655   40.8005  203.7479 O   0  0  0  0  0  0  0  0  0  0  0  0
   47.3557   39.3908  203.5152 C   0  0  0  0  0  0  0  0  0  0  0  0
   46.1432   38.5894  203.9777 C   0  0  1  0  0  0  0  0  0  0  0  0
   44.9823   39.0986  203.3083 O   0  0  0  0  0  0  0  0  0  0  0  0
   46.2405   37.1046  203.6425 C   0  0  1  0  0  0  0  0  0  0  0  0
   45.7364   36.3528  204.7401 O   0  0  0  0  0  0  0  0  0  0  0  0
   45.3608   36.9532  202.4083 C   0  0  1  0  0  0  0  0  0  0  0  0
   44.7970   35.6468  202.2771 O   0  0  0  0  0  0  0  0  0  0  0  0
   44.3069   38.0193  202.6709 C   0  0  2  0  0  0  0  0  0  0  0  0
   43.6878   38.5743  201.4564 N   0  0  0  0  0  0  0  0  0  0  0  0
   44.3120   39.1845  200.4239 C   0  0  0  0  0  0  0  0  0  0  0  0
   43.4047   39.5927  199.4825 N   0  0  0  0  0  0  0  0  0  0  0  0
   42.1869   39.2265  199.9538 C   0  0  0  0  0  0  0  0  0  0  0  0
   40.8021   39.3475  199.4754 C   0  0  0  0  0  0  0  0  0  0  0  0
   40.5605   39.9534  198.2885 N   0  0  0  0  0  0  0  0  0  0  0  0
   39.8324   38.8369  200.2454 N   0  0  0  0  0  0  0  0  0  0  0  0
   40.0766   38.2357  201.4178 C   0  0  0  0  0  0  0  0  0  0  0  0
   41.3103   38.0995  201.9200 N   0  0  0  0  0  0  0  0  0  0  0  0
   42.3767   38.5592  201.2365 C   0  0  0  0  0  0  0  0  0  0  0  0
   47.5088   39.2217  202.4391 H   0  0  0  0  0  0  0  0  0  0  0  0
   48.2338   39.0575  204.0877 H   0  0  0  0  0  0  0  0  0  0  0  0
   46.0891   38.6919  205.0716 H   0  0  0  0  0  0  0  0  0  0  0  0
   47.2647   36.7490  203.4564 H   0  0  0  0  0  0  0  0  0  0  0  0
   46.0205   36.7765  205.5886 H   0  0  0  0  0  0  0  0  0  0  0  0
   45.9035   37.0751  201.4592 H   0  0  0  0  0  0  0  0  0  0  0  0
   44.6329   35.2664  203.1763 H   0  0  0  0  0  0  0  0  0  0  0  0
   43.5052   37.5523  203.2620 H   0  0  0  0  0  0  0  0  0  0  0  0
   45.3995   39.3329  200.3500 H   0  0  0  0  0  0  0  0  0  0  0  0
   39.5942   40.0437  197.9436 H   0  0  0  0  0  0  0  0  0  0  0  0
   41.3432   40.3239  197.7307 H   0  0  0  0  0  0  0  0  0  0  0  0
   39.2273   37.8371  201.9921 H   0  0  0  0  0  0  0  0  0  0  0  0
  1  2  2  0
  1  3  1  6
  1  4  1  0
  1  8  1  0
  5  6  2  0
  5  7  1  1
  5  8  1  0
  5 12  1  0
  9 10  2  0
  9 11  1  1
  9 12  1  0
  9 13  1  0
 13 14  1  0
 15 14  1  0
 15 16  1  0
 15 17  1  0
 16 21  1  0
 17 18  1  0
 17 19  1  0
 19 20  1  0
 19 21  1  0
 21 22  1  0
 22 23  1  0
 22 31  1  0
 23 24  2  0
 24 25  1  0
 25 26  2  0
 25 31  1  0
 26 27  1  0
 26 28  1  0
 28 29  2  0
 29 30  1  0
 30 31  2  0
 14 32  1  0
 14 33  1  0
 15 34  1  1
 17 35  1  6
 18 36  1  0
 19 37  1  6
 20 38  1  0
 21 39  1  1
 23 40  1  0
 27 41  1  0
 27 42  1  0
 29 43  1  0
M  CHG  4   3  -1   4  -1   7  -1  11  -1
M  END
>  <filename_input>  (3) 
7KRU_ATP_docked.sdf

>  <pdb_id>  (3) 
7KRU_ATP

>  <pose_rank>  (3) 
2

>  <num_atoms_heavy>  (3) 
31

>  <num_torsions>  (3) 
8

>  <pose>  (3) 
[46.14320086791418, 38.58936646923802, 203.97772035423915, -5.611297976714086, 1.9058382038763724, 1.7852518102353951, -0.05008011915349463, 0.018182857751487817, -0.579400317460245, -3.542211055499392, 0.19168536501629277, 0.3921296868597261, 3.2145827916464897, 1.7962314073430392]

>  <energy>  (3) 
-998.8950106074494

>  <inter_energy>  (3) 
-1008.4345739432404

>  <intra_energy>  (3) 
13.379721937973184

>  <rmsd>  (3) 
3.21248

>  <sdf_rank>  (3) 
0

$$$$

     RDKit          3D

 43 45  0  0  0  0  0  0  0  0999 V2000
   50.7031   42.4020  207.2906 P   0  0  2  0  0  0  0  0  0  0  0  0
   49.8808   42.6821  208.5206 O   0  0  0  0  0  0  0  0  0  0  0  0
   51.1937   40.9790  207.1723 O   0  0  0  0  0  0  0  0  0  0  0  0
   51.7267   43.4190  206.9348 O   0  0  0  0  0  0  0  0  0  0  0  0
   49.9559   42.5246  204.4603 P   0  0  1  0  0  0  0  0  0  0  0  0
   50.6464   43.7842  204.0062 O   0  0  0  0  0  0  0  0  0  0  0  0
   50.6100   41.1975  204.1192 O   0  0  0  0  0  0  0  0  0  0  0  0
   49.6418   42.5826  206.0524 O   0  0  0  0  0  0  0  0  0  0  0  0
   47.9730   43.0443  202.4751 P   0  0  2  0  0  0  0  0  0  0  0  0
   49.1510   43.0265  201.5245 O   0  0  0  0  0  0  0  0  0  0  0  0
   47.1740   44.3142  202.6817 O   0  0  0  0  0  0  0  0  0  0  0  0
   48.4254   42.4681  203.9156 O   0  0  0  0  0  0  0  0  0  0  0  0
   46.9517   41.8662  202.0821 O   0  0  0  0  0  0  0  0  0  0  0  0
   47.3019   40.4862  202.3066 C   0  0  0  0  0  0  0  0  0  0  0  0
   47.0127   39.6384  201.0722 C   0  0  1  0  0  0  0  0  0  0  0  0
   45.9738   38.7056  201.3975 O   0  0  0  0  0  0  0  0  0  0  0  0
   46.5252   40.4572  199.8813 C   0  0  1  0  0  0  0  0  0  0  0  0
   47.1257   39.9463  198.6970 O   0  0  0  0  0  0  0  0  0  0  0  0
   45.0177   40.2393  199.8843 C   0  0  1  0  0  0  0  0  0  0  0  0
   44.4303   40.3586  198.5872 O   0  0  0  0  0  0  0  0  0  0  0  0
   44.9306   38.8234  200.4357 C   0  0  2  0  0  0  0  0  0  0  0  0
   43.6756   38.5228  201.1435 N   0  0  0  0  0  0  0  0  0  0  0  0
   43.5360   38.0937  202.4181 C   0  0  0  0  0  0  0  0  0  0  0  0
   42.2149   37.8964  202.7207 N   0  0  0  0  0  0  0  0  0  0  0  0
   41.5233   38.2089  201.5967 C   0  0  0  0  0  0  0  0  0  0  0  0
   40.1041   38.2239  201.2136 C   0  0  0  0  0  0  0  0  0  0  0  0
   39.1680   37.8559  202.1205 N   0  0  0  0  0  0  0  0  0  0  0  0
   39.8011   38.6149  199.9690 N   0  0  0  0  0  0  0  0  0  0  0  0
   40.7307   38.9809  199.0759 C   0  0  0  0  0  0  0  0  0  0  0  0
   42.0409   38.9815  199.3517 N   0  0  0  0  0  0  0  0  0  0  0  0
   42.4781   38.6212  200.5744 C   0  0  0  0  0  0  0  0  0  0  0  0
   48.3742   40.4217  202.5436 H   0  0  0  0  0  0  0  0  0  0  0  0
   46.6975   40.1039  203.1424 H   0  0  0  0  0  0  0  0  0  0  0  0
   47.9570   39.1499  200.7899 H   0  0  0  0  0  0  0  0  0  0  0  0
   46.7804   41.5260  199.9323 H   0  0  0  0  0  0  0  0  0  0  0  0
   47.8566   39.3242  198.9396 H   0  0  0  0  0  0  0  0  0  0  0  0
   44.4624   40.9887  200.4674 H   0  0  0  0  0  0  0  0  0  0  0  0
   43.4643   40.5549  198.6792 H   0  0  0  0  0  0  0  0  0  0  0  0
   44.9979   38.1323  199.5825 H   0  0  0  0  0  0  0  0  0  0  0  0
   44.3693   37.9260  203.1163 H   0  0  0  0  0  0  0  0  0  0  0  0
   38.1707   37.8626  201.8629 H   0  0  0  0  0  0  0  0  0  0  0  0
   39.4533   37.5694  203.0678 H   0  0  0  0  0  0  0  0  0  0  0  0
   40.4034   39.2942  198.0735 H   0  0  0  0  0  0  0  0  0  0  0  0
  1  2  2  0
  1  3  1  1
  1  4  1  0
  1  8  1  0
  5  6  2  0
  5  7  1  1
  5  8  1  0
  5 12  1  0
  9 10  2  0
  9 11  1  1
  9 12  1  0
  9 13  1  0
 13 14  1  0
 15 14  1  0
 15 16  1  0
 15 17  1  0
 16 21  1  0
 17 18  1  0
 17 19  1  0
 19 20  1  0
 19 21  1  0
 21 22  1  0
 22 23  1  0
 22 31  1  0
 23 24  2  0
 24 25  1  0
 25 26  2  0
 25 31  1  0
 26 27  1  0
 26 28  1  0
 28 29  2  0
 29 30  1  0
 30 31  2  0
 14 32  1  0
 14 33  1  0
 15 34  1  6
 17 35  1  1
 18 36  1  0
 19 37  1  1
 20 38  1  0
 21 39  1  6
 23 40  1  0
 27 41  1  0
 27 42  1  0
 29 43  1  0
M  CHG  4   3  -1   4  -1   7  -1  11  -1
M  END
>  <filename_input>  (4) 
7KRU_ATP_docked.sdf

>  <pdb_id>  (4) 
7KRU_ATP

>  <pose_rank>  (4) 
3

>  <num_atoms_heavy>  (4) 
31

>  <num_torsions>  (4) 
8

>  <pose>  (4) 
[47.012707214529755, 39.638377266385106, 201.07219651138516, -3.301991633890932, -1.5426872863257253, -1.5776738664667798, 5.099168421645001, -2.963013850215309, 1.1949030812471706, 0.2835780916315885, -0.6002526652351531, -0.128172507495802, -0.9399846294975808, -2.0016337563471325]

>  <energy>  (4) 
-878.1112416605647

>  <inter_energy>  (4) 
-901.7282373764314

>  <intra_energy>  (4) 
31.987127718107594

>  <rmsd>  (4) 
2.85701

>  <sdf_rank>  (4) 
0

$$$$

     RDKit          3D

 43 45  0  0  0  0  0  0  0  0999 V2000
   50.6692   44.7096  203.3811 P   0  0  2  0  0  0  0  0  0  0  0  0
   51.7959   44.0095  204.0940 O   0  0  0  0  0  0  0  0  0  0  0  0
   50.8486   44.8301  201.8868 O   0  0  0  0  0  0  0  0  0  0  0  0
   50.1483   45.9449  204.0225 O   0  0  0  0  0  0  0  0  0  0  0  0
   48.8330   43.0497  204.9486 P   0  0  1  0  0  0  0  0  0  0  0  0
   49.8964   42.2151  205.6136 O   0  0  0  0  0  0  0  0  0  0  0  0
   48.1563   44.1255  205.7794 O   0  0  0  0  0  0  0  0  0  0  0  0
   49.3904   43.6989  203.5685 O   0  0  0  0  0  0  0  0  0  0  0  0
   47.8668   41.2085  202.9942 P   0  0  2  0  0  0  0  0  0  0  0  0
   49.1310   40.3863  203.1259 O   0  0  0  0  0  0  0  0  0  0  0  0
   47.6365   42.0696  201.7698 O   0  0  0  0  0  0  0  0  0  0  0  0
   47.6637   42.1129  204.3181 O   0  0  0  0  0  0  0  0  0  0  0  0
   46.5867   40.2545  203.1858 O   0  0  0  0  0  0  0  0  0  0  0  0
   46.5613   38.9354  202.6054 C   0  0  0  0  0  0  0  0  0  0  0  0
   45.6797   37.9941  203.4196 C   0  0  1  0  0  0  0  0  0  0  0  0
   44.3128   38.3892  203.2437 O   0  0  0  0  0  0  0  0  0  0  0  0
   45.7872   36.5379  202.9786 C   0  0  1  0  0  0  0  0  0  0  0  0
   45.7880   35.7078  204.1340 O   0  0  0  0  0  0  0  0  0  0  0  0
   44.5381   36.3218  202.1341 C   0  0  1  0  0  0  0  0  0  0  0  0
   44.0899   34.9650  202.1311 O   0  0  0  0  0  0  0  0  0  0  0  0
   43.5564   37.2584  202.8234 C   0  0  2  0  0  0  0  0  0  0  0  0
   42.4901   37.7724  201.9487 N   0  0  0  0  0  0  0  0  0  0  0  0
   41.1551   37.6720  202.1381 C   0  0  0  0  0  0  0  0  0  0  0  0
   40.4739   38.2485  201.0990 N   0  0  0  0  0  0  0  0  0  0  0  0
   41.4191   38.7120  200.2440 C   0  0  0  0  0  0  0  0  0  0  0  0
   41.4053   39.4184  198.9547 C   0  0  0  0  0  0  0  0  0  0  0  0
   40.2185   39.7365  198.3849 N   0  0  0  0  0  0  0  0  0  0  0  0
   42.5862   39.7250  198.4022 N   0  0  0  0  0  0  0  0  0  0  0  0
   43.7580   39.4107  198.9712 C   0  0  0  0  0  0  0  0  0  0  0  0
   43.8462   38.7594  200.1377 N   0  0  0  0  0  0  0  0  0  0  0  0
   42.7300   38.4045  200.8039 C   0  0  0  0  0  0  0  0  0  0  0  0
   46.1662   39.0013  201.5809 H   0  0  0  0  0  0  0  0  0  0  0  0
   47.5863   38.5364  202.5996 H   0  0  0  0  0  0  0  0  0  0  0  0
   46.0165   38.0624  204.4645 H   0  0  0  0  0  0  0  0  0  0  0  0
   46.7026   36.3020  202.4161 H   0  0  0  0  0  0  0  0  0  0  0  0
   45.7875   36.2733  204.9466 H   0  0  0  0  0  0  0  0  0  0  0  0
   44.6857   36.5265  201.0634 H   0  0  0  0  0  0  0  0  0  0  0  0
   43.9858   34.6498  203.0638 H   0  0  0  0  0  0  0  0  0  0  0  0
   43.0711   36.6914  203.6314 H   0  0  0  0  0  0  0  0  0  0  0  0
   40.6810   37.1930  203.0074 H   0  0  0  0  0  0  0  0  0  0  0  0
   40.1970   40.2313  197.4819 H   0  0  0  0  0  0  0  0  0  0  0  0
   39.3375   39.4835  198.8547 H   0  0  0  0  0  0  0  0  0  0  0  0
   44.6870   39.7002  198.4581 H   0  0  0  0  0  0  0  0  0  0  0  0
  1  2  2  0
  1  3  1  6
  1  4  1  0
  1  8  1  0
  5  6  2  0
  5  7  1  1
  5  8  1  0
  5 12  1  0
  9 10  2  0
  9 11  1  6
  9 12  1  0
  9 13  1  0
 13 14  1  0
 15 14  1  0
 15 16  1  0
 15 17  1  0
 16 21  1  0
 17 18  1  0
 17 19  1  0
 19 20  1  0
 19 21  1  0
 21 22  1  0
 22 23  1  0
 22 31  1  0
 23 24  2  0
 24 25  1  0
 25 26  2  0
 25 31  1  0
 26 27  1  0
 26 28  1  0
 28 29  2  0
 29 30  1  0
 30 31  2  0
 14 32  1  0
 14 33  1  0
 15 34  1  1
 17 35  1  6
 18 36  1  0
 19 37  1  6
 20 38  1  0
 21 39  1  1
 23 40  1  0
 27 41  1  0
 27 42  1  0
 29 43  1  0
M  CHG  4   3  -1   4  -1   7  -1  11  -1
M  END
>  <filename_input>  (5) 
7KRU_ATP_docked.sdf

>  <pdb_id>  (5) 
7KRU_ATP

>  <pose_rank>  (5) 
4

>  <num_atoms_heavy>  (5) 
31

>  <num_torsions>  (5) 
8

>  <pose>  (5) 
[45.67966641536204, 37.994062601812004, 203.41959019275822, -1.9964765419034223, -5.478288918112782, -0.9683311188688858, -3.161138722010322, 0.2628584353192356, -0.12950315817649566, 10.911849519279084, -0.18160435934743835, -2.0085621467989747, -0.6732295900744406, 2.1275119530272533]

>  <energy>  (5) 
-832.1129788032773

>  <inter_energy>  (5) 
-845.187176853183

>  <intra_energy>  (5) 
21.874481167389384

>  <rmsd>  (5) 
2.91425

>  <sdf_rank>  (5) 
0

$$$$

     RDKit          3D

 43 45  0  0  0  0  0  0  0  0999 V2000
   46.7926   36.8129  194.2658 P   0  0  2  0  0  0  0  0  0  0  0  0
   47.1468   38.0748  193.5245 O   0  0  0  0  0  0  0  0  0  0  0  0
   47.9565   35.8858  194.5220 O   0  0  0  0  0  0  0  0  0  0  0  0
   45.5567   36.1139  193.8270 O   0  0  0  0  0  0  0  0  0  0  0  0
   45.1658   36.7416  196.7015 P   0  0  1  0  0  0  0  0  0  0  0  0
   43.8244   37.3005  196.3043 O   0  0  0  0  0  0  0  0  0  0  0  0
   45.3037   35.2322  196.7933 O   0  0  0  0  0  0  0  0  0  0  0  0
   46.3413   37.3381  195.7533 O   0  0  0  0  0  0  0  0  0  0  0  0
   46.7679   36.6562  199.0614 P   0  0  2  0  0  0  0  0  0  0  0  0
   48.0609   36.4861  198.2928 O   0  0  0  0  0  0  0  0  0  0  0  0
   46.1327   35.4743  199.7638 O   0  0  0  0  0  0  0  0  0  0  0  0
   45.6619   37.3636  198.1190 O   0  0  0  0  0  0  0  0  0  0  0  0
   46.9342   37.8460  200.1300 O   0  0  0  0  0  0  0  0  0  0  0  0
   47.5003   37.5903  201.4306 C   0  0  0  0  0  0  0  0  0  0  0  0
   46.4960   37.8972  202.5367 C   0  0  1  0  0  0  0  0  0  0  0  0
   45.5659   38.8713  202.0455 O   0  0  0  0  0  0  0  0  0  0  0  0
   45.6857   36.6790  202.9678 C   0  0  1  0  0  0  0  0  0  0  0  0
   45.5375   36.7043  204.3826 O   0  0  0  0  0  0  0  0  0  0  0  0
   44.3492   36.8640  202.2609 C   0  0  1  0  0  0  0  0  0  0  0  0
   43.2590   36.2501  202.9510 O   0  0  0  0  0  0  0  0  0  0  0  0
   44.2423   38.3820  202.2354 C   0  0  2  0  0  0  0  0  0  0  0  0
   43.4375   38.9162  201.1250 N   0  0  0  0  0  0  0  0  0  0  0  0
   43.8857   39.5576  200.0223 C   0  0  0  0  0  0  0  0  0  0  0  0
   42.8399   39.9314  199.2208 N   0  0  0  0  0  0  0  0  0  0  0  0
   41.7159   39.5113  199.8529 C   0  0  0  0  0  0  0  0  0  0  0  0
   40.2741   39.5755  199.5732 C   0  0  0  0  0  0  0  0  0  0  0  0
   39.8444   40.1764  198.4380 N   0  0  0  0  0  0  0  0  0  0  0  0
   39.4433   39.0202  200.4649 N   0  0  0  0  0  0  0  0  0  0  0  0
   39.8733   38.4241  201.5854 C   0  0  0  0  0  0  0  0  0  0  0  0
   41.1696   38.3381  201.9095 N   0  0  0  0  0  0  0  0  0  0  0  0
   42.1103   38.8463  201.0894 C   0  0  0  0  0  0  0  0  0  0  0  0
   47.7919   36.5315  201.4937 H   0  0  0  0  0  0  0  0  0  0  0  0
   48.3769   38.2413  201.5642 H   0  0  0  0  0  0  0  0  0  0  0  0
   47.0723   38.2512  203.4042 H   0  0  0  0  0  0  0  0  0  0  0  0
   46.1489   35.7144  202.7132 H   0  0  0  0  0  0  0  0  0  0  0  0
   46.4181   36.5543  204.8094 H   0  0  0  0  0  0  0  0  0  0  0  0
   44.3021   36.3887  201.2700 H   0  0  0  0  0  0  0  0  0  0  0  0
   43.4000   36.3295  203.9277 H   0  0  0  0  0  0  0  0  0  0  0  0
   43.7558   38.6943  203.1712 H   0  0  0  0  0  0  0  0  0  0  0  0
   44.9451   39.7525  199.7995 H   0  0  0  0  0  0  0  0  0  0  0  0
   38.8365   40.2272  198.2319 H   0  0  0  0  0  0  0  0  0  0  0  0
   40.5256   40.5827  197.7808 H   0  0  0  0  0  0  0  0  0  0  0  0
   39.1297   37.9868  202.2679 H   0  0  0  0  0  0  0  0  0  0  0  0
  1  2  2  0
  1  3  1  1
  1  4  1  0
  1  8  1  0
  5  6  2  0
  5  7  1  1
  5  8  1  0
  5 12  1  0
  9 10  2  0
  9 11  1  1
  9 12  1  0
  9 13  1  0
 13 14  1  0
 15 14  1  0
 15 16  1  0
 15 17  1  0
 16 21  1  0
 17 18  1  0
 17 19  1  0
 19 20  1  0
 19 21  1  0
 21 22  1  0
 22 23  1  0
 22 31  1  0
 23 24  2  0
 24 25  1  0
 25 26  2  0
 25 31  1  0
 26 27  1  0
 26 28  1  0
 28 29  2  0
 29 30  1  0
 30 31  2  0
 14 32  1  0
 14 33  1  0
 15 34  1  1
 17 35  1  1
 18 36  1  0
 19 37  1  6
 20 38  1  0
 21 39  1  1
 23 40  1  0
 27 41  1  0
 27 42  1  0
 29 43  1  0
M  CHG  4   3  -1   4  -1   7  -1  11  -1
M  END
>  <filename_input>  (6) 
7KRU_ATP_docked.sdf

>  <pdb_id>  (6) 
7KRU_ATP

>  <pose_rank>  (6) 
5

>  <num_atoms_heavy>  (6) 
31

>  <num_torsions>  (6) 
8

>  <pose>  (6) 
[46.49601362601302, 37.89721313571756, 202.5367174456887, 2.1897845902801727, -2.4684423206982324, 4.309199135476937, -0.910331167669189, -1.4102611724692737, 1.4440248487015712, 3.8482485937805766, -0.030303089316461043, -4.251537735211672, -1.0801025810947444, -2.5474514160273953]

>  <energy>  (6) 
-711.7905189580024

>  <inter_energy>  (6) 
-717.4712188464633

>  <intra_energy>  (6) 
18.49601829405911

>  <rmsd>  (6) 
7.84426

>  <sdf_rank>  (6) 
0

$$$$

     RDKit          3D

 43 45  0  0  0  0  0  0  0  0999 V2000
   50.5977   42.3139  206.6270 P   0  0  2  0  0  0  0  0  0  0  0  0
   51.8454   43.1521  206.7171 O   0  0  0  0  0  0  0  0  0  0  0  0
   49.4212   42.8510  207.4062 O   0  0  0  0  0  0  0  0  0  0  0  0
   50.7787   40.8443  206.7542 O   0  0  0  0  0  0  0  0  0  0  0  0
   49.0773   43.4712  204.4059 P   0  0  1  0  0  0  0  0  0  0  0  0
   48.6502   44.5014  205.4188 O   0  0  0  0  0  0  0  0  0  0  0  0
   49.5957   43.9678  203.0680 O   0  0  0  0  0  0  0  0  0  0  0  0
   50.1482   42.4367  205.0538 O   0  0  0  0  0  0  0  0  0  0  0  0
   47.8958   41.3831  202.8609 P   0  0  2  0  0  0  0  0  0  0  0  0
   49.1275   40.5069  202.9430 O   0  0  0  0  0  0  0  0  0  0  0  0
   47.5756   42.1380  201.5877 O   0  0  0  0  0  0  0  0  0  0  0  0
   47.8778   42.4168  204.1031 O   0  0  0  0  0  0  0  0  0  0  0  0
   46.6010   40.5246  203.2754 O   0  0  0  0  0  0  0  0  0  0  0  0
   46.6287   39.6679  204.4342 C   0  0  0  0  0  0  0  0  0  0  0  0
   45.5622   38.5817  204.3398 C   0  0  1  0  0  0  0  0  0  0  0  0
   44.5713   39.0019  203.3928 O   0  0  0  0  0  0  0  0  0  0  0  0
   46.1089   37.2430  203.8547 C   0  0  1  0  0  0  0  0  0  0  0  0
   45.4921   36.1990  204.5990 O   0  0  0  0  0  0  0  0  0  0  0  0
   45.7063   37.1978  202.3863 C   0  0  1  0  0  0  0  0  0  0  0  0
   45.5386   35.8681  201.8905 O   0  0  0  0  0  0  0  0  0  0  0  0
   44.3992   37.9766  202.4199 C   0  0  2  0  0  0  0  0  0  0  0  0
   44.0620   38.6531  201.1570 N   0  0  0  0  0  0  0  0  0  0  0  0
   42.8307   38.8386  200.6299 C   0  0  0  0  0  0  0  0  0  0  0  0
   42.9118   39.4888  199.4272 N   0  0  0  0  0  0  0  0  0  0  0  0
   44.2326   39.7042  199.2071 C   0  0  0  0  0  0  0  0  0  0  0  0
   45.0250   40.3316  198.1395 C   0  0  0  0  0  0  0  0  0  0  0  0
   44.3913   40.8569  197.0640 N   0  0  0  0  0  0  0  0  0  0  0  0
   46.3556   40.3607  198.2894 N   0  0  0  0  0  0  0  0  0  0  0  0
   46.9779   39.8421  199.3569 C   0  0  0  0  0  0  0  0  0  0  0  0
   46.3217   39.2469  200.3608 N   0  0  0  0  0  0  0  0  0  0  0  0
   44.9770   39.1632  200.3384 C   0  0  0  0  0  0  0  0  0  0  0  0
   47.6187   39.1939  204.5069 H   0  0  0  0  0  0  0  0  0  0  0  0
   46.4264   40.2796  205.3258 H   0  0  0  0  0  0  0  0  0  0  0  0
   45.1572   38.4408  205.3528 H   0  0  0  0  0  0  0  0  0  0  0  0
   47.1952   37.1254  203.9809 H   0  0  0  0  0  0  0  0  0  0  0  0
   45.5974   36.3773  205.5671 H   0  0  0  0  0  0  0  0  0  0  0  0
   46.4645   37.6122  201.7056 H   0  0  0  0  0  0  0  0  0  0  0  0
   45.4593   35.2398  202.6514 H   0  0  0  0  0  0  0  0  0  0  0  0
   43.5928   37.2589  202.6314 H   0  0  0  0  0  0  0  0  0  0  0  0
   41.8925   38.5121  201.1023 H   0  0  0  0  0  0  0  0  0  0  0  0
   44.9366   41.2989  196.3102 H   0  0  0  0  0  0  0  0  0  0  0  0
   43.3642   40.8145  197.0000 H   0  0  0  0  0  0  0  0  0  0  0  0
   48.0746   39.9082  199.4106 H   0  0  0  0  0  0  0  0  0  0  0  0
  1  2  2  0
  1  3  1  1
  1  4  1  0
  1  8  1  0
  5  6  2  0
  5  7  1  6
  5  8  1  0
  5 12  1  0
  9 10  2  0
  9 11  1  6
  9 12  1  0
  9 13  1  0
 13 14  1  0
 15 14  1  0
 15 16  1  0
 15 17  1  0
 16 21  1  0
 17 18  1  0
 17 19  1  0
 19 20  1  0
 19 21  1  0
 21 22  1  0
 22 23  1  0
 22 31  1  0
 23 24  2  0
 24 25  1  0
 25 26  2  0
 25 31  1  0
 26 27  1  0
 26 28  1  0
 28 29  2  0
 29 30  1  0
 30 31  2  0
 14 32  1  0
 14 33  1  0
 15 34  1  1
 17 35  1  6
 18 36  1  0
 19 37  1  6
 20 38  1  0
 21 39  1  1
 23 40  1  0
 27 41  1  0
 27 42  1  0
 29 43  1  0
M  CHG  4   3  -1   4  -1   7  -1  11  -1
M  END
>  <filename_input>  (7) 
7KRU_ATP_docked.sdf

>  <pdb_id>  (7) 
7KRU_ATP

>  <pose_rank>  (7) 
6

>  <num_atoms_heavy>  (7) 
31

>  <num_torsions>  (7) 
8

>  <pose>  (7) 
[45.56216997670214, 38.58170550002171, 204.33980977640755, 0.272006527045205, -0.34886412760512053, 0.2018536561649451, -2.793292068747397, -1.3108182529671684, 0.7507340593827865, -0.1576468647937381, -0.04523276954416121, 2.1717074303204624, 0.5139598843621674, -0.4274566976622278]

>  <energy>  (7) 
-785.5115610282542

>  <inter_energy>  (7) 
-821.8985920857206

>  <intra_energy>  (7) 
47.88838778815632

>  <rmsd>  (7) 
2.92175

>  <sdf_rank>  (7) 
0

$$$$

     RDKit          3D

 43 45  0  0  0  0  0  0  0  0999 V2000
   50.6917   42.9087  208.7773 P   0  0  2  0  0  0  0  0  0  0  0  0
   51.8864   42.1657  209.3142 O   0  0  0  0  0  0  0  0  0  0  0  0
   50.6063   44.3547  209.2033 O   0  0  0  0  0  0  0  0  0  0  0  0
   49.3907   42.1923  208.8287 O   0  0  0  0  0  0  0  0  0  0  0  0
   50.6122   41.8189  206.0588 P   0  0  1  0  0  0  0  0  0  0  0  0
   51.6107   41.8483  204.9310 O   0  0  0  0  0  0  0  0  0  0  0  0
   50.3783   40.4934  206.7616 O   0  0  0  0  0  0  0  0  0  0  0  0
   50.9521   42.9645  207.1583 O   0  0  0  0  0  0  0  0  0  0  0  0
   48.5197   42.0331  204.1304 P   0  0  2  0  0  0  0  0  0  0  0  0
   49.4716   42.4558  203.0318 O   0  0  0  0  0  0  0  0  0  0  0  0
   47.0772   42.4941  204.1141 O   0  0  0  0  0  0  0  0  0  0  0  0
   49.1642   42.3751  205.5724 O   0  0  0  0  0  0  0  0  0  0  0  0
   48.5338   40.4306  204.2620 O   0  0  0  0  0  0  0  0  0  0  0  0
   47.7865   39.6121  203.3405 C   0  0  0  0  0  0  0  0  0  0  0  0
   46.6538   38.8788  204.0514 C   0  0  1  0  0  0  0  0  0  0  0  0
   45.4208   39.2108  203.3995 O   0  0  0  0  0  0  0  0  0  0  0  0
   46.7950   37.3609  204.0004 C   0  0  1  0  0  0  0  0  0  0  0  0
   46.4152   36.8225  205.2614 O   0  0  0  0  0  0  0  0  0  0  0  0
   45.8290   36.9439  202.8990 C   0  0  1  0  0  0  0  0  0  0  0  0
   45.3195   35.6199  203.0704 O   0  0  0  0  0  0  0  0  0  0  0  0
   44.7495   38.0070  203.0422 C   0  0  2  0  0  0  0  0  0  0  0  0
   44.0110   38.2944  201.8019 N   0  0  0  0  0  0  0  0  0  0  0  0
   42.6844   38.1478  201.5852 C   0  0  0  0  0  0  0  0  0  0  0  0
   42.3631   38.4914  200.2988 N   0  0  0  0  0  0  0  0  0  0  0  0
   43.5280   38.8548  199.7070 C   0  0  0  0  0  0  0  0  0  0  0  0
   43.9184   39.3227  198.3691 C   0  0  0  0  0  0  0  0  0  0  0  0
   42.9702   39.4636  197.4124 N   0  0  0  0  0  0  0  0  0  0  0  0
   45.2123   39.5990  198.1612 N   0  0  0  0  0  0  0  0  0  0  0  0
   46.1466   39.4608  199.1119 C   0  0  0  0  0  0  0  0  0  0  0  0
   45.8652   39.0300  200.3481 N   0  0  0  0  0  0  0  0  0  0  0  0
   44.5971   38.7300  200.6908 C   0  0  0  0  0  0  0  0  0  0  0  0
   47.3617   40.2530  202.5539 H   0  0  0  0  0  0  0  0  0  0  0  0
   48.4671   38.8655  202.9054 H   0  0  0  0  0  0  0  0  0  0  0  0
   46.6811   39.1913  205.1057 H   0  0  0  0  0  0  0  0  0  0  0  0
   47.8171   37.0082  203.7982 H   0  0  0  0  0  0  0  0  0  0  0  0
   46.8039   37.3736  205.9861 H   0  0  0  0  0  0  0  0  0  0  0  0
   46.2888   36.8950  201.9009 H   0  0  0  0  0  0  0  0  0  0  0  0
   45.2420   35.4187  204.0366 H   0  0  0  0  0  0  0  0  0  0  0  0
   44.0200   37.6395  203.7789 H   0  0  0  0  0  0  0  0  0  0  0  0
   41.9623   37.8003  202.3386 H   0  0  0  0  0  0  0  0  0  0  0  0
   43.2325   39.7907  196.4716 H   0  0  0  0  0  0  0  0  0  0  0  0
   41.9868   39.2437  197.6256 H   0  0  0  0  0  0  0  0  0  0  0  0
   47.1890   39.7120  198.8663 H   0  0  0  0  0  0  0  0  0  0  0  0
  1  2  2  0
  1  3  1  1
  1  4  1  0
  1  8  1  0
  5  6  2  0
  5  7  1  1
  5  8  1  0
  5 12  1  0
  9 10  2  0
  9 11  1  6
  9 12  1  0
  9 13  1  0
 13 14  1  0
 15 14  1  0
 15 16  1  0
 15 17  1  0
 16 21  1  0
 17 18  1  0
 17 19  1  0
 19 20  1  0
 19 21  1  0
 21 22  1  0
 22 23  1  0
 22 31  1  0
 23 24  2  0
 24 25  1  0
 25 26  2  0
 25 31  1  0
 26 27  1  0
 26 28  1  0
 28 29  2  0
 29 30  1  0
 30 31  2  0
 14 32  1  0
 14 33  1  0
 15 34  1  1
 17 35  1  6
 18 36  1  0
 19 37  1  6
 20 38  1  0
 21 39  1  1
 23 40  1  0
 27 41  1  0
 27 42  1  0
 29 43  1  0
M  CHG  4   3  -1   4  -1   7  -1  11  -1
M  END
>  <filename_input>  (8) 
7KRU_ATP_docked.sdf

>  <pdb_id>  (8) 
7KRU_ATP

>  <pose_rank>  (8) 
7

>  <num_atoms_heavy>  (8) 
31

>  <num_torsions>  (8) 
8

>  <pose>  (8) 
[46.65375122577401, 38.87879881374962, 204.05140540893817, 5.5217342802311205, -2.6633806004647353, -0.6009397701963023, -3.2414254858526577, 1.1966205784771147, 1.5160909864626702, 3.950387561109501, -2.038908595777367, 6.2369752353468995, -2.217152147951506, 2.6861660062564647]

>  <energy>  (8) 
-759.1365882626458

>  <inter_energy>  (8) 
-780.143942217427

>  <intra_energy>  (8) 
29.134756218104904

>  <rmsd>  (8) 
2.4004

>  <sdf_rank>  (8) 
0

$$$$

     RDKit          3D

 43 45  0  0  0  0  0  0  0  0999 V2000
   50.9639   41.8004  205.3924 P   0  0  2  0  0  0  0  0  0  0  0  0
   51.1447   42.7685  206.5315 O   0  0  0  0  0  0  0  0  0  0  0  0
   51.0687   40.3451  205.7807 O   0  0  0  0  0  0  0  0  0  0  0  0
   51.6654   42.1333  204.1252 O   0  0  0  0  0  0  0  0  0  0  0  0
   48.6510   41.3761  203.6447 P   0  0  1  0  0  0  0  0  0  0  0  0
   48.4322   42.4333  202.5939 O   0  0  0  0  0  0  0  0  0  0  0  0
   49.3493   40.0951  203.2242 O   0  0  0  0  0  0  0  0  0  0  0  0
   49.3987   42.0016  204.9434 O   0  0  0  0  0  0  0  0  0  0  0  0
   46.6578   39.4533  204.3329 P   0  0  2  0  0  0  0  0  0  0  0  0
   45.8509   39.2043  205.5892 O   0  0  0  0  0  0  0  0  0  0  0  0
   47.7596   38.4966  203.9273 O   0  0  0  0  0  0  0  0  0  0  0  0
   47.2492   40.9572  204.3534 O   0  0  0  0  0  0  0  0  0  0  0  0
   45.6608   39.6302  203.0839 O   0  0  0  0  0  0  0  0  0  0  0  0
   45.0583   38.4804  202.4574 C   0  0  0  0  0  0  0  0  0  0  0  0
   45.6674   38.2216  201.0832 C   0  0  1  0  0  0  0  0  0  0  0  0
   44.6008   38.0331  200.1440 O   0  0  0  0  0  0  0  0  0  0  0  0
   46.5158   39.3821  200.5734 C   0  0  1  0  0  0  0  0  0  0  0  0
   47.6724   38.8575  199.9322 O   0  0  0  0  0  0  0  0  0  0  0  0
   45.6007   40.0931  199.5848 C   0  0  1  0  0  0  0  0  0  0  0  0
   46.3131   40.7823  198.5556 O   0  0  0  0  0  0  0  0  0  0  0  0
   44.7884   38.9232  199.0485 C   0  0  2  0  0  0  0  0  0  0  0  0
   43.4440   39.2848  198.5708 N   0  0  0  0  0  0  0  0  0  0  0  0
   43.1205   39.8561  197.3888 C   0  0  0  0  0  0  0  0  0  0  0  0
   41.7697   40.0674  197.3068 N   0  0  0  0  0  0  0  0  0  0  0  0
   41.2494   39.6169  198.4754 C   0  0  0  0  0  0  0  0  0  0  0  0
   39.9014   39.5367  199.0566 C   0  0  0  0  0  0  0  0  0  0  0  0
   38.8435   39.9930  198.3447 N   0  0  0  0  0  0  0  0  0  0  0  0
   39.7829   39.0000  200.2780 N   0  0  0  0  0  0  0  0  0  0  0  0
   40.8323   38.5471  200.9775 C   0  0  0  0  0  0  0  0  0  0  0  0
   42.0881   38.5979  200.5157 N   0  0  0  0  0  0  0  0  0  0  0  0
   42.3425   39.1035  199.2928 C   0  0  0  0  0  0  0  0  0  0  0  0
   45.2203   37.5982  203.0941 H   0  0  0  0  0  0  0  0  0  0  0  0
   43.9828   38.6745  202.3319 H   0  0  0  0  0  0  0  0  0  0  0  0
   46.3161   37.3386  201.1809 H   0  0  0  0  0  0  0  0  0  0  0  0
   46.8696   40.0639  201.3608 H   0  0  0  0  0  0  0  0  0  0  0  0
   48.3238   38.5621  200.6167 H   0  0  0  0  0  0  0  0  0  0  0  0
   44.9983   40.8953  200.0360 H   0  0  0  0  0  0  0  0  0  0  0  0
   46.9609   41.4088  198.9653 H   0  0  0  0  0  0  0  0  0  0  0  0
   45.3378   38.5049  198.1922 H   0  0  0  0  0  0  0  0  0  0  0  0
   43.8430   40.1157  196.6011 H   0  0  0  0  0  0  0  0  0  0  0  0
   37.8946   39.9417  198.7421 H   0  0  0  0  0  0  0  0  0  0  0  0
   38.9878   40.3912  197.4058 H   0  0  0  0  0  0  0  0  0  0  0  0
   40.6546   38.1153  201.9734 H   0  0  0  0  0  0  0  0  0  0  0  0
  1  2  2  0
  1  3  1  1
  1  4  1  0
  1  8  1  0
  5  6  2  0
  5  7  1  6
  5  8  1  0
  5 12  1  0
  9 10  2  0
  9 11  1  6
  9 12  1  0
  9 13  1  0
 13 14  1  0
 15 14  1  0
 15 16  1  0
 15 17  1  0
 16 21  1  0
 17 18  1  0
 17 19  1  0
 19 20  1  0
 19 21  1  0
 21 22  1  0
 22 23  1  0
 22 31  1  0
 23 24  2  0
 24 25  1  0
 25 26  2  0
 25 31  1  0
 26 27  1  0
 26 28  1  0
 28 29  2  0
 29 30  1  0
 30 31  2  0
 14 32  1  0
 14 33  1  0
 15 34  1  1
 17 35  1  1
 18 36  1  0
 19 37  1  1
 20 38  1  0
 21 39  1  6
 23 40  1  0
 27 41  1  0
 27 42  1  0
 29 43  1  0
M  CHG  4   3  -1   4  -1   7  -1  11  -1
M  END
>  <filename_input>  (9) 
7KRU_ATP_docked.sdf

>  <pdb_id>  (9) 
7KRU_ATP

>  <pose_rank>  (9) 
8

>  <num_atoms_heavy>  (9) 
31

>  <num_torsions>  (9) 
8

>  <pose>  (9) 
[45.667406627052515, 38.22158997350486, 201.0832286717679, 1.7254524197102525, -0.29604098020897845, 1.5072995951894816, 2.336243565356603, 3.024688495564669, 1.6193021947353663, 3.9678609402054485, 1.5597371469251637, 1.3557822674185178, -1.4765104991840825, -2.058187512656746]

>  <energy>  (9) 
-673.9816183226883

>  <inter_energy>  (9) 
-741.1769147431454

>  <intra_energy>  (9) 
63.32165620773789

>  <rmsd>  (9) 
3.29074

>  <sdf_rank>  (9) 
0

$$$$

     RDKit          3D

 43 45  0  0  0  0  0  0  0  0999 V2000
   49.4028   45.1824  203.2800 P   0  0  2  0  0  0  0  0  0  0  0  0
   48.6710   46.3621  203.8634 O   0  0  0  0  0  0  0  0  0  0  0  0
   50.7385   44.8909  203.9208 O   0  0  0  0  0  0  0  0  0  0  0  0
   49.4159   45.0808  201.7974 O   0  0  0  0  0  0  0  0  0  0  0  0
   48.8947   42.3329  203.7339 P   0  0  1  0  0  0  0  0  0  0  0  0
   50.0049   42.0470  202.7564 O   0  0  0  0  0  0  0  0  0  0  0  0
   49.1027   41.9204  205.1803 O   0  0  0  0  0  0  0  0  0  0  0  0
   48.4618   43.8967  203.6716 O   0  0  0  0  0  0  0  0  0  0  0  0
   47.0303   40.1757  203.6188 P   0  0  2  0  0  0  0  0  0  0  0  0
   45.7826   40.2288  204.4744 O   0  0  0  0  0  0  0  0  0  0  0  0
   48.2404   39.3883  204.0762 O   0  0  0  0  0  0  0  0  0  0  0  0
   47.4937   41.6759  203.2361 O   0  0  0  0  0  0  0  0  0  0  0  0
   46.6418   39.6850  202.1377 O   0  0  0  0  0  0  0  0  0  0  0  0
   47.6020   38.9865  201.3207 C   0  0  0  0  0  0  0  0  0  0  0  0
   46.9474   38.4245  200.0629 C   0  0  1  0  0  0  0  0  0  0  0  0
   45.7503   37.7348  200.4457 O   0  0  0  0  0  0  0  0  0  0  0  0
   46.5448   39.5025  199.0618 C   0  0  1  0  0  0  0  0  0  0  0  0
   46.8359   39.0401  197.7482 O   0  0  0  0  0  0  0  0  0  0  0  0
   45.0457   39.6594  199.2814 C   0  0  1  0  0  0  0  0  0  0  0  0
   44.3510   40.1065  198.1155 O   0  0  0  0  0  0  0  0  0  0  0  0
   44.6614   38.2421  199.6813 C   0  0  2  0  0  0  0  0  0  0  0  0
   43.4713   38.1552  200.5431 N   0  0  0  0  0  0  0  0  0  0  0  0
   43.4051   37.6668  201.8022 C   0  0  0  0  0  0  0  0  0  0  0  0
   42.1219   37.7258  202.2775 N   0  0  0  0  0  0  0  0  0  0  0  0
   41.3776   38.2618  201.2785 C   0  0  0  0  0  0  0  0  0  0  0  0
   39.9584   38.6014  201.0999 C   0  0  0  0  0  0  0  0  0  0  0  0
   39.0877   38.3670  202.1105 N   0  0  0  0  0  0  0  0  0  0  0  0
   39.5919   39.1424  199.9309 N   0  0  0  0  0  0  0  0  0  0  0  0
   40.4576   39.3752  198.9349 C   0  0  0  0  0  0  0  0  0  0  0  0
   41.7610   39.0818  199.0235 N   0  0  0  0  0  0  0  0  0  0  0  0
   42.2613   38.5445  200.1535 C   0  0  0  0  0  0  0  0  0  0  0  0
   48.4006   39.6844  201.0288 H   0  0  0  0  0  0  0  0  0  0  0  0
   48.0138   38.1497  201.9039 H   0  0  0  0  0  0  0  0  0  0  0  0
   47.6874   37.7680  199.5820 H   0  0  0  0  0  0  0  0  0  0  0  0
   47.0751   40.4579  199.1881 H   0  0  0  0  0  0  0  0  0  0  0  0
   47.3626   38.2035  197.8021 H   0  0  0  0  0  0  0  0  0  0  0  0
   44.7842   40.4276  200.0240 H   0  0  0  0  0  0  0  0  0  0  0  0
   43.5501   40.6219  198.3859 H   0  0  0  0  0  0  0  0  0  0  0  0
   44.4372   37.6879  198.7580 H   0  0  0  0  0  0  0  0  0  0  0  0
   44.2640   37.2757  202.3673 H   0  0  0  0  0  0  0  0  0  0  0  0
   38.0912   38.6010  201.9963 H   0  0  0  0  0  0  0  0  0  0  0  0
   39.4221   37.9546  202.9931 H   0  0  0  0  0  0  0  0  0  0  0  0
   40.0815   39.8267  198.0050 H   0  0  0  0  0  0  0  0  0  0  0  0
  1  2  2  0
  1  3  1  1
  1  4  1  0
  1  8  1  0
  5  6  2  0
  5  7  1  1
  5  8  1  0
  5 12  1  0
  9 10  2  0
  9 11  1  1
  9 12  1  0
  9 13  1  0
 13 14  1  0
 15 14  1  0
 15 16  1  0
 15 17  1  0
 16 21  1  0
 17 18  1  0
 17 19  1  0
 19 20  1  0
 19 21  1  0
 21 22  1  0
 22 23  1  0
 22 31  1  0
 23 24  2  0
 24 25  1  0
 25 26  2  0
 25 31  1  0
 26 27  1  0
 26 28  1  0
 28 29  2  0
 29 30  1  0
 30 31  2  0
 14 32  1  0
 14 33  1  0
 15 34  1  6
 17 35  1  1
 18 36  1  0
 19 37  1  1
 20 38  1  0
 21 39  1  6
 23 40  1  0
 27 41  1  0
 27 42  1  0
 29 43  1  0
M  CHG  4   3  -1   4  -1   7  -1  11  -1
M  END
>  <filename_input>  (10) 
7KRU_ATP_docked.sdf

>  <pdb_id>  (10) 
7KRU_ATP

>  <pose_rank>  (10) 
9

>  <num_atoms_heavy>  (10) 
31

>  <num_torsions>  (10) 
8

>  <pose>  (10) 
[46.94739805493882, 38.42448942873633, 200.0629257399425, -3.5608979643728462, -1.0873899233012996, -1.1545633661014834, -1.1050998511669579, -14.373351658832323, -43.77917103648078, -22.44982253791498, 0.9629246766458102, 0.8153848956775647, -6.429278337954516, -1.558037559439653]

>  <energy>  (10) 
-738.2942356856008

>  <inter_energy>  (10) 
-752.3884212153885

>  <intra_energy>  (10) 
30.02439146036163

>  <rmsd>  (10) 
3.93496

>  <sdf_rank>  (10) 
0

$$$$

     RDKit          3D

 43 45  0  0  0  0  0  0  0  0999 V2000
   46.9233   37.5327  203.9042 P   0  0  2  0  0  0  0  0  0  0  0  0
   47.8561   36.6719  204.7144 O   0  0  0  0  0  0  0  0  0  0  0  0
   45.6003   37.8265  204.5699 O   0  0  0  0  0  0  0  0  0  0  0  0
   46.8056   37.2012  202.4602 O   0  0  0  0  0  0  0  0  0  0  0  0
   47.0427   40.4220  203.4331 P   0  0  1  0  0  0  0  0  0  0  0  0
   45.9476   40.2547  202.4122 O   0  0  0  0  0  0  0  0  0  0  0  0
   46.7185   41.1989  204.6967 O   0  0  0  0  0  0  0  0  0  0  0  0
   47.6849   38.9840  203.8290 O   0  0  0  0  0  0  0  0  0  0  0  0
   48.3021   42.3635  201.7636 P   0  0  2  0  0  0  0  0  0  0  0  0
   49.7034   42.7431  201.3349 O   0  0  0  0  0  0  0  0  0  0  0  0
   47.3677   43.4068  202.3399 O   0  0  0  0  0  0  0  0  0  0  0  0
   48.3626   41.0998  202.7691 O   0  0  0  0  0  0  0  0  0  0  0  0
   47.5498   41.6337  200.5443 O   0  0  0  0  0  0  0  0  0  0  0  0
   47.8084   40.2472  200.2470 C   0  0  0  0  0  0  0  0  0  0  0  0
   47.0167   39.7904  199.0260 C   0  0  1  0  0  0  0  0  0  0  0  0
   46.0290   38.8442  199.4554 O   0  0  0  0  0  0  0  0  0  0  0  0
   46.2769   40.9279  198.3292 C   0  0  1  0  0  0  0  0  0  0  0  0
   46.3780   40.7463  196.9218 O   0  0  0  0  0  0  0  0  0  0  0  0
   44.8404   40.7754  198.8123 C   0  0  1  0  0  0  0  0  0  0  0  0
   43.8787   41.2754  197.8812 O   0  0  0  0  0  0  0  0  0  0  0  0
   44.7521   39.2662  198.9877 C   0  0  2  0  0  0  0  0  0  0  0  0
   43.7735   38.8277  199.9959 N   0  0  0  0  0  0  0  0  0  0  0  0
   44.0316   38.3217  201.2229 C   0  0  0  0  0  0  0  0  0  0  0  0
   42.8674   38.0020  201.8696 N   0  0  0  0  0  0  0  0  0  0  0  0
   41.8650   38.3165  201.0119 C   0  0  0  0  0  0  0  0  0  0  0  0
   40.3974   38.2364  201.0459 C   0  0  0  0  0  0  0  0  0  0  0  0
   39.7849   37.7461  202.1498 N   0  0  0  0  0  0  0  0  0  0  0  0
   39.7271   38.6670  199.9693 N   0  0  0  0  0  0  0  0  0  0  0  0
   40.3375   39.1541  198.8803 C   0  0  0  0  0  0  0  0  0  0  0  0
   41.6692   39.2464  198.7755 N   0  0  0  0  0  0  0  0  0  0  0  0
   42.4595   38.8586  199.7956 C   0  0  0  0  0  0  0  0  0  0  0  0
   48.8824   40.1167  200.0482 H   0  0  0  0  0  0  0  0  0  0  0  0
   47.4986   39.6410  201.1110 H   0  0  0  0  0  0  0  0  0  0  0  0
   47.7403   39.3649  198.3152 H   0  0  0  0  0  0  0  0  0  0  0  0
   46.6750   41.9291  198.5508 H   0  0  0  0  0  0  0  0  0  0  0  0
   46.8507   39.8974  196.7317 H   0  0  0  0  0  0  0  0  0  0  0  0
   44.6146   41.3523  199.7212 H   0  0  0  0  0  0  0  0  0  0  0  0
   43.1169   41.6714  198.3742 H   0  0  0  0  0  0  0  0  0  0  0  0
   44.4406   38.8395  198.0229 H   0  0  0  0  0  0  0  0  0  0  0  0
   45.0387   38.1854  201.6440 H   0  0  0  0  0  0  0  0  0  0  0  0
   38.7573   37.6855  202.1845 H   0  0  0  0  0  0  0  0  0  0  0  0
   40.3467   37.4339  202.9547 H   0  0  0  0  0  0  0  0  0  0  0  0
   39.7182   39.4925  198.0365 H   0  0  0  0  0  0  0  0  0  0  0  0
  1  2  2  0
  1  3  1  1
  1  4  1  0
  1  8  1  0
  5  6  2  0
  5  7  1  1
  5  8  1  0
  5 12  1  0
  9 10  2  0
  9 11  1  1
  9 12  1  0
  9 13  1  0
 13 14  1  0
 15 14  1  0
 15 16  1  0
 15 17  1  0
 16 21  1  0
 17 18  1  0
 17 19  1  0
 19 20  1  0
 19 21  1  0
 21 22  1  0
 22 23  1  0
 22 31  1  0
 23 24  2  0
 24 25  1  0
 25 26  2  0
 25 31  1  0
 26 27  1  0
 26 28  1  0
 28 29  2  0
 29 30  1  0
 30 31  2  0
 14 32  1  0
 14 33  1  0
 15 34  1  6
 17 35  1  6
 18 36  1  0
 19 37  1  1
 20 38  1  0
 21 39  1  6
 23 40  1  0
 27 41  1  0
 27 42  1  0
 29 43  1  0
M  CHG  4   3  -1   4  -1   7  -1  11  -1
M  END
>  <filename_input>  (11) 
7KRU_ATP_docked.sdf

>  <pdb_id>  (11) 
7KRU_ATP

>  <pose_rank>  (11) 
10

>  <num_atoms_heavy>  (11) 
31

>  <num_torsions>  (11) 
8

>  <pose>  (11) 
[47.0167139290574, 39.790435798611725, 199.0259674287613, -3.2779778167036335, -1.2515812369258796, -0.9389082213684489, -0.9119708278328267, 9.643674000992036, 12.964005397643017, 13.002326921832903, -4.195362702905544, -6.257610981791172, 6.073994146240532, 4.671492924860428]

>  <energy>  (11) 
-716.73846601169

>  <inter_energy>  (11) 
-771.6879590524063

>  <intra_energy>  (11) 
69.49348547325148

>  <rmsd>  (11) 
4.85526

>  <sdf_rank>  (11) 
0

$$$$

     RDKit          3D

 43 45  0  0  0  0  0  0  0  0999 V2000
   40.8522   38.3397  201.2080 P   0  0  2  0  0  0  0  0  0  0  0  0
   40.3472   39.2184  202.3218 O   0  0  0  0  0  0  0  0  0  0  0  0
   40.3416   38.7075  199.8356 O   0  0  0  0  0  0  0  0  0  0  0  0
   40.8583   36.8772  201.4718 O   0  0  0  0  0  0  0  0  0  0  0  0
   43.6217   38.0581  202.1215 P   0  0  1  0  0  0  0  0  0  0  0  0
   43.1488   38.0068  203.5510 O   0  0  0  0  0  0  0  0  0  0  0  0
   44.1854   36.7843  201.5172 O   0  0  0  0  0  0  0  0  0  0  0  0
   42.4619   38.6524  201.1528 O   0  0  0  0  0  0  0  0  0  0  0  0
   46.3217   38.9475  201.8724 P   0  0  2  0  0  0  0  0  0  0  0  0
   46.7486   38.6356  200.4540 O   0  0  0  0  0  0  0  0  0  0  0  0
   46.6863   38.0117  203.0060 O   0  0  0  0  0  0  0  0  0  0  0  0
   44.7307   39.2284  201.9142 O   0  0  0  0  0  0  0  0  0  0  0  0
   46.8127   40.4275  202.2648 O   0  0  0  0  0  0  0  0  0  0  0  0
   47.0792   40.7720  203.6388 C   0  0  0  0  0  0  0  0  0  0  0  0
   47.5969   42.2019  203.7560 C   0  0  1  0  0  0  0  0  0  0  0  0
   47.9856   42.4320  205.1166 O   0  0  0  0  0  0  0  0  0  0  0  0
   48.8211   42.4711  202.8868 C   0  0  1  0  0  0  0  0  0  0  0  0
   48.6988   43.7664  202.3113 O   0  0  0  0  0  0  0  0  0  0  0  0
   49.9844   42.4010  203.8676 C   0  0  1  0  0  0  0  0  0  0  0  0
   51.1029   43.1965  203.4701 O   0  0  0  0  0  0  0  0  0  0  0  0
   49.3241   42.9172  205.1380 C   0  0  2  0  0  0  0  0  0  0  0  0
   49.9285   42.4172  206.3834 N   0  0  0  0  0  0  0  0  0  0  0  0
   50.7683   41.3668  206.5229 C   0  0  0  0  0  0  0  0  0  0  0  0
   51.1037   41.1863  207.8385 N   0  0  0  0  0  0  0  0  0  0  0  0
   50.4461   42.1516  208.5276 C   0  0  0  0  0  0  0  0  0  0  0  0
   50.3448   42.5407  209.9417 C   0  0  0  0  0  0  0  0  0  0  0  0
   51.0304   41.8375  210.8743 N   0  0  0  0  0  0  0  0  0  0  0  0
   49.5736   43.5937  210.2422 N   0  0  0  0  0  0  0  0  0  0  0  0
   48.8993   44.2883  209.3156 C   0  0  0  0  0  0  0  0  0  0  0  0
   48.9363   43.9845  208.0120 N   0  0  0  0  0  0  0  0  0  0  0  0
   49.6866   42.9537  207.5756 C   0  0  0  0  0  0  0  0  0  0  0  0
   46.1498   40.6777  204.2195 H   0  0  0  0  0  0  0  0  0  0  0  0
   47.8489   40.0888  204.0272 H   0  0  0  0  0  0  0  0  0  0  0  0
   46.7856   42.8653  203.4218 H   0  0  0  0  0  0  0  0  0  0  0  0
   48.9494   41.7634  202.0545 H   0  0  0  0  0  0  0  0  0  0  0  0
   48.6350   44.4428  203.0314 H   0  0  0  0  0  0  0  0  0  0  0  0
   50.4263   41.3980  203.9607 H   0  0  0  0  0  0  0  0  0  0  0  0
   51.5728   43.5307  204.2748 H   0  0  0  0  0  0  0  0  0  0  0  0
   49.4268   44.0124  205.1418 H   0  0  0  0  0  0  0  0  0  0  0  0
   51.1323   40.7427  205.6934 H   0  0  0  0  0  0  0  0  0  0  0  0
   50.9668   42.1012  211.8679 H   0  0  0  0  0  0  0  0  0  0  0  0
   51.6155   41.0389  210.5898 H   0  0  0  0  0  0  0  0  0  0  0  0
   48.2894   45.1444  209.6396 H   0  0  0  0  0  0  0  0  0  0  0  0
  1  2  2  0
  1  3  1  6
  1  4  1  0
  1  8  1  0
  5  6  2  0
  5  7  1  6
  5  8  1  0
  5 12  1  0
  9 10  2  0
  9 11  1  1
  9 12  1  0
  9 13  1  0
 13 14  1  0
 15 14  1  0
 15 16  1  0
 15 17  1  0
 16 21  1  0
 17 18  1  0
 17 19  1  0
 19 20  1  0
 19 21  1  0
 21 22  1  0
 22 23  1  0
 22 31  1  0
 23 24  2  0
 24 25  1  0
 25 26  2  0
 25 31  1  0
 26 27  1  0
 26 28  1  0
 28 29  2  0
 29 30  1  0
 30 31  2  0
 14 32  1  0
 14 33  1  0
 15 34  1  6
 17 35  1  6
 18 36  1  0
 19 37  1  1
 20 38  1  0
 21 39  1  1
 23 40  1  0
 27 41  1  0
 27 42  1  0
 29 43  1  0
M  CHG  4   3  -1   4  -1   7  -1  11  -1
M  END
>  <filename_input>  (12) 
7KRU_ATP_docked.sdf

>  <pdb_id>  (12) 
7KRU_ATP

>  <pose_rank>  (12) 
11

>  <num_atoms_heavy>  (12) 
31

>  <num_torsions>  (12) 
8

>  <pose>  (12) 
[47.59694115960366, 42.20186953397533, 203.75596412145896, -1.899896445558409, 1.780876874145802, 1.6423375347652862, 0.68470188558046, -3.990974173233268, -12.250715339308776, -22.46011327138148, -12.075152434027933, 0.994323192083102, -0.34063649991345907, 2.6235029420622773]

>  <energy>  (12) 
-693.9826339165543

>  <inter_energy>  (12) 
-684.2442922251083

>  <intra_energy>  (12) 
2.9331868026396046

>  <rmsd>  (12) 
9.98093

>  <sdf_rank>  (12) 
0

$$$$

     RDKit          3D

 43 45  0  0  0  0  0  0  0  0999 V2000
   45.9931   36.7371  203.5277 P   0  0  2  0  0  0  0  0  0  0  0  0
   45.9213   35.2386  203.3969 O   0  0  0  0  0  0  0  0  0  0  0  0
   47.0223   37.3975  202.6421 O   0  0  0  0  0  0  0  0  0  0  0  0
   45.9556   37.2818  204.9100 O   0  0  0  0  0  0  0  0  0  0  0  0
   44.2186   37.8144  201.4603 P   0  0  1  0  0  0  0  0  0  0  0  0
   45.0198   37.0720  200.4227 O   0  0  0  0  0  0  0  0  0  0  0  0
   42.7144   37.8934  201.2687 O   0  0  0  0  0  0  0  0  0  0  0  0
   44.5484   37.2570  202.9493 O   0  0  0  0  0  0  0  0  0  0  0  0
   46.1652   39.8553  201.0258 P   0  0  2  0  0  0  0  0  0  0  0  0
   45.9311   41.1229  200.2321 O   0  0  0  0  0  0  0  0  0  0  0  0
   46.8946   38.6839  200.4017 O   0  0  0  0  0  0  0  0  0  0  0  0
   44.7669   39.3335  201.6456 O   0  0  0  0  0  0  0  0  0  0  0  0
   46.8935   40.2198  202.4122 O   0  0  0  0  0  0  0  0  0  0  0  0
   48.0981   41.0112  202.4223 C   0  0  0  0  0  0  0  0  0  0  0  0
   47.8658   42.3564  203.1025 C   0  0  1  0  0  0  0  0  0  0  0  0
   48.0112   42.1788  204.5176 O   0  0  0  0  0  0  0  0  0  0  0  0
   48.8675   43.4255  202.6782 C   0  0  1  0  0  0  0  0  0  0  0  0
   48.1815   44.6628  202.5278 O   0  0  0  0  0  0  0  0  0  0  0  0
   49.8595   43.4715  203.8332 C   0  0  1  0  0  0  0  0  0  0  0  0
   50.4886   44.7458  203.9830 O   0  0  0  0  0  0  0  0  0  0  0  0
   48.9541   43.1268  205.0069 C   0  0  2  0  0  0  0  0  0  0  0  0
   49.6428   42.4838  206.1376 N   0  0  0  0  0  0  0  0  0  0  0  0
   50.5032   41.4418  206.0879 C   0  0  0  0  0  0  0  0  0  0  0  0
   50.9239   41.1008  207.3459 N   0  0  0  0  0  0  0  0  0  0  0  0
   50.2993   41.9557  208.1934 C   0  0  0  0  0  0  0  0  0  0  0  0
   50.2833   42.1577  209.6495 C   0  0  0  0  0  0  0  0  0  0  0  0
   51.0359   41.3550  210.4392 N   0  0  0  0  0  0  0  0  0  0  0  0
   49.5195   43.1471  210.1307 N   0  0  0  0  0  0  0  0  0  0  0  0
   48.7788   43.9407  209.3451 C   0  0  0  0  0  0  0  0  0  0  0  0
   48.7366   43.8077  208.0134 N   0  0  0  0  0  0  0  0  0  0  0  0
   49.4706   42.8575  207.4019 C   0  0  0  0  0  0  0  0  0  0  0  0
   48.8826   40.4644  202.9661 H   0  0  0  0  0  0  0  0  0  0  0  0
   48.4047   41.1942  201.3818 H   0  0  0  0  0  0  0  0  0  0  0  0
   46.8598   42.6934  202.8120 H   0  0  0  0  0  0  0  0  0  0  0  0
   49.3692   43.2209  201.7209 H   0  0  0  0  0  0  0  0  0  0  0  0
   47.9745   45.0361  203.4211 H   0  0  0  0  0  0  0  0  0  0  0  0
   50.7179   42.7951  203.7078 H   0  0  0  0  0  0  0  0  0  0  0  0
   50.5905   44.9523  204.9458 H   0  0  0  0  0  0  0  0  0  0  0  0
   48.5237   44.0681  205.3793 H   0  0  0  0  0  0  0  0  0  0  0  0
   50.8215   40.9372  205.1637 H   0  0  0  0  0  0  0  0  0  0  0  0
   51.0323   41.4875  211.4606 H   0  0  0  0  0  0  0  0  0  0  0  0
   51.6117   40.6119  210.0183 H   0  0  0  0  0  0  0  0  0  0  0  0
   48.1799   44.7353  209.8142 H   0  0  0  0  0  0  0  0  0  0  0  0
  1  2  2  0
  1  3  1  6
  1  4  1  0
  1  8  1  0
  5  6  2  0
  5  7  1  6
  5  8  1  0
  5 12  1  0
  9 10  2  0
  9 11  1  6
  9 12  1  0
  9 13  1  0
 13 14  1  0
 15 14  1  0
 15 16  1  0
 15 17  1  0
 16 21  1  0
 17 18  1  0
 17 19  1  0
 19 20  1  0
 19 21  1  0
 21 22  1  0
 22 23  1  0
 22 31  1  0
 23 24  2  0
 24 25  1  0
 25 26  2  0
 25 31  1  0
 26 27  1  0
 26 28  1  0
 28 29  2  0
 29 30  1  0
 30 31  2  0
 14 32  1  0
 14 33  1  0
 15 34  1  1
 17 35  1  6
 18 36  1  0
 19 37  1  6
 20 38  1  0
 21 39  1  1
 23 40  1  0
 27 41  1  0
 27 42  1  0
 29 43  1  0
M  CHG  4   3  -1   4  -1   7  -1  11  -1
M  END
>  <filename_input>  (13) 
7KRU_ATP_docked.sdf

>  <pdb_id>  (13) 
7KRU_ATP

>  <pose_rank>  (13) 
12

>  <num_atoms_heavy>  (13) 
31

>  <num_torsions>  (13) 
8

>  <pose>  (13) 
[47.8658095195692, 42.35643490654166, 203.10250523583736, -2.2894972705597145, 0.9185930311200805, 1.7286905152868244, 0.11777370918957061, -5.776917953121864, -0.7788181549309785, -1.8595783562153012, 1.1839836463456246, -0.949703182514153, 0.9965910508576054, -0.47520782145229873]

>  <energy>  (13) 
-558.0396743733277

>  <inter_energy>  (13) 
-634.5571638639001

>  <intra_energy>  (13) 
79.45759643799688

>  <rmsd>  (13) 
9.22081

>  <sdf_rank>  (13) 
0

$$$$

     RDKit          3D

 43 45  0  0  0  0  0  0  0  0999 V2000
   48.1268   42.0688  203.2644 P   0  0  2  0  0  0  0  0  0  0  0  0
   48.0707   42.4594  204.7176 O   0  0  0  0  0  0  0  0  0  0  0  0
   49.4228   41.4236  202.8358 O   0  0  0  0  0  0  0  0  0  0  0  0
   47.6041   43.0641  202.2923 O   0  0  0  0  0  0  0  0  0  0  0  0
   47.2491   39.2759  203.1466 P   0  0  1  0  0  0  0  0  0  0  0  0
   47.6925   38.7878  201.7920 O   0  0  0  0  0  0  0  0  0  0  0  0
   48.1043   38.9069  204.3457 O   0  0  0  0  0  0  0  0  0  0  0  0
   47.0032   40.8809  203.1276 O   0  0  0  0  0  0  0  0  0  0  0  0
   45.2347   37.2676  203.3733 P   0  0  2  0  0  0  0  0  0  0  0  0
   45.7339   36.4948  204.5754 O   0  0  0  0  0  0  0  0  0  0  0  0
   45.4915   36.7546  201.9716 O   0  0  0  0  0  0  0  0  0  0  0  0
   45.7275   38.8037  203.4690 O   0  0  0  0  0  0  0  0  0  0  0  0
   43.6571   37.5366  203.5288 O   0  0  0  0  0  0  0  0  0  0  0  0
   42.7539   37.2544  202.4415 C   0  0  0  0  0  0  0  0  0  0  0  0
   42.2042   38.5418  201.8359 C   0  0  1  0  0  0  0  0  0  0  0  0
   43.2409   39.1541  201.0577 O   0  0  0  0  0  0  0  0  0  0  0  0
   41.0196   38.3095  200.9035 C   0  0  1  0  0  0  0  0  0  0  0  0
   40.0595   39.3374  201.1175 O   0  0  0  0  0  0  0  0  0  0  0  0
   41.6318   38.3953  199.5114 C   0  0  1  0  0  0  0  0  0  0  0  0
   40.7031   38.8272  198.5150 O   0  0  0  0  0  0  0  0  0  0  0  0
   42.7461   39.4050  199.7464 C   0  0  2  0  0  0  0  0  0  0  0  0
   43.8934   39.2672  198.8348 N   0  0  0  0  0  0  0  0  0  0  0  0
   43.9686   38.5035  197.7215 C   0  0  0  0  0  0  0  0  0  0  0  0
   45.2056   38.6109  197.1434 N   0  0  0  0  0  0  0  0  0  0  0  0
   45.9123   39.4619  197.9280 C   0  0  0  0  0  0  0  0  0  0  0  0
   47.2748   40.0136  197.9080 C   0  0  0  0  0  0  0  0  0  0  0  0
   48.1206   39.6572  196.9121 N   0  0  0  0  0  0  0  0  0  0  0  0
   47.6155   40.8619  198.8869 N   0  0  0  0  0  0  0  0  0  0  0  0
   46.7742   41.2139  199.8687 C   0  0  0  0  0  0  0  0  0  0  0  0
   45.5238   40.7429  199.9559 N   0  0  0  0  0  0  0  0  0  0  0  0
   45.0522   39.8906  199.0249 C   0  0  0  0  0  0  0  0  0  0  0  0
   43.2923   36.6928  201.6638 H   0  0  0  0  0  0  0  0  0  0  0  0
   41.9115   36.6642  202.8314 H   0  0  0  0  0  0  0  0  0  0  0  0
   41.8652   39.1706  202.6723 H   0  0  0  0  0  0  0  0  0  0  0  0
   40.5015   37.3519  201.0602 H   0  0  0  0  0  0  0  0  0  0  0  0
   39.9326   39.4732  202.0898 H   0  0  0  0  0  0  0  0  0  0  0  0
   41.9723   37.4269  199.1162 H   0  0  0  0  0  0  0  0  0  0  0  0
   39.8984   39.2013  198.9540 H   0  0  0  0  0  0  0  0  0  0  0  0
   42.3218   40.4075  199.5882 H   0  0  0  0  0  0  0  0  0  0  0  0
   43.1487   37.8813  197.3334 H   0  0  0  0  0  0  0  0  0  0  0  0
   49.0774   40.0377  196.8882 H   0  0  0  0  0  0  0  0  0  0  0  0
   47.8069   39.0057  196.1786 H   0  0  0  0  0  0  0  0  0  0  0  0
   47.1258   41.9197  200.6356 H   0  0  0  0  0  0  0  0  0  0  0  0
  1  2  2  0
  1  3  1  6
  1  4  1  0
  1  8  1  0
  5  6  2  0
  5  7  1  1
  5  8  1  0
  5 12  1  0
  9 10  2  0
  9 11  1  6
  9 12  1  0
  9 13  1  0
 13 14  1  0
 15 14  1  0
 15 16  1  0
 15 17  1  0
 16 21  1  0
 17 18  1  0
 17 19  1  0
 19 20  1  0
 19 21  1  0
 21 22  1  0
 22 23  1  0
 22 31  1  0
 23 24  2  0
 24 25  1  0
 25 26  2  0
 25 31  1  0
 26 27  1  0
 26 28  1  0
 28 29  2  0
 29 30  1  0
 30 31  2  0
 14 32  1  0
 14 33  1  0
 15 34  1  1
 17 35  1  1
 18 36  1  0
 19 37  1  6
 20 38  1  0
 21 39  1  1
 23 40  1  0
 27 41  1  0
 27 42  1  0
 29 43  1  0
M  CHG  4   3  -1   4  -1   7  -1  11  -1
M  END
>  <filename_input>  (14) 
7KRU_ATP_docked.sdf

>  <pdb_id>  (14) 
7KRU_ATP

>  <pose_rank>  (14) 
13

>  <num_atoms_heavy>  (14) 
31

>  <num_torsions>  (14) 
8

>  <pose>  (14) 
[42.20422477312885, 38.5417597931678, 201.83587303468818, 0.003963098457521131, -0.9282384695849554, -1.6451048640076378, -5.134992003264987, -24.800261385440876, -29.82680707478058, -22.088437620811014, 50.542641220956305, 44.16304265936833, 11.509043444002323, -0.47339130926235745]

>  <energy>  (14) 
-606.9788475084333

>  <inter_energy>  (14) 
-635.0994680308967

>  <intra_energy>  (14) 
32.12954935075452

>  <rmsd>  (14) 
5.59617

>  <sdf_rank>  (14) 
0

$$$$

     RDKit          3D

 43 45  0  0  0  0  0  0  0  0999 V2000
   49.5938   33.6249  195.8209 P   0  0  2  0  0  0  0  0  0  0  0  0
   50.7160   34.4703  195.2791 O   0  0  0  0  0  0  0  0  0  0  0  0
   49.6045   33.4511  197.3207 O   0  0  0  0  0  0  0  0  0  0  0  0
   49.2894   32.3754  195.0762 O   0  0  0  0  0  0  0  0  0  0  0  0
   46.7135   33.9776  195.4164 P   0  0  1  0  0  0  0  0  0  0  0  0
   46.3737   33.5790  194.0038 O   0  0  0  0  0  0  0  0  0  0  0  0
   46.4563   32.9648  196.5180 O   0  0  0  0  0  0  0  0  0  0  0  0
   48.2455   34.5074  195.5120 O   0  0  0  0  0  0  0  0  0  0  0  0
   45.4410   36.4456  194.7587 P   0  0  2  0  0  0  0  0  0  0  0  0
   44.0146   36.1344  194.3588 O   0  0  0  0  0  0  0  0  0  0  0  0
   46.5086   36.6386  193.7020 O   0  0  0  0  0  0  0  0  0  0  0  0
   45.9569   35.3545  195.8335 O   0  0  0  0  0  0  0  0  0  0  0  0
   45.4562   37.7281  195.7285 O   0  0  0  0  0  0  0  0  0  0  0  0
   45.6782   37.5748  197.1444 C   0  0  0  0  0  0  0  0  0  0  0  0
   45.7410   38.9305  197.8404 C   0  0  1  0  0  0  0  0  0  0  0  0
   44.5383   39.1045  198.6010 O   0  0  0  0  0  0  0  0  0  0  0  0
   46.9097   39.0534  198.8127 C   0  0  1  0  0  0  0  0  0  0  0  0
   47.4676   40.3571  198.6965 O   0  0  0  0  0  0  0  0  0  0  0  0
   46.2697   38.8373  200.1779 C   0  0  1  0  0  0  0  0  0  0  0  0
   46.9702   39.4930  201.2368 O   0  0  0  0  0  0  0  0  0  0  0  0
   44.8846   39.4232  199.9448 C   0  0  2  0  0  0  0  0  0  0  0  0
   43.8299   38.8470  200.7945 N   0  0  0  0  0  0  0  0  0  0  0  0
   43.9698   38.3253  202.0341 C   0  0  0  0  0  0  0  0  0  0  0  0
   42.7693   37.8613  202.5025 N   0  0  0  0  0  0  0  0  0  0  0  0
   41.8667   38.1007  201.5190 C   0  0  0  0  0  0  0  0  0  0  0  0
   40.4261   37.8659  201.3435 C   0  0  0  0  0  0  0  0  0  0  0  0
   39.7242   37.2731  202.3386 N   0  0  0  0  0  0  0  0  0  0  0  0
   39.8679   38.2638  200.1929 N   0  0  0  0  0  0  0  0  0  0  0  0
   40.5659   38.8526  199.2122 C   0  0  0  0  0  0  0  0  0  0  0  0
   41.8812   39.0880  199.2988 N   0  0  0  0  0  0  0  0  0  0  0  0
   42.5607   38.7473  200.4114 C   0  0  0  0  0  0  0  0  0  0  0  0
   44.8542   36.9874  197.5756 H   0  0  0  0  0  0  0  0  0  0  0  0
   46.6391   37.0606  197.2937 H   0  0  0  0  0  0  0  0  0  0  0  0
   45.8668   39.6894  197.0541 H   0  0  0  0  0  0  0  0  0  0  0  0
   47.7268   38.3398  198.6305 H   0  0  0  0  0  0  0  0  0  0  0  0
   47.6270   40.7295  199.5998 H   0  0  0  0  0  0  0  0  0  0  0  0
   46.2694   37.7875  200.5064 H   0  0  0  0  0  0  0  0  0  0  0  0
   46.6270   39.1717  202.1081 H   0  0  0  0  0  0  0  0  0  0  0  0
   44.9379   40.4978  200.1739 H   0  0  0  0  0  0  0  0  0  0  0  0
   44.9179   38.2798  202.5901 H   0  0  0  0  0  0  0  0  0  0  0  0
   38.7145   37.1037  202.2264 H   0  0  0  0  0  0  0  0  0  0  0  0
   40.2002   36.9917  203.2076 H   0  0  0  0  0  0  0  0  0  0  0  0
   40.0359   39.1554  198.2972 H   0  0  0  0  0  0  0  0  0  0  0  0
  1  2  2  0
  1  3  1  1
  1  4  1  0
  1  8  1  0
  5  6  2  0
  5  7  1  1
  5  8  1  0
  5 12  1  0
  9 10  2  0
  9 11  1  6
  9 12  1  0
  9 13  1  0
 13 14  1  0
 15 14  1  0
 15 16  1  0
 15 17  1  0
 16 21  1  0
 17 18  1  0
 17 19  1  0
 19 20  1  0
 19 21  1  0
 21 22  1  0
 22 23  1  0
 22 31  1  0
 23 24  2  0
 24 25  1  0
 25 26  2  0
 25 31  1  0
 26 27  1  0
 26 28  1  0
 28 29  2  0
 29 30  1  0
 30 31  2  0
 14 32  1  0
 14 33  1  0
 15 34  1  6
 17 35  1  6
 18 36  1  0
 19 37  1  1
 20 38  1  0
 21 39  1  6
 23 40  1  0
 27 41  1  0
 27 42  1  0
 29 43  1  0
M  CHG  4   3  -1   4  -1   7  -1  11  -1
M  END
>  <filename_input>  (15) 
7KRU_ATP_docked.sdf

>  <pdb_id>  (15) 
7KRU_ATP

>  <pose_rank>  (15) 
14

>  <num_atoms_heavy>  (15) 
31

>  <num_torsions>  (15) 
8

>  <pose>  (15) 
[45.74097804731413, 38.930467333039836, 197.84040106835957, -1.9616246372192891, 1.121610769930473, 0.17889398624191058, 1.4654395160567022, 0.9125956920986739, 0.2997473560508032, 0.8910837223538173, 0.5334048864503197, -1.154213985847556, -1.2086447344396551, -2.277688939013892]

>  <energy>  (15) 
-604.8407723830039

>  <inter_energy>  (15) 
-631.1928495563269

>  <intra_energy>  (15) 
24.255094240946008

>  <rmsd>  (15) 
9.16099

>  <sdf_rank>  (15) 
0

$$$$

     RDKit          3D

 43 45  0  0  0  0  0  0  0  0999 V2000
   47.3892   30.8760  194.7549 P   0  0  2  0  0  0  0  0  0  0  0  0
   48.6607   30.0929  194.5610 O   0  0  0  0  0  0  0  0  0  0  0  0
   46.1619   30.0321  195.0026 O   0  0  0  0  0  0  0  0  0  0  0  0
   47.1593   32.0049  193.8160 O   0  0  0  0  0  0  0  0  0  0  0  0
   46.6660   32.8003  196.8425 P   0  0  1  0  0  0  0  0  0  0  0  0
   45.2609   32.6866  196.3113 O   0  0  0  0  0  0  0  0  0  0  0  0
   46.8557   32.7842  198.3490 O   0  0  0  0  0  0  0  0  0  0  0  0
   47.6306   31.6857  196.1614 O   0  0  0  0  0  0  0  0  0  0  0  0
   48.4314   35.0218  197.1449 P   0  0  2  0  0  0  0  0  0  0  0  0
   48.9793   36.1493  196.2963 O   0  0  0  0  0  0  0  0  0  0  0  0
   49.3711   34.0960  197.8889 O   0  0  0  0  0  0  0  0  0  0  0  0
   47.4005   34.1338  196.2728 O   0  0  0  0  0  0  0  0  0  0  0  0
   47.3700   35.6130  198.1981 O   0  0  0  0  0  0  0  0  0  0  0  0
   47.6475   36.8334  198.9129 C   0  0  0  0  0  0  0  0  0  0  0  0
   46.8517   38.0002  198.3372 C   0  0  1  0  0  0  0  0  0  0  0  0
   45.4738   37.8273  198.6934 O   0  0  0  0  0  0  0  0  0  0  0  0
   47.2908   39.3550  198.8834 C   0  0  1  0  0  0  0  0  0  0  0  0
   47.2839   40.3016  197.8214 O   0  0  0  0  0  0  0  0  0  0  0  0
   46.2359   39.6820  199.9325 C   0  0  1  0  0  0  0  0  0  0  0  0
   46.0544   41.0858  200.1280 O   0  0  0  0  0  0  0  0  0  0  0  0
   45.0092   39.0141  199.3281 C   0  0  2  0  0  0  0  0  0  0  0  0
   43.9998   38.5921  200.3127 N   0  0  0  0  0  0  0  0  0  0  0  0
   44.2114   37.9202  201.4668 C   0  0  0  0  0  0  0  0  0  0  0  0
   43.0270   37.6803  202.1116 N   0  0  0  0  0  0  0  0  0  0  0  0
   42.0592   38.2166  201.3272 C   0  0  0  0  0  0  0  0  0  0  0  0
   40.5947   38.3217  201.3999 C   0  0  0  0  0  0  0  0  0  0  0  0
   39.9431   37.7908  202.4619 N   0  0  0  0  0  0  0  0  0  0  0  0
   39.9673   38.9548  200.4002 N   0  0  0  0  0  0  0  0  0  0  0  0
   40.6167   39.4811  199.3528 C   0  0  0  0  0  0  0  0  0  0  0  0
   41.9469   39.4136  199.2156 N   0  0  0  0  0  0  0  0  0  0  0  0
   42.6978   38.8136  200.1600 C   0  0  0  0  0  0  0  0  0  0  0  0
   47.3756   36.7001  199.9704 H   0  0  0  0  0  0  0  0  0  0  0  0
   48.7196   37.0596  198.8149 H   0  0  0  0  0  0  0  0  0  0  0  0
   47.0190   37.9974  197.2500 H   0  0  0  0  0  0  0  0  0  0  0  0
   48.3042   39.3634  199.3112 H   0  0  0  0  0  0  0  0  0  0  0  0
   47.2772   41.2179  198.1961 H   0  0  0  0  0  0  0  0  0  0  0  0
   46.4922   39.3316  200.9433 H   0  0  0  0  0  0  0  0  0  0  0  0
   46.0289   41.2833  201.0978 H   0  0  0  0  0  0  0  0  0  0  0  0
   44.5294   39.7462  198.6619 H   0  0  0  0  0  0  0  0  0  0  0  0
   45.1992   37.6089  201.8372 H   0  0  0  0  0  0  0  0  0  0  0  0
   38.9171   37.8586  202.5231 H   0  0  0  0  0  0  0  0  0  0  0  0
   40.4735   37.3192  203.2083 H   0  0  0  0  0  0  0  0  0  0  0  0
   40.0320   39.9903  198.5724 H   0  0  0  0  0  0  0  0  0  0  0  0
  1  2  2  0
  1  3  1  1
  1  4  1  0
  1  8  1  0
  5  6  2  0
  5  7  1  1
  5  8  1  0
  5 12  1  0
  9 10  2  0
  9 11  1  1
  9 12  1  0
  9 13  1  0
 13 14  1  0
 15 14  1  0
 15 16  1  0
 15 17  1  0
 16 21  1  0
 17 18  1  0
 17 19  1  0
 19 20  1  0
 19 21  1  0
 21 22  1  0
 22 23  1  0
 22 31  1  0
 23 24  2  0
 24 25  1  0
 25 26  2  0
 25 31  1  0
 26 27  1  0
 26 28  1  0
 28 29  2  0
 29 30  1  0
 30 31  2  0
 14 32  1  0
 14 33  1  0
 15 34  1  6
 17 35  1  1
 18 36  1  0
 19 37  1  1
 20 38  1  0
 21 39  1  6
 23 40  1  0
 27 41  1  0
 27 42  1  0
 29 43  1  0
M  CHG  4   3  -1   4  -1   7  -1  11  -1
M  END
>  <filename_input>  (16) 
7KRU_ATP_docked.sdf

>  <pdb_id>  (16) 
7KRU_ATP

>  <pose_rank>  (16) 
15

>  <num_atoms_heavy>  (16) 
31

>  <num_torsions>  (16) 
8

>  <pose>  (16) 
[46.851692190345496, 38.000244909861536, 198.33723285100922, -2.9096664918825708, 0.39281008158141784, -0.2958242322543022, 0.1452766446423028, 0.2891116588504673, -0.9598461625630921, 4.582662996374731, 2.044340824028379, 1.7659656606630074, 0.7249717284925159, -2.0091888160584097]

>  <energy>  (16) 
-554.6988328754695

>  <inter_energy>  (16) 
-586.375565185176

>  <intra_energy>  (16) 
21.372346761129748

>  <rmsd>  (16) 
9.66478

>  <sdf_rank>  (16) 
0

$$$$

     RDKit          3D

 43 45  0  0  0  0  0  0  0  0999 V2000
   43.8008   37.9397  201.7907 P   0  0  2  0  0  0  0  0  0  0  0  0
   42.3195   37.6852  201.8834 O   0  0  0  0  0  0  0  0  0  0  0  0
   44.1886   39.0701  200.8680 O   0  0  0  0  0  0  0  0  0  0  0  0
   44.6702   36.7408  201.6660 O   0  0  0  0  0  0  0  0  0  0  0  0
   45.2518   37.7822  204.3312 P   0  0  1  0  0  0  0  0  0  0  0  0
   44.7267   37.8599  205.7411 O   0  0  0  0  0  0  0  0  0  0  0  0
   45.6736   36.4206  203.8079 O   0  0  0  0  0  0  0  0  0  0  0  0
   44.2092   38.4653  203.2904 O   0  0  0  0  0  0  0  0  0  0  0  0
   46.9934   39.3095  202.6647 P   0  0  2  0  0  0  0  0  0  0  0  0
   45.7906   39.6462  201.8095 O   0  0  0  0  0  0  0  0  0  0  0  0
   48.0642   38.3721  202.1464 O   0  0  0  0  0  0  0  0  0  0  0  0
   46.5041   38.7962  204.1169 O   0  0  0  0  0  0  0  0  0  0  0  0
   47.7051   40.6691  203.1446 O   0  0  0  0  0  0  0  0  0  0  0  0
   47.0411   41.5605  204.0622 C   0  0  0  0  0  0  0  0  0  0  0  0
   47.7961   42.8797  204.1896 C   0  0  1  0  0  0  0  0  0  0  0  0
   48.1788   43.0511  205.5605 O   0  0  0  0  0  0  0  0  0  0  0  0
   49.0733   42.9241  203.3572 C   0  0  1  0  0  0  0  0  0  0  0  0
   49.1952   44.2158  202.7732 O   0  0  0  0  0  0  0  0  0  0  0  0
   50.1775   42.6619  204.3732 C   0  0  1  0  0  0  0  0  0  0  0  0
   51.4285   43.2473  204.0069 O   0  0  0  0  0  0  0  0  0  0  0  0
   49.5801   43.2965  205.6209 C   0  0  2  0  0  0  0  0  0  0  0  0
   50.0514   42.7105  206.8861 N   0  0  0  0  0  0  0  0  0  0  0  0
   50.6438   41.5078  207.0618 C   0  0  0  0  0  0  0  0  0  0  0  0
   50.9208   41.2934  208.3859 N   0  0  0  0  0  0  0  0  0  0  0  0
   50.4807   42.3951  209.0430 C   0  0  0  0  0  0  0  0  0  0  0  0
   50.4532   42.8333  210.4461 C   0  0  0  0  0  0  0  0  0  0  0  0
   50.9629   42.0232  211.4043 N   0  0  0  0  0  0  0  0  0  0  0  0
   49.9246   44.0350  210.7109 N   0  0  0  0  0  0  0  0  0  0  0  0
   49.4241   44.8343  209.7589 C   0  0  0  0  0  0  0  0  0  0  0  0
   49.4062   44.4961  208.4635 N   0  0  0  0  0  0  0  0  0  0  0  0
   49.9204   43.3171  208.0619 C   0  0  0  0  0  0  0  0  0  0  0  0
   46.0243   41.7626  203.6945 H   0  0  0  0  0  0  0  0  0  0  0  0
   47.0064   41.0809  205.0516 H   0  0  0  0  0  0  0  0  0  0  0  0
   47.1227   43.6709  203.8284 H   0  0  0  0  0  0  0  0  0  0  0  0
   49.1010   42.1974  202.5319 H   0  0  0  0  0  0  0  0  0  0  0  0
   49.2595   44.8968  203.4889 H   0  0  0  0  0  0  0  0  0  0  0  0
   50.4352   41.5982  204.4835 H   0  0  0  0  0  0  0  0  0  0  0  0
   51.9341   43.4839  204.8245 H   0  0  0  0  0  0  0  0  0  0  0  0
   49.8715   44.3572  205.6236 H   0  0  0  0  0  0  0  0  0  0  0  0
   50.8719   40.7988  206.2523 H   0  0  0  0  0  0  0  0  0  0  0  0
   50.9489   42.3201  212.3905 H   0  0  0  0  0  0  0  0  0  0  0  0
   51.3645   41.1104  211.1469 H   0  0  0  0  0  0  0  0  0  0  0  0
   49.0103   45.8098  210.0542 H   0  0  0  0  0  0  0  0  0  0  0  0
  1  2  2  0
  1  3  1  6
  1  4  1  0
  1  8  1  0
  5  6  2  0
  5  7  1  6
  5  8  1  0
  5 12  1  0
  9 10  2  0
  9 11  1  6
  9 12  1  0
  9 13  1  0
 13 14  1  0
 15 14  1  0
 15 16  1  0
 15 17  1  0
 16 21  1  0
 17 18  1  0
 17 19  1  0
 19 20  1  0
 19 21  1  0
 21 22  1  0
 22 23  1  0
 22 31  1  0
 23 24  2  0
 24 25  1  0
 25 26  2  0
 25 31  1  0
 26 27  1  0
 26 28  1  0
 28 29  2  0
 29 30  1  0
 30 31  2  0
 14 32  1  0
 14 33  1  0
 15 34  1  6
 17 35  1  6
 18 36  1  0
 19 37  1  1
 20 38  1  0
 21 39  1  1
 23 40  1  0
 27 41  1  0
 27 42  1  0
 29 43  1  0
M  CHG  4   3  -1   4  -1   7  -1  11  -1
M  END
>  <filename_input>  (17) 
7KRU_ATP_docked.sdf

>  <pdb_id>  (17) 
7KRU_ATP

>  <pose_rank>  (17) 
16

>  <num_atoms_heavy>  (17) 
31

>  <num_torsions>  (17) 
8

>  <pose>  (17) 
[47.79605330645319, 42.87966009190661, 204.18963961372546, -1.7063482817565467, 1.8822379973791645, 1.5428466339784914, -5.648182807844611, -3.0618100075738055, 13.097076797725604, 0.22894525750783606, -6.6021607546084145, -3.5363294605274547, -2.080361707574958, -2.974304277548019]

>  <energy>  (17) 
-479.4220736504364

>  <inter_energy>  (17) 
-660.0710653138299

>  <intra_energy>  (17) 
184.56717016517194

>  <rmsd>  (17) 
9.65583

>  <sdf_rank>  (17) 
0

$$$$

     RDKit          3D

 43 45  0  0  0  0  0  0  0  0999 V2000
   50.3548   35.3404  194.3239 P   0  0  2  0  0  0  0  0  0  0  0  0
   51.3810   35.6989  195.3660 O   0  0  0  0  0  0  0  0  0  0  0  0
   50.7137   34.1470  193.4716 O   0  0  0  0  0  0  0  0  0  0  0  0
   49.7717   36.4708  193.5551 O   0  0  0  0  0  0  0  0  0  0  0  0
   48.3235   35.6449  196.4132 P   0  0  1  0  0  0  0  0  0  0  0  0
   48.6065   34.9741  197.7321 O   0  0  0  0  0  0  0  0  0  0  0  0
   48.6129   37.1311  196.2994 O   0  0  0  0  0  0  0  0  0  0  0  0
   49.0536   34.8543  195.1972 O   0  0  0  0  0  0  0  0  0  0  0  0
   45.8892   36.5454  195.2272 P   0  0  2  0  0  0  0  0  0  0  0  0
   44.4188   36.2306  195.4016 O   0  0  0  0  0  0  0  0  0  0  0  0
   46.4590   36.8061  193.8485 O   0  0  0  0  0  0  0  0  0  0  0  0
   46.7802   35.4126  195.9583 O   0  0  0  0  0  0  0  0  0  0  0  0
   46.2874   37.7800  196.1773 O   0  0  0  0  0  0  0  0  0  0  0  0
   45.3629   38.2717  197.1677 C   0  0  0  0  0  0  0  0  0  0  0  0
   46.0962   38.7291  198.4244 C   0  0  1  0  0  0  0  0  0  0  0  0
   45.1228   39.1626  199.3835 O   0  0  0  0  0  0  0  0  0  0  0  0
   46.9122   37.6205  199.0813 C   0  0  1  0  0  0  0  0  0  0  0  0
   48.1465   38.1655  199.5325 O   0  0  0  0  0  0  0  0  0  0  0  0
   46.0397   37.1695  200.2456 C   0  0  1  0  0  0  0  0  0  0  0  0
   46.7910   36.6272  201.3334 O   0  0  0  0  0  0  0  0  0  0  0  0
   45.3453   38.4739  200.6098 C   0  0  2  0  0  0  0  0  0  0  0  0
   44.0251   38.3049  201.2380 N   0  0  0  0  0  0  0  0  0  0  0  0
   43.7624   37.8491  202.4836 C   0  0  0  0  0  0  0  0  0  0  0  0
   42.4121   37.8058  202.7087 N   0  0  0  0  0  0  0  0  0  0  0  0
   41.8285   38.2434  201.5653 C   0  0  0  0  0  0  0  0  0  0  0  0
   40.4455   38.4483  201.1106 C   0  0  0  0  0  0  0  0  0  0  0  0
   39.4218   38.1655  201.9510 N   0  0  0  0  0  0  0  0  0  0  0  0
   40.2633   38.9201  199.8704 N   0  0  0  0  0  0  0  0  0  0  0  0
   41.2795   39.2012  199.0434 C   0  0  0  0  0  0  0  0  0  0  0  0
   42.5624   39.0291  199.3863 N   0  0  0  0  0  0  0  0  0  0  0  0
   42.8826   38.5721  200.6128 C   0  0  0  0  0  0  0  0  0  0  0  0
   44.8051   39.1218  196.7478 H   0  0  0  0  0  0  0  0  0  0  0  0
   44.6770   37.4562  197.4408 H   0  0  0  0  0  0  0  0  0  0  0  0
   46.7866   39.5295  198.1197 H   0  0  0  0  0  0  0  0  0  0  0  0
   47.1593   36.7833  198.4119 H   0  0  0  0  0  0  0  0  0  0  0  0
   48.1620   38.1724  200.5223 H   0  0  0  0  0  0  0  0  0  0  0  0
   45.3556   36.3456  199.9941 H   0  0  0  0  0  0  0  0  0  0  0  0
   46.3884   36.9178  202.1898 H   0  0  0  0  0  0  0  0  0  0  0  0
   45.9866   38.9983  201.3334 H   0  0  0  0  0  0  0  0  0  0  0  0
   44.5283   37.5535  203.2158 H   0  0  0  0  0  0  0  0  0  0  0  0
   38.4489   38.3053  201.6429 H   0  0  0  0  0  0  0  0  0  0  0  0
   39.6161   37.8107  202.8982 H   0  0  0  0  0  0  0  0  0  0  0  0
   41.0501   39.5898  198.0403 H   0  0  0  0  0  0  0  0  0  0  0  0
  1  2  2  0
  1  3  1  6
  1  4  1  0
  1  8  1  0
  5  6  2  0
  5  7  1  1
  5  8  1  0
  5 12  1  0
  9 10  2  0
  9 11  1  6
  9 12  1  0
  9 13  1  0
 13 14  1  0
 15 14  1  0
 15 16  1  0
 15 17  1  0
 16 21  1  0
 17 18  1  0
 17 19  1  0
 19 20  1  0
 19 21  1  0
 21 22  1  0
 22 23  1  0
 22 31  1  0
 23 24  2  0
 24 25  1  0
 25 26  2  0
 25 31  1  0
 26 27  1  0
 26 28  1  0
 28 29  2  0
 29 30  1  0
 30 31  2  0
 14 32  1  0
 14 33  1  0
 15 34  1  6
 17 35  1  6
 18 36  1  0
 19 37  1  6
 20 38  1  0
 21 39  1  1
 23 40  1  0
 27 41  1  0
 27 42  1  0
 29 43  1  0
M  CHG  4   3  -1   4  -1   7  -1  11  -1
M  END
>  <filename_input>  (18) 
7KRU_ATP_docked.sdf

>  <pdb_id>  (18) 
7KRU_ATP

>  <pose_rank>  (18) 
17

>  <num_atoms_heavy>  (18) 
31

>  <num_torsions>  (18) 
8

>  <pose>  (18) 
[46.09621731690121, 38.72910561962943, 198.4244081563041, 2.5269582988174797, -3.696520104317747, -0.30917458445583074, 2.2065080767537126, 2.212392298059171, -0.25602216467259864, -0.7776516399940047, 2.45676476275911, 1.734066985766687, -1.523702179021673, 2.133741161969126]

>  <energy>  (18) 
-528.1612893779311

>  <inter_energy>  (18) 
-593.0469211370965

>  <intra_energy>  (18) 
69.15884386422736

>  <rmsd>  (18) 
8.61076

>  <sdf_rank>  (18) 
0

$$$$

     RDKit          3D

 43 45  0  0  0  0  0  0  0  0999 V2000
   51.3419   43.1784  210.6839 P   0  0  2  0  0  0  0  0  0  0  0  0
   52.6262   43.8885  210.3468 O   0  0  0  0  0  0  0  0  0  0  0  0
   50.4586   43.9084  211.6671 O   0  0  0  0  0  0  0  0  0  0  0  0
   51.4424   41.7180  210.9401 O   0  0  0  0  0  0  0  0  0  0  0  0
   49.4623   44.3235  208.7500 P   0  0  1  0  0  0  0  0  0  0  0  0
   48.1909   44.3005  209.5579 O   0  0  0  0  0  0  0  0  0  0  0  0
   50.1876   45.6502  208.6107 O   0  0  0  0  0  0  0  0  0  0  0  0
   50.4991   43.1899  209.2762 O   0  0  0  0  0  0  0  0  0  0  0  0
   48.5339   44.6078  206.0667 P   0  0  2  0  0  0  0  0  0  0  0  0
   48.7192   46.0851  206.3398 O   0  0  0  0  0  0  0  0  0  0  0  0
   47.1563   44.0485  205.7779 O   0  0  0  0  0  0  0  0  0  0  0  0
   49.2135   43.7442  207.2516 O   0  0  0  0  0  0  0  0  0  0  0  0
   49.5187   44.1566  204.8784 O   0  0  0  0  0  0  0  0  0  0  0  0
   50.1239   42.8484  204.8837 C   0  0  0  0  0  0  0  0  0  0  0  0
   50.1662   42.2571  203.4784 C   0  0  1  0  0  0  0  0  0  0  0  0
   49.3995   41.0458  203.4742 O   0  0  0  0  0  0  0  0  0  0  0  0
   49.5617   43.1756  202.4213 C   0  0  1  0  0  0  0  0  0  0  0  0
   50.3624   43.1124  201.2471 O   0  0  0  0  0  0  0  0  0  0  0  0
   48.1742   42.5931  202.1856 C   0  0  1  0  0  0  0  0  0  0  0  0
   47.6718   42.8521  200.8732 O   0  0  0  0  0  0  0  0  0  0  0  0
   48.4358   41.1136  202.4282 C   0  0  2  0  0  0  0  0  0  0  0  0
   47.2622   40.3570  202.8934 N   0  0  0  0  0  0  0  0  0  0  0  0
   46.9289   40.0650  204.1708 C   0  0  0  0  0  0  0  0  0  0  0  0
   45.7795   39.3213  204.2135 N   0  0  0  0  0  0  0  0  0  0  0  0
   45.3989   39.1474  202.9235 C   0  0  0  0  0  0  0  0  0  0  0  0
   44.2872   38.4650  202.2453 C   0  0  0  0  0  0  0  0  0  0  0  0
   43.3550   37.8186  202.9852 N   0  0  0  0  0  0  0  0  0  0  0  0
   44.2458   38.5241  200.9080 N   0  0  0  0  0  0  0  0  0  0  0  0
   45.1690   39.1674  200.1803 C   0  0  0  0  0  0  0  0  0  0  0  0
   46.2131   39.8009  200.7293 N   0  0  0  0  0  0  0  0  0  0  0  0
   46.3641   39.8278  202.0680 C   0  0  0  0  0  0  0  0  0  0  0  0
   51.1504   42.9291  205.2706 H   0  0  0  0  0  0  0  0  0  0  0  0
   49.5206   42.1871  205.5230 H   0  0  0  0  0  0  0  0  0  0  0  0
   51.2256   42.0970  203.2294 H   0  0  0  0  0  0  0  0  0  0  0  0
   49.5121   44.2341  202.7166 H   0  0  0  0  0  0  0  0  0  0  0  0
   51.3162   43.0372  201.5017 H   0  0  0  0  0  0  0  0  0  0  0  0
   47.3953   43.0281  202.8292 H   0  0  0  0  0  0  0  0  0  0  0  0
   46.7938   43.3047  200.9393 H   0  0  0  0  0  0  0  0  0  0  0  0
   48.7501   40.6727  201.4707 H   0  0  0  0  0  0  0  0  0  0  0  0
   47.5023   40.3814  205.0547 H   0  0  0  0  0  0  0  0  0  0  0  0
   42.5719   37.3371  202.5205 H   0  0  0  0  0  0  0  0  0  0  0  0
   43.4291   37.8084  204.0124 H   0  0  0  0  0  0  0  0  0  0  0  0
   45.0647   39.1754  199.0853 H   0  0  0  0  0  0  0  0  0  0  0  0
  1  2  2  0
  1  3  1  1
  1  4  1  0
  1  8  1  0
  5  6  2  0
  5  7  1  6
  5  8  1  0
  5 12  1  0
  9 10  2  0
  9 11  1  6
  9 12  1  0
  9 13  1  0
 13 14  1  0
 15 14  1  0
 15 16  1  0
 15 17  1  0
 16 21  1  0
 17 18  1  0
 17 19  1  0
 19 20  1  0
 19 21  1  0
 21 22  1  0
 22 23  1  0
 22 31  1  0
 23 24  2  0
 24 25  1  0
 25 26  2  0
 25 31  1  0
 26 27  1  0
 26 28  1  0
 28 29  2  0
 29 30  1  0
 30 31  2  0
 14 32  1  0
 14 33  1  0
 15 34  1  6
 17 35  1  1
 18 36  1  0
 19 37  1  1
 20 38  1  0
 21 39  1  6
 23 40  1  0
 27 41  1  0
 27 42  1  0
 29 43  1  0
M  CHG  4   3  -1   4  -1   7  -1  11  -1
M  END
>  <filename_input>  (19) 
7KRU_ATP_docked.sdf

>  <pdb_id>  (19) 
7KRU_ATP

>  <pose_rank>  (19) 
18

>  <num_atoms_heavy>  (19) 
31

>  <num_torsions>  (19) 
8

>  <pose>  (19) 
[50.16615856884586, 42.25713687297904, 203.4784401875573, 1.9433822804771093, 1.0452714280893194, 1.307062886190227, -0.7053264432272198, 3.2441136816987908, -0.3165852663815031, 1.5837057768303837, -0.6333378697367831, 0.6315313770202119, -0.8696946614231086, -0.33234529576673527]

>  <energy>  (19) 
-519.9136005741149

>  <inter_energy>  (19) 
-546.0617994021537

>  <intra_energy>  (19) 
17.401274230431724

>  <rmsd>  (19) 
5.02185

>  <sdf_rank>  (19) 
0

$$$$

     RDKit          3D

 43 45  0  0  0  0  0  0  0  0999 V2000
   46.2683   37.7209  203.0507 P   0  0  2  0  0  0  0  0  0  0  0  0
   44.9455   38.3590  203.3835 O   0  0  0  0  0  0  0  0  0  0  0  0
   46.5154   37.5174  201.5752 O   0  0  0  0  0  0  0  0  0  0  0  0
   46.6725   36.5630  203.8901 O   0  0  0  0  0  0  0  0  0  0  0  0
   47.1730   40.4461  203.6326 P   0  0  1  0  0  0  0  0  0  0  0  0
   47.0827   41.0786  202.2682 O   0  0  0  0  0  0  0  0  0  0  0  0
   46.0623   40.7431  204.6244 O   0  0  0  0  0  0  0  0  0  0  0  0
   47.3770   38.8398  203.5099 O   0  0  0  0  0  0  0  0  0  0  0  0
   49.1426   42.3220  204.4958 P   0  0  2  0  0  0  0  0  0  0  0  0
   48.0147   43.3081  204.2791 O   0  0  0  0  0  0  0  0  0  0  0  0
   50.4301   42.4448  203.7078 O   0  0  0  0  0  0  0  0  0  0  0  0
   48.5825   40.8126  204.3548 O   0  0  0  0  0  0  0  0  0  0  0  0
   49.5134   42.2697  206.0594 O   0  0  0  0  0  0  0  0  0  0  0  0
   49.1741   43.3663  206.9311 C   0  0  0  0  0  0  0  0  0  0  0  0
   50.3208   43.6847  207.8850 C   0  0  1  0  0  0  0  0  0  0  0  0
   49.8851   44.7073  208.7905 O   0  0  0  0  0  0  0  0  0  0  0  0
   50.7499   42.4892  208.7295 C   0  0  1  0  0  0  0  0  0  0  0  0
   52.1690   42.4844  208.8297 O   0  0  0  0  0  0  0  0  0  0  0  0
   50.0935   42.7451  210.0800 C   0  0  1  0  0  0  0  0  0  0  0  0
   50.8054   42.1577  211.1708 O   0  0  0  0  0  0  0  0  0  0  0  0
   50.1082   44.2663  210.1259 C   0  0  2  0  0  0  0  0  0  0  0  0
   49.0389   44.8601  210.9447 N   0  0  0  0  0  0  0  0  0  0  0  0
   47.7818   44.3924  211.1155 C   0  0  0  0  0  0  0  0  0  0  0  0
   47.0613   45.2262  211.9289 N   0  0  0  0  0  0  0  0  0  0  0  0
   47.8997   46.2384  212.2631 C   0  0  0  0  0  0  0  0  0  0  0  0
   47.7953   47.4533  213.0845 C   0  0  0  0  0  0  0  0  0  0  0  0
   46.6263   47.7346  213.7077 N   0  0  0  0  0  0  0  0  0  0  0  0
   48.8816   48.2303  213.1844 N   0  0  0  0  0  0  0  0  0  0  0  0
   50.0372   47.9463  212.5682 C   0  0  0  0  0  0  0  0  0  0  0  0
   50.2009   46.8642  211.7968 N   0  0  0  0  0  0  0  0  0  0  0  0
   49.1875   45.9930  211.6244 C   0  0  0  0  0  0  0  0  0  0  0  0
   48.9564   44.2557  206.3215 H   0  0  0  0  0  0  0  0  0  0  0  0
   48.2941   43.0804  207.5259 H   0  0  0  0  0  0  0  0  0  0  0  0
   51.1765   43.9934  207.2665 H   0  0  0  0  0  0  0  0  0  0  0  0
   50.4565   41.5136  208.3145 H   0  0  0  0  0  0  0  0  0  0  0  0
   52.4325   42.4835  209.7840 H   0  0  0  0  0  0  0  0  0  0  0  0
   49.0936   42.2974  210.1790 H   0  0  0  0  0  0  0  0  0  0  0  0
   50.4202   42.4755  212.0256 H   0  0  0  0  0  0  0  0  0  0  0  0
   51.0672   44.5739  210.5681 H   0  0  0  0  0  0  0  0  0  0  0  0
   47.3913   43.4688  210.6632 H   0  0  0  0  0  0  0  0  0  0  0  0
   46.5419   48.5830  214.2856 H   0  0  0  0  0  0  0  0  0  0  0  0
   45.8216   47.1001  213.6037 H   0  0  0  0  0  0  0  0  0  0  0  0
   50.8874   48.6313  212.7018 H   0  0  0  0  0  0  0  0  0  0  0  0
  1  2  2  0
  1  3  1  6
  1  4  1  0
  1  8  1  0
  5  6  2  0
  5  7  1  1
  5  8  1  0
  5 12  1  0
  9 10  2  0
  9 11  1  6
  9 12  1  0
  9 13  1  0
 13 14  1  0
 15 14  1  0
 15 16  1  0
 15 17  1  0
 16 21  1  0
 17 18  1  0
 17 19  1  0
 19 20  1  0
 19 21  1  0
 21 22  1  0
 22 23  1  0
 22 31  1  0
 23 24  2  0
 24 25  1  0
 25 26  2  0
 25 31  1  0
 26 27  1  0
 26 28  1  0
 28 29  2  0
 29 30  1  0
 30 31  2  0
 14 32  1  0
 14 33  1  0
 15 34  1  6
 17 35  1  6
 18 36  1  0
 19 37  1  6
 20 38  1  0
 21 39  1  1
 23 40  1  0
 27 41  1  0
 27 42  1  0
 29 43  1  0
M  CHG  4   3  -1   4  -1   7  -1  11  -1
M  END
>  <filename_input>  (20) 
7KRU_ATP_docked.sdf

>  <pdb_id>  (20) 
7KRU_ATP

>  <pose_rank>  (20) 
19

>  <num_atoms_heavy>  (20) 
31

>  <num_torsions>  (20) 
8

>  <pose>  (20) 
[50.32080430128322, 43.68472380543247, 207.88503809453522, 1.686832998805829, -3.753173182407813, 0.6225258750209357, 0.3675327732198385, 2.257166823292532, 1.1080950971406227, -1.3270682525716102, -0.7401170767360526, 0.1468799838833277, -0.896855072530986, 0.7901343398106714]

>  <energy>  (20) 
-492.25417677187784

>  <inter_energy>  (20) 
-495.44387222777306

>  <intra_energy>  (20) 
9.908756392890735

>  <rmsd>  (20) 
10.8789

>  <sdf_rank>  (20) 
0

$$$$

     RDKit          3D

 43 45  0  0  0  0  0  0  0  0999 V2000
   44.0207   32.9135  195.3200 P   0  0  2  0  0  0  0  0  0  0  0  0
   42.7662   33.7265  195.1389 O   0  0  0  0  0  0  0  0  0  0  0  0
   44.3912   32.0554  194.1343 O   0  0  0  0  0  0  0  0  0  0  0  0
   44.1792   32.2264  196.6283 O   0  0  0  0  0  0  0  0  0  0  0  0
   46.7713   33.8662  194.9876 P   0  0  1  0  0  0  0  0  0  0  0  0
   47.3466   32.5993  195.5650 O   0  0  0  0  0  0  0  0  0  0  0  0
   46.9185   34.0926  193.4934 O   0  0  0  0  0  0  0  0  0  0  0  0
   45.2133   34.0366  195.4122 O   0  0  0  0  0  0  0  0  0  0  0  0
   47.8010   35.1869  197.2981 P   0  0  2  0  0  0  0  0  0  0  0  0
   49.2958   34.9789  197.4163 O   0  0  0  0  0  0  0  0  0  0  0  0
   46.8415   34.3142  198.0801 O   0  0  0  0  0  0  0  0  0  0  0  0
   47.3700   35.1766  195.7406 O   0  0  0  0  0  0  0  0  0  0  0  0
   47.4494   36.7247  197.6094 O   0  0  0  0  0  0  0  0  0  0  0  0
   46.0881   37.1940  197.5435 C   0  0  0  0  0  0  0  0  0  0  0  0
   46.0074   38.6880  197.8395 C   0  0  1  0  0  0  0  0  0  0  0  0
   44.6263   39.0724  197.8526 O   0  0  0  0  0  0  0  0  0  0  0  0
   46.5918   39.0643  199.1972 C   0  0  1  0  0  0  0  0  0  0  0  0
   47.3151   40.2821  199.0634 O   0  0  0  0  0  0  0  0  0  0  0  0
   45.3658   39.2351  200.0848 C   0  0  1  0  0  0  0  0  0  0  0  0
   45.5751   40.1508  201.1616 O   0  0  0  0  0  0  0  0  0  0  0  0
   44.3463   39.7447  199.0761 C   0  0  2  0  0  0  0  0  0  0  0  0
   42.9484   39.4310  199.4133 N   0  0  0  0  0  0  0  0  0  0  0  0
   41.8387   39.8026  198.7360 C   0  0  0  0  0  0  0  0  0  0  0  0
   40.7114   39.3457  199.3657 N   0  0  0  0  0  0  0  0  0  0  0  0
   41.1419   38.6781  200.4649 C   0  0  0  0  0  0  0  0  0  0  0  0
   40.4936   37.9530  201.5673 C   0  0  0  0  0  0  0  0  0  0  0  0
   39.1426   37.8638  201.5991 N   0  0  0  0  0  0  0  0  0  0  0  0
   41.2840   37.4002  202.4964 N   0  0  0  0  0  0  0  0  0  0  0  0
   42.6206   37.4886  202.4592 C   0  0  0  0  0  0  0  0  0  0  0  0
   43.2776   38.1415  201.4922 N   0  0  0  0  0  0  0  0  0  0  0  0
   42.5990   38.7317  200.4888 C   0  0  0  0  0  0  0  0  0  0  0  0
   45.6917   37.0056  196.5349 H   0  0  0  0  0  0  0  0  0  0  0  0
   45.4961   36.6558  198.2984 H   0  0  0  0  0  0  0  0  0  0  0  0
   46.5899   39.2015  197.0604 H   0  0  0  0  0  0  0  0  0  0  0  0
   47.2910   38.3222  199.6101 H   0  0  0  0  0  0  0  0  0  0  0  0
   47.5276   40.6401  199.9616 H   0  0  0  0  0  0  0  0  0  0  0  0
   45.0659   38.3156  200.6087 H   0  0  0  0  0  0  0  0  0  0  0  0
   45.4667   39.6766  202.0238 H   0  0  0  0  0  0  0  0  0  0  0  0
   44.4359   40.8405  199.0412 H   0  0  0  0  0  0  0  0  0  0  0  0
   41.8410   40.3912  197.8068 H   0  0  0  0  0  0  0  0  0  0  0  0
   38.6778   37.3583  202.3667 H   0  0  0  0  0  0  0  0  0  0  0  0
   38.5799   38.3016  200.8556 H   0  0  0  0  0  0  0  0  0  0  0  0
   43.2029   37.0043  203.2569 H   0  0  0  0  0  0  0  0  0  0  0  0
  1  2  2  0
  1  3  1  6
  1  4  1  0
  1  8  1  0
  5  6  2  0
  5  7  1  6
  5  8  1  0
  5 12  1  0
  9 10  2  0
  9 11  1  1
  9 12  1  0
  9 13  1  0
 13 14  1  0
 15 14  1  0
 15 16  1  0
 15 17  1  0
 16 21  1  0
 17 18  1  0
 17 19  1  0
 19 20  1  0
 19 21  1  0
 21 22  1  0
 22 23  1  0
 22 31  1  0
 23 24  2  0
 24 25  1  0
 25 26  2  0
 25 31  1  0
 26 27  1  0
 26 28  1  0
 28 29  2  0
 29 30  1  0
 30 31  2  0
 14 32  1  0
 14 33  1  0
 15 34  1  6
 17 35  1  1
 18 36  1  0
 19 37  1  1
 20 38  1  0
 21 39  1  6
 23 40  1  0
 27 41  1  0
 27 42  1  0
 29 43  1  0
M  CHG  4   3  -1   4  -1   7  -1  11  -1
M  END
>  <filename_input>  (21) 
7KRU_ATP_docked.sdf

>  <pdb_id>  (21) 
7KRU_ATP

>  <pose_rank>  (21) 
20

>  <num_atoms_heavy>  (21) 
31

>  <num_torsions>  (21) 
8

>  <pose>  (21) 
[46.00735273193958, 38.68800846875611, 197.8394965406561, 3.5560644663769336, -1.6004466008937066, 0.8891772809513838, -2.2340878469280794, -4.033669303366892, 0.3925263995328772, -4.104830030272923, 0.6513526030011663, -1.2958698687579073, -0.4756216012727504, -1.4163246466824888]

>  <energy>  (21) 
-523.7625456443011

>  <inter_energy>  (21) 
-558.8964126028513

>  <intra_energy>  (21) 
40.00972648105856

>  <rmsd>  (21) 
9.56785

>  <sdf_rank>  (21) 
0

$$$$

     RDKit          3D

 43 45  0  0  0  0  0  0  0  0999 V2000
   45.7092   38.1612  203.7934 P   0  0  2  0  0  0  0  0  0  0  0  0
   45.1730   38.4844  205.1629 O   0  0  0  0  0  0  0  0  0  0  0  0
   44.6631   38.0995  202.7064 O   0  0  0  0  0  0  0  0  0  0  0  0
   46.7144   37.0691  203.7187 O   0  0  0  0  0  0  0  0  0  0  0  0
   47.3128   39.8082  201.9769 P   0  0  1  0  0  0  0  0  0  0  0  0
   47.7741   38.5511  201.2867 O   0  0  0  0  0  0  0  0  0  0  0  0
   46.4090   40.7498  201.2009 O   0  0  0  0  0  0  0  0  0  0  0  0
   46.6337   39.4615  203.4105 O   0  0  0  0  0  0  0  0  0  0  0  0
   48.5242   42.2777  202.7367 P   0  0  2  0  0  0  0  0  0  0  0  0
   47.0849   42.7466  202.7376 O   0  0  0  0  0  0  0  0  0  0  0  0
   49.5439   42.9347  201.8299 O   0  0  0  0  0  0  0  0  0  0  0  0
   48.5768   40.6779  202.5140 O   0  0  0  0  0  0  0  0  0  0  0  0
   49.0960   42.3056  204.2392 O   0  0  0  0  0  0  0  0  0  0  0  0
   50.2808   43.0614  204.5595 C   0  0  0  0  0  0  0  0  0  0  0  0
   51.0041   42.4650  205.7626 C   0  0  1  0  0  0  0  0  0  0  0  0
   51.2951   43.5228  206.6854 O   0  0  0  0  0  0  0  0  0  0  0  0
   50.1713   41.4303  206.5125 C   0  0  1  0  0  0  0  0  0  0  0  0
   51.0178   40.3550  206.9014 O   0  0  0  0  0  0  0  0  0  0  0  0
   49.6455   42.1948  207.7205 C   0  0  1  0  0  0  0  0  0  0  0  0
   49.3873   41.3553  208.8476 O   0  0  0  0  0  0  0  0  0  0  0  0
   50.7893   43.1678  207.9682 C   0  0  2  0  0  0  0  0  0  0  0  0
   50.3877   44.4248  208.6200 N   0  0  0  0  0  0  0  0  0  0  0  0
   50.2930   45.6485  208.0526 C   0  0  0  0  0  0  0  0  0  0  0  0
   49.9127   46.5834  208.9785 N   0  0  0  0  0  0  0  0  0  0  0  0
   49.7747   45.9145  210.1501 C   0  0  0  0  0  0  0  0  0  0  0  0
   49.4023   46.2805  211.5244 C   0  0  0  0  0  0  0  0  0  0  0  0
   49.1030   47.5702  211.8098 N   0  0  0  0  0  0  0  0  0  0  0  0
   49.3686   45.3033  212.4397 N   0  0  0  0  0  0  0  0  0  0  0  0
   49.6628   44.0280  212.1519 C   0  0  0  0  0  0  0  0  0  0  0  0
   50.0199   43.6249  210.9260 N   0  0  0  0  0  0  0  0  0  0  0  0
   50.0798   44.5087  209.9107 C   0  0  0  0  0  0  0  0  0  0  0  0
   50.9579   43.0525  203.6926 H   0  0  0  0  0  0  0  0  0  0  0  0
   49.9823   44.0909  204.8065 H   0  0  0  0  0  0  0  0  0  0  0  0
   51.9072   41.9672  205.3797 H   0  0  0  0  0  0  0  0  0  0  0  0
   49.3528   40.9938  205.9213 H   0  0  0  0  0  0  0  0  0  0  0  0
   51.0564   40.3060  207.8894 H   0  0  0  0  0  0  0  0  0  0  0  0
   48.6699   42.6741  207.5517 H   0  0  0  0  0  0  0  0  0  0  0  0
   49.5441   41.8652  209.6817 H   0  0  0  0  0  0  0  0  0  0  0  0
   51.5081   42.6692  208.6351 H   0  0  0  0  0  0  0  0  0  0  0  0
   50.4940   45.8636  206.9927 H   0  0  0  0  0  0  0  0  0  0  0  0
   48.8408   47.8379  212.7692 H   0  0  0  0  0  0  0  0  0  0  0  0
   49.1376   48.2833  211.0673 H   0  0  0  0  0  0  0  0  0  0  0  0
   49.6086   43.2805  212.9571 H   0  0  0  0  0  0  0  0  0  0  0  0
  1  2  2  0
  1  3  1  6
  1  4  1  0
  1  8  1  0
  5  6  2  0
  5  7  1  6
  5  8  1  0
  5 12  1  0
  9 10  2  0
  9 11  1  6
  9 12  1  0
  9 13  1  0
 13 14  1  0
 15 14  1  0
 15 16  1  0
 15 17  1  0
 16 21  1  0
 17 18  1  0
 17 19  1  0
 19 20  1  0
 19 21  1  0
 21 22  1  0
 22 23  1  0
 22 31  1  0
 23 24  2  0
 24 25  1  0
 25 26  2  0
 25 31  1  0
 26 27  1  0
 26 28  1  0
 28 29  2  0
 29 30  1  0
 30 31  2  0
 14 32  1  0
 14 33  1  0
 15 34  1  6
 17 35  1  6
 18 36  1  0
 19 37  1  6
 20 38  1  0
 21 39  1  1
 23 40  1  0
 27 41  1  0
 27 42  1  0
 29 43  1  0
M  CHG  4   3  -1   4  -1   7  -1  11  -1
M  END
>  <filename_input>  (22) 
7KRU_ATP_docked.sdf

>  <pdb_id>  (22) 
7KRU_ATP

>  <pose_rank>  (22) 
21

>  <num_atoms_heavy>  (22) 
31

>  <num_torsions>  (22) 
8

>  <pose>  (22) 
[51.004148918813726, 42.46497413070299, 205.76259463903128, -0.17752439852392565, -3.7963316966255753, 1.6803402396303209, 5.381235143442273, 3.0304936262952364, -18.0134632546942, -40.80320314696023, -19.637427607522575, 14.512894400267491, -12.829720746751848, -1.746397867086945]

>  <energy>  (22) 
-471.94178323915446

>  <inter_energy>  (22) 
-505.06808745595345

>  <intra_energy>  (22) 
28.797582426833284

>  <rmsd>  (22) 
9.92053

>  <sdf_rank>  (22) 
0

$$$$

     RDKit          3D

 43 45  0  0  0  0  0  0  0  0999 V2000
   49.1202   34.2217  205.4451 P   0  0  2  0  0  0  0  0  0  0  0  0
   48.4854   34.2443  204.0797 O   0  0  0  0  0  0  0  0  0  0  0  0
   50.5479   33.7311  205.4672 O   0  0  0  0  0  0  0  0  0  0  0  0
   48.2863   33.6854  206.5522 O   0  0  0  0  0  0  0  0  0  0  0  0
   48.1548   36.6622  206.7473 P   0  0  1  0  0  0  0  0  0  0  0  0
   46.8938   35.8721  206.9822 O   0  0  0  0  0  0  0  0  0  0  0  0
   48.8574   37.2491  207.9587 O   0  0  0  0  0  0  0  0  0  0  0  0
   49.2155   35.8046  205.8662 O   0  0  0  0  0  0  0  0  0  0  0  0
   46.7031   38.9533  205.8603 P   0  0  2  0  0  0  0  0  0  0  0  0
   46.6896   39.4914  207.2752 O   0  0  0  0  0  0  0  0  0  0  0  0
   45.4413   38.3864  205.2438 O   0  0  0  0  0  0  0  0  0  0  0  0
   47.8969   37.8763  205.6975 O   0  0  0  0  0  0  0  0  0  0  0  0
   47.2873   40.0752  204.8677 O   0  0  0  0  0  0  0  0  0  0  0  0
   48.2776   41.0168  205.3261 C   0  0  0  0  0  0  0  0  0  0  0  0
   49.0195   41.6486  204.1527 C   0  0  1  0  0  0  0  0  0  0  0  0
   48.5710   41.0218  202.9439 O   0  0  0  0  0  0  0  0  0  0  0  0
   48.7549   43.1438  204.0091 C   0  0  1  0  0  0  0  0  0  0  0  0
   49.9718   43.7934  203.6612 O   0  0  0  0  0  0  0  0  0  0  0  0
   47.7341   43.2245  202.8813 C   0  0  1  0  0  0  0  0  0  0  0  0
   47.7926   44.4554  202.1578 O   0  0  0  0  0  0  0  0  0  0  0  0
   48.1445   42.0295  202.0328 C   0  0  2  0  0  0  0  0  0  0  0  0
   47.0510   41.4409  201.2427 N   0  0  0  0  0  0  0  0  0  0  0  0
   46.9232   40.1526  200.8526 C   0  0  0  0  0  0  0  0  0  0  0  0
   45.7862   39.9826  200.1082 N   0  0  0  0  0  0  0  0  0  0  0  0
   45.2013   41.2041  200.0351 C   0  0  0  0  0  0  0  0  0  0  0  0
   43.9867   41.7448  199.4077 C   0  0  0  0  0  0  0  0  0  0  0  0
   43.1770   40.9163  198.7061 N   0  0  0  0  0  0  0  0  0  0  0  0
   43.7321   43.0496  199.5705 N   0  0  0  0  0  0  0  0  0  0  0  0
   44.5348   43.8649  200.2681 C   0  0  0  0  0  0  0  0  0  0  0  0
   45.6614   43.4441  200.8567 N   0  0  0  0  0  0  0  0  0  0  0  0
   46.0255   42.1490  200.7796 C   0  0  0  0  0  0  0  0  0  0  0  0
   47.7796   41.8089  205.9046 H   0  0  0  0  0  0  0  0  0  0  0  0
   49.0061   40.4807  205.9521 H   0  0  0  0  0  0  0  0  0  0  0  0
   50.0943   41.5061  204.3385 H   0  0  0  0  0  0  0  0  0  0  0  0
   48.3858   43.6280  204.9252 H   0  0  0  0  0  0  0  0  0  0  0  0
   50.4555   44.0516  204.4856 H   0  0  0  0  0  0  0  0  0  0  0  0
   46.6898   43.1998  203.2258 H   0  0  0  0  0  0  0  0  0  0  0  0
   47.8286   45.2117  202.7956 H   0  0  0  0  0  0  0  0  0  0  0  0
   48.9103   42.3759  201.3233 H   0  0  0  0  0  0  0  0  0  0  0  0
   47.6349   39.3509  201.0992 H   0  0  0  0  0  0  0  0  0  0  0  0
   42.3235   41.2844  198.2624 H   0  0  0  0  0  0  0  0  0  0  0  0
   43.4148   39.9182  198.6162 H   0  0  0  0  0  0  0  0  0  0  0  0
   44.2563   44.9250  200.3611 H   0  0  0  0  0  0  0  0  0  0  0  0
  1  2  2  0
  1  3  1  6
  1  4  1  0
  1  8  1  0
  5  6  2  0
  5  7  1  1
  5  8  1  0
  5 12  1  0
  9 10  2  0
  9 11  1  6
  9 12  1  0
  9 13  1  0
 13 14  1  0
 15 14  1  0
 15 16  1  0
 15 17  1  0
 16 21  1  0
 17 18  1  0
 17 19  1  0
 19 20  1  0
 19 21  1  0
 21 22  1  0
 22 23  1  0
 22 31  1  0
 23 24  2  0
 24 25  1  0
 25 26  2  0
 25 31  1  0
 26 27  1  0
 26 28  1  0
 28 29  2  0
 29 30  1  0
 30 31  2  0
 14 32  1  0
 14 33  1  0
 15 34  1  1
 17 35  1  1
 18 36  1  0
 19 37  1  1
 20 38  1  0
 21 39  1  6
 23 40  1  0
 27 41  1  0
 27 42  1  0
 29 43  1  0
M  CHG  4   3  -1   4  -1   7  -1  11  -1
M  END
>  <filename_input>  (23) 
7KRU_ATP_docked.sdf

>  <pdb_id>  (23) 
7KRU_ATP

>  <pose_rank>  (23) 
22

>  <num_atoms_heavy>  (23) 
31

>  <num_torsions>  (23) 
8

>  <pose>  (23) 
[49.01948419776189, 41.64856356000478, 204.1527404112491, 1.9640541261215754, 0.20592890417270926, 2.335274654552874, -1.6752537184725151, -1.0444640713690225, 0.02676177698383293, -0.3969957869346232, -0.20725731777214806, 0.15969408281520978, 0.20757756303662683, 2.880778368223899]

>  <energy>  (23) 
91.46756157264349

>  <inter_energy>  (23) 
31.402836378689486

>  <intra_energy>  (23) 
62.10143795179526

>  <rmsd>  (23) 
6.20582

>  <sdf_rank>  (23) 
0

$$$$

     RDKit          3D

 43 45  0  0  0  0  0  0  0  0999 V2000
   46.2671   37.0849  203.6876 P   0  0  2  0  0  0  0  0  0  0  0  0
   47.2349   36.0711  204.2382 O   0  0  0  0  0  0  0  0  0  0  0  0
   45.2142   37.5461  204.6665 O   0  0  0  0  0  0  0  0  0  0  0  0
   45.7408   36.8221  202.3228 O   0  0  0  0  0  0  0  0  0  0  0  0
   46.7038   39.9554  203.2958 P   0  0  1  0  0  0  0  0  0  0  0  0
   46.9728   40.4968  201.9158 O   0  0  0  0  0  0  0  0  0  0  0  0
   45.2936   40.0850  203.8436 O   0  0  0  0  0  0  0  0  0  0  0  0
   47.1929   38.4115  203.4136 O   0  0  0  0  0  0  0  0  0  0  0  0
   49.0988   41.3423  203.9910 P   0  0  2  0  0  0  0  0  0  0  0  0
   49.9395   40.4162  203.1384 O   0  0  0  0  0  0  0  0  0  0  0  0
   49.6861   41.9894  205.2280 O   0  0  0  0  0  0  0  0  0  0  0  0
   47.7134   40.6112  204.3881 O   0  0  0  0  0  0  0  0  0  0  0  0
   48.4747   42.5003  203.0663 O   0  0  0  0  0  0  0  0  0  0  0  0
   47.8596   43.6611  203.6592 C   0  0  0  0  0  0  0  0  0  0  0  0
   48.9120   44.6406  204.1684 C   0  0  1  0  0  0  0  0  0  0  0  0
   50.1348   44.3993  203.4600 O   0  0  0  0  0  0  0  0  0  0  0  0
   48.5374   46.1006  203.9346 C   0  0  1  0  0  0  0  0  0  0  0  0
   48.9139   46.8592  205.0778 O   0  0  0  0  0  0  0  0  0  0  0  0
   49.3525   46.4921  202.7088 C   0  0  1  0  0  0  0  0  0  0  0  0
   49.6640   47.8859  202.6631 O   0  0  0  0  0  0  0  0  0  0  0  0
   50.5889   45.6241  202.8935 C   0  0  2  0  0  0  0  0  0  0  0  0
   51.2780   45.2735  201.6411 N   0  0  0  0  0  0  0  0  0  0  0  0
   51.3963   44.0459  201.0867 C   0  0  0  0  0  0  0  0  0  0  0  0
   52.1293   44.1051  199.9312 N   0  0  0  0  0  0  0  0  0  0  0  0
   52.4754   45.4070  199.7744 C   0  0  0  0  0  0  0  0  0  0  0  0
   53.2444   46.1712  198.7815 C   0  0  0  0  0  0  0  0  0  0  0  0
   53.7871   45.5252  197.7220 N   0  0  0  0  0  0  0  0  0  0  0  0
   53.3654   47.4913  198.9721 N   0  0  0  0  0  0  0  0  0  0  0  0
   52.8242   48.1266  200.0205 C   0  0  0  0  0  0  0  0  0  0  0  0
   52.1211   47.4936  200.9681 N   0  0  0  0  0  0  0  0  0  0  0  0
   51.9145   46.1645  200.8871 C   0  0  0  0  0  0  0  0  0  0  0  0
   47.2372   44.1631  202.9038 H   0  0  0  0  0  0  0  0  0  0  0  0
   47.2453   43.3342  204.5112 H   0  0  0  0  0  0  0  0  0  0  0  0
   49.0033   44.4786  205.2526 H   0  0  0  0  0  0  0  0  0  0  0  0
   47.4622   46.2723  203.7782 H   0  0  0  0  0  0  0  0  0  0  0  0
   48.6678   46.3634  205.8986 H   0  0  0  0  0  0  0  0  0  0  0  0
   48.8249   46.3344  201.7565 H   0  0  0  0  0  0  0  0  0  0  0  0
   49.7425   48.2369  203.5855 H   0  0  0  0  0  0  0  0  0  0  0  0
   51.3013   46.1915  203.5104 H   0  0  0  0  0  0  0  0  0  0  0  0
   50.9633   43.1259  201.5061 H   0  0  0  0  0  0  0  0  0  0  0  0
   54.3278   46.0507  197.0202 H   0  0  0  0  0  0  0  0  0  0  0  0
   53.6591   44.5085  197.6180 H   0  0  0  0  0  0  0  0  0  0  0  0
   52.9634   49.2144  200.1063 H   0  0  0  0  0  0  0  0  0  0  0  0
  1  2  2  0
  1  3  1  1
  1  4  1  0
  1  8  1  0
  5  6  2  0
  5  7  1  1
  5  8  1  0
  5 12  1  0
  9 10  2  0
  9 11  1  1
  9 12  1  0
  9 13  1  0
 13 14  1  0
 15 14  1  0
 15 16  1  0
 15 17  1  0
 16 21  1  0
 17 18  1  0
 17 19  1  0
 19 20  1  0
 19 21  1  0
 21 22  1  0
 22 23  1  0
 22 31  1  0
 23 24  2  0
 24 25  1  0
 25 26  2  0
 25 31  1  0
 26 27  1  0
 26 28  1  0
 28 29  2  0
 29 30  1  0
 30 31  2  0
 14 32  1  0
 14 33  1  0
 15 34  1  1
 17 35  1  6
 18 36  1  0
 19 37  1  6
 20 38  1  0
 21 39  1  1
 23 40  1  0
 27 41  1  0
 27 42  1  0
 29 43  1  0
M  CHG  4   3  -1   4  -1   7  -1  11  -1
M  END
>  <filename_input>  (24) 
7KRU_ATP_docked.sdf

>  <pdb_id>  (24) 
7KRU_ATP

>  <pose_rank>  (24) 
23

>  <num_atoms_heavy>  (24) 
31

>  <num_torsions>  (24) 
8

>  <pose>  (24) 
[48.91196612111695, 44.64064261292658, 204.16839403280483, -0.049755076290046295, -0.031370743917118034, -2.9814163310253456, -1.0217046166674615, -0.5657790227937245, -1.4322548300392435, -3.868022915285183, -1.9877213466200079, -1.069435443165001, 4.620180742645319, -1.5257381248277657]

>  <energy>  (24) 
-438.3378324638601

>  <inter_energy>  (24) 
-509.8828022105622

>  <intra_energy>  (24) 
66.3509501430509

>  <rmsd>  (24) 
9.72976

>  <sdf_rank>  (24) 
0

$$$$

     RDKit          3D

 43 45  0  0  0  0  0  0  0  0999 V2000
   55.7907   46.3095  197.2269 P   0  0  2  0  0  0  0  0  0  0  0  0
   56.5627   47.5371  196.8211 O   0  0  0  0  0  0  0  0  0  0  0  0
   56.6464   45.1259  197.6095 O   0  0  0  0  0  0  0  0  0  0  0  0
   54.6225   45.9541  196.3798 O   0  0  0  0  0  0  0  0  0  0  0  0
   53.8027   47.7856  198.7931 P   0  0  1  0  0  0  0  0  0  0  0  0
   53.9834   48.6327  200.0257 O   0  0  0  0  0  0  0  0  0  0  0  0
   53.5460   48.4981  197.4771 O   0  0  0  0  0  0  0  0  0  0  0  0
   55.0425   46.7516  198.6186 O   0  0  0  0  0  0  0  0  0  0  0  0
   52.7580   45.3858  199.9299 P   0  0  2  0  0  0  0  0  0  0  0  0
   53.8132   45.6245  200.9887 O   0  0  0  0  0  0  0  0  0  0  0  0
   52.8253   44.1598  199.0433 O   0  0  0  0  0  0  0  0  0  0  0  0
   52.6113   46.6992  198.9998 O   0  0  0  0  0  0  0  0  0  0  0  0
   51.3005   45.4367  200.6072 O   0  0  0  0  0  0  0  0  0  0  0  0
   50.4677   44.2610  200.6456 C   0  0  0  0  0  0  0  0  0  0  0  0
   49.6546   44.2057  201.9348 C   0  0  1  0  0  0  0  0  0  0  0  0
   48.3921   43.5904  201.6472 O   0  0  0  0  0  0  0  0  0  0  0  0
   50.3194   43.3778  203.0298 C   0  0  1  0  0  0  0  0  0  0  0  0
   50.1361   44.0361  204.2776 O   0  0  0  0  0  0  0  0  0  0  0  0
   49.5753   42.0495  202.9821 C   0  0  1  0  0  0  0  0  0  0  0  0
   49.5599   41.3690  204.2385 O   0  0  0  0  0  0  0  0  0  0  0  0
   48.1899   42.5087  202.5508 C   0  0  2  0  0  0  0  0  0  0  0  0
   47.4137   41.4944  201.8193 N   0  0  0  0  0  0  0  0  0  0  0  0
   46.9548   41.5719  200.5498 C   0  0  0  0  0  0  0  0  0  0  0  0
   46.2505   40.4445  200.2199 N   0  0  0  0  0  0  0  0  0  0  0  0
   46.2735   39.6538  201.3214 C   0  0  0  0  0  0  0  0  0  0  0  0
   45.7306   38.3329  201.6707 C   0  0  0  0  0  0  0  0  0  0  0  0
   45.0167   37.6439  200.7489 N   0  0  0  0  0  0  0  0  0  0  0  0
   45.9799   37.8647  202.9006 N   0  0  0  0  0  0  0  0  0  0  0  0
   46.6893   38.5490  203.8084 C   0  0  0  0  0  0  0  0  0  0  0  0
   47.2043   39.7605  203.5635 N   0  0  0  0  0  0  0  0  0  0  0  0
   47.0363   40.3391  202.3582 C   0  0  0  0  0  0  0  0  0  0  0  0
   49.7797   44.2799  199.7875 H   0  0  0  0  0  0  0  0  0  0  0  0
   51.1151   43.3727  200.6025 H   0  0  0  0  0  0  0  0  0  0  0  0
   49.5570   45.2397  202.2972 H   0  0  0  0  0  0  0  0  0  0  0  0
   51.4029   43.2403  202.8982 H   0  0  0  0  0  0  0  0  0  0  0  0
   50.3132   43.4002  205.0154 H   0  0  0  0  0  0  0  0  0  0  0  0
   50.0360   41.3068  202.3142 H   0  0  0  0  0  0  0  0  0  0  0  0
   49.5749   42.0323  204.9733 H   0  0  0  0  0  0  0  0  0  0  0  0
   47.6259   42.7570  203.4620 H   0  0  0  0  0  0  0  0  0  0  0  0
   47.1240   42.4236  199.8745 H   0  0  0  0  0  0  0  0  0  0  0  0
   44.6317   36.7177  200.9828 H   0  0  0  0  0  0  0  0  0  0  0  0
   44.8588   38.0462  199.8139 H   0  0  0  0  0  0  0  0  0  0  0  0
   46.8557   38.0961  204.7970 H   0  0  0  0  0  0  0  0  0  0  0  0
  1  2  2  0
  1  3  1  1
  1  4  1  0
  1  8  1  0
  5  6  2  0
  5  7  1  6
  5  8  1  0
  5 12  1  0
  9 10  2  0
  9 11  1  6
  9 12  1  0
  9 13  1  0
 13 14  1  0
 15 14  1  0
 15 16  1  0
 15 17  1  0
 16 21  1  0
 17 18  1  0
 17 19  1  0
 19 20  1  0
 19 21  1  0
 21 22  1  0
 22 23  1  0
 22 31  1  0
 23 24  2  0
 24 25  1  0
 25 26  2  0
 25 31  1  0
 26 27  1  0
 26 28  1  0
 28 29  2  0
 29 30  1  0
 30 31  2  0
 14 32  1  0
 14 33  1  0
 15 34  1  1
 17 35  1  6
 18 36  1  0
 19 37  1  6
 20 38  1  0
 21 39  1  1
 23 40  1  0
 27 41  1  0
 27 42  1  0
 29 43  1  0
M  CHG  4   3  -1   4  -1   7  -1  11  -1
M  END
>  <filename_input>  (25) 
7KRU_ATP_docked.sdf

>  <pdb_id>  (25) 
7KRU_ATP

>  <pose_rank>  (25) 
24

>  <num_atoms_heavy>  (25) 
31

>  <num_torsions>  (25) 
8

>  <pose>  (25) 
[49.65461774216472, 44.2057112413151, 201.93480547799743, 4.839834940696215, -0.8933255655617623, -1.5189270746210388, -1.103326130833078, 1.5979148297679244, -0.25186521942868073, 3.3292771444787475, -0.6164334941541653, -2.0251381573318477, 4.19091475440586, -3.8084721531228456]

>  <energy>  (25) 
-401.65556803930394

>  <inter_energy>  (25) 
-428.29976560778346

>  <intra_energy>  (25) 
31.55505661271619

>  <rmsd>  (25) 
8.02059

>  <sdf_rank>  (25) 
0

$$$$

     RDKit          3D

 43 45  0  0  0  0  0  0  0  0999 V2000
   50.9220   42.3920  208.1620 P   0  0  2  0  0  0  0  0  0  0  0  0
   52.4230   42.4170  208.0440 O   0  0  0  0  0  0  0  0  0  0  0  0
   50.2560   43.7380  208.0060 O   0  0  0  0  0  0  0  0  0  0  0  0
   50.3600   41.5710  209.2660 O   0  0  0  0  0  0  0  0  0  0  0  0
   50.4790   41.9820  205.2950 P   0  0  1  0  0  0  0  0  0  0  0  0
   50.5530   43.4820  205.1760 O   0  0  0  0  0  0  0  0  0  0  0  0
   51.5230   41.1620  204.5580 O   0  0  0  0  0  0  0  0  0  0  0  0
   50.4340   41.5300  206.8540 O   0  0  0  0  0  0  0  0  0  0  0  0
   48.2250   41.9770  203.5450 P   0  0  2  0  0  0  0  0  0  0  0  0
   49.0490   41.7270  202.3000 O   0  0  0  0  0  0  0  0  0  0  0  0
   47.6870   43.3610  203.8430 O   0  0  0  0  0  0  0  0  0  0  0  0
   49.0180   41.4310  204.8430 O   0  0  0  0  0  0  0  0  0  0  0  0
   46.9970   40.9400  203.5900 O   0  0  0  0  0  0  0  0  0  0  0  0
   47.2310   39.5210  203.4940 C   0  0  0  0  0  0  0  0  0  0  0  0
   46.0550   38.7310  204.0590 C   0  0  1  0  0  0  0  0  0  0  0  0
   44.8620   39.1510  203.3840 O   0  0  0  0  0  0  0  0  0  0  0  0
   46.1850   37.2260  203.8480 C   0  0  1  0  0  0  0  0  0  0  0  0
   45.7330   36.5580  205.0200 O   0  0  0  0  0  0  0  0  0  0  0  0
   45.2760   36.9470  202.6580 C   0  0  1  0  0  0  0  0  0  0  0  0
   44.7460   35.6200  202.6550 O   0  0  0  0  0  0  0  0  0  0  0  0
   44.2000   38.0040  202.8610 C   0  0  2  0  0  0  0  0  0  0  0  0
   43.5320   38.4370  201.6230 N   0  0  0  0  0  0  0  0  0  0  0  0
   44.1150   38.9230  200.5040 C   0  0  0  0  0  0  0  0  0  0  0  0
   43.1700   39.2440  199.5660 N   0  0  0  0  0  0  0  0  0  0  0  0
   41.9710   38.9510  200.1280 C   0  0  0  0  0  0  0  0  0  0  0  0
   40.5670   39.0440  199.7020 C   0  0  0  0  0  0  0  0  0  0  0  0
   40.2780   39.5240  198.4690 N   0  0  0  0  0  0  0  0  0  0  0  0
   39.6280   38.6350  200.5650 N   0  0  0  0  0  0  0  0  0  0  0  0
   39.9190   38.1580  201.7830 C   0  0  0  0  0  0  0  0  0  0  0  0
   41.1730   38.0550  202.2410 N   0  0  0  0  0  0  0  0  0  0  0  0
   42.2120   38.4210  201.4650 C   0  0  0  0  0  0  0  0  0  0  0  0
   47.3707   39.2506  202.4369 H   0  0  0  0  0  0  0  0  0  0  0  0
   48.1300   39.2749  204.0781 H   0  0  0  0  0  0  0  0  0  0  0  0
   46.0284   38.9252  205.1414 H   0  0  0  0  0  0  0  0  0  0  0  0
   47.2133   36.8824  203.6619 H   0  0  0  0  0  0  0  0  0  0  0  0
   46.0591   37.0399  205.8210 H   0  0  0  0  0  0  0  0  0  0  0  0
   45.7884   37.0013  201.6862 H   0  0  0  0  0  0  0  0  0  0  0  0
   44.6229   35.3117  203.5877 H   0  0  0  0  0  0  0  0  0  0  0  0
   43.4286   37.5687  203.5133 H   0  0  0  0  0  0  0  0  0  0  0  0
   45.1996   39.0440  200.3659 H   0  0  0  0  0  0  0  0  0  0  0  0
   39.2979   39.5935  198.1601 H   0  0  0  0  0  0  0  0  0  0  0  0
   41.0383   39.8195  197.8402 H   0  0  0  0  0  0  0  0  0  0  0  0
   39.0925   37.8374  202.4343 H   0  0  0  0  0  0  0  0  0  0  0  0
  1  2  2  0
  1  3  1  6
  1  4  1  0
  1  8  1  0
  5  6  2  0
  5  7  1  6
  5  8  1  0
  5 12  1  0
  9 10  2  0
  9 11  1  1
  9 12  1  0
  9 13  1  0
 13 14  1  0
 15 14  1  0
 15 16  1  0
 15 17  1  0
 16 21  1  0
 17 18  1  0
 17 19  1  0
 19 20  1  0
 19 21  1  0
 21 22  1  0
 22 23  1  0
 22 31  1  0
 23 24  2  0
 24 25  1  0
 25 26  2  0
 25 31  1  0
 26 27  1  0
 26 28  1  0
 28 29  2  0
 29 30  1  0
 30 31  2  0
 14 32  1  0
 14 33  1  0
 15 34  1  1
 17 35  1  6
 18 36  1  0
 19 37  1  6
 20 38  1  0
 21 39  1  1
 23 40  1  0
 27 41  1  0
 27 42  1  0
 29 43  1  0
M  CHG  4   3  -1   4  -1   7  -1  11  -1
M  END
>  <filename_input>  (26) 
7KRU_ATP_docked.sdf

>  <pdb_id>  (26) 
7KRU_ATP

>  <pose_rank>  (26) 
25

>  <num_atoms_heavy>  (26) 
31

>  <num_torsions>  (26) 
8

>  <pose>  (26) 
[46.055, 38.731, 204.059, 1e-06, 1e-06, 1e-06, 0.0, 0.0, 0.0, 0.0, 0.0, 0.0, 0.0, 0.0]

>  <energy>  (26) 
-1065.4910049360833

>  <inter_energy>  (26) 
-1085.2403589198161

>  <intra_energy>  (26) 
10.527663624179356

>  <rmsd>  (26) 
0.0

>  <sdf_rank>  (26) 
0

$$$$
