
     RDKit          3D

 26 25  0  0  0  0  0  0  0  0999 V2000
  -53.8996   49.1686  -21.3153 C   0  0  0  0  0  0  0  0  0  0  0  0
  -53.1853   47.8846  -20.9157 C   0  0  0  0  0  0  0  0  0  0  0  0
  -54.9790   48.0541  -19.4193 C   0  0  0  0  0  0  0  0  0  0  0  0
  -55.2950   47.5442  -18.0262 C   0  0  0  0  0  0  0  0  0  0  0  0
  -56.8337   47.6256  -16.0319 C   0  0  0  0  0  0  0  0  0  0  0  0
  -58.3446   47.4851  -15.9231 C   0  0  0  0  0  0  0  0  0  0  0  0
  -54.1061   47.1248  -20.1028 N   0  0  0  0  0  0  0  0  0  0  0  0
  -56.4746   48.0561  -17.3699 N   0  0  0  0  0  0  0  0  0  0  0  0
  -53.0051   50.2339  -21.1124 O   0  0  0  0  0  0  0  0  0  0  0  0
  -54.5982   46.7243  -17.5091 O   0  0  0  0  0  0  0  0  0  0  0  0
  -58.6768   46.1264  -15.9563 O   0  0  0  0  0  0  0  0  0  0  0  0
  -54.1920   49.1210  -22.3747 H   0  0  0  0  0  0  0  0  0  0  0  0
  -54.8093   49.3081  -20.7127 H   0  0  0  0  0  0  0  0  0  0  0  0
  -52.9106   47.3102  -21.8127 H   0  0  0  0  0  0  0  0  0  0  0  0
  -52.2617   48.1056  -20.3606 H   0  0  0  0  0  0  0  0  0  0  0  0
  -55.9142   48.1607  -19.9885 H   0  0  0  0  0  0  0  0  0  0  0  0
  -54.4757   49.0290  -19.3402 H   0  0  0  0  0  0  0  0  0  0  0  0
  -56.4829   48.3704  -15.3024 H   0  0  0  0  0  0  0  0  0  0  0  0
  -56.3630   46.6532  -15.8250 H   0  0  0  0  0  0  0  0  0  0  0  0
  -58.6893   47.9265  -14.9764 H   0  0  0  0  0  0  0  0  0  0  0  0
  -58.8288   48.0078  -16.7611 H   0  0  0  0  0  0  0  0  0  0  0  0
  -54.6636   46.4981  -20.7006 H   0  0  0  0  0  0  0  0  0  0  0  0
  -53.5891   46.5538  -19.4190 H   0  0  0  0  0  0  0  0  0  0  0  0
  -57.0710   48.7381  -17.8597 H   0  0  0  0  0  0  0  0  0  0  0  0
  -52.8818   50.3808  -20.1412 H   0  0  0  0  0  0  0  0  0  0  0  0
  -58.7604   45.7844  -15.0310 H   0  0  0  0  0  0  0  0  0  0  0  0
  1  2  1  0
  1  9  1  0
  2  7  1  0
  3  4  1  0
  3  7  1  0
  4  8  1  0
  4 10  2  0
  5  6  1  0
  5  8  1  0
  6 11  1  0
  1 12  1  0
  1 13  1  0
  2 14  1  0
  2 15  1  0
  3 16  1  0
  3 17  1  0
  5 18  1  0
  5 19  1  0
  6 20  1  0
  6 21  1  0
  7 22  1  0
  7 23  1  0
  8 24  1  0
  9 25  1  0
 11 26  1  0
M  CHG  1   7   1
M  END
>  <filename_input>  (1) 
7KZ9_XN7_docked.sdf

>  <pdb_id>  (1) 
7KZ9_XN7

>  <pose_rank>  (1) 
0

>  <num_atoms_heavy>  (1) 
11

>  <num_torsions>  (1) 
6

>  <pose>  (1) 
[-55.295017202113826, 47.544247723996094, -18.02620079737299, -3.333003728018508, -5.090691258190206, -1.2837258663832065, -0.20280347414923725, 0.7327773541589607, -1.7413860149923128, -2.1443461940791, -1.0621186953174526, -3.37340536849077]

>  <energy>  (1) 
-599.576484089838

>  <inter_energy>  (1) 
-593.8735584096939

>  <intra_energy>  (1) 
1.2819301350343828

>  <rmsd>  (1) 
0.821655

>  <sdf_rank>  (1) 
0

$$$$

     RDKit          3D

 26 25  0  0  0  0  0  0  0  0999 V2000
  -58.5485   47.2468  -16.0123 C   0  0  0  0  0  0  0  0  0  0  0  0
  -57.5117   46.4684  -15.2137 C   0  0  0  0  0  0  0  0  0  0  0  0
  -56.4096   47.7835  -16.8079 C   0  0  0  0  0  0  0  0  0  0  0  0
  -55.3231   47.6521  -17.8580 C   0  0  0  0  0  0  0  0  0  0  0  0
  -54.6537   47.9399  -20.2706 C   0  0  0  0  0  0  0  0  0  0  0  0
  -54.3458   49.3192  -20.8337 C   0  0  0  0  0  0  0  0  0  0  0  0
  -56.2190   46.7952  -15.7688 N   0  0  0  0  0  0  0  0  0  0  0  0
  -55.6372   48.0497  -19.2098 N   0  0  0  0  0  0  0  0  0  0  0  0
  -59.6022   46.3663  -16.3137 O   0  0  0  0  0  0  0  0  0  0  0  0
  -54.2369   47.2571  -17.5590 O   0  0  0  0  0  0  0  0  0  0  0  0
  -53.3024   49.2081  -21.7592 O   0  0  0  0  0  0  0  0  0  0  0  0
  -58.9245   48.0914  -15.4161 H   0  0  0  0  0  0  0  0  0  0  0  0
  -58.1040   47.6473  -16.9353 H   0  0  0  0  0  0  0  0  0  0  0  0
  -57.5529   46.7615  -14.1542 H   0  0  0  0  0  0  0  0  0  0  0  0
  -57.7021   45.3866  -15.2722 H   0  0  0  0  0  0  0  0  0  0  0  0
  -56.3679   48.7896  -16.3651 H   0  0  0  0  0  0  0  0  0  0  0  0
  -57.3894   47.6233  -17.2816 H   0  0  0  0  0  0  0  0  0  0  0  0
  -55.0508   47.2989  -21.0715 H   0  0  0  0  0  0  0  0  0  0  0  0
  -53.7309   47.4990  -19.8656 H   0  0  0  0  0  0  0  0  0  0  0  0
  -55.2398   49.7227  -21.3318 H   0  0  0  0  0  0  0  0  0  0  0  0
  -54.0510   49.9971  -20.0191 H   0  0  0  0  0  0  0  0  0  0  0  0
  -55.6095   47.1774  -15.0317 H   0  0  0  0  0  0  0  0  0  0  0  0
  -55.7753   45.9510  -16.1580 H   0  0  0  0  0  0  0  0  0  0  0  0
  -56.5750   48.4175  -19.4247 H   0  0  0  0  0  0  0  0  0  0  0  0
  -60.0030   46.0313  -15.4727 H   0  0  0  0  0  0  0  0  0  0  0  0
  -52.4424   49.1166  -21.2775 H   0  0  0  0  0  0  0  0  0  0  0  0
  1  2  1  0
  1  9  1  0
  2  7  1  0
  3  4  1  0
  3  7  1  0
  4  8  1  0
  4 10  2  0
  5  6  1  0
  5  8  1  0
  6 11  1  0
  1 12  1  0
  1 13  1  0
  2 14  1  0
  2 15  1  0
  3 16  1  0
  3 17  1  0
  5 18  1  0
  5 19  1  0
  6 20  1  0
  6 21  1  0
  7 22  1  0
  7 23  1  0
  8 24  1  0
  9 25  1  0
 11 26  1  0
M  CHG  1   7   1
M  END
>  <filename_input>  (2) 
7KZ9_XN7_docked.sdf

>  <pdb_id>  (2) 
7KZ9_XN7

>  <pose_rank>  (2) 
1

>  <num_atoms_heavy>  (2) 
11

>  <num_torsions>  (2) 
6

>  <pose>  (2) 
[-55.32310719439408, 47.65214984325897, -17.857990890370445, -2.4409314450620183, 1.6685593369870408, -1.2598161499808345, -1.0684800773828425, 0.6057631349081425, -1.1748318722910354, -2.133557003313836, -0.6391877983657848, -2.148649753462767]

>  <energy>  (2) 
-550.4738215183929

>  <inter_energy>  (2) 
-537.578381999441

>  <intra_energy>  (2) 
0.2711817078649782

>  <rmsd>  (2) 
5.58186

>  <sdf_rank>  (2) 
0

$$$$

     RDKit          3D

 26 25  0  0  0  0  0  0  0  0999 V2000
  -54.5314   47.4635  -21.8182 C   0  0  0  0  0  0  0  0  0  0  0  0
  -54.1480   48.8353  -21.2798 C   0  0  0  0  0  0  0  0  0  0  0  0
  -54.7379   49.1239  -19.0317 C   0  0  0  0  0  0  0  0  0  0  0  0
  -54.9667   48.1270  -17.9117 C   0  0  0  0  0  0  0  0  0  0  0  0
  -56.5992   47.0670  -16.3109 C   0  0  0  0  0  0  0  0  0  0  0  0
  -57.9782   46.4571  -16.5130 C   0  0  0  0  0  0  0  0  0  0  0  0
  -53.7011   48.6450  -19.9196 N   0  0  0  0  0  0  0  0  0  0  0  0
  -56.3062   47.9899  -17.3911 N   0  0  0  0  0  0  0  0  0  0  0  0
  -55.7684   47.5941  -22.4732 O   0  0  0  0  0  0  0  0  0  0  0  0
  -54.0650   47.4616  -17.5000 O   0  0  0  0  0  0  0  0  0  0  0  0
  -58.6276   46.3851  -15.2758 O   0  0  0  0  0  0  0  0  0  0  0  0
  -53.7672   47.1117  -22.5268 H   0  0  0  0  0  0  0  0  0  0  0  0
  -54.6037   46.7334  -20.9986 H   0  0  0  0  0  0  0  0  0  0  0  0
  -53.3382   49.2665  -21.8867 H   0  0  0  0  0  0  0  0  0  0  0  0
  -55.0034   49.5257  -21.3191 H   0  0  0  0  0  0  0  0  0  0  0  0
  -55.6713   49.2541  -19.5991 H   0  0  0  0  0  0  0  0  0  0  0  0
  -54.4255   50.0859  -18.5991 H   0  0  0  0  0  0  0  0  0  0  0  0
  -56.5758   47.6070  -15.3529 H   0  0  0  0  0  0  0  0  0  0  0  0
  -55.8456   46.2657  -16.3037 H   0  0  0  0  0  0  0  0  0  0  0  0
  -58.5628   47.0858  -17.2008 H   0  0  0  0  0  0  0  0  0  0  0  0
  -57.8807   45.4490  -16.9421 H   0  0  0  0  0  0  0  0  0  0  0  0
  -53.5282   47.6446  -19.7461 H   0  0  0  0  0  0  0  0  0  0  0  0
  -52.8261   49.1635  -19.7569 H   0  0  0  0  0  0  0  0  0  0  0  0
  -57.0664   48.5567  -17.7933 H   0  0  0  0  0  0  0  0  0  0  0  0
  -56.4913   47.6705  -21.8011 H   0  0  0  0  0  0  0  0  0  0  0  0
  -57.9604   46.4591  -14.5482 H   0  0  0  0  0  0  0  0  0  0  0  0
  1  2  1  0
  1  9  1  0
  2  7  1  0
  3  4  1  0
  3  7  1  0
  4  8  1  0
  4 10  2  0
  5  6  1  0
  5  8  1  0
  6 11  1  0
  1 12  1  0
  1 13  1  0
  2 14  1  0
  2 15  1  0
  3 16  1  0
  3 17  1  0
  5 18  1  0
  5 19  1  0
  6 20  1  0
  6 21  1  0
  7 22  1  0
  7 23  1  0
  8 24  1  0
  9 25  1  0
 11 26  1  0
M  CHG  1   7   1
M  END
>  <filename_input>  (3) 
7KZ9_XN7_docked.sdf

>  <pdb_id>  (3) 
7KZ9_XN7

>  <pose_rank>  (3) 
2

>  <num_atoms_heavy>  (3) 
11

>  <num_torsions>  (3) 
6

>  <pose>  (3) 
[-54.96667800864214, 48.12699751999794, -17.91169321584631, -3.636237981544209, 1.058049172616011, -4.352062848520827, 0.010877687680218476, -0.6902121533887406, 3.2112989676059067, -2.144036939736097, 5.179490107600161, -1.337113699098379]

>  <energy>  (3) 
-495.53656195135216

>  <inter_energy>  (3) 
-494.2556277305015

>  <intra_energy>  (3) 
0.0

>  <rmsd>  (3) 
1.60229

>  <sdf_rank>  (3) 
0

$$$$

     RDKit          3D

 26 25  0  0  0  0  0  0  0  0999 V2000
  -54.8907   49.6296  -22.0337 C   0  0  0  0  0  0  0  0  0  0  0  0
  -53.8266   49.1603  -21.0509 C   0  0  0  0  0  0  0  0  0  0  0  0
  -54.5140   47.5556  -19.4896 C   0  0  0  0  0  0  0  0  0  0  0  0
  -55.0766   47.3182  -18.1012 C   0  0  0  0  0  0  0  0  0  0  0  0
  -57.0843   47.3966  -16.5800 C   0  0  0  0  0  0  0  0  0  0  0  0
  -57.2796   48.7435  -15.9002 C   0  0  0  0  0  0  0  0  0  0  0  0
  -54.4815   48.9730  -19.7773 N   0  0  0  0  0  0  0  0  0  0  0  0
  -56.4783   47.5868  -17.8842 N   0  0  0  0  0  0  0  0  0  0  0  0
  -56.1313   49.1498  -21.5787 O   0  0  0  0  0  0  0  0  0  0  0  0
  -54.3788   46.8957  -17.2294 O   0  0  0  0  0  0  0  0  0  0  0  0
  -58.0554   48.5624  -14.7501 O   0  0  0  0  0  0  0  0  0  0  0  0
  -54.9056   50.7288  -22.0737 H   0  0  0  0  0  0  0  0  0  0  0  0
  -54.6772   49.2508  -23.0441 H   0  0  0  0  0  0  0  0  0  0  0  0
  -53.3881   48.2115  -21.3934 H   0  0  0  0  0  0  0  0  0  0  0  0
  -53.0143   49.8977  -20.9700 H   0  0  0  0  0  0  0  0  0  0  0  0
  -53.4928   47.1501  -19.5426 H   0  0  0  0  0  0  0  0  0  0  0  0
  -55.1552   47.0529  -20.2286 H   0  0  0  0  0  0  0  0  0  0  0  0
  -56.4283   46.7670  -15.9609 H   0  0  0  0  0  0  0  0  0  0  0  0
  -58.0616   46.9066  -16.7019 H   0  0  0  0  0  0  0  0  0  0  0  0
  -56.3010   49.1627  -15.6233 H   0  0  0  0  0  0  0  0  0  0  0  0
  -57.7870   49.4373  -16.5866 H   0  0  0  0  0  0  0  0  0  0  0  0
  -53.9580   49.4664  -19.0401 H   0  0  0  0  0  0  0  0  0  0  0  0
  -55.4390   49.3512  -19.8106 H   0  0  0  0  0  0  0  0  0  0  0  0
  -57.0577   47.9190  -18.6683 H   0  0  0  0  0  0  0  0  0  0  0  0
  -56.1408   49.1461  -20.5888 H   0  0  0  0  0  0  0  0  0  0  0  0
  -57.4912   48.6941  -13.9473 H   0  0  0  0  0  0  0  0  0  0  0  0
  1  2  1  0
  1  9  1  0
  2  7  1  0
  3  4  1  0
  3  7  1  0
  4  8  1  0
  4 10  2  0
  5  6  1  0
  5  8  1  0
  6 11  1  0
  1 12  1  0
  1 13  1  0
  2 14  1  0
  2 15  1  0
  3 16  1  0
  3 17  1  0
  5 18  1  0
  5 19  1  0
  6 20  1  0
  6 21  1  0
  7 22  1  0
  7 23  1  0
  8 24  1  0
  9 25  1  0
 11 26  1  0
M  CHG  1   7   1
M  END
>  <filename_input>  (4) 
7KZ9_XN7_docked.sdf

>  <pdb_id>  (4) 
7KZ9_XN7

>  <pose_rank>  (4) 
3

>  <num_atoms_heavy>  (4) 
11

>  <num_torsions>  (4) 
6

>  <pose>  (4) 
[-55.076565439692445, 47.318203893295774, -18.10117034475282, 3.473363538781947, 2.588423377820095, -3.9359279279265778, 10.067068029512784, -6.275609294699349, -5.57843163685229, 1.3415065283581102, -9.349717185558765, -2.2124572163568925]

>  <energy>  (4) 
-501.2490245181915

>  <inter_energy>  (4) 
-512.2275239159613

>  <intra_energy>  (4) 
7.934992076532825

>  <rmsd>  (4) 
1.80214

>  <sdf_rank>  (4) 
0

$$$$

     RDKit          3D

 26 25  0  0  0  0  0  0  0  0999 V2000
  -58.1478   47.5223  -15.7197 C   0  0  0  0  0  0  0  0  0  0  0  0
  -56.6592   47.4071  -16.0189 C   0  0  0  0  0  0  0  0  0  0  0  0
  -55.1330   48.1684  -17.6241 C   0  0  0  0  0  0  0  0  0  0  0  0
  -54.8285   48.2606  -19.1072 C   0  0  0  0  0  0  0  0  0  0  0  0
  -54.0637   47.0777  -21.1970 C   0  0  0  0  0  0  0  0  0  0  0  0
  -54.3356   45.7087  -21.8020 C   0  0  0  0  0  0  0  0  0  0  0  0
  -56.4869   47.7002  -17.4227 N   0  0  0  0  0  0  0  0  0  0  0  0
  -54.3868   47.0637  -19.7828 N   0  0  0  0  0  0  0  0  0  0  0  0
  -58.4435   46.6234  -14.6801 O   0  0  0  0  0  0  0  0  0  0  0  0
  -54.9797   49.2896  -19.6933 O   0  0  0  0  0  0  0  0  0  0  0  0
  -53.2628   44.8610  -21.5053 O   0  0  0  0  0  0  0  0  0  0  0  0
  -58.3892   48.5491  -15.4077 H   0  0  0  0  0  0  0  0  0  0  0  0
  -58.7411   47.2856  -16.6152 H   0  0  0  0  0  0  0  0  0  0  0  0
  -56.0946   48.1288  -15.4103 H   0  0  0  0  0  0  0  0  0  0  0  0
  -56.2873   46.3999  -15.7796 H   0  0  0  0  0  0  0  0  0  0  0  0
  -54.4310   47.4656  -17.1516 H   0  0  0  0  0  0  0  0  0  0  0  0
  -55.0259   49.1654  -17.1720 H   0  0  0  0  0  0  0  0  0  0  0  0
  -53.0007   47.3293  -21.3261 H   0  0  0  0  0  0  0  0  0  0  0  0
  -54.6870   47.8289  -21.7042 H   0  0  0  0  0  0  0  0  0  0  0  0
  -55.2620   45.2945  -21.3772 H   0  0  0  0  0  0  0  0  0  0  0  0
  -54.4489   45.7989  -22.8925 H   0  0  0  0  0  0  0  0  0  0  0  0
  -56.6476   46.8483  -17.9789 H   0  0  0  0  0  0  0  0  0  0  0  0
  -57.1603   48.4202  -17.7210 H   0  0  0  0  0  0  0  0  0  0  0  0
  -54.2995   46.1854  -19.2520 H   0  0  0  0  0  0  0  0  0  0  0  0
  -58.2972   47.0680  -13.8078 H   0  0  0  0  0  0  0  0  0  0  0  0
  -53.1651   44.7837  -20.5232 H   0  0  0  0  0  0  0  0  0  0  0  0
  1  2  1  0
  1  9  1  0
  2  7  1  0
  3  4  1  0
  3  7  1  0
  4  8  1  0
  4 10  2  0
  5  6  1  0
  5  8  1  0
  6 11  1  0
  1 12  1  0
  1 13  1  0
  2 14  1  0
  2 15  1  0
  3 16  1  0
  3 17  1  0
  5 18  1  0
  5 19  1  0
  6 20  1  0
  6 21  1  0
  7 22  1  0
  7 23  1  0
  8 24  1  0
  9 25  1  0
 11 26  1  0
M  CHG  1   7   1
M  END
>  <filename_input>  (5) 
7KZ9_XN7_docked.sdf

>  <pdb_id>  (5) 
7KZ9_XN7

>  <pose_rank>  (5) 
4

>  <num_atoms_heavy>  (5) 
11

>  <num_torsions>  (5) 
6

>  <pose>  (5) 
[-54.82854870700489, 48.260571717691896, -19.107164528849488, -2.6183590749336543, -1.7702835417998022, -0.9764661582089244, 19.945061447876704, 106.74370126159361, -29.9323155437588, -27.009371356616075, -7.494174038685657, -0.30476728938941056]

>  <energy>  (5) 
-423.2482343321149

>  <inter_energy>  (5) 
-418.5808074674121

>  <intra_energy>  (5) 
0.0

>  <rmsd>  (5) 
5.68277

>  <sdf_rank>  (5) 
0

$$$$

     RDKit          3D

 26 25  0  0  0  0  0  0  0  0999 V2000
  -57.8887   46.5762  -15.7937 C   0  0  0  0  0  0  0  0  0  0  0  0
  -57.6086   47.9402  -15.1773 C   0  0  0  0  0  0  0  0  0  0  0  0
  -56.0036   47.5177  -16.8299 C   0  0  0  0  0  0  0  0  0  0  0  0
  -55.8079   48.2695  -18.1326 C   0  0  0  0  0  0  0  0  0  0  0  0
  -55.4063   48.1462  -20.6175 C   0  0  0  0  0  0  0  0  0  0  0  0
  -54.0738   48.8802  -20.6145 C   0  0  0  0  0  0  0  0  0  0  0  0
  -56.3928   48.4343  -15.7804 N   0  0  0  0  0  0  0  0  0  0  0  0
  -55.6136   47.4973  -19.3367 N   0  0  0  0  0  0  0  0  0  0  0  0
  -59.2302   46.2546  -15.5234 O   0  0  0  0  0  0  0  0  0  0  0  0
  -55.8431   49.4627  -18.1541 O   0  0  0  0  0  0  0  0  0  0  0  0
  -53.2316   48.2943  -21.5657 O   0  0  0  0  0  0  0  0  0  0  0  0
  -57.7240   46.6149  -16.8806 H   0  0  0  0  0  0  0  0  0  0  0  0
  -57.2164   45.8156  -15.3701 H   0  0  0  0  0  0  0  0  0  0  0  0
  -58.4411   48.6278  -15.3873 H   0  0  0  0  0  0  0  0  0  0  0  0
  -57.5019   47.8630  -14.0852 H   0  0  0  0  0  0  0  0  0  0  0  0
  -56.7903   46.7603  -16.9616 H   0  0  0  0  0  0  0  0  0  0  0  0
  -55.0580   47.0305  -16.5499 H   0  0  0  0  0  0  0  0  0  0  0  0
  -56.2188   48.8653  -20.7981 H   0  0  0  0  0  0  0  0  0  0  0  0
  -55.4000   47.3861  -21.4126 H   0  0  0  0  0  0  0  0  0  0  0  0
  -54.2348   49.9389  -20.8660 H   0  0  0  0  0  0  0  0  0  0  0  0
  -53.6136   48.8133  -19.6176 H   0  0  0  0  0  0  0  0  0  0  0  0
  -56.5563   49.3703  -16.1780 H   0  0  0  0  0  0  0  0  0  0  0  0
  -55.6471   48.5025  -15.0732 H   0  0  0  0  0  0  0  0  0  0  0  0
  -55.6222   46.4686  -19.2856 H   0  0  0  0  0  0  0  0  0  0  0  0
  -59.3706   46.2210  -14.5440 H   0  0  0  0  0  0  0  0  0  0  0  0
  -52.5120   47.7937  -21.1057 H   0  0  0  0  0  0  0  0  0  0  0  0
  1  2  1  0
  1  9  1  0
  2  7  1  0
  3  4  1  0
  3  7  1  0
  4  8  1  0
  4 10  2  0
  5  6  1  0
  5  8  1  0
  6 11  1  0
  1 12  1  0
  1 13  1  0
  2 14  1  0
  2 15  1  0
  3 16  1  0
  3 17  1  0
  5 18  1  0
  5 19  1  0
  6 20  1  0
  6 21  1  0
  7 22  1  0
  7 23  1  0
  8 24  1  0
  9 25  1  0
 11 26  1  0
M  CHG  1   7   1
M  END
>  <filename_input>  (6) 
7KZ9_XN7_docked.sdf

>  <pdb_id>  (6) 
7KZ9_XN7

>  <pose_rank>  (6) 
5

>  <num_atoms_heavy>  (6) 
11

>  <num_torsions>  (6) 
6

>  <pose>  (6) 
[-55.807933428144686, 48.26952806796446, -18.13257006578372, 2.8457227615458365, 1.3540914482652564, 1.232717072284747, -6.693524259637128, 5.447515941736304, -1.12083905614108, -1.0536914598007765, -3.6980451682802724, 9.401231430038525]

>  <energy>  (6) 
-430.8469563332996

>  <inter_energy>  (6) 
-435.87531332059746

>  <intra_energy>  (6) 
9.668459926816622

>  <rmsd>  (6) 
5.63549

>  <sdf_rank>  (6) 
0

$$$$

     RDKit          3D

 26 25  0  0  0  0  0  0  0  0999 V2000
  -57.7815   47.0884  -15.5485 C   0  0  0  0  0  0  0  0  0  0  0  0
  -57.3611   47.3583  -16.9869 C   0  0  0  0  0  0  0  0  0  0  0  0
  -55.0587   47.6518  -17.3005 C   0  0  0  0  0  0  0  0  0  0  0  0
  -54.6190   48.0801  -18.6875 C   0  0  0  0  0  0  0  0  0  0  0  0
  -53.6120   47.4108  -20.8987 C   0  0  0  0  0  0  0  0  0  0  0  0
  -54.1257   46.3812  -21.8939 C   0  0  0  0  0  0  0  0  0  0  0  0
  -56.2879   48.3237  -16.9390 N   0  0  0  0  0  0  0  0  0  0  0  0
  -54.0669   47.0738  -19.5630 N   0  0  0  0  0  0  0  0  0  0  0  0
  -59.1690   46.8628  -15.5460 O   0  0  0  0  0  0  0  0  0  0  0  0
  -54.7555   49.2115  -19.0434 O   0  0  0  0  0  0  0  0  0  0  0  0
  -53.3115   45.2451  -21.8313 O   0  0  0  0  0  0  0  0  0  0  0  0
  -57.2566   46.2012  -15.1646 H   0  0  0  0  0  0  0  0  0  0  0  0
  -57.5282   47.9440  -14.9052 H   0  0  0  0  0  0  0  0  0  0  0  0
  -57.0119   46.4283  -17.4593 H   0  0  0  0  0  0  0  0  0  0  0  0
  -58.2066   47.7402  -17.5780 H   0  0  0  0  0  0  0  0  0  0  0  0
  -55.2222   46.5641  -17.2904 H   0  0  0  0  0  0  0  0  0  0  0  0
  -54.2756   47.9195  -16.5759 H   0  0  0  0  0  0  0  0  0  0  0  0
  -52.5122   47.4204  -20.9182 H   0  0  0  0  0  0  0  0  0  0  0  0
  -53.9966   48.4042  -21.1731 H   0  0  0  0  0  0  0  0  0  0  0  0
  -55.1609   46.1081  -21.6415 H   0  0  0  0  0  0  0  0  0  0  0  0
  -54.1020   46.8012  -22.9103 H   0  0  0  0  0  0  0  0  0  0  0  0
  -56.4761   49.0876  -17.6037 H   0  0  0  0  0  0  0  0  0  0  0  0
  -56.2101   48.7224  -15.9925 H   0  0  0  0  0  0  0  0  0  0  0  0
  -53.9947   46.1005  -19.2339 H   0  0  0  0  0  0  0  0  0  0  0  0
  -59.4931   46.8101  -14.6120 H   0  0  0  0  0  0  0  0  0  0  0  0
  -53.1438   45.0110  -20.8841 H   0  0  0  0  0  0  0  0  0  0  0  0
  1  2  1  0
  1  9  1  0
  2  7  1  0
  3  4  1  0
  3  7  1  0
  4  8  1  0
  4 10  2  0
  5  6  1  0
  5  8  1  0
  6 11  1  0
  1 12  1  0
  1 13  1  0
  2 14  1  0
  2 15  1  0
  3 16  1  0
  3 17  1  0
  5 18  1  0
  5 19  1  0
  6 20  1  0
  6 21  1  0
  7 22  1  0
  7 23  1  0
  8 24  1  0
  9 25  1  0
 11 26  1  0
M  CHG  1   7   1
M  END
>  <filename_input>  (7) 
7KZ9_XN7_docked.sdf

>  <pdb_id>  (7) 
7KZ9_XN7

>  <pose_rank>  (7) 
6

>  <num_atoms_heavy>  (7) 
11

>  <num_torsions>  (7) 
6

>  <pose>  (7) 
[-54.618995218760325, 48.08013068762504, -18.68749621264786, -2.442433438989965, -1.5988484077478684, -1.244343566889314, 18.97151152013028, 105.6463569849705, -30.742002844720947, -27.076652864114948, -7.2111087214864265, -0.29846176067343255]

>  <energy>  (7) 
-442.77559514287685

>  <inter_energy>  (7) 
-442.00558280026536

>  <intra_energy>  (7) 
0.0

>  <rmsd>  (7) 
5.62409

>  <sdf_rank>  (7) 
0

$$$$

     RDKit          3D

 26 25  0  0  0  0  0  0  0  0999 V2000
  -62.1672   47.4114  -12.2694 C   0  0  0  0  0  0  0  0  0  0  0  0
  -62.7992   46.8405  -13.5316 C   0  0  0  0  0  0  0  0  0  0  0  0
  -61.4781   46.4103  -15.4171 C   0  0  0  0  0  0  0  0  0  0  0  0
  -60.0385   46.0470  -15.7270 C   0  0  0  0  0  0  0  0  0  0  0  0
  -57.5955   46.4739  -15.2787 C   0  0  0  0  0  0  0  0  0  0  0  0
  -56.9921   47.5790  -16.1325 C   0  0  0  0  0  0  0  0  0  0  0  0
  -61.8426   45.9227  -14.1047 N   0  0  0  0  0  0  0  0  0  0  0  0
  -58.9955   46.7568  -15.0252 N   0  0  0  0  0  0  0  0  0  0  0  0
  -63.1223   47.3301  -11.2411 O   0  0  0  0  0  0  0  0  0  0  0  0
  -59.7877   45.1800  -16.5085 O   0  0  0  0  0  0  0  0  0  0  0  0
  -57.4122   48.8171  -15.6343 O   0  0  0  0  0  0  0  0  0  0  0  0
  -61.2750   46.8273  -11.9996 H   0  0  0  0  0  0  0  0  0  0  0  0
  -61.8601   48.4555  -12.4295 H   0  0  0  0  0  0  0  0  0  0  0  0
  -63.7294   46.3092  -13.2813 H   0  0  0  0  0  0  0  0  0  0  0  0
  -63.0492   47.6418  -14.2425 H   0  0  0  0  0  0  0  0  0  0  0  0
  -61.5909   47.5042  -15.4430 H   0  0  0  0  0  0  0  0  0  0  0  0
  -62.1357   45.9483  -16.1682 H   0  0  0  0  0  0  0  0  0  0  0  0
  -57.5072   45.5139  -15.8085 H   0  0  0  0  0  0  0  0  0  0  0  0
  -57.0570   46.4202  -14.3211 H   0  0  0  0  0  0  0  0  0  0  0  0
  -55.8944   47.5184  -16.0932 H   0  0  0  0  0  0  0  0  0  0  0  0
  -57.3215   47.4659  -17.1759 H   0  0  0  0  0  0  0  0  0  0  0  0
  -61.0056   45.8729  -13.5065 H   0  0  0  0  0  0  0  0  0  0  0  0
  -62.2525   44.9805  -14.1766 H   0  0  0  0  0  0  0  0  0  0  0  0
  -59.2497   47.4760  -14.3330 H   0  0  0  0  0  0  0  0  0  0  0  0
  -62.6662   47.3689  -10.3633 H   0  0  0  0  0  0  0  0  0  0  0  0
  -57.4045   48.7944  -14.6446 H   0  0  0  0  0  0  0  0  0  0  0  0
  1  2  1  0
  1  9  1  0
  2  7  1  0
  3  4  1  0
  3  7  1  0
  4  8  1  0
  4 10  2  0
  5  6  1  0
  5  8  1  0
  6 11  1  0
  1 12  1  0
  1 13  1  0
  2 14  1  0
  2 15  1  0
  3 16  1  0
  3 17  1  0
  5 18  1  0
  5 19  1  0
  6 20  1  0
  6 21  1  0
  7 22  1  0
  7 23  1  0
  8 24  1  0
  9 25  1  0
 11 26  1  0
M  CHG  1   7   1
M  END
>  <filename_input>  (8) 
7KZ9_XN7_docked.sdf

>  <pdb_id>  (8) 
7KZ9_XN7

>  <pose_rank>  (8) 
7

>  <num_atoms_heavy>  (8) 
11

>  <num_torsions>  (8) 
6

>  <pose>  (8) 
[-60.03850068401919, 46.04703637144347, -15.726962884009637, 0.2940055925952033, -4.1786579702222815, 0.08711628252490211, 1.3131174621481425, -6.746044345881815, -9.576507665612386, -0.5136450490803214, -3.0481341109115414, 1.8719210430351652]

>  <energy>  (8) 
-302.8700422526819

>  <inter_energy>  (8) 
-293.0082971169498

>  <intra_energy>  (8) 
0.0

>  <rmsd>  (8) 
7.93445

>  <sdf_rank>  (8) 
0

$$$$

     RDKit          3D

 26 25  0  0  0  0  0  0  0  0999 V2000
  -61.2161   41.5853  -18.2361 C   0  0  0  0  0  0  0  0  0  0  0  0
  -61.7204   42.4981  -17.1264 C   0  0  0  0  0  0  0  0  0  0  0  0
  -60.7323   44.5694  -16.6591 C   0  0  0  0  0  0  0  0  0  0  0  0
  -59.8404   45.2805  -15.6594 C   0  0  0  0  0  0  0  0  0  0  0  0
  -57.7206   46.5812  -15.2519 C   0  0  0  0  0  0  0  0  0  0  0  0
  -56.8745   47.5749  -16.0336 C   0  0  0  0  0  0  0  0  0  0  0  0
  -60.5623   43.1372  -16.5466 N   0  0  0  0  0  0  0  0  0  0  0  0
  -58.6300   45.8954  -16.1503 N   0  0  0  0  0  0  0  0  0  0  0  0
  -61.7630   40.3087  -18.0183 O   0  0  0  0  0  0  0  0  0  0  0  0
  -60.1533   45.3472  -14.5092 O   0  0  0  0  0  0  0  0  0  0  0  0
  -57.4683   48.8391  -15.9510 O   0  0  0  0  0  0  0  0  0  0  0  0
  -61.5399   41.9702  -19.2144 H   0  0  0  0  0  0  0  0  0  0  0  0
  -60.1170   41.5408  -18.2298 H   0  0  0  0  0  0  0  0  0  0  0  0
  -62.4021   43.2554  -17.5408 H   0  0  0  0  0  0  0  0  0  0  0  0
  -62.2737   41.9251  -16.3678 H   0  0  0  0  0  0  0  0  0  0  0  0
  -61.7824   44.8280  -16.4580 H   0  0  0  0  0  0  0  0  0  0  0  0
  -60.4570   44.8859  -17.6760 H   0  0  0  0  0  0  0  0  0  0  0  0
  -57.0634   45.8451  -14.7659 H   0  0  0  0  0  0  0  0  0  0  0  0
  -58.3017   47.1203  -14.4893 H   0  0  0  0  0  0  0  0  0  0  0  0
  -55.8616   47.6140  -15.6063 H   0  0  0  0  0  0  0  0  0  0  0  0
  -56.8091   47.2619  -17.0861 H   0  0  0  0  0  0  0  0  0  0  0  0
  -60.4783   42.8730  -15.5546 H   0  0  0  0  0  0  0  0  0  0  0  0
  -59.7081   42.8406  -17.0398 H   0  0  0  0  0  0  0  0  0  0  0  0
  -58.4085   45.8465  -17.1550 H   0  0  0  0  0  0  0  0  0  0  0  0
  -61.8344   40.1419  -17.0451 H   0  0  0  0  0  0  0  0  0  0  0  0
  -57.5849   49.0874  -14.9997 H   0  0  0  0  0  0  0  0  0  0  0  0
  1  2  1  0
  1  9  1  0
  2  7  1  0
  3  4  1  0
  3  7  1  0
  4  8  1  0
  4 10  2  0
  5  6  1  0
  5  8  1  0
  6 11  1  0
  1 12  1  0
  1 13  1  0
  2 14  1  0
  2 15  1  0
  3 16  1  0
  3 17  1  0
  5 18  1  0
  5 19  1  0
  6 20  1  0
  6 21  1  0
  7 22  1  0
  7 23  1  0
  8 24  1  0
  9 25  1  0
 11 26  1  0
M  CHG  1   7   1
M  END
>  <filename_input>  (9) 
7KZ9_XN7_docked.sdf

>  <pdb_id>  (9) 
7KZ9_XN7

>  <pose_rank>  (9) 
8

>  <num_atoms_heavy>  (9) 
11

>  <num_torsions>  (9) 
6

>  <pose>  (9) 
[-59.84035579655337, 45.28045410780539, -15.65941873634413, -0.9312996355861736, 0.32669486134776254, -2.090129561712348, -1.9107554116165995, -0.25595811545359365, 0.9032358536850371, -2.248531884582901, -1.329524611945657, -3.518812683433393]

>  <energy>  (9) 
-270.01345024237935

>  <inter_energy>  (9) 
-262.4502300336201

>  <intra_energy>  (9) 
0.0

>  <rmsd>  (9) 
7.26787

>  <sdf_rank>  (9) 
0

$$$$

     RDKit          3D

 26 25  0  0  0  0  0  0  0  0999 V2000
  -54.6742   48.7146  -21.8407 C   0  0  0  0  0  0  0  0  0  0  0  0
  -54.3534   49.3860  -20.5122 C   0  0  0  0  0  0  0  0  0  0  0  0
  -54.4552   48.3062  -18.4364 C   0  0  0  0  0  0  0  0  0  0  0  0
  -55.3150   47.4487  -17.5276 C   0  0  0  0  0  0  0  0  0  0  0  0
  -57.6243   46.9097  -16.6746 C   0  0  0  0  0  0  0  0  0  0  0  0
  -57.9247   47.6893  -15.4032 C   0  0  0  0  0  0  0  0  0  0  0  0
  -55.2497   48.8249  -19.5284 N   0  0  0  0  0  0  0  0  0  0  0  0
  -56.7398   47.6809  -17.5274 N   0  0  0  0  0  0  0  0  0  0  0  0
  -54.7584   49.7224  -22.8173 O   0  0  0  0  0  0  0  0  0  0  0  0
  -54.8211   46.5925  -16.8580 O   0  0  0  0  0  0  0  0  0  0  0  0
  -57.1969   48.8841  -15.4218 O   0  0  0  0  0  0  0  0  0  0  0  0
  -53.8773   48.0034  -22.1036 H   0  0  0  0  0  0  0  0  0  0  0  0
  -55.6224   48.1609  -21.7745 H   0  0  0  0  0  0  0  0  0  0  0  0
  -53.3093   49.1855  -20.2300 H   0  0  0  0  0  0  0  0  0  0  0  0
  -54.4805   50.4764  -20.5826 H   0  0  0  0  0  0  0  0  0  0  0  0
  -54.0392   49.1449  -17.8588 H   0  0  0  0  0  0  0  0  0  0  0  0
  -53.6393   47.6919  -18.8449 H   0  0  0  0  0  0  0  0  0  0  0  0
  -57.1403   45.9572  -16.4129 H   0  0  0  0  0  0  0  0  0  0  0  0
  -58.5646   46.7130  -17.2104 H   0  0  0  0  0  0  0  0  0  0  0  0
  -59.0006   47.9130  -15.3528 H   0  0  0  0  0  0  0  0  0  0  0  0
  -57.6397   47.0928  -14.5241 H   0  0  0  0  0  0  0  0  0  0  0  0
  -55.8864   49.5557  -19.1799 H   0  0  0  0  0  0  0  0  0  0  0  0
  -55.8121   48.0712  -19.9485 H   0  0  0  0  0  0  0  0  0  0  0  0
  -57.1349   48.4061  -18.1429 H   0  0  0  0  0  0  0  0  0  0  0  0
  -54.8322   50.6051  -22.3751 H   0  0  0  0  0  0  0  0  0  0  0  0
  -57.0188   49.1764  -14.4928 H   0  0  0  0  0  0  0  0  0  0  0  0
  1  2  1  0
  1  9  1  0
  2  7  1  0
  3  4  1  0
  3  7  1  0
  4  8  1  0
  4 10  2  0
  5  6  1  0
  5  8  1  0
  6 11  1  0
  1 12  1  0
  1 13  1  0
  2 14  1  0
  2 15  1  0
  3 16  1  0
  3 17  1  0
  5 18  1  0
  5 19  1  0
  6 20  1  0
  6 21  1  0
  7 22  1  0
  7 23  1  0
  8 24  1  0
  9 25  1  0
 11 26  1  0
M  CHG  1   7   1
M  END
>  <filename_input>  (10) 
7KZ9_XN7_docked.sdf

>  <pdb_id>  (10) 
7KZ9_XN7

>  <pose_rank>  (10) 
9

>  <num_atoms_heavy>  (10) 
11

>  <num_torsions>  (10) 
6

>  <pose>  (10) 
[-55.31495086107755, 47.44871810025617, -17.5275561830772, 0.23919650978016038, -0.4958824650407575, 0.1818622505154317, 21.011529413472914, 19.160964714869056, -61.874935936588464, 16.69210652929445, -15.732691549004814, 1.0427221795817434]

>  <energy>  (10) 
-466.9011863320183

>  <inter_energy>  (10) 
-476.8489414871646

>  <intra_energy>  (10) 
5.59771769776343

>  <rmsd>  (10) 
1.62912

>  <sdf_rank>  (10) 
0

$$$$

     RDKit          3D

 26 25  0  0  0  0  0  0  0  0999 V2000
  -56.3935   47.1272  -16.4368 C   0  0  0  0  0  0  0  0  0  0  0  0
  -57.3649   48.2919  -16.3003 C   0  0  0  0  0  0  0  0  0  0  0  0
  -58.5901   46.3945  -15.6804 C   0  0  0  0  0  0  0  0  0  0  0  0
  -59.9633   45.8871  -15.2836 C   0  0  0  0  0  0  0  0  0  0  0  0
  -62.3667   46.4430  -14.7679 C   0  0  0  0  0  0  0  0  0  0  0  0
  -62.5998   46.7708  -13.3007 C   0  0  0  0  0  0  0  0  0  0  0  0
  -58.6929   47.7281  -16.2315 N   0  0  0  0  0  0  0  0  0  0  0  0
  -61.0302   46.8513  -15.1571 N   0  0  0  0  0  0  0  0  0  0  0  0
  -55.2340   47.6118  -17.0668 O   0  0  0  0  0  0  0  0  0  0  0  0
  -60.1511   44.7209  -15.1108 O   0  0  0  0  0  0  0  0  0  0  0  0
  -61.4823   47.4517  -12.8055 O   0  0  0  0  0  0  0  0  0  0  0  0
  -56.1419   46.7301  -15.4423 H   0  0  0  0  0  0  0  0  0  0  0  0
  -56.8438   46.3161  -17.0279 H   0  0  0  0  0  0  0  0  0  0  0  0
  -57.1475   48.8596  -15.3835 H   0  0  0  0  0  0  0  0  0  0  0  0
  -57.2744   48.9806  -17.1532 H   0  0  0  0  0  0  0  0  0  0  0  0
  -57.9400   46.4165  -14.7933 H   0  0  0  0  0  0  0  0  0  0  0  0
  -58.1639   45.7229  -16.4402 H   0  0  0  0  0  0  0  0  0  0  0  0
  -62.4766   45.3594  -14.9217 H   0  0  0  0  0  0  0  0  0  0  0  0
  -63.1038   46.9815  -15.3815 H   0  0  0  0  0  0  0  0  0  0  0  0
  -63.4928   47.4053  -13.2014 H   0  0  0  0  0  0  0  0  0  0  0  0
  -62.7530   45.8423  -12.7311 H   0  0  0  0  0  0  0  0  0  0  0  0
  -59.2880   48.3108  -15.6256 H   0  0  0  0  0  0  0  0  0  0  0  0
  -59.1135   47.6932  -17.1711 H   0  0  0  0  0  0  0  0  0  0  0  0
  -60.8393   47.8457  -15.3462 H   0  0  0  0  0  0  0  0  0  0  0  0
  -54.5759   47.8869  -16.3803 H   0  0  0  0  0  0  0  0  0  0  0  0
  -61.5009   47.4404  -11.8157 H   0  0  0  0  0  0  0  0  0  0  0  0
  1  2  1  0
  1  9  1  0
  2  7  1  0
  3  4  1  0
  3  7  1  0
  4  8  1  0
  4 10  2  0
  5  6  1  0
  5  8  1  0
  6 11  1  0
  1 12  1  0
  1 13  1  0
  2 14  1  0
  2 15  1  0
  3 16  1  0
  3 17  1  0
  5 18  1  0
  5 19  1  0
  6 20  1  0
  6 21  1  0
  7 22  1  0
  7 23  1  0
  8 24  1  0
  9 25  1  0
 11 26  1  0
M  CHG  1   7   1
M  END
>  <filename_input>  (11) 
7KZ9_XN7_docked.sdf

>  <pdb_id>  (11) 
7KZ9_XN7

>  <pose_rank>  (11) 
10

>  <num_atoms_heavy>  (11) 
11

>  <num_torsions>  (11) 
6

>  <pose>  (11) 
[-59.96326349312158, 45.88712665836989, -15.283607414355505, -2.7707327032870768, 3.6624398802340123, 2.5379085482859893, -10.279905427636274, 6.1503376202972575, -7.037580814888271, -1.7808043385994905, -3.0853907458842476, 1.1666445060604453]

>  <energy>  (11) 
-239.31848536918054

>  <inter_energy>  (11) 
-236.15206002991735

>  <intra_energy>  (11) 
2.6821320216440343

>  <rmsd>  (11) 
5.27397

>  <sdf_rank>  (11) 
0

$$$$

     RDKit          3D

 26 25  0  0  0  0  0  0  0  0999 V2000
  -64.6196   52.8359  -20.3357 C   0  0  0  0  0  0  0  0  0  0  0  0
  -64.8834   52.8177  -21.8353 C   0  0  0  0  0  0  0  0  0  0  0  0
  -63.7187   52.0295  -23.7082 C   0  0  0  0  0  0  0  0  0  0  0  0
  -62.8297   52.6162  -24.7880 C   0  0  0  0  0  0  0  0  0  0  0  0
  -61.3996   54.5480  -25.5459 C   0  0  0  0  0  0  0  0  0  0  0  0
  -61.7001   56.0380  -25.6099 C   0  0  0  0  0  0  0  0  0  0  0  0
  -63.5961   52.8002  -22.4901 N   0  0  0  0  0  0  0  0  0  0  0  0
  -62.2491   53.9170  -24.5536 N   0  0  0  0  0  0  0  0  0  0  0  0
  -63.3309   52.3155  -20.1241 O   0  0  0  0  0  0  0  0  0  0  0  0
  -62.6016   52.0004  -25.7851 O   0  0  0  0  0  0  0  0  0  0  0  0
  -60.5877   56.7451  -25.1407 O   0  0  0  0  0  0  0  0  0  0  0  0
  -64.6741   53.8675  -19.9578 H   0  0  0  0  0  0  0  0  0  0  0  0
  -65.3713   52.2339  -19.8041 H   0  0  0  0  0  0  0  0  0  0  0  0
  -65.4577   51.9197  -22.1070 H   0  0  0  0  0  0  0  0  0  0  0  0
  -65.4679   53.6976  -22.1419 H   0  0  0  0  0  0  0  0  0  0  0  0
  -64.7649   52.0496  -24.0477 H   0  0  0  0  0  0  0  0  0  0  0  0
  -63.4090   50.9927  -23.5109 H   0  0  0  0  0  0  0  0  0  0  0  0
  -61.5892   54.0948  -26.5301 H   0  0  0  0  0  0  0  0  0  0  0  0
  -60.3457   54.4020  -25.2669 H   0  0  0  0  0  0  0  0  0  0  0  0
  -61.9102   56.3280  -26.6500 H   0  0  0  0  0  0  0  0  0  0  0  0
  -62.5777   56.2684  -24.9880 H   0  0  0  0  0  0  0  0  0  0  0  0
  -63.3059   53.7628  -22.7143 H   0  0  0  0  0  0  0  0  0  0  0  0
  -62.8883   52.3784  -21.8720 H   0  0  0  0  0  0  0  0  0  0  0  0
  -62.4412   54.4050  -23.6671 H   0  0  0  0  0  0  0  0  0  0  0  0
  -63.1587   52.2459  -19.1517 H   0  0  0  0  0  0  0  0  0  0  0  0
  -60.5895   56.7440  -24.1507 H   0  0  0  0  0  0  0  0  0  0  0  0
  1  2  1  0
  1  9  1  0
  2  7  1  0
  3  4  1  0
  3  7  1  0
  4  8  1  0
  4 10  2  0
  5  6  1  0
  5  8  1  0
  6 11  1  0
  1 12  1  0
  1 13  1  0
  2 14  1  0
  2 15  1  0
  3 16  1  0
  3 17  1  0
  5 18  1  0
  5 19  1  0
  6 20  1  0
  6 21  1  0
  7 22  1  0
  7 23  1  0
  8 24  1  0
  9 25  1  0
 11 26  1  0
M  CHG  1   7   1
M  END
>  <filename_input>  (12) 
7KZ9_XN7_docked.sdf

>  <pdb_id>  (12) 
7KZ9_XN7

>  <pose_rank>  (12) 
11

>  <num_atoms_heavy>  (12) 
11

>  <num_torsions>  (12) 
6

>  <pose>  (12) 
[-62.82965728565116, 52.61617502067781, -24.788012803592387, 1.2238349799746073, -3.237974450081478, -0.7311446997751477, 2.3656868399701074, -0.5064708271576576, 1.329858877400882, 1.403752655934302, 3.8699159990772967, -3.2181355842668555]

>  <energy>  (12) 
-134.73688984262827

>  <inter_energy>  (12) 
-124.02003797050405

>  <intra_energy>  (12) 
0.0

>  <rmsd>  (12) 
12.041

>  <sdf_rank>  (12) 
0

$$$$

     RDKit          3D

 26 25  0  0  0  0  0  0  0  0999 V2000
  -61.6846   54.6363  -27.5260 C   0  0  0  0  0  0  0  0  0  0  0  0
  -62.9876   54.1545  -26.9026 C   0  0  0  0  0  0  0  0  0  0  0  0
  -63.5586   52.1065  -25.9202 C   0  0  0  0  0  0  0  0  0  0  0  0
  -62.5438   51.1107  -25.3917 C   0  0  0  0  0  0  0  0  0  0  0  0
  -60.7140   49.4596  -25.9177 C   0  0  0  0  0  0  0  0  0  0  0  0
  -59.6193   49.3350  -26.9668 C   0  0  0  0  0  0  0  0  0  0  0  0
  -63.0615   52.7297  -27.1274 N   0  0  0  0  0  0  0  0  0  0  0  0
  -61.6982   50.4351  -26.3469 N   0  0  0  0  0  0  0  0  0  0  0  0
  -61.8981   55.9415  -28.0027 O   0  0  0  0  0  0  0  0  0  0  0  0
  -62.4375   50.9199  -24.2180 O   0  0  0  0  0  0  0  0  0  0  0  0
  -59.6353   48.0359  -27.4862 O   0  0  0  0  0  0  0  0  0  0  0  0
  -60.8856   54.6393  -26.7699 H   0  0  0  0  0  0  0  0  0  0  0  0
  -61.3798   53.9705  -28.3469 H   0  0  0  0  0  0  0  0  0  0  0  0
  -62.9915   54.3674  -25.8234 H   0  0  0  0  0  0  0  0  0  0  0  0
  -63.8508   54.6680  -27.3510 H   0  0  0  0  0  0  0  0  0  0  0  0
  -64.5003   51.5832  -26.1421 H   0  0  0  0  0  0  0  0  0  0  0  0
  -63.7316   52.8822  -25.1597 H   0  0  0  0  0  0  0  0  0  0  0  0
  -61.2026   48.4834  -25.7823 H   0  0  0  0  0  0  0  0  0  0  0  0
  -60.2693   49.7871  -24.9664 H   0  0  0  0  0  0  0  0  0  0  0  0
  -59.7990   50.0583  -27.7758 H   0  0  0  0  0  0  0  0  0  0  0  0
  -58.6402   49.5418  -26.5102 H   0  0  0  0  0  0  0  0  0  0  0  0
  -63.7015   52.5330  -27.9102 H   0  0  0  0  0  0  0  0  0  0  0  0
  -62.1301   52.3578  -27.3621 H   0  0  0  0  0  0  0  0  0  0  0  0
  -61.7952   50.6492  -27.3497 H   0  0  0  0  0  0  0  0  0  0  0  0
  -61.9994   56.5602  -27.2365 H   0  0  0  0  0  0  0  0  0  0  0  0
  -59.6433   47.3830  -26.7421 H   0  0  0  0  0  0  0  0  0  0  0  0
  1  2  1  0
  1  9  1  0
  2  7  1  0
  3  4  1  0
  3  7  1  0
  4  8  1  0
  4 10  2  0
  5  6  1  0
  5  8  1  0
  6 11  1  0
  1 12  1  0
  1 13  1  0
  2 14  1  0
  2 15  1  0
  3 16  1  0
  3 17  1  0
  5 18  1  0
  5 19  1  0
  6 20  1  0
  6 21  1  0
  7 22  1  0
  7 23  1  0
  8 24  1  0
  9 25  1  0
 11 26  1  0
M  CHG  1   7   1
M  END
>  <filename_input>  (13) 
7KZ9_XN7_docked.sdf

>  <pdb_id>  (13) 
7KZ9_XN7

>  <pose_rank>  (13) 
12

>  <num_atoms_heavy>  (13) 
11

>  <num_torsions>  (13) 
6

>  <pose>  (13) 
[-62.543834630023, 51.11073018624698, -25.391722618881786, -1.0311923015715785, 1.7344992346991037, -2.770082336846709, 2.035561390427177, 1.139560501524986, 1.187833059428383, -1.9148375507032798, -1.319525048400225, -0.9383088122621991]

>  <energy>  (13) 
-131.58853782350013

>  <inter_energy>  (13) 
-127.64929611401271

>  <intra_energy>  (13) 
0.0

>  <rmsd>  (13) 
11.7781

>  <sdf_rank>  (13) 
0

$$$$

     RDKit          3D

 26 25  0  0  0  0  0  0  0  0999 V2000
  -62.9950   56.9674  -14.4782 C   0  0  0  0  0  0  0  0  0  0  0  0
  -61.4814   57.1242  -14.5346 C   0  0  0  0  0  0  0  0  0  0  0  0
  -59.6985   56.4616  -15.9012 C   0  0  0  0  0  0  0  0  0  0  0  0
  -59.8501   56.8547  -17.3582 C   0  0  0  0  0  0  0  0  0  0  0  0
  -58.8070   57.9150  -19.3927 C   0  0  0  0  0  0  0  0  0  0  0  0
  -58.3863   56.7685  -20.2999 C   0  0  0  0  0  0  0  0  0  0  0  0
  -60.9767   56.0525  -15.3610 N   0  0  0  0  0  0  0  0  0  0  0  0
  -58.7314   57.4979  -18.0053 N   0  0  0  0  0  0  0  0  0  0  0  0
  -63.4511   56.7657  -15.7925 O   0  0  0  0  0  0  0  0  0  0  0  0
  -60.8580   56.6100  -17.9496 O   0  0  0  0  0  0  0  0  0  0  0  0
  -59.4557   56.4397  -21.1400 O   0  0  0  0  0  0  0  0  0  0  0  0
  -63.2594   56.1022  -13.8525 H   0  0  0  0  0  0  0  0  0  0  0  0
  -63.4600   57.8635  -14.0413 H   0  0  0  0  0  0  0  0  0  0  0  0
  -61.2185   58.0971  -14.9754 H   0  0  0  0  0  0  0  0  0  0  0  0
  -61.0444   57.0815  -13.5261 H   0  0  0  0  0  0  0  0  0  0  0  0
  -58.9861   55.6272  -15.8218 H   0  0  0  0  0  0  0  0  0  0  0  0
  -59.3272   57.3263  -15.3318 H   0  0  0  0  0  0  0  0  0  0  0  0
  -58.1367   58.7723  -19.5532 H   0  0  0  0  0  0  0  0  0  0  0  0
  -59.8418   58.2038  -19.6289 H   0  0  0  0  0  0  0  0  0  0  0  0
  -57.5214   57.0756  -20.9061 H   0  0  0  0  0  0  0  0  0  0  0  0
  -58.1077   55.8951  -19.6920 H   0  0  0  0  0  0  0  0  0  0  0  0
  -60.8590   55.2008  -14.7939 H   0  0  0  0  0  0  0  0  0  0  0  0
  -61.6375   55.8509  -16.1248 H   0  0  0  0  0  0  0  0  0  0  0  0
  -57.8652   57.6634  -17.4732 H   0  0  0  0  0  0  0  0  0  0  0  0
  -64.3563   56.3653  -15.7699 H   0  0  0  0  0  0  0  0  0  0  0  0
  -60.2437   56.1974  -20.5918 H   0  0  0  0  0  0  0  0  0  0  0  0
  1  2  1  0
  1  9  1  0
  2  7  1  0
  3  4  1  0
  3  7  1  0
  4  8  1  0
  4 10  2  0
  5  6  1  0
  5  8  1  0
  6 11  1  0
  1 12  1  0
  1 13  1  0
  2 14  1  0
  2 15  1  0
  3 16  1  0
  3 17  1  0
  5 18  1  0
  5 19  1  0
  6 20  1  0
  6 21  1  0
  7 22  1  0
  7 23  1  0
  8 24  1  0
  9 25  1  0
 11 26  1  0
M  CHG  1   7   1
M  END
>  <filename_input>  (14) 
7KZ9_XN7_docked.sdf

>  <pdb_id>  (14) 
7KZ9_XN7

>  <pose_rank>  (14) 
13

>  <num_atoms_heavy>  (14) 
11

>  <num_torsions>  (14) 
6

>  <pose>  (14) 
[-59.85012983010638, 56.85472324421897, -17.358242915852646, 0.40479759538857185, 3.319216856271513, 1.0255502709881945, -0.7436668359170614, 1.4272431536535066, 1.4926432060889547, 0.9697516325728271, -0.11553780654392654, 3.178382021732752]

>  <energy>  (14) 
-129.85539784080183

>  <inter_energy>  (14) 
-123.8608306724575

>  <intra_energy>  (14) 
1.2966871380908633

>  <rmsd>  (14) 
11.6028

>  <sdf_rank>  (14) 
0

$$$$

     RDKit          3D

 26 25  0  0  0  0  0  0  0  0999 V2000
  -63.9251   39.6092  -26.4801 C   0  0  0  0  0  0  0  0  0  0  0  0
  -64.1272   40.8712  -25.6524 C   0  0  0  0  0  0  0  0  0  0  0  0
  -62.9787   40.2724  -23.7010 C   0  0  0  0  0  0  0  0  0  0  0  0
  -63.1004   39.7120  -22.2969 C   0  0  0  0  0  0  0  0  0  0  0  0
  -64.1169   39.9330  -20.0014 C   0  0  0  0  0  0  0  0  0  0  0  0
  -65.2147   38.8815  -19.9393 C   0  0  0  0  0  0  0  0  0  0  0  0
  -64.2922   40.4538  -24.2796 N   0  0  0  0  0  0  0  0  0  0  0  0
  -63.9611   40.4016  -21.3654 N   0  0  0  0  0  0  0  0  0  0  0  0
  -65.1790   39.2293  -26.9896 O   0  0  0  0  0  0  0  0  0  0  0  0
  -62.5195   38.7149  -21.9906 O   0  0  0  0  0  0  0  0  0  0  0  0
  -64.9536   38.0166  -18.8710 O   0  0  0  0  0  0  0  0  0  0  0  0
  -63.2294   39.8110  -27.3079 H   0  0  0  0  0  0  0  0  0  0  0  0
  -63.5002   38.8053  -25.8610 H   0  0  0  0  0  0  0  0  0  0  0  0
  -63.2496   41.5281  -25.7447 H   0  0  0  0  0  0  0  0  0  0  0  0
  -65.0068   41.4325  -26.0006 H   0  0  0  0  0  0  0  0  0  0  0  0
  -62.4613   41.2423  -23.6620 H   0  0  0  0  0  0  0  0  0  0  0  0
  -62.4062   39.5674  -24.3217 H   0  0  0  0  0  0  0  0  0  0  0  0
  -64.3855   40.7799  -19.3529 H   0  0  0  0  0  0  0  0  0  0  0  0
  -63.1700   39.4896  -19.6596 H   0  0  0  0  0  0  0  0  0  0  0  0
  -66.1876   39.3719  -19.7881 H   0  0  0  0  0  0  0  0  0  0  0  0
  -65.2405   38.3136  -20.8810 H   0  0  0  0  0  0  0  0  0  0  0  0
  -64.8074   41.1753  -23.7553 H   0  0  0  0  0  0  0  0  0  0  0  0
  -64.8242   39.5729  -24.2372 H   0  0  0  0  0  0  0  0  0  0  0  0
  -64.4730   41.2403  -21.6744 H   0  0  0  0  0  0  0  0  0  0  0  0
  -65.7971   39.0420  -26.2393 H   0  0  0  0  0  0  0  0  0  0  0  0
  -65.0980   38.4949  -18.0163 H   0  0  0  0  0  0  0  0  0  0  0  0
  1  2  1  0
  1  9  1  0
  2  7  1  0
  3  4  1  0
  3  7  1  0
  4  8  1  0
  4 10  2  0
  5  6  1  0
  5  8  1  0
  6 11  1  0
  1 12  1  0
  1 13  1  0
  2 14  1  0
  2 15  1  0
  3 16  1  0
  3 17  1  0
  5 18  1  0
  5 19  1  0
  6 20  1  0
  6 21  1  0
  7 22  1  0
  7 23  1  0
  8 24  1  0
  9 25  1  0
 11 26  1  0
M  CHG  1   7   1
M  END
>  <filename_input>  (15) 
7KZ9_XN7_docked.sdf

>  <pdb_id>  (15) 
7KZ9_XN7

>  <pose_rank>  (15) 
14

>  <num_atoms_heavy>  (15) 
11

>  <num_torsions>  (15) 
6

>  <pose>  (15) 
[-63.10039717299443, 39.711957586676476, -22.296897705167744, -1.8284317872971056, -4.402537848807293, 3.503462976856093, -4.628318773410715, 0.1893935245560529, 0.23242965326339285, 3.4521541100766155, -0.09138523228830857, -2.5308872742684234]

>  <energy>  (15) 
-129.81066567901178

>  <inter_energy>  (15) 
-121.07512118905647

>  <intra_energy>  (15) 
1.3088556026968898

>  <rmsd>  (15) 
12.8225

>  <sdf_rank>  (15) 
0

$$$$

     RDKit          3D

 26 25  0  0  0  0  0  0  0  0999 V2000
  -60.7922   57.0507  -16.1583 C   0  0  0  0  0  0  0  0  0  0  0  0
  -61.3628   55.6765  -16.4818 C   0  0  0  0  0  0  0  0  0  0  0  0
  -61.6188   55.1615  -18.7522 C   0  0  0  0  0  0  0  0  0  0  0  0
  -62.5941   54.1671  -19.3528 C   0  0  0  0  0  0  0  0  0  0  0  0
  -63.9617   53.4757  -21.3535 C   0  0  0  0  0  0  0  0  0  0  0  0
  -65.3810   53.9847  -21.1515 C   0  0  0  0  0  0  0  0  0  0  0  0
  -62.2276   55.8375  -17.6274 N   0  0  0  0  0  0  0  0  0  0  0  0
  -63.0203   54.3767  -20.7161 N   0  0  0  0  0  0  0  0  0  0  0  0
  -59.4318   56.8837  -15.8460 O   0  0  0  0  0  0  0  0  0  0  0  0
  -62.9695   53.2284  -18.7179 O   0  0  0  0  0  0  0  0  0  0  0  0
  -65.5423   55.1744  -21.8700 O   0  0  0  0  0  0  0  0  0  0  0  0
  -60.8984   57.7152  -17.0285 H   0  0  0  0  0  0  0  0  0  0  0  0
  -61.3301   57.5026  -15.3119 H   0  0  0  0  0  0  0  0  0  0  0  0
  -60.5487   54.9756  -16.7186 H   0  0  0  0  0  0  0  0  0  0  0  0
  -61.9189   55.2704  -15.6240 H   0  0  0  0  0  0  0  0  0  0  0  0
  -60.7186   54.6283  -18.4125 H   0  0  0  0  0  0  0  0  0  0  0  0
  -61.3475   55.9056  -19.5155 H   0  0  0  0  0  0  0  0  0  0  0  0
  -63.8664   52.4740  -20.9091 H   0  0  0  0  0  0  0  0  0  0  0  0
  -63.7439   53.4259  -22.4306 H   0  0  0  0  0  0  0  0  0  0  0  0
  -66.0979   53.2337  -21.5150 H   0  0  0  0  0  0  0  0  0  0  0  0
  -65.5627   54.1675  -20.0821 H   0  0  0  0  0  0  0  0  0  0  0  0
  -63.1496   55.4234  -17.4291 H   0  0  0  0  0  0  0  0  0  0  0  0
  -62.3544   56.8374  -17.8395 H   0  0  0  0  0  0  0  0  0  0  0  0
  -62.6500   55.1793  -21.2449 H   0  0  0  0  0  0  0  0  0  0  0  0
  -59.3182   56.8697  -14.8627 H   0  0  0  0  0  0  0  0  0  0  0  0
  -65.6447   55.9299  -21.2386 H   0  0  0  0  0  0  0  0  0  0  0  0
  1  2  1  0
  1  9  1  0
  2  7  1  0
  3  4  1  0
  3  7  1  0
  4  8  1  0
  4 10  2  0
  5  6  1  0
  5  8  1  0
  6 11  1  0
  1 12  1  0
  1 13  1  0
  2 14  1  0
  2 15  1  0
  3 16  1  0
  3 17  1  0
  5 18  1  0
  5 19  1  0
  6 20  1  0
  6 21  1  0
  7 22  1  0
  7 23  1  0
  8 24  1  0
  9 25  1  0
 11 26  1  0
M  CHG  1   7   1
M  END
>  <filename_input>  (16) 
7KZ9_XN7_docked.sdf

>  <pdb_id>  (16) 
7KZ9_XN7

>  <pose_rank>  (16) 
15

>  <num_atoms_heavy>  (16) 
11

>  <num_torsions>  (16) 
6

>  <pose>  (16) 
[-62.594054881609786, 54.167135059498335, -19.352849384690046, -0.5868314881753576, 4.2919923960142485, -0.9873292383777051, -1.662779117242576, 5.432450790013854, 0.7220224878945515, -0.6157714951509219, 3.0187483275643228, 2.2765669118036995]

>  <energy>  (16) 
-129.5377802460627

>  <inter_energy>  (16) 
-118.6704225211805

>  <intra_energy>  (16) 
0.250811672143124

>  <rmsd>  (16) 
10.9545

>  <sdf_rank>  (16) 
0

$$$$

     RDKit          3D

 26 25  0  0  0  0  0  0  0  0999 V2000
  -64.9220   40.7940  -19.7006 C   0  0  0  0  0  0  0  0  0  0  0  0
  -64.0081   39.5931  -19.9035 C   0  0  0  0  0  0  0  0  0  0  0  0
  -63.3029   39.3490  -22.1235 C   0  0  0  0  0  0  0  0  0  0  0  0
  -63.8707   40.1746  -23.2622 C   0  0  0  0  0  0  0  0  0  0  0  0
  -63.4316   41.4196  -25.4089 C   0  0  0  0  0  0  0  0  0  0  0  0
  -63.4674   40.5774  -26.6752 C   0  0  0  0  0  0  0  0  0  0  0  0
  -64.3492   39.0144  -21.1821 N   0  0  0  0  0  0  0  0  0  0  0  0
  -62.9643   40.6152  -24.2958 N   0  0  0  0  0  0  0  0  0  0  0  0
  -64.1075   41.9078  -19.4316 O   0  0  0  0  0  0  0  0  0  0  0  0
  -65.0376   40.4229  -23.3066 O   0  0  0  0  0  0  0  0  0  0  0  0
  -62.4622   41.0197  -27.5422 O   0  0  0  0  0  0  0  0  0  0  0  0
  -65.5136   40.9731  -20.6106 H   0  0  0  0  0  0  0  0  0  0  0  0
  -65.6173   40.6138  -18.8675 H   0  0  0  0  0  0  0  0  0  0  0  0
  -62.9561   39.9145  -19.9028 H   0  0  0  0  0  0  0  0  0  0  0  0
  -64.1376   38.8600  -19.0937 H   0  0  0  0  0  0  0  0  0  0  0  0
  -62.8671   38.4233  -22.5273 H   0  0  0  0  0  0  0  0  0  0  0  0
  -62.5273   39.9335  -21.6069 H   0  0  0  0  0  0  0  0  0  0  0  0
  -62.7502   42.2706  -25.5556 H   0  0  0  0  0  0  0  0  0  0  0  0
  -64.4444   41.7888  -25.1898 H   0  0  0  0  0  0  0  0  0  0  0  0
  -63.2972   39.5208  -26.4209 H   0  0  0  0  0  0  0  0  0  0  0  0
  -64.4492   40.6767  -27.1613 H   0  0  0  0  0  0  0  0  0  0  0  0
  -64.4236   37.9909  -21.0929 H   0  0  0  0  0  0  0  0  0  0  0  0
  -65.2535   39.3830  -21.5095 H   0  0  0  0  0  0  0  0  0  0  0  0
  -61.9694   40.3540  -24.2422 H   0  0  0  0  0  0  0  0  0  0  0  0
  -64.0218   42.0250  -18.4523 H   0  0  0  0  0  0  0  0  0  0  0  0
  -61.6958   41.3569  -27.0140 H   0  0  0  0  0  0  0  0  0  0  0  0
  1  2  1  0
  1  9  1  0
  2  7  1  0
  3  4  1  0
  3  7  1  0
  4  8  1  0
  4 10  2  0
  5  6  1  0
  5  8  1  0
  6 11  1  0
  1 12  1  0
  1 13  1  0
  2 14  1  0
  2 15  1  0
  3 16  1  0
  3 17  1  0
  5 18  1  0
  5 19  1  0
  6 20  1  0
  6 21  1  0
  7 22  1  0
  7 23  1  0
  8 24  1  0
  9 25  1  0
 11 26  1  0
M  CHG  1   7   1
M  END
>  <filename_input>  (17) 
7KZ9_XN7_docked.sdf

>  <pdb_id>  (17) 
7KZ9_XN7

>  <pose_rank>  (17) 
16

>  <num_atoms_heavy>  (17) 
11

>  <num_torsions>  (17) 
6

>  <pose>  (17) 
[-63.870695731767725, 40.17457921438759, -23.26218657064465, 1.3547415004963659, 3.2557551508702285, 1.5586700921013639, 30.835206279031272, 32.586711340930385, -55.93245062923294, 18.448989062612764, -13.017105629655642, -0.8311527676935494]

>  <energy>  (17) 
-128.42283111250103

>  <inter_energy>  (17) 
-110.83164879907252

>  <intra_energy>  (17) 
0.03717052269945527

>  <rmsd>  (17) 
13.1576

>  <sdf_rank>  (17) 
0

$$$$

     RDKit          3D

 26 25  0  0  0  0  0  0  0  0999 V2000
  -59.8293   49.3376  -27.0859 C   0  0  0  0  0  0  0  0  0  0  0  0
  -60.4395   48.3382  -26.1125 C   0  0  0  0  0  0  0  0  0  0  0  0
  -61.9827   50.0983  -26.1887 C   0  0  0  0  0  0  0  0  0  0  0  0
  -62.4860   51.2412  -25.3278 C   0  0  0  0  0  0  0  0  0  0  0  0
  -62.2780   53.6694  -24.6859 C   0  0  0  0  0  0  0  0  0  0  0  0
  -61.9000   54.9627  -25.3921 C   0  0  0  0  0  0  0  0  0  0  0  0
  -61.4435   49.0471  -25.3539 N   0  0  0  0  0  0  0  0  0  0  0  0
  -61.8598   52.5325  -25.4840 N   0  0  0  0  0  0  0  0  0  0  0  0
  -58.8017   48.6789  -27.7834 O   0  0  0  0  0  0  0  0  0  0  0  0
  -63.3912   51.0734  -24.5677 O   0  0  0  0  0  0  0  0  0  0  0  0
  -60.5211   54.9631  -25.6293 O   0  0  0  0  0  0  0  0  0  0  0  0
  -60.5959   49.6895  -27.7918 H   0  0  0  0  0  0  0  0  0  0  0  0
  -59.4319   50.2095  -26.5456 H   0  0  0  0  0  0  0  0  0  0  0  0
  -60.9008   47.5062  -26.6649 H   0  0  0  0  0  0  0  0  0  0  0  0
  -59.6703   47.9170  -25.4485 H   0  0  0  0  0  0  0  0  0  0  0  0
  -62.8157   49.6980  -26.7852 H   0  0  0  0  0  0  0  0  0  0  0  0
  -61.1906   50.4711  -26.8547 H   0  0  0  0  0  0  0  0  0  0  0  0
  -61.7807   53.6299  -23.7055 H   0  0  0  0  0  0  0  0  0  0  0  0
  -63.3691   53.6356  -24.5500 H   0  0  0  0  0  0  0  0  0  0  0  0
  -62.4392   55.0326  -26.3483 H   0  0  0  0  0  0  0  0  0  0  0  0
  -62.1701   55.8236  -24.7629 H   0  0  0  0  0  0  0  0  0  0  0  0
  -62.1958   48.3989  -25.0801 H   0  0  0  0  0  0  0  0  0  0  0  0
  -61.0277   49.4481  -24.5011 H   0  0  0  0  0  0  0  0  0  0  0  0
  -61.1035   52.6485  -26.1736 H   0  0  0  0  0  0  0  0  0  0  0  0
  -58.1706   48.2744  -27.1367 H   0  0  0  0  0  0  0  0  0  0  0  0
  -60.0376   54.9632  -24.7654 H   0  0  0  0  0  0  0  0  0  0  0  0
  1  2  1  0
  1  9  1  0
  2  7  1  0
  3  4  1  0
  3  7  1  0
  4  8  1  0
  4 10  2  0
  5  6  1  0
  5  8  1  0
  6 11  1  0
  1 12  1  0
  1 13  1  0
  2 14  1  0
  2 15  1  0
  3 16  1  0
  3 17  1  0
  5 18  1  0
  5 19  1  0
  6 20  1  0
  6 21  1  0
  7 22  1  0
  7 23  1  0
  8 24  1  0
  9 25  1  0
 11 26  1  0
M  CHG  1   7   1
M  END
>  <filename_input>  (18) 
7KZ9_XN7_docked.sdf

>  <pdb_id>  (18) 
7KZ9_XN7

>  <pose_rank>  (18) 
17

>  <num_atoms_heavy>  (18) 
11

>  <num_torsions>  (18) 
6

>  <pose>  (18) 
[-62.48602380692631, 51.24120169901468, -25.32782076242497, -0.41037642203935054, -0.5546643760857186, -1.5908064851144355, -1.651005495540346, 0.5798900978114268, -0.7087228925585949, -1.3962204236996218, -1.327073164430634, 0.10309723715177047]

>  <energy>  (18) 
-126.97129659132663

>  <inter_energy>  (18) 
-123.11938678453456

>  <intra_energy>  (18) 
0.2366236430206901

>  <rmsd>  (18) 
10.8356

>  <sdf_rank>  (18) 
0

$$$$

     RDKit          3D

 26 25  0  0  0  0  0  0  0  0999 V2000
  -61.4656   56.2935  -27.3443 C   0  0  0  0  0  0  0  0  0  0  0  0
  -61.2671   54.7911  -27.4934 C   0  0  0  0  0  0  0  0  0  0  0  0
  -61.5360   53.3400  -25.6748 C   0  0  0  0  0  0  0  0  0  0  0  0
  -62.2466   52.0133  -25.4870 C   0  0  0  0  0  0  0  0  0  0  0  0
  -63.2228   49.9545  -26.5640 C   0  0  0  0  0  0  0  0  0  0  0  0
  -62.2093   48.8280  -26.4299 C   0  0  0  0  0  0  0  0  0  0  0  0
  -62.2427   54.1500  -26.6430 N   0  0  0  0  0  0  0  0  0  0  0  0
  -62.5338   51.2272  -26.6634 N   0  0  0  0  0  0  0  0  0  0  0  0
  -60.4338   56.7793  -26.5222 O   0  0  0  0  0  0  0  0  0  0  0  0
  -62.5302   51.6279  -24.3932 O   0  0  0  0  0  0  0  0  0  0  0  0
  -62.2535   48.0388  -27.5844 O   0  0  0  0  0  0  0  0  0  0  0  0
  -61.4186   56.7777  -28.3308 H   0  0  0  0  0  0  0  0  0  0  0  0
  -62.4481   56.5109  -26.9000 H   0  0  0  0  0  0  0  0  0  0  0  0
  -61.4233   54.4915  -28.5402 H   0  0  0  0  0  0  0  0  0  0  0  0
  -60.2455   54.4998  -27.2079 H   0  0  0  0  0  0  0  0  0  0  0  0
  -61.4991   53.8723  -24.7129 H   0  0  0  0  0  0  0  0  0  0  0  0
  -60.5149   53.1531  -26.0386 H   0  0  0  0  0  0  0  0  0  0  0  0
  -63.8279   49.7954  -27.4688 H   0  0  0  0  0  0  0  0  0  0  0  0
  -63.8751   49.9632  -25.6783 H   0  0  0  0  0  0  0  0  0  0  0  0
  -61.2009   49.2509  -26.3101 H   0  0  0  0  0  0  0  0  0  0  0  0
  -62.4488   48.2140  -25.5492 H   0  0  0  0  0  0  0  0  0  0  0  0
  -62.8042   54.8637  -26.1570 H   0  0  0  0  0  0  0  0  0  0  0  0
  -62.8735   53.5618  -27.2060 H   0  0  0  0  0  0  0  0  0  0  0  0
  -62.2447   51.5758  -27.5885 H   0  0  0  0  0  0  0  0  0  0  0  0
  -60.6854   56.6608  -25.5721 H   0  0  0  0  0  0  0  0  0  0  0  0
  -62.3071   47.0837  -27.3294 H   0  0  0  0  0  0  0  0  0  0  0  0
  1  2  1  0
  1  9  1  0
  2  7  1  0
  3  4  1  0
  3  7  1  0
  4  8  1  0
  4 10  2  0
  5  6  1  0
  5  8  1  0
  6 11  1  0
  1 12  1  0
  1 13  1  0
  2 14  1  0
  2 15  1  0
  3 16  1  0
  3 17  1  0
  5 18  1  0
  5 19  1  0
  6 20  1  0
  6 21  1  0
  7 22  1  0
  7 23  1  0
  8 24  1  0
  9 25  1  0
 11 26  1  0
M  CHG  1   7   1
M  END
>  <filename_input>  (19) 
7KZ9_XN7_docked.sdf

>  <pdb_id>  (19) 
7KZ9_XN7

>  <pose_rank>  (19) 
18

>  <num_atoms_heavy>  (19) 
11

>  <num_torsions>  (19) 
6

>  <pose>  (19) 
[-62.24663119258266, 52.01327721779487, -25.487038748342105, 0.1752808668380247, 3.489477593353638, -2.5681774190424878, 3.498121673175863, 0.8204501544585255, -3.3305305783301833, 3.608365708940155, -0.18133112058809012, -0.8723133991638117]

>  <energy>  (19) 
-126.9261444474845

>  <inter_energy>  (19) 
-116.62880671132967

>  <intra_energy>  (19) 
0.45284751807120605

>  <rmsd>  (19) 
11.9238

>  <sdf_rank>  (19) 
0

$$$$

     RDKit          3D

 26 25  0  0  0  0  0  0  0  0999 V2000
  -48.6416   57.2944  -19.5255 C   0  0  0  0  0  0  0  0  0  0  0  0
  -48.5681   56.7402  -20.9419 C   0  0  0  0  0  0  0  0  0  0  0  0
  -49.9701   55.2163  -22.0361 C   0  0  0  0  0  0  0  0  0  0  0  0
  -49.6999   55.3857  -23.5190 C   0  0  0  0  0  0  0  0  0  0  0  0
  -48.8852   54.3421  -25.6633 C   0  0  0  0  0  0  0  0  0  0  0  0
  -49.9725   53.6405  -26.4632 C   0  0  0  0  0  0  0  0  0  0  0  0
  -49.9258   56.5010  -21.3726 N   0  0  0  0  0  0  0  0  0  0  0  0
  -49.1810   54.2517  -24.2460 N   0  0  0  0  0  0  0  0  0  0  0  0
  -50.0005   57.4186  -19.1873 O   0  0  0  0  0  0  0  0  0  0  0  0
  -49.9389   56.4210  -24.0634 O   0  0  0  0  0  0  0  0  0  0  0  0
  -50.0546   52.3080  -26.0448 O   0  0  0  0  0  0  0  0  0  0  0  0
  -48.1428   56.6062  -18.8272 H   0  0  0  0  0  0  0  0  0  0  0  0
  -48.1381   58.2705  -19.4661 H   0  0  0  0  0  0  0  0  0  0  0  0
  -48.0833   57.4691  -21.6081 H   0  0  0  0  0  0  0  0  0  0  0  0
  -47.9779   55.8124  -20.9704 H   0  0  0  0  0  0  0  0  0  0  0  0
  -50.9652   54.7688  -21.8964 H   0  0  0  0  0  0  0  0  0  0  0  0
  -49.2006   54.5605  -21.6026 H   0  0  0  0  0  0  0  0  0  0  0  0
  -47.9162   53.8622  -25.8653 H   0  0  0  0  0  0  0  0  0  0  0  0
  -48.8435   55.4009  -25.9585 H   0  0  0  0  0  0  0  0  0  0  0  0
  -50.9372   54.1410  -26.2932 H   0  0  0  0  0  0  0  0  0  0  0  0
  -49.7307   53.6802  -27.5356 H   0  0  0  0  0  0  0  0  0  0  0  0
  -50.5543   56.4938  -20.5566 H   0  0  0  0  0  0  0  0  0  0  0  0
  -50.2309   57.2447  -22.0167 H   0  0  0  0  0  0  0  0  0  0  0  0
  -49.0181   53.3636  -23.7502 H   0  0  0  0  0  0  0  0  0  0  0  0
  -50.0958   57.4273  -18.2020 H   0  0  0  0  0  0  0  0  0  0  0  0
  -50.0567   52.2723  -25.0554 H   0  0  0  0  0  0  0  0  0  0  0  0
  1  2  1  0
  1  9  1  0
  2  7  1  0
  3  4  1  0
  3  7  1  0
  4  8  1  0
  4 10  2  0
  5  6  1  0
  5  8  1  0
  6 11  1  0
  1 12  1  0
  1 13  1  0
  2 14  1  0
  2 15  1  0
  3 16  1  0
  3 17  1  0
  5 18  1  0
  5 19  1  0
  6 20  1  0
  6 21  1  0
  7 22  1  0
  7 23  1  0
  8 24  1  0
  9 25  1  0
 11 26  1  0
M  CHG  1   7   1
M  END
>  <filename_input>  (20) 
7KZ9_XN7_docked.sdf

>  <pdb_id>  (20) 
7KZ9_XN7

>  <pose_rank>  (20) 
19

>  <num_atoms_heavy>  (20) 
11

>  <num_torsions>  (20) 
6

>  <pose>  (20) 
[-49.699945679583955, 55.385746259347066, -23.518951139214057, 2.3462300097220634, 1.6963493022153908, 0.9136555323154235, -7.275073562564538, -4.610520903937145, -3.6090959510276317, 1.7557468938953538, 43.585811427464215, 0.08480324175112099]

>  <energy>  (20) 
-126.27504796280583

>  <inter_energy>  (20) 
-103.000566405464

>  <intra_energy>  (20) 
0.9286249331424202

>  <rmsd>  (20) 
11.9575

>  <sdf_rank>  (20) 
0

$$$$

     RDKit          3D

 26 25  0  0  0  0  0  0  0  0999 V2000
  -59.8146   41.5451  -27.7644 C   0  0  0  0  0  0  0  0  0  0  0  0
  -58.2952   41.6444  -27.7753 C   0  0  0  0  0  0  0  0  0  0  0  0
  -56.6259   40.4075  -26.6941 C   0  0  0  0  0  0  0  0  0  0  0  0
  -55.4310   41.1473  -26.1236 C   0  0  0  0  0  0  0  0  0  0  0  0
  -52.9288   41.4471  -26.1039 C   0  0  0  0  0  0  0  0  0  0  0  0
  -52.5580   42.6161  -27.0041 C   0  0  0  0  0  0  0  0  0  0  0  0
  -57.8326   41.1787  -26.4888 N   0  0  0  0  0  0  0  0  0  0  0  0
  -54.1196   40.7929  -26.6123 N   0  0  0  0  0  0  0  0  0  0  0  0
  -60.2153   41.2978  -26.4398 O   0  0  0  0  0  0  0  0  0  0  0  0
  -55.5842   42.0133  -25.3162 O   0  0  0  0  0  0  0  0  0  0  0  0
  -51.9183   43.5947  -26.2355 O   0  0  0  0  0  0  0  0  0  0  0  0
  -60.2547   42.4887  -28.1194 H   0  0  0  0  0  0  0  0  0  0  0  0
  -60.1535   40.7358  -28.4279 H   0  0  0  0  0  0  0  0  0  0  0  0
  -57.8811   41.0144  -28.5764 H   0  0  0  0  0  0  0  0  0  0  0  0
  -57.9707   42.6794  -27.9582 H   0  0  0  0  0  0  0  0  0  0  0  0
  -56.4748   40.2486  -27.7720 H   0  0  0  0  0  0  0  0  0  0  0  0
  -56.7268   39.4385  -26.1833 H   0  0  0  0  0  0  0  0  0  0  0  0
  -52.0981   40.7264  -26.0808 H   0  0  0  0  0  0  0  0  0  0  0  0
  -53.1252   41.8196  -25.0877 H   0  0  0  0  0  0  0  0  0  0  0  0
  -51.8810   42.2699  -27.7990 H   0  0  0  0  0  0  0  0  0  0  0  0
  -53.4656   43.0363  -27.4622 H   0  0  0  0  0  0  0  0  0  0  0  0
  -57.6322   41.9836  -25.8781 H   0  0  0  0  0  0  0  0  0  0  0  0
  -58.5546   40.5969  -26.0404 H   0  0  0  0  0  0  0  0  0  0  0  0
  -54.0280   40.0636  -27.3337 H   0  0  0  0  0  0  0  0  0  0  0  0
  -59.5610   41.7017  -25.8163 H   0  0  0  0  0  0  0  0  0  0  0  0
  -52.0480   43.3963  -25.2743 H   0  0  0  0  0  0  0  0  0  0  0  0
  1  2  1  0
  1  9  1  0
  2  7  1  0
  3  4  1  0
  3  7  1  0
  4  8  1  0
  4 10  2  0
  5  6  1  0
  5  8  1  0
  6 11  1  0
  1 12  1  0
  1 13  1  0
  2 14  1  0
  2 15  1  0
  3 16  1  0
  3 17  1  0
  5 18  1  0
  5 19  1  0
  6 20  1  0
  6 21  1  0
  7 22  1  0
  7 23  1  0
  8 24  1  0
  9 25  1  0
 11 26  1  0
M  CHG  1   7   1
M  END
>  <filename_input>  (21) 
7KZ9_XN7_docked.sdf

>  <pdb_id>  (21) 
7KZ9_XN7

>  <pose_rank>  (21) 
20

>  <num_atoms_heavy>  (21) 
11

>  <num_torsions>  (21) 
6

>  <pose>  (21) 
[-55.431012700458226, 41.147318205158015, -26.123644799351283, -1.2364437825068741, -0.22879763698285882, -2.7309401008650007, -0.20615751505052654, -1.1009560535799026, 1.2331386076648783, 1.99882175032004, -0.22387014411782966, 3.7186019644672204]

>  <energy>  (21) 
-124.88372152931555

>  <inter_energy>  (21) 
-119.49818160371922

>  <intra_energy>  (21) 
0.20620387724888045

>  <rmsd>  (21) 
11.6301

>  <sdf_rank>  (21) 
0

$$$$

     RDKit          3D

 26 25  0  0  0  0  0  0  0  0999 V2000
  -57.7285   38.7555  -27.9157 C   0  0  0  0  0  0  0  0  0  0  0  0
  -59.0295   39.3398  -27.3822 C   0  0  0  0  0  0  0  0  0  0  0  0
  -60.7294   38.7401  -25.8869 C   0  0  0  0  0  0  0  0  0  0  0  0
  -61.0189   38.5427  -24.4111 C   0  0  0  0  0  0  0  0  0  0  0  0
  -62.4677   39.1262  -22.4333 C   0  0  0  0  0  0  0  0  0  0  0  0
  -62.6381   40.5060  -21.8156 C   0  0  0  0  0  0  0  0  0  0  0  0
  -59.3038   38.6819  -26.1260 N   0  0  0  0  0  0  0  0  0  0  0  0
  -62.1377   39.2542  -23.8401 N   0  0  0  0  0  0  0  0  0  0  0  0
  -56.7090   39.6915  -27.6689 O   0  0  0  0  0  0  0  0  0  0  0  0
  -60.3526   37.7981  -23.7578 O   0  0  0  0  0  0  0  0  0  0  0  0
  -63.8604   40.5505  -21.1363 O   0  0  0  0  0  0  0  0  0  0  0  0
  -57.5026   37.8104  -27.4003 H   0  0  0  0  0  0  0  0  0  0  0  0
  -57.8109   38.5494  -28.9931 H   0  0  0  0  0  0  0  0  0  0  0  0
  -58.9209   40.4232  -27.2255 H   0  0  0  0  0  0  0  0  0  0  0  0
  -59.8520   39.1829  -28.0955 H   0  0  0  0  0  0  0  0  0  0  0  0
  -61.2278   37.9478  -26.4646 H   0  0  0  0  0  0  0  0  0  0  0  0
  -61.1069   39.7250  -26.1992 H   0  0  0  0  0  0  0  0  0  0  0  0
  -61.6575   38.5920  -21.9155 H   0  0  0  0  0  0  0  0  0  0  0  0
  -63.4076   38.5641  -22.3307 H   0  0  0  0  0  0  0  0  0  0  0  0
  -61.8164   40.6989  -21.1102 H   0  0  0  0  0  0  0  0  0  0  0  0
  -62.6221   41.2722  -22.6047 H   0  0  0  0  0  0  0  0  0  0  0  0
  -58.9980   37.6995  -26.1729 H   0  0  0  0  0  0  0  0  0  0  0  0
  -58.7956   39.1489  -25.3615 H   0  0  0  0  0  0  0  0  0  0  0  0
  -62.7112   39.8627  -24.4415 H   0  0  0  0  0  0  0  0  0  0  0  0
  -56.5904   39.8004  -26.6921 H   0  0  0  0  0  0  0  0  0  0  0  0
  -63.6959   40.5445  -20.1601 H   0  0  0  0  0  0  0  0  0  0  0  0
  1  2  1  0
  1  9  1  0
  2  7  1  0
  3  4  1  0
  3  7  1  0
  4  8  1  0
  4 10  2  0
  5  6  1  0
  5  8  1  0
  6 11  1  0
  1 12  1  0
  1 13  1  0
  2 14  1  0
  2 15  1  0
  3 16  1  0
  3 17  1  0
  5 18  1  0
  5 19  1  0
  6 20  1  0
  6 21  1  0
  7 22  1  0
  7 23  1  0
  8 24  1  0
  9 25  1  0
 11 26  1  0
M  CHG  1   7   1
M  END
>  <filename_input>  (22) 
7KZ9_XN7_docked.sdf

>  <pdb_id>  (22) 
7KZ9_XN7

>  <pose_rank>  (22) 
21

>  <num_atoms_heavy>  (22) 
11

>  <num_torsions>  (22) 
6

>  <pose>  (22) 
[-61.01892621579187, 38.54268486551693, -24.411147803029017, 5.163117079556006, -2.6948460173918174, 1.7679196522297873, -1.1624360062164225, 0.4614311155212762, -3.9368076099673166, 0.005909596670456618, -2.5931207520181485, -2.941570304006956]

>  <energy>  (22) 
-124.26650237136079

>  <inter_energy>  (22) 
-105.33260684189698

>  <intra_energy>  (22) 
0.0

>  <rmsd>  (22) 
12.0376

>  <sdf_rank>  (22) 
0

$$$$

     RDKit          3D

 26 25  0  0  0  0  0  0  0  0999 V2000
  -65.0137   53.7480  -19.2407 C   0  0  0  0  0  0  0  0  0  0  0  0
  -64.1729   53.8108  -17.9727 C   0  0  0  0  0  0  0  0  0  0  0  0
  -61.9687   54.5495  -17.6879 C   0  0  0  0  0  0  0  0  0  0  0  0
  -61.2056   55.3781  -18.7036 C   0  0  0  0  0  0  0  0  0  0  0  0
  -61.0241   56.1808  -21.0856 C   0  0  0  0  0  0  0  0  0  0  0  0
  -61.9258   57.2990  -21.5866 C   0  0  0  0  0  0  0  0  0  0  0  0
  -62.8019   53.5788  -18.3634 N   0  0  0  0  0  0  0  0  0  0  0  0
  -61.7079   55.4210  -20.0563 N   0  0  0  0  0  0  0  0  0  0  0  0
  -64.3952   52.8390  -20.1166 O   0  0  0  0  0  0  0  0  0  0  0  0
  -60.2364   55.9940  -18.3770 O   0  0  0  0  0  0  0  0  0  0  0  0
  -61.6999   57.4846  -22.9549 O   0  0  0  0  0  0  0  0  0  0  0  0
  -66.0304   53.4041  -18.9998 H   0  0  0  0  0  0  0  0  0  0  0  0
  -65.0872   54.7426  -19.7049 H   0  0  0  0  0  0  0  0  0  0  0  0
  -64.2697   54.8012  -17.5038 H   0  0  0  0  0  0  0  0  0  0  0  0
  -64.5060   53.0580  -17.2430 H   0  0  0  0  0  0  0  0  0  0  0  0
  -61.2546   54.0251  -17.0360 H   0  0  0  0  0  0  0  0  0  0  0  0
  -62.6059   55.2146  -17.0866 H   0  0  0  0  0  0  0  0  0  0  0  0
  -60.7695   55.5144  -21.9229 H   0  0  0  0  0  0  0  0  0  0  0  0
  -60.1055   56.6162  -20.6654 H   0  0  0  0  0  0  0  0  0  0  0  0
  -62.9785   57.0273  -21.4197 H   0  0  0  0  0  0  0  0  0  0  0  0
  -61.7037   58.2289  -21.0426 H   0  0  0  0  0  0  0  0  0  0  0  0
  -62.5183   52.6266  -18.0915 H   0  0  0  0  0  0  0  0  0  0  0  0
  -62.7021   53.6733  -19.3842 H   0  0  0  0  0  0  0  0  0  0  0  0
  -62.5661   54.9036  -20.2946 H   0  0  0  0  0  0  0  0  0  0  0  0
  -63.9228   52.1447  -19.5922 H   0  0  0  0  0  0  0  0  0  0  0  0
  -60.9413   58.1078  -23.0825 H   0  0  0  0  0  0  0  0  0  0  0  0
  1  2  1  0
  1  9  1  0
  2  7  1  0
  3  4  1  0
  3  7  1  0
  4  8  1  0
  4 10  2  0
  5  6  1  0
  5  8  1  0
  6 11  1  0
  1 12  1  0
  1 13  1  0
  2 14  1  0
  2 15  1  0
  3 16  1  0
  3 17  1  0
  5 18  1  0
  5 19  1  0
  6 20  1  0
  6 21  1  0
  7 22  1  0
  7 23  1  0
  8 24  1  0
  9 25  1  0
 11 26  1  0
M  CHG  1   7   1
M  END
>  <filename_input>  (23) 
7KZ9_XN7_docked.sdf

>  <pdb_id>  (23) 
7KZ9_XN7

>  <pose_rank>  (23) 
22

>  <num_atoms_heavy>  (23) 
11

>  <num_torsions>  (23) 
6

>  <pose>  (23) 
[-61.2055701824637, 55.378116483214455, -18.703604822042998, -2.5909716653547843, 0.3809262925206573, -1.0443916966547342, -3.3600448232233315, 1.124138421161762, 1.1275417136852313, 2.3448358075576055, -0.6173530411519804, -1.4370747277172355]

>  <energy>  (23) 
-122.84161337823387

>  <inter_energy>  (23) 
-118.4009275587888

>  <intra_energy>  (23) 
0.25940922943595485

>  <rmsd>  (23) 
11.2035

>  <sdf_rank>  (23) 
0

$$$$

     RDKit          3D

 26 25  0  0  0  0  0  0  0  0999 V2000
  -59.7252   56.0790  -18.6760 C   0  0  0  0  0  0  0  0  0  0  0  0
  -60.1801   56.0323  -20.1285 C   0  0  0  0  0  0  0  0  0  0  0  0
  -62.3526   56.0125  -21.0032 C   0  0  0  0  0  0  0  0  0  0  0  0
  -62.8793   54.8369  -20.2026 C   0  0  0  0  0  0  0  0  0  0  0  0
  -63.5972   53.9463  -17.9569 C   0  0  0  0  0  0  0  0  0  0  0  0
  -65.1166   53.9899  -17.8945 C   0  0  0  0  0  0  0  0  0  0  0  0
  -61.4158   56.7759  -20.2079 N   0  0  0  0  0  0  0  0  0  0  0  0
  -63.1076   55.0283  -18.7900 N   0  0  0  0  0  0  0  0  0  0  0  0
  -60.0648   57.3436  -18.1644 O   0  0  0  0  0  0  0  0  0  0  0  0
  -63.1203   53.7982  -20.7395 O   0  0  0  0  0  0  0  0  0  0  0  0
  -65.6015   52.6859  -17.7462 O   0  0  0  0  0  0  0  0  0  0  0  0
  -60.2328   55.2922  -18.0987 H   0  0  0  0  0  0  0  0  0  0  0  0
  -58.6402   55.9126  -18.6056 H   0  0  0  0  0  0  0  0  0  0  0  0
  -59.4201   56.4922  -20.7773 H   0  0  0  0  0  0  0  0  0  0  0  0
  -60.3245   54.9940  -20.4615 H   0  0  0  0  0  0  0  0  0  0  0  0
  -61.8452   55.6401  -21.9053 H   0  0  0  0  0  0  0  0  0  0  0  0
  -63.1947   56.6604  -21.2878 H   0  0  0  0  0  0  0  0  0  0  0  0
  -63.1869   54.0529  -16.9419 H   0  0  0  0  0  0  0  0  0  0  0  0
  -63.2791   52.9850  -18.3866 H   0  0  0  0  0  0  0  0  0  0  0  0
  -65.4336   54.6015  -17.0369 H   0  0  0  0  0  0  0  0  0  0  0  0
  -65.5151   54.4329  -18.8192 H   0  0  0  0  0  0  0  0  0  0  0  0
  -61.7975   56.9198  -19.2622 H   0  0  0  0  0  0  0  0  0  0  0  0
  -61.2499   57.6962  -20.6397 H   0  0  0  0  0  0  0  0  0  0  0  0
  -62.9199   55.9484  -18.3667 H   0  0  0  0  0  0  0  0  0  0  0  0
  -60.0564   57.3123  -17.1749 H   0  0  0  0  0  0  0  0  0  0  0  0
  -65.6814   52.4711  -16.7831 H   0  0  0  0  0  0  0  0  0  0  0  0
  1  2  1  0
  1  9  1  0
  2  7  1  0
  3  4  1  0
  3  7  1  0
  4  8  1  0
  4 10  2  0
  5  6  1  0
  5  8  1  0
  6 11  1  0
  1 12  1  0
  1 13  1  0
  2 14  1  0
  2 15  1  0
  3 16  1  0
  3 17  1  0
  5 18  1  0
  5 19  1  0
  6 20  1  0
  6 21  1  0
  7 22  1  0
  7 23  1  0
  8 24  1  0
  9 25  1  0
 11 26  1  0
M  CHG  1   7   1
M  END
>  <filename_input>  (24) 
7KZ9_XN7_docked.sdf

>  <pdb_id>  (24) 
7KZ9_XN7

>  <pose_rank>  (24) 
23

>  <num_atoms_heavy>  (24) 
11

>  <num_torsions>  (24) 
6

>  <pose>  (24) 
[-62.87928281401895, 54.83686388801737, -20.202553170482073, -3.3511065076040514, -1.9254828860805917, 3.0857126273992113, -3.0730335345333084, -1.7416175244127494, 2.696734047887399, 1.1708430116094144, -0.1852122513167475, -2.587372854673095]

>  <energy>  (24) 
-122.71518440585612

>  <inter_energy>  (24) 
-122.51664560571982

>  <intra_energy>  (24) 
4.590626374095818

>  <rmsd>  (24) 
10.3823

>  <sdf_rank>  (24) 
0

$$$$

     RDKit          3D

 26 25  0  0  0  0  0  0  0  0999 V2000
  -50.1939   55.4243  -12.7320 C   0  0  0  0  0  0  0  0  0  0  0  0
  -49.8145   54.0576  -12.1781 C   0  0  0  0  0  0  0  0  0  0  0  0
  -50.7199   51.9490  -11.7093 C   0  0  0  0  0  0  0  0  0  0  0  0
  -51.1687   51.5425  -10.3187 C   0  0  0  0  0  0  0  0  0  0  0  0
  -52.8716   51.7920   -8.4777 C   0  0  0  0  0  0  0  0  0  0  0  0
  -53.7452   52.9209   -7.9517 C   0  0  0  0  0  0  0  0  0  0  0  0
  -51.0458   53.3376  -11.9509 N   0  0  0  0  0  0  0  0  0  0  0  0
  -52.3867   52.1222   -9.8045 N   0  0  0  0  0  0  0  0  0  0  0  0
  -49.6153   55.5418  -14.0079 O   0  0  0  0  0  0  0  0  0  0  0  0
  -50.5411   50.7458   -9.6888 O   0  0  0  0  0  0  0  0  0  0  0  0
  -53.0057   54.1086   -7.9621 O   0  0  0  0  0  0  0  0  0  0  0  0
  -51.2881   55.5079  -12.8074 H   0  0  0  0  0  0  0  0  0  0  0  0
  -49.8320   56.2238  -12.0688 H   0  0  0  0  0  0  0  0  0  0  0  0
  -49.1888   53.5165  -12.9032 H   0  0  0  0  0  0  0  0  0  0  0  0
  -49.2403   54.1576  -11.2453 H   0  0  0  0  0  0  0  0  0  0  0  0
  -49.6320   51.8104  -11.7955 H   0  0  0  0  0  0  0  0  0  0  0  0
  -51.2370   51.3234  -12.4517 H   0  0  0  0  0  0  0  0  0  0  0  0
  -52.0159   51.6474   -7.8018 H   0  0  0  0  0  0  0  0  0  0  0  0
  -53.4651   50.8671   -8.5280 H   0  0  0  0  0  0  0  0  0  0  0  0
  -54.6313   53.0320   -8.5940 H   0  0  0  0  0  0  0  0  0  0  0  0
  -54.0707   52.6934   -6.9259 H   0  0  0  0  0  0  0  0  0  0  0  0
  -51.5325   53.7291  -11.1318 H   0  0  0  0  0  0  0  0  0  0  0  0
  -51.6629   53.4206  -12.7714 H   0  0  0  0  0  0  0  0  0  0  0  0
  -52.9203   52.7811  -10.3893 H   0  0  0  0  0  0  0  0  0  0  0  0
  -48.6493   55.7379  -13.9154 H   0  0  0  0  0  0  0  0  0  0  0  0
  -52.8277   54.3946   -7.0312 H   0  0  0  0  0  0  0  0  0  0  0  0
  1  2  1  0
  1  9  1  0
  2  7  1  0
  3  4  1  0
  3  7  1  0
  4  8  1  0
  4 10  2  0
  5  6  1  0
  5  8  1  0
  6 11  1  0
  1 12  1  0
  1 13  1  0
  2 14  1  0
  2 15  1  0
  3 16  1  0
  3 17  1  0
  5 18  1  0
  5 19  1  0
  6 20  1  0
  6 21  1  0
  7 22  1  0
  7 23  1  0
  8 24  1  0
  9 25  1  0
 11 26  1  0
M  CHG  1   7   1
M  END
>  <filename_input>  (25) 
7KZ9_XN7_docked.sdf

>  <pdb_id>  (25) 
7KZ9_XN7

>  <pose_rank>  (25) 
24

>  <num_atoms_heavy>  (25) 
11

>  <num_torsions>  (25) 
6

>  <pose>  (25) 
[-51.168693985803195, 51.54249139172993, -10.318691598041662, 4.201934171628495, 4.4104912020264795, 1.3247942900898646, 3.188292036857616, -0.9773859035057428, 1.6944538030855247, -0.2853570616577508, 4.12517771083318, 0.10230625253172565]

>  <energy>  (25) 
-116.86761157728927

>  <inter_energy>  (25) 
-106.53741489335437

>  <intra_energy>  (25) 
0.0

>  <rmsd>  (25) 
10.2459

>  <sdf_rank>  (25) 
0

$$$$

     RDKit          3D

 26 25  0  0  0  0  0  0  0  0999 V2000
  -53.1160   48.6390  -20.8240 C   0  0  0  0  0  0  0  0  0  0  0  0
  -54.1990   47.5700  -20.8790 C   0  0  0  0  0  0  0  0  0  0  0  0
  -55.1000   48.2130  -18.8150 C   0  0  0  0  0  0  0  0  0  0  0  0
  -55.4960   47.7560  -17.4240 C   0  0  0  0  0  0  0  0  0  0  0  0
  -57.1360   47.9260  -15.5180 C   0  0  0  0  0  0  0  0  0  0  0  0
  -57.8670   46.5930  -15.5740 C   0  0  0  0  0  0  0  0  0  0  0  0
  -54.4360   47.1390  -19.5210 N   0  0  0  0  0  0  0  0  0  0  0  0
  -56.7010   48.3050  -16.8490 N   0  0  0  0  0  0  0  0  0  0  0  0
  -53.7430   49.8880  -20.9760 O   0  0  0  0  0  0  0  0  0  0  0  0
  -54.8390   46.9460  -16.8430 O   0  0  0  0  0  0  0  0  0  0  0  0
  -59.0140   46.7380  -16.3620 O   0  0  0  0  0  0  0  0  0  0  0  0
  -52.5955   48.5960  -19.8559 H   0  0  0  0  0  0  0  0  0  0  0  0
  -52.3750   48.4794  -21.6211 H   0  0  0  0  0  0  0  0  0  0  0  0
  -55.1211   47.9881  -21.3090 H   0  0  0  0  0  0  0  0  0  0  0  0
  -53.8852   46.7253  -21.5099 H   0  0  0  0  0  0  0  0  0  0  0  0
  -56.0015   48.5108  -19.3705 H   0  0  0  0  0  0  0  0  0  0  0  0
  -54.4126   49.0677  -18.7310 H   0  0  0  0  0  0  0  0  0  0  0  0
  -57.8130   48.6972  -15.1218 H   0  0  0  0  0  0  0  0  0  0  0  0
  -56.2577   47.8310  -14.8625 H   0  0  0  0  0  0  0  0  0  0  0  0
  -57.2096   45.8296  -16.0157 H   0  0  0  0  0  0  0  0  0  0  0  0
  -58.1498   46.2800  -14.5581 H   0  0  0  0  0  0  0  0  0  0  0  0
  -55.0334   46.2999  -19.5208 H   0  0  0  0  0  0  0  0  0  0  0  0
  -53.5441   46.9084  -19.0602 H   0  0  0  0  0  0  0  0  0  0  0  0
  -57.2611   48.9769  -17.3928 H   0  0  0  0  0  0  0  0  0  0  0  0
  -53.9355   50.2714  -20.0838 H   0  0  0  0  0  0  0  0  0  0  0  0
  -59.8061   46.8381  -15.7766 H   0  0  0  0  0  0  0  0  0  0  0  0
  1  2  1  0
  1  9  1  0
  2  7  1  0
  3  4  1  0
  3  7  1  0
  4  8  1  0
  4 10  2  0
  5  6  1  0
  5  8  1  0
  6 11  1  0
  1 12  1  0
  1 13  1  0
  2 14  1  0
  2 15  1  0
  3 16  1  0
  3 17  1  0
  5 18  1  0
  5 19  1  0
  6 20  1  0
  6 21  1  0
  7 22  1  0
  7 23  1  0
  8 24  1  0
  9 25  1  0
 11 26  1  0
M  CHG  1   7   1
M  END
>  <filename_input>  (26) 
7KZ9_XN7_docked.sdf

>  <pdb_id>  (26) 
7KZ9_XN7

>  <pose_rank>  (26) 
25

>  <num_atoms_heavy>  (26) 
11

>  <num_torsions>  (26) 
6

>  <pose>  (26) 
[-55.496, 47.756, -17.424, 1e-06, 1e-06, 1e-06, 0.0, 0.0, 0.0, 0.0, 0.0, 0.0]

>  <energy>  (26) 
-494.0828210799009

>  <inter_energy>  (26) 
-508.51520687538476

>  <intra_energy>  (26) 
11.659415733733054

>  <rmsd>  (26) 
0.0

>  <sdf_rank>  (26) 
0

$$$$
