
     RDKit          3D

 41 44  0  0  0  0  0  0  0  0999 V2000
   14.7747   14.9444   37.2463 C   0  0  0  0  0  0  0  0  0  0  0  0
   12.7157   15.0049   35.2491 C   0  0  0  0  0  0  0  0  0  0  0  0
   12.2795   14.9830   33.9341 C   0  0  0  0  0  0  0  0  0  0  0  0
   10.9248   14.8418   33.7062 C   0  0  0  0  0  0  0  0  0  0  0  0
   10.0747   14.7290   34.8136 C   0  0  0  0  0  0  0  0  0  0  0  0
   10.5322   14.7451   36.1482 C   0  0  0  0  0  0  0  0  0  0  0  0
   11.8827   14.8836   36.3651 C   0  0  0  0  0  0  0  0  0  0  0  0
    8.5435   14.6230   33.1845 C   0  0  0  0  0  0  0  0  0  0  0  0
    7.0883   14.2113   31.2544 C   0  0  0  0  0  0  0  0  0  0  0  0
    5.6723   13.9162   30.8224 C   0  0  0  0  0  0  0  0  0  0  0  0
    5.0208   15.1499   30.2576 C   0  0  0  0  0  0  0  0  0  0  0  0
    4.0310   15.9860   30.8458 C   0  0  0  0  0  0  0  0  0  0  0  0
    4.7097   16.7396   28.6204 C   0  0  0  0  0  0  0  0  0  0  0  0
    4.9639   16.6786   26.2068 C   0  0  0  0  0  0  0  0  0  0  0  0
    5.1078   17.6050   25.1975 C   0  0  0  0  0  0  0  0  0  0  0  0
    5.1062   18.8476   25.7691 C   0  0  0  0  0  0  0  0  0  0  0  0
    4.9627   18.6972   27.1294 C   0  0  0  0  0  0  0  0  0  0  0  0
    8.6892   14.5877   34.5302 N   0  0  0  0  0  0  0  0  0  0  0  0
    7.2527   14.4263   32.6602 N   0  0  0  0  0  0  0  0  0  0  0  0
    4.8834   17.3756   27.3518 N   0  0  0  0  0  0  0  0  0  0  0  0
    5.4080   15.6037   28.9460 N   0  0  0  0  0  0  0  0  0  0  0  0
    7.9965   14.2684   30.4949 O   0  0  0  0  0  0  0  0  0  0  0  0
   15.2071   14.1598   34.6879 O   0  0  0  0  0  0  0  0  0  0  0  0
   14.9580   16.4541   34.9977 O   0  0  0  0  0  0  0  0  0  0  0  0
   14.4739   15.1666   35.4839 S   0  0  2  0  0  0  0  0  0  0  0  0
    9.9941   14.7860   32.3322 S   0  0  0  0  0  0  0  0  0  0  0  0
    3.6796   17.1746   29.8155 S   0  0  0  0  0  0  0  0  0  0  0  0
   14.0200   15.5022   37.8202 H   0  0  0  0  0  0  0  0  0  0  0  0
   14.7099   13.8754   37.4973 H   0  0  0  0  0  0  0  0  0  0  0  0
   15.7776   15.3199   37.4973 H   0  0  0  0  0  0  0  0  0  0  0  0
   12.9893   15.0750   33.0988 H   0  0  0  0  0  0  0  0  0  0  0  0
    9.8298   14.6498   36.9894 H   0  0  0  0  0  0  0  0  0  0  0  0
   12.2948   14.8985   37.3849 H   0  0  0  0  0  0  0  0  0  0  0  0
    5.6859   13.1304   30.0528 H   0  0  0  0  0  0  0  0  0  0  0  0
    5.0974   13.5821   31.6987 H   0  0  0  0  0  0  0  0  0  0  0  0
    3.5802   15.8446   31.8392 H   0  0  0  0  0  0  0  0  0  0  0  0
    4.9230   15.5849   26.0967 H   0  0  0  0  0  0  0  0  0  0  0  0
    5.2063   17.3849   24.1242 H   0  0  0  0  0  0  0  0  0  0  0  0
    5.2029   19.8034   25.2333 H   0  0  0  0  0  0  0  0  0  0  0  0
    4.9214   19.4979   27.8825 H   0  0  0  0  0  0  0  0  0  0  0  0
    6.4324   14.4369   33.2830 H   0  0  0  0  0  0  0  0  0  0  0  0
 25  1  1  1
  2  3  2  0
  2  7  1  0
  2 25  1  0
  3  4  1  0
  4  5  2  0
  4 26  1  0
  5  6  1  0
  5 18  1  0
  6  7  2  0
  8 18  2  0
  8 19  1  0
  8 26  1  0
  9 10  1  0
  9 19  1  0
  9 22  2  0
 10 11  1  0
 11 12  2  0
 11 21  1  0
 12 27  1  0
 13 20  1  0
 13 21  2  0
 13 27  1  0
 14 15  2  0
 14 20  1  0
 15 16  1  0
 16 17  2  0
 17 20  1  0
 23 25  2  0
 24 25  2  0
  1 28  1  0
  1 29  1  0
  1 30  1  0
  3 31  1  0
  6 32  1  0
  7 33  1  0
 10 34  1  0
 10 35  1  0
 12 36  1  0
 14 37  1  0
 15 38  1  0
 16 39  1  0
 17 40  1  0
 19 41  1  0
M  END
>  <filename_input>  (1) 
7L00_XCJ_docked.sdf

>  <pdb_id>  (1) 
7L00_XCJ

>  <pose_rank>  (1) 
0

>  <num_atoms_heavy>  (1) 
27

>  <num_torsions>  (1) 
3

>  <pose>  (1) 
[12.715735181237743, 15.00491799990186, 35.24913101948293, -4.828350374920445, -2.6791382608382914, 2.9283750095656464, -2.279536139638812, -0.049209699259679406, 0.08865914698717586]

>  <energy>  (1) 
-840.8751681498957

>  <inter_energy>  (1) 
-822.2782329540759

>  <intra_energy>  (1) 
1.2134522631703228

>  <rmsd>  (1) 
0.803901

>  <sdf_rank>  (1) 
0

$$$$

     RDKit          3D

 41 44  0  0  0  0  0  0  0  0999 V2000
   14.9489   16.1997   34.3540 C   0  0  0  0  0  0  0  0  0  0  0  0
   12.5786   14.8585   35.2563 C   0  0  0  0  0  0  0  0  0  0  0  0
   12.1615   14.8920   33.9353 C   0  0  0  0  0  0  0  0  0  0  0  0
   10.8075   14.7899   33.6837 C   0  0  0  0  0  0  0  0  0  0  0  0
    9.9388   14.6584   34.7745 C   0  0  0  0  0  0  0  0  0  0  0  0
   10.3767   14.6179   36.1151 C   0  0  0  0  0  0  0  0  0  0  0  0
   11.7266   14.7178   36.3556 C   0  0  0  0  0  0  0  0  0  0  0  0
    8.4299   14.6439   33.1213 C   0  0  0  0  0  0  0  0  0  0  0  0
    6.9946   14.3327   31.1578 C   0  0  0  0  0  0  0  0  0  0  0  0
    5.5789   14.0852   30.6960 C   0  0  0  0  0  0  0  0  0  0  0  0
    5.1910   15.0659   29.6220 C   0  0  0  0  0  0  0  0  0  0  0  0
    4.8489   14.8140   28.2640 C   0  0  0  0  0  0  0  0  0  0  0  0
    4.7573   17.1887   28.8412 C   0  0  0  0  0  0  0  0  0  0  0  0
    5.5812   19.3764   29.4963 C   0  0  0  0  0  0  0  0  0  0  0  0
    5.1790   20.6830   29.3270 C   0  0  0  0  0  0  0  0  0  0  0  0
    4.0151   20.6709   28.6086 C   0  0  0  0  0  0  0  0  0  0  0  0
    3.6920   19.3623   28.3315 C   0  0  0  0  0  0  0  0  0  0  0  0
    8.5548   14.5588   34.4668 N   0  0  0  0  0  0  0  0  0  0  0  0
    7.1430   14.4951   32.5725 N   0  0  0  0  0  0  0  0  0  0  0  0
    4.6591   18.6144   28.8862 N   0  0  0  0  0  0  0  0  0  0  0  0
    5.1363   16.4686   29.9466 N   0  0  0  0  0  0  0  0  0  0  0  0
    7.9150   14.3951   30.4136 O   0  0  0  0  0  0  0  0  0  0  0  0
   14.6353   15.3658   36.9142 O   0  0  0  0  0  0  0  0  0  0  0  0
   14.9831   13.6752   35.3512 O   0  0  0  0  0  0  0  0  0  0  0  0
   14.3363   14.9717   35.5213 S   0  0  2  0  0  0  0  0  0  0  0  0
    9.8963   14.8030   32.2956 S   0  0  0  0  0  0  0  0  0  0  0  0
    4.5137   16.2178   27.5465 S   0  0  0  0  0  0  0  0  0  0  0  0
   15.3736   17.0509   34.9064 H   0  0  0  0  0  0  0  0  0  0  0  0
   15.7273   15.7480   33.7215 H   0  0  0  0  0  0  0  0  0  0  0  0
   14.1199   16.5499   33.7215 H   0  0  0  0  0  0  0  0  0  0  0  0
   12.8855   14.9966   33.1138 H   0  0  0  0  0  0  0  0  0  0  0  0
    9.6599   14.5096   36.9425 H   0  0  0  0  0  0  0  0  0  0  0  0
   12.1238   14.6880   37.3809 H   0  0  0  0  0  0  0  0  0  0  0  0
    5.5029   13.0632   30.2964 H   0  0  0  0  0  0  0  0  0  0  0  0
    4.9002   14.2114   31.5523 H   0  0  0  0  0  0  0  0  0  0  0  0
    4.8183   13.8250   27.7834 H   0  0  0  0  0  0  0  0  0  0  0  0
    6.4795   19.0267   30.0261 H   0  0  0  0  0  0  0  0  0  0  0  0
    5.7003   21.5760   29.7023 H   0  0  0  0  0  0  0  0  0  0  0  0
    3.4365   21.5556   28.3044 H   0  0  0  0  0  0  0  0  0  0  0  0
    2.8180   19.0019   27.7692 H   0  0  0  0  0  0  0  0  0  0  0  0
    6.3140   14.5029   33.1837 H   0  0  0  0  0  0  0  0  0  0  0  0
 25  1  1  6
  2  3  2  0
  2  7  1  0
  2 25  1  0
  3  4  1  0
  4  5  2  0
  4 26  1  0
  5  6  1  0
  5 18  1  0
  6  7  2  0
  8 18  2  0
  8 19  1  0
  8 26  1  0
  9 10  1  0
  9 19  1  0
  9 22  2  0
 10 11  1  0
 11 12  2  0
 11 21  1  0
 12 27  1  0
 13 20  1  0
 13 21  2  0
 13 27  1  0
 14 15  2  0
 14 20  1  0
 15 16  1  0
 16 17  2  0
 17 20  1  0
 23 25  2  0
 24 25  2  0
  1 28  1  0
  1 29  1  0
  1 30  1  0
  3 31  1  0
  6 32  1  0
  7 33  1  0
 10 34  1  0
 10 35  1  0
 12 36  1  0
 14 37  1  0
 15 38  1  0
 16 39  1  0
 17 40  1  0
 19 41  1  0
M  END
>  <filename_input>  (2) 
7L00_XCJ_docked.sdf

>  <pdb_id>  (2) 
7L00_XCJ

>  <pose_rank>  (2) 
1

>  <num_atoms_heavy>  (2) 
27

>  <num_torsions>  (2) 
3

>  <pose>  (2) 
[12.57860406870763, 14.85851256447479, 35.256347743228865, -5.2720121043311385, 0.030188447509535213, 3.2853871828184897, 1.4400964207178737, 0.4202389265892509, -2.315923801212433]

>  <energy>  (2) 
-781.1320474347469

>  <inter_energy>  (2) 
-774.3880941990449

>  <intra_energy>  (2) 
7.609549095894765e-05

>  <rmsd>  (2) 
1.97386

>  <sdf_rank>  (2) 
0

$$$$

     RDKit          3D

 41 44  0  0  0  0  0  0  0  0999 V2000
   12.9688   17.0943   36.6982 C   0  0  0  0  0  0  0  0  0  0  0  0
   11.6729   15.4819   34.7103 C   0  0  0  0  0  0  0  0  0  0  0  0
   10.4446   14.8407   34.7237 C   0  0  0  0  0  0  0  0  0  0  0  0
    9.6744   14.8984   33.5789 C   0  0  0  0  0  0  0  0  0  0  0  0
   10.1781   15.5994   32.4759 C   0  0  0  0  0  0  0  0  0  0  0  0
   11.4276   16.2548   32.4773 C   0  0  0  0  0  0  0  0  0  0  0  0
   12.1861   16.1939   33.6223 C   0  0  0  0  0  0  0  0  0  0  0  0
    8.2375   14.9122   31.5975 C   0  0  0  0  0  0  0  0  0  0  0  0
    5.9447   14.3286   30.9537 C   0  0  0  0  0  0  0  0  0  0  0  0
    4.9167   14.4154   29.8516 C   0  0  0  0  0  0  0  0  0  0  0  0
    4.7822   15.8318   29.3604 C   0  0  0  0  0  0  0  0  0  0  0  0
    4.2381   16.9621   30.0321 C   0  0  0  0  0  0  0  0  0  0  0  0
    5.0468   17.4914   27.7857 C   0  0  0  0  0  0  0  0  0  0  0  0
    5.1330   17.4508   25.3598 C   0  0  0  0  0  0  0  0  0  0  0  0
    5.5823   18.2918   24.3656 C   0  0  0  0  0  0  0  0  0  0  0  0
    6.1043   19.4046   24.9657 C   0  0  0  0  0  0  0  0  0  0  0  0
    5.9820   19.2581   26.3285 C   0  0  0  0  0  0  0  0  0  0  0  0
    9.3517   15.6298   31.3201 N   0  0  0  0  0  0  0  0  0  0  0  0
    7.2297   14.8622   30.6169 N   0  0  0  0  0  0  0  0  0  0  0  0
    5.3947   18.0668   26.5239 N   0  0  0  0  0  0  0  0  0  0  0  0
    5.2510   16.1577   28.0375 N   0  0  0  0  0  0  0  0  0  0  0  0
    5.7153   13.8522   32.0145 O   0  0  0  0  0  0  0  0  0  0  0  0
   11.8531   14.6923   37.2755 O   0  0  0  0  0  0  0  0  0  0  0  0
   13.8273   14.6036   36.0439 O   0  0  0  0  0  0  0  0  0  0  0  0
   12.6138   15.3940   36.2201 S   0  0  2  0  0  0  0  0  0  0  0  0
    8.1924   14.2755   33.1628 S   0  0  0  0  0  0  0  0  0  0  0  0
    4.3370   18.2407   29.0558 S   0  0  0  0  0  0  0  0  0  0  0  0
   12.9848   17.1710   37.7955 H   0  0  0  0  0  0  0  0  0  0  0  0
   13.9484   17.3916   36.2956 H   0  0  0  0  0  0  0  0  0  0  0  0
   12.1900   17.7587   36.2956 H   0  0  0  0  0  0  0  0  0  0  0  0
   10.0943   14.3032   35.6173 H   0  0  0  0  0  0  0  0  0  0  0  0
   11.7839   16.7978   31.5895 H   0  0  0  0  0  0  0  0  0  0  0  0
   13.1662   16.6899   33.6805 H   0  0  0  0  0  0  0  0  0  0  0  0
    5.2279   13.7714   29.0160 H   0  0  0  0  0  0  0  0  0  0  0  0
    3.9451   14.0843   30.2471 H   0  0  0  0  0  0  0  0  0  0  0  0
    3.8193   16.9631   31.0493 H   0  0  0  0  0  0  0  0  0  0  0  0
    4.6547   16.4692   25.2265 H   0  0  0  0  0  0  0  0  0  0  0  0
    5.5305   18.1024   23.2833 H   0  0  0  0  0  0  0  0  0  0  0  0
    6.5461   20.2686   24.4477 H   0  0  0  0  0  0  0  0  0  0  0  0
    6.3011   19.9727   27.1015 H   0  0  0  0  0  0  0  0  0  0  0  0
    7.4152   15.2067   29.6641 H   0  0  0  0  0  0  0  0  0  0  0  0
 25  1  1  1
  2  3  2  0
  2  7  1  0
  2 25  1  0
  3  4  1  0
  4  5  2  0
  4 26  1  0
  5  6  1  0
  5 18  1  0
  6  7  2  0
  8 18  2  0
  8 19  1  0
  8 26  1  0
  9 10  1  0
  9 19  1  0
  9 22  2  0
 10 11  1  0
 11 12  2  0
 11 21  1  0
 12 27  1  0
 13 20  1  0
 13 21  2  0
 13 27  1  0
 14 15  2  0
 14 20  1  0
 15 16  1  0
 16 17  2  0
 17 20  1  0
 23 25  2  0
 24 25  2  0
  1 28  1  0
  1 29  1  0
  1 30  1  0
  3 31  1  0
  6 32  1  0
  7 33  1  0
 10 34  1  0
 10 35  1  0
 12 36  1  0
 14 37  1  0
 15 38  1  0
 16 39  1  0
 17 40  1  0
 19 41  1  0
M  END
>  <filename_input>  (3) 
7L00_XCJ_docked.sdf

>  <pdb_id>  (3) 
7L00_XCJ

>  <pose_rank>  (3) 
2

>  <num_atoms_heavy>  (3) 
27

>  <num_torsions>  (3) 
3

>  <pose>  (3) 
[11.672914642625578, 15.4818603422095, 34.71032756900917, -2.1651687142431637, -0.39250868923177323, -1.4879821351305758, -1.4361387004648507, -2.7435751061080564, 0.7288277603379493]

>  <energy>  (3) 
-695.0770621013437

>  <inter_energy>  (3) 
-696.8950420960455

>  <intra_energy>  (3) 
0.30225782501768617

>  <rmsd>  (3) 
2.12201

>  <sdf_rank>  (3) 
0

$$$$

     RDKit          3D

 41 44  0  0  0  0  0  0  0  0999 V2000
   14.0546   18.3227   37.2535 C   0  0  0  0  0  0  0  0  0  0  0  0
   13.1122   16.2073   35.5599 C   0  0  0  0  0  0  0  0  0  0  0  0
   11.8813   15.5935   35.7282 C   0  0  0  0  0  0  0  0  0  0  0  0
   11.1282   15.3381   34.5992 C   0  0  0  0  0  0  0  0  0  0  0  0
   11.6508   15.7136   33.3551 C   0  0  0  0  0  0  0  0  0  0  0  0
   12.9026   16.3451   33.1975 C   0  0  0  0  0  0  0  0  0  0  0  0
   13.6440   16.5974   34.3274 C   0  0  0  0  0  0  0  0  0  0  0  0
    9.7205   14.8134   32.6669 C   0  0  0  0  0  0  0  0  0  0  0  0
    7.4351   14.0765   32.1710 C   0  0  0  0  0  0  0  0  0  0  0  0
    6.4237   13.8606   31.0714 C   0  0  0  0  0  0  0  0  0  0  0  0
    6.0984   15.1605   30.3856 C   0  0  0  0  0  0  0  0  0  0  0  0
    5.8825   16.4440   30.9608 C   0  0  0  0  0  0  0  0  0  0  0  0
    5.6871   16.4511   28.5231 C   0  0  0  0  0  0  0  0  0  0  0  0
    4.7596   15.9311   26.3406 C   0  0  0  0  0  0  0  0  0  0  0  0
    4.7566   16.5188   25.0947 C   0  0  0  0  0  0  0  0  0  0  0  0
    5.4811   17.6760   25.1782 C   0  0  0  0  0  0  0  0  0  0  0  0
    5.9349   17.8093   26.4705 C   0  0  0  0  0  0  0  0  0  0  0  0
   10.8414   15.4290   32.2221 N   0  0  0  0  0  0  0  0  0  0  0  0
    8.7270   14.4988   31.7216 N   0  0  0  0  0  0  0  0  0  0  0  0
    5.4808   16.7362   27.1373 N   0  0  0  0  0  0  0  0  0  0  0  0
    5.9766   15.1792   28.9501 N   0  0  0  0  0  0  0  0  0  0  0  0
    7.1884   13.9058   33.3177 O   0  0  0  0  0  0  0  0  0  0  0  0
   13.3990   15.8740   38.2137 O   0  0  0  0  0  0  0  0  0  0  0  0
   15.3729   15.9653   36.9819 O   0  0  0  0  0  0  0  0  0  0  0  0
   14.0307   16.5327   37.0509 S   0  0  2  0  0  0  0  0  0  0  0  0
    9.6501   14.6254   34.3454 S   0  0  0  0  0  0  0  0  0  0  0  0
    5.5684   17.4938   29.7789 S   0  0  0  0  0  0  0  0  0  0  0  0
   14.0579   18.5704   38.3253 H   0  0  0  0  0  0  0  0  0  0  0  0
   14.9583   18.7333   36.7795 H   0  0  0  0  0  0  0  0  0  0  0  0
   13.1622   18.7573   36.7795 H   0  0  0  0  0  0  0  0  0  0  0  0
   11.5159   15.3186   36.7287 H   0  0  0  0  0  0  0  0  0  0  0  0
   13.2739   16.6269   32.2012 H   0  0  0  0  0  0  0  0  0  0  0  0
   14.6251   17.0908   34.2636 H   0  0  0  0  0  0  0  0  0  0  0  0
    6.8367   13.1567   30.3339 H   0  0  0  0  0  0  0  0  0  0  0  0
    5.5023   13.4533   31.5130 H   0  0  0  0  0  0  0  0  0  0  0  0
    5.9232   16.6805   32.0343 H   0  0  0  0  0  0  0  0  0  0  0  0
    4.2685   14.9891   26.6262 H   0  0  0  0  0  0  0  0  0  0  0  0
    4.2605   16.1276   24.1942 H   0  0  0  0  0  0  0  0  0  0  0  0
    5.6688   18.3795   24.3537 H   0  0  0  0  0  0  0  0  0  0  0  0
    6.5461   18.6293   26.8753 H   0  0  0  0  0  0  0  0  0  0  0  0
    8.9277   14.5719   30.7140 H   0  0  0  0  0  0  0  0  0  0  0  0
 25  1  1  1
  2  3  2  0
  2  7  1  0
  2 25  1  0
  3  4  1  0
  4  5  2  0
  4 26  1  0
  5  6  1  0
  5 18  1  0
  6  7  2  0
  8 18  2  0
  8 19  1  0
  8 26  1  0
  9 10  1  0
  9 19  1  0
  9 22  2  0
 10 11  1  0
 11 12  2  0
 11 21  1  0
 12 27  1  0
 13 20  1  0
 13 21  2  0
 13 27  1  0
 14 15  2  0
 14 20  1  0
 15 16  1  0
 16 17  2  0
 17 20  1  0
 23 25  2  0
 24 25  2  0
  1 28  1  0
  1 29  1  0
  1 30  1  0
  3 31  1  0
  6 32  1  0
  7 33  1  0
 10 34  1  0
 10 35  1  0
 12 36  1  0
 14 37  1  0
 15 38  1  0
 16 39  1  0
 17 40  1  0
 19 41  1  0
M  END
>  <filename_input>  (4) 
7L00_XCJ_docked.sdf

>  <pdb_id>  (4) 
7L00_XCJ

>  <pose_rank>  (4) 
3

>  <num_atoms_heavy>  (4) 
27

>  <num_torsions>  (4) 
3

>  <pose>  (4) 
[13.112239922656968, 16.207258258096456, 35.559920126470914, -2.3639674935750206, -0.6330690901328448, -1.5274702305609897, 5.07105997416947, -9.22330016083378, -5.077607001076437]

>  <energy>  (4) 
-639.9266048647395

>  <inter_energy>  (4) 
-637.647292131881

>  <intra_energy>  (4) 
0.8774031911747555

>  <rmsd>  (4) 
2.17812

>  <sdf_rank>  (4) 
0

$$$$

     RDKit          3D

 41 44  0  0  0  0  0  0  0  0999 V2000
    5.1587   16.9425   26.5333 C   0  0  0  0  0  0  0  0  0  0  0  0
    5.0994   16.3024   29.3293 C   0  0  0  0  0  0  0  0  0  0  0  0
    6.3229   16.7561   29.7956 C   0  0  0  0  0  0  0  0  0  0  0  0
    6.9554   16.0147   30.7741 C   0  0  0  0  0  0  0  0  0  0  0  0
    6.3250   14.8525   31.2363 C   0  0  0  0  0  0  0  0  0  0  0  0
    5.0751   14.4050   30.7587 C   0  0  0  0  0  0  0  0  0  0  0  0
    4.4520   15.1509   29.7864 C   0  0  0  0  0  0  0  0  0  0  0  0
    8.1786   14.7669   32.4880 C   0  0  0  0  0  0  0  0  0  0  0  0
   10.1124   15.0422   33.9701 C   0  0  0  0  0  0  0  0  0  0  0  0
   10.8655   14.4437   35.1335 C   0  0  0  0  0  0  0  0  0  0  0  0
   12.3050   14.8832   35.1176 C   0  0  0  0  0  0  0  0  0  0  0  0
   13.3122   14.6078   34.1509 C   0  0  0  0  0  0  0  0  0  0  0  0
   14.1201   15.9973   35.9941 C   0  0  0  0  0  0  0  0  0  0  0  0
   14.7492   16.5730   38.2672 C   0  0  0  0  0  0  0  0  0  0  0  0
   15.6069   17.4694   38.8658 C   0  0  0  0  0  0  0  0  0  0  0  0
   16.2185   18.1864   37.8744 C   0  0  0  0  0  0  0  0  0  0  0  0
   15.7436   17.7399   36.6625 C   0  0  0  0  0  0  0  0  0  0  0  0
    7.0142   14.1214   32.2415 N   0  0  0  0  0  0  0  0  0  0  0  0
    9.0033   14.2625   33.5103 N   0  0  0  0  0  0  0  0  0  0  0  0
   14.8589   16.7701   36.9435 N   0  0  0  0  0  0  0  0  0  0  0  0
   12.7961   15.6992   36.1989 N   0  0  0  0  0  0  0  0  0  0  0  0
   10.4133   16.0727   33.4677 O   0  0  0  0  0  0  0  0  0  0  0  0
    2.8746   17.0069   27.9916 O   0  0  0  0  0  0  0  0  0  0  0  0
    4.3844   18.7249   28.4286 O   0  0  0  0  0  0  0  0  0  0  0  0
    4.3186   17.3088   28.0843 S   0  0  2  0  0  0  0  0  0  0  0  0
    8.3979   16.1761   31.5806 S   0  0  0  0  0  0  0  0  0  0  0  0
   14.6819   15.3197   34.6144 S   0  0  0  0  0  0  0  0  0  0  0  0
    6.1481   16.5111   26.7451 H   0  0  0  0  0  0  0  0  0  0  0  0
    4.5615   16.2231   25.9538 H   0  0  0  0  0  0  0  0  0  0  0  0
    5.2794   17.8697   25.9538 H   0  0  0  0  0  0  0  0  0  0  0  0
    6.7757   17.6769   29.3992 H   0  0  0  0  0  0  0  0  0  0  0  0
    4.6133   13.4874   31.1523 H   0  0  0  0  0  0  0  0  0  0  0  0
    3.4745   14.8509   29.3807 H   0  0  0  0  0  0  0  0  0  0  0  0
   10.3980   14.7719   36.0736 H   0  0  0  0  0  0  0  0  0  0  0  0
   10.8294   13.3473   35.0520 H   0  0  0  0  0  0  0  0  0  0  0  0
   13.1781   14.0084   33.2384 H   0  0  0  0  0  0  0  0  0  0  0  0
   14.1026   15.8409   38.7732 H   0  0  0  0  0  0  0  0  0  0  0  0
   15.7707   17.5874   39.9471 H   0  0  0  0  0  0  0  0  0  0  0  0
   16.9623   18.9834   38.0209 H   0  0  0  0  0  0  0  0  0  0  0  0
   16.0310   18.1040   35.6651 H   0  0  0  0  0  0  0  0  0  0  0  0
    8.8105   13.3395   33.9247 H   0  0  0  0  0  0  0  0  0  0  0  0
 25  1  1  6
  2  3  2  0
  2  7  1  0
  2 25  1  0
  3  4  1  0
  4  5  2  0
  4 26  1  0
  5  6  1  0
  5 18  1  0
  6  7  2  0
  8 18  2  0
  8 19  1  0
  8 26  1  0
  9 10  1  0
  9 19  1  0
  9 22  2  0
 10 11  1  0
 11 12  2  0
 11 21  1  0
 12 27  1  0
 13 20  1  0
 13 21  2  0
 13 27  1  0
 14 15  2  0
 14 20  1  0
 15 16  1  0
 16 17  2  0
 17 20  1  0
 23 25  2  0
 24 25  2  0
  1 28  1  0
  1 29  1  0
  1 30  1  0
  3 31  1  0
  6 32  1  0
  7 33  1  0
 10 34  1  0
 10 35  1  0
 12 36  1  0
 14 37  1  0
 15 38  1  0
 16 39  1  0
 17 40  1  0
 19 41  1  0
M  END
>  <filename_input>  (5) 
7L00_XCJ_docked.sdf

>  <pdb_id>  (5) 
7L00_XCJ

>  <pose_rank>  (5) 
4

>  <num_atoms_heavy>  (5) 
27

>  <num_torsions>  (5) 
3

>  <pose>  (5) 
[5.099444015175796, 16.302379371418255, 29.329336416918046, -1.6157074489453296, -1.4999788112096488, 1.9168346326924954, 2.09391296940055, 0.8548099965346374, 0.8113127089045563]

>  <energy>  (5) 
-645.5740778501655

>  <inter_energy>  (5) 
-642.4440538896287

>  <intra_energy>  (5) 
2.36761135874238

>  <rmsd>  (5) 
10.4772

>  <sdf_rank>  (5) 
0

$$$$

     RDKit          3D

 41 44  0  0  0  0  0  0  0  0999 V2000
   15.5345   16.6598   38.5726 C   0  0  0  0  0  0  0  0  0  0  0  0
   14.0834   15.7564   36.2684 C   0  0  0  0  0  0  0  0  0  0  0  0
   13.7231   16.1026   34.9759 C   0  0  0  0  0  0  0  0  0  0  0  0
   12.4975   15.6692   34.5101 C   0  0  0  0  0  0  0  0  0  0  0  0
   11.6939   14.9077   35.3681 C   0  0  0  0  0  0  0  0  0  0  0  0
   12.0755   14.5553   36.6799 C   0  0  0  0  0  0  0  0  0  0  0  0
   13.2984   14.9892   37.1340 C   0  0  0  0  0  0  0  0  0  0  0  0
   10.3375   14.9788   33.5890 C   0  0  0  0  0  0  0  0  0  0  0  0
    9.1630   14.9155   31.4376 C   0  0  0  0  0  0  0  0  0  0  0  0
    7.9366   14.4053   30.7203 C   0  0  0  0  0  0  0  0  0  0  0  0
    6.9726   15.5292   30.4500 C   0  0  0  0  0  0  0  0  0  0  0  0
    7.2334   16.9244   30.3486 C   0  0  0  0  0  0  0  0  0  0  0  0
    4.8743   16.3729   30.0151 C   0  0  0  0  0  0  0  0  0  0  0  0
    2.6452   15.5963   30.5825 C   0  0  0  0  0  0  0  0  0  0  0  0
    1.3649   15.8303   30.1314 C   0  0  0  0  0  0  0  0  0  0  0  0
    1.4434   16.7276   29.1021 C   0  0  0  0  0  0  0  0  0  0  0  0
    2.7671   17.0515   28.9112 C   0  0  0  0  0  0  0  0  0  0  0  0
   10.4411   14.4862   34.8460 N   0  0  0  0  0  0  0  0  0  0  0  0
    9.2004   14.6262   32.8391 N   0  0  0  0  0  0  0  0  0  0  0  0
    3.4580   16.3465   29.8212 N   0  0  0  0  0  0  0  0  0  0  0  0
    5.5790   15.2198   30.2551 N   0  0  0  0  0  0  0  0  0  0  0  0
   10.0278   15.5146   30.8917 O   0  0  0  0  0  0  0  0  0  0  0  0
   16.7199   15.3019   36.5481 O   0  0  0  0  0  0  0  0  0  0  0  0
   16.1136   17.4955   36.0557 O   0  0  0  0  0  0  0  0  0  0  0  0
   15.6833   16.3227   36.8091 S   0  0  2  0  0  0  0  0  0  0  0  0
   11.6832   15.8638   33.0760 S   0  0  0  0  0  0  0  0  0  0  0  0
    5.8470   17.6887   30.0459 S   0  0  0  0  0  0  0  0  0  0  0  0
   15.9141   15.7996   39.1436 H   0  0  0  0  0  0  0  0  0  0  0  0
   16.1211   17.5554   38.8255 H   0  0  0  0  0  0  0  0  0  0  0  0
   14.4777   16.8302   38.8255 H   0  0  0  0  0  0  0  0  0  0  0  0
   14.3917   16.7031   34.3416 H   0  0  0  0  0  0  0  0  0  0  0  0
   11.4147   13.9519   37.3196 H   0  0  0  0  0  0  0  0  0  0  0  0
   13.6482   14.7404   38.1468 H   0  0  0  0  0  0  0  0  0  0  0  0
    8.2395   13.9516   29.7650 H   0  0  0  0  0  0  0  0  0  0  0  0
    7.4396   13.6583   31.3567 H   0  0  0  0  0  0  0  0  0  0  0  0
    8.2181   17.4022   30.4586 H   0  0  0  0  0  0  0  0  0  0  0  0
    2.9428   14.9275   31.4036 H   0  0  0  0  0  0  0  0  0  0  0  0
    0.4444   15.3768   30.5278 H   0  0  0  0  0  0  0  0  0  0  0  0
    0.5939   17.1227   28.5256 H   0  0  0  0  0  0  0  0  0  0  0  0
    3.1765   17.7473   28.1641 H   0  0  0  0  0  0  0  0  0  0  0  0
    8.4010   14.1634   33.2950 H   0  0  0  0  0  0  0  0  0  0  0  0
 25  1  1  1
  2  3  2  0
  2  7  1  0
  2 25  1  0
  3  4  1  0
  4  5  2  0
  4 26  1  0
  5  6  1  0
  5 18  1  0
  6  7  2  0
  8 18  2  0
  8 19  1  0
  8 26  1  0
  9 10  1  0
  9 19  1  0
  9 22  2  0
 10 11  1  0
 11 12  2  0
 11 21  1  0
 12 27  1  0
 13 20  1  0
 13 21  2  0
 13 27  1  0
 14 15  2  0
 14 20  1  0
 15 16  1  0
 16 17  2  0
 17 20  1  0
 23 25  2  0
 24 25  2  0
  1 28  1  0
  1 29  1  0
  1 30  1  0
  3 31  1  0
  6 32  1  0
  7 33  1  0
 10 34  1  0
 10 35  1  0
 12 36  1  0
 14 37  1  0
 15 38  1  0
 16 39  1  0
 17 40  1  0
 19 41  1  0
M  END
>  <filename_input>  (6) 
7L00_XCJ_docked.sdf

>  <pdb_id>  (6) 
7L00_XCJ

>  <pose_rank>  (6) 
5

>  <num_atoms_heavy>  (6) 
27

>  <num_torsions>  (6) 
3

>  <pose>  (6) 
[14.083433320999351, 15.756425829461215, 36.268405043701364, 0.3982407778986517, -0.07631454460053745, 0.31124902257006076, 3.2929704152033312, -6.274280549244009, -3.9392686977673264]

>  <energy>  (6) 
-672.561838367174

>  <inter_energy>  (6) 
-669.6475665324709

>  <intra_energy>  (6) 
5.3752692424288195

>  <rmsd>  (6) 
3.04951

>  <sdf_rank>  (6) 
0

$$$$

     RDKit          3D

 41 44  0  0  0  0  0  0  0  0999 V2000
   11.3847   13.8452   37.4586 C   0  0  0  0  0  0  0  0  0  0  0  0
   11.3838   15.2258   34.9436 C   0  0  0  0  0  0  0  0  0  0  0  0
   10.0552   14.8337   34.9086 C   0  0  0  0  0  0  0  0  0  0  0  0
    9.4051   14.8656   33.6906 C   0  0  0  0  0  0  0  0  0  0  0  0
   10.1242   15.2914   32.5666 C   0  0  0  0  0  0  0  0  0  0  0  0
   11.4751   15.6956   32.6166 C   0  0  0  0  0  0  0  0  0  0  0  0
   12.1131   15.6627   33.8339 C   0  0  0  0  0  0  0  0  0  0  0  0
    8.1614   14.8567   31.5826 C   0  0  0  0  0  0  0  0  0  0  0  0
    5.8566   14.6226   30.7792 C   0  0  0  0  0  0  0  0  0  0  0  0
    4.9572   14.7371   29.5723 C   0  0  0  0  0  0  0  0  0  0  0  0
    5.1846   16.0445   28.8619 C   0  0  0  0  0  0  0  0  0  0  0  0
    5.2928   16.2950   27.4654 C   0  0  0  0  0  0  0  0  0  0  0  0
    5.5091   18.3241   28.8132 C   0  0  0  0  0  0  0  0  0  0  0  0
    6.4947   19.8738   30.4009 C   0  0  0  0  0  0  0  0  0  0  0  0
    6.4624   21.2342   30.6149 C   0  0  0  0  0  0  0  0  0  0  0  0
    5.6477   21.7862   29.6649 C   0  0  0  0  0  0  0  0  0  0  0  0
    5.1730   20.7743   28.8621 C   0  0  0  0  0  0  0  0  0  0  0  0
    9.4146   15.3057   31.3353 N   0  0  0  0  0  0  0  0  0  0  0  0
    7.2448   14.8523   30.5151 N   0  0  0  0  0  0  0  0  0  0  0  0
    5.7047   19.6384   29.3409 N   0  0  0  0  0  0  0  0  0  0  0  0
    5.3175   17.2478   29.6432 N   0  0  0  0  0  0  0  0  0  0  0  0
    5.4537   14.3578   31.8620 O   0  0  0  0  0  0  0  0  0  0  0  0
   13.6214   14.9646   36.4136 O   0  0  0  0  0  0  0  0  0  0  0  0
   12.0410   16.4690   37.2269 O   0  0  0  0  0  0  0  0  0  0  0  0
   12.1657   15.1862   36.5434 S   0  0  2  0  0  0  0  0  0  0  0  0
    7.8665   14.4757   33.2029 S   0  0  0  0  0  0  0  0  0  0  0  0
    5.5333   17.8727   27.2403 S   0  0  0  0  0  0  0  0  0  0  0  0
   11.4908   14.0275   38.5382 H   0  0  0  0  0  0  0  0  0  0  0  0
   10.3170   13.7967   37.1982 H   0  0  0  0  0  0  0  0  0  0  0  0
   11.8692   12.8926   37.1982 H   0  0  0  0  0  0  0  0  0  0  0  0
    9.5352   14.5075   35.8214 H   0  0  0  0  0  0  0  0  0  0  0  0
   12.0016   16.0268   31.7094 H   0  0  0  0  0  0  0  0  0  0  0  0
   13.1646   15.9705   33.9317 H   0  0  0  0  0  0  0  0  0  0  0  0
    5.1724   13.9085   28.8815 H   0  0  0  0  0  0  0  0  0  0  0  0
    3.9099   14.6932   29.9060 H   0  0  0  0  0  0  0  0  0  0  0  0
    5.2237   15.5373   26.6709 H   0  0  0  0  0  0  0  0  0  0  0  0
    7.0563   19.1282   30.9829 H   0  0  0  0  0  0  0  0  0  0  0  0
    6.9960   21.7790   31.4077 H   0  0  0  0  0  0  0  0  0  0  0  0
    5.4122   22.8556   29.5605 H   0  0  0  0  0  0  0  0  0  0  0  0
    4.4949   20.8757   28.0019 H   0  0  0  0  0  0  0  0  0  0  0  0
    7.5700   15.0130   29.5511 H   0  0  0  0  0  0  0  0  0  0  0  0
 25  1  1  1
  2  3  2  0
  2  7  1  0
  2 25  1  0
  3  4  1  0
  4  5  2  0
  4 26  1  0
  5  6  1  0
  5 18  1  0
  6  7  2  0
  8 18  2  0
  8 19  1  0
  8 26  1  0
  9 10  1  0
  9 19  1  0
  9 22  2  0
 10 11  1  0
 11 12  2  0
 11 21  1  0
 12 27  1  0
 13 20  1  0
 13 21  2  0
 13 27  1  0
 14 15  2  0
 14 20  1  0
 15 16  1  0
 16 17  2  0
 17 20  1  0
 23 25  2  0
 24 25  2  0
  1 28  1  0
  1 29  1  0
  1 30  1  0
  3 31  1  0
  6 32  1  0
  7 33  1  0
 10 34  1  0
 10 35  1  0
 12 36  1  0
 14 37  1  0
 15 38  1  0
 16 39  1  0
 17 40  1  0
 19 41  1  0
M  END
>  <filename_input>  (7) 
7L00_XCJ_docked.sdf

>  <pdb_id>  (7) 
7L00_XCJ

>  <pose_rank>  (7) 
6

>  <num_atoms_heavy>  (7) 
27

>  <num_torsions>  (7) 
3

>  <pose>  (7) 
[11.383760126009662, 15.2257974615976, 34.94356940725646, -2.302839547015035, -0.3330320598232745, -1.7191744199828245, 1.2786406441569416, -2.7059346086605176, -1.9611205890671368]

>  <energy>  (7) 
-640.4851242921861

>  <inter_energy>  (7) 
-644.5460062768997

>  <intra_energy>  (7) 
4.902133543375211

>  <rmsd>  (7) 
3.1947

>  <sdf_rank>  (7) 
0

$$$$

     RDKit          3D

 41 44  0  0  0  0  0  0  0  0999 V2000
    1.4741   16.0907   31.3620 C   0  0  0  0  0  0  0  0  0  0  0  0
    3.7664   15.5826   29.7132 C   0  0  0  0  0  0  0  0  0  0  0  0
    4.5178   15.9628   30.8137 C   0  0  0  0  0  0  0  0  0  0  0  0
    5.8188   15.5070   30.8950 C   0  0  0  0  0  0  0  0  0  0  0  0
    6.3004   14.6899   29.8644 C   0  0  0  0  0  0  0  0  0  0  0  0
    5.5227   14.3034   28.7524 C   0  0  0  0  0  0  0  0  0  0  0  0
    4.2279   14.7601   28.6814 C   0  0  0  0  0  0  0  0  0  0  0  0
    8.1442   14.7804   31.1300 C   0  0  0  0  0  0  0  0  0  0  0  0
    9.9285   14.7560   32.8117 C   0  0  0  0  0  0  0  0  0  0  0  0
   11.3069   14.2323   33.1349 C   0  0  0  0  0  0  0  0  0  0  0  0
   11.6566   14.5078   34.5728 C   0  0  0  0  0  0  0  0  0  0  0  0
   10.9786   14.0910   35.7524 C   0  0  0  0  0  0  0  0  0  0  0  0
   12.9751   15.4218   36.2251 C   0  0  0  0  0  0  0  0  0  0  0  0
   14.4111   17.3785   36.2817 C   0  0  0  0  0  0  0  0  0  0  0  0
   15.4470   17.8304   37.0694 C   0  0  0  0  0  0  0  0  0  0  0  0
   15.6760   16.8902   38.0361 C   0  0  0  0  0  0  0  0  0  0  0  0
   14.7874   15.8558   37.8519 C   0  0  0  0  0  0  0  0  0  0  0  0
    7.6450   14.2470   29.9901 N   0  0  0  0  0  0  0  0  0  0  0  0
    9.4511   14.4183   31.5050 N   0  0  0  0  0  0  0  0  0  0  0  0
   14.0455   16.1878   36.7834 N   0  0  0  0  0  0  0  0  0  0  0  0
   12.8281   15.2935   34.8665 N   0  0  0  0  0  0  0  0  0  0  0  0
    9.2884   15.4017   33.5721 O   0  0  0  0  0  0  0  0  0  0  0  0
    2.0360   17.5660   29.1585 O   0  0  0  0  0  0  0  0  0  0  0  0
    1.2727   15.4058   28.7430 O   0  0  0  0  0  0  0  0  0  0  0  0
    2.0892   16.1806   29.6710 S   0  0  2  0  0  0  0  0  0  0  0  0
    7.0426   15.7261   31.9958 S   0  0  0  0  0  0  0  0  0  0  0  0
   11.7750   14.6576   37.0339 S   0  0  0  0  0  0  0  0  0  0  0  0
    2.3121   16.2132   32.0640 H   0  0  0  0  0  0  0  0  0  0  0  0
    0.7374   16.8907   31.5272 H   0  0  0  0  0  0  0  0  0  0  0  0
    0.9973   15.1133   31.5272 H   0  0  0  0  0  0  0  0  0  0  0  0
    4.0917   16.6068   31.5971 H   0  0  0  0  0  0  0  0  0  0  0  0
    5.9395   13.6566   27.9664 H   0  0  0  0  0  0  0  0  0  0  0  0
    3.5754   14.4868   27.8390 H   0  0  0  0  0  0  0  0  0  0  0  0
   11.3313   13.1468   32.9589 H   0  0  0  0  0  0  0  0  0  0  0  0
   12.0387   14.7400   32.4894 H   0  0  0  0  0  0  0  0  0  0  0  0
   10.0626   13.4828   35.7843 H   0  0  0  0  0  0  0  0  0  0  0  0
   13.9707   17.8914   35.4140 H   0  0  0  0  0  0  0  0  0  0  0  0
   15.9921   18.7774   36.9434 H   0  0  0  0  0  0  0  0  0  0  0  0
   16.4397   16.9507   38.8255 H   0  0  0  0  0  0  0  0  0  0  0  0
   14.7022   14.9416   38.4577 H   0  0  0  0  0  0  0  0  0  0  0  0
   10.0596   13.9141   30.8444 H   0  0  0  0  0  0  0  0  0  0  0  0
 25  1  1  1
  2  3  2  0
  2  7  1  0
  2 25  1  0
  3  4  1  0
  4  5  2  0
  4 26  1  0
  5  6  1  0
  5 18  1  0
  6  7  2  0
  8 18  2  0
  8 19  1  0
  8 26  1  0
  9 10  1  0
  9 19  1  0
  9 22  2  0
 10 11  1  0
 11 12  2  0
 11 21  1  0
 12 27  1  0
 13 20  1  0
 13 21  2  0
 13 27  1  0
 14 15  2  0
 14 20  1  0
 15 16  1  0
 16 17  2  0
 17 20  1  0
 23 25  2  0
 24 25  2  0
  1 28  1  0
  1 29  1  0
  1 30  1  0
  3 31  1  0
  6 32  1  0
  7 33  1  0
 10 34  1  0
 10 35  1  0
 12 36  1  0
 14 37  1  0
 15 38  1  0
 16 39  1  0
 17 40  1  0
 19 41  1  0
M  END
>  <filename_input>  (8) 
7L00_XCJ_docked.sdf

>  <pdb_id>  (8) 
7L00_XCJ

>  <pose_rank>  (8) 
7

>  <num_atoms_heavy>  (8) 
27

>  <num_torsions>  (8) 
3

>  <pose>  (8) 
[3.766414114965987, 15.582618362903556, 29.713226508279337, -0.3896705406856711, -2.799899020421184, 0.699584929758474, 0.050818915249643465, 1.4551662272018078, 2.9599185557554057]

>  <energy>  (8) 
-629.4239882870185

>  <inter_energy>  (8) 
-630.7382763029212

>  <intra_energy>  (8) 
8.935282564477605

>  <rmsd>  (8) 
10.4817

>  <sdf_rank>  (8) 
0

$$$$

     RDKit          3D

 41 44  0  0  0  0  0  0  0  0999 V2000
    3.2030   22.1388   28.3748 C   0  0  0  0  0  0  0  0  0  0  0  0
    4.4088   19.5530   28.0732 C   0  0  0  0  0  0  0  0  0  0  0  0
    5.6684   19.3441   28.6116 C   0  0  0  0  0  0  0  0  0  0  0  0
    5.8970   18.1548   29.2753 C   0  0  0  0  0  0  0  0  0  0  0  0
    4.8459   17.2335   29.3654 C   0  0  0  0  0  0  0  0  0  0  0  0
    3.5650   17.4613   28.8193 C   0  0  0  0  0  0  0  0  0  0  0  0
    3.3463   18.6491   28.1625 C   0  0  0  0  0  0  0  0  0  0  0  0
    6.4229   16.0727   30.4495 C   0  0  0  0  0  0  0  0  0  0  0  0
    8.1872   15.1250   31.8643 C   0  0  0  0  0  0  0  0  0  0  0  0
    8.5641   13.9576   32.7440 C   0  0  0  0  0  0  0  0  0  0  0  0
    9.3997   14.4174   33.9084 C   0  0  0  0  0  0  0  0  0  0  0  0
    9.0148   14.6031   35.2657 C   0  0  0  0  0  0  0  0  0  0  0  0
   11.3728   15.1163   34.8689 C   0  0  0  0  0  0  0  0  0  0  0  0
   13.2973   16.3021   33.9835 C   0  0  0  0  0  0  0  0  0  0  0  0
   14.6095   16.4898   34.3582 C   0  0  0  0  0  0  0  0  0  0  0  0
   14.8122   15.8036   35.5239 C   0  0  0  0  0  0  0  0  0  0  0  0
   13.6316   15.1896   35.8746 C   0  0  0  0  0  0  0  0  0  0  0  0
    5.1284   16.0236   30.0555 N   0  0  0  0  0  0  0  0  0  0  0  0
    6.9129   15.0044   31.2231 N   0  0  0  0  0  0  0  0  0  0  0  0
   12.7456   15.5127   34.9192 N   0  0  0  0  0  0  0  0  0  0  0  0
   10.7897   14.7269   33.6890 N   0  0  0  0  0  0  0  0  0  0  0  0
    8.8882   16.0677   31.7069 O   0  0  0  0  0  0  0  0  0  0  0  0
    5.4584   21.7465   26.9231 O   0  0  0  0  0  0  0  0  0  0  0  0
    3.5001   20.9329   25.9610 O   0  0  0  0  0  0  0  0  0  0  0  0
    4.1633   21.1123   27.2480 S   0  0  2  0  0  0  0  0  0  0  0  0
    7.2226   17.5026   30.0334 S   0  0  0  0  0  0  0  0  0  0  0  0
   10.2968   15.1076   36.1021 S   0  0  0  0  0  0  0  0  0  0  0  0
    3.4507   21.8741   29.4133 H   0  0  0  0  0  0  0  0  0  0  0  0
    3.4419   23.1982   28.1995 H   0  0  0  0  0  0  0  0  0  0  0  0
    2.1301   21.9710   28.1995 H   0  0  0  0  0  0  0  0  0  0  0  0
    6.4606   20.1009   28.5135 H   0  0  0  0  0  0  0  0  0  0  0  0
    2.7659   16.7116   28.9162 H   0  0  0  0  0  0  0  0  0  0  0  0
    2.3658   18.8809   27.7210 H   0  0  0  0  0  0  0  0  0  0  0  0
    7.6482   13.4804   33.1228 H   0  0  0  0  0  0  0  0  0  0  0  0
    9.1497   13.2410   32.1493 H   0  0  0  0  0  0  0  0  0  0  0  0
    8.0089   14.4308   35.6761 H   0  0  0  0  0  0  0  0  0  0  0  0
   12.8001   16.7166   33.0942 H   0  0  0  0  0  0  0  0  0  0  0  0
   15.3599   17.0849   33.8170 H   0  0  0  0  0  0  0  0  0  0  0  0
   15.7569   15.7515   36.0850 H   0  0  0  0  0  0  0  0  0  0  0  0
   13.4506   14.5610   36.7590 H   0  0  0  0  0  0  0  0  0  0  0  0
    6.3590   14.1422   31.3272 H   0  0  0  0  0  0  0  0  0  0  0  0
 25  1  1  1
  2  3  2  0
  2  7  1  0
  2 25  1  0
  3  4  1  0
  4  5  2  0
  4 26  1  0
  5  6  1  0
  5 18  1  0
  6  7  2  0
  8 18  2  0
  8 19  1  0
  8 26  1  0
  9 10  1  0
  9 19  1  0
  9 22  2  0
 10 11  1  0
 11 12  2  0
 11 21  1  0
 12 27  1  0
 13 20  1  0
 13 21  2  0
 13 27  1  0
 14 15  2  0
 14 20  1  0
 15 16  1  0
 16 17  2  0
 17 20  1  0
 23 25  2  0
 24 25  2  0
  1 28  1  0
  1 29  1  0
  1 30  1  0
  3 31  1  0
  6 32  1  0
  7 33  1  0
 10 34  1  0
 10 35  1  0
 12 36  1  0
 14 37  1  0
 15 38  1  0
 16 39  1  0
 17 40  1  0
 19 41  1  0
M  END
>  <filename_input>  (9) 
7L00_XCJ_docked.sdf

>  <pdb_id>  (9) 
7L00_XCJ

>  <pose_rank>  (9) 
8

>  <num_atoms_heavy>  (9) 
27

>  <num_torsions>  (9) 
3

>  <pose>  (9) 
[4.408809146040019, 19.553017108159803, 28.073222225325466, 2.471076832858895, 1.9765329837836751, -2.0730822283106662, -1.0773424777732863, 8.193339260074438, 3.7346375580352356]

>  <energy>  (9) 
-598.8764712051434

>  <inter_energy>  (9) 
-607.741267451644

>  <intra_energy>  (9) 
5.900444569195897

>  <rmsd>  (9) 
9.99733

>  <sdf_rank>  (9) 
0

$$$$

     RDKit          3D

 41 44  0  0  0  0  0  0  0  0999 V2000
    4.7813   18.5957   29.4791 C   0  0  0  0  0  0  0  0  0  0  0  0
    5.6361   15.9560   30.2086 C   0  0  0  0  0  0  0  0  0  0  0  0
    6.9201   16.4427   30.3940 C   0  0  0  0  0  0  0  0  0  0  0  0
    7.7345   15.7870   31.2962 C   0  0  0  0  0  0  0  0  0  0  0  0
    7.2163   14.6730   31.9686 C   0  0  0  0  0  0  0  0  0  0  0  0
    5.9041   14.1915   31.7767 C   0  0  0  0  0  0  0  0  0  0  0  0
    5.1000   14.8522   30.8784 C   0  0  0  0  0  0  0  0  0  0  0  0
    9.2737   14.6884   32.8501 C   0  0  0  0  0  0  0  0  0  0  0  0
   11.4490   15.0832   33.9104 C   0  0  0  0  0  0  0  0  0  0  0  0
   12.4150   14.5854   34.9582 C   0  0  0  0  0  0  0  0  0  0  0  0
   13.2034   15.7280   35.5401 C   0  0  0  0  0  0  0  0  0  0  0  0
   13.6256   15.9286   36.8841 C   0  0  0  0  0  0  0  0  0  0  0  0
   14.3303   17.7308   35.3886 C   0  0  0  0  0  0  0  0  0  0  0  0
   14.1026   19.6310   33.8949 C   0  0  0  0  0  0  0  0  0  0  0  0
   14.8853   20.7001   33.5180 C   0  0  0  0  0  0  0  0  0  0  0  0
   16.0761   20.5996   34.1833 C   0  0  0  0  0  0  0  0  0  0  0  0
   16.0369   19.4722   34.9714 C   0  0  0  0  0  0  0  0  0  0  0  0
    8.0913   14.0296   32.8854 N   0  0  0  0  0  0  0  0  0  0  0  0
   10.2823   14.2717   33.7382 N   0  0  0  0  0  0  0  0  0  0  0  0
   14.8324   18.9161   34.7664 N   0  0  0  0  0  0  0  0  0  0  0  0
   13.6223   16.7987   34.6718 N   0  0  0  0  0  0  0  0  0  0  0  0
   11.6376   16.0641   33.2723 O   0  0  0  0  0  0  0  0  0  0  0  0
    5.0627   16.6043   27.6617 O   0  0  0  0  0  0  0  0  0  0  0  0
    3.2377   16.3964   29.0929 O   0  0  0  0  0  0  0  0  0  0  0  0
    4.6226   16.8530   29.0507 S   0  0  2  0  0  0  0  0  0  0  0  0
    9.3013   16.0115   31.7984 S   0  0  0  0  0  0  0  0  0  0  0  0
   14.4421   17.3158   36.9678 S   0  0  0  0  0  0  0  0  0  0  0  0
    4.7912   18.7048   30.5736 H   0  0  0  0  0  0  0  0  0  0  0  0
    5.7192   18.9918   29.0626 H   0  0  0  0  0  0  0  0  0  0  0  0
    3.9303   19.1546   29.0626 H   0  0  0  0  0  0  0  0  0  0  0  0
    7.2792   17.3229   29.8405 H   0  0  0  0  0  0  0  0  0  0  0  0
    5.5357   13.3144   32.3289 H   0  0  0  0  0  0  0  0  0  0  0  0
    4.0672   14.5227   30.6924 H   0  0  0  0  0  0  0  0  0  0  0  0
   11.8517   14.0889   35.7621 H   0  0  0  0  0  0  0  0  0  0  0  0
   13.1130   13.8772   34.4880 H   0  0  0  0  0  0  0  0  0  0  0  0
   13.4276   15.2495   37.7264 H   0  0  0  0  0  0  0  0  0  0  0  0
   13.0821   19.4074   33.5504 H   0  0  0  0  0  0  0  0  0  0  0  0
   14.6032   21.4925   32.8091 H   0  0  0  0  0  0  0  0  0  0  0  0
   16.9204   21.3000   34.1023 H   0  0  0  0  0  0  0  0  0  0  0  0
   16.8319   19.1015   35.6351 H   0  0  0  0  0  0  0  0  0  0  0  0
   10.1820   13.3895   34.2604 H   0  0  0  0  0  0  0  0  0  0  0  0
 25  1  1  1
  2  3  2  0
  2  7  1  0
  2 25  1  0
  3  4  1  0
  4  5  2  0
  4 26  1  0
  5  6  1  0
  5 18  1  0
  6  7  2  0
  8 18  2  0
  8 19  1  0
  8 26  1  0
  9 10  1  0
  9 19  1  0
  9 22  2  0
 10 11  1  0
 11 12  2  0
 11 21  1  0
 12 27  1  0
 13 20  1  0
 13 21  2  0
 13 27  1  0
 14 15  2  0
 14 20  1  0
 15 16  1  0
 16 17  2  0
 17 20  1  0
 23 25  2  0
 24 25  2  0
  1 28  1  0
  1 29  1  0
  1 30  1  0
  3 31  1  0
  6 32  1  0
  7 33  1  0
 10 34  1  0
 10 35  1  0
 12 36  1  0
 14 37  1  0
 15 38  1  0
 16 39  1  0
 17 40  1  0
 19 41  1  0
M  END
>  <filename_input>  (10) 
7L00_XCJ_docked.sdf

>  <pdb_id>  (10) 
7L00_XCJ

>  <pose_rank>  (10) 
9

>  <num_atoms_heavy>  (10) 
27

>  <num_torsions>  (10) 
3

>  <pose>  (10) 
[5.636088220033441, 15.95595261070051, 30.20864728898388, 1.6800648875483464, 1.613407617650662, -2.4866468359432528, -0.10644271876842636, -10.744737729988946, 4.420061401896248]

>  <energy>  (10) 
-560.8423392246384

>  <inter_energy>  (10) 
-587.3959805017594

>  <intra_energy>  (10) 
27.811378578442465

>  <rmsd>  (10) 
9.72423

>  <sdf_rank>  (10) 
0

$$$$

     RDKit          3D

 41 44  0  0  0  0  0  0  0  0999 V2000
    4.6412   15.5441   28.8766 C   0  0  0  0  0  0  0  0  0  0  0  0
    6.3334   14.7019   31.0349 C   0  0  0  0  0  0  0  0  0  0  0  0
    6.5145   14.6844   32.4086 C   0  0  0  0  0  0  0  0  0  0  0  0
    7.8093   14.6625   32.8882 C   0  0  0  0  0  0  0  0  0  0  0  0
    8.8594   14.6587   31.9614 C   0  0  0  0  0  0  0  0  0  0  0  0
    8.6619   14.6690   30.5644 C   0  0  0  0  0  0  0  0  0  0  0  0
    7.3693   14.6884   30.0964 C   0  0  0  0  0  0  0  0  0  0  0  0
   10.0597   14.6499   33.8506 C   0  0  0  0  0  0  0  0  0  0  0  0
   11.1583   14.3216   36.0180 C   0  0  0  0  0  0  0  0  0  0  0  0
   12.4893   14.1466   36.7083 C   0  0  0  0  0  0  0  0  0  0  0  0
   13.5528   14.9663   36.0281 C   0  0  0  0  0  0  0  0  0  0  0  0
   14.6128   14.5310   35.1844 C   0  0  0  0  0  0  0  0  0  0  0  0
   14.5914   16.9550   35.5078 C   0  0  0  0  0  0  0  0  0  0  0  0
   14.7756   19.0668   36.6910 C   0  0  0  0  0  0  0  0  0  0  0  0
   15.0845   20.3684   36.3620 C   0  0  0  0  0  0  0  0  0  0  0  0
   15.3305   20.4109   35.0171 C   0  0  0  0  0  0  0  0  0  0  0  0
   15.1749   19.1416   34.5091 C   0  0  0  0  0  0  0  0  0  0  0  0
   10.1739   14.6380   32.5015 N   0  0  0  0  0  0  0  0  0  0  0  0
   11.2416   14.5588   34.6086 N   0  0  0  0  0  0  0  0  0  0  0  0
   14.8380   18.3627   35.5493 N   0  0  0  0  0  0  0  0  0  0  0  0
   13.5550   16.3953   36.2124 N   0  0  0  0  0  0  0  0  0  0  0  0
   10.1222   14.2741   36.5917 O   0  0  0  0  0  0  0  0  0  0  0  0
    4.1238   13.3289   30.3507 O   0  0  0  0  0  0  0  0  0  0  0  0
    3.7643   15.3560   31.4387 O   0  0  0  0  0  0  0  0  0  0  0  0
    4.6436   14.7073   30.4720 S   0  0  2  0  0  0  0  0  0  0  0  0
    8.4658   14.6553   34.4135 S   0  0  0  0  0  0  0  0  0  0  0  0
   15.4657   15.8174   34.7205 S   0  0  0  0  0  0  0  0  0  0  0  0
    4.6381   16.6328   29.0336 H   0  0  0  0  0  0  0  0  0  0  0  0
    5.5401   15.2577   28.3110 H   0  0  0  0  0  0  0  0  0  0  0  0
    3.7439   15.2526   28.3110 H   0  0  0  0  0  0  0  0  0  0  0  0
    5.6547   14.6879   33.0947 H   0  0  0  0  0  0  0  0  0  0  0  0
    9.5158   14.6618   29.8711 H   0  0  0  0  0  0  0  0  0  0  0  0
    7.1569   14.6931   29.0171 H   0  0  0  0  0  0  0  0  0  0  0  0
   12.3984   14.4704   37.7556 H   0  0  0  0  0  0  0  0  0  0  0  0
   12.7758   13.0856   36.6605 H   0  0  0  0  0  0  0  0  0  0  0  0
   14.8163   13.4890   34.8966 H   0  0  0  0  0  0  0  0  0  0  0  0
   14.5272   18.6809   37.6906 H   0  0  0  0  0  0  0  0  0  0  0  0
   15.1259   21.2206   37.0563 H   0  0  0  0  0  0  0  0  0  0  0  0
   15.6056   21.3064   34.4406 H   0  0  0  0  0  0  0  0  0  0  0  0
   15.3011   18.8284   33.4622 H   0  0  0  0  0  0  0  0  0  0  0  0
   12.1596   14.6619   34.1530 H   0  0  0  0  0  0  0  0  0  0  0  0
 25  1  1  6
  2  3  2  0
  2  7  1  0
  2 25  1  0
  3  4  1  0
  4  5  2  0
  4 26  1  0
  5  6  1  0
  5 18  1  0
  6  7  2  0
  8 18  2  0
  8 19  1  0
  8 26  1  0
  9 10  1  0
  9 19  1  0
  9 22  2  0
 10 11  1  0
 11 12  2  0
 11 21  1  0
 12 27  1  0
 13 20  1  0
 13 21  2  0
 13 27  1  0
 14 15  2  0
 14 20  1  0
 15 16  1  0
 16 17  2  0
 17 20  1  0
 23 25  2  0
 24 25  2  0
  1 28  1  0
  1 29  1  0
  1 30  1  0
  3 31  1  0
  6 32  1  0
  7 33  1  0
 10 34  1  0
 10 35  1  0
 12 36  1  0
 14 37  1  0
 15 38  1  0
 16 39  1  0
 17 40  1  0
 19 41  1  0
M  END
>  <filename_input>  (11) 
7L00_XCJ_docked.sdf

>  <pdb_id>  (11) 
7L00_XCJ

>  <pose_rank>  (11) 
10

>  <num_atoms_heavy>  (11) 
27

>  <num_torsions>  (11) 
3

>  <pose>  (11) 
[6.333441323619656, 14.70192160830923, 31.03489252697393, -0.15987736897710697, 2.959605436616246, -0.013396896784185732, 3.381802285645701, -1.2428371601469566, 0.0860488260470622]

>  <energy>  (11) 
-584.6689327015707

>  <inter_energy>  (11) 
-591.0080531549967

>  <intra_energy>  (11) 
4.062332983460246

>  <rmsd>  (11) 
9.84257

>  <sdf_rank>  (11) 
0

$$$$

     RDKit          3D

 41 44  0  0  0  0  0  0  0  0999 V2000
    4.8994   17.9902   25.0543 C   0  0  0  0  0  0  0  0  0  0  0  0
    5.7632   16.7961   27.5159 C   0  0  0  0  0  0  0  0  0  0  0  0
    5.8752   15.7355   28.4007 C   0  0  0  0  0  0  0  0  0  0  0  0
    6.5354   15.9574   29.5931 C   0  0  0  0  0  0  0  0  0  0  0  0
    7.0515   17.2364   29.8369 C   0  0  0  0  0  0  0  0  0  0  0  0
    6.9376   18.3064   28.9243 C   0  0  0  0  0  0  0  0  0  0  0  0
    6.2808   18.0753   27.7389 C   0  0  0  0  0  0  0  0  0  0  0  0
    7.6614   16.2427   31.7475 C   0  0  0  0  0  0  0  0  0  0  0  0
    8.5005   14.8821   33.6068 C   0  0  0  0  0  0  0  0  0  0  0  0
    9.3130   14.9049   34.8789 C   0  0  0  0  0  0  0  0  0  0  0  0
   10.7793   14.7508   34.5760 C   0  0  0  0  0  0  0  0  0  0  0  0
   11.3997   14.1073   33.4689 C   0  0  0  0  0  0  0  0  0  0  0  0
   13.0137   15.0713   35.0330 C   0  0  0  0  0  0  0  0  0  0  0  0
   14.2379   15.3542   37.1103 C   0  0  0  0  0  0  0  0  0  0  0  0
   15.4703   15.8463   37.4802 C   0  0  0  0  0  0  0  0  0  0  0  0
   16.1067   16.2710   36.3464 C   0  0  0  0  0  0  0  0  0  0  0  0
   15.2746   16.0456   35.2738 C   0  0  0  0  0  0  0  0  0  0  0  0
    7.7207   17.4178   31.0776 N   0  0  0  0  0  0  0  0  0  0  0  0
    8.3276   16.1595   32.9840 N   0  0  0  0  0  0  0  0  0  0  0  0
   14.1585   15.4952   35.7773 N   0  0  0  0  0  0  0  0  0  0  0  0
   11.7419   15.3105   35.4904 N   0  0  0  0  0  0  0  0  0  0  0  0
    8.0340   13.8899   33.1562 O   0  0  0  0  0  0  0  0  0  0  0  0
    5.6170   15.3822   25.2321 O   0  0  0  0  0  0  0  0  0  0  0  0
    3.5811   15.9251   26.2233 O   0  0  0  0  0  0  0  0  0  0  0  0
    4.9221   16.4477   25.9850 S   0  0  2  0  0  0  0  0  0  0  0  0
    6.8737   15.0037   30.9097 S   0  0  0  0  0  0  0  0  0  0  0  0
   12.9988   14.2306   33.6289 S   0  0  0  0  0  0  0  0  0  0  0  0
    4.8869   18.8397   25.7529 H   0  0  0  0  0  0  0  0  0  0  0  0
    5.7968   18.0495   24.4209 H   0  0  0  0  0  0  0  0  0  0  0  0
    4.0007   18.0230   24.4209 H   0  0  0  0  0  0  0  0  0  0  0  0
    5.4519   14.7489   28.1610 H   0  0  0  0  0  0  0  0  0  0  0  0
    7.3613   19.2951   29.1543 H   0  0  0  0  0  0  0  0  0  0  0  0
    6.1661   18.8722   26.9893 H   0  0  0  0  0  0  0  0  0  0  0  0
    9.1494   15.8625   35.3948 H   0  0  0  0  0  0  0  0  0  0  0  0
    8.9938   14.0681   35.5176 H   0  0  0  0  0  0  0  0  0  0  0  0
   10.8749   13.6083   32.6409 H   0  0  0  0  0  0  0  0  0  0  0  0
   13.4710   14.9300   37.7750 H   0  0  0  0  0  0  0  0  0  0  0  0
   15.8707   15.8899   38.5038 H   0  0  0  0  0  0  0  0  0  0  0  0
   17.1114   16.7163   36.3000 H   0  0  0  0  0  0  0  0  0  0  0  0
   15.4821   16.2710   34.2173 H   0  0  0  0  0  0  0  0  0  0  0  0
    8.6882   17.0110   33.4376 H   0  0  0  0  0  0  0  0  0  0  0  0
 25  1  1  6
  2  3  2  0
  2  7  1  0
  2 25  1  0
  3  4  1  0
  4  5  2  0
  4 26  1  0
  5  6  1  0
  5 18  1  0
  6  7  2  0
  8 18  2  0
  8 19  1  0
  8 26  1  0
  9 10  1  0
  9 19  1  0
  9 22  2  0
 10 11  1  0
 11 12  2  0
 11 21  1  0
 12 27  1  0
 13 20  1  0
 13 21  2  0
 13 27  1  0
 14 15  2  0
 14 20  1  0
 15 16  1  0
 16 17  2  0
 17 20  1  0
 23 25  2  0
 24 25  2  0
  1 28  1  0
  1 29  1  0
  1 30  1  0
  3 31  1  0
  6 32  1  0
  7 33  1  0
 10 34  1  0
 10 35  1  0
 12 36  1  0
 14 37  1  0
 15 38  1  0
 16 39  1  0
 17 40  1  0
 19 41  1  0
M  END
>  <filename_input>  (12) 
7L00_XCJ_docked.sdf

>  <pdb_id>  (12) 
7L00_XCJ

>  <pose_rank>  (12) 
11

>  <num_atoms_heavy>  (12) 
27

>  <num_torsions>  (12) 
3

>  <pose>  (12) 
[5.763235964831071, 16.796070862313442, 27.51588107296802, -1.1688454435240638, 1.8711296380514242, 1.127857024549844, -2.4254041973084224, 2.9488980985365862, 1.4645435468363832]

>  <energy>  (12) 
-587.7650810237316

>  <inter_energy>  (12) 
-586.2616380265375

>  <intra_energy>  (12) 
1.3591493415337923

>  <rmsd>  (12) 
10.2235

>  <sdf_rank>  (12) 
0

$$$$

     RDKit          3D

 41 44  0  0  0  0  0  0  0  0999 V2000
    5.3553   19.6180   22.9724 C   0  0  0  0  0  0  0  0  0  0  0  0
    5.5145   20.3800   25.7338 C   0  0  0  0  0  0  0  0  0  0  0  0
    5.0887   19.1053   26.0714 C   0  0  0  0  0  0  0  0  0  0  0  0
    5.4604   18.6066   27.3044 C   0  0  0  0  0  0  0  0  0  0  0  0
    6.2434   19.4154   28.1377 C   0  0  0  0  0  0  0  0  0  0  0  0
    6.6771   20.7093   27.7792 C   0  0  0  0  0  0  0  0  0  0  0  0
    6.3041   21.1962   26.5488 C   0  0  0  0  0  0  0  0  0  0  0  0
    6.0371   17.6318   29.4742 C   0  0  0  0  0  0  0  0  0  0  0  0
    5.9499   15.4706   30.6290 C   0  0  0  0  0  0  0  0  0  0  0  0
    6.3848   14.7166   31.8624 C   0  0  0  0  0  0  0  0  0  0  0  0
    7.8839   14.7372   31.9971 C   0  0  0  0  0  0  0  0  0  0  0  0
    8.8732   14.6606   30.9773 C   0  0  0  0  0  0  0  0  0  0  0  0
    9.8329   14.8598   33.2178 C   0  0  0  0  0  0  0  0  0  0  0  0
   10.3862   14.2147   35.4919 C   0  0  0  0  0  0  0  0  0  0  0  0
   11.3810   14.5128   36.3970 C   0  0  0  0  0  0  0  0  0  0  0  0
   12.2301   15.4060   35.8035 C   0  0  0  0  0  0  0  0  0  0  0  0
   11.7665   15.6647   34.5339 C   0  0  0  0  0  0  0  0  0  0  0  0
    6.5996   18.8610   29.3970 N   0  0  0  0  0  0  0  0  0  0  0  0
    6.3155   16.8546   30.6136 N   0  0  0  0  0  0  0  0  0  0  0  0
   10.6529   14.9296   34.3870 N   0  0  0  0  0  0  0  0  0  0  0  0
    8.4636   14.8504   33.3113 N   0  0  0  0  0  0  0  0  0  0  0  0
    5.3477   14.9650   29.7421 O   0  0  0  0  0  0  0  0  0  0  0  0
    3.5946   21.3364   24.1104 O   0  0  0  0  0  0  0  0  0  0  0  0
    5.7346   22.1866   23.7643 O   0  0  0  0  0  0  0  0  0  0  0  0
    5.0249   20.9637   24.1238 S   0  0  2  0  0  0  0  0  0  0  0  0
    5.1652   17.1786   28.0988 S   0  0  0  0  0  0  0  0  0  0  0  0
   10.3298   14.7272   31.6641 S   0  0  0  0  0  0  0  0  0  0  0  0
    5.5805   18.7004   23.5357 H   0  0  0  0  0  0  0  0  0  0  0  0
    4.4712   19.4518   22.3392 H   0  0  0  0  0  0  0  0  0  0  0  0
    6.2157   19.8801   22.3392 H   0  0  0  0  0  0  0  0  0  0  0  0
    4.4746   18.5099   25.3798 H   0  0  0  0  0  0  0  0  0  0  0  0
    7.2947   21.3099   28.4631 H   0  0  0  0  0  0  0  0  0  0  0  0
    6.6173   22.1968   26.2161 H   0  0  0  0  0  0  0  0  0  0  0  0
    5.9360   15.1866   32.7499 H   0  0  0  0  0  0  0  0  0  0  0  0
    6.0518   13.6720   31.7743 H   0  0  0  0  0  0  0  0  0  0  0  0
    8.6765   14.5708   29.8987 H   0  0  0  0  0  0  0  0  0  0  0  0
    9.5411   13.5272   35.6441 H   0  0  0  0  0  0  0  0  0  0  0  0
   11.4756   14.1056   37.4144 H   0  0  0  0  0  0  0  0  0  0  0  0
   13.1293   15.8427   36.2625 H   0  0  0  0  0  0  0  0  0  0  0  0
   12.2174   16.3378   33.7899 H   0  0  0  0  0  0  0  0  0  0  0  0
    6.7787   17.2782   31.4302 H   0  0  0  0  0  0  0  0  0  0  0  0
 25  1  1  6
  2  3  2  0
  2  7  1  0
  2 25  1  0
  3  4  1  0
  4  5  2  0
  4 26  1  0
  5  6  1  0
  5 18  1  0
  6  7  2  0
  8 18  2  0
  8 19  1  0
  8 26  1  0
  9 10  1  0
  9 19  1  0
  9 22  2  0
 10 11  1  0
 11 12  2  0
 11 21  1  0
 12 27  1  0
 13 20  1  0
 13 21  2  0
 13 27  1  0
 14 15  2  0
 14 20  1  0
 15 16  1  0
 16 17  2  0
 17 20  1  0
 23 25  2  0
 24 25  2  0
  1 28  1  0
  1 29  1  0
  1 30  1  0
  3 31  1  0
  6 32  1  0
  7 33  1  0
 10 34  1  0
 10 35  1  0
 12 36  1  0
 14 37  1  0
 15 38  1  0
 16 39  1  0
 17 40  1  0
 19 41  1  0
M  END
>  <filename_input>  (13) 
7L00_XCJ_docked.sdf

>  <pdb_id>  (13) 
7L00_XCJ

>  <pose_rank>  (13) 
12

>  <num_atoms_heavy>  (13) 
27

>  <num_torsions>  (13) 
3

>  <pose>  (13) 
[5.514459343827874, 20.37997275757437, 25.73379168312855, 1.4211402818912213, -3.279176272536468, -2.391486831075276, -0.0718629268341586, -2.8561054689838707, 1.2846999689426593]

>  <energy>  (13) 
-549.7234250479127

>  <inter_energy>  (13) 
-548.6497644004419

>  <intra_energy>  (13) 
2.893439142654834

>  <rmsd>  (13) 
10.1675

>  <sdf_rank>  (13) 
0

$$$$

     RDKit          3D

 41 44  0  0  0  0  0  0  0  0999 V2000
    5.6866   23.4812   25.5632 C   0  0  0  0  0  0  0  0  0  0  0  0
    5.1990   21.5766   27.6528 C   0  0  0  0  0  0  0  0  0  0  0  0
    4.7452   20.2727   27.5346 C   0  0  0  0  0  0  0  0  0  0  0  0
    5.3499   19.3062   28.3140 C   0  0  0  0  0  0  0  0  0  0  0  0
    6.3827   19.6993   29.1745 C   0  0  0  0  0  0  0  0  0  0  0  0
    6.8410   21.0296   29.2802 C   0  0  0  0  0  0  0  0  0  0  0  0
    6.2346   21.9843   28.4986 C   0  0  0  0  0  0  0  0  0  0  0  0
    6.3296   17.5162   29.6655 C   0  0  0  0  0  0  0  0  0  0  0  0
    6.3123   15.0687   29.8122 C   0  0  0  0  0  0  0  0  0  0  0  0
    6.9535   13.8714   30.4710 C   0  0  0  0  0  0  0  0  0  0  0  0
    7.5475   14.2511   31.8010 C   0  0  0  0  0  0  0  0  0  0  0  0
    6.9517   14.2006   33.0922 C   0  0  0  0  0  0  0  0  0  0  0  0
    9.2558   15.0188   33.1412 C   0  0  0  0  0  0  0  0  0  0  0  0
   11.1175   16.5205   32.7251 C   0  0  0  0  0  0  0  0  0  0  0  0
   12.3272   16.7957   33.3237 C   0  0  0  0  0  0  0  0  0  0  0  0
   12.4481   15.9783   34.4138 C   0  0  0  0  0  0  0  0  0  0  0  0
   11.3189   15.1959   34.4944 C   0  0  0  0  0  0  0  0  0  0  0  0
    6.9732   18.6711   29.9580 N   0  0  0  0  0  0  0  0  0  0  0  0
    6.7950   16.3354   30.2727 N   0  0  0  0  0  0  0  0  0  0  0  0
   10.5443   15.5517   33.4573 N   0  0  0  0  0  0  0  0  0  0  0  0
    8.9027   14.7382   31.8449 N   0  0  0  0  0  0  0  0  0  0  0  0
    5.4706   14.9757   28.9828 O   0  0  0  0  0  0  0  0  0  0  0  0
    3.3391   22.1456   25.7946 O   0  0  0  0  0  0  0  0  0  0  0  0
    3.7106   23.7927   27.3982 O   0  0  0  0  0  0  0  0  0  0  0  0
    4.3990   22.7774   26.6085 S   0  0  2  0  0  0  0  0  0  0  0  0
    5.1161   17.6727   28.4992 S   0  0  0  0  0  0  0  0  0  0  0  0
    8.0248   14.7192   34.1772 S   0  0  0  0  0  0  0  0  0  0  0  0
    6.4766   23.9130   26.1952 H   0  0  0  0  0  0  0  0  0  0  0  0
    6.1154   22.6920   24.9282 H   0  0  0  0  0  0  0  0  0  0  0  0
    5.2539   24.2682   24.9282 H   0  0  0  0  0  0  0  0  0  0  0  0
    3.9299   20.0158   26.8424 H   0  0  0  0  0  0  0  0  0  0  0  0
    7.6584   21.2946   29.9670 H   0  0  0  0  0  0  0  0  0  0  0  0
    6.5544   23.0361   28.5376 H   0  0  0  0  0  0  0  0  0  0  0  0
    6.1919   13.0927   30.6247 H   0  0  0  0  0  0  0  0  0  0  0  0
    7.7563   13.4965   29.8191 H   0  0  0  0  0  0  0  0  0  0  0  0
    5.9282   13.8634   33.3132 H   0  0  0  0  0  0  0  0  0  0  0  0
   10.7031   16.9993   31.8256 H   0  0  0  0  0  0  0  0  0  0  0  0
   13.0639   17.5393   32.9858 H   0  0  0  0  0  0  0  0  0  0  0  0
   13.3016   15.9511   35.1072 H   0  0  0  0  0  0  0  0  0  0  0  0
   11.0961   14.4331   35.2550 H   0  0  0  0  0  0  0  0  0  0  0  0
    7.4777   16.3819   31.0425 H   0  0  0  0  0  0  0  0  0  0  0  0
 25  1  1  6
  2  3  2  0
  2  7  1  0
  2 25  1  0
  3  4  1  0
  4  5  2  0
  4 26  1  0
  5  6  1  0
  5 18  1  0
  6  7  2  0
  8 18  2  0
  8 19  1  0
  8 26  1  0
  9 10  1  0
  9 19  1  0
  9 22  2  0
 10 11  1  0
 11 12  2  0
 11 21  1  0
 12 27  1  0
 13 20  1  0
 13 21  2  0
 13 27  1  0
 14 15  2  0
 14 20  1  0
 15 16  1  0
 16 17  2  0
 17 20  1  0
 23 25  2  0
 24 25  2  0
  1 28  1  0
  1 29  1  0
  1 30  1  0
  3 31  1  0
  6 32  1  0
  7 33  1  0
 10 34  1  0
 10 35  1  0
 12 36  1  0
 14 37  1  0
 15 38  1  0
 16 39  1  0
 17 40  1  0
 19 41  1  0
M  END
>  <filename_input>  (14) 
7L00_XCJ_docked.sdf

>  <pdb_id>  (14) 
7L00_XCJ

>  <pose_rank>  (14) 
13

>  <num_atoms_heavy>  (14) 
27

>  <num_torsions>  (14) 
3

>  <pose>  (14) 
[5.199009328421582, 21.576632781086555, 27.652823533511583, -0.1852150112579099, 1.4245874479979206, 1.4665184021217295, -1.358636204852189, -1.4108769886930008, -2.744250767356831]

>  <energy>  (14) 
-519.2146527018426

>  <inter_energy>  (14) 
-526.5746952455023

>  <intra_energy>  (14) 
8.988286803280587

>  <rmsd>  (14) 
9.56207

>  <sdf_rank>  (14) 
0

$$$$

     RDKit          3D

 41 44  0  0  0  0  0  0  0  0999 V2000
    4.5918   18.0103   29.7778 C   0  0  0  0  0  0  0  0  0  0  0  0
    6.8914   16.4373   30.4623 C   0  0  0  0  0  0  0  0  0  0  0  0
    7.5092   17.6619   30.2653 C   0  0  0  0  0  0  0  0  0  0  0  0
    8.8151   17.8016   30.6921 C   0  0  0  0  0  0  0  0  0  0  0  0
    9.4358   16.7015   31.2973 C   0  0  0  0  0  0  0  0  0  0  0  0
    8.7932   15.4617   31.4992 C   0  0  0  0  0  0  0  0  0  0  0  0
    7.4925   15.3329   31.0732 C   0  0  0  0  0  0  0  0  0  0  0  0
   11.1360   18.1546   31.3845 C   0  0  0  0  0  0  0  0  0  0  0  0
   12.7404   19.9881   31.6610 C   0  0  0  0  0  0  0  0  0  0  0  0
   14.1018   20.3610   32.1959 C   0  0  0  0  0  0  0  0  0  0  0  0
   14.4191   19.5726   33.4382 C   0  0  0  0  0  0  0  0  0  0  0  0
   15.0511   20.0093   34.6360 C   0  0  0  0  0  0  0  0  0  0  0  0
   14.4232   17.6466   34.7011 C   0  0  0  0  0  0  0  0  0  0  0  0
   14.4578   15.2940   34.1028 C   0  0  0  0  0  0  0  0  0  0  0  0
   14.1572   14.1037   34.7275 C   0  0  0  0  0  0  0  0  0  0  0  0
   13.7329   14.3939   35.9950 C   0  0  0  0  0  0  0  0  0  0  0  0
   13.7678   15.7596   36.1601 C   0  0  0  0  0  0  0  0  0  0  0  0
   10.7799   16.8916   31.7183 N   0  0  0  0  0  0  0  0  0  0  0  0
   12.4137   18.5987   31.7718 N   0  0  0  0  0  0  0  0  0  0  0  0
   14.2072   16.2645   34.9964 N   0  0  0  0  0  0  0  0  0  0  0  0
   14.0584   18.1786   33.4896 N   0  0  0  0  0  0  0  0  0  0  0  0
   11.9974   20.7766   31.1802 O   0  0  0  0  0  0  0  0  0  0  0  0
    5.1158   15.6184   28.6150 O   0  0  0  0  0  0  0  0  0  0  0  0
    4.4002   15.5147   30.8285 O   0  0  0  0  0  0  0  0  0  0  0  0
    5.2011   16.3203   29.9131 S   0  0  2  0  0  0  0  0  0  0  0  0
    9.9098   19.0491   30.6404 S   0  0  0  0  0  0  0  0  0  0  0  0
   15.1462   18.7635   35.6542 S   0  0  0  0  0  0  0  0  0  0  0  0
    4.4414   18.4276   30.7844 H   0  0  0  0  0  0  0  0  0  0  0  0
    5.3259   18.6223   29.2332 H   0  0  0  0  0  0  0  0  0  0  0  0
    3.6361   18.0131   29.2332 H   0  0  0  0  0  0  0  0  0  0  0  0
    6.9767   18.4957   29.7844 H   0  0  0  0  0  0  0  0  0  0  0  0
    9.3170   14.6239   31.9827 H   0  0  0  0  0  0  0  0  0  0  0  0
    6.9419   14.3903   31.2088 H   0  0  0  0  0  0  0  0  0  0  0  0
   14.8616   20.1484   31.4294 H   0  0  0  0  0  0  0  0  0  0  0  0
   14.1023   21.4320   32.4468 H   0  0  0  0  0  0  0  0  0  0  0  0
   15.4145   21.0285   34.8342 H   0  0  0  0  0  0  0  0  0  0  0  0
   14.8294   15.4239   33.0756 H   0  0  0  0  0  0  0  0  0  0  0  0
   14.2430   13.0998   34.2861 H   0  0  0  0  0  0  0  0  0  0  0  0
   13.4178   13.6612   36.7525 H   0  0  0  0  0  0  0  0  0  0  0  0
   13.4915   16.3237   37.0632 H   0  0  0  0  0  0  0  0  0  0  0  0
   13.1086   17.9293   32.1322 H   0  0  0  0  0  0  0  0  0  0  0  0
 25  1  1  6
  2  3  2  0
  2  7  1  0
  2 25  1  0
  3  4  1  0
  4  5  2  0
  4 26  1  0
  5  6  1  0
  5 18  1  0
  6  7  2  0
  8 18  2  0
  8 19  1  0
  8 26  1  0
  9 10  1  0
  9 19  1  0
  9 22  2  0
 10 11  1  0
 11 12  2  0
 11 21  1  0
 12 27  1  0
 13 20  1  0
 13 21  2  0
 13 27  1  0
 14 15  2  0
 14 20  1  0
 15 16  1  0
 16 17  2  0
 17 20  1  0
 23 25  2  0
 24 25  2  0
  1 28  1  0
  1 29  1  0
  1 30  1  0
  3 31  1  0
  6 32  1  0
  7 33  1  0
 10 34  1  0
 10 35  1  0
 12 36  1  0
 14 37  1  0
 15 38  1  0
 16 39  1  0
 17 40  1  0
 19 41  1  0
M  END
>  <filename_input>  (15) 
7L00_XCJ_docked.sdf

>  <pdb_id>  (15) 
7L00_XCJ

>  <pose_rank>  (15) 
14

>  <num_atoms_heavy>  (15) 
27

>  <num_torsions>  (15) 
3

>  <pose>  (15) 
[6.891401072297546, 16.43731046843395, 30.46234644671499, -0.426044413264944, -1.8880983618863483, 2.555923826763729, 0.3890736488699643, -2.453595317399448, -0.4986185527763132]

>  <energy>  (15) 
-449.0069944220993

>  <inter_energy>  (15) 
-489.87261129259093

>  <intra_energy>  (15) 
42.429853021314024

>  <rmsd>  (15) 
9.91536

>  <sdf_rank>  (15) 
0

$$$$

     RDKit          3D

 41 44  0  0  0  0  0  0  0  0999 V2000
    2.8980   16.3578   30.6368 C   0  0  0  0  0  0  0  0  0  0  0  0
    4.8346   17.7851   29.0735 C   0  0  0  0  0  0  0  0  0  0  0  0
    6.1207   17.8730   29.5817 C   0  0  0  0  0  0  0  0  0  0  0  0
    6.7843   19.0772   29.4526 C   0  0  0  0  0  0  0  0  0  0  0  0
    6.1210   20.1347   28.8174 C   0  0  0  0  0  0  0  0  0  0  0  0
    4.8136   20.0303   28.2972 C   0  0  0  0  0  0  0  0  0  0  0  0
    4.1619   18.8269   28.4283 C   0  0  0  0  0  0  0  0  0  0  0  0
    8.0450   21.1699   29.3037 C   0  0  0  0  0  0  0  0  0  0  0  0
   10.3263   22.0002   29.6478 C   0  0  0  0  0  0  0  0  0  0  0  0
   11.2458   23.1829   29.4623 C   0  0  0  0  0  0  0  0  0  0  0  0
   12.0410   23.4396   30.7142 C   0  0  0  0  0  0  0  0  0  0  0  0
   12.4403   24.6830   31.2793 C   0  0  0  0  0  0  0  0  0  0  0  0
   13.1844   22.7600   32.5944 C   0  0  0  0  0  0  0  0  0  0  0  0
   14.4227   20.7388   33.1188 C   0  0  0  0  0  0  0  0  0  0  0  0
   14.8614   20.1089   34.2626 C   0  0  0  0  0  0  0  0  0  0  0  0
   14.4579   20.8596   35.3325 C   0  0  0  0  0  0  0  0  0  0  0  0
   13.7696   21.9527   34.8582 C   0  0  0  0  0  0  0  0  0  0  0  0
    6.8424   21.3544   28.7096 N   0  0  0  0  0  0  0  0  0  0  0  0
    8.9688   22.2299   29.2553 N   0  0  0  0  0  0  0  0  0  0  0  0
   13.7687   21.8407   33.5204 N   0  0  0  0  0  0  0  0  0  0  0  0
   12.4893   22.3162   31.4972 N   0  0  0  0  0  0  0  0  0  0  0  0
   10.6905   20.9620   30.0889 O   0  0  0  0  0  0  0  0  0  0  0  0
    3.3152   15.8369   28.0095 O   0  0  0  0  0  0  0  0  0  0  0  0
    5.0086   15.1351   29.4455 O   0  0  0  0  0  0  0  0  0  0  0  0
    4.0348   16.2032   29.2477 S   0  0  2  0  0  0  0  0  0  0  0  0
    8.2848   19.6140   29.9193 S   0  0  0  0  0  0  0  0  0  0  0  0
   13.2748   24.3938   32.6276 S   0  0  0  0  0  0  0  0  0  0  0  0
    3.4590   16.2815   31.5799 H   0  0  0  0  0  0  0  0  0  0  0  0
    2.3915   17.3331   30.5893 H   0  0  0  0  0  0  0  0  0  0  0  0
    2.1494   15.5532   30.5893 H   0  0  0  0  0  0  0  0  0  0  0  0
    6.5976   17.0116   30.0721 H   0  0  0  0  0  0  0  0  0  0  0  0
    4.3306   20.8855   27.8019 H   0  0  0  0  0  0  0  0  0  0  0  0
    3.1430   18.6881   28.0377 H   0  0  0  0  0  0  0  0  0  0  0  0
   11.9366   22.9764   28.6316 H   0  0  0  0  0  0  0  0  0  0  0  0
   10.6378   24.0724   29.2407 H   0  0  0  0  0  0  0  0  0  0  0  0
   12.2165   25.6769   30.8647 H   0  0  0  0  0  0  0  0  0  0  0  0
   14.5775   20.4053   32.0821 H   0  0  0  0  0  0  0  0  0  0  0  0
   15.4336   19.1705   34.3076 H   0  0  0  0  0  0  0  0  0  0  0  0
   14.6506   20.6290   36.3906 H   0  0  0  0  0  0  0  0  0  0  0  0
   13.3125   22.7560   35.4547 H   0  0  0  0  0  0  0  0  0  0  0  0
    8.6708   23.1641   28.9399 H   0  0  0  0  0  0  0  0  0  0  0  0
 25  1  1  1
  2  3  2  0
  2  7  1  0
  2 25  1  0
  3  4  1  0
  4  5  2  0
  4 26  1  0
  5  6  1  0
  5 18  1  0
  6  7  2  0
  8 18  2  0
  8 19  1  0
  8 26  1  0
  9 10  1  0
  9 19  1  0
  9 22  2  0
 10 11  1  0
 11 12  2  0
 11 21  1  0
 12 27  1  0
 13 20  1  0
 13 21  2  0
 13 27  1  0
 14 15  2  0
 14 20  1  0
 15 16  1  0
 16 17  2  0
 17 20  1  0
 23 25  2  0
 24 25  2  0
  1 28  1  0
  1 29  1  0
  1 30  1  0
  3 31  1  0
  6 32  1  0
  7 33  1  0
 10 34  1  0
 10 35  1  0
 12 36  1  0
 14 37  1  0
 15 38  1  0
 16 39  1  0
 17 40  1  0
 19 41  1  0
M  END
>  <filename_input>  (16) 
7L00_XCJ_docked.sdf

>  <pdb_id>  (16) 
7L00_XCJ

>  <pose_rank>  (16) 
15

>  <num_atoms_heavy>  (16) 
27

>  <num_torsions>  (16) 
3

>  <pose>  (16) 
[4.834589938278782, 17.785099259155643, 29.07353192671893, -2.0102359621116026, 2.8121866384748935, 1.6421204066942927, 2.505821176052005, 0.4864095651462528, -0.5693061974735714]

>  <energy>  (16) 
-304.05526132677085

>  <inter_energy>  (16) 
-325.2897815676418

>  <intra_energy>  (16) 
21.38525953417168

>  <rmsd>  (16) 
10.8622

>  <sdf_rank>  (16) 
0

$$$$

     RDKit          3D

 41 44  0  0  0  0  0  0  0  0999 V2000
   11.1262   25.4142   30.2426 C   0  0  0  0  0  0  0  0  0  0  0  0
   12.1631   22.7531   29.9688 C   0  0  0  0  0  0  0  0  0  0  0  0
   11.1593   21.7984   30.0007 C   0  0  0  0  0  0  0  0  0  0  0  0
   11.4073   20.6244   30.6843 C   0  0  0  0  0  0  0  0  0  0  0  0
   12.6544   20.4682   31.3024 C   0  0  0  0  0  0  0  0  0  0  0  0
   13.6715   21.4450   31.2563 C   0  0  0  0  0  0  0  0  0  0  0  0
   13.4163   22.6094   30.5714 C   0  0  0  0  0  0  0  0  0  0  0  0
   11.7262   18.5176   31.8885 C   0  0  0  0  0  0  0  0  0  0  0  0
   10.6423   16.3329   32.1419 C   0  0  0  0  0  0  0  0  0  0  0  0
   10.7947   14.9427   32.7102 C   0  0  0  0  0  0  0  0  0  0  0  0
   11.3286   14.9989   34.1164 C   0  0  0  0  0  0  0  0  0  0  0  0
   10.7409   14.5063   35.3151 C   0  0  0  0  0  0  0  0  0  0  0  0
   12.9150   15.5622   35.6880 C   0  0  0  0  0  0  0  0  0  0  0  0
   14.5609   17.3439   35.7902 C   0  0  0  0  0  0  0  0  0  0  0  0
   15.7213   17.5879   36.4913 C   0  0  0  0  0  0  0  0  0  0  0  0
   15.9468   16.5155   37.3098 C   0  0  0  0  0  0  0  0  0  0  0  0
   14.9319   15.6059   37.1195 C   0  0  0  0  0  0  0  0  0  0  0  0
   12.8631   19.2452   31.9956 N   0  0  0  0  0  0  0  0  0  0  0  0
   11.7225   17.2235   32.4408 N   0  0  0  0  0  0  0  0  0  0  0  0
   14.1200   16.1417   36.1944 N   0  0  0  0  0  0  0  0  0  0  0  0
   12.6066   15.6212   34.3519 N   0  0  0  0  0  0  0  0  0  0  0  0
    9.7025   16.6698   31.5029 O   0  0  0  0  0  0  0  0  0  0  0  0
   13.0142   24.7711   28.4069 O   0  0  0  0  0  0  0  0  0  0  0  0
   10.8742   23.9710   27.9572 O   0  0  0  0  0  0  0  0  0  0  0  0
   11.7975   24.2376   29.0549 S   0  0  2  0  0  0  0  0  0  0  0  0
   10.5076   19.2612   30.9834 S   0  0  0  0  0  0  0  0  0  0  0  0
   11.7318   14.8253   36.5456 S   0  0  0  0  0  0  0  0  0  0  0  0
   11.3284   25.0598   31.2641 H   0  0  0  0  0  0  0  0  0  0  0  0
   11.6002   26.3957   30.0944 H   0  0  0  0  0  0  0  0  0  0  0  0
   10.0400   25.5055   30.0944 H   0  0  0  0  0  0  0  0  0  0  0  0
   10.1962   21.9701   29.4978 H   0  0  0  0  0  0  0  0  0  0  0  0
   14.6389   21.2799   31.7531 H   0  0  0  0  0  0  0  0  0  0  0  0
   14.1745   23.4031   30.4997 H   0  0  0  0  0  0  0  0  0  0  0  0
    9.8136   14.4453   32.7160 H   0  0  0  0  0  0  0  0  0  0  0  0
   11.5037   14.3805   32.0847 H   0  0  0  0  0  0  0  0  0  0  0  0
    9.7709   13.9929   35.3896 H   0  0  0  0  0  0  0  0  0  0  0  0
   14.0892   18.0031   35.0466 H   0  0  0  0  0  0  0  0  0  0  0  0
   16.3532   18.4845   36.4079 H   0  0  0  0  0  0  0  0  0  0  0  0
   16.7942   16.4000   38.0017 H   0  0  0  0  0  0  0  0  0  0  0  0
   14.8105   14.6357   37.6236 H   0  0  0  0  0  0  0  0  0  0  0  0
   12.4910   16.9193   33.0554 H   0  0  0  0  0  0  0  0  0  0  0  0
 25  1  1  1
  2  3  2  0
  2  7  1  0
  2 25  1  0
  3  4  1  0
  4  5  2  0
  4 26  1  0
  5  6  1  0
  5 18  1  0
  6  7  2  0
  8 18  2  0
  8 19  1  0
  8 26  1  0
  9 10  1  0
  9 19  1  0
  9 22  2  0
 10 11  1  0
 11 12  2  0
 11 21  1  0
 12 27  1  0
 13 20  1  0
 13 21  2  0
 13 27  1  0
 14 15  2  0
 14 20  1  0
 15 16  1  0
 16 17  2  0
 17 20  1  0
 23 25  2  0
 24 25  2  0
  1 28  1  0
  1 29  1  0
  1 30  1  0
  3 31  1  0
  6 32  1  0
  7 33  1  0
 10 34  1  0
 10 35  1  0
 12 36  1  0
 14 37  1  0
 15 38  1  0
 16 39  1  0
 17 40  1  0
 19 41  1  0
M  END
>  <filename_input>  (17) 
7L00_XCJ_docked.sdf

>  <pdb_id>  (17) 
7L00_XCJ

>  <pose_rank>  (17) 
16

>  <num_atoms_heavy>  (17) 
27

>  <num_torsions>  (17) 
3

>  <pose>  (17) 
[12.163148780234463, 22.753149779015196, 29.96882220801543, 0.2966470370269977, 1.5047227255366744, 1.1223861979653504, -3.932416003579364, -7.348108162481337, 4.041943218485329]

>  <energy>  (17) 
-392.1821348195358

>  <inter_energy>  (17) 
-415.34815293778445

>  <intra_energy>  (17) 
27.30456265566658

>  <rmsd>  (17) 
9.99207

>  <sdf_rank>  (17) 
0

$$$$

     RDKit          3D

 41 44  0  0  0  0  0  0  0  0999 V2000
   14.0852   23.5328   31.7825 C   0  0  0  0  0  0  0  0  0  0  0  0
   11.6010   22.1018   31.6715 C   0  0  0  0  0  0  0  0  0  0  0  0
   10.3427   22.5754   31.3362 C   0  0  0  0  0  0  0  0  0  0  0  0
    9.5539   21.7889   30.5200 C   0  0  0  0  0  0  0  0  0  0  0  0
   10.0705   20.5636   30.0803 C   0  0  0  0  0  0  0  0  0  0  0  0
   11.3568   20.0957   30.4225 C   0  0  0  0  0  0  0  0  0  0  0  0
   12.1357   20.8867   31.2336 C   0  0  0  0  0  0  0  0  0  0  0  0
    8.0598   20.4674   29.1015 C   0  0  0  0  0  0  0  0  0  0  0  0
    5.9515   20.7157   27.8746 C   0  0  0  0  0  0  0  0  0  0  0  0
    5.0231   20.0623   26.8797 C   0  0  0  0  0  0  0  0  0  0  0  0
    5.1014   18.5628   26.9847 C   0  0  0  0  0  0  0  0  0  0  0  0
    5.4653   17.6155   25.9872 C   0  0  0  0  0  0  0  0  0  0  0  0
    4.9190   16.5738   28.1313 C   0  0  0  0  0  0  0  0  0  0  0  0
    3.5454   15.8852   30.0109 C   0  0  0  0  0  0  0  0  0  0  0  0
    3.5710   14.8720   30.9439 C   0  0  0  0  0  0  0  0  0  0  0  0
    4.6756   14.1046   30.6954 C   0  0  0  0  0  0  0  0  0  0  0  0
    5.3369   14.6372   29.6125 C   0  0  0  0  0  0  0  0  0  0  0  0
    9.2222   19.7879   29.2444 N   0  0  0  0  0  0  0  0  0  0  0  0
    7.0836   19.9226   28.2472 N   0  0  0  0  0  0  0  0  0  0  0  0
    4.6251   15.7099   29.2320 N   0  0  0  0  0  0  0  0  0  0  0  0
    4.7789   17.9348   28.2407 N   0  0  0  0  0  0  0  0  0  0  0  0
    5.7616   21.7971   28.3213 O   0  0  0  0  0  0  0  0  0  0  0  0
   11.8475   24.4048   33.0395 O   0  0  0  0  0  0  0  0  0  0  0  0
   12.8651   22.5412   33.9953 O   0  0  0  0  0  0  0  0  0  0  0  0
   12.5834   23.1666   32.7077 S   0  0  2  0  0  0  0  0  0  0  0  0
    8.0208   21.9547   29.9039 S   0  0  0  0  0  0  0  0  0  0  0  0
    5.3862   16.1374   26.6248 S   0  0  0  0  0  0  0  0  0  0  0  0
   14.9084   23.7336   32.4840 H   0  0  0  0  0  0  0  0  0  0  0  0
   14.3450   22.6717   31.1492 H   0  0  0  0  0  0  0  0  0  0  0  0
   13.9194   24.4168   31.1492 H   0  0  0  0  0  0  0  0  0  0  0  0
    9.9838   23.5464   31.7082 H   0  0  0  0  0  0  0  0  0  0  0  0
   11.7252   19.1278   30.0519 H   0  0  0  0  0  0  0  0  0  0  0  0
   13.1479   20.5732   31.5286 H   0  0  0  0  0  0  0  0  0  0  0  0
    3.9913   20.3851   27.0825 H   0  0  0  0  0  0  0  0  0  0  0  0
    5.3241   20.3621   25.8650 H   0  0  0  0  0  0  0  0  0  0  0  0
    5.7529   17.8528   24.9523 H   0  0  0  0  0  0  0  0  0  0  0  0
    2.7903   16.6801   29.9217 H   0  0  0  0  0  0  0  0  0  0  0  0
    2.8350   14.7094   31.7451 H   0  0  0  0  0  0  0  0  0  0  0  0
    4.9827   13.2143   31.2637 H   0  0  0  0  0  0  0  0  0  0  0  0
    6.2618   14.2601   29.1517 H   0  0  0  0  0  0  0  0  0  0  0  0
    7.1826   18.9607   27.8927 H   0  0  0  0  0  0  0  0  0  0  0  0
 25  1  1  6
  2  3  2  0
  2  7  1  0
  2 25  1  0
  3  4  1  0
  4  5  2  0
  4 26  1  0
  5  6  1  0
  5 18  1  0
  6  7  2  0
  8 18  2  0
  8 19  1  0
  8 26  1  0
  9 10  1  0
  9 19  1  0
  9 22  2  0
 10 11  1  0
 11 12  2  0
 11 21  1  0
 12 27  1  0
 13 20  1  0
 13 21  2  0
 13 27  1  0
 14 15  2  0
 14 20  1  0
 15 16  1  0
 16 17  2  0
 17 20  1  0
 23 25  2  0
 24 25  2  0
  1 28  1  0
  1 29  1  0
  1 30  1  0
  3 31  1  0
  6 32  1  0
  7 33  1  0
 10 34  1  0
 10 35  1  0
 12 36  1  0
 14 37  1  0
 15 38  1  0
 16 39  1  0
 17 40  1  0
 19 41  1  0
M  END
>  <filename_input>  (18) 
7L00_XCJ_docked.sdf

>  <pdb_id>  (18) 
7L00_XCJ

>  <pose_rank>  (18) 
17

>  <num_atoms_heavy>  (18) 
27

>  <num_torsions>  (18) 
3

>  <pose>  (18) 
[11.6010365685984, 22.101817815471602, 31.671477240067322, -3.4026386764328276, -0.7814217993204221, -2.482059779306129, -1.3735748853829395, -1.3274632683506429, -0.17142081694358838]

>  <energy>  (18) 
-436.83961707927443

>  <inter_energy>  (18) 
-433.70659349056945

>  <intra_energy>  (18) 
9.5201646035918

>  <rmsd>  (18) 
6.86079

>  <sdf_rank>  (18) 
0

$$$$

     RDKit          3D

 41 44  0  0  0  0  0  0  0  0999 V2000
    4.0250   14.6886   31.1960 C   0  0  0  0  0  0  0  0  0  0  0  0
    5.2422   16.4345   29.2721 C   0  0  0  0  0  0  0  0  0  0  0  0
    5.3317   16.3718   27.8907 C   0  0  0  0  0  0  0  0  0  0  0  0
    5.1456   17.5402   27.1786 C   0  0  0  0  0  0  0  0  0  0  0  0
    4.8777   18.7155   27.8918 C   0  0  0  0  0  0  0  0  0  0  0  0
    4.7814   18.7649   29.2986 C   0  0  0  0  0  0  0  0  0  0  0  0
    4.9658   17.5962   29.9988 C   0  0  0  0  0  0  0  0  0  0  0  0
    4.8599   19.5536   25.8165 C   0  0  0  0  0  0  0  0  0  0  0  0
    4.5729   20.1884   23.4655 C   0  0  0  0  0  0  0  0  0  0  0  0
    4.2514   21.3284   22.5298 C   0  0  0  0  0  0  0  0  0  0  0  0
    5.3413   22.3661   22.5620 C   0  0  0  0  0  0  0  0  0  0  0  0
    5.2238   23.7831   22.6175 C   0  0  0  0  0  0  0  0  0  0  0  0
    7.5483   23.0239   22.5823 C   0  0  0  0  0  0  0  0  0  0  0  0
    9.5691   22.0106   21.6973 C   0  0  0  0  0  0  0  0  0  0  0  0
   10.9238   22.1416   21.9103 C   0  0  0  0  0  0  0  0  0  0  0  0
   11.1033   23.0902   22.8792 C   0  0  0  0  0  0  0  0  0  0  0  0
    9.8659   23.5484   23.2698 C   0  0  0  0  0  0  0  0  0  0  0  0
    4.6955   19.8929   27.1169 N   0  0  0  0  0  0  0  0  0  0  0  0
    4.6520   20.5526   24.8478 N   0  0  0  0  0  0  0  0  0  0  0  0
    8.9690   22.8707   22.5359 N   0  0  0  0  0  0  0  0  0  0  0  0
    6.7155   21.9338   22.5381 N   0  0  0  0  0  0  0  0  0  0  0  0
    4.7530   19.0779   23.0924 O   0  0  0  0  0  0  0  0  0  0  0  0
    5.5970   13.7694   29.1881 O   0  0  0  0  0  0  0  0  0  0  0  0
    6.7153   14.8901   30.8955 O   0  0  0  0  0  0  0  0  0  0  0  0
    5.4686   14.8946   30.1380 S   0  0  2  0  0  0  0  0  0  0  0  0
    5.1824   17.9141   25.5611 S   0  0  0  0  0  0  0  0  0  0  0  0
    6.7025   24.4241   22.6330 S   0  0  0  0  0  0  0  0  0  0  0  0
    4.3342   14.7327   32.2508 H   0  0  0  0  0  0  0  0  0  0  0  0
    3.3029   15.4928   30.9917 H   0  0  0  0  0  0  0  0  0  0  0  0
    3.5566   13.7145   30.9917 H   0  0  0  0  0  0  0  0  0  0  0  0
    5.5442   15.4220   27.3780 H   0  0  0  0  0  0  0  0  0  0  0  0
    4.5654   19.7096   29.8192 H   0  0  0  0  0  0  0  0  0  0  0  0
    4.8980   17.5760   31.0965 H   0  0  0  0  0  0  0  0  0  0  0  0
    4.1539   20.9387   21.5058 H   0  0  0  0  0  0  0  0  0  0  0  0
    3.3088   21.7952   22.8516 H   0  0  0  0  0  0  0  0  0  0  0  0
    4.2801   24.3476   22.6452 H   0  0  0  0  0  0  0  0  0  0  0  0
    9.0766   21.3353   20.9822 H   0  0  0  0  0  0  0  0  0  0  0  0
   11.7185   21.5835   21.3938 H   0  0  0  0  0  0  0  0  0  0  0  0
   12.0710   23.4287   23.2780 H   0  0  0  0  0  0  0  0  0  0  0  0
    9.6544   24.3151   24.0297 H   0  0  0  0  0  0  0  0  0  0  0  0
    4.5574   21.5384   25.1309 H   0  0  0  0  0  0  0  0  0  0  0  0
 25  1  1  1
  2  3  2  0
  2  7  1  0
  2 25  1  0
  3  4  1  0
  4  5  2  0
  4 26  1  0
  5  6  1  0
  5 18  1  0
  6  7  2  0
  8 18  2  0
  8 19  1  0
  8 26  1  0
  9 10  1  0
  9 19  1  0
  9 22  2  0
 10 11  1  0
 11 12  2  0
 11 21  1  0
 12 27  1  0
 13 20  1  0
 13 21  2  0
 13 27  1  0
 14 15  2  0
 14 20  1  0
 15 16  1  0
 16 17  2  0
 17 20  1  0
 23 25  2  0
 24 25  2  0
  1 28  1  0
  1 29  1  0
  1 30  1  0
  3 31  1  0
  6 32  1  0
  7 33  1  0
 10 34  1  0
 10 35  1  0
 12 36  1  0
 14 37  1  0
 15 38  1  0
 16 39  1  0
 17 40  1  0
 19 41  1  0
M  END
>  <filename_input>  (19) 
7L00_XCJ_docked.sdf

>  <pdb_id>  (19) 
7L00_XCJ

>  <pose_rank>  (19) 
18

>  <num_atoms_heavy>  (19) 
27

>  <num_torsions>  (19) 
3

>  <pose>  (19) 
[5.242155286628325, 16.43450542772065, 29.27207537081325, -0.18126817306849605, -0.3660004498365103, -1.4920374085605326, -1.4691393720380128, -0.6920977112393611, -0.4391701105017815]

>  <energy>  (19) 
-400.42516139812307

>  <inter_energy>  (19) 
-396.8851895829569

>  <intra_energy>  (19) 
1.3080857680822595

>  <rmsd>  (19) 
9.68094

>  <sdf_rank>  (19) 
0

$$$$

     RDKit          3D

 41 44  0  0  0  0  0  0  0  0999 V2000
   12.9091   23.8099   33.0049 C   0  0  0  0  0  0  0  0  0  0  0  0
   10.0658   23.9120   32.6359 C   0  0  0  0  0  0  0  0  0  0  0  0
   10.1114   22.7390   31.8997 C   0  0  0  0  0  0  0  0  0  0  0  0
    9.1245   22.5307   30.9565 C   0  0  0  0  0  0  0  0  0  0  0  0
    8.1388   23.5135   30.8004 C   0  0  0  0  0  0  0  0  0  0  0  0
    8.0990   24.7007   31.5618 C   0  0  0  0  0  0  0  0  0  0  0  0
    9.0843   24.8981   32.5000 C   0  0  0  0  0  0  0  0  0  0  0  0
    7.4427   22.0684   29.2393 C   0  0  0  0  0  0  0  0  0  0  0  0
    6.6867   20.2163   27.8215 C   0  0  0  0  0  0  0  0  0  0  0  0
    5.6138   19.7600   26.8625 C   0  0  0  0  0  0  0  0  0  0  0  0
    5.3637   18.2829   27.0083 C   0  0  0  0  0  0  0  0  0  0  0  0
    5.1531   17.3083   25.9932 C   0  0  0  0  0  0  0  0  0  0  0  0
    5.0920   16.3601   28.2466 C   0  0  0  0  0  0  0  0  0  0  0  0
    4.2712   15.9613   30.4963 C   0  0  0  0  0  0  0  0  0  0  0  0
    4.3532   14.9424   31.4196 C   0  0  0  0  0  0  0  0  0  0  0  0
    5.1046   13.9408   30.8691 C   0  0  0  0  0  0  0  0  0  0  0  0
    5.4905   14.3335   29.6079 C   0  0  0  0  0  0  0  0  0  0  0  0
    7.1456   23.2565   29.8169 N   0  0  0  0  0  0  0  0  0  0  0  0
    6.5482   21.5667   28.2761 N   0  0  0  0  0  0  0  0  0  0  0  0
    4.9702   15.5572   29.4233 N   0  0  0  0  0  0  0  0  0  0  0  0
    5.3214   17.7108   28.3301 N   0  0  0  0  0  0  0  0  0  0  0  0
    7.5798   19.5195   28.1703 O   0  0  0  0  0  0  0  0  0  0  0  0
   11.3171   25.4792   34.4286 O   0  0  0  0  0  0  0  0  0  0  0  0
   11.1519   23.2253   34.9896 O   0  0  0  0  0  0  0  0  0  0  0  0
   11.3498   24.1182   33.8530 S   0  0  2  0  0  0  0  0  0  0  0  0
    8.8146   21.3110   29.8730 S   0  0  0  0  0  0  0  0  0  0  0  0
    4.9343   15.8727   26.6922 S   0  0  0  0  0  0  0  0  0  0  0  0
   13.7054   23.6525   33.7473 H   0  0  0  0  0  0  0  0  0  0  0  0
   12.8129   22.9134   32.3748 H   0  0  0  0  0  0  0  0  0  0  0  0
   13.1612   24.6756   32.3748 H   0  0  0  0  0  0  0  0  0  0  0  0
   10.9079   21.9977   32.0613 H   0  0  0  0  0  0  0  0  0  0  0  0
    7.3039   25.4454   31.4094 H   0  0  0  0  0  0  0  0  0  0  0  0
    9.0998   25.8036   33.1243 H   0  0  0  0  0  0  0  0  0  0  0  0
    4.6832   20.3066   27.0750 H   0  0  0  0  0  0  0  0  0  0  0  0
    5.9488   19.9623   25.8345 H   0  0  0  0  0  0  0  0  0  0  0  0
    5.1416   17.5026   24.9105 H   0  0  0  0  0  0  0  0  0  0  0  0
    3.7386   16.9166   30.6144 H   0  0  0  0  0  0  0  0  0  0  0  0
    3.8964   14.9355   32.4202 H   0  0  0  0  0  0  0  0  0  0  0  0
    5.3572   12.9852   31.3517 H   0  0  0  0  0  0  0  0  0  0  0  0
    6.1017   13.7606   28.8951 H   0  0  0  0  0  0  0  0  0  0  0  0
    5.7995   22.1664   27.9010 H   0  0  0  0  0  0  0  0  0  0  0  0
 25  1  1  6
  2  3  2  0
  2  7  1  0
  2 25  1  0
  3  4  1  0
  4  5  2  0
  4 26  1  0
  5  6  1  0
  5 18  1  0
  6  7  2  0
  8 18  2  0
  8 19  1  0
  8 26  1  0
  9 10  1  0
  9 19  1  0
  9 22  2  0
 10 11  1  0
 11 12  2  0
 11 21  1  0
 12 27  1  0
 13 20  1  0
 13 21  2  0
 13 27  1  0
 14 15  2  0
 14 20  1  0
 15 16  1  0
 16 17  2  0
 17 20  1  0
 23 25  2  0
 24 25  2  0
  1 28  1  0
  1 29  1  0
  1 30  1  0
  3 31  1  0
  6 32  1  0
  7 33  1  0
 10 34  1  0
 10 35  1  0
 12 36  1  0
 14 37  1  0
 15 38  1  0
 16 39  1  0
 17 40  1  0
 19 41  1  0
M  END
>  <filename_input>  (20) 
7L00_XCJ_docked.sdf

>  <pdb_id>  (20) 
7L00_XCJ

>  <pose_rank>  (20) 
19

>  <num_atoms_heavy>  (20) 
27

>  <num_torsions>  (20) 
3

>  <pose>  (20) 
[10.065764493343499, 23.912009320249716, 32.63589140353759, -1.009610439328775, -0.6743179442703108, -0.48325354169191553, -4.667071149812313, 1.8820729063880075, 5.8037714437031145]

>  <energy>  (20) 
-402.7233569527158

>  <inter_energy>  (20) 
-408.3823748170438

>  <intra_energy>  (20) 
10.87947333241039

>  <rmsd>  (20) 
7.58654

>  <sdf_rank>  (20) 
0

$$$$

     RDKit          3D

 41 44  0  0  0  0  0  0  0  0999 V2000
    1.1980   25.5917   34.5692 C   0  0  0  0  0  0  0  0  0  0  0  0
    2.5917   24.0101   32.6230 C   0  0  0  0  0  0  0  0  0  0  0  0
    3.7852   23.6570   32.0139 C   0  0  0  0  0  0  0  0  0  0  0  0
    3.7259   23.1125   30.7461 C   0  0  0  0  0  0  0  0  0  0  0  0
    2.4675   22.9494   30.1531 C   0  0  0  0  0  0  0  0  0  0  0  0
    1.2585   23.3060   30.7870 C   0  0  0  0  0  0  0  0  0  0  0  0
    1.3275   23.8450   32.0499 C   0  0  0  0  0  0  0  0  0  0  0  0
    3.7429   22.1638   28.4900 C   0  0  0  0  0  0  0  0  0  0  0  0
    5.2933   21.0610   26.9433 C   0  0  0  0  0  0  0  0  0  0  0  0
    5.4042   20.3208   25.6323 C   0  0  0  0  0  0  0  0  0  0  0  0
    5.1717   18.8472   25.8324 C   0  0  0  0  0  0  0  0  0  0  0  0
    5.0990   17.8140   24.8568 C   0  0  0  0  0  0  0  0  0  0  0  0
    4.8040   16.9868   27.1392 C   0  0  0  0  0  0  0  0  0  0  0  0
    3.7426   16.6862   29.3018 C   0  0  0  0  0  0  0  0  0  0  0  0
    3.7420   15.7210   30.2846 C   0  0  0  0  0  0  0  0  0  0  0  0
    4.5728   14.7129   29.8791 C   0  0  0  0  0  0  0  0  0  0  0  0
    5.0903   15.0482   28.6488 C   0  0  0  0  0  0  0  0  0  0  0  0
    2.4563   22.3874   28.8478 N   0  0  0  0  0  0  0  0  0  0  0  0
    3.9790   21.5366   27.2528 N   0  0  0  0  0  0  0  0  0  0  0  0
    4.5674   16.2450   28.3384 N   0  0  0  0  0  0  0  0  0  0  0  0
    4.9926   18.3459   27.1713 N   0  0  0  0  0  0  0  0  0  0  0  0
    6.2180   21.2434   27.6620 O   0  0  0  0  0  0  0  0  0  0  0  0
    2.9160   23.6133   35.2637 O   0  0  0  0  0  0  0  0  0  0  0  0
    3.9064   25.5336   34.3955 O   0  0  0  0  0  0  0  0  0  0  0  0
    2.7258   24.6865   34.2653 S   0  0  2  0  0  0  0  0  0  0  0  0
    4.8761   22.5813   29.6727 S   0  0  0  0  0  0  0  0  0  0  0  0
    4.8340   16.4123   25.6070 S   0  0  0  0  0  0  0  0  0  0  0  0
    1.0376   25.6867   35.6532 H   0  0  0  0  0  0  0  0  0  0  0  0
    1.2696   26.5932   34.1199 H   0  0  0  0  0  0  0  0  0  0  0  0
    0.3540   25.0478   34.1199 H   0  0  0  0  0  0  0  0  0  0  0  0
    4.7486   23.8055   32.5235 H   0  0  0  0  0  0  0  0  0  0  0  0
    0.2905   23.1574   30.2862 H   0  0  0  0  0  0  0  0  0  0  0  0
    0.4163   24.1373   32.5924 H   0  0  0  0  0  0  0  0  0  0  0  0
    4.6526   20.7131   24.9314 H   0  0  0  0  0  0  0  0  0  0  0  0
    6.4165   20.4676   25.2277 H   0  0  0  0  0  0  0  0  0  0  0  0
    5.2059   17.9495   23.7704 H   0  0  0  0  0  0  0  0  0  0  0  0
    3.1792   17.6310   29.3055 H   0  0  0  0  0  0  0  0  0  0  0  0
    3.1751   15.7549   31.2267 H   0  0  0  0  0  0  0  0  0  0  0  0
    4.7901   13.7921   30.4402 H   0  0  0  0  0  0  0  0  0  0  0  0
    5.7907   14.4553   28.0424 H   0  0  0  0  0  0  0  0  0  0  0  0
    3.2121   21.4206   26.5751 H   0  0  0  0  0  0  0  0  0  0  0  0
 25  1  1  1
  2  3  2  0
  2  7  1  0
  2 25  1  0
  3  4  1  0
  4  5  2  0
  4 26  1  0
  5  6  1  0
  5 18  1  0
  6  7  2  0
  8 18  2  0
  8 19  1  0
  8 26  1  0
  9 10  1  0
  9 19  1  0
  9 22  2  0
 10 11  1  0
 11 12  2  0
 11 21  1  0
 12 27  1  0
 13 20  1  0
 13 21  2  0
 13 27  1  0
 14 15  2  0
 14 20  1  0
 15 16  1  0
 16 17  2  0
 17 20  1  0
 23 25  2  0
 24 25  2  0
  1 28  1  0
  1 29  1  0
  1 30  1  0
  3 31  1  0
  6 32  1  0
  7 33  1  0
 10 34  1  0
 10 35  1  0
 12 36  1  0
 14 37  1  0
 15 38  1  0
 16 39  1  0
 17 40  1  0
 19 41  1  0
M  END
>  <filename_input>  (21) 
7L00_XCJ_docked.sdf

>  <pdb_id>  (21) 
7L00_XCJ

>  <pose_rank>  (21) 
20

>  <num_atoms_heavy>  (21) 
27

>  <num_torsions>  (21) 
3

>  <pose>  (21) 
[2.591740429295579, 24.010101547873745, 32.62300369769316, -0.30014203322400534, -1.361434788686564, 0.12240808063624732, -2.764079898851277, 15.476095425315336, 11.279649056688973]

>  <energy>  (21) 
-389.39547861810166

>  <inter_energy>  (21) 
-379.92553650495756

>  <intra_energy>  (21) 
4.889030889348493

>  <rmsd>  (21) 
10.0717

>  <sdf_rank>  (21) 
0

$$$$

     RDKit          3D

 41 44  0  0  0  0  0  0  0  0999 V2000
   10.2857   24.4695   28.8883 C   0  0  0  0  0  0  0  0  0  0  0  0
   10.9414   22.6256   30.9863 C   0  0  0  0  0  0  0  0  0  0  0  0
   11.6140   22.8092   32.1838 C   0  0  0  0  0  0  0  0  0  0  0  0
   12.4985   21.8270   32.5839 C   0  0  0  0  0  0  0  0  0  0  0  0
   12.6626   20.7070   31.7590 C   0  0  0  0  0  0  0  0  0  0  0  0
   11.9659   20.5281   30.5452 C   0  0  0  0  0  0  0  0  0  0  0  0
   11.0858   21.5101   30.1564 C   0  0  0  0  0  0  0  0  0  0  0  0
   14.1094   20.1643   33.3783 C   0  0  0  0  0  0  0  0  0  0  0  0
   15.3883   19.6254   35.3997 C   0  0  0  0  0  0  0  0  0  0  0  0
   16.2711   18.5927   36.0579 C   0  0  0  0  0  0  0  0  0  0  0  0
   15.5079   17.3184   36.3014 C   0  0  0  0  0  0  0  0  0  0  0  0
   15.8416   16.2258   37.1498 C   0  0  0  0  0  0  0  0  0  0  0  0
   13.7197   15.9036   35.9774 C   0  0  0  0  0  0  0  0  0  0  0  0
   12.2170   15.5641   34.1011 C   0  0  0  0  0  0  0  0  0  0  0  0
   10.9742   15.0014   33.9105 C   0  0  0  0  0  0  0  0  0  0  0  0
   10.5322   14.5474   35.1226 C   0  0  0  0  0  0  0  0  0  0  0  0
   11.4947   14.8264   36.0657 C   0  0  0  0  0  0  0  0  0  0  0  0
   13.5844   19.7240   32.2105 N   0  0  0  0  0  0  0  0  0  0  0  0
   15.0020   19.3143   34.0568 N   0  0  0  0  0  0  0  0  0  0  0  0
   12.4915   15.4415   35.4098 N   0  0  0  0  0  0  0  0  0  0  0  0
   14.2579   17.1131   35.6148 N   0  0  0  0  0  0  0  0  0  0  0  0
   15.0432   20.6206   35.9432 O   0  0  0  0  0  0  0  0  0  0  0  0
    8.4082   23.4068   30.5296 O   0  0  0  0  0  0  0  0  0  0  0  0
    9.8012   24.9963   31.5068 O   0  0  0  0  0  0  0  0  0  0  0  0
    9.7972   23.9123   30.5305 S   0  0  2  0  0  0  0  0  0  0  0  0
   13.4986   21.6524   33.8979 S   0  0  0  0  0  0  0  0  0  0  0  0
   14.6793   15.1144   37.0427 S   0  0  0  0  0  0  0  0  0  0  0  0
   11.0083   25.2937   28.9806 H   0  0  0  0  0  0  0  0  0  0  0  0
   10.7488   23.6354   28.3408 H   0  0  0  0  0  0  0  0  0  0  0  0
    9.3981   24.8195   28.3408 H   0  0  0  0  0  0  0  0  0  0  0  0
   11.4488   23.7081   32.7959 H   0  0  0  0  0  0  0  0  0  0  0  0
   12.1222   19.6305   29.9289 H   0  0  0  0  0  0  0  0  0  0  0  0
   10.5131   21.4207   29.2215 H   0  0  0  0  0  0  0  0  0  0  0  0
   17.1288   18.3804   35.4027 H   0  0  0  0  0  0  0  0  0  0  0  0
   16.6178   18.9877   37.0242 H   0  0  0  0  0  0  0  0  0  0  0  0
   16.7436   16.1520   37.7751 H   0  0  0  0  0  0  0  0  0  0  0  0
   12.8575   16.0230   33.3335 H   0  0  0  0  0  0  0  0  0  0  0  0
   10.4342   14.9299   32.9548 H   0  0  0  0  0  0  0  0  0  0  0  0
    9.5718   14.0452   35.3113 H   0  0  0  0  0  0  0  0  0  0  0  0
   11.4552   14.5928   37.1399 H   0  0  0  0  0  0  0  0  0  0  0  0
   15.3747   18.4747   33.5908 H   0  0  0  0  0  0  0  0  0  0  0  0
 25  1  1  6
  2  3  2  0
  2  7  1  0
  2 25  1  0
  3  4  1  0
  4  5  2  0
  4 26  1  0
  5  6  1  0
  5 18  1  0
  6  7  2  0
  8 18  2  0
  8 19  1  0
  8 26  1  0
  9 10  1  0
  9 19  1  0
  9 22  2  0
 10 11  1  0
 11 12  2  0
 11 21  1  0
 12 27  1  0
 13 20  1  0
 13 21  2  0
 13 27  1  0
 14 15  2  0
 14 20  1  0
 15 16  1  0
 16 17  2  0
 17 20  1  0
 23 25  2  0
 24 25  2  0
  1 28  1  0
  1 29  1  0
  1 30  1  0
  3 31  1  0
  6 32  1  0
  7 33  1  0
 10 34  1  0
 10 35  1  0
 12 36  1  0
 14 37  1  0
 15 38  1  0
 16 39  1  0
 17 40  1  0
 19 41  1  0
M  END
>  <filename_input>  (22) 
7L00_XCJ_docked.sdf

>  <pdb_id>  (22) 
7L00_XCJ

>  <pose_rank>  (22) 
21

>  <num_atoms_heavy>  (22) 
27

>  <num_torsions>  (22) 
3

>  <pose>  (22) 
[10.941410917847588, 22.625639180774844, 30.986289628731686, 1.2980569652868859, 2.8940454061933383, -0.8440812703144912, 2.90923690189226, 3.2998123163629307, -0.9307066165726817]

>  <energy>  (22) 
-320.51794420507986

>  <inter_energy>  (22) 
-337.94185563893984

>  <intra_energy>  (22) 
19.316500553485223

>  <rmsd>  (22) 
10.6223

>  <sdf_rank>  (22) 
0

$$$$

     RDKit          3D

 41 44  0  0  0  0  0  0  0  0999 V2000
    4.0402   25.2586   37.0353 C   0  0  0  0  0  0  0  0  0  0  0  0
    3.9426   23.9145   34.5024 C   0  0  0  0  0  0  0  0  0  0  0  0
    3.2709   23.3011   33.4572 C   0  0  0  0  0  0  0  0  0  0  0  0
    4.0257   22.7470   32.4422 C   0  0  0  0  0  0  0  0  0  0  0  0
    5.4207   22.8378   32.5285 C   0  0  0  0  0  0  0  0  0  0  0  0
    6.0930   23.4720   33.5946 C   0  0  0  0  0  0  0  0  0  0  0  0
    5.3330   24.0228   34.5991 C   0  0  0  0  0  0  0  0  0  0  0  0
    5.2618   21.7079   30.6029 C   0  0  0  0  0  0  0  0  0  0  0  0
    4.8486   20.7656   28.3772 C   0  0  0  0  0  0  0  0  0  0  0  0
    5.5040   20.2446   27.1211 C   0  0  0  0  0  0  0  0  0  0  0  0
    5.3413   18.7518   27.0165 C   0  0  0  0  0  0  0  0  0  0  0  0
    5.1725   17.9513   25.8522 C   0  0  0  0  0  0  0  0  0  0  0  0
    5.1983   16.6354   27.9134 C   0  0  0  0  0  0  0  0  0  0  0  0
    4.4340   15.8159   30.0670 C   0  0  0  0  0  0  0  0  0  0  0  0
    4.5877   14.6627   30.8047 C   0  0  0  0  0  0  0  0  0  0  0  0
    5.3875   13.8142   30.0896 C   0  0  0  0  0  0  0  0  0  0  0  0
    5.7321   14.4357   28.9112 C   0  0  0  0  0  0  0  0  0  0  0  0
    6.1555   22.2516   31.4624 N   0  0  0  0  0  0  0  0  0  0  0  0
    5.7588   21.1290   29.4207 N   0  0  0  0  0  0  0  0  0  0  0  0
    5.1397   15.6402   28.9382 N   0  0  0  0  0  0  0  0  0  0  0  0
    5.3508   17.9640   28.2228 N   0  0  0  0  0  0  0  0  0  0  0  0
    3.6737   20.8632   28.4997 O   0  0  0  0  0  0  0  0  0  0  0  0
    2.0777   25.7147   35.2218 O   0  0  0  0  0  0  0  0  0  0  0  0
    1.9743   23.6561   36.3052 O   0  0  0  0  0  0  0  0  0  0  0  0
    2.9194   24.6312   35.7720 S   0  0  2  0  0  0  0  0  0  0  0  0
    3.6462   21.9246   31.0505 S   0  0  0  0  0  0  0  0  0  0  0  0
    5.0466   16.4081   26.2998 S   0  0  0  0  0  0  0  0  0  0  0  0
    3.6337   25.0311   38.0318 H   0  0  0  0  0  0  0  0  0  0  0  0
    5.0243   24.7801   36.9227 H   0  0  0  0  0  0  0  0  0  0  0  0
    4.1469   26.3476   36.9227 H   0  0  0  0  0  0  0  0  0  0  0  0
    2.1719   23.2569   33.4366 H   0  0  0  0  0  0  0  0  0  0  0  0
    7.1914   23.5241   33.6212 H   0  0  0  0  0  0  0  0  0  0  0  0
    5.8042   24.5327   35.4523 H   0  0  0  0  0  0  0  0  0  0  0  0
    5.0376   20.7209   26.2461 H   0  0  0  0  0  0  0  0  0  0  0  0
    6.5775   20.4818   27.1576 H   0  0  0  0  0  0  0  0  0  0  0  0
    5.1344   18.3240   24.8180 H   0  0  0  0  0  0  0  0  0  0  0  0
    3.8492   16.7044   30.3471 H   0  0  0  0  0  0  0  0  0  0  0  0
    4.1464   14.4605   31.7918 H   0  0  0  0  0  0  0  0  0  0  0  0
    5.7015   12.8076   30.4028 H   0  0  0  0  0  0  0  0  0  0  0  0
    6.3649   14.0280   28.1091 H   0  0  0  0  0  0  0  0  0  0  0  0
    6.7698   20.9680   29.3070 H   0  0  0  0  0  0  0  0  0  0  0  0
 25  1  1  1
  2  3  2  0
  2  7  1  0
  2 25  1  0
  3  4  1  0
  4  5  2  0
  4 26  1  0
  5  6  1  0
  5 18  1  0
  6  7  2  0
  8 18  2  0
  8 19  1  0
  8 26  1  0
  9 10  1  0
  9 19  1  0
  9 22  2  0
 10 11  1  0
 11 12  2  0
 11 21  1  0
 12 27  1  0
 13 20  1  0
 13 21  2  0
 13 27  1  0
 14 15  2  0
 14 20  1  0
 15 16  1  0
 16 17  2  0
 17 20  1  0
 23 25  2  0
 24 25  2  0
  1 28  1  0
  1 29  1  0
  1 30  1  0
  3 31  1  0
  6 32  1  0
  7 33  1  0
 10 34  1  0
 10 35  1  0
 12 36  1  0
 14 37  1  0
 15 38  1  0
 16 39  1  0
 17 40  1  0
 19 41  1  0
M  END
>  <filename_input>  (23) 
7L00_XCJ_docked.sdf

>  <pdb_id>  (23) 
7L00_XCJ

>  <pose_rank>  (23) 
22

>  <num_atoms_heavy>  (23) 
27

>  <num_torsions>  (23) 
3

>  <pose>  (23) 
[3.9426318438475865, 23.914528526973292, 34.50243764637586, 1.07070286572884, 0.7678657882444363, 2.533945758403988, -2.46911692413971, 0.04250001077287909, 4.477568925645295]

>  <energy>  (23) 
-368.3155368538519

>  <inter_energy>  (23) 
-364.66041491875507

>  <intra_energy>  (23) 
1.6794953129196966

>  <rmsd>  (23) 
9.26698

>  <sdf_rank>  (23) 
0

$$$$

     RDKit          3D

 41 44  0  0  0  0  0  0  0  0999 V2000
    5.8792   23.1299   30.2777 C   0  0  0  0  0  0  0  0  0  0  0  0
    8.5794   22.7945   31.1875 C   0  0  0  0  0  0  0  0  0  0  0  0
    9.6117   23.0773   32.0675 C   0  0  0  0  0  0  0  0  0  0  0  0
   10.6972   22.2237   32.0840 C   0  0  0  0  0  0  0  0  0  0  0  0
   10.6905   21.1262   31.2138 C   0  0  0  0  0  0  0  0  0  0  0  0
    9.6295   20.8447   30.3275 C   0  0  0  0  0  0  0  0  0  0  0  0
    8.5521   21.6987   30.3199 C   0  0  0  0  0  0  0  0  0  0  0  0
   12.6821   20.7949   32.1801 C   0  0  0  0  0  0  0  0  0  0  0  0
   14.6642   20.4497   33.5817 C   0  0  0  0  0  0  0  0  0  0  0  0
   15.8480   19.5486   33.8373 C   0  0  0  0  0  0  0  0  0  0  0  0
   15.4947   18.4762   34.8327 C   0  0  0  0  0  0  0  0  0  0  0  0
   16.0500   18.2350   36.1204 C   0  0  0  0  0  0  0  0  0  0  0  0
   14.2837   16.6478   35.5359 C   0  0  0  0  0  0  0  0  0  0  0  0
   13.1886   14.8456   34.3332 C   0  0  0  0  0  0  0  0  0  0  0  0
   12.2125   13.9137   34.6093 C   0  0  0  0  0  0  0  0  0  0  0  0
   11.7955   14.1161   35.8962 C   0  0  0  0  0  0  0  0  0  0  0  0
   12.5078   15.1703   36.4204 C   0  0  0  0  0  0  0  0  0  0  0  0
   11.8292   20.2773   31.2648 N   0  0  0  0  0  0  0  0  0  0  0  0
   13.8595   20.0765   32.4580 N   0  0  0  0  0  0  0  0  0  0  0  0
   13.3339   15.5830   35.4460 N   0  0  0  0  0  0  0  0  0  0  0  0
   14.4585   17.5317   34.5005 N   0  0  0  0  0  0  0  0  0  0  0  0
   14.4173   21.3968   34.2502 O   0  0  0  0  0  0  0  0  0  0  0  0
    6.7671   24.1787   32.6142 O   0  0  0  0  0  0  0  0  0  0  0  0
    7.5577   25.2233   30.6892 O   0  0  0  0  0  0  0  0  0  0  0  0
    7.1956   23.9153   31.2243 S   0  0  2  0  0  0  0  0  0  0  0  0
   12.1193   22.1956   32.9408 S   0  0  0  0  0  0  0  0  0  0  0  0
   15.3102   16.9598   36.7718 S   0  0  0  0  0  0  0  0  0  0  0  0
    5.1433   22.6909   30.9674 H   0  0  0  0  0  0  0  0  0  0  0  0
    5.3851   23.8810   29.6438 H   0  0  0  0  0  0  0  0  0  0  0  0
    6.3055   22.3384   29.6438 H   0  0  0  0  0  0  0  0  0  0  0  0
    9.5680   23.9532   32.7314 H   0  0  0  0  0  0  0  0  0  0  0  0
    9.6632   19.9688   29.6629 H   0  0  0  0  0  0  0  0  0  0  0  0
    7.6955   21.5252   29.6521 H   0  0  0  0  0  0  0  0  0  0  0  0
   16.1539   19.0771   32.8917 H   0  0  0  0  0  0  0  0  0  0  0  0
   16.6712   20.1532   34.2459 H   0  0  0  0  0  0  0  0  0  0  0  0
   16.8514   18.8218   36.5931 H   0  0  0  0  0  0  0  0  0  0  0  0
   13.7397   14.9626   33.3884 H   0  0  0  0  0  0  0  0  0  0  0  0
   11.8359   13.1447   33.9188 H   0  0  0  0  0  0  0  0  0  0  0  0
   11.0231   13.5356   36.4220 H   0  0  0  0  0  0  0  0  0  0  0  0
   12.4184   15.5901   37.4332 H   0  0  0  0  0  0  0  0  0  0  0  0
   14.1403   19.2880   31.8576 H   0  0  0  0  0  0  0  0  0  0  0  0
 25  1  1  6
  2  3  2  0
  2  7  1  0
  2 25  1  0
  3  4  1  0
  4  5  2  0
  4 26  1  0
  5  6  1  0
  5 18  1  0
  6  7  2  0
  8 18  2  0
  8 19  1  0
  8 26  1  0
  9 10  1  0
  9 19  1  0
  9 22  2  0
 10 11  1  0
 11 12  2  0
 11 21  1  0
 12 27  1  0
 13 20  1  0
 13 21  2  0
 13 27  1  0
 14 15  2  0
 14 20  1  0
 15 16  1  0
 16 17  2  0
 17 20  1  0
 23 25  2  0
 24 25  2  0
  1 28  1  0
  1 29  1  0
  1 30  1  0
  3 31  1  0
  6 32  1  0
  7 33  1  0
 10 34  1  0
 10 35  1  0
 12 36  1  0
 14 37  1  0
 15 38  1  0
 16 39  1  0
 17 40  1  0
 19 41  1  0
M  END
>  <filename_input>  (24) 
7L00_XCJ_docked.sdf

>  <pdb_id>  (24) 
7L00_XCJ

>  <pose_rank>  (24) 
23

>  <num_atoms_heavy>  (24) 
27

>  <num_torsions>  (24) 
3

>  <pose>  (24) 
[8.579401606810917, 22.794515420927475, 31.187467939715578, -0.7795535403676712, -2.429742847655715, 0.8943155303605156, -2.1980219344544727, 2.8547831036841202, -0.12036839324105617]

>  <energy>  (24) 
-365.92769406399856

>  <inter_energy>  (24) 
-358.70510530003975

>  <intra_energy>  (24) 
2.392626571201594

>  <rmsd>  (24) 
10.9404

>  <sdf_rank>  (24) 
0

$$$$

     RDKit          3D

 41 44  0  0  0  0  0  0  0  0999 V2000
    7.0674    7.1810   26.6446 C   0  0  0  0  0  0  0  0  0  0  0  0
    5.9839    8.0159   29.1666 C   0  0  0  0  0  0  0  0  0  0  0  0
    6.5031    9.2146   28.7046 C   0  0  0  0  0  0  0  0  0  0  0  0
    6.2256   10.3586   29.4267 C   0  0  0  0  0  0  0  0  0  0  0  0
    5.4382   10.2404   30.5789 C   0  0  0  0  0  0  0  0  0  0  0  0
    4.9089    9.0146   31.0350 C   0  0  0  0  0  0  0  0  0  0  0  0
    5.1885    7.8816   30.3083 C   0  0  0  0  0  0  0  0  0  0  0  0
    5.8206   12.4449   30.6408 C   0  0  0  0  0  0  0  0  0  0  0  0
    6.0978   14.8621   30.3373 C   0  0  0  0  0  0  0  0  0  0  0  0
    5.7729   16.2193   30.9129 C   0  0  0  0  0  0  0  0  0  0  0  0
    5.0224   17.0557   29.9115 C   0  0  0  0  0  0  0  0  0  0  0  0
    3.8168   17.7910   30.0869 C   0  0  0  0  0  0  0  0  0  0  0  0
    4.7226   17.9790   27.8230 C   0  0  0  0  0  0  0  0  0  0  0  0
    5.3903   17.2611   25.6021 C   0  0  0  0  0  0  0  0  0  0  0  0
    5.5405   17.8538   24.3677 C   0  0  0  0  0  0  0  0  0  0  0  0
    5.2255   19.1782   24.5004 C   0  0  0  0  0  0  0  0  0  0  0  0
    4.8811   19.4110   25.8123 C   0  0  0  0  0  0  0  0  0  0  0  0
    5.1810   11.4436   31.2902 N   0  0  0  0  0  0  0  0  0  0  0  0
    5.6483   13.7546   31.1252 N   0  0  0  0  0  0  0  0  0  0  0  0
    4.9963   18.2313   26.4426 N   0  0  0  0  0  0  0  0  0  0  0  0
    5.5421   17.1727   28.5728 N   0  0  0  0  0  0  0  0  0  0  0  0
    6.6838   14.7168   29.3173 O   0  0  0  0  0  0  0  0  0  0  0  0
    7.2959    5.6836   28.8926 O   0  0  0  0  0  0  0  0  0  0  0  0
    5.1628    5.7650   27.9623 O   0  0  0  0  0  0  0  0  0  0  0  0
    6.3544    6.5767   28.1848 S   0  0  2  0  0  0  0  0  0  0  0  0
    6.6474   11.9550   29.2502 S   0  0  0  0  0  0  0  0  0  0  0  0
    3.4445   18.5129   28.6948 S   0  0  0  0  0  0  0  0  0  0  0  0
    7.8888    7.8773   26.8692 H   0  0  0  0  0  0  0  0  0  0  0  0
    7.4551    6.3323   26.0622 H   0  0  0  0  0  0  0  0  0  0  0  0
    6.2936    7.7025   26.0622 H   0  0  0  0  0  0  0  0  0  0  0  0
    7.1164    9.2538   27.7923 H   0  0  0  0  0  0  0  0  0  0  0  0
    4.2914    8.9670   31.9441 H   0  0  0  0  0  0  0  0  0  0  0  0
    4.7984    6.9000   30.6155 H   0  0  0  0  0  0  0  0  0  0  0  0
    5.1536   16.0911   31.8129 H   0  0  0  0  0  0  0  0  0  0  0  0
    6.7134   16.7303   31.1667 H   0  0  0  0  0  0  0  0  0  0  0  0
    3.2353   17.8559   31.0183 H   0  0  0  0  0  0  0  0  0  0  0  0
    5.5597   16.2029   25.8501 H   0  0  0  0  0  0  0  0  0  0  0  0
    5.8569   17.3520   23.4414 H   0  0  0  0  0  0  0  0  0  0  0  0
    5.2442   19.9286   23.6964 H   0  0  0  0  0  0  0  0  0  0  0  0
    4.5737   20.3699   26.2549 H   0  0  0  0  0  0  0  0  0  0  0  0
    5.2023   13.9153   32.0396 H   0  0  0  0  0  0  0  0  0  0  0  0
 25  1  1  6
  2  3  2  0
  2  7  1  0
  2 25  1  0
  3  4  1  0
  4  5  2  0
  4 26  1  0
  5  6  1  0
  5 18  1  0
  6  7  2  0
  8 18  2  0
  8 19  1  0
  8 26  1  0
  9 10  1  0
  9 19  1  0
  9 22  2  0
 10 11  1  0
 11 12  2  0
 11 21  1  0
 12 27  1  0
 13 20  1  0
 13 21  2  0
 13 27  1  0
 14 15  2  0
 14 20  1  0
 15 16  1  0
 16 17  2  0
 17 20  1  0
 23 25  2  0
 24 25  2  0
  1 28  1  0
  1 29  1  0
  1 30  1  0
  3 31  1  0
  6 32  1  0
  7 33  1  0
 10 34  1  0
 10 35  1  0
 12 36  1  0
 14 37  1  0
 15 38  1  0
 16 39  1  0
 17 40  1  0
 19 41  1  0
M  END
>  <filename_input>  (25) 
7L00_XCJ_docked.sdf

>  <pdb_id>  (25) 
7L00_XCJ

>  <pose_rank>  (25) 
24

>  <num_atoms_heavy>  (25) 
27

>  <num_torsions>  (25) 
3

>  <pose>  (25) 
[5.983894524732892, 8.01585567144189, 29.16662308735535, 1.0822065472444418, 0.1881033903691189, -1.4573168012005662, 0.5415637151213016, 2.3008725564832835, -2.0727555447024018]

>  <energy>  (25) 
-359.0529404673983

>  <inter_energy>  (25) 
-363.7367233052137

>  <intra_energy>  (25) 
14.33536775156991

>  <rmsd>  (25) 
7.4622

>  <sdf_rank>  (25) 
0

$$$$

     RDKit          3D

 41 44  0  0  0  0  0  0  0  0999 V2000
   15.0550   14.1950   34.3330 C   0  0  0  0  0  0  0  0  0  0  0  0
   12.4920   15.0880   35.2630 C   0  0  0  0  0  0  0  0  0  0  0  0
   12.0750   15.0260   33.9430 C   0  0  0  0  0  0  0  0  0  0  0  0
   10.7260   14.8580   33.7000 C   0  0  0  0  0  0  0  0  0  0  0  0
    9.8620   14.7600   34.7980 C   0  0  0  0  0  0  0  0  0  0  0  0
   10.3000   14.8170   36.1380 C   0  0  0  0  0  0  0  0  0  0  0  0
   11.6450   14.9820   36.3700 C   0  0  0  0  0  0  0  0  0  0  0  0
    8.3560   14.5890   33.1510 C   0  0  0  0  0  0  0  0  0  0  0  0
    6.9350   14.1060   31.2120 C   0  0  0  0  0  0  0  0  0  0  0  0
    5.5300   13.7780   30.7680 C   0  0  0  0  0  0  0  0  0  0  0  0
    4.8920   14.9670   30.1010 C   0  0  0  0  0  0  0  0  0  0  0  0
    3.8210   15.7820   30.5630 C   0  0  0  0  0  0  0  0  0  0  0  0
    4.6830   16.4910   28.3870 C   0  0  0  0  0  0  0  0  0  0  0  0
    5.1700   16.3640   26.0120 C   0  0  0  0  0  0  0  0  0  0  0  0
    5.3770   17.2630   24.9890 C   0  0  0  0  0  0  0  0  0  0  0  0
    5.2760   18.5220   25.5140 C   0  0  0  0  0  0  0  0  0  0  0  0
    5.0080   18.4090   26.8590 C   0  0  0  0  0  0  0  0  0  0  0  0
    8.4830   14.5900   34.4990 N   0  0  0  0  0  0  0  0  0  0  0  0
    7.0760   14.3590   32.6140 N   0  0  0  0  0  0  0  0  0  0  0  0
    4.9550   17.0930   27.1190 N   0  0  0  0  0  0  0  0  0  0  0  0
    5.3870   15.3940   28.8170 N   0  0  0  0  0  0  0  0  0  0  0  0
    7.8530   14.1580   30.4640 O   0  0  0  0  0  0  0  0  0  0  0  0
   14.6530   16.6890   35.3160 O   0  0  0  0  0  0  0  0  0  0  0  0
   14.6170   14.9780   36.8950 O   0  0  0  0  0  0  0  0  0  0  0  0
   14.2440   15.2830   35.5180 S   0  0  2  0  0  0  0  0  0  0  0  0
    9.8160   14.7530   32.3150 S   0  0  0  0  0  0  0  0  0  0  0  0
    3.5280   16.9230   29.4630 S   0  0  0  0  0  0  0  0  0  0  0  0
   15.6277   13.4266   34.8730 H   0  0  0  0  0  0  0  0  0  0  0  0
   14.2961   13.7103   33.7012 H   0  0  0  0  0  0  0  0  0  0  0  0
   15.7363   14.7838   33.7012 H   0  0  0  0  0  0  0  0  0  0  0  0
   12.7951   15.1079   33.1155 H   0  0  0  0  0  0  0  0  0  0  0  0
    9.5872   14.7320   36.9715 H   0  0  0  0  0  0  0  0  0  0  0  0
   12.0422   15.0291   37.3947 H   0  0  0  0  0  0  0  0  0  0  0  0
    5.5624   12.9393   30.0570 H   0  0  0  0  0  0  0  0  0  0  0  0
    4.9341   13.5060   31.6517 H   0  0  0  0  0  0  0  0  0  0  0  0
    3.2822   15.6544   31.5135 H   0  0  0  0  0  0  0  0  0  0  0  0
    5.1790   15.2666   25.9370 H   0  0  0  0  0  0  0  0  0  0  0  0
    5.5860   17.0132   23.9383 H   0  0  0  0  0  0  0  0  0  0  0  0
    5.3895   19.4635   24.9566 H   0  0  0  0  0  0  0  0  0  0  0  0
    4.8659   19.2309   27.5762 H   0  0  0  0  0  0  0  0  0  0  0  0
    6.2468   14.3725   33.2249 H   0  0  0  0  0  0  0  0  0  0  0  0
 25  1  1  6
  2  3  2  0
  2  7  1  0
  2 25  1  0
  3  4  1  0
  4  5  2  0
  4 26  1  0
  5  6  1  0
  5 18  1  0
  6  7  2  0
  8 18  2  0
  8 19  1  0
  8 26  1  0
  9 10  1  0
  9 19  1  0
  9 22  2  0
 10 11  1  0
 11 12  2  0
 11 21  1  0
 12 27  1  0
 13 20  1  0
 13 21  2  0
 13 27  1  0
 14 15  2  0
 14 20  1  0
 15 16  1  0
 16 17  2  0
 17 20  1  0
 23 25  2  0
 24 25  2  0
  1 28  1  0
  1 29  1  0
  1 30  1  0
  3 31  1  0
  6 32  1  0
  7 33  1  0
 10 34  1  0
 10 35  1  0
 12 36  1  0
 14 37  1  0
 15 38  1  0
 16 39  1  0
 17 40  1  0
 19 41  1  0
M  END
>  <filename_input>  (26) 
7L00_XCJ_docked.sdf

>  <pdb_id>  (26) 
7L00_XCJ

>  <pose_rank>  (26) 
25

>  <num_atoms_heavy>  (26) 
27

>  <num_torsions>  (26) 
3

>  <pose>  (26) 
[12.492, 15.088, 35.263, 1e-06, 1e-06, 1e-06, 0.0, 0.0, 0.0]

>  <energy>  (26) 
-767.8873349145865

>  <inter_energy>  (26) 
-781.1589329856494

>  <intra_energy>  (26) 
2.4761859320268265

>  <rmsd>  (26) 
0.0

>  <sdf_rank>  (26) 
0

$$$$
