
     RDKit          3D

 31 31  0  0  0  0  0  0  0  0999 V2000
  -39.3298   -7.2539   15.2567 C   0  0  0  0  0  0  0  0  0  0  0  0
  -40.6743   -7.2771   15.5967 C   0  0  0  0  0  0  0  0  0  0  0  0
  -41.3579   -6.0941   15.7912 C   0  0  0  0  0  0  0  0  0  0  0  0
  -40.6987   -4.8837   15.6453 C   0  0  0  0  0  0  0  0  0  0  0  0
  -39.3560   -4.8582   15.3061 C   0  0  0  0  0  0  0  0  0  0  0  0
  -38.6724   -6.0412   15.1116 C   0  0  0  0  0  0  0  0  0  0  0  0
  -38.6257   -8.4722   15.0567 O   0  0  0  0  0  0  0  0  0  0  0  0
  -39.3009   -9.4889   14.5359 C   0  0  1  0  0  0  0  0  0  0  0  0
  -40.3965   -9.0835   13.9263 F   0  0  0  0  0  0  0  0  0  0  0  0
  -38.5801  -10.1461   13.6480 F   0  0  0  0  0  0  0  0  0  0  0  0
  -39.6651  -10.3538   15.4603 F   0  0  0  0  0  0  0  0  0  0  0  0
  -41.5717   -3.3736   15.8936 S   0  0  2  0  0  0  0  0  0  0  0  0
  -42.2113   -2.9454   14.4758 N   0  0  0  0  0  0  0  0  0  0  0  0
  -41.5668   -1.8945   13.6771 C   0  0  0  0  0  0  0  0  0  0  0  0
  -41.9773   -1.9812   12.2303 C   0  0  0  0  0  0  0  0  0  0  0  0
  -41.8800   -0.6678   11.6151 O   0  0  0  0  0  0  0  0  0  0  0  0
  -41.4801   -0.5719   10.0540 P   0  0  2  0  0  0  0  0  0  0  0  0
  -42.6666    0.0720    9.3618 O   0  0  0  0  0  0  0  0  0  0  0  0
  -41.2374   -1.9990    9.6016 O   0  0  0  0  0  0  0  0  0  0  0  0
  -40.2297    0.2848   10.0001 O   0  0  0  0  0  0  0  0  0  0  0  0
  -40.6150   -2.3662   16.2382 O   0  0  0  0  0  0  0  0  0  0  0  0
  -42.6640   -3.6390   16.7783 O   0  0  0  0  0  0  0  0  0  0  0  0
  -41.1959   -8.2388   15.7113 H   0  0  0  0  0  0  0  0  0  0  0  0
  -42.4241   -6.1118   16.0615 H   0  0  0  0  0  0  0  0  0  0  0  0
  -38.8352   -3.8961   15.1919 H   0  0  0  0  0  0  0  0  0  0  0  0
  -37.6062   -6.0224   14.8416 H   0  0  0  0  0  0  0  0  0  0  0  0
  -42.2363   -3.7928   13.8908 H   0  0  0  0  0  0  0  0  0  0  0  0
  -41.8592   -0.9114   14.0748 H   0  0  0  0  0  0  0  0  0  0  0  0
  -40.4768   -2.0291   13.7387 H   0  0  0  0  0  0  0  0  0  0  0  0
  -41.3136   -2.6823   11.7031 H   0  0  0  0  0  0  0  0  0  0  0  0
  -43.0159   -2.3379   12.1665 H   0  0  0  0  0  0  0  0  0  0  0  0
  1  2  2  0
  1  6  1  0
  1  7  1  0
  2  3  1  0
  3  4  2  0
  4  5  1  0
  4 12  1  0
  5  6  2  0
  7  8  1  0
  8  9  1  6
  8 10  1  0
  8 11  1  0
 12 13  1  6
 12 21  2  0
 12 22  2  0
 13 14  1  0
 14 15  1  0
 15 16  1  0
 16 17  1  0
 17 18  1  6
 17 19  2  0
 17 20  1  0
  2 23  1  0
  3 24  1  0
  5 25  1  0
  6 26  1  0
 13 27  1  0
 14 28  1  0
 14 29  1  0
 15 30  1  0
 15 31  1  0
M  CHG  2  18  -1  20  -1
M  END
>  <filename_input>  (1) 
7L03_F9F_docked.sdf

>  <pdb_id>  (1) 
7L03_F9F

>  <pose_rank>  (1) 
0

>  <num_atoms_heavy>  (1) 
22

>  <num_torsions>  (1) 
8

>  <pose>  (1) 
[-39.3297693759012, -7.253862589970995, 15.25674410230863, 4.778526270591667, 0.513677298602332, 3.853756411498959, 7.123800129098609, 3.5769434546494923, 6.1488519662588015, -0.3166674556109754, -0.6322438916235881, -9.304425777985452, 0.5540671977789753, -4.881460875926654]

>  <energy>  (1) 
-1089.368105973465

>  <inter_energy>  (1) 
-1106.6541729828925

>  <intra_energy>  (1) 
26.37640260821863

>  <rmsd>  (1) 
0.750054

>  <sdf_rank>  (1) 
0

$$$$

     RDKit          3D

 31 31  0  0  0  0  0  0  0  0999 V2000
  -41.4247   -1.0314   12.6203 C   0  0  0  0  0  0  0  0  0  0  0  0
  -42.7405   -1.2466   13.0030 C   0  0  0  0  0  0  0  0  0  0  0  0
  -43.0208   -2.0465   14.0921 C   0  0  0  0  0  0  0  0  0  0  0  0
  -41.9855   -2.6332   14.8026 C   0  0  0  0  0  0  0  0  0  0  0  0
  -40.6709   -2.4198   14.4221 C   0  0  0  0  0  0  0  0  0  0  0  0
  -40.3906   -1.6199   13.3329 C   0  0  0  0  0  0  0  0  0  0  0  0
  -41.1361   -0.2079   11.4985 O   0  0  0  0  0  0  0  0  0  0  0  0
  -41.4238   -0.6910   10.2966 C   0  0  1  0  0  0  0  0  0  0  0  0
  -40.9245   -1.8984   10.1256 F   0  0  0  0  0  0  0  0  0  0  0  0
  -42.7262   -0.7762   10.1068 F   0  0  0  0  0  0  0  0  0  0  0  0
  -40.9388    0.0718    9.3382 F   0  0  0  0  0  0  0  0  0  0  0  0
  -42.3437   -3.6543   16.1931 S   0  0  2  0  0  0  0  0  0  0  0  0
  -42.0537   -5.1810   15.7601 N   0  0  0  0  0  0  0  0  0  0  0  0
  -41.1920   -6.0223   16.6011 C   0  0  0  0  0  0  0  0  0  0  0  0
  -40.1843   -6.7721   15.7695 C   0  0  0  0  0  0  0  0  0  0  0  0
  -40.6764   -8.1124   15.4963 O   0  0  0  0  0  0  0  0  0  0  0  0
  -39.6862   -9.1706   14.7852 P   0  0  2  0  0  0  0  0  0  0  0  0
  -40.2984   -9.4628   13.4283 O   0  0  0  0  0  0  0  0  0  0  0  0
  -39.6590  -10.3851   15.6933 O   0  0  0  0  0  0  0  0  0  0  0  0
  -38.3412   -8.4764   14.6883 O   0  0  0  0  0  0  0  0  0  0  0  0
  -43.7471   -3.5574   16.4575 O   0  0  0  0  0  0  0  0  0  0  0  0
  -41.4088   -3.3313   17.2266 O   0  0  0  0  0  0  0  0  0  0  0  0
  -43.5607   -0.7795   12.4382 H   0  0  0  0  0  0  0  0  0  0  0  0
  -44.0641   -2.2182   14.3957 H   0  0  0  0  0  0  0  0  0  0  0  0
  -39.8513   -2.8874   14.9873 H   0  0  0  0  0  0  0  0  0  0  0  0
  -39.3470   -1.4491   13.0300 H   0  0  0  0  0  0  0  0  0  0  0  0
  -42.9669   -5.6536   15.7005 H   0  0  0  0  0  0  0  0  0  0  0  0
  -40.6591   -5.3835   17.3209 H   0  0  0  0  0  0  0  0  0  0  0  0
  -41.8242   -6.7537   17.1258 H   0  0  0  0  0  0  0  0  0  0  0  0
  -40.0252   -6.2401   14.8199 H   0  0  0  0  0  0  0  0  0  0  0  0
  -39.2338   -6.8374   16.3192 H   0  0  0  0  0  0  0  0  0  0  0  0
  1  2  2  0
  1  6  1  0
  1  7  1  0
  2  3  1  0
  3  4  2  0
  4  5  1  0
  4 12  1  0
  5  6  2  0
  7  8  1  0
  8  9  1  1
  8 10  1  0
  8 11  1  0
 12 13  1  6
 12 21  2  0
 12 22  2  0
 13 14  1  0
 14 15  1  0
 15 16  1  0
 16 17  1  0
 17 18  1  6
 17 19  2  0
 17 20  1  0
  2 23  1  0
  3 24  1  0
  5 25  1  0
  6 26  1  0
 13 27  1  0
 14 28  1  0
 14 29  1  0
 15 30  1  0
 15 31  1  0
M  CHG  2  18  -1  20  -1
M  END
>  <filename_input>  (2) 
7L03_F9F_docked.sdf

>  <pdb_id>  (2) 
7L03_F9F

>  <pose_rank>  (2) 
1

>  <num_atoms_heavy>  (2) 
22

>  <num_torsions>  (2) 
8

>  <pose>  (2) 
[-41.42473577397412, -1.0314359102112938, 12.620320017249531, -3.993860312621242, -0.5975442131718292, 1.0467176870768133, -8.296510294403712, 1.3148929590976957, -5.2492738668294345, 1.6057611658336743, 0.07410282228787027, -0.7938799044019988, -7.566563534744297, 0.18252860452269984]

>  <energy>  (2) 
-641.2308558775114

>  <inter_energy>  (2) 
-632.9834758131792

>  <intra_energy>  (2) 
7.071703309397112

>  <rmsd>  (2) 
7.47455

>  <sdf_rank>  (2) 
0

$$$$

     RDKit          3D

 31 31  0  0  0  0  0  0  0  0999 V2000
  -37.9274   -1.8016   16.3004 C   0  0  0  0  0  0  0  0  0  0  0  0
  -38.4918   -2.8116   17.0654 C   0  0  0  0  0  0  0  0  0  0  0  0
  -39.7735   -3.2471   16.7968 C   0  0  0  0  0  0  0  0  0  0  0  0
  -40.4946   -2.6740   15.7612 C   0  0  0  0  0  0  0  0  0  0  0  0
  -39.9330   -1.6651   14.9962 C   0  0  0  0  0  0  0  0  0  0  0  0
  -38.6513   -1.2296   15.2648 C   0  0  0  0  0  0  0  0  0  0  0  0
  -36.6075   -1.3529   16.5773 O   0  0  0  0  0  0  0  0  0  0  0  0
  -36.3079   -1.0807   17.8410 C   0  0  1  0  0  0  0  0  0  0  0  0
  -35.7546    0.1088   17.9641 F   0  0  0  0  0  0  0  0  0  0  0  0
  -37.3811   -1.0937   18.6077 F   0  0  0  0  0  0  0  0  0  0  0  0
  -35.4618   -1.9589   18.3390 F   0  0  0  0  0  0  0  0  0  0  0  0
  -42.1309   -3.2303   15.4184 S   0  0  2  0  0  0  0  0  0  0  0  0
  -42.3633   -3.0995   13.8274 N   0  0  0  0  0  0  0  0  0  0  0  0
  -43.1541   -1.9798   13.2995 C   0  0  0  0  0  0  0  0  0  0  0  0
  -42.8979   -1.7780   11.8288 C   0  0  0  0  0  0  0  0  0  0  0  0
  -41.5708   -1.2166   11.6365 O   0  0  0  0  0  0  0  0  0  0  0  0
  -41.2702   -0.3856   10.2854 P   0  0  2  0  0  0  0  0  0  0  0  0
  -39.9575    0.3356   10.5267 O   0  0  0  0  0  0  0  0  0  0  0  0
  -42.4411    0.5631   10.1151 O   0  0  0  0  0  0  0  0  0  0  0  0
  -41.1811   -1.4176    9.1775 O   0  0  0  0  0  0  0  0  0  0  0  0
  -43.0425   -2.3230   16.0467 O   0  0  0  0  0  0  0  0  0  0  0  0
  -42.1952   -4.6240   15.7340 O   0  0  0  0  0  0  0  0  0  0  0  0
  -37.9176   -3.2656   17.8865 H   0  0  0  0  0  0  0  0  0  0  0  0
  -40.2220   -4.0476   17.4035 H   0  0  0  0  0  0  0  0  0  0  0  0
  -40.5080   -1.2115   14.1754 H   0  0  0  0  0  0  0  0  0  0  0  0
  -38.2038   -0.4290   14.6576 H   0  0  0  0  0  0  0  0  0  0  0  0
  -41.4314   -3.0387   13.3929 H   0  0  0  0  0  0  0  0  0  0  0  0
  -44.2227   -2.1919   13.4517 H   0  0  0  0  0  0  0  0  0  0  0  0
  -42.8607   -1.0639   13.8332 H   0  0  0  0  0  0  0  0  0  0  0  0
  -42.9646   -2.7455   11.3096 H   0  0  0  0  0  0  0  0  0  0  0  0
  -43.6492   -1.0870   11.4190 H   0  0  0  0  0  0  0  0  0  0  0  0
  1  2  2  0
  1  6  1  0
  1  7  1  0
  2  3  1  0
  3  4  2  0
  4  5  1  0
  4 12  1  0
  5  6  2  0
  7  8  1  0
  8  9  1  6
  8 10  1  0
  8 11  1  0
 12 13  1  6
 12 21  2  0
 12 22  2  0
 13 14  1  0
 14 15  1  0
 15 16  1  0
 16 17  1  0
 17 18  1  1
 17 19  2  0
 17 20  1  0
  2 23  1  0
  3 24  1  0
  5 25  1  0
  6 26  1  0
 13 27  1  0
 14 28  1  0
 14 29  1  0
 15 30  1  0
 15 31  1  0
M  CHG  2  18  -1  20  -1
M  END
>  <filename_input>  (3) 
7L03_F9F_docked.sdf

>  <pdb_id>  (3) 
7L03_F9F

>  <pose_rank>  (3) 
2

>  <num_atoms_heavy>  (3) 
22

>  <num_torsions>  (3) 
8

>  <pose>  (3) 
[-37.92742087533148, -1.801570055925985, 16.30042742216576, 2.7296014520884637, 0.552755065857295, -3.8817409512955927, -12.74213932246127, 41.263688893233166, 56.46025800845393, 39.733182335272566, 0.35033978850820297, 4.11601624192802, 5.411566939596767, -1.1882419927025227]

>  <energy>  (3) 
-725.2464284668997

>  <inter_energy>  (3) 
-716.7048967631964

>  <intra_energy>  (3) 
21.70832514509386

>  <rmsd>  (3) 
5.14599

>  <sdf_rank>  (3) 
0

$$$$

     RDKit          3D

 31 31  0  0  0  0  0  0  0  0999 V2000
  -41.4247   -1.7807   13.7380 C   0  0  0  0  0  0  0  0  0  0  0  0
  -40.2781   -2.1725   14.4130 C   0  0  0  0  0  0  0  0  0  0  0  0
  -40.2822   -3.3276   15.1683 C   0  0  0  0  0  0  0  0  0  0  0  0
  -41.4334   -4.0950   15.2500 C   0  0  0  0  0  0  0  0  0  0  0  0
  -42.5796   -3.7054   14.5769 C   0  0  0  0  0  0  0  0  0  0  0  0
  -42.5755   -2.5503   13.8216 C   0  0  0  0  0  0  0  0  0  0  0  0
  -41.4205   -0.5909   12.9604 O   0  0  0  0  0  0  0  0  0  0  0  0
  -41.3841   -0.7245   11.6407 C   0  0  1  0  0  0  0  0  0  0  0  0
  -42.5060   -0.3206   11.0800 F   0  0  0  0  0  0  0  0  0  0  0  0
  -40.4050   -0.0189   11.1084 F   0  0  0  0  0  0  0  0  0  0  0  0
  -41.1990   -1.9793   11.2850 F   0  0  0  0  0  0  0  0  0  0  0  0
  -41.4384   -5.5697   16.2142 S   0  0  2  0  0  0  0  0  0  0  0  0
  -41.2733   -6.8125   15.1990 N   0  0  0  0  0  0  0  0  0  0  0  0
  -40.2103   -6.7850   14.1856 C   0  0  0  0  0  0  0  0  0  0  0  0
  -39.0704   -7.6927   14.5675 C   0  0  0  0  0  0  0  0  0  0  0  0
  -39.1537   -8.9285   13.8065 O   0  0  0  0  0  0  0  0  0  0  0  0
  -39.3754  -10.3149   14.6034 P   0  0  2  0  0  0  0  0  0  0  0  0
  -40.1475   -9.9521   15.8579 O   0  0  0  0  0  0  0  0  0  0  0  0
  -37.9865  -10.8474   14.8996 O   0  0  0  0  0  0  0  0  0  0  0  0
  -40.1623  -11.2093   13.6646 O   0  0  0  0  0  0  0  0  0  0  0  0
  -42.7309   -5.6948   16.8164 O   0  0  0  0  0  0  0  0  0  0  0  0
  -40.2735   -5.5545   17.0444 O   0  0  0  0  0  0  0  0  0  0  0  0
  -39.3653   -1.5624   14.3464 H   0  0  0  0  0  0  0  0  0  0  0  0
  -39.3735   -3.6386   15.7045 H   0  0  0  0  0  0  0  0  0  0  0  0
  -43.4921   -4.3160   14.6443 H   0  0  0  0  0  0  0  0  0  0  0  0
  -43.4848   -2.2401   13.2860 H   0  0  0  0  0  0  0  0  0  0  0  0
  -41.1152   -7.6510   15.7758 H   0  0  0  0  0  0  0  0  0  0  0  0
  -40.6248   -7.1154   13.2217 H   0  0  0  0  0  0  0  0  0  0  0  0
  -39.8269   -5.7567   14.1107 H   0  0  0  0  0  0  0  0  0  0  0  0
  -38.1154   -7.1924   14.3494 H   0  0  0  0  0  0  0  0  0  0  0  0
  -39.1301   -7.9212   15.6419 H   0  0  0  0  0  0  0  0  0  0  0  0
  1  2  2  0
  1  6  1  0
  1  7  1  0
  2  3  1  0
  3  4  2  0
  4  5  1  0
  4 12  1  0
  5  6  2  0
  7  8  1  0
  8  9  1  6
  8 10  1  0
  8 11  1  0
 12 13  1  6
 12 21  2  0
 12 22  2  0
 13 14  1  0
 14 15  1  0
 15 16  1  0
 16 17  1  0
 17 18  1  1
 17 19  2  0
 17 20  1  0
  2 23  1  0
  3 24  1  0
  5 25  1  0
  6 26  1  0
 13 27  1  0
 14 28  1  0
 14 29  1  0
 15 30  1  0
 15 31  1  0
M  CHG  2  18  -1  20  -1
M  END
>  <filename_input>  (4) 
7L03_F9F_docked.sdf

>  <pdb_id>  (4) 
7L03_F9F

>  <pose_rank>  (4) 
3

>  <num_atoms_heavy>  (4) 
22

>  <num_torsions>  (4) 
8

>  <pose>  (4) 
[-41.42472083570656, -1.7806755214725782, 13.73798872802229, -0.3011683756057586, 0.39869202490951117, 2.5449124405477295, 0.6354682421902228, -0.07128669590135023, -1.0896734315969283, -1.212188004274478, 1.0322759018369752, 1.7140387643628332, 1.8044013833236803, 3.034921329688519]

>  <energy>  (4) 
-549.7856203526817

>  <inter_energy>  (4) 
-554.816802174811

>  <intra_energy>  (4) 
8.785338191003426

>  <rmsd>  (4) 
7.55395

>  <sdf_rank>  (4) 
0

$$$$

     RDKit          3D

 31 31  0  0  0  0  0  0  0  0999 V2000
  -40.5935   -7.8740   15.0468 C   0  0  0  0  0  0  0  0  0  0  0  0
  -41.8563   -7.3262   15.2181 C   0  0  0  0  0  0  0  0  0  0  0  0
  -41.9951   -5.9762   15.4688 C   0  0  0  0  0  0  0  0  0  0  0  0
  -40.8709   -5.1695   15.5481 C   0  0  0  0  0  0  0  0  0  0  0  0
  -39.6090   -5.7145   15.3777 C   0  0  0  0  0  0  0  0  0  0  0  0
  -39.4702   -7.0645   15.1270 C   0  0  0  0  0  0  0  0  0  0  0  0
  -40.4506   -9.2644   14.7889 O   0  0  0  0  0  0  0  0  0  0  0  0
  -39.2321   -9.7809   14.8852 C   0  0  1  0  0  0  0  0  0  0  0  0
  -39.1882  -10.7627   15.7629 F   0  0  0  0  0  0  0  0  0  0  0  0
  -38.8195  -10.2693   13.7316 F   0  0  0  0  0  0  0  0  0  0  0  0
  -38.3511   -8.8780   15.2644 F   0  0  0  0  0  0  0  0  0  0  0  0
  -41.0484   -3.4460   15.8681 S   0  0  2  0  0  0  0  0  0  0  0  0
  -41.6747   -2.7698   14.5442 N   0  0  0  0  0  0  0  0  0  0  0  0
  -41.1678   -3.1593   13.2217 C   0  0  0  0  0  0  0  0  0  0  0  0
  -41.0527   -1.9659   12.3096 C   0  0  0  0  0  0  0  0  0  0  0  0
  -42.2723   -1.8266   11.5308 O   0  0  0  0  0  0  0  0  0  0  0  0
  -42.3695   -0.6293   10.4522 P   0  0  2  0  0  0  0  0  0  0  0  0
  -41.2719   -0.8949    9.4392 O   0  0  0  0  0  0  0  0  0  0  0  0
  -42.1510    0.6508   11.2357 O   0  0  0  0  0  0  0  0  0  0  0  0
  -43.7599   -0.7248    9.8539 O   0  0  0  0  0  0  0  0  0  0  0  0
  -39.7381   -2.8945   16.0354 O   0  0  0  0  0  0  0  0  0  0  0  0
  -42.0156   -3.2911   16.9106 O   0  0  0  0  0  0  0  0  0  0  0  0
  -42.7473   -7.9680   15.1541 H   0  0  0  0  0  0  0  0  0  0  0  0
  -42.9961   -5.5412   15.6054 H   0  0  0  0  0  0  0  0  0  0  0  0
  -38.7184   -5.0720   15.4421 H   0  0  0  0  0  0  0  0  0  0  0  0
  -38.4686   -7.4986   14.9907 H   0  0  0  0  0  0  0  0  0  0  0  0
  -42.6836   -2.9773   14.5509 H   0  0  0  0  0  0  0  0  0  0  0  0
  -40.1751   -3.6185   13.3388 H   0  0  0  0  0  0  0  0  0  0  0  0
  -41.8748   -3.8732   12.7739 H   0  0  0  0  0  0  0  0  0  0  0  0
  -40.8977   -1.0586   12.9120 H   0  0  0  0  0  0  0  0  0  0  0  0
  -40.1997   -2.1073   11.6296 H   0  0  0  0  0  0  0  0  0  0  0  0
  1  2  2  0
  1  6  1  0
  1  7  1  0
  2  3  1  0
  3  4  2  0
  4  5  1  0
  4 12  1  0
  5  6  2  0
  7  8  1  0
  8  9  1  1
  8 10  1  0
  8 11  1  0
 12 13  1  6
 12 21  2  0
 12 22  2  0
 13 14  1  0
 14 15  1  0
 15 16  1  0
 16 17  1  0
 17 18  1  6
 17 19  2  0
 17 20  1  0
  2 23  1  0
  3 24  1  0
  5 25  1  0
  6 26  1  0
 13 27  1  0
 14 28  1  0
 14 29  1  0
 15 30  1  0
 15 31  1  0
M  CHG  2  18  -1  20  -1
M  END
>  <filename_input>  (5) 
7L03_F9F_docked.sdf

>  <pdb_id>  (5) 
7L03_F9F

>  <pose_rank>  (5) 
4

>  <num_atoms_heavy>  (5) 
22

>  <num_torsions>  (5) 
8

>  <pose>  (5) 
[-40.59354186697257, -7.873997997817166, 15.04681483466291, 0.000380277724404382, -0.1305140417600925, -0.5308342241063302, 7.436389972174166, -7.96291300244866, 0.9259471909074976, 1.6679117915922972, -0.04020302473569846, 2.28794489792777, -2.9567753016740728, -3.078003109133887]

>  <energy>  (5) 
-822.3447352622157

>  <inter_energy>  (5) 
-877.3356998115199

>  <intra_energy>  (5) 
48.66657219197982

>  <rmsd>  (5) 
1.29758

>  <sdf_rank>  (5) 
0

$$$$

     RDKit          3D

 31 31  0  0  0  0  0  0  0  0999 V2000
  -42.0019   -1.1081   12.5668 C   0  0  0  0  0  0  0  0  0  0  0  0
  -41.1513   -2.2002   12.4791 C   0  0  0  0  0  0  0  0  0  0  0  0
  -40.9590   -3.0156   13.5758 C   0  0  0  0  0  0  0  0  0  0  0  0
  -41.6180   -2.7415   14.7639 C   0  0  0  0  0  0  0  0  0  0  0  0
  -42.4677   -1.6514   14.8538 C   0  0  0  0  0  0  0  0  0  0  0  0
  -42.6599   -0.8360   13.7570 C   0  0  0  0  0  0  0  0  0  0  0  0
  -42.1996   -0.2683   11.4374 O   0  0  0  0  0  0  0  0  0  0  0  0
  -42.8503   -0.7819   10.4013 C   0  0  1  0  0  0  0  0  0  0  0  0
  -42.0217   -1.2654    9.4979 F   0  0  0  0  0  0  0  0  0  0  0  0
  -43.6465   -1.7674   10.7684 F   0  0  0  0  0  0  0  0  0  0  0  0
  -43.5984    0.1215    9.8018 F   0  0  0  0  0  0  0  0  0  0  0  0
  -41.3724   -3.7828   16.1639 S   0  0  2  0  0  0  0  0  0  0  0  0
  -41.8237   -5.2734   15.7436 N   0  0  0  0  0  0  0  0  0  0  0  0
  -40.8132   -6.2338   15.2808 C   0  0  0  0  0  0  0  0  0  0  0  0
  -41.4472   -7.5398   14.8785 C   0  0  0  0  0  0  0  0  0  0  0  0
  -40.5801   -8.6422   15.2608 O   0  0  0  0  0  0  0  0  0  0  0  0
  -39.7544   -9.4134   14.1076 P   0  0  2  0  0  0  0  0  0  0  0  0
  -40.6191   -9.3441   12.8630 O   0  0  0  0  0  0  0  0  0  0  0  0
  -39.5631  -10.8301   14.6142 O   0  0  0  0  0  0  0  0  0  0  0  0
  -38.4475   -8.6580   13.9605 O   0  0  0  0  0  0  0  0  0  0  0  0
  -42.2698   -3.3521   17.1926 O   0  0  0  0  0  0  0  0  0  0  0  0
  -39.9680   -3.8341   16.4310 O   0  0  0  0  0  0  0  0  0  0  0  0
  -40.6297   -2.4164   11.5350 H   0  0  0  0  0  0  0  0  0  0  0  0
  -40.2840   -3.8814   13.5071 H   0  0  0  0  0  0  0  0  0  0  0  0
  -42.9887   -1.4358   15.7982 H   0  0  0  0  0  0  0  0  0  0  0  0
  -43.3350    0.0297   13.8268 H   0  0  0  0  0  0  0  0  0  0  0  0
  -42.2788   -5.6917   16.5675 H   0  0  0  0  0  0  0  0  0  0  0  0
  -40.2850   -5.8093   14.4143 H   0  0  0  0  0  0  0  0  0  0  0  0
  -40.1119   -6.4265   16.1060 H   0  0  0  0  0  0  0  0  0  0  0  0
  -42.4184   -7.6460   15.3839 H   0  0  0  0  0  0  0  0  0  0  0  0
  -41.5952   -7.5530   13.7886 H   0  0  0  0  0  0  0  0  0  0  0  0
  1  2  2  0
  1  6  1  0
  1  7  1  0
  2  3  1  0
  3  4  2  0
  4  5  1  0
  4 12  1  0
  5  6  2  0
  7  8  1  0
  8  9  1  6
  8 10  1  0
  8 11  1  0
 12 13  1  6
 12 21  2  0
 12 22  2  0
 13 14  1  0
 14 15  1  0
 15 16  1  0
 16 17  1  0
 17 18  1  6
 17 19  2  0
 17 20  1  0
  2 23  1  0
  3 24  1  0
  5 25  1  0
  6 26  1  0
 13 27  1  0
 14 28  1  0
 14 29  1  0
 15 30  1  0
 15 31  1  0
M  CHG  2  18  -1  20  -1
M  END
>  <filename_input>  (6) 
7L03_F9F_docked.sdf

>  <pdb_id>  (6) 
7L03_F9F

>  <pose_rank>  (6) 
5

>  <num_atoms_heavy>  (6) 
22

>  <num_torsions>  (6) 
8

>  <pose>  (6) 
[-42.00189932941452, -1.1081432992571127, 12.566808376383294, -1.5094297609549194, -2.0590434502288675, -3.180603079147015, 7.64325246981336, 0.7441065574040513, 0.27374741745491893, 0.7943952450604863, 1.2266192429844704, 0.6592298767119563, -5.1233979252869934, -0.587030087359749]

>  <energy>  (6) 
-611.7126495296384

>  <inter_energy>  (6) 
-618.4722213055544

>  <intra_energy>  (6) 
5.4224872252544944

>  <rmsd>  (6) 
7.54897

>  <sdf_rank>  (6) 
0

$$$$

     RDKit          3D

 31 31  0  0  0  0  0  0  0  0999 V2000
  -40.2040   -8.0387   15.4354 C   0  0  0  0  0  0  0  0  0  0  0  0
  -41.5255   -7.6471   15.5914 C   0  0  0  0  0  0  0  0  0  0  0  0
  -41.8363   -6.3113   15.7449 C   0  0  0  0  0  0  0  0  0  0  0  0
  -40.8260   -5.3625   15.7419 C   0  0  0  0  0  0  0  0  0  0  0  0
  -39.5057   -5.7513   15.5864 C   0  0  0  0  0  0  0  0  0  0  0  0
  -39.1949   -7.0872   15.4330 C   0  0  0  0  0  0  0  0  0  0  0  0
  -39.8839   -9.4144   15.2776 O   0  0  0  0  0  0  0  0  0  0  0  0
  -40.2704  -10.0061   14.1545 C   0  0  1  0  0  0  0  0  0  0  0  0
  -41.5816   -9.9947   14.0253 F   0  0  0  0  0  0  0  0  0  0  0  0
  -39.7678   -9.4066   13.0925 F   0  0  0  0  0  0  0  0  0  0  0  0
  -39.8843  -11.2648   14.1115 F   0  0  0  0  0  0  0  0  0  0  0  0
  -41.2232   -3.6571   15.9377 S   0  0  2  0  0  0  0  0  0  0  0  0
  -42.0483   -3.1989   14.6294 N   0  0  0  0  0  0  0  0  0  0  0  0
  -41.7623   -1.8978   14.0104 C   0  0  0  0  0  0  0  0  0  0  0  0
  -42.3488   -1.8132   12.6254 C   0  0  0  0  0  0  0  0  0  0  0  0
  -41.2820   -1.6432   11.6526 O   0  0  0  0  0  0  0  0  0  0  0  0
  -41.5595   -0.7287   10.3515 P   0  0  2  0  0  0  0  0  0  0  0  0
  -40.7458    0.5357   10.5533 O   0  0  0  0  0  0  0  0  0  0  0  0
  -43.0542   -0.4718   10.3386 O   0  0  0  0  0  0  0  0  0  0  0  0
  -41.0915   -1.5479    9.1639 O   0  0  0  0  0  0  0  0  0  0  0  0
  -39.9969   -2.9188   15.9345 O   0  0  0  0  0  0  0  0  0  0  0  0
  -42.1127   -3.5394   17.0518 O   0  0  0  0  0  0  0  0  0  0  0  0
  -42.3260   -8.4016   15.5928 H   0  0  0  0  0  0  0  0  0  0  0  0
  -42.8840   -6.0001   15.8694 H   0  0  0  0  0  0  0  0  0  0  0  0
  -38.7059   -4.9962   15.5853 H   0  0  0  0  0  0  0  0  0  0  0  0
  -38.1468   -7.3973   15.3088 H   0  0  0  0  0  0  0  0  0  0  0  0
  -41.8867   -3.9156   13.9076 H   0  0  0  0  0  0  0  0  0  0  0  0
  -42.1958   -1.1012   14.6330 H   0  0  0  0  0  0  0  0  0  0  0  0
  -40.6713   -1.7803   13.9346 H   0  0  0  0  0  0  0  0  0  0  0  0
  -42.9011   -2.7385   12.4048 H   0  0  0  0  0  0  0  0  0  0  0  0
  -43.0328   -0.9535   12.5708 H   0  0  0  0  0  0  0  0  0  0  0  0
  1  2  2  0
  1  6  1  0
  1  7  1  0
  2  3  1  0
  3  4  2  0
  4  5  1  0
  4 12  1  0
  5  6  2  0
  7  8  1  0
  8  9  1  6
  8 10  1  0
  8 11  1  0
 12 13  1  6
 12 21  2  0
 12 22  2  0
 13 14  1  0
 14 15  1  0
 15 16  1  0
 16 17  1  0
 17 18  1  1
 17 19  2  0
 17 20  1  0
  2 23  1  0
  3 24  1  0
  5 25  1  0
  6 26  1  0
 13 27  1  0
 14 28  1  0
 14 29  1  0
 15 30  1  0
 15 31  1  0
M  CHG  2  18  -1  20  -1
M  END
>  <filename_input>  (7) 
7L03_F9F_docked.sdf

>  <pdb_id>  (7) 
7L03_F9F

>  <pose_rank>  (7) 
6

>  <num_atoms_heavy>  (7) 
22

>  <num_torsions>  (7) 
8

>  <pose>  (7) 
[-40.20402404709135, -8.038654643255503, 15.435376249374315, -0.067809693912109, -0.13424926922258604, -0.3956421897414602, -5.053967249429783, 9.226498968115479, -6.322170939164051, 7.521672897002773, 0.5435055842322558, 3.104174527860058, -5.127501874699441, -0.007187419520598164]

>  <energy>  (7) 
-938.8420232018174

>  <inter_energy>  (7) 
-946.5389813759488

>  <intra_energy>  (7) 
10.093974418680318

>  <rmsd>  (7) 
1.22182

>  <sdf_rank>  (7) 
0

$$$$

     RDKit          3D

 31 31  0  0  0  0  0  0  0  0999 V2000
  -41.9726   -1.3260   12.5360 C   0  0  0  0  0  0  0  0  0  0  0  0
  -40.7970   -1.0359   13.2127 C   0  0  0  0  0  0  0  0  0  0  0  0
  -40.2327   -1.9760   14.0508 C   0  0  0  0  0  0  0  0  0  0  0  0
  -40.8423   -3.2100   14.2141 C   0  0  0  0  0  0  0  0  0  0  0  0
  -42.0164   -3.5016   13.5396 C   0  0  0  0  0  0  0  0  0  0  0  0
  -42.5807   -2.5616   12.7014 C   0  0  0  0  0  0  0  0  0  0  0  0
  -42.5538   -0.3578   11.6731 O   0  0  0  0  0  0  0  0  0  0  0  0
  -42.3689   -0.5137   10.3684 C   0  0  1  0  0  0  0  0  0  0  0  0
  -43.4051   -1.0926    9.7962 F   0  0  0  0  0  0  0  0  0  0  0  0
  -42.1840    0.6433    9.7627 F   0  0  0  0  0  0  0  0  0  0  0  0
  -41.3141   -1.2605   10.1137 F   0  0  0  0  0  0  0  0  0  0  0  0
  -40.1216   -4.4100   15.2842 S   0  0  2  0  0  0  0  0  0  0  0  0
  -39.7888   -5.7140   14.3947 N   0  0  0  0  0  0  0  0  0  0  0  0
  -38.7068   -6.6173   14.8083 C   0  0  0  0  0  0  0  0  0  0  0  0
  -39.0416   -8.0506   14.4876 C   0  0  0  0  0  0  0  0  0  0  0  0
  -38.5801   -8.3721   13.1471 O   0  0  0  0  0  0  0  0  0  0  0  0
  -38.6587   -9.9054   12.6484 P   0  0  2  0  0  0  0  0  0  0  0  0
  -37.4387  -10.1187   11.7723 O   0  0  0  0  0  0  0  0  0  0  0  0
  -39.9623  -10.0240   11.8822 O   0  0  0  0  0  0  0  0  0  0  0  0
  -38.6356  -10.7507   13.9075 O   0  0  0  0  0  0  0  0  0  0  0  0
  -41.1160   -4.8005   16.2369 O   0  0  0  0  0  0  0  0  0  0  0  0
  -38.8706   -3.8914   15.7448 O   0  0  0  0  0  0  0  0  0  0  0  0
  -40.3144   -0.0563   13.0812 H   0  0  0  0  0  0  0  0  0  0  0  0
  -39.3009   -1.7464   14.5883 H   0  0  0  0  0  0  0  0  0  0  0  0
  -42.4985   -4.4815   13.6718 H   0  0  0  0  0  0  0  0  0  0  0  0
  -43.5127   -2.7921   12.1646 H   0  0  0  0  0  0  0  0  0  0  0  0
  -40.6502   -6.2773   14.3555 H   0  0  0  0  0  0  0  0  0  0  0  0
  -37.7838   -6.3374   14.2795 H   0  0  0  0  0  0  0  0  0  0  0  0
  -38.5733   -6.5257   15.8963 H   0  0  0  0  0  0  0  0  0  0  0  0
  -38.5474   -8.7130   15.2135 H   0  0  0  0  0  0  0  0  0  0  0  0
  -40.1312   -8.1917   14.5419 H   0  0  0  0  0  0  0  0  0  0  0  0
  1  2  2  0
  1  6  1  0
  1  7  1  0
  2  3  1  0
  3  4  2  0
  4  5  1  0
  4 12  1  0
  5  6  2  0
  7  8  1  0
  8  9  1  6
  8 10  1  0
  8 11  1  0
 12 13  1  6
 12 21  2  0
 12 22  2  0
 13 14  1  0
 14 15  1  0
 15 16  1  0
 16 17  1  0
 17 18  1  6
 17 19  2  0
 17 20  1  0
  2 23  1  0
  3 24  1  0
  5 25  1  0
  6 26  1  0
 13 27  1  0
 14 28  1  0
 14 29  1  0
 15 30  1  0
 15 31  1  0
M  CHG  2  18  -1  20  -1
M  END
>  <filename_input>  (8) 
7L03_F9F_docked.sdf

>  <pdb_id>  (8) 
7L03_F9F

>  <pose_rank>  (8) 
7

>  <num_atoms_heavy>  (8) 
22

>  <num_torsions>  (8) 
8

>  <pose>  (8) 
[-41.97255274284406, -1.3260477424515842, 12.536031077986193, 0.49292844566627403, -0.4748049244894446, -3.086890304990546, 0.29914057430736457, -4.530256755464572, -0.3878792026788198, -1.434149678993733, -0.1975053826878739, -1.317322040495651, 1.741910873625058, -3.5014568133100648]

>  <energy>  (8) 
-535.4752389046977

>  <inter_energy>  (8) 
-535.4253301859083

>  <intra_energy>  (8) 
3.6405189101744067

>  <rmsd>  (8) 
7.72374

>  <sdf_rank>  (8) 
0

$$$$

     RDKit          3D

 31 31  0  0  0  0  0  0  0  0999 V2000
  -41.9630   -1.0308   12.0923 C   0  0  0  0  0  0  0  0  0  0  0  0
  -41.1133   -0.6063   13.1031 C   0  0  0  0  0  0  0  0  0  0  0  0
  -40.8367   -1.4395   14.1679 C   0  0  0  0  0  0  0  0  0  0  0  0
  -41.4087   -2.7007   14.2246 C   0  0  0  0  0  0  0  0  0  0  0  0
  -42.2577   -3.1264   13.2164 C   0  0  0  0  0  0  0  0  0  0  0  0
  -42.5343   -2.2932   12.1516 C   0  0  0  0  0  0  0  0  0  0  0  0
  -42.2481   -0.1725   10.9958 O   0  0  0  0  0  0  0  0  0  0  0  0
  -41.3524   -0.1126   10.0187 C   0  0  1  0  0  0  0  0  0  0  0  0
  -41.3793   -1.1948    9.2674 F   0  0  0  0  0  0  0  0  0  0  0  0
  -41.5676    0.9191    9.2257 F   0  0  0  0  0  0  0  0  0  0  0  0
  -40.1278    0.0058   10.4897 F   0  0  0  0  0  0  0  0  0  0  0  0
  -41.0553   -3.7643   15.5841 S   0  0  2  0  0  0  0  0  0  0  0  0
  -40.4488   -5.1330   14.9831 N   0  0  0  0  0  0  0  0  0  0  0  0
  -39.2869   -5.7570   15.6298 C   0  0  0  0  0  0  0  0  0  0  0  0
  -39.4688   -7.2471   15.7553 C   0  0  0  0  0  0  0  0  0  0  0  0
  -39.3370   -7.8674   14.4472 O   0  0  0  0  0  0  0  0  0  0  0  0
  -39.5648   -9.4605   14.3195 P   0  0  2  0  0  0  0  0  0  0  0  0
  -39.0133   -9.8498   12.9610 O   0  0  0  0  0  0  0  0  0  0  0  0
  -41.0623   -9.6736   14.4306 O   0  0  0  0  0  0  0  0  0  0  0  0
  -38.7939  -10.0811   15.4689 O   0  0  0  0  0  0  0  0  0  0  0  0
  -42.2972   -4.1009   16.2111 O   0  0  0  0  0  0  0  0  0  0  0  0
  -40.0180   -3.1556   16.3587 O   0  0  0  0  0  0  0  0  0  0  0  0
  -40.6598    0.3947   13.0559 H   0  0  0  0  0  0  0  0  0  0  0  0
  -40.1634   -1.1033   14.9702 H   0  0  0  0  0  0  0  0  0  0  0  0
  -42.7110   -4.1275   13.2645 H   0  0  0  0  0  0  0  0  0  0  0  0
  -43.2079   -2.6303   11.3499 H   0  0  0  0  0  0  0  0  0  0  0  0
  -41.2084   -5.8284   14.9973 H   0  0  0  0  0  0  0  0  0  0  0  0
  -38.3891   -5.5545   15.0273 H   0  0  0  0  0  0  0  0  0  0  0  0
  -39.1802   -5.3327   16.6391 H   0  0  0  0  0  0  0  0  0  0  0  0
  -38.7025   -7.6536   16.4318 H   0  0  0  0  0  0  0  0  0  0  0  0
  -40.4689   -7.4597   16.1609 H   0  0  0  0  0  0  0  0  0  0  0  0
  1  2  2  0
  1  6  1  0
  1  7  1  0
  2  3  1  0
  3  4  2  0
  4  5  1  0
  4 12  1  0
  5  6  2  0
  7  8  1  0
  8  9  1  6
  8 10  1  0
  8 11  1  0
 12 13  1  6
 12 21  2  0
 12 22  2  0
 13 14  1  0
 14 15  1  0
 15 16  1  0
 16 17  1  0
 17 18  1  6
 17 19  2  0
 17 20  1  0
  2 23  1  0
  3 24  1  0
  5 25  1  0
  6 26  1  0
 13 27  1  0
 14 28  1  0
 14 29  1  0
 15 30  1  0
 15 31  1  0
M  CHG  2  18  -1  20  -1
M  END
>  <filename_input>  (9) 
7L03_F9F_docked.sdf

>  <pdb_id>  (9) 
7L03_F9F

>  <pose_rank>  (9) 
8

>  <num_atoms_heavy>  (9) 
22

>  <num_torsions>  (9) 
8

>  <pose>  (9) 
[-41.96304342044094, -1.0307795058044762, 12.092301774036669, 1.0397555815672819, -0.571361478889504, -2.9096850299597343, 0.24564737471001358, -4.819872976350936, -0.5386561306497244, -1.7274912471811914, -0.013262742892077455, -1.6826743495336625, 1.379641095318635, -3.9146399215247945]

>  <energy>  (9) 
-613.5269009803761

>  <inter_energy>  (9) 
-614.359218431835

>  <intra_energy>  (9) 
9.099502976410879

>  <rmsd>  (9) 
7.75557

>  <sdf_rank>  (9) 
0

$$$$

     RDKit          3D

 31 31  0  0  0  0  0  0  0  0999 V2000
  -46.3248   -2.6094   17.7358 C   0  0  0  0  0  0  0  0  0  0  0  0
  -46.2739   -1.2831   17.3330 C   0  0  0  0  0  0  0  0  0  0  0  0
  -45.3327   -0.8780   16.4084 C   0  0  0  0  0  0  0  0  0  0  0  0
  -44.4399   -1.7987   15.8831 C   0  0  0  0  0  0  0  0  0  0  0  0
  -44.4889   -3.1236   16.2842 C   0  0  0  0  0  0  0  0  0  0  0  0
  -45.4301   -3.5287   17.2088 C   0  0  0  0  0  0  0  0  0  0  0  0
  -47.2939   -3.0265   18.6882 O   0  0  0  0  0  0  0  0  0  0  0  0
  -48.5124   -3.2999   18.2395 C   0  0  1  0  0  0  0  0  0  0  0  0
  -49.3653   -3.4800   19.2275 F   0  0  0  0  0  0  0  0  0  0  0  0
  -48.9839   -2.3228   17.4894 F   0  0  0  0  0  0  0  0  0  0  0  0
  -48.5254   -4.3950   17.5074 F   0  0  0  0  0  0  0  0  0  0  0  0
  -43.2386   -1.2813   14.7027 S   0  0  2  0  0  0  0  0  0  0  0  0
  -42.1795   -2.4858   14.5300 N   0  0  0  0  0  0  0  0  0  0  0  0
  -41.0436   -2.3269   13.6123 C   0  0  0  0  0  0  0  0  0  0  0  0
  -41.5075   -2.2382   12.1818 C   0  0  0  0  0  0  0  0  0  0  0  0
  -41.0935   -0.9667   11.6117 O   0  0  0  0  0  0  0  0  0  0  0  0
  -41.5402   -0.6136   10.1011 P   0  0  2  0  0  0  0  0  0  0  0  0
  -41.0579   -1.7701    9.2460 O   0  0  0  0  0  0  0  0  0  0  0  0
  -40.8535    0.6957    9.7629 O   0  0  0  0  0  0  0  0  0  0  0  0
  -43.0519   -0.4953   10.1347 O   0  0  0  0  0  0  0  0  0  0  0  0
  -42.5221   -0.1760   15.2629 O   0  0  0  0  0  0  0  0  0  0  0  0
  -43.8997   -1.1262   13.4436 O   0  0  0  0  0  0  0  0  0  0  0  0
  -46.9838   -0.5540   17.7505 H   0  0  0  0  0  0  0  0  0  0  0  0
  -45.2913    0.1738   16.0890 H   0  0  0  0  0  0  0  0  0  0  0  0
  -43.7785   -3.8520   15.8663 H   0  0  0  0  0  0  0  0  0  0  0  0
  -45.4705   -4.5807   17.5277 H   0  0  0  0  0  0  0  0  0  0  0  0
  -41.7862   -2.6744   15.4630 H   0  0  0  0  0  0  0  0  0  0  0  0
  -40.4995   -1.4065   13.8708 H   0  0  0  0  0  0  0  0  0  0  0  0
  -40.3891   -3.2053   13.7125 H   0  0  0  0  0  0  0  0  0  0  0  0
  -41.0642   -3.0610   11.6017 H   0  0  0  0  0  0  0  0  0  0  0  0
  -42.6045   -2.3129   12.1488 H   0  0  0  0  0  0  0  0  0  0  0  0
  1  2  2  0
  1  6  1  0
  1  7  1  0
  2  3  1  0
  3  4  2  0
  4  5  1  0
  4 12  1  0
  5  6  2  0
  7  8  1  0
  8  9  1  1
  8 10  1  0
  8 11  1  0
 12 13  1  6
 12 21  2  0
 12 22  2  0
 13 14  1  0
 14 15  1  0
 15 16  1  0
 16 17  1  0
 17 18  1  6
 17 19  2  0
 17 20  1  0
  2 23  1  0
  3 24  1  0
  5 25  1  0
  6 26  1  0
 13 27  1  0
 14 28  1  0
 14 29  1  0
 15 30  1  0
 15 31  1  0
M  CHG  2  18  -1  20  -1
M  END
>  <filename_input>  (10) 
7L03_F9F_docked.sdf

>  <pdb_id>  (10) 
7L03_F9F

>  <pose_rank>  (10) 
9

>  <num_atoms_heavy>  (10) 
22

>  <num_torsions>  (10) 
8

>  <pose>  (10) 
[-46.32484934857819, -2.609355472463184, 17.735817473321756, 2.4150641557501253, -0.44297770710704387, 3.5928371271654758, -0.950383623618744, -4.054494617411828, -10.35860220237766, -7.181754904833074, -0.014238321079826864, 0.2488922411754634, 1.410321713960073, -1.9079317929925967]

>  <energy>  (10) 
-473.28517816619706

>  <inter_energy>  (10) 
-481.03956249840223

>  <intra_energy>  (10) 
21.94586009991516

>  <rmsd>  (10) 
6.73208

>  <sdf_rank>  (10) 
0

$$$$

     RDKit          3D

 31 31  0  0  0  0  0  0  0  0999 V2000
  -42.1776   -3.4026   15.2654 C   0  0  0  0  0  0  0  0  0  0  0  0
  -41.1142   -2.8158   14.5956 C   0  0  0  0  0  0  0  0  0  0  0  0
  -39.8927   -3.4561   14.5441 C   0  0  0  0  0  0  0  0  0  0  0  0
  -39.7313   -4.6862   15.1620 C   0  0  0  0  0  0  0  0  0  0  0  0
  -40.7918   -5.2738   15.8317 C   0  0  0  0  0  0  0  0  0  0  0  0
  -42.0134   -4.6335   15.8831 C   0  0  0  0  0  0  0  0  0  0  0  0
  -43.4355   -2.7431   15.3187 O   0  0  0  0  0  0  0  0  0  0  0  0
  -43.4627   -1.5216   15.8363 C   0  0  1  0  0  0  0  0  0  0  0  0
  -44.6956   -1.1208   16.0722 F   0  0  0  0  0  0  0  0  0  0  0  0
  -42.8077   -1.4643   16.9797 F   0  0  0  0  0  0  0  0  0  0  0  0
  -42.9130   -0.6394   15.0270 F   0  0  0  0  0  0  0  0  0  0  0  0
  -38.1717   -5.5034   15.0961 S   0  0  2  0  0  0  0  0  0  0  0  0
  -38.4148   -7.0442   15.5074 N   0  0  0  0  0  0  0  0  0  0  0  0
  -37.3672   -8.0394   15.2432 C   0  0  0  0  0  0  0  0  0  0  0  0
  -37.7537   -8.9478   14.1054 C   0  0  0  0  0  0  0  0  0  0  0  0
  -39.1760   -9.2401   14.1748 O   0  0  0  0  0  0  0  0  0  0  0  0
  -39.8743   -9.9888   12.9266 P   0  0  2  0  0  0  0  0  0  0  0  0
  -39.5849  -11.4659   13.1156 O   0  0  0  0  0  0  0  0  0  0  0  0
  -39.2218   -9.4148   11.6835 O   0  0  0  0  0  0  0  0  0  0  0  0
  -41.3519   -9.6603   13.0224 O   0  0  0  0  0  0  0  0  0  0  0  0
  -37.3346   -4.9314   16.1065 O   0  0  0  0  0  0  0  0  0  0  0  0
  -37.7331   -5.5015   13.7345 O   0  0  0  0  0  0  0  0  0  0  0  0
  -41.2445   -1.8398   14.1053 H   0  0  0  0  0  0  0  0  0  0  0  0
  -39.0487   -2.9910   14.0137 H   0  0  0  0  0  0  0  0  0  0  0  0
  -40.6606   -6.2497   16.3219 H   0  0  0  0  0  0  0  0  0  0  0  0
  -42.8566   -5.0994   16.4140 H   0  0  0  0  0  0  0  0  0  0  0  0
  -38.5922   -7.0586   16.5219 H   0  0  0  0  0  0  0  0  0  0  0  0
  -36.4338   -7.5179   14.9849 H   0  0  0  0  0  0  0  0  0  0  0  0
  -37.2321   -8.6514   16.1472 H   0  0  0  0  0  0  0  0  0  0  0  0
  -37.5282   -8.4529   13.1492 H   0  0  0  0  0  0  0  0  0  0  0  0
  -37.1844   -9.8862   14.1782 H   0  0  0  0  0  0  0  0  0  0  0  0
  1  2  2  0
  1  6  1  0
  1  7  1  0
  2  3  1  0
  3  4  2  0
  4  5  1  0
  4 12  1  0
  5  6  2  0
  7  8  1  0
  8  9  1  1
  8 10  1  0
  8 11  1  0
 12 13  1  1
 12 21  2  0
 12 22  2  0
 13 14  1  0
 14 15  1  0
 15 16  1  0
 16 17  1  0
 17 18  1  1
 17 19  2  0
 17 20  1  0
  2 23  1  0
  3 24  1  0
  5 25  1  0
  6 26  1  0
 13 27  1  0
 14 28  1  0
 14 29  1  0
 15 30  1  0
 15 31  1  0
M  CHG  2  18  -1  20  -1
M  END
>  <filename_input>  (11) 
7L03_F9F_docked.sdf

>  <pdb_id>  (11) 
7L03_F9F

>  <pose_rank>  (11) 
10

>  <num_atoms_heavy>  (11) 
22

>  <num_torsions>  (11) 
8

>  <pose>  (11) 
[-42.17760416963965, -3.40262735462839, 15.265443597627826, -0.9202070284026564, -0.519346890341429, -2.5555651939085573, -0.46412560036074446, -4.317644039668917, 1.4929486441441469, 2.627276696859469, -0.24177937253498175, -3.6434994876805065, -1.0331891692246409, -1.8564518355667277]

>  <energy>  (11) 
-455.96030976607324

>  <inter_energy>  (11) 
-464.39072252792505

>  <intra_energy>  (11) 
10.35774399053502

>  <rmsd>  (11) 
7.43529

>  <sdf_rank>  (11) 
0

$$$$

     RDKit          3D

 31 31  0  0  0  0  0  0  0  0999 V2000
  -41.3007   -0.8058   12.2107 C   0  0  0  0  0  0  0  0  0  0  0  0
  -40.4789   -0.6435   13.3162 C   0  0  0  0  0  0  0  0  0  0  0  0
  -40.5622   -1.5260   14.3740 C   0  0  0  0  0  0  0  0  0  0  0  0
  -41.4676   -2.5744   14.3289 C   0  0  0  0  0  0  0  0  0  0  0  0
  -42.2894   -2.7381   13.2260 C   0  0  0  0  0  0  0  0  0  0  0  0
  -42.2061   -1.8556   12.1682 C   0  0  0  0  0  0  0  0  0  0  0  0
  -41.2150    0.1033   11.1214 O   0  0  0  0  0  0  0  0  0  0  0  0
  -41.5584   -0.3478    9.9217 C   0  0  1  0  0  0  0  0  0  0  0  0
  -42.8453   -0.1844    9.6908 F   0  0  0  0  0  0  0  0  0  0  0  0
  -40.9064    0.2802    8.9623 F   0  0  0  0  0  0  0  0  0  0  0  0
  -41.2984   -1.6328    9.7938 F   0  0  0  0  0  0  0  0  0  0  0  0
  -41.5738   -3.7009   15.6794 S   0  0  2  0  0  0  0  0  0  0  0  0
  -40.9669   -5.1107   15.1828 N   0  0  0  0  0  0  0  0  0  0  0  0
  -39.5122   -5.3148   15.1837 C   0  0  0  0  0  0  0  0  0  0  0  0
  -39.1671   -6.7728   15.3399 C   0  0  0  0  0  0  0  0  0  0  0  0
  -40.0730   -7.5782   14.5375 O   0  0  0  0  0  0  0  0  0  0  0  0
  -39.7151   -9.1331   14.2917 P   0  0  2  0  0  0  0  0  0  0  0  0
  -40.8905   -9.7124   13.5273 O   0  0  0  0  0  0  0  0  0  0  0  0
  -39.5514   -9.7420   15.6710 O   0  0  0  0  0  0  0  0  0  0  0  0
  -38.4288   -9.1384   13.4880 O   0  0  0  0  0  0  0  0  0  0  0  0
  -42.9604   -3.9213   15.9579 O   0  0  0  0  0  0  0  0  0  0  0  0
  -40.7146   -3.2221   16.7182 O   0  0  0  0  0  0  0  0  0  0  0  0
  -39.7605    0.1888   13.3499 H   0  0  0  0  0  0  0  0  0  0  0  0
  -39.9113   -1.3975   15.2514 H   0  0  0  0  0  0  0  0  0  0  0  0
  -43.0077   -3.5706   13.1933 H   0  0  0  0  0  0  0  0  0  0  0  0
  -42.8576   -1.9849   11.2914 H   0  0  0  0  0  0  0  0  0  0  0  0
  -41.3717   -5.8401   15.7868 H   0  0  0  0  0  0  0  0  0  0  0  0
  -39.0978   -4.9478   14.2331 H   0  0  0  0  0  0  0  0  0  0  0  0
  -39.0834   -4.7623   16.0327 H   0  0  0  0  0  0  0  0  0  0  0  0
  -38.1331   -6.9420   15.0051 H   0  0  0  0  0  0  0  0  0  0  0  0
  -39.2638   -7.0593   16.3976 H   0  0  0  0  0  0  0  0  0  0  0  0
  1  2  2  0
  1  6  1  0
  1  7  1  0
  2  3  1  0
  3  4  2  0
  4  5  1  0
  4 12  1  0
  5  6  2  0
  7  8  1  0
  8  9  1  6
  8 10  1  0
  8 11  1  0
 12 13  1  6
 12 21  2  0
 12 22  2  0
 13 14  1  0
 14 15  1  0
 15 16  1  0
 16 17  1  0
 17 18  1  6
 17 19  2  0
 17 20  1  0
  2 23  1  0
  3 24  1  0
  5 25  1  0
  6 26  1  0
 13 27  1  0
 14 28  1  0
 14 29  1  0
 15 30  1  0
 15 31  1  0
M  CHG  2  18  -1  20  -1
M  END
>  <filename_input>  (12) 
7L03_F9F_docked.sdf

>  <pdb_id>  (12) 
7L03_F9F

>  <pose_rank>  (12) 
11

>  <num_atoms_heavy>  (12) 
22

>  <num_torsions>  (12) 
8

>  <pose>  (12) 
[-41.30071635321461, -0.8057690909687426, 12.210705432739124, 1.2135190316323803, -0.7548791511181274, -3.1210634200820047, 0.4840105352759331, -5.78351395428799, -0.24625879918485621, -2.2752034741698495, -0.28719794315813385, -2.0126483379229807, 2.633004603263026, -3.6608970533973237]

>  <energy>  (12) 
-679.1214470103276

>  <inter_energy>  (12) 
-686.5458786201249

>  <intra_energy>  (12) 
25.140683883562268

>  <rmsd>  (12) 
7.57557

>  <sdf_rank>  (12) 
0

$$$$

     RDKit          3D

 31 31  0  0  0  0  0  0  0  0999 V2000
  -41.4932   -3.0990   15.6219 C   0  0  0  0  0  0  0  0  0  0  0  0
  -40.2008   -2.8728   16.0719 C   0  0  0  0  0  0  0  0  0  0  0  0
  -39.2234   -3.8265   15.8725 C   0  0  0  0  0  0  0  0  0  0  0  0
  -39.5356   -5.0095   15.2212 C   0  0  0  0  0  0  0  0  0  0  0  0
  -40.8256   -5.2374   14.7713 C   0  0  0  0  0  0  0  0  0  0  0  0
  -41.8030   -4.2837   14.9708 C   0  0  0  0  0  0  0  0  0  0  0  0
  -42.4998   -2.1169   15.8276 O   0  0  0  0  0  0  0  0  0  0  0  0
  -43.5470   -2.4617   16.5660 C   0  0  1  0  0  0  0  0  0  0  0  0
  -43.1879   -3.1656   17.6204 F   0  0  0  0  0  0  0  0  0  0  0  0
  -44.1998   -1.4035   17.0065 F   0  0  0  0  0  0  0  0  0  0  0  0
  -44.4038   -3.1919   15.8819 F   0  0  0  0  0  0  0  0  0  0  0  0
  -38.2876   -6.2268   14.9666 S   0  0  2  0  0  0  0  0  0  0  0  0
  -38.9811   -7.6736   15.1349 N   0  0  0  0  0  0  0  0  0  0  0  0
  -38.4333   -8.8290   14.4119 C   0  0  0  0  0  0  0  0  0  0  0  0
  -39.2264   -9.1163   13.1638 C   0  0  0  0  0  0  0  0  0  0  0  0
  -39.1063  -10.5240   12.8217 O   0  0  0  0  0  0  0  0  0  0  0  0
  -40.1904  -11.5608   13.4182 P   0  0  2  0  0  0  0  0  0  0  0  0
  -41.5220  -10.8352   13.3790 O   0  0  0  0  0  0  0  0  0  0  0  0
  -39.7304  -11.8724   14.8295 O   0  0  0  0  0  0  0  0  0  0  0  0
  -40.1508  -12.7706   12.5043 O   0  0  0  0  0  0  0  0  0  0  0  0
  -37.3304   -6.1002   16.0233 O   0  0  0  0  0  0  0  0  0  0  0  0
  -37.8523   -6.1307   13.6074 O   0  0  0  0  0  0  0  0  0  0  0  0
  -39.9549   -1.9330   16.5880 H   0  0  0  0  0  0  0  0  0  0  0  0
  -38.1984   -3.6482   16.2297 H   0  0  0  0  0  0  0  0  0  0  0  0
  -41.0708   -6.1776   14.2555 H   0  0  0  0  0  0  0  0  0  0  0  0
  -42.8278   -4.4632   14.6133 H   0  0  0  0  0  0  0  0  0  0  0  0
  -38.9493   -7.9058   16.1378 H   0  0  0  0  0  0  0  0  0  0  0  0
  -37.3905   -8.6166   14.1335 H   0  0  0  0  0  0  0  0  0  0  0  0
  -38.4874   -9.7091   15.0695 H   0  0  0  0  0  0  0  0  0  0  0  0
  -40.2844   -8.8711   13.3381 H   0  0  0  0  0  0  0  0  0  0  0  0
  -38.8378   -8.5051   12.3359 H   0  0  0  0  0  0  0  0  0  0  0  0
  1  2  2  0
  1  6  1  0
  1  7  1  0
  2  3  1  0
  3  4  2  0
  4  5  1  0
  4 12  1  0
  5  6  2  0
  7  8  1  0
  8  9  1  1
  8 10  1  0
  8 11  1  0
 12 13  1  6
 12 21  2  0
 12 22  2  0
 13 14  1  0
 14 15  1  0
 15 16  1  0
 16 17  1  0
 17 18  1  1
 17 19  2  0
 17 20  1  0
  2 23  1  0
  3 24  1  0
  5 25  1  0
  6 26  1  0
 13 27  1  0
 14 28  1  0
 14 29  1  0
 15 30  1  0
 15 31  1  0
M  CHG  2  18  -1  20  -1
M  END
>  <filename_input>  (13) 
7L03_F9F_docked.sdf

>  <pdb_id>  (13) 
7L03_F9F

>  <pose_rank>  (13) 
12

>  <num_atoms_heavy>  (13) 
22

>  <num_torsions>  (13) 
8

>  <pose>  (13) 
[-41.493199724835, -3.098960938496603, 15.621939086294852, 0.009107748573858123, 0.7167719583241103, -2.8567482452820503, -1.3860318785874681, -17.129128043048837, -17.21562667182354, -18.240039370816774, -7.9076533297669975, 1.8789318110323894, 4.181401095889965, 1.7976570253873823]

>  <energy>  (13) 
-457.0164438362517

>  <inter_energy>  (13) 
-466.8980771302898

>  <intra_energy>  (13) 
11.540840713329905

>  <rmsd>  (13) 
7.75566

>  <sdf_rank>  (13) 
0

$$$$

     RDKit          3D

 31 31  0  0  0  0  0  0  0  0999 V2000
  -41.4077   -2.7466   15.4809 C   0  0  0  0  0  0  0  0  0  0  0  0
  -40.5013   -3.0902   16.4730 C   0  0  0  0  0  0  0  0  0  0  0  0
  -39.6310   -4.1435   16.2785 C   0  0  0  0  0  0  0  0  0  0  0  0
  -39.6641   -4.8560   15.0902 C   0  0  0  0  0  0  0  0  0  0  0  0
  -40.5686   -4.5148   14.0982 C   0  0  0  0  0  0  0  0  0  0  0  0
  -41.4389   -3.4615   14.2928 C   0  0  0  0  0  0  0  0  0  0  0  0
  -42.3042   -1.6620   15.6814 O   0  0  0  0  0  0  0  0  0  0  0  0
  -43.5837   -1.9556   15.8748 C   0  0  1  0  0  0  0  0  0  0  0  0
  -43.7291   -2.9915   16.6762 F   0  0  0  0  0  0  0  0  0  0  0  0
  -44.2364   -0.9465   16.4183 F   0  0  0  0  0  0  0  0  0  0  0  0
  -44.1907   -2.2489   14.7431 F   0  0  0  0  0  0  0  0  0  0  0  0
  -38.5528   -6.2006   14.8420 S   0  0  2  0  0  0  0  0  0  0  0  0
  -39.4384   -7.5425   14.7100 N   0  0  0  0  0  0  0  0  0  0  0  0
  -39.1903   -8.6679   15.6209 C   0  0  0  0  0  0  0  0  0  0  0  0
  -38.3859   -9.7477   14.9456 C   0  0  0  0  0  0  0  0  0  0  0  0
  -39.2597  -10.8489   14.5753 O   0  0  0  0  0  0  0  0  0  0  0  0
  -39.7435  -10.9705   13.0399 P   0  0  2  0  0  0  0  0  0  0  0  0
  -38.6432  -10.3388   12.2082 O   0  0  0  0  0  0  0  0  0  0  0  0
  -41.0536  -10.2108   12.9585 O   0  0  0  0  0  0  0  0  0  0  0  0
  -39.9050  -12.4550   12.7745 O   0  0  0  0  0  0  0  0  0  0  0  0
  -37.7626   -6.3400   16.0274 O   0  0  0  0  0  0  0  0  0  0  0  0
  -37.9038   -6.0060   13.5822 O   0  0  0  0  0  0  0  0  0  0  0  0
  -40.4762   -2.5230   17.4151 H   0  0  0  0  0  0  0  0  0  0  0  0
  -38.9124   -4.4169   17.0651 H   0  0  0  0  0  0  0  0  0  0  0  0
  -40.5933   -5.0826   13.1565 H   0  0  0  0  0  0  0  0  0  0  0  0
  -42.1573   -3.1890   13.5056 H   0  0  0  0  0  0  0  0  0  0  0  0
  -40.4222   -7.2655   14.8377 H   0  0  0  0  0  0  0  0  0  0  0  0
  -38.6365   -8.3036   16.4987 H   0  0  0  0  0  0  0  0  0  0  0  0
  -40.1593   -9.0922   15.9224 H   0  0  0  0  0  0  0  0  0  0  0  0
  -37.9098   -9.3386   14.0423 H   0  0  0  0  0  0  0  0  0  0  0  0
  -37.6121  -10.1127   15.6371 H   0  0  0  0  0  0  0  0  0  0  0  0
  1  2  2  0
  1  6  1  0
  1  7  1  0
  2  3  1  0
  3  4  2  0
  4  5  1  0
  4 12  1  0
  5  6  2  0
  7  8  1  0
  8  9  1  1
  8 10  1  0
  8 11  1  0
 12 13  1  6
 12 21  2  0
 12 22  2  0
 13 14  1  0
 14 15  1  0
 15 16  1  0
 16 17  1  0
 17 18  1  6
 17 19  2  0
 17 20  1  0
  2 23  1  0
  3 24  1  0
  5 25  1  0
  6 26  1  0
 13 27  1  0
 14 28  1  0
 14 29  1  0
 15 30  1  0
 15 31  1  0
M  CHG  2  18  -1  20  -1
M  END
>  <filename_input>  (14) 
7L03_F9F_docked.sdf

>  <pdb_id>  (14) 
7L03_F9F

>  <pose_rank>  (14) 
13

>  <num_atoms_heavy>  (14) 
22

>  <num_torsions>  (14) 
8

>  <pose>  (14) 
[-41.40774704906993, -2.7466009887490745, 15.480883182043836, 0.8595991217864589, 1.266551501260809, -2.6148756825867148, -1.8652684043392276, -15.64649001629166, -17.25182995621089, -17.358206576270728, -7.724417970810673, 1.702509648446509, 4.3603635281675075, 1.801155117994265]

>  <energy>  (14) 
-443.0449269788381

>  <inter_energy>  (14) 
-440.6649440694014

>  <intra_energy>  (14) 
4.964792277570835

>  <rmsd>  (14) 
7.7012

>  <sdf_rank>  (14) 
0

$$$$

     RDKit          3D

 31 31  0  0  0  0  0  0  0  0999 V2000
  -41.7326   -2.6773   14.5755 C   0  0  0  0  0  0  0  0  0  0  0  0
  -40.5462   -2.2184   15.1284 C   0  0  0  0  0  0  0  0  0  0  0  0
  -39.5032   -3.0946   15.3498 C   0  0  0  0  0  0  0  0  0  0  0  0
  -39.6434   -4.4329   15.0179 C   0  0  0  0  0  0  0  0  0  0  0  0
  -40.8274   -4.8933   14.4659 C   0  0  0  0  0  0  0  0  0  0  0  0
  -41.8704   -4.0172   14.2445 C   0  0  0  0  0  0  0  0  0  0  0  0
  -42.8069   -1.7750   14.3478 O   0  0  0  0  0  0  0  0  0  0  0  0
  -43.0805   -1.4572   13.0888 C   0  0  1  0  0  0  0  0  0  0  0  0
  -44.0940   -0.6189   13.0082 F   0  0  0  0  0  0  0  0  0  0  0  0
  -42.0504   -0.8827   12.4985 F   0  0  0  0  0  0  0  0  0  0  0  0
  -43.3951   -2.5203   12.3774 F   0  0  0  0  0  0  0  0  0  0  0  0
  -38.3116   -5.5512   15.3006 S   0  0  2  0  0  0  0  0  0  0  0  0
  -37.1589   -4.7423   16.0876 N   0  0  0  0  0  0  0  0  0  0  0  0
  -37.3497   -3.3174   16.3892 C   0  0  0  0  0  0  0  0  0  0  0  0
  -36.5371   -2.9009   17.5873 C   0  0  0  0  0  0  0  0  0  0  0  0
  -36.4988   -1.4502   17.6716 O   0  0  0  0  0  0  0  0  0  0  0  0
  -35.5736   -0.7646   18.8030 P   0  0  2  0  0  0  0  0  0  0  0  0
  -35.3358    0.6591   18.3362 O   0  0  0  0  0  0  0  0  0  0  0  0
  -34.3015   -1.5891   18.8513 O   0  0  0  0  0  0  0  0  0  0  0  0
  -36.3730   -0.8376   20.0898 O   0  0  0  0  0  0  0  0  0  0  0  0
  -37.7676   -5.9151   14.0275 O   0  0  0  0  0  0  0  0  0  0  0  0
  -38.7784   -6.5741   16.1849 O   0  0  0  0  0  0  0  0  0  0  0  0
  -40.4367   -1.1557   15.3904 H   0  0  0  0  0  0  0  0  0  0  0  0
  -38.5623   -2.7314   15.7888 H   0  0  0  0  0  0  0  0  0  0  0  0
  -40.9362   -5.9562   14.2044 H   0  0  0  0  0  0  0  0  0  0  0  0
  -42.8110   -4.3814   13.8056 H   0  0  0  0  0  0  0  0  0  0  0  0
  -37.0179   -5.2224   16.9879 H   0  0  0  0  0  0  0  0  0  0  0  0
  -37.0374   -2.7214   15.5190 H   0  0  0  0  0  0  0  0  0  0  0  0
  -38.4132   -3.1481   16.6136 H   0  0  0  0  0  0  0  0  0  0  0  0
  -36.9959   -3.3085   18.5002 H   0  0  0  0  0  0  0  0  0  0  0  0
  -35.5123   -3.2876   17.4854 H   0  0  0  0  0  0  0  0  0  0  0  0
  1  2  2  0
  1  6  1  0
  1  7  1  0
  2  3  1  0
  3  4  2  0
  4  5  1  0
  4 12  1  0
  5  6  2  0
  7  8  1  0
  8  9  1  1
  8 10  1  0
  8 11  1  0
 12 13  1  1
 12 21  2  0
 12 22  2  0
 13 14  1  0
 14 15  1  0
 15 16  1  0
 16 17  1  0
 17 18  1  6
 17 19  2  0
 17 20  1  0
  2 23  1  0
  3 24  1  0
  5 25  1  0
  6 26  1  0
 13 27  1  0
 14 28  1  0
 14 29  1  0
 15 30  1  0
 15 31  1  0
M  CHG  2  18  -1  20  -1
M  END
>  <filename_input>  (15) 
7L03_F9F_docked.sdf

>  <pdb_id>  (15) 
7L03_F9F

>  <pose_rank>  (15) 
14

>  <num_atoms_heavy>  (15) 
22

>  <num_torsions>  (15) 
8

>  <pose>  (15) 
[-41.73263863282629, -2.6773435154992504, 14.575489087750634, -0.199538287317439, -0.3376366538645598, 3.4231361434747103, 2.498369344125184, -0.9577551510011949, -0.212564941205715, -0.08032000850774991, 0.030293892936412055, -2.2886641770993403, 1.8620813003836059, -2.0739354163894386]

>  <energy>  (15) 
-403.8263611525739

>  <inter_energy>  (15) 
-455.26411279081674

>  <intra_energy>  (15) 
69.69835606263405

>  <rmsd>  (15) 
7.42452

>  <sdf_rank>  (15) 
0

$$$$

     RDKit          3D

 31 31  0  0  0  0  0  0  0  0999 V2000
  -37.8430   -2.7189   16.5008 C   0  0  0  0  0  0  0  0  0  0  0  0
  -38.5076   -3.8870   16.1578 C   0  0  0  0  0  0  0  0  0  0  0  0
  -39.6710   -3.8277   15.4178 C   0  0  0  0  0  0  0  0  0  0  0  0
  -40.1729   -2.5994   15.0177 C   0  0  0  0  0  0  0  0  0  0  0  0
  -39.5110   -1.4316   15.3594 C   0  0  0  0  0  0  0  0  0  0  0  0
  -38.3476   -1.4909   16.0994 C   0  0  0  0  0  0  0  0  0  0  0  0
  -36.6450   -2.7800   17.2632 O   0  0  0  0  0  0  0  0  0  0  0  0
  -36.3456   -1.7282   18.0148 C   0  0  1  0  0  0  0  0  0  0  0  0
  -37.1979   -1.5829   19.0092 F   0  0  0  0  0  0  0  0  0  0  0  0
  -35.1424   -1.8368   18.5441 F   0  0  0  0  0  0  0  0  0  0  0  0
  -36.3655   -0.6114   17.3165 F   0  0  0  0  0  0  0  0  0  0  0  0
  -41.6582   -2.5240   14.0729 S   0  0  2  0  0  0  0  0  0  0  0  0
  -42.7965   -3.3168   14.8963 N   0  0  0  0  0  0  0  0  0  0  0  0
  -42.5637   -3.6646   16.3044 C   0  0  0  0  0  0  0  0  0  0  0  0
  -42.2632   -5.1325   16.4602 C   0  0  0  0  0  0  0  0  0  0  0  0
  -41.6797   -5.6450   15.2313 O   0  0  0  0  0  0  0  0  0  0  0  0
  -41.2344   -7.1956   15.1738 P   0  0  2  0  0  0  0  0  0  0  0  0
  -42.2854   -7.9574   15.9589 O   0  0  0  0  0  0  0  0  0  0  0  0
  -39.8615   -7.2549   15.8156 O   0  0  0  0  0  0  0  0  0  0  0  0
  -41.2143   -7.5649   13.7028 O   0  0  0  0  0  0  0  0  0  0  0  0
  -41.4422   -3.2508   12.8589 O   0  0  0  0  0  0  0  0  0  0  0  0
  -42.0688   -1.1551   14.0103 O   0  0  0  0  0  0  0  0  0  0  0  0
  -38.1072   -4.8610   16.4757 H   0  0  0  0  0  0  0  0  0  0  0  0
  -40.1989   -4.7537   15.1460 H   0  0  0  0  0  0  0  0  0  0  0  0
  -39.9122   -0.4581   15.0413 H   0  0  0  0  0  0  0  0  0  0  0  0
  -37.8205   -0.5643   16.3708 H   0  0  0  0  0  0  0  0  0  0  0  0
  -43.6460   -2.7350   14.8684 H   0  0  0  0  0  0  0  0  0  0  0  0
  -41.7106   -3.0816   16.6817 H   0  0  0  0  0  0  0  0  0  0  0  0
  -43.4747   -3.4328   16.8757 H   0  0  0  0  0  0  0  0  0  0  0  0
  -41.5542   -5.2748   17.2890 H   0  0  0  0  0  0  0  0  0  0  0  0
  -43.1956   -5.6749   16.6753 H   0  0  0  0  0  0  0  0  0  0  0  0
  1  2  2  0
  1  6  1  0
  1  7  1  0
  2  3  1  0
  3  4  2  0
  4  5  1  0
  4 12  1  0
  5  6  2  0
  7  8  1  0
  8  9  1  1
  8 10  1  0
  8 11  1  0
 12 13  1  1
 12 21  2  0
 12 22  2  0
 13 14  1  0
 14 15  1  0
 15 16  1  0
 16 17  1  0
 17 18  1  1
 17 19  2  0
 17 20  1  0
  2 23  1  0
  3 24  1  0
  5 25  1  0
  6 26  1  0
 13 27  1  0
 14 28  1  0
 14 29  1  0
 15 30  1  0
 15 31  1  0
M  CHG  2  18  -1  20  -1
M  END
>  <filename_input>  (16) 
7L03_F9F_docked.sdf

>  <pdb_id>  (16) 
7L03_F9F

>  <pose_rank>  (16) 
15

>  <num_atoms_heavy>  (16) 
22

>  <num_torsions>  (16) 
8

>  <pose>  (16) 
[-37.84298097292094, -2.7188712025013584, 16.50083470315816, -0.27581731858618835, -0.785026837214178, 0.88308315499367, -2.9319486037755276, -0.6887821954211788, 1.5329105739358106, 3.756477475933231, -0.09320832314066804, 1.8617302720483115, -2.7052348460375515, 2.249023514963395]

>  <energy>  (16) 
-394.28964800674754

>  <inter_energy>  (16) 
-490.0900426180024

>  <intra_energy>  (16) 
93.49457973320888

>  <rmsd>  (16) 
6.48247

>  <sdf_rank>  (16) 
0

$$$$

     RDKit          3D

 31 31  0  0  0  0  0  0  0  0999 V2000
  -40.4810   -2.4819   14.2297 C   0  0  0  0  0  0  0  0  0  0  0  0
  -41.6317   -2.5151   15.0034 C   0  0  0  0  0  0  0  0  0  0  0  0
  -41.9534   -3.6536   15.7140 C   0  0  0  0  0  0  0  0  0  0  0  0
  -41.1242   -4.7626   15.6534 C   0  0  0  0  0  0  0  0  0  0  0  0
  -39.9748   -4.7316   14.8812 C   0  0  0  0  0  0  0  0  0  0  0  0
  -39.6532   -3.5931   14.1706 C   0  0  0  0  0  0  0  0  0  0  0  0
  -40.1500   -1.3094   13.4977 O   0  0  0  0  0  0  0  0  0  0  0  0
  -41.0252   -0.8863   12.5945 C   0  0  1  0  0  0  0  0  0  0  0  0
  -41.6427   -1.8916   12.0076 F   0  0  0  0  0  0  0  0  0  0  0  0
  -41.9525   -0.1219   13.1382 F   0  0  0  0  0  0  0  0  0  0  0  0
  -40.4423   -0.1794   11.6480 F   0  0  0  0  0  0  0  0  0  0  0  0
  -41.5351   -6.2160   16.5608 S   0  0  2  0  0  0  0  0  0  0  0  0
  -42.1976   -7.2614   15.5261 N   0  0  0  0  0  0  0  0  0  0  0  0
  -41.5390   -8.5503   15.2758 C   0  0  0  0  0  0  0  0  0  0  0  0
  -40.0422   -8.3936   15.2120 C   0  0  0  0  0  0  0  0  0  0  0  0
  -39.5730   -8.7213   13.8757 O   0  0  0  0  0  0  0  0  0  0  0  0
  -39.2012  -10.2561   13.5405 P   0  0  2  0  0  0  0  0  0  0  0  0
  -38.0105  -10.5943   14.4176 O   0  0  0  0  0  0  0  0  0  0  0  0
  -38.8707  -10.2871   12.0607 O   0  0  0  0  0  0  0  0  0  0  0  0
  -40.4368  -11.0650   13.8860 O   0  0  0  0  0  0  0  0  0  0  0  0
  -42.5511   -5.8687   17.5073 O   0  0  0  0  0  0  0  0  0  0  0  0
  -40.3154   -6.8045   17.0215 O   0  0  0  0  0  0  0  0  0  0  0  0
  -42.2881   -1.6337   15.0507 H   0  0  0  0  0  0  0  0  0  0  0  0
  -42.8661   -3.6809   16.3273 H   0  0  0  0  0  0  0  0  0  0  0  0
  -39.3191   -5.6136   14.8343 H   0  0  0  0  0  0  0  0  0  0  0  0
  -38.7403   -3.5669   13.5574 H   0  0  0  0  0  0  0  0  0  0  0  0
  -43.1428   -7.4716   15.8774 H   0  0  0  0  0  0  0  0  0  0  0  0
  -41.7926   -9.2467   16.0887 H   0  0  0  0  0  0  0  0  0  0  0  0
  -41.8903   -8.9391   14.3086 H   0  0  0  0  0  0  0  0  0  0  0  0
  -39.7727   -7.3539   15.4497 H   0  0  0  0  0  0  0  0  0  0  0  0
  -39.5729   -9.0718   15.9399 H   0  0  0  0  0  0  0  0  0  0  0  0
  1  2  2  0
  1  6  1  0
  1  7  1  0
  2  3  1  0
  3  4  2  0
  4  5  1  0
  4 12  1  0
  5  6  2  0
  7  8  1  0
  8  9  1  6
  8 10  1  0
  8 11  1  0
 12 13  1  6
 12 21  2  0
 12 22  2  0
 13 14  1  0
 14 15  1  0
 15 16  1  0
 16 17  1  0
 17 18  1  1
 17 19  2  0
 17 20  1  0
  2 23  1  0
  3 24  1  0
  5 25  1  0
  6 26  1  0
 13 27  1  0
 14 28  1  0
 14 29  1  0
 15 30  1  0
 15 31  1  0
M  CHG  2  18  -1  20  -1
M  END
>  <filename_input>  (17) 
7L03_F9F_docked.sdf

>  <pdb_id>  (17) 
7L03_F9F

>  <pose_rank>  (17) 
16

>  <num_atoms_heavy>  (17) 
22

>  <num_torsions>  (17) 
8

>  <pose>  (17) 
[-40.481025522143916, -2.4818534594385913, 14.229655032799903, 19.48070077120006, 2.283547984515843, -8.999197239986254, -8.416682181880152, 1.1234285652802545, -3.6013604962582213, 1.27575115653116, 1.5338564511807702, 0.07428522006518296, -7.355315890638233, 0.4646724011495521]

>  <energy>  (17) 
-492.7071173868432

>  <inter_energy>  (17) 
-533.5067923875436

>  <intra_energy>  (17) 
57.28178022702985

>  <rmsd>  (17) 
7.3291

>  <sdf_rank>  (17) 
0

$$$$

     RDKit          3D

 31 31  0  0  0  0  0  0  0  0999 V2000
  -39.7352   -7.2818   15.6824 C   0  0  0  0  0  0  0  0  0  0  0  0
  -40.9733   -7.1147   16.2849 C   0  0  0  0  0  0  0  0  0  0  0  0
  -41.5585   -5.8655   16.3254 C   0  0  0  0  0  0  0  0  0  0  0  0
  -40.9072   -4.7793   15.7624 C   0  0  0  0  0  0  0  0  0  0  0  0
  -39.6706   -4.9439   15.1605 C   0  0  0  0  0  0  0  0  0  0  0  0
  -39.0854   -6.1931   15.1200 C   0  0  0  0  0  0  0  0  0  0  0  0
  -39.1324   -8.5683   15.6410 O   0  0  0  0  0  0  0  0  0  0  0  0
  -39.7837   -9.5269   14.9949 C   0  0  1  0  0  0  0  0  0  0  0  0
  -41.0830   -9.3079   14.9812 F   0  0  0  0  0  0  0  0  0  0  0  0
  -39.3899   -9.6201   13.7395 F   0  0  0  0  0  0  0  0  0  0  0  0
  -39.5918  -10.7048   15.5526 F   0  0  0  0  0  0  0  0  0  0  0  0
  -41.6546   -3.1846   15.8142 S   0  0  2  0  0  0  0  0  0  0  0  0
  -41.0569   -2.3297   14.5836 N   0  0  0  0  0  0  0  0  0  0  0  0
  -41.6883   -1.0570   14.2103 C   0  0  0  0  0  0  0  0  0  0  0  0
  -42.2247   -1.1074   12.8035 C   0  0  0  0  0  0  0  0  0  0  0  0
  -41.1396   -0.8987   11.8589 O   0  0  0  0  0  0  0  0  0  0  0  0
  -41.4953   -0.7543   10.2909 P   0  0  2  0  0  0  0  0  0  0  0  0
  -40.6266    0.3760    9.7720 O   0  0  0  0  0  0  0  0  0  0  0  0
  -42.9766   -0.4340   10.2314 O   0  0  0  0  0  0  0  0  0  0  0  0
  -41.1559   -2.0938    9.6656 O   0  0  0  0  0  0  0  0  0  0  0  0
  -41.2240   -2.5380   17.0164 O   0  0  0  0  0  0  0  0  0  0  0  0
  -43.0538   -3.3480   15.5652 O   0  0  0  0  0  0  0  0  0  0  0  0
  -41.4889   -7.9781   16.7305 H   0  0  0  0  0  0  0  0  0  0  0  0
  -42.5401   -5.7321   16.8036 H   0  0  0  0  0  0  0  0  0  0  0  0
  -39.1556   -4.0799   14.7153 H   0  0  0  0  0  0  0  0  0  0  0  0
  -38.1037   -6.3254   14.6417 H   0  0  0  0  0  0  0  0  0  0  0  0
  -40.0750   -2.1204   14.8138 H   0  0  0  0  0  0  0  0  0  0  0  0
  -42.5173   -0.8508   14.9033 H   0  0  0  0  0  0  0  0  0  0  0  0
  -40.9298   -0.2623   14.2657 H   0  0  0  0  0  0  0  0  0  0  0  0
  -42.6838   -2.0904   12.6220 H   0  0  0  0  0  0  0  0  0  0  0  0
  -42.9794   -0.3180   12.6723 H   0  0  0  0  0  0  0  0  0  0  0  0
  1  2  2  0
  1  6  1  0
  1  7  1  0
  2  3  1  0
  3  4  2  0
  4  5  1  0
  4 12  1  0
  5  6  2  0
  7  8  1  0
  8  9  1  6
  8 10  1  0
  8 11  1  0
 12 13  1  6
 12 21  2  0
 12 22  2  0
 13 14  1  0
 14 15  1  0
 15 16  1  0
 16 17  1  0
 17 18  1  6
 17 19  2  0
 17 20  1  0
  2 23  1  0
  3 24  1  0
  5 25  1  0
  6 26  1  0
 13 27  1  0
 14 28  1  0
 14 29  1  0
 15 30  1  0
 15 31  1  0
M  CHG  2  18  -1  20  -1
M  END
>  <filename_input>  (18) 
7L03_F9F_docked.sdf

>  <pdb_id>  (18) 
7L03_F9F

>  <pose_rank>  (18) 
17

>  <num_atoms_heavy>  (18) 
22

>  <num_torsions>  (18) 
8

>  <pose>  (18) 
[-39.73515655733783, -7.281800061401586, 15.682410480113546, -0.3409175649262299, 0.19839431224344253, -0.12437026267297265, -6.5940185618515645, 8.284572359400451, -4.978790675780812, 8.178429457666706, 0.04744158686515326, 3.6121192201606993, -5.247390545391102, 0.6057223331909066]

>  <energy>  (18) 
-946.0406354882882

>  <inter_energy>  (18) 
-962.0876386975087

>  <intra_energy>  (18) 
21.48374338621659

>  <rmsd>  (18) 
0.906812

>  <sdf_rank>  (18) 
0

$$$$

     RDKit          3D

 31 31  0  0  0  0  0  0  0  0999 V2000
  -42.6177   -1.6258   12.2683 C   0  0  0  0  0  0  0  0  0  0  0  0
  -43.1606   -1.4053   13.5255 C   0  0  0  0  0  0  0  0  0  0  0  0
  -42.4698   -1.7967   14.6543 C   0  0  0  0  0  0  0  0  0  0  0  0
  -41.2329   -2.4093   14.5291 C   0  0  0  0  0  0  0  0  0  0  0  0
  -40.6890   -2.6306   13.2746 C   0  0  0  0  0  0  0  0  0  0  0  0
  -41.3799   -2.2393   12.1458 C   0  0  0  0  0  0  0  0  0  0  0  0
  -43.3294   -1.2230   11.1058 O   0  0  0  0  0  0  0  0  0  0  0  0
  -42.6280   -0.6822   10.1177 C   0  0  1  0  0  0  0  0  0  0  0  0
  -41.9275   -1.5883    9.4661 F   0  0  0  0  0  0  0  0  0  0  0  0
  -43.4091   -0.0854    9.2383 F   0  0  0  0  0  0  0  0  0  0  0  0
  -41.7796    0.2218   10.5631 F   0  0  0  0  0  0  0  0  0  0  0  0
  -40.3510   -2.9087   15.9704 S   0  0  2  0  0  0  0  0  0  0  0  0
  -39.1443   -1.8603   16.1871 N   0  0  0  0  0  0  0  0  0  0  0  0
  -37.8225   -2.3509   16.5995 C   0  0  0  0  0  0  0  0  0  0  0  0
  -37.0769   -1.3077   17.3901 C   0  0  0  0  0  0  0  0  0  0  0  0
  -36.8044   -1.8099   18.7268 O   0  0  0  0  0  0  0  0  0  0  0  0
  -35.5240   -1.2341   19.5239 P   0  0  2  0  0  0  0  0  0  0  0  0
  -34.3736   -2.1630   19.1850 O   0  0  0  0  0  0  0  0  0  0  0  0
  -35.9002   -1.2735   20.9926 O   0  0  0  0  0  0  0  0  0  0  0  0
  -35.3155    0.1762   19.0060 O   0  0  0  0  0  0  0  0  0  0  0  0
  -39.7523   -4.1802   15.6987 O   0  0  0  0  0  0  0  0  0  0  0  0
  -41.2285   -2.7691   17.0914 O   0  0  0  0  0  0  0  0  0  0  0  0
  -44.1422   -0.9183   13.6228 H   0  0  0  0  0  0  0  0  0  0  0  0
  -42.9000   -1.6227   15.6516 H   0  0  0  0  0  0  0  0  0  0  0  0
  -39.7075   -3.1178   13.1782 H   0  0  0  0  0  0  0  0  0  0  0  0
  -40.9488   -2.4139   11.1489 H   0  0  0  0  0  0  0  0  0  0  0  0
  -39.0141   -1.3650   15.2934 H   0  0  0  0  0  0  0  0  0  0  0  0
  -37.9511   -3.2488   17.2217 H   0  0  0  0  0  0  0  0  0  0  0  0
  -37.2405   -2.5854   15.6960 H   0  0  0  0  0  0  0  0  0  0  0  0
  -36.1273   -1.0758   16.8857 H   0  0  0  0  0  0  0  0  0  0  0  0
  -37.6892   -0.3966   17.4605 H   0  0  0  0  0  0  0  0  0  0  0  0
  1  2  2  0
  1  6  1  0
  1  7  1  0
  2  3  1  0
  3  4  2  0
  4  5  1  0
  4 12  1  0
  5  6  2  0
  7  8  1  0
  8  9  1  6
  8 10  1  0
  8 11  1  0
 12 13  1  1
 12 21  2  0
 12 22  2  0
 13 14  1  0
 14 15  1  0
 15 16  1  0
 16 17  1  0
 17 18  1  1
 17 19  2  0
 17 20  1  0
  2 23  1  0
  3 24  1  0
  5 25  1  0
  6 26  1  0
 13 27  1  0
 14 28  1  0
 14 29  1  0
 15 30  1  0
 15 31  1  0
M  CHG  2  18  -1  20  -1
M  END
>  <filename_input>  (19) 
7L03_F9F_docked.sdf

>  <pdb_id>  (19) 
7L03_F9F

>  <pose_rank>  (19) 
18

>  <num_atoms_heavy>  (19) 
22

>  <num_torsions>  (19) 
8

>  <pose>  (19) 
[-42.617730174034854, -1.625806291251966, 12.268325725253847, 1.3688900810849074, 0.5600554403463974, -1.420185564571399, -5.726828559544125, 2.9285978752753214, 0.7252022675708527, -0.9216679338517085, -0.532439418260577, -0.38522201724687044, -3.8770628736903494, 2.3626616436672054]

>  <energy>  (19) 
-442.1804683382604

>  <inter_energy>  (19) 
-474.03698641257006

>  <intra_energy>  (19) 
16.379506213223255

>  <rmsd>  (19) 
8.02489

>  <sdf_rank>  (19) 
0

$$$$

     RDKit          3D

 31 31  0  0  0  0  0  0  0  0999 V2000
  -38.5009   -9.8275   12.1571 C   0  0  0  0  0  0  0  0  0  0  0  0
  -38.4643  -10.8204   11.1894 C   0  0  0  0  0  0  0  0  0  0  0  0
  -37.2963  -11.0669   10.4968 C   0  0  0  0  0  0  0  0  0  0  0  0
  -36.1607  -10.3212   10.7708 C   0  0  0  0  0  0  0  0  0  0  0  0
  -36.1951   -9.3289   11.7366 C   0  0  0  0  0  0  0  0  0  0  0  0
  -37.3631   -9.0825   12.4292 C   0  0  0  0  0  0  0  0  0  0  0  0
  -39.7039   -9.5735   12.8702 O   0  0  0  0  0  0  0  0  0  0  0  0
  -39.6344   -9.5488   14.1951 C   0  0  1  0  0  0  0  0  0  0  0  0
  -40.7523   -9.1039   14.7324 F   0  0  0  0  0  0  0  0  0  0  0  0
  -39.4133  -10.7505   14.6918 F   0  0  0  0  0  0  0  0  0  0  0  0
  -38.6607   -8.7675   14.6154 F   0  0  0  0  0  0  0  0  0  0  0  0
  -34.6696  -10.6361    9.8864 S   0  0  2  0  0  0  0  0  0  0  0  0
  -35.0798  -11.1700    8.4205 N   0  0  0  0  0  0  0  0  0  0  0  0
  -34.0935  -11.8985    7.6116 C   0  0  0  0  0  0  0  0  0  0  0  0
  -34.1783  -11.5007    6.1612 C   0  0  0  0  0  0  0  0  0  0  0  0
  -34.7963  -10.1897    6.0493 O   0  0  0  0  0  0  0  0  0  0  0  0
  -34.1419   -9.1087    5.0446 P   0  0  2  0  0  0  0  0  0  0  0  0
  -35.1846   -8.8565    3.9720 O   0  0  0  0  0  0  0  0  0  0  0  0
  -32.8834   -9.7583    4.5020 O   0  0  0  0  0  0  0  0  0  0  0  0
  -33.8553   -7.8815    5.8886 O   0  0  0  0  0  0  0  0  0  0  0  0
  -33.9892  -11.7102   10.5438 O   0  0  0  0  0  0  0  0  0  0  0  0
  -33.9982   -9.3868    9.7003 O   0  0  0  0  0  0  0  0  0  0  0  0
  -39.3665  -11.4117   10.9739 H   0  0  0  0  0  0  0  0  0  0  0  0
  -37.2668  -11.8538    9.7287 H   0  0  0  0  0  0  0  0  0  0  0  0
  -35.2925   -8.7380   11.9513 H   0  0  0  0  0  0  0  0  0  0  0  0
  -37.3916   -8.2952   13.1969 H   0  0  0  0  0  0  0  0  0  0  0  0
  -35.8865  -11.7980    8.5457 H   0  0  0  0  0  0  0  0  0  0  0  0
  -33.0845  -11.6730    7.9872 H   0  0  0  0  0  0  0  0  0  0  0  0
  -34.3049  -12.9751    7.6907 H   0  0  0  0  0  0  0  0  0  0  0  0
  -33.1663  -11.4661    5.7315 H   0  0  0  0  0  0  0  0  0  0  0  0
  -34.7855  -12.2381    5.6156 H   0  0  0  0  0  0  0  0  0  0  0  0
  1  2  2  0
  1  6  1  0
  1  7  1  0
  2  3  1  0
  3  4  2  0
  4  5  1  0
  4 12  1  0
  5  6  2  0
  7  8  1  0
  8  9  1  1
  8 10  1  0
  8 11  1  0
 12 13  1  6
 12 21  2  0
 12 22  2  0
 13 14  1  0
 14 15  1  0
 15 16  1  0
 16 17  1  0
 17 18  1  6
 17 19  2  0
 17 20  1  0
  2 23  1  0
  3 24  1  0
  5 25  1  0
  6 26  1  0
 13 27  1  0
 14 28  1  0
 14 29  1  0
 15 30  1  0
 15 31  1  0
M  CHG  2  18  -1  20  -1
M  END
>  <filename_input>  (20) 
7L03_F9F_docked.sdf

>  <pdb_id>  (20) 
7L03_F9F

>  <pose_rank>  (20) 
19

>  <num_atoms_heavy>  (20) 
22

>  <num_torsions>  (20) 
8

>  <pose>  (20) 
[-38.50092287753523, -9.827452685929588, 12.157118039771447, 2.2076825611707056, 2.7574363295785522, 0.5532185502233374, 2.9204793124708393, 2.5427059487848753, 0.9209074361280322, 3.682170557155324, -0.8364505915909638, 3.2251817029709486, 2.2091806917888532, -2.2430282288280288]

>  <energy>  (20) 
-277.13377254916486

>  <inter_energy>  (20) 
-291.3930830683622

>  <intra_energy>  (20) 
21.078735498968765

>  <rmsd>  (20) 
9.6951

>  <sdf_rank>  (20) 
0

$$$$

     RDKit          3D

 31 31  0  0  0  0  0  0  0  0999 V2000
  -40.1203   -7.2466   14.8748 C   0  0  0  0  0  0  0  0  0  0  0  0
  -41.2382   -7.0966   15.6821 C   0  0  0  0  0  0  0  0  0  0  0  0
  -41.7174   -5.8348   15.9703 C   0  0  0  0  0  0  0  0  0  0  0  0
  -41.0802   -4.7189   15.4512 C   0  0  0  0  0  0  0  0  0  0  0  0
  -39.9635   -4.8665   14.6451 C   0  0  0  0  0  0  0  0  0  0  0  0
  -39.4843   -6.1282   14.3568 C   0  0  0  0  0  0  0  0  0  0  0  0
  -39.6266   -8.5460   14.5782 O   0  0  0  0  0  0  0  0  0  0  0  0
  -38.4026   -8.6333   14.0734 C   0  0  1  0  0  0  0  0  0  0  0  0
  -37.6829   -9.5434   14.6979 F   0  0  0  0  0  0  0  0  0  0  0  0
  -38.4267   -8.9628   12.7964 F   0  0  0  0  0  0  0  0  0  0  0  0
  -37.7556   -7.4898   14.1693 F   0  0  0  0  0  0  0  0  0  0  0  0
  -41.6922   -3.1083   15.8193 S   0  0  2  0  0  0  0  0  0  0  0  0
  -42.2041   -2.4569   14.4351 N   0  0  0  0  0  0  0  0  0  0  0  0
  -41.8324   -3.0812   13.1585 C   0  0  0  0  0  0  0  0  0  0  0  0
  -41.1212   -2.1028   12.2605 C   0  0  0  0  0  0  0  0  0  0  0  0
  -42.0670   -1.5280   11.3180 O   0  0  0  0  0  0  0  0  0  0  0  0
  -41.5054   -0.5768   10.1407 P   0  0  2  0  0  0  0  0  0  0  0  0
  -40.9869   -1.5123    9.0649 O   0  0  0  0  0  0  0  0  0  0  0  0
  -40.4092    0.2592   10.7730 O   0  0  0  0  0  0  0  0  0  0  0  0
  -42.6888    0.2528    9.6805 O   0  0  0  0  0  0  0  0  0  0  0  0
  -40.5902   -2.3134   16.2694 O   0  0  0  0  0  0  0  0  0  0  0  0
  -42.8415   -3.2572   16.6579 O   0  0  0  0  0  0  0  0  0  0  0  0
  -41.7430   -7.9835   16.0926 H   0  0  0  0  0  0  0  0  0  0  0  0
  -42.6036   -5.7151   16.6110 H   0  0  0  0  0  0  0  0  0  0  0  0
  -39.4592   -3.9790   14.2351 H   0  0  0  0  0  0  0  0  0  0  0  0
  -38.5980   -6.2469   13.7162 H   0  0  0  0  0  0  0  0  0  0  0  0
  -43.2333   -2.4436   14.4732 H   0  0  0  0  0  0  0  0  0  0  0  0
  -41.1677   -3.9350   13.3567 H   0  0  0  0  0  0  0  0  0  0  0  0
  -42.7509   -3.4141   12.6529 H   0  0  0  0  0  0  0  0  0  0  0  0
  -40.6792   -1.3011   12.8703 H   0  0  0  0  0  0  0  0  0  0  0  0
  -40.3272   -2.6259   11.7074 H   0  0  0  0  0  0  0  0  0  0  0  0
  1  2  2  0
  1  6  1  0
  1  7  1  0
  2  3  1  0
  3  4  2  0
  4  5  1  0
  4 12  1  0
  5  6  2  0
  7  8  1  0
  8  9  1  1
  8 10  1  0
  8 11  1  0
 12 13  1  6
 12 21  2  0
 12 22  2  0
 13 14  1  0
 14 15  1  0
 15 16  1  0
 16 17  1  0
 17 18  1  6
 17 19  2  0
 17 20  1  0
  2 23  1  0
  3 24  1  0
  5 25  1  0
  6 26  1  0
 13 27  1  0
 14 28  1  0
 14 29  1  0
 15 30  1  0
 15 31  1  0
M  CHG  2  18  -1  20  -1
M  END
>  <filename_input>  (21) 
7L03_F9F_docked.sdf

>  <pdb_id>  (21) 
7L03_F9F

>  <pose_rank>  (21) 
20

>  <num_atoms_heavy>  (21) 
22

>  <num_torsions>  (21) 
8

>  <pose>  (21) 
[-40.12031234033409, -7.24660359664688, 14.874822575072805, -12.11923544009998, 20.935176430722304, -8.33179068253806, 6.668697653730666, -7.448389098512406, 1.216360853364285, 1.5955762939595086, 0.05711038052722763, 2.6138490013521865, -2.9093939895808916, -2.9092297260641287]

>  <energy>  (21) 
-880.1530900273488

>  <inter_energy>  (21) 
-942.0745104863176

>  <intra_energy>  (21) 
62.68170679485241

>  <rmsd>  (21) 
1.16674

>  <sdf_rank>  (21) 
0

$$$$

     RDKit          3D

 31 31  0  0  0  0  0  0  0  0999 V2000
  -41.2508   -0.6001   12.4699 C   0  0  0  0  0  0  0  0  0  0  0  0
  -40.2304   -0.7647   13.3948 C   0  0  0  0  0  0  0  0  0  0  0  0
  -40.4002   -1.6184   14.4658 C   0  0  0  0  0  0  0  0  0  0  0  0
  -41.5914   -2.3110   14.6145 C   0  0  0  0  0  0  0  0  0  0  0  0
  -42.6118   -2.1480   13.6921 C   0  0  0  0  0  0  0  0  0  0  0  0
  -42.4420   -1.2943   12.6212 C   0  0  0  0  0  0  0  0  0  0  0  0
  -41.0760    0.2793   11.3670 O   0  0  0  0  0  0  0  0  0  0  0  0
  -41.0664   -0.2578   10.1537 C   0  0  1  0  0  0  0  0  0  0  0  0
  -41.9426    0.3220    9.3584 F   0  0  0  0  0  0  0  0  0  0  0  0
  -39.8836   -0.1430    9.5816 F   0  0  0  0  0  0  0  0  0  0  0  0
  -41.3601   -1.5415   10.1890 F   0  0  0  0  0  0  0  0  0  0  0  0
  -41.8079   -3.4009   15.9818 S   0  0  2  0  0  0  0  0  0  0  0  0
  -41.7462   -4.9093   15.4131 N   0  0  0  0  0  0  0  0  0  0  0  0
  -40.9633   -5.9238   16.1311 C   0  0  0  0  0  0  0  0  0  0  0  0
  -41.3997   -7.3155   15.7544 C   0  0  0  0  0  0  0  0  0  0  0  0
  -40.7851   -7.6958   14.4931 O   0  0  0  0  0  0  0  0  0  0  0  0
  -39.4321   -8.5758   14.5256 P   0  0  2  0  0  0  0  0  0  0  0  0
  -39.4847   -9.4612   13.2949 O   0  0  0  0  0  0  0  0  0  0  0  0
  -39.4829   -9.3634   15.8207 O   0  0  0  0  0  0  0  0  0  0  0  0
  -38.2900   -7.5785   14.4862 O   0  0  0  0  0  0  0  0  0  0  0  0
  -43.1302   -3.2042   16.4934 O   0  0  0  0  0  0  0  0  0  0  0  0
  -40.6848   -3.2396   16.8530 O   0  0  0  0  0  0  0  0  0  0  0  0
  -39.2854   -0.2145   13.2746 H   0  0  0  0  0  0  0  0  0  0  0  0
  -39.5916   -1.7488   15.2000 H   0  0  0  0  0  0  0  0  0  0  0  0
  -43.5565   -2.6984   13.8132 H   0  0  0  0  0  0  0  0  0  0  0  0
  -43.2513   -1.1644   11.8876 H   0  0  0  0  0  0  0  0  0  0  0  0
  -42.7162   -5.2535   15.3722 H   0  0  0  0  0  0  0  0  0  0  0  0
  -39.8996   -5.8007   15.8793 H   0  0  0  0  0  0  0  0  0  0  0  0
  -41.1244   -5.7884   17.2108 H   0  0  0  0  0  0  0  0  0  0  0  0
  -41.0904   -8.0211   16.5395 H   0  0  0  0  0  0  0  0  0  0  0  0
  -42.4944   -7.3385   15.6483 H   0  0  0  0  0  0  0  0  0  0  0  0
  1  2  2  0
  1  6  1  0
  1  7  1  0
  2  3  1  0
  3  4  2  0
  4  5  1  0
  4 12  1  0
  5  6  2  0
  7  8  1  0
  8  9  1  6
  8 10  1  0
  8 11  1  0
 12 13  1  6
 12 21  2  0
 12 22  2  0
 13 14  1  0
 14 15  1  0
 15 16  1  0
 16 17  1  0
 17 18  1  6
 17 19  2  0
 17 20  1  0
  2 23  1  0
  3 24  1  0
  5 25  1  0
  6 26  1  0
 13 27  1  0
 14 28  1  0
 14 29  1  0
 15 30  1  0
 15 31  1  0
M  CHG  2  18  -1  20  -1
M  END
>  <filename_input>  (22) 
7L03_F9F_docked.sdf

>  <pdb_id>  (22) 
7L03_F9F

>  <pose_rank>  (22) 
21

>  <num_atoms_heavy>  (22) 
22

>  <num_torsions>  (22) 
8

>  <pose>  (22) 
[-41.25084560345047, -0.6001147366840237, 12.46985740795979, 0.8433245133474864, -1.0756183472998748, -3.4342002439244115, 0.5205954777850268, -4.843864928305975, -0.11978117005516019, -1.5809351622315475, -1.520226071552511, -2.504561796919883, 1.9758397395172622, -3.008532044450826]

>  <energy>  (22) 
-636.5785243522098

>  <inter_energy>  (22) 
-646.410271330597

>  <intra_energy>  (22) 
15.920222541568325

>  <rmsd>  (22) 
7.46367

>  <sdf_rank>  (22) 
0

$$$$

     RDKit          3D

 31 31  0  0  0  0  0  0  0  0999 V2000
  -39.6891   -0.1618   11.2377 C   0  0  0  0  0  0  0  0  0  0  0  0
  -39.6024   -0.0368   12.6164 C   0  0  0  0  0  0  0  0  0  0  0  0
  -40.4798   -0.7260   13.4288 C   0  0  0  0  0  0  0  0  0  0  0  0
  -41.4463   -1.5434   12.8644 C   0  0  0  0  0  0  0  0  0  0  0  0
  -41.5348   -1.6695   11.4879 C   0  0  0  0  0  0  0  0  0  0  0  0
  -40.6574   -0.9803   10.6755 C   0  0  0  0  0  0  0  0  0  0  0  0
  -38.7857    0.5482   10.4011 O   0  0  0  0  0  0  0  0  0  0  0  0
  -37.5251    0.6414   10.8047 C   0  0  1  0  0  0  0  0  0  0  0  0
  -36.7070   -0.0021    9.9966 F   0  0  0  0  0  0  0  0  0  0  0  0
  -37.1218    1.8964   10.8507 F   0  0  0  0  0  0  0  0  0  0  0  0
  -37.3627    0.1348   12.0098 F   0  0  0  0  0  0  0  0  0  0  0  0
  -42.5662   -2.4232   13.9018 S   0  0  2  0  0  0  0  0  0  0  0  0
  -41.7386   -3.6151   14.6066 N   0  0  0  0  0  0  0  0  0  0  0  0
  -42.1365   -4.0844   15.9404 C   0  0  0  0  0  0  0  0  0  0  0  0
  -41.6103   -5.4700   16.2095 C   0  0  0  0  0  0  0  0  0  0  0  0
  -40.5665   -5.7912   15.2501 O   0  0  0  0  0  0  0  0  0  0  0  0
  -40.1520   -7.3381   15.0460 P   0  0  2  0  0  0  0  0  0  0  0  0
  -38.9354   -7.3243   14.1398 O   0  0  0  0  0  0  0  0  0  0  0  0
  -41.3545   -8.0068   14.4079 O   0  0  0  0  0  0  0  0  0  0  0  0
  -39.8481   -7.8704   16.4333 O   0  0  0  0  0  0  0  0  0  0  0  0
  -43.5481   -3.0399   13.0624 O   0  0  0  0  0  0  0  0  0  0  0  0
  -42.9868   -1.5375   14.9434 O   0  0  0  0  0  0  0  0  0  0  0  0
  -38.8342    0.6120   13.0624 H   0  0  0  0  0  0  0  0  0  0  0  0
  -40.4121   -0.6267   14.5222 H   0  0  0  0  0  0  0  0  0  0  0  0
  -42.3035   -2.3183   11.0427 H   0  0  0  0  0  0  0  0  0  0  0  0
  -40.7261   -1.0801    9.5822 H   0  0  0  0  0  0  0  0  0  0  0  0
  -41.7890   -4.4279   13.9761 H   0  0  0  0  0  0  0  0  0  0  0  0
  -41.7355   -3.3949   16.6979 H   0  0  0  0  0  0  0  0  0  0  0  0
  -43.2352   -4.1139   15.9860 H   0  0  0  0  0  0  0  0  0  0  0  0
  -41.1971   -5.5131   17.2280 H   0  0  0  0  0  0  0  0  0  0  0  0
  -42.4304   -6.1968   16.1132 H   0  0  0  0  0  0  0  0  0  0  0  0
  1  2  2  0
  1  6  1  0
  1  7  1  0
  2  3  1  0
  3  4  2  0
  4  5  1  0
  4 12  1  0
  5  6  2  0
  7  8  1  0
  8  9  1  6
  8 10  1  0
  8 11  1  0
 12 13  1  1
 12 21  2  0
 12 22  2  0
 13 14  1  0
 14 15  1  0
 15 16  1  0
 16 17  1  0
 17 18  1  6
 17 19  2  0
 17 20  1  0
  2 23  1  0
  3 24  1  0
  5 25  1  0
  6 26  1  0
 13 27  1  0
 14 28  1  0
 14 29  1  0
 15 30  1  0
 15 31  1  0
M  CHG  2  18  -1  20  -1
M  END
>  <filename_input>  (23) 
7L03_F9F_docked.sdf

>  <pdb_id>  (23) 
7L03_F9F

>  <pose_rank>  (23) 
22

>  <num_atoms_heavy>  (23) 
22

>  <num_torsions>  (23) 
8

>  <pose>  (23) 
[-39.68909559442241, -0.16182278358997074, 11.237734601880167, 2.26351494512956, -0.9352400518710675, -2.8539321833698432, 1.130319483550958, -4.593407703773347, -0.13428276642342096, -2.7153418534908, 0.24517719958801348, -1.8066425489781066, 0.6462180619181028, -3.215627253200075]

>  <energy>  (23) 
-296.6483463695952

>  <inter_energy>  (23) 
-333.9559740501876

>  <intra_energy>  (23) 
34.555787794770005

>  <rmsd>  (23) 
7.6145

>  <sdf_rank>  (23) 
0

$$$$

     RDKit          3D

 31 31  0  0  0  0  0  0  0  0999 V2000
  -39.5007   -7.6402   15.1229 C   0  0  0  0  0  0  0  0  0  0  0  0
  -40.8145   -7.7115   15.5619 C   0  0  0  0  0  0  0  0  0  0  0  0
  -41.4918   -6.5587   15.9039 C   0  0  0  0  0  0  0  0  0  0  0  0
  -40.8571   -5.3305   15.8071 C   0  0  0  0  0  0  0  0  0  0  0  0
  -39.5451   -5.2570   15.3692 C   0  0  0  0  0  0  0  0  0  0  0  0
  -38.8678   -6.4098   15.0272 C   0  0  0  0  0  0  0  0  0  0  0  0
  -38.8031   -8.8275   14.7710 O   0  0  0  0  0  0  0  0  0  0  0  0
  -39.4908   -9.9624   14.7719 C   0  0  1  0  0  0  0  0  0  0  0  0
  -40.7856   -9.7462   14.8860 F   0  0  0  0  0  0  0  0  0  0  0  0
  -39.3049  -10.6433   13.6577 F   0  0  0  0  0  0  0  0  0  0  0  0
  -39.1355  -10.7441   15.7709 F   0  0  0  0  0  0  0  0  0  0  0  0
  -41.7220   -3.8589   16.2437 S   0  0  2  0  0  0  0  0  0  0  0  0
  -40.7390   -2.6141   15.9492 N   0  0  0  0  0  0  0  0  0  0  0  0
  -41.2100   -1.4990   15.1171 C   0  0  0  0  0  0  0  0  0  0  0  0
  -41.2136   -1.8724   13.6577 C   0  0  0  0  0  0  0  0  0  0  0  0
  -41.3280   -0.6716   12.8463 O   0  0  0  0  0  0  0  0  0  0  0  0
  -41.3328   -0.8211   11.2389 P   0  0  2  0  0  0  0  0  0  0  0  0
  -40.5314   -2.0735   10.9375 O   0  0  0  0  0  0  0  0  0  0  0  0
  -40.6794    0.4392   10.7052 O   0  0  0  0  0  0  0  0  0  0  0  0
  -42.7910   -0.9438   10.8401 O   0  0  0  0  0  0  0  0  0  0  0  0
  -41.9457   -3.8855   17.6573 O   0  0  0  0  0  0  0  0  0  0  0  0
  -42.8368   -3.7262   15.3571 O   0  0  0  0  0  0  0  0  0  0  0  0
  -41.3168   -8.6873   15.6374 H   0  0  0  0  0  0  0  0  0  0  0  0
  -42.5335   -6.6146   16.2528 H   0  0  0  0  0  0  0  0  0  0  0  0
  -39.0435   -4.2809   15.2941 H   0  0  0  0  0  0  0  0  0  0  0  0
  -37.8260   -6.3528   14.6786 H   0  0  0  0  0  0  0  0  0  0  0  0
  -40.4781   -2.2163   16.8628 H   0  0  0  0  0  0  0  0  0  0  0  0
  -42.2325   -1.2311   15.4215 H   0  0  0  0  0  0  0  0  0  0  0  0
  -40.5280   -0.6474   15.2572 H   0  0  0  0  0  0  0  0  0  0  0  0
  -40.2764   -2.3928   13.4109 H   0  0  0  0  0  0  0  0  0  0  0  0
  -42.0680   -2.5342   13.4525 H   0  0  0  0  0  0  0  0  0  0  0  0
  1  2  2  0
  1  6  1  0
  1  7  1  0
  2  3  1  0
  3  4  2  0
  4  5  1  0
  4 12  1  0
  5  6  2  0
  7  8  1  0
  8  9  1  1
  8 10  1  0
  8 11  1  0
 12 13  1  1
 12 21  2  0
 12 22  2  0
 13 14  1  0
 14 15  1  0
 15 16  1  0
 16 17  1  0
 17 18  1  1
 17 19  2  0
 17 20  1  0
  2 23  1  0
  3 24  1  0
  5 25  1  0
  6 26  1  0
 13 27  1  0
 14 28  1  0
 14 29  1  0
 15 30  1  0
 15 31  1  0
M  CHG  2  18  -1  20  -1
M  END
>  <filename_input>  (24) 
7L03_F9F_docked.sdf

>  <pdb_id>  (24) 
7L03_F9F

>  <pose_rank>  (24) 
23

>  <num_atoms_heavy>  (24) 
22

>  <num_torsions>  (24) 
8

>  <pose>  (24) 
[-39.500720159240615, -7.640207981070575, 15.122942359865183, -0.017030487822520333, 0.06944363429164394, -0.06113161614722192, -6.980427528141356, 7.577551093363343, -4.243112534756614, 6.699915967196397, -0.07828208936252831, 0.712314851734117, -6.218409893523576, 1.2596342986806717]

>  <energy>  (24) 
-804.8819356152053

>  <inter_energy>  (24) 
-863.5499164681287

>  <intra_energy>  (24) 
58.355859277839286

>  <rmsd>  (24) 
1.14821

>  <sdf_rank>  (24) 
0

$$$$

     RDKit          3D

 31 31  0  0  0  0  0  0  0  0999 V2000
  -31.5150   -6.6626    8.0998 C   0  0  0  0  0  0  0  0  0  0  0  0
  -32.1354   -6.4017    9.3126 C   0  0  0  0  0  0  0  0  0  0  0  0
  -32.8904   -7.3802    9.9266 C   0  0  0  0  0  0  0  0  0  0  0  0
  -33.0265   -8.6236    9.3296 C   0  0  0  0  0  0  0  0  0  0  0  0
  -32.4081   -8.8861    8.1183 C   0  0  0  0  0  0  0  0  0  0  0  0
  -31.6531   -7.9075    7.5043 C   0  0  0  0  0  0  0  0  0  0  0  0
  -30.7377   -5.6546    7.4673 O   0  0  0  0  0  0  0  0  0  0  0  0
  -31.3382   -4.9060    6.5509 C   0  0  1  0  0  0  0  0  0  0  0  0
  -30.6058   -3.8618    6.2201 F   0  0  0  0  0  0  0  0  0  0  0  0
  -31.5709   -5.5862    5.4451 F   0  0  0  0  0  0  0  0  0  0  0  0
  -32.4972   -4.4503    6.9801 F   0  0  0  0  0  0  0  0  0  0  0  0
  -33.9904   -9.8727   10.1137 S   0  0  2  0  0  0  0  0  0  0  0  0
  -35.3905   -9.2010   10.5505 N   0  0  0  0  0  0  0  0  0  0  0  0
  -36.3885  -10.0055   11.2678 C   0  0  0  0  0  0  0  0  0  0  0  0
  -36.9899   -9.2330   12.4127 C   0  0  0  0  0  0  0  0  0  0  0  0
  -38.2165   -9.8803   12.8482 O   0  0  0  0  0  0  0  0  0  0  0  0
  -39.0402   -9.2318   14.0758 P   0  0  2  0  0  0  0  0  0  0  0  0
  -38.2583   -8.0010   14.4944 O   0  0  0  0  0  0  0  0  0  0  0  0
  -39.0823  -10.2980   15.1536 O   0  0  0  0  0  0  0  0  0  0  0  0
  -40.4123   -8.8986   13.5218 O   0  0  0  0  0  0  0  0  0  0  0  0
  -33.3183  -10.2521   11.3192 O   0  0  0  0  0  0  0  0  0  0  0  0
  -34.2961  -10.8698    9.1346 O   0  0  0  0  0  0  0  0  0  0  0  0
  -32.0255   -5.4145    9.7852 H   0  0  0  0  0  0  0  0  0  0  0  0
  -33.3832   -7.1738   10.8882 H   0  0  0  0  0  0  0  0  0  0  0  0
  -32.5187   -9.8735    7.6463 H   0  0  0  0  0  0  0  0  0  0  0  0
  -31.1609   -8.1149    6.5427 H   0  0  0  0  0  0  0  0  0  0  0  0
  -35.1618   -8.3992   11.1554 H   0  0  0  0  0  0  0  0  0  0  0  0
  -37.1881  -10.2919   10.5688 H   0  0  0  0  0  0  0  0  0  0  0  0
  -35.8901  -10.8983   11.6735 H   0  0  0  0  0  0  0  0  0  0  0  0
  -36.2756   -9.2024   13.2486 H   0  0  0  0  0  0  0  0  0  0  0  0
  -37.2155   -8.2082   12.0827 H   0  0  0  0  0  0  0  0  0  0  0  0
  1  2  2  0
  1  6  1  0
  1  7  1  0
  2  3  1  0
  3  4  2  0
  4  5  1  0
  4 12  1  0
  5  6  2  0
  7  8  1  0
  8  9  1  6
  8 10  1  0
  8 11  1  0
 12 13  1  1
 12 21  2  0
 12 22  2  0
 13 14  1  0
 14 15  1  0
 15 16  1  0
 16 17  1  0
 17 18  1  1
 17 19  2  0
 17 20  1  0
  2 23  1  0
  3 24  1  0
  5 25  1  0
  6 26  1  0
 13 27  1  0
 14 28  1  0
 14 29  1  0
 15 30  1  0
 15 31  1  0
M  CHG  2  18  -1  20  -1
M  END
>  <filename_input>  (25) 
7L03_F9F_docked.sdf

>  <pdb_id>  (25) 
7L03_F9F

>  <pose_rank>  (25) 
24

>  <num_atoms_heavy>  (25) 
22

>  <num_torsions>  (25) 
8

>  <pose>  (25) 
[-31.515031638600806, -6.662556774229108, 8.099757782572786, -2.3296290392294825, 0.24590918377241866, 1.7967982154290068, -3.052050445253088, 2.243846773441731, -0.5333074220798072, -0.1385838700778403, -0.06844107842327649, 1.2107263289017745, -1.68908209923125, -2.2771722611809415]

>  <energy>  (25) 
-264.87106956692844

>  <inter_energy>  (25) 
-258.79462992410896

>  <intra_energy>  (25) 
6.041907257748264

>  <rmsd>  (25) 
11.0662

>  <sdf_rank>  (25) 
0

$$$$

     RDKit          3D

 31 31  0  0  0  0  0  0  0  0999 V2000
  -39.5200   -7.0960   14.9600 C   0  0  0  0  0  0  0  0  0  0  0  0
  -40.8540   -7.2550   15.3050 C   0  0  0  0  0  0  0  0  0  0  0  0
  -41.6230   -6.1520   15.6160 C   0  0  0  0  0  0  0  0  0  0  0  0
  -41.0600   -4.8860   15.5820 C   0  0  0  0  0  0  0  0  0  0  0  0
  -39.7280   -4.7250   15.2380 C   0  0  0  0  0  0  0  0  0  0  0  0
  -38.9590   -5.8280   14.9270 C   0  0  0  0  0  0  0  0  0  0  0  0
  -38.7280   -8.2320   14.6400 O   0  0  0  0  0  0  0  0  0  0  0  0
  -39.3270   -9.4160   14.6500 C   0  0  1  0  0  0  0  0  0  0  0  0
  -39.8030   -9.7100   15.8430 F   0  0  0  0  0  0  0  0  0  0  0  0
  -40.3390   -9.4550   13.8050 F   0  0  0  0  0  0  0  0  0  0  0  0
  -38.4980  -10.3820   14.3110 F   0  0  0  0  0  0  0  0  0  0  0  0
  -42.0420   -3.4780   15.9790 S   0  0  2  0  0  0  0  0  0  0  0  0
  -41.6930   -2.3260   14.9050 N   0  0  0  0  0  0  0  0  0  0  0  0
  -41.7790   -2.6230   13.4690 C   0  0  0  0  0  0  0  0  0  0  0  0
  -41.7280   -1.3610   12.6480 C   0  0  0  0  0  0  0  0  0  0  0  0
  -41.6110   -1.6990   11.2390 O   0  0  0  0  0  0  0  0  0  0  0  0
  -41.4480   -0.5030   10.1670 P   0  0  2  0  0  0  0  0  0  0  0  0
  -42.7810    0.2210   10.1490 O   0  0  0  0  0  0  0  0  0  0  0  0
  -41.1240   -1.1740    8.8460 O   0  0  0  0  0  0  0  0  0  0  0  0
  -40.3140    0.3620   10.6830 O   0  0  0  0  0  0  0  0  0  0  0  0
  -41.6180   -2.9950   17.2580 O   0  0  0  0  0  0  0  0  0  0  0  0
  -43.4140   -3.8300   15.7790 O   0  0  0  0  0  0  0  0  0  0  0  0
  -41.2992   -8.2606   15.3307 H   0  0  0  0  0  0  0  0  0  0  0  0
  -42.6808   -6.2774   15.8904 H   0  0  0  0  0  0  0  0  0  0  0  0
  -39.2836   -3.7191   15.2127 H   0  0  0  0  0  0  0  0  0  0  0  0
  -37.9012   -5.7015   14.6530 H   0  0  0  0  0  0  0  0  0  0  0  0
  -42.3359   -1.5422   15.0874 H   0  0  0  0  0  0  0  0  0  0  0  0
  -40.9359   -3.2700   13.1853 H   0  0  0  0  0  0  0  0  0  0  0  0
  -42.7372   -3.1270   13.2742 H   0  0  0  0  0  0  0  0  0  0  0  0
  -42.6489   -0.7816   12.8100 H   0  0  0  0  0  0  0  0  0  0  0  0
  -40.8571   -0.7622   12.9531 H   0  0  0  0  0  0  0  0  0  0  0  0
  1  2  2  0
  1  6  1  0
  1  7  1  0
  2  3  1  0
  3  4  2  0
  4  5  1  0
  4 12  1  0
  5  6  2  0
  7  8  1  0
  8  9  1  1
  8 10  1  0
  8 11  1  0
 12 13  1  6
 12 21  2  0
 12 22  2  0
 13 14  1  0
 14 15  1  0
 15 16  1  0
 16 17  1  0
 17 18  1  6
 17 19  2  0
 17 20  1  0
  2 23  1  0
  3 24  1  0
  5 25  1  0
  6 26  1  0
 13 27  1  0
 14 28  1  0
 14 29  1  0
 15 30  1  0
 15 31  1  0
M  CHG  2  18  -1  20  -1
M  END
>  <filename_input>  (26) 
7L03_F9F_docked.sdf

>  <pdb_id>  (26) 
7L03_F9F

>  <pose_rank>  (26) 
25

>  <num_atoms_heavy>  (26) 
22

>  <num_torsions>  (26) 
8

>  <pose>  (26) 
[-39.52, -7.096, 14.96, 1e-06, 1e-06, 1e-06, 0.0, 0.0, 0.0, 0.0, 0.0, 0.0, 0.0, 0.0]

>  <energy>  (26) 
-1038.6185325527779

>  <inter_energy>  (26) 
-1075.1812341074874

>  <intra_energy>  (26) 
32.04197535074225

>  <rmsd>  (26) 
0.0

>  <sdf_rank>  (26) 
0

$$$$
