
     RDKit          3D

 44 43  0  0  0  0  0  0  0  0999 V2000
    9.9268   35.2067   26.8712 C   0  0  0  0  0  0  0  0  0  0  0  0
   11.2039   36.5128   23.0891 C   0  0  0  0  0  0  0  0  0  0  0  0
   10.4969   37.8601   23.0583 C   0  0  0  0  0  0  0  0  0  0  0  0
    9.0846   37.8205   22.5019 C   0  0  0  0  0  0  0  0  0  0  0  0
    9.1650   38.0274   20.9983 C   0  0  0  0  0  0  0  0  0  0  0  0
    9.2370   39.5102   20.6963 C   0  0  0  0  0  0  0  0  0  0  0  0
   10.5480   39.8038   19.9731 C   0  0  0  0  0  0  0  0  0  0  0  0
   10.3133   40.6847   18.7646 C   0  0  0  0  0  0  0  0  0  0  0  0
    9.0289   41.4528   18.9827 C   0  0  0  0  0  0  0  0  0  0  0  0
   11.1345   35.8100   27.5731 C   0  0  0  0  0  0  0  0  0  0  0  0
   11.8032   34.7510   28.4428 C   0  0  0  0  0  0  0  0  0  0  0  0
   12.4809   33.7993   27.4796 C   0  0  0  0  0  0  0  0  0  0  0  0
   10.0598   34.8337   24.5163 C   0  0  0  0  0  0  0  0  0  0  0  0
   10.1610   35.3976   23.1197 C   0  0  0  0  0  0  0  0  0  0  0  0
    9.7629   35.6824   25.5020 N   0  0  0  0  0  0  0  0  0  0  0  0
   10.2545   33.6326   24.7232 O   0  0  0  0  0  0  0  0  0  0  0  0
   12.4513   32.6096   27.8052 O   0  0  0  0  0  0  0  0  0  0  0  0
   13.0121   34.2104   26.4213 O   0  0  0  0  0  0  0  0  0  0  0  0
   10.0445   34.1132   26.8500 H   0  0  0  0  0  0  0  0  0  0  0  0
    9.0332   35.5144   27.4340 H   0  0  0  0  0  0  0  0  0  0  0  0
   11.8304   36.4057   22.1913 H   0  0  0  0  0  0  0  0  0  0  0  0
   11.8385   36.4494   23.9853 H   0  0  0  0  0  0  0  0  0  0  0  0
   10.4496   38.2463   24.0872 H   0  0  0  0  0  0  0  0  0  0  0  0
   11.0802   38.5029   22.3825 H   0  0  0  0  0  0  0  0  0  0  0  0
    8.6248   36.8454   22.7203 H   0  0  0  0  0  0  0  0  0  0  0  0
    8.4704   38.6079   22.9632 H   0  0  0  0  0  0  0  0  0  0  0  0
   10.0644   37.5293   20.6071 H   0  0  0  0  0  0  0  0  0  0  0  0
    8.2716   37.5987   20.5206 H   0  0  0  0  0  0  0  0  0  0  0  0
    8.3898   39.7984   20.0565 H   0  0  0  0  0  0  0  0  0  0  0  0
    9.1915   40.0842   21.6335 H   0  0  0  0  0  0  0  0  0  0  0  0
   11.2336   40.3160   20.6643 H   0  0  0  0  0  0  0  0  0  0  0  0
   10.9834   38.8520   19.6348 H   0  0  0  0  0  0  0  0  0  0  0  0
   11.1518   41.3869   18.6470 H   0  0  0  0  0  0  0  0  0  0  0  0
   10.2392   40.0705   17.8551 H   0  0  0  0  0  0  0  0  0  0  0  0
    8.8459   41.5622   20.0619 H   0  0  0  0  0  0  0  0  0  0  0  0
    9.1143   42.4482   18.5225 H   0  0  0  0  0  0  0  0  0  0  0  0
    8.1924   40.9066   18.5225 H   0  0  0  0  0  0  0  0  0  0  0  0
   11.8514   36.1724   26.8216 H   0  0  0  0  0  0  0  0  0  0  0  0
   10.8080   36.6487   28.2055 H   0  0  0  0  0  0  0  0  0  0  0  0
   12.5450   35.2146   29.1097 H   0  0  0  0  0  0  0  0  0  0  0  0
   11.0748   34.2313   29.0826 H   0  0  0  0  0  0  0  0  0  0  0  0
    9.1839   35.8023   22.8172 H   0  0  0  0  0  0  0  0  0  0  0  0
   10.4612   34.5990   22.4254 H   0  0  0  0  0  0  0  0  0  0  0  0
    9.4307   36.6370   25.3037 H   0  0  0  0  0  0  0  0  0  0  0  0
  1 10  1  0
  1 15  1  0
  2  3  1  0
  2 14  1  0
  3  4  1  0
  4  5  1  0
  5  6  1  0
  6  7  1  0
  7  8  1  0
  8  9  1  0
 10 11  1  0
 11 12  1  0
 12 17  2  0
 12 18  1  0
 13 14  1  0
 13 15  1  0
 13 16  2  0
  1 19  1  0
  1 20  1  0
  2 21  1  0
  2 22  1  0
  3 23  1  0
  3 24  1  0
  4 25  1  0
  4 26  1  0
  5 27  1  0
  5 28  1  0
  6 29  1  0
  6 30  1  0
  7 31  1  0
  7 32  1  0
  8 33  1  0
  8 34  1  0
  9 35  1  0
  9 36  1  0
  9 37  1  0
 10 38  1  0
 10 39  1  0
 11 40  1  0
 11 41  1  0
 14 42  1  0
 14 43  1  0
 15 44  1  0
M  CHG  1  18  -1
M  END
>  <filename_input>  (1) 
7L5F_XNG_docked.sdf

>  <pdb_id>  (1) 
7L5F_XNG

>  <pose_rank>  (1) 
0

>  <num_atoms_heavy>  (1) 
18

>  <num_torsions>  (1) 
12

>  <pose>  (1) 
[10.05980956441388, 34.83370371669162, 24.51633416348023, -0.06088595363505169, 0.7484514165327371, 4.067231656883262, -1.2636805109514515, 2.0015801928504473, 2.0193434968020827, -1.398171192693408, -0.4052407746018092, -2.5036224390060835, -2.196838123494865, 1.113380050365762, 1.9362689668721642, 1.177580988375025, -0.0806053917425713, -0.49800616337743536]

>  <energy>  (1) 
-580.0040888359446

>  <inter_energy>  (1) 
-583.65480827719

>  <intra_energy>  (1) 
10.413725924100751

>  <rmsd>  (1) 
1.56398

>  <sdf_rank>  (1) 
0

$$$$

     RDKit          3D

 44 43  0  0  0  0  0  0  0  0999 V2000
   10.1974   33.7373   25.5039 C   0  0  0  0  0  0  0  0  0  0  0  0
   11.2899   37.4466   22.8777 C   0  0  0  0  0  0  0  0  0  0  0  0
    9.9851   38.2168   23.0198 C   0  0  0  0  0  0  0  0  0  0  0  0
    9.8403   39.3956   22.0737 C   0  0  0  0  0  0  0  0  0  0  0  0
   10.2020   38.9236   20.6749 C   0  0  0  0  0  0  0  0  0  0  0  0
   11.3896   39.7152   20.1667 C   0  0  0  0  0  0  0  0  0  0  0  0
   11.1716   40.0409   18.6921 C   0  0  0  0  0  0  0  0  0  0  0  0
    9.9808   40.9579   18.5114 C   0  0  0  0  0  0  0  0  0  0  0  0
   10.2512   41.8539   17.3234 C   0  0  0  0  0  0  0  0  0  0  0  0
    9.6095   34.6485   26.5713 C   0  0  0  0  0  0  0  0  0  0  0  0
   10.0616   34.1802   27.9501 C   0  0  0  0  0  0  0  0  0  0  0  0
   11.2813   35.0126   28.2850 C   0  0  0  0  0  0  0  0  0  0  0  0
   11.1506   35.1627   23.8420 C   0  0  0  0  0  0  0  0  0  0  0  0
   10.9796   35.9802   22.5846 C   0  0  0  0  0  0  0  0  0  0  0  0
   10.1659   34.3240   24.1688 N   0  0  0  0  0  0  0  0  0  0  0  0
   12.1652   35.2825   24.5347 O   0  0  0  0  0  0  0  0  0  0  0  0
   11.5548   35.8985   27.4710 O   0  0  0  0  0  0  0  0  0  0  0  0
   11.9415   34.8112   29.3312 O   0  0  0  0  0  0  0  0  0  0  0  0
   11.2435   33.5207   25.7663 H   0  0  0  0  0  0  0  0  0  0  0  0
    9.5821   32.8260   25.4759 H   0  0  0  0  0  0  0  0  0  0  0  0
   11.8787   37.8702   22.0507 H   0  0  0  0  0  0  0  0  0  0  0  0
   11.8668   37.5223   23.8112 H   0  0  0  0  0  0  0  0  0  0  0  0
    9.1539   37.5214   22.8312 H   0  0  0  0  0  0  0  0  0  0  0  0
    9.9776   38.6320   24.0385 H   0  0  0  0  0  0  0  0  0  0  0  0
    8.8026   39.7601   22.0878 H   0  0  0  0  0  0  0  0  0  0  0  0
   10.5037   40.2168   22.3828 H   0  0  0  0  0  0  0  0  0  0  0  0
   10.4589   37.8545   20.7035 H   0  0  0  0  0  0  0  0  0  0  0  0
    9.3445   39.0765   20.0029 H   0  0  0  0  0  0  0  0  0  0  0  0
   11.4843   40.6485   20.7410 H   0  0  0  0  0  0  0  0  0  0  0  0
   12.3098   39.1245   20.2860 H   0  0  0  0  0  0  0  0  0  0  0  0
   12.0706   40.5357   18.2960 H   0  0  0  0  0  0  0  0  0  0  0  0
   10.9784   39.1034   18.1502 H   0  0  0  0  0  0  0  0  0  0  0  0
    9.0752   40.3609   18.3291 H   0  0  0  0  0  0  0  0  0  0  0  0
    9.8263   41.5633   19.4167 H   0  0  0  0  0  0  0  0  0  0  0  0
   10.5521   42.8511   17.6772 H   0  0  0  0  0  0  0  0  0  0  0  0
   11.0590   41.4217   16.7145 H   0  0  0  0  0  0  0  0  0  0  0  0
    9.3393   41.9407   16.7145 H   0  0  0  0  0  0  0  0  0  0  0  0
    9.9549   35.6793   26.4034 H   0  0  0  0  0  0  0  0  0  0  0  0
    8.5114   34.6143   26.5161 H   0  0  0  0  0  0  0  0  0  0  0  0
    9.2670   34.3481   28.6920 H   0  0  0  0  0  0  0  0  0  0  0  0
   10.2890   33.1040   27.9594 H   0  0  0  0  0  0  0  0  0  0  0  0
    9.9429   35.8901   22.2281 H   0  0  0  0  0  0  0  0  0  0  0  0
   11.6694   35.6092   21.8123 H   0  0  0  0  0  0  0  0  0  0  0  0
    9.4122   34.0993   23.5037 H   0  0  0  0  0  0  0  0  0  0  0  0
  1 10  1  0
  1 15  1  0
  2  3  1  0
  2 14  1  0
  3  4  1  0
  4  5  1  0
  5  6  1  0
  6  7  1  0
  7  8  1  0
  8  9  1  0
 10 11  1  0
 11 12  1  0
 12 17  2  0
 12 18  1  0
 13 14  1  0
 13 15  1  0
 13 16  2  0
  1 19  1  0
  1 20  1  0
  2 21  1  0
  2 22  1  0
  3 23  1  0
  3 24  1  0
  4 25  1  0
  4 26  1  0
  5 27  1  0
  5 28  1  0
  6 29  1  0
  6 30  1  0
  7 31  1  0
  7 32  1  0
  8 33  1  0
  8 34  1  0
  9 35  1  0
  9 36  1  0
  9 37  1  0
 10 38  1  0
 10 39  1  0
 11 40  1  0
 11 41  1  0
 14 42  1  0
 14 43  1  0
 15 44  1  0
M  CHG  1  18  -1
M  END
>  <filename_input>  (2) 
7L5F_XNG_docked.sdf

>  <pdb_id>  (2) 
7L5F_XNG

>  <pose_rank>  (2) 
1

>  <num_atoms_heavy>  (2) 
18

>  <num_torsions>  (2) 
12

>  <pose>  (2) 
[11.150619263362096, 35.16268429862363, 23.842048335750782, -4.502678035393116, 1.7809260320253155, 1.9846056810020887, -1.6797036631245221, 1.6389605058561965, -3.8612127848605136, 1.1878527922583129, 0.8883762088227686, -8.758147479077673, -3.9269176802060257, 3.5105276678362682, 1.3158587890928908, 2.943707127242281, -1.2747890423295174, -4.622127439866766]

>  <energy>  (2) 
-555.7518311342889

>  <inter_energy>  (2) 
-561.3229968046527

>  <intra_energy>  (2) 
13.279479663820567

>  <rmsd>  (2) 
2.04482

>  <sdf_rank>  (2) 
0

$$$$

     RDKit          3D

 44 43  0  0  0  0  0  0  0  0999 V2000
   11.9454   33.7428   26.8949 C   0  0  0  0  0  0  0  0  0  0  0  0
   10.4150   35.8603   23.4985 C   0  0  0  0  0  0  0  0  0  0  0  0
   10.9726   37.2616   23.7027 C   0  0  0  0  0  0  0  0  0  0  0  0
   11.3704   37.9764   22.4234 C   0  0  0  0  0  0  0  0  0  0  0  0
   10.1054   38.2618   21.6307 C   0  0  0  0  0  0  0  0  0  0  0  0
    9.8129   39.7479   21.6655 C   0  0  0  0  0  0  0  0  0  0  0  0
    9.6267   40.2482   20.2361 C   0  0  0  0  0  0  0  0  0  0  0  0
   10.9091   40.8503   19.7028 C   0  0  0  0  0  0  0  0  0  0  0  0
   11.2957   40.1013   18.4471 C   0  0  0  0  0  0  0  0  0  0  0  0
   12.2927   34.0237   28.3495 C   0  0  0  0  0  0  0  0  0  0  0  0
   11.0490   34.5043   29.0892 C   0  0  0  0  0  0  0  0  0  0  0  0
   11.3846   35.8917   29.5946 C   0  0  0  0  0  0  0  0  0  0  0  0
   10.1248   34.4477   25.5199 C   0  0  0  0  0  0  0  0  0  0  0  0
    9.4876   35.5132   24.6612 C   0  0  0  0  0  0  0  0  0  0  0  0
   11.1631   34.8074   26.2765 N   0  0  0  0  0  0  0  0  0  0  0  0
    9.6948   33.2908   25.5057 O   0  0  0  0  0  0  0  0  0  0  0  0
   11.5936   36.7356   28.7191 O   0  0  0  0  0  0  0  0  0  0  0  0
   11.4232   36.1478   30.8209 O   0  0  0  0  0  0  0  0  0  0  0  0
   12.8808   33.6219   26.3289 H   0  0  0  0  0  0  0  0  0  0  0  0
   11.3307   32.8307   26.8751 H   0  0  0  0  0  0  0  0  0  0  0  0
    9.8513   35.8227   22.5547 H   0  0  0  0  0  0  0  0  0  0  0  0
   11.2422   35.1363   23.4575 H   0  0  0  0  0  0  0  0  0  0  0  0
   10.2052   37.8658   24.2088 H   0  0  0  0  0  0  0  0  0  0  0  0
   11.8924   37.1478   24.2951 H   0  0  0  0  0  0  0  0  0  0  0  0
   11.8795   38.9207   22.6665 H   0  0  0  0  0  0  0  0  0  0  0  0
   12.0570   37.3506   21.8343 H   0  0  0  0  0  0  0  0  0  0  0  0
   10.2454   37.9399   20.5882 H   0  0  0  0  0  0  0  0  0  0  0  0
    9.2625   37.7115   22.0741 H   0  0  0  0  0  0  0  0  0  0  0  0
    8.8946   39.9300   22.2431 H   0  0  0  0  0  0  0  0  0  0  0  0
   10.6489   40.2814   22.1413 H   0  0  0  0  0  0  0  0  0  0  0  0
    9.3311   39.4046   19.5950 H   0  0  0  0  0  0  0  0  0  0  0  0
    8.8470   41.0241   20.2343 H   0  0  0  0  0  0  0  0  0  0  0  0
   10.7522   41.9136   19.4689 H   0  0  0  0  0  0  0  0  0  0  0  0
   11.7082   40.7701   20.4545 H   0  0  0  0  0  0  0  0  0  0  0  0
   11.7843   39.1546   18.7206 H   0  0  0  0  0  0  0  0  0  0  0  0
   10.3938   39.8904   17.8536 H   0  0  0  0  0  0  0  0  0  0  0  0
   11.9900   40.7143   17.8536 H   0  0  0  0  0  0  0  0  0  0  0  0
   12.6659   33.1026   28.8211 H   0  0  0  0  0  0  0  0  0  0  0  0
   13.0686   34.8020   28.3958 H   0  0  0  0  0  0  0  0  0  0  0  0
   10.1874   34.5427   28.4066 H   0  0  0  0  0  0  0  0  0  0  0  0
   10.7784   33.8265   29.9122 H   0  0  0  0  0  0  0  0  0  0  0  0
    9.3091   36.4133   25.2678 H   0  0  0  0  0  0  0  0  0  0  0  0
    8.5319   35.1388   24.2656 H   0  0  0  0  0  0  0  0  0  0  0  0
   11.4031   35.7989   26.4186 H   0  0  0  0  0  0  0  0  0  0  0  0
  1 10  1  0
  1 15  1  0
  2  3  1  0
  2 14  1  0
  3  4  1  0
  4  5  1  0
  5  6  1  0
  6  7  1  0
  7  8  1  0
  8  9  1  0
 10 11  1  0
 11 12  1  0
 12 17  2  0
 12 18  1  0
 13 14  1  0
 13 15  1  0
 13 16  2  0
  1 19  1  0
  1 20  1  0
  2 21  1  0
  2 22  1  0
  3 23  1  0
  3 24  1  0
  4 25  1  0
  4 26  1  0
  5 27  1  0
  5 28  1  0
  6 29  1  0
  6 30  1  0
  7 31  1  0
  7 32  1  0
  8 33  1  0
  8 34  1  0
  9 35  1  0
  9 36  1  0
  9 37  1  0
 10 38  1  0
 10 39  1  0
 11 40  1  0
 11 41  1  0
 14 42  1  0
 14 43  1  0
 15 44  1  0
M  CHG  1  18  -1
M  END
>  <filename_input>  (3) 
7L5F_XNG_docked.sdf

>  <pdb_id>  (3) 
7L5F_XNG

>  <pose_rank>  (3) 
2

>  <num_atoms_heavy>  (3) 
18

>  <num_torsions>  (3) 
12

>  <pose>  (3) 
[10.12481632355447, 34.447686740329424, 25.51989646843553, -1.0104775831126982, 0.5223812812001682, -2.3845528698876692, -11.786253524593686, 5.289085513256575, -1.327347667989946, 2.2121904093580014, -0.14538507550221408, -2.6220749569912987, 1.8209327513263338, 3.847090964481888, -0.9891616446369638, -4.9563076592801245, 2.1891606870966696, 1.2189535994309006]

>  <energy>  (3) 
-537.4800524759212

>  <inter_energy>  (3) 
-544.8134181796504

>  <intra_energy>  (3) 
6.216103587820951

>  <rmsd>  (3) 
2.34982

>  <sdf_rank>  (3) 
0

$$$$

     RDKit          3D

 44 43  0  0  0  0  0  0  0  0999 V2000
   11.1068   38.5034   22.5018 C   0  0  0  0  0  0  0  0  0  0  0  0
    9.6523   34.7797   23.3613 C   0  0  0  0  0  0  0  0  0  0  0  0
    8.9524   34.3321   24.6364 C   0  0  0  0  0  0  0  0  0  0  0  0
    9.8848   34.0215   25.7939 C   0  0  0  0  0  0  0  0  0  0  0  0
    9.6941   35.0947   26.8532 C   0  0  0  0  0  0  0  0  0  0  0  0
   10.4807   34.7243   28.0938 C   0  0  0  0  0  0  0  0  0  0  0  0
   11.8629   35.3653   28.0120 C   0  0  0  0  0  0  0  0  0  0  0  0
   12.0877   36.3150   29.1692 C   0  0  0  0  0  0  0  0  0  0  0  0
   11.6406   35.6258   30.4390 C   0  0  0  0  0  0  0  0  0  0  0  0
   11.2536   38.5503   20.9880 C   0  0  0  0  0  0  0  0  0  0  0  0
   11.3711   39.9997   20.5295 C   0  0  0  0  0  0  0  0  0  0  0  0
   10.1824   40.2392   19.6226 C   0  0  0  0  0  0  0  0  0  0  0  0
   11.5857   36.3377   23.3863 C   0  0  0  0  0  0  0  0  0  0  0  0
   11.1499   34.9130   23.6294 C   0  0  0  0  0  0  0  0  0  0  0  0
   10.6531   37.2073   22.9938 N   0  0  0  0  0  0  0  0  0  0  0  0
   12.7647   36.6679   23.5417 O   0  0  0  0  0  0  0  0  0  0  0  0
    9.1967   39.5321   19.8473 O   0  0  0  0  0  0  0  0  0  0  0  0
   10.2123   41.1134   18.7248 O   0  0  0  0  0  0  0  0  0  0  0  0
   12.0838   38.7273   22.9551 H   0  0  0  0  0  0  0  0  0  0  0  0
   10.3435   39.2449   22.7800 H   0  0  0  0  0  0  0  0  0  0  0  0
    9.4854   34.0348   22.5693 H   0  0  0  0  0  0  0  0  0  0  0  0
    9.2473   35.7504   23.0392 H   0  0  0  0  0  0  0  0  0  0  0  0
    8.2689   35.1341   24.9522 H   0  0  0  0  0  0  0  0  0  0  0  0
    8.4332   33.3932   24.3938 H   0  0  0  0  0  0  0  0  0  0  0  0
    9.6415   33.0346   26.2145 H   0  0  0  0  0  0  0  0  0  0  0  0
   10.9293   34.0067   25.4492 H   0  0  0  0  0  0  0  0  0  0  0  0
   10.0527   36.0598   26.4661 H   0  0  0  0  0  0  0  0  0  0  0  0
    8.6266   35.1751   27.1060 H   0  0  0  0  0  0  0  0  0  0  0  0
    9.9554   35.0920   28.9876 H   0  0  0  0  0  0  0  0  0  0  0  0
   10.5802   33.6308   28.1595 H   0  0  0  0  0  0  0  0  0  0  0  0
   12.6282   34.5757   28.0402 H   0  0  0  0  0  0  0  0  0  0  0  0
   11.9314   35.9337   27.0727 H   0  0  0  0  0  0  0  0  0  0  0  0
   13.1555   36.5698   29.2398 H   0  0  0  0  0  0  0  0  0  0  0  0
   11.5147   37.2416   29.0175 H   0  0  0  0  0  0  0  0  0  0  0  0
   12.0062   36.1892   31.3102 H   0  0  0  0  0  0  0  0  0  0  0  0
   10.5418   35.5823   30.4652 H   0  0  0  0  0  0  0  0  0  0  0  0
   12.0487   34.6047   30.4652 H   0  0  0  0  0  0  0  0  0  0  0  0
   12.1572   37.9979   20.6906 H   0  0  0  0  0  0  0  0  0  0  0  0
   10.3701   38.0902   20.5212 H   0  0  0  0  0  0  0  0  0  0  0  0
   11.3375   40.6794   21.3937 H   0  0  0  0  0  0  0  0  0  0  0  0
   12.3226   40.1856   20.0099 H   0  0  0  0  0  0  0  0  0  0  0  0
   11.3602   34.6395   24.6739 H   0  0  0  0  0  0  0  0  0  0  0  0
   11.7019   34.2430   22.9538 H   0  0  0  0  0  0  0  0  0  0  0  0
    9.6512   36.9725   23.0366 H   0  0  0  0  0  0  0  0  0  0  0  0
  1 10  1  0
  1 15  1  0
  2  3  1  0
  2 14  1  0
  3  4  1  0
  4  5  1  0
  5  6  1  0
  6  7  1  0
  7  8  1  0
  8  9  1  0
 10 11  1  0
 11 12  1  0
 12 17  2  0
 12 18  1  0
 13 14  1  0
 13 15  1  0
 13 16  2  0
  1 19  1  0
  1 20  1  0
  2 21  1  0
  2 22  1  0
  3 23  1  0
  3 24  1  0
  4 25  1  0
  4 26  1  0
  5 27  1  0
  5 28  1  0
  6 29  1  0
  6 30  1  0
  7 31  1  0
  7 32  1  0
  8 33  1  0
  8 34  1  0
  9 35  1  0
  9 36  1  0
  9 37  1  0
 10 38  1  0
 10 39  1  0
 11 40  1  0
 11 41  1  0
 14 42  1  0
 14 43  1  0
 15 44  1  0
M  CHG  1  18  -1
M  END
>  <filename_input>  (4) 
7L5F_XNG_docked.sdf

>  <pdb_id>  (4) 
7L5F_XNG

>  <pose_rank>  (4) 
3

>  <num_atoms_heavy>  (4) 
18

>  <num_torsions>  (4) 
12

>  <pose>  (4) 
[11.58566193862783, 36.33765824346568, 23.386254266813136, 3.5823728035390845, 2.4148593547939385, 0.7240425603950108, 4.805769313668256, 1.0766670049365976, 4.9731680040905415, 1.5646654944624834, -1.4068044748602506, 3.504448215529252, -1.8617139810910777, -1.6827557346403377, 0.132441968920958, 0.7136269443707804, -0.3221851378742694, -0.10977684726072948]

>  <energy>  (4) 
-572.5836773359014

>  <inter_energy>  (4) 
-553.9866616718089

>  <intra_energy>  (4) 
3.18280567127335

>  <rmsd>  (4) 
7.86768

>  <sdf_rank>  (4) 
0

$$$$

     RDKit          3D

 44 43  0  0  0  0  0  0  0  0999 V2000
    9.8440   34.0943   26.2002 C   0  0  0  0  0  0  0  0  0  0  0  0
    7.5081   33.2480   22.2752 C   0  0  0  0  0  0  0  0  0  0  0  0
    7.3657   34.7531   22.1000 C   0  0  0  0  0  0  0  0  0  0  0  0
    8.3398   35.5801   22.9203 C   0  0  0  0  0  0  0  0  0  0  0  0
    8.4403   36.9569   22.2844 C   0  0  0  0  0  0  0  0  0  0  0  0
    9.8987   37.3169   22.0883 C   0  0  0  0  0  0  0  0  0  0  0  0
   10.0440   38.8349   22.1389 C   0  0  0  0  0  0  0  0  0  0  0  0
   10.4704   39.3822   20.7935 C   0  0  0  0  0  0  0  0  0  0  0  0
    9.2325   39.8447   20.0581 C   0  0  0  0  0  0  0  0  0  0  0  0
    9.8055   35.3555   27.0507 C   0  0  0  0  0  0  0  0  0  0  0  0
   11.2232   35.7430   27.4565 C   0  0  0  0  0  0  0  0  0  0  0  0
   11.7547   34.5713   28.2548 C   0  0  0  0  0  0  0  0  0  0  0  0
    8.5572   33.0006   24.5120 C   0  0  0  0  0  0  0  0  0  0  0  0
    7.2657   32.8864   23.7390 C   0  0  0  0  0  0  0  0  0  0  0  0
    8.5534   33.7639   25.6062 N   0  0  0  0  0  0  0  0  0  0  0  0
    9.5713   32.4102   24.1293 O   0  0  0  0  0  0  0  0  0  0  0  0
   12.4030   33.7438   27.6089 O   0  0  0  0  0  0  0  0  0  0  0  0
   11.5546   34.4780   29.4886 O   0  0  0  0  0  0  0  0  0  0  0  0
   10.5746   34.2402   25.3909 H   0  0  0  0  0  0  0  0  0  0  0  0
   10.1229   33.2612   26.8622 H   0  0  0  0  0  0  0  0  0  0  0  0
    6.7707   32.7328   21.6421 H   0  0  0  0  0  0  0  0  0  0  0  0
    8.5212   32.9365   21.9809 H   0  0  0  0  0  0  0  0  0  0  0  0
    7.5232   34.9913   21.0377 H   0  0  0  0  0  0  0  0  0  0  0  0
    6.3582   35.0144   22.4561 H   0  0  0  0  0  0  0  0  0  0  0  0
    7.9734   35.6721   23.9534 H   0  0  0  0  0  0  0  0  0  0  0  0
    9.3276   35.0964   22.9414 H   0  0  0  0  0  0  0  0  0  0  0  0
    7.9303   36.9489   21.3097 H   0  0  0  0  0  0  0  0  0  0  0  0
    7.9641   37.7000   22.9409 H   0  0  0  0  0  0  0  0  0  0  0  0
   10.5022   36.8613   22.8873 H   0  0  0  0  0  0  0  0  0  0  0  0
   10.2480   36.9411   21.1153 H   0  0  0  0  0  0  0  0  0  0  0  0
    9.0777   39.2799   22.4187 H   0  0  0  0  0  0  0  0  0  0  0  0
   10.8141   39.0895   22.8818 H   0  0  0  0  0  0  0  0  0  0  0  0
   11.1569   40.2297   20.9368 H   0  0  0  0  0  0  0  0  0  0  0  0
   10.9888   38.6044   20.2136 H   0  0  0  0  0  0  0  0  0  0  0  0
    8.4600   40.1333   20.7861 H   0  0  0  0  0  0  0  0  0  0  0  0
    9.4828   40.7100   19.4267 H   0  0  0  0  0  0  0  0  0  0  0  0
    8.8542   39.0273   19.4267 H   0  0  0  0  0  0  0  0  0  0  0  0
    9.3540   36.1741   26.4710 H   0  0  0  0  0  0  0  0  0  0  0  0
    9.2055   35.1687   27.9535 H   0  0  0  0  0  0  0  0  0  0  0  0
   11.8445   35.9132   26.5648 H   0  0  0  0  0  0  0  0  0  0  0  0
   11.2381   36.6740   28.0422 H   0  0  0  0  0  0  0  0  0  0  0  0
    6.5214   33.5740   24.1671 H   0  0  0  0  0  0  0  0  0  0  0  0
    6.8936   31.8532   23.8021 H   0  0  0  0  0  0  0  0  0  0  0  0
    7.6727   34.1068   26.0159 H   0  0  0  0  0  0  0  0  0  0  0  0
  1 10  1  0
  1 15  1  0
  2  3  1  0
  2 14  1  0
  3  4  1  0
  4  5  1  0
  5  6  1  0
  6  7  1  0
  7  8  1  0
  8  9  1  0
 10 11  1  0
 11 12  1  0
 12 17  2  0
 12 18  1  0
 13 14  1  0
 13 15  1  0
 13 16  2  0
  1 19  1  0
  1 20  1  0
  2 21  1  0
  2 22  1  0
  3 23  1  0
  3 24  1  0
  4 25  1  0
  4 26  1  0
  5 27  1  0
  5 28  1  0
  6 29  1  0
  6 30  1  0
  7 31  1  0
  7 32  1  0
  8 33  1  0
  8 34  1  0
  9 35  1  0
  9 36  1  0
  9 37  1  0
 10 38  1  0
 10 39  1  0
 11 40  1  0
 11 41  1  0
 14 42  1  0
 14 43  1  0
 15 44  1  0
M  CHG  1  18  -1
M  END
>  <filename_input>  (5) 
7L5F_XNG_docked.sdf

>  <pdb_id>  (5) 
7L5F_XNG

>  <pose_rank>  (5) 
4

>  <num_atoms_heavy>  (5) 
18

>  <num_torsions>  (5) 
12

>  <pose>  (5) 
[8.557205050286198, 33.00061235266584, 24.512048100783563, 2.6245460339119737, -0.5114977006920784, 4.245699588994186, -0.38557246929525235, 1.4800415675492269, -0.29612405578949147, 2.739591726195449, 7.086255472200354, 4.067595811058597, -0.7239727663759595, 5.4499530986464375, 1.1298970124000869, -3.548136903883313, 1.8905774919905414, 0.7686274429363772]

>  <energy>  (5) 
-478.4398041107937

>  <inter_energy>  (5) 
-517.8287550336728

>  <intra_energy>  (5) 
36.599240209585005

>  <rmsd>  (5) 
2.69937

>  <sdf_rank>  (5) 
0

$$$$

     RDKit          3D

 44 43  0  0  0  0  0  0  0  0999 V2000
    8.1667   34.0948   24.6782 C   0  0  0  0  0  0  0  0  0  0  0  0
   11.6401   36.2246   24.4255 C   0  0  0  0  0  0  0  0  0  0  0  0
   12.0367   36.4594   22.9750 C   0  0  0  0  0  0  0  0  0  0  0  0
   10.9281   37.0145   22.0984 C   0  0  0  0  0  0  0  0  0  0  0  0
   10.5478   38.3859   22.6321 C   0  0  0  0  0  0  0  0  0  0  0  0
    9.9441   39.2123   21.5151 C   0  0  0  0  0  0  0  0  0  0  0  0
   11.0706   39.8616   20.7168 C   0  0  0  0  0  0  0  0  0  0  0  0
   10.5245   40.5999   19.5134 C   0  0  0  0  0  0  0  0  0  0  0  0
    9.0524   40.2763   19.3893 C   0  0  0  0  0  0  0  0  0  0  0  0
    7.0792   34.5196   23.7025 C   0  0  0  0  0  0  0  0  0  0  0  0
    7.6651   34.6307   22.2992 C   0  0  0  0  0  0  0  0  0  0  0  0
    6.9686   33.5648   21.4797 C   0  0  0  0  0  0  0  0  0  0  0  0
   10.5423   34.0522   24.9163 C   0  0  0  0  0  0  0  0  0  0  0  0
   11.8702   34.7568   24.7790 C   0  0  0  0  0  0  0  0  0  0  0  0
    9.4843   34.6147   24.3297 N   0  0  0  0  0  0  0  0  0  0  0  0
   10.4538   33.0006   25.5565 O   0  0  0  0  0  0  0  0  0  0  0  0
    7.7098   32.7112   20.9856 O   0  0  0  0  0  0  0  0  0  0  0  0
    5.7229   33.5580   21.3418 O   0  0  0  0  0  0  0  0  0  0  0  0
    7.9000   34.4609   25.6806 H   0  0  0  0  0  0  0  0  0  0  0  0
    8.2279   32.9970   24.6430 H   0  0  0  0  0  0  0  0  0  0  0  0
   12.2520   36.8611   25.0816 H   0  0  0  0  0  0  0  0  0  0  0  0
   10.5779   36.4751   24.5628 H   0  0  0  0  0  0  0  0  0  0  0  0
   12.8752   37.1712   22.9596 H   0  0  0  0  0  0  0  0  0  0  0  0
   12.2987   35.4749   22.5603 H   0  0  0  0  0  0  0  0  0  0  0  0
   11.2820   37.1030   21.0606 H   0  0  0  0  0  0  0  0  0  0  0  0
   10.0566   36.3435   22.1145 H   0  0  0  0  0  0  0  0  0  0  0  0
    9.8132   38.2730   23.4431 H   0  0  0  0  0  0  0  0  0  0  0  0
   11.4453   38.8910   23.0184 H   0  0  0  0  0  0  0  0  0  0  0  0
    9.3502   38.5631   20.8549 H   0  0  0  0  0  0  0  0  0  0  0  0
    9.2906   39.9896   21.9378 H   0  0  0  0  0  0  0  0  0  0  0  0
   11.6062   40.5727   21.3629 H   0  0  0  0  0  0  0  0  0  0  0  0
   11.7521   39.0729   20.3655 H   0  0  0  0  0  0  0  0  0  0  0  0
   10.6575   41.6833   19.6492 H   0  0  0  0  0  0  0  0  0  0  0  0
   11.0596   40.2915   18.6032 H   0  0  0  0  0  0  0  0  0  0  0  0
    8.6123   40.1796   20.3928 H   0  0  0  0  0  0  0  0  0  0  0  0
    8.5442   41.0842   18.8424 H   0  0  0  0  0  0  0  0  0  0  0  0
    8.9298   39.3298   18.8424 H   0  0  0  0  0  0  0  0  0  0  0  0
    6.2731   33.7710   23.7043 H   0  0  0  0  0  0  0  0  0  0  0  0
    6.6758   35.4962   24.0081 H   0  0  0  0  0  0  0  0  0  0  0  0
    7.4677   35.6279   21.8789 H   0  0  0  0  0  0  0  0  0  0  0  0
    8.7564   34.4925   22.3024 H   0  0  0  0  0  0  0  0  0  0  0  0
   12.4582   34.2768   23.9828 H   0  0  0  0  0  0  0  0  0  0  0  0
   12.4167   34.6929   25.7315 H   0  0  0  0  0  0  0  0  0  0  0  0
    9.5937   35.3865   23.6565 H   0  0  0  0  0  0  0  0  0  0  0  0
  1 10  1  0
  1 15  1  0
  2  3  1  0
  2 14  1  0
  3  4  1  0
  4  5  1  0
  5  6  1  0
  6  7  1  0
  7  8  1  0
  8  9  1  0
 10 11  1  0
 11 12  1  0
 12 17  2  0
 12 18  1  0
 13 14  1  0
 13 15  1  0
 13 16  2  0
  1 19  1  0
  1 20  1  0
  2 21  1  0
  2 22  1  0
  3 23  1  0
  3 24  1  0
  4 25  1  0
  4 26  1  0
  5 27  1  0
  5 28  1  0
  6 29  1  0
  6 30  1  0
  7 31  1  0
  7 32  1  0
  8 33  1  0
  8 34  1  0
  9 35  1  0
  9 36  1  0
  9 37  1  0
 10 38  1  0
 10 39  1  0
 11 40  1  0
 11 41  1  0
 14 42  1  0
 14 43  1  0
 15 44  1  0
M  CHG  1  18  -1
M  END
>  <filename_input>  (6) 
7L5F_XNG_docked.sdf

>  <pdb_id>  (6) 
7L5F_XNG

>  <pose_rank>  (6) 
5

>  <num_atoms_heavy>  (6) 
18

>  <num_torsions>  (6) 
12

>  <pose>  (6) 
[10.542330222172144, 34.05218348061536, 24.91634463675115, -2.480746961453398, 2.207321309126998, 2.047140543977079, 0.28971041940758496, 5.052754166274508, -3.5093564856434196, -0.9963153930095416, 11.52397094636615, 3.6980407316735917, 6.638588162503827, -2.5108749061439957, 6.101605295003067, -2.366815727433085, -5.636062097246575, -1.0575294653511855]

>  <energy>  (6) 
-542.8813352372792

>  <inter_energy>  (6) 
-530.5099141397237

>  <intra_energy>  (6) 
2.6410751612471954

>  <rmsd>  (6) 
4.63332

>  <sdf_rank>  (6) 
0

$$$$

     RDKit          3D

 44 43  0  0  0  0  0  0  0  0999 V2000
    9.5087   34.0168   25.3637 C   0  0  0  0  0  0  0  0  0  0  0  0
    8.9270   37.2516   21.8258 C   0  0  0  0  0  0  0  0  0  0  0  0
    9.8959   38.3769   21.4926 C   0  0  0  0  0  0  0  0  0  0  0  0
    9.2623   39.5745   20.8070 C   0  0  0  0  0  0  0  0  0  0  0  0
   10.1565   39.9804   19.6469 C   0  0  0  0  0  0  0  0  0  0  0  0
    9.7178   41.3316   19.1206 C   0  0  0  0  0  0  0  0  0  0  0  0
   10.2710   41.5157   17.7106 C   0  0  0  0  0  0  0  0  0  0  0  0
   10.5145   42.9797   17.4124 C   0  0  0  0  0  0  0  0  0  0  0  0
   10.8530   43.6761   18.7115 C   0  0  0  0  0  0  0  0  0  0  0  0
   10.2928   34.1434   26.6616 C   0  0  0  0  0  0  0  0  0  0  0  0
   11.3545   33.0510   26.7272 C   0  0  0  0  0  0  0  0  0  0  0  0
   12.3004   33.4662   27.8342 C   0  0  0  0  0  0  0  0  0  0  0  0
    9.1645   35.3660   23.4239 C   0  0  0  0  0  0  0  0  0  0  0  0
    9.7181   35.9903   22.1659 C   0  0  0  0  0  0  0  0  0  0  0  0
   10.0382   34.8509   24.2905 N   0  0  0  0  0  0  0  0  0  0  0  0
    7.9471   35.3345   23.6248 O   0  0  0  0  0  0  0  0  0  0  0  0
   11.7590   33.8426   28.8770 O   0  0  0  0  0  0  0  0  0  0  0  0
   13.5437   33.4057   27.6871 O   0  0  0  0  0  0  0  0  0  0  0  0
    9.5388   32.9666   25.0378 H   0  0  0  0  0  0  0  0  0  0  0  0
    8.4823   34.3564   25.5666 H   0  0  0  0  0  0  0  0  0  0  0  0
    8.3090   37.5418   22.6883 H   0  0  0  0  0  0  0  0  0  0  0  0
    8.2760   37.0568   20.9607 H   0  0  0  0  0  0  0  0  0  0  0  0
   10.3562   38.7221   22.4301 H   0  0  0  0  0  0  0  0  0  0  0  0
   10.6247   37.9604   20.7818 H   0  0  0  0  0  0  0  0  0  0  0  0
    8.2640   39.3048   20.4320 H   0  0  0  0  0  0  0  0  0  0  0  0
    9.1558   40.4083   21.5166 H   0  0  0  0  0  0  0  0  0  0  0  0
   11.1993   40.0421   19.9917 H   0  0  0  0  0  0  0  0  0  0  0  0
   10.0795   39.2316   18.8449 H   0  0  0  0  0  0  0  0  0  0  0  0
    8.6191   41.3791   19.0954 H   0  0  0  0  0  0  0  0  0  0  0  0
   10.0973   42.1285   19.7770 H   0  0  0  0  0  0  0  0  0  0  0  0
   11.2204   40.9674   17.6219 H   0  0  0  0  0  0  0  0  0  0  0  0
    9.5346   41.1284   16.9911 H   0  0  0  0  0  0  0  0  0  0  0  0
   11.3516   43.0817   16.7060 H   0  0  0  0  0  0  0  0  0  0  0  0
    9.6178   43.4302   16.9619 H   0  0  0  0  0  0  0  0  0  0  0  0
   10.5456   43.0437   19.5574 H   0  0  0  0  0  0  0  0  0  0  0  0
   11.9375   43.8530   18.7610 H   0  0  0  0  0  0  0  0  0  0  0  0
   10.3219   44.6381   18.7610 H   0  0  0  0  0  0  0  0  0  0  0  0
   10.7791   35.1293   26.7006 H   0  0  0  0  0  0  0  0  0  0  0  0
    9.6064   34.0371   27.5146 H   0  0  0  0  0  0  0  0  0  0  0  0
   10.8925   32.0805   26.9611 H   0  0  0  0  0  0  0  0  0  0  0  0
   11.8785   32.9355   25.7669 H   0  0  0  0  0  0  0  0  0  0  0  0
    9.6375   35.2731   21.3358 H   0  0  0  0  0  0  0  0  0  0  0  0
   10.7741   36.2544   22.3247 H   0  0  0  0  0  0  0  0  0  0  0  0
   11.0480   35.0352   24.2052 H   0  0  0  0  0  0  0  0  0  0  0  0
  1 10  1  0
  1 15  1  0
  2  3  1  0
  2 14  1  0
  3  4  1  0
  4  5  1  0
  5  6  1  0
  6  7  1  0
  7  8  1  0
  8  9  1  0
 10 11  1  0
 11 12  1  0
 12 17  2  0
 12 18  1  0
 13 14  1  0
 13 15  1  0
 13 16  2  0
  1 19  1  0
  1 20  1  0
  2 21  1  0
  2 22  1  0
  3 23  1  0
  3 24  1  0
  4 25  1  0
  4 26  1  0
  5 27  1  0
  5 28  1  0
  6 29  1  0
  6 30  1  0
  7 31  1  0
  7 32  1  0
  8 33  1  0
  8 34  1  0
  9 35  1  0
  9 36  1  0
  9 37  1  0
 10 38  1  0
 10 39  1  0
 11 40  1  0
 11 41  1  0
 14 42  1  0
 14 43  1  0
 15 44  1  0
M  CHG  1  18  -1
M  END
>  <filename_input>  (7) 
7L5F_XNG_docked.sdf

>  <pdb_id>  (7) 
7L5F_XNG

>  <pose_rank>  (7) 
6

>  <num_atoms_heavy>  (7) 
18

>  <num_torsions>  (7) 
12

>  <pose>  (7) 
[9.164455312523275, 35.36603524681032, 23.423857960228347, 0.5761431853915082, -0.47190117940473447, 2.34678001822806, -5.67905197100603, 2.8373600130381513, -2.6360683573666415, 1.9011431998124022, 2.422919701519107, 1.63048679212374, -5.173482148404434, 0.31479015582507436, 0.45780999915424103, 2.5752467875254967, 1.2508230472703825, -0.39027750696507285]

>  <energy>  (7) 
-537.381329834341

>  <inter_energy>  (7) 
-533.9406231784992

>  <intra_energy>  (7) 
0.0

>  <rmsd>  (7) 
2.52844

>  <sdf_rank>  (7) 
0

$$$$

     RDKit          3D

 44 43  0  0  0  0  0  0  0  0999 V2000
   12.0833   38.7499   22.1141 C   0  0  0  0  0  0  0  0  0  0  0  0
   11.0517   34.5511   24.3479 C   0  0  0  0  0  0  0  0  0  0  0  0
    9.9705   33.5088   24.5942 C   0  0  0  0  0  0  0  0  0  0  0  0
    8.8055   33.9937   25.4388 C   0  0  0  0  0  0  0  0  0  0  0  0
    7.5174   33.5959   24.7369 C   0  0  0  0  0  0  0  0  0  0  0  0
    7.2247   34.5807   23.6236 C   0  0  0  0  0  0  0  0  0  0  0  0
    5.8823   34.2262   22.9908 C   0  0  0  0  0  0  0  0  0  0  0  0
    4.7527   34.4072   23.9822 C   0  0  0  0  0  0  0  0  0  0  0  0
    3.4454   34.1964   23.2517 C   0  0  0  0  0  0  0  0  0  0  0  0
   11.4220   39.9380   21.4312 C   0  0  0  0  0  0  0  0  0  0  0  0
   11.4261   39.7281   19.9209 C   0  0  0  0  0  0  0  0  0  0  0  0
   10.1536   40.3741   19.4149 C   0  0  0  0  0  0  0  0  0  0  0  0
   11.4810   36.6980   23.1766 C   0  0  0  0  0  0  0  0  0  0  0  0
   10.4128   35.8127   23.7713 C   0  0  0  0  0  0  0  0  0  0  0  0
   11.1582   37.9682   22.9269 N   0  0  0  0  0  0  0  0  0  0  0  0
   12.6031   36.2471   22.9295 O   0  0  0  0  0  0  0  0  0  0  0  0
   10.2686   41.0165   18.3679 O   0  0  0  0  0  0  0  0  0  0  0  0
    9.0659   40.2371   20.0226 O   0  0  0  0  0  0  0  0  0  0  0  0
   12.5093   38.0942   21.3404 H   0  0  0  0  0  0  0  0  0  0  0  0
   12.8559   39.1480   22.7883 H   0  0  0  0  0  0  0  0  0  0  0  0
   11.5521   34.7932   25.2971 H   0  0  0  0  0  0  0  0  0  0  0  0
   11.7917   34.1544   23.6372 H   0  0  0  0  0  0  0  0  0  0  0  0
    9.5764   33.1862   23.6192 H   0  0  0  0  0  0  0  0  0  0  0  0
   10.4464   32.6933   25.1585 H   0  0  0  0  0  0  0  0  0  0  0  0
    8.8471   33.5278   26.4344 H   0  0  0  0  0  0  0  0  0  0  0  0
    8.8516   35.0859   25.5616 H   0  0  0  0  0  0  0  0  0  0  0  0
    7.6267   32.5863   24.3142 H   0  0  0  0  0  0  0  0  0  0  0  0
    6.6884   33.6025   25.4600 H   0  0  0  0  0  0  0  0  0  0  0  0
    7.1816   35.6003   24.0342 H   0  0  0  0  0  0  0  0  0  0  0  0
    8.0192   34.5321   22.8644 H   0  0  0  0  0  0  0  0  0  0  0  0
    5.7089   34.8806   22.1238 H   0  0  0  0  0  0  0  0  0  0  0  0
    5.9092   33.1721   22.6775 H   0  0  0  0  0  0  0  0  0  0  0  0
    4.8484   33.6716   24.7943 H   0  0  0  0  0  0  0  0  0  0  0  0
    4.7867   35.4171   24.4170 H   0  0  0  0  0  0  0  0  0  0  0  0
    2.6339   34.0656   23.9827 H   0  0  0  0  0  0  0  0  0  0  0  0
    3.2327   35.0719   22.6205 H   0  0  0  0  0  0  0  0  0  0  0  0
    3.5186   33.2985   22.6205 H   0  0  0  0  0  0  0  0  0  0  0  0
   10.3846   40.0325   21.7847 H   0  0  0  0  0  0  0  0  0  0  0  0
   11.9790   40.8550   21.6738 H   0  0  0  0  0  0  0  0  0  0  0  0
   12.3063   40.2088   19.4691 H   0  0  0  0  0  0  0  0  0  0  0  0
   11.4718   38.6607   19.6592 H   0  0  0  0  0  0  0  0  0  0  0  0
    9.6924   35.5328   22.9886 H   0  0  0  0  0  0  0  0  0  0  0  0
    9.8935   36.3573   24.5737 H   0  0  0  0  0  0  0  0  0  0  0  0
   10.2889   38.3810   23.2942 H   0  0  0  0  0  0  0  0  0  0  0  0
  1 10  1  0
  1 15  1  0
  2  3  1  0
  2 14  1  0
  3  4  1  0
  4  5  1  0
  5  6  1  0
  6  7  1  0
  7  8  1  0
  8  9  1  0
 10 11  1  0
 11 12  1  0
 12 17  2  0
 12 18  1  0
 13 14  1  0
 13 15  1  0
 13 16  2  0
  1 19  1  0
  1 20  1  0
  2 21  1  0
  2 22  1  0
  3 23  1  0
  3 24  1  0
  4 25  1  0
  4 26  1  0
  5 27  1  0
  5 28  1  0
  6 29  1  0
  6 30  1  0
  7 31  1  0
  7 32  1  0
  8 33  1  0
  8 34  1  0
  9 35  1  0
  9 36  1  0
  9 37  1  0
 10 38  1  0
 10 39  1  0
 11 40  1  0
 11 41  1  0
 14 42  1  0
 14 43  1  0
 15 44  1  0
M  CHG  1  18  -1
M  END
>  <filename_input>  (8) 
7L5F_XNG_docked.sdf

>  <pdb_id>  (8) 
7L5F_XNG

>  <pose_rank>  (8) 
7

>  <num_atoms_heavy>  (8) 
18

>  <num_torsions>  (8) 
12

>  <pose>  (8) 
[11.48102166462795, 36.69801972936301, 23.176588334782405, 4.158759079936708, 0.6076469983838002, 0.94662803515564, -0.3859843430036505, 2.4894507959720356, -2.963184459906324, -2.7669288760683455, 2.0185381303745626, 2.7120888440944575, -21.558964469319655, -20.16103504117909, -4.2835434332692435, 8.592348073820421, -1.2739000668478455, -4.168041940679476]

>  <energy>  (8) 
-527.1871459260597

>  <inter_energy>  (8) 
-521.7378576048255

>  <intra_energy>  (8) 
4.331072467765381

>  <rmsd>  (8) 
7.60673

>  <sdf_rank>  (8) 
0

$$$$

     RDKit          3D

 44 43  0  0  0  0  0  0  0  0999 V2000
   10.4064   40.7486   19.0263 C   0  0  0  0  0  0  0  0  0  0  0  0
   10.9907   37.1058   21.9677 C   0  0  0  0  0  0  0  0  0  0  0  0
   10.1953   35.9812   22.6149 C   0  0  0  0  0  0  0  0  0  0  0  0
   10.7119   35.5421   23.9736 C   0  0  0  0  0  0  0  0  0  0  0  0
    9.5701   34.8671   24.7158 C   0  0  0  0  0  0  0  0  0  0  0  0
   10.1289   34.0350   25.8518 C   0  0  0  0  0  0  0  0  0  0  0  0
    9.8070   34.7248   27.1741 C   0  0  0  0  0  0  0  0  0  0  0  0
   11.0633   35.2691   27.8197 C   0  0  0  0  0  0  0  0  0  0  0  0
   11.7338   34.1416   28.5722 C   0  0  0  0  0  0  0  0  0  0  0  0
    9.7030   42.0740   18.7737 C   0  0  0  0  0  0  0  0  0  0  0  0
    9.0167   42.0383   17.4126 C   0  0  0  0  0  0  0  0  0  0  0  0
   10.1310   42.1186   16.3906 C   0  0  0  0  0  0  0  0  0  0  0  0
   10.7133   39.3467   20.9348 C   0  0  0  0  0  0  0  0  0  0  0  0
   10.1354   38.3706   21.9307 C   0  0  0  0  0  0  0  0  0  0  0  0
    9.8564   40.0150   20.1607 N   0  0  0  0  0  0  0  0  0  0  0  0
   11.9344   39.5038   20.8469 O   0  0  0  0  0  0  0  0  0  0  0  0
   10.0004   41.3826   15.4090 O   0  0  0  0  0  0  0  0  0  0  0  0
   11.0998   42.8994   16.5415 O   0  0  0  0  0  0  0  0  0  0  0  0
   10.3101   40.1242   18.1258 H   0  0  0  0  0  0  0  0  0  0  0  0
   11.4571   40.9748   19.2607 H   0  0  0  0  0  0  0  0  0  0  0  0
   11.9024   37.2955   22.5532 H   0  0  0  0  0  0  0  0  0  0  0  0
   11.2693   36.8186   20.9431 H   0  0  0  0  0  0  0  0  0  0  0  0
    9.1564   36.3216   22.7366 H   0  0  0  0  0  0  0  0  0  0  0  0
   10.2890   35.1103   21.9495 H   0  0  0  0  0  0  0  0  0  0  0  0
   11.5439   34.8339   23.8454 H   0  0  0  0  0  0  0  0  0  0  0  0
   11.0763   36.4103   24.5422 H   0  0  0  0  0  0  0  0  0  0  0  0
    8.8925   35.6330   25.1210 H   0  0  0  0  0  0  0  0  0  0  0  0
    9.0157   34.2170   24.0230 H   0  0  0  0  0  0  0  0  0  0  0  0
    9.6718   33.0346   25.8363 H   0  0  0  0  0  0  0  0  0  0  0  0
   11.2185   33.9344   25.7393 H   0  0  0  0  0  0  0  0  0  0  0  0
    9.1098   35.5548   26.9868 H   0  0  0  0  0  0  0  0  0  0  0  0
    9.3538   33.9880   27.8535 H   0  0  0  0  0  0  0  0  0  0  0  0
   11.7424   35.6559   27.0456 H   0  0  0  0  0  0  0  0  0  0  0  0
   10.8122   36.0893   28.5084 H   0  0  0  0  0  0  0  0  0  0  0  0
   11.6326   34.3117   29.6543 H   0  0  0  0  0  0  0  0  0  0  0  0
   11.2562   33.1874   28.3049 H   0  0  0  0  0  0  0  0  0  0  0  0
   12.8002   34.1054   28.3049 H   0  0  0  0  0  0  0  0  0  0  0  0
    8.9512   42.2447   19.5583 H   0  0  0  0  0  0  0  0  0  0  0  0
   10.4424   42.8883   18.7884 H   0  0  0  0  0  0  0  0  0  0  0  0
    8.4522   41.1019   17.2920 H   0  0  0  0  0  0  0  0  0  0  0  0
    8.2993   42.8642   17.2974 H   0  0  0  0  0  0  0  0  0  0  0  0
    9.1091   38.1093   21.6333 H   0  0  0  0  0  0  0  0  0  0  0  0
   10.1245   38.8323   22.9290 H   0  0  0  0  0  0  0  0  0  0  0  0
    8.8453   40.0130   20.3567 H   0  0  0  0  0  0  0  0  0  0  0  0
  1 10  1  0
  1 15  1  0
  2  3  1  0
  2 14  1  0
  3  4  1  0
  4  5  1  0
  5  6  1  0
  6  7  1  0
  7  8  1  0
  8  9  1  0
 10 11  1  0
 11 12  1  0
 12 17  2  0
 12 18  1  0
 13 14  1  0
 13 15  1  0
 13 16  2  0
  1 19  1  0
  1 20  1  0
  2 21  1  0
  2 22  1  0
  3 23  1  0
  3 24  1  0
  4 25  1  0
  4 26  1  0
  5 27  1  0
  5 28  1  0
  6 29  1  0
  6 30  1  0
  7 31  1  0
  7 32  1  0
  8 33  1  0
  8 34  1  0
  9 35  1  0
  9 36  1  0
  9 37  1  0
 10 38  1  0
 10 39  1  0
 11 40  1  0
 11 41  1  0
 14 42  1  0
 14 43  1  0
 15 44  1  0
M  CHG  1  18  -1
M  END
>  <filename_input>  (9) 
7L5F_XNG_docked.sdf

>  <pdb_id>  (9) 
7L5F_XNG

>  <pose_rank>  (9) 
8

>  <num_atoms_heavy>  (9) 
18

>  <num_torsions>  (9) 
12

>  <pose>  (9) 
[10.713282118591586, 39.34670925942599, 20.934787693128644, -2.151716816857424, -1.005884141604584, -0.05120428249705581, 0.6671323355422712, 2.4476696580219515, -0.5052573308038681, -2.7622814659586807, 1.0278683754287197, -3.5324598354353087, -3.7237176733008353, -0.8629058961123708, -0.06226493343982396, -5.300877574213948, 1.9439830601941528, -2.3592830856943743]

>  <energy>  (9) 
-488.3413884855006

>  <inter_energy>  (9) 
-488.3001316489513

>  <intra_energy>  (9) 
1.7478300193963552

>  <rmsd>  (9) 
9.54383

>  <sdf_rank>  (9) 
0

$$$$

     RDKit          3D

 44 43  0  0  0  0  0  0  0  0999 V2000
   10.6034   35.0140   27.7615 C   0  0  0  0  0  0  0  0  0  0  0  0
   10.5760   35.2159   23.4744 C   0  0  0  0  0  0  0  0  0  0  0  0
   10.9189   35.5757   22.0360 C   0  0  0  0  0  0  0  0  0  0  0  0
    9.9653   36.5629   21.3865 C   0  0  0  0  0  0  0  0  0  0  0  0
   10.0793   37.8849   22.1279 C   0  0  0  0  0  0  0  0  0  0  0  0
    9.5504   39.0018   21.2517 C   0  0  0  0  0  0  0  0  0  0  0  0
   10.5305   39.2372   20.1063 C   0  0  0  0  0  0  0  0  0  0  0  0
   10.3025   40.5914   19.4693 C   0  0  0  0  0  0  0  0  0  0  0  0
    8.8523   40.6771   19.0488 C   0  0  0  0  0  0  0  0  0  0  0  0
   11.5422   34.5182   28.8515 C   0  0  0  0  0  0  0  0  0  0  0  0
   11.2454   35.2509   30.1553 C   0  0  0  0  0  0  0  0  0  0  0  0
   12.3682   36.2523   30.3262 C   0  0  0  0  0  0  0  0  0  0  0  0
   11.7358   35.2259   25.6699 C   0  0  0  0  0  0  0  0  0  0  0  0
   11.8552   34.8352   24.2167 C   0  0  0  0  0  0  0  0  0  0  0  0
   10.9321   34.4907   26.4402 N   0  0  0  0  0  0  0  0  0  0  0  0
   12.3586   36.1957   26.1116 O   0  0  0  0  0  0  0  0  0  0  0  0
   13.0387   36.1226   31.3538 O   0  0  0  0  0  0  0  0  0  0  0  0
   12.5953   37.1317   29.4624 O   0  0  0  0  0  0  0  0  0  0  0  0
    9.5786   34.7051   28.0152 H   0  0  0  0  0  0  0  0  0  0  0  0
   10.7046   36.1084   27.7149 H   0  0  0  0  0  0  0  0  0  0  0  0
   10.1079   36.0804   23.9680 H   0  0  0  0  0  0  0  0  0  0  0  0
    9.8762   34.3673   23.4858 H   0  0  0  0  0  0  0  0  0  0  0  0
   11.9277   36.0141   22.0231 H   0  0  0  0  0  0  0  0  0  0  0  0
   10.8458   34.6440   21.4558 H   0  0  0  0  0  0  0  0  0  0  0  0
   10.2362   36.7032   20.3297 H   0  0  0  0  0  0  0  0  0  0  0  0
    8.9332   36.1854   21.4358 H   0  0  0  0  0  0  0  0  0  0  0  0
    9.4908   37.8368   23.0560 H   0  0  0  0  0  0  0  0  0  0  0  0
   11.1341   38.0786   22.3725 H   0  0  0  0  0  0  0  0  0  0  0  0
    8.5683   38.7188   20.8451 H   0  0  0  0  0  0  0  0  0  0  0  0
    9.4424   39.9218   21.8450 H   0  0  0  0  0  0  0  0  0  0  0  0
   11.5580   39.1912   20.4963 H   0  0  0  0  0  0  0  0  0  0  0  0
   10.3734   38.4597   19.3442 H   0  0  0  0  0  0  0  0  0  0  0  0
   10.5275   41.3869   20.1950 H   0  0  0  0  0  0  0  0  0  0  0  0
   10.9596   40.7163   18.5961 H   0  0  0  0  0  0  0  0  0  0  0  0
    8.2128   40.7148   19.9430 H   0  0  0  0  0  0  0  0  0  0  0  0
    8.6976   41.5859   18.4487 H   0  0  0  0  0  0  0  0  0  0  0  0
    8.5917   39.7927   18.4487 H   0  0  0  0  0  0  0  0  0  0  0  0
   11.3956   33.4378   28.9972 H   0  0  0  0  0  0  0  0  0  0  0  0
   12.5830   34.7118   28.5527 H   0  0  0  0  0  0  0  0  0  0  0  0
   10.2764   35.7677   30.0930 H   0  0  0  0  0  0  0  0  0  0  0  0
   11.1865   34.5571   31.0069 H   0  0  0  0  0  0  0  0  0  0  0  0
   12.0118   33.7489   24.1419 H   0  0  0  0  0  0  0  0  0  0  0  0
   12.7086   35.3634   23.7665 H   0  0  0  0  0  0  0  0  0  0  0  0
   10.5580   33.5880   26.1144 H   0  0  0  0  0  0  0  0  0  0  0  0
  1 10  1  0
  1 15  1  0
  2  3  1  0
  2 14  1  0
  3  4  1  0
  4  5  1  0
  5  6  1  0
  6  7  1  0
  7  8  1  0
  8  9  1  0
 10 11  1  0
 11 12  1  0
 12 17  2  0
 12 18  1  0
 13 14  1  0
 13 15  1  0
 13 16  2  0
  1 19  1  0
  1 20  1  0
  2 21  1  0
  2 22  1  0
  3 23  1  0
  3 24  1  0
  4 25  1  0
  4 26  1  0
  5 27  1  0
  5 28  1  0
  6 29  1  0
  6 30  1  0
  7 31  1  0
  7 32  1  0
  8 33  1  0
  8 34  1  0
  9 35  1  0
  9 36  1  0
  9 37  1  0
 10 38  1  0
 10 39  1  0
 11 40  1  0
 11 41  1  0
 14 42  1  0
 14 43  1  0
 15 44  1  0
M  CHG  1  18  -1
M  END
>  <filename_input>  (10) 
7L5F_XNG_docked.sdf

>  <pdb_id>  (10) 
7L5F_XNG

>  <pose_rank>  (10) 
9

>  <num_atoms_heavy>  (10) 
18

>  <num_torsions>  (10) 
12

>  <pose>  (10) 
[11.735814200866086, 35.2258978341409, 25.66991632472207, -1.9188514305717308, 4.862298271771025, -2.227571270940102, 1.5359772678940997, 1.2022308779460773, -1.0694340087448913, 5.277709827696967, -0.12586018162168108, 1.8889181711761802, 1.8503221429659258, -2.4823615449758885, -0.09419793658423349, 4.145741240304936, 1.051408288290015, -1.872416821750032]

>  <energy>  (10) 
-520.4948751143226

>  <inter_energy>  (10) 
-523.5188499551924

>  <intra_energy>  (10) 
4.053513595467468

>  <rmsd>  (10) 
2.34268

>  <sdf_rank>  (10) 
0

$$$$

     RDKit          3D

 44 43  0  0  0  0  0  0  0  0999 V2000
    9.8975   37.0591   21.8747 C   0  0  0  0  0  0  0  0  0  0  0  0
   10.0208   35.1409   25.4944 C   0  0  0  0  0  0  0  0  0  0  0  0
   10.5611   34.8949   26.8957 C   0  0  0  0  0  0  0  0  0  0  0  0
   11.2801   36.0812   27.5134 C   0  0  0  0  0  0  0  0  0  0  0  0
   11.1133   35.9995   29.0219 C   0  0  0  0  0  0  0  0  0  0  0  0
   12.3990   36.4328   29.6958 C   0  0  0  0  0  0  0  0  0  0  0  0
   12.3692   35.9816   31.1531 C   0  0  0  0  0  0  0  0  0  0  0  0
   10.9632   36.0463   31.7103 C   0  0  0  0  0  0  0  0  0  0  0  0
   11.0344   36.6273   33.1048 C   0  0  0  0  0  0  0  0  0  0  0  0
    9.4519   38.5090   21.9958 C   0  0  0  0  0  0  0  0  0  0  0  0
   10.5219   39.4241   21.4106 C   0  0  0  0  0  0  0  0  0  0  0  0
    9.9322   39.9756   20.1297 C   0  0  0  0  0  0  0  0  0  0  0  0
   10.9844   35.4147   23.2224 C   0  0  0  0  0  0  0  0  0  0  0  0
   10.9969   34.5655   24.4704 C   0  0  0  0  0  0  0  0  0  0  0  0
   10.1000   36.4119   23.1661 N   0  0  0  0  0  0  0  0  0  0  0  0
   11.7639   35.1780   22.2951 O   0  0  0  0  0  0  0  0  0  0  0  0
   10.3225   39.4326   19.0928 O   0  0  0  0  0  0  0  0  0  0  0  0
    9.0930   40.9065   20.1455 O   0  0  0  0  0  0  0  0  0  0  0  0
    9.1277   36.5017   21.3208 H   0  0  0  0  0  0  0  0  0  0  0  0
   10.8651   37.0564   21.3516 H   0  0  0  0  0  0  0  0  0  0  0  0
    9.0424   34.6498   25.3861 H   0  0  0  0  0  0  0  0  0  0  0  0
    9.9058   36.2221   25.3277 H   0  0  0  0  0  0  0  0  0  0  0  0
    9.7159   34.6287   27.5475 H   0  0  0  0  0  0  0  0  0  0  0  0
   11.3066   34.0911   26.8057 H   0  0  0  0  0  0  0  0  0  0  0  0
   12.3485   36.0465   27.2537 H   0  0  0  0  0  0  0  0  0  0  0  0
   10.8583   37.0233   27.1332 H   0  0  0  0  0  0  0  0  0  0  0  0
   10.2931   36.6616   29.3366 H   0  0  0  0  0  0  0  0  0  0  0  0
   10.8791   34.9639   29.3096 H   0  0  0  0  0  0  0  0  0  0  0  0
   13.2573   35.9726   29.1843 H   0  0  0  0  0  0  0  0  0  0  0  0
   12.4954   37.5274   29.6463 H   0  0  0  0  0  0  0  0  0  0  0  0
   12.7345   34.9461   31.2170 H   0  0  0  0  0  0  0  0  0  0  0  0
   13.0116   36.6530   31.7419 H   0  0  0  0  0  0  0  0  0  0  0  0
   10.3384   36.6875   31.0712 H   0  0  0  0  0  0  0  0  0  0  0  0
   10.5192   35.0403   31.7397 H   0  0  0  0  0  0  0  0  0  0  0  0
   10.9353   35.8189   33.8443 H   0  0  0  0  0  0  0  0  0  0  0  0
   12.0013   37.1334   33.2422 H   0  0  0  0  0  0  0  0  0  0  0  0
   10.2184   37.3520   33.2422 H   0  0  0  0  0  0  0  0  0  0  0  0
    8.5096   38.6494   21.4461 H   0  0  0  0  0  0  0  0  0  0  0  0
    9.3001   38.7567   23.0568 H   0  0  0  0  0  0  0  0  0  0  0  0
   10.7522   40.2413   22.1100 H   0  0  0  0  0  0  0  0  0  0  0  0
   11.4620   38.8837   21.2255 H   0  0  0  0  0  0  0  0  0  0  0  0
   12.0109   34.5568   24.8965 H   0  0  0  0  0  0  0  0  0  0  0  0
   10.6944   33.5391   24.2155 H   0  0  0  0  0  0  0  0  0  0  0  0
    9.5800   36.7133   24.0026 H   0  0  0  0  0  0  0  0  0  0  0  0
  1 10  1  0
  1 15  1  0
  2  3  1  0
  2 14  1  0
  3  4  1  0
  4  5  1  0
  5  6  1  0
  6  7  1  0
  7  8  1  0
  8  9  1  0
 10 11  1  0
 11 12  1  0
 12 17  2  0
 12 18  1  0
 13 14  1  0
 13 15  1  0
 13 16  2  0
  1 19  1  0
  1 20  1  0
  2 21  1  0
  2 22  1  0
  3 23  1  0
  3 24  1  0
  4 25  1  0
  4 26  1  0
  5 27  1  0
  5 28  1  0
  6 29  1  0
  6 30  1  0
  7 31  1  0
  7 32  1  0
  8 33  1  0
  8 34  1  0
  9 35  1  0
  9 36  1  0
  9 37  1  0
 10 38  1  0
 10 39  1  0
 11 40  1  0
 11 41  1  0
 14 42  1  0
 14 43  1  0
 15 44  1  0
M  CHG  1  18  -1
M  END
>  <filename_input>  (11) 
7L5F_XNG_docked.sdf

>  <pdb_id>  (11) 
7L5F_XNG

>  <pose_rank>  (11) 
10

>  <num_atoms_heavy>  (11) 
18

>  <num_torsions>  (11) 
12

>  <pose>  (11) 
[10.98440334571745, 35.414682834142084, 23.222388670527682, 3.9712702629606915, 0.3173038147371704, -1.1303095379054677, 6.782984535313721, -6.071973723531019, 8.954881942539615, -0.665563541994317, 4.793424779447088, 47.005310653911124, 6.22489745205042, -0.982115743526349, -6.69870533221937, 2.5188587232867747, 3.2736886897067974, 2.9688445934744765]

>  <energy>  (11) 
-511.146384432535

>  <inter_energy>  (11) 
-509.84135407495336

>  <intra_energy>  (11) 
0.0

>  <rmsd>  (11) 
8.46653

>  <sdf_rank>  (11) 
0

$$$$

     RDKit          3D

 44 43  0  0  0  0  0  0  0  0999 V2000
   10.8849   33.5748   24.9275 C   0  0  0  0  0  0  0  0  0  0  0  0
    8.3842   36.0817   22.1235 C   0  0  0  0  0  0  0  0  0  0  0  0
    8.1853   37.5810   21.9541 C   0  0  0  0  0  0  0  0  0  0  0  0
    9.3157   38.2909   21.2303 C   0  0  0  0  0  0  0  0  0  0  0  0
   10.5274   38.3039   22.1478 C   0  0  0  0  0  0  0  0  0  0  0  0
   11.7208   38.8617   21.3996 C   0  0  0  0  0  0  0  0  0  0  0  0
   12.9991   38.3794   22.0787 C   0  0  0  0  0  0  0  0  0  0  0  0
   12.8191   36.9860   22.6423 C   0  0  0  0  0  0  0  0  0  0  0  0
   13.7461   36.0521   21.8968 C   0  0  0  0  0  0  0  0  0  0  0  0
   11.5889   33.5789   26.2765 C   0  0  0  0  0  0  0  0  0  0  0  0
   10.7943   34.4238   27.2662 C   0  0  0  0  0  0  0  0  0  0  0  0
   11.5668   34.3641   28.5672 C   0  0  0  0  0  0  0  0  0  0  0  0
    8.9041   34.4843   23.9521 C   0  0  0  0  0  0  0  0  0  0  0  0
    8.0868   35.6948   23.5707 C   0  0  0  0  0  0  0  0  0  0  0  0
    9.9402   34.6751   24.7707 N   0  0  0  0  0  0  0  0  0  0  0  0
    8.6166   33.3687   23.5092 O   0  0  0  0  0  0  0  0  0  0  0  0
   12.0174   35.4423   28.9629 O   0  0  0  0  0  0  0  0  0  0  0  0
   11.7101   33.2870   29.1921 O   0  0  0  0  0  0  0  0  0  0  0  0
   11.6449   33.6506   24.1359 H   0  0  0  0  0  0  0  0  0  0  0  0
   10.3114   32.6385   24.8602 H   0  0  0  0  0  0  0  0  0  0  0  0
    7.7013   35.5419   21.4509 H   0  0  0  0  0  0  0  0  0  0  0  0
    9.4229   35.8169   21.8767 H   0  0  0  0  0  0  0  0  0  0  0  0
    7.2584   37.7418   21.3840 H   0  0  0  0  0  0  0  0  0  0  0  0
    8.1481   38.0069   22.9676 H   0  0  0  0  0  0  0  0  0  0  0  0
    9.5577   37.7556   20.3003 H   0  0  0  0  0  0  0  0  0  0  0  0
    9.0193   39.3190   20.9750 H   0  0  0  0  0  0  0  0  0  0  0  0
   10.3169   38.9340   23.0245 H   0  0  0  0  0  0  0  0  0  0  0  0
   10.7484   37.2782   22.4783 H   0  0  0  0  0  0  0  0  0  0  0  0
   11.7008   38.5098   20.3576 H   0  0  0  0  0  0  0  0  0  0  0  0
   11.6858   39.9612   21.4086 H   0  0  0  0  0  0  0  0  0  0  0  0
   13.8157   38.3671   21.3418 H   0  0  0  0  0  0  0  0  0  0  0  0
   13.2376   39.0646   22.9055 H   0  0  0  0  0  0  0  0  0  0  0  0
   13.0692   36.9824   23.7135 H   0  0  0  0  0  0  0  0  0  0  0  0
   11.7753   36.6600   22.5241 H   0  0  0  0  0  0  0  0  0  0  0  0
   14.3309   35.4628   22.6184 H   0  0  0  0  0  0  0  0  0  0  0  0
   13.1533   35.3744   21.2649 H   0  0  0  0  0  0  0  0  0  0  0  0
   14.4282   36.6397   21.2649 H   0  0  0  0  0  0  0  0  0  0  0  0
   11.6643   32.5481   26.6531 H   0  0  0  0  0  0  0  0  0  0  0  0
   12.5970   34.0036   26.1608 H   0  0  0  0  0  0  0  0  0  0  0  0
   10.7202   35.4623   26.9113 H   0  0  0  0  0  0  0  0  0  0  0  0
    9.7667   34.0501   27.3863 H   0  0  0  0  0  0  0  0  0  0  0  0
    8.3446   36.5337   24.2338 H   0  0  0  0  0  0  0  0  0  0  0  0
    7.0173   35.4588   23.6723 H   0  0  0  0  0  0  0  0  0  0  0  0
   10.0681   35.5653   25.2728 H   0  0  0  0  0  0  0  0  0  0  0  0
  1 10  1  0
  1 15  1  0
  2  3  1  0
  2 14  1  0
  3  4  1  0
  4  5  1  0
  5  6  1  0
  6  7  1  0
  7  8  1  0
  8  9  1  0
 10 11  1  0
 11 12  1  0
 12 17  2  0
 12 18  1  0
 13 14  1  0
 13 15  1  0
 13 16  2  0
  1 19  1  0
  1 20  1  0
  2 21  1  0
  2 22  1  0
  3 23  1  0
  3 24  1  0
  4 25  1  0
  4 26  1  0
  5 27  1  0
  5 28  1  0
  6 29  1  0
  6 30  1  0
  7 31  1  0
  7 32  1  0
  8 33  1  0
  8 34  1  0
  9 35  1  0
  9 36  1  0
  9 37  1  0
 10 38  1  0
 10 39  1  0
 11 40  1  0
 11 41  1  0
 14 42  1  0
 14 43  1  0
 15 44  1  0
M  CHG  1  18  -1
M  END
>  <filename_input>  (12) 
7L5F_XNG_docked.sdf

>  <pdb_id>  (12) 
7L5F_XNG

>  <pose_rank>  (12) 
11

>  <num_atoms_heavy>  (12) 
18

>  <num_torsions>  (12) 
12

>  <pose>  (12) 
[8.904136745112288, 34.4843352300744, 23.952107522620633, -0.8916496603946524, 0.8636827686446266, -2.043970200548994, 0.49804568960462914, -1.473345742573286, 10.182981634869334, 3.1270471811964042, -5.82560501922177, 9.232556317790015, -5.751778324397107, -4.840408977244886, 6.424094637111397, -3.654002562475055, 4.471300529097659, 1.0969179874816997]

>  <energy>  (12) 
-510.3264948558481

>  <inter_energy>  (12) 
-497.9189469088581

>  <intra_energy>  (12) 
0.0

>  <rmsd>  (12) 
3.08691

>  <sdf_rank>  (12) 
0

$$$$

     RDKit          3D

 44 43  0  0  0  0  0  0  0  0999 V2000
   11.8849   38.1502   22.8447 C   0  0  0  0  0  0  0  0  0  0  0  0
   10.1836   34.5335   25.1837 C   0  0  0  0  0  0  0  0  0  0  0  0
    8.6648   34.4364   25.1686 C   0  0  0  0  0  0  0  0  0  0  0  0
    8.0215   34.7954   23.8409 C   0  0  0  0  0  0  0  0  0  0  0  0
    6.5975   34.2639   23.8487 C   0  0  0  0  0  0  0  0  0  0  0  0
    6.3149   33.5591   22.5378 C   0  0  0  0  0  0  0  0  0  0  0  0
    7.5862   33.5573   21.6940 C   0  0  0  0  0  0  0  0  0  0  0  0
    7.7461   32.2429   20.9604 C   0  0  0  0  0  0  0  0  0  0  0  0
    9.2045   31.8463   21.0150 C   0  0  0  0  0  0  0  0  0  0  0  0
   11.5143   38.8278   21.5337 C   0  0  0  0  0  0  0  0  0  0  0  0
   10.0248   39.1536   21.5287 C   0  0  0  0  0  0  0  0  0  0  0  0
    9.7683   39.8741   20.2218 C   0  0  0  0  0  0  0  0  0  0  0  0
   11.5602   35.9293   23.6599 C   0  0  0  0  0  0  0  0  0  0  0  0
   10.6917   34.6982   23.7529 C   0  0  0  0  0  0  0  0  0  0  0  0
   10.9985   37.0439   23.1886 N   0  0  0  0  0  0  0  0  0  0  0  0
   12.7450   35.8882   24.0035 O   0  0  0  0  0  0  0  0  0  0  0  0
    8.9352   39.3440   19.4822 O   0  0  0  0  0  0  0  0  0  0  0  0
   10.3580   40.9434   19.9396 O   0  0  0  0  0  0  0  0  0  0  0  0
   12.9111   37.7632   22.7608 H   0  0  0  0  0  0  0  0  0  0  0  0
   11.7921   38.9038   23.6406 H   0  0  0  0  0  0  0  0  0  0  0  0
   10.4905   35.4019   25.7851 H   0  0  0  0  0  0  0  0  0  0  0  0
   10.6075   33.6184   25.6229 H   0  0  0  0  0  0  0  0  0  0  0  0
    8.3847   33.4021   25.4170 H   0  0  0  0  0  0  0  0  0  0  0  0
    8.2983   35.1706   25.9012 H   0  0  0  0  0  0  0  0  0  0  0  0
    8.0111   35.8881   23.7146 H   0  0  0  0  0  0  0  0  0  0  0  0
    8.5895   34.3527   23.0094 H   0  0  0  0  0  0  0  0  0  0  0  0
    6.4755   33.5543   24.6804 H   0  0  0  0  0  0  0  0  0  0  0  0
    5.8943   35.1004   23.9746 H   0  0  0  0  0  0  0  0  0  0  0  0
    6.0013   32.5235   22.7354 H   0  0  0  0  0  0  0  0  0  0  0  0
    5.5107   34.0819   21.9993 H   0  0  0  0  0  0  0  0  0  0  0  0
    7.5324   34.3750   20.9602 H   0  0  0  0  0  0  0  0  0  0  0  0
    8.4503   33.6950   22.3605 H   0  0  0  0  0  0  0  0  0  0  0  0
    7.1314   31.4693   21.4438 H   0  0  0  0  0  0  0  0  0  0  0  0
    7.4198   32.3486   19.9152 H   0  0  0  0  0  0  0  0  0  0  0  0
    9.5220   31.7600   22.0646 H   0  0  0  0  0  0  0  0  0  0  0  0
    9.3405   30.8785   20.5100 H   0  0  0  0  0  0  0  0  0  0  0  0
    9.8118   32.6119   20.5100 H   0  0  0  0  0  0  0  0  0  0  0  0
   12.0927   39.7572   21.4259 H   0  0  0  0  0  0  0  0  0  0  0  0
   11.7430   38.1522   20.6962 H   0  0  0  0  0  0  0  0  0  0  0  0
    9.4298   38.2299   21.5809 H   0  0  0  0  0  0  0  0  0  0  0  0
    9.7407   39.7694   22.3948 H   0  0  0  0  0  0  0  0  0  0  0  0
   11.2804   33.8132   23.4698 H   0  0  0  0  0  0  0  0  0  0  0  0
    9.8344   34.8050   23.0720 H   0  0  0  0  0  0  0  0  0  0  0  0
    9.9780   37.1203   23.0720 H   0  0  0  0  0  0  0  0  0  0  0  0
  1 10  1  0
  1 15  1  0
  2  3  1  0
  2 14  1  0
  3  4  1  0
  4  5  1  0
  5  6  1  0
  6  7  1  0
  7  8  1  0
  8  9  1  0
 10 11  1  0
 11 12  1  0
 12 17  2  0
 12 18  1  0
 13 14  1  0
 13 15  1  0
 13 16  2  0
  1 19  1  0
  1 20  1  0
  2 21  1  0
  2 22  1  0
  3 23  1  0
  3 24  1  0
  4 25  1  0
  4 26  1  0
  5 27  1  0
  5 28  1  0
  6 29  1  0
  6 30  1  0
  7 31  1  0
  7 32  1  0
  8 33  1  0
  8 34  1  0
  9 35  1  0
  9 36  1  0
  9 37  1  0
 10 38  1  0
 10 39  1  0
 11 40  1  0
 11 41  1  0
 14 42  1  0
 14 43  1  0
 15 44  1  0
M  CHG  1  18  -1
M  END
>  <filename_input>  (13) 
7L5F_XNG_docked.sdf

>  <pdb_id>  (13) 
7L5F_XNG

>  <pose_rank>  (13) 
12

>  <num_atoms_heavy>  (13) 
18

>  <num_torsions>  (13) 
12

>  <pose>  (13) 
[11.560247552521998, 35.92930550834845, 23.659870170387762, -1.6784757494173632, -0.9157875679044065, -0.6665790089944981, -0.734084430468699, -0.9458784151846763, -2.423918786769137, -3.0673092466474197, -3.1245669829121665, 1.4904809351327337, -1.9796391651676861, -0.7632735830009801, 1.0571225804487534, -0.8433655065459574, 0.05652358717723511, 2.9389389197027977]

>  <energy>  (13) 
-508.5257559064213

>  <inter_energy>  (13) 
-500.39425140017755

>  <intra_energy>  (13) 
0.2878103854919881

>  <rmsd>  (13) 
6.9751

>  <sdf_rank>  (13) 
0

$$$$

     RDKit          3D

 44 43  0  0  0  0  0  0  0  0999 V2000
    9.5491   33.8597   24.4126 C   0  0  0  0  0  0  0  0  0  0  0  0
    9.9911   38.0482   22.9440 C   0  0  0  0  0  0  0  0  0  0  0  0
    9.7444   38.0138   21.4427 C   0  0  0  0  0  0  0  0  0  0  0  0
    9.5341   39.3758   20.8051 C   0  0  0  0  0  0  0  0  0  0  0  0
   10.7991   39.7403   20.0453 C   0  0  0  0  0  0  0  0  0  0  0  0
   10.7680   41.2129   19.6910 C   0  0  0  0  0  0  0  0  0  0  0  0
   10.1560   41.3740   18.3026 C   0  0  0  0  0  0  0  0  0  0  0  0
   10.6903   42.6132   17.6168 C   0  0  0  0  0  0  0  0  0  0  0  0
   10.8404   42.3093   16.1429 C   0  0  0  0  0  0  0  0  0  0  0  0
    8.2695   33.5686   25.1829 C   0  0  0  0  0  0  0  0  0  0  0  0
    7.2210   34.6250   24.8518 C   0  0  0  0  0  0  0  0  0  0  0  0
    5.9452   33.8600   24.5688 C   0  0  0  0  0  0  0  0  0  0  0  0
   10.6142   35.6672   23.2722 C   0  0  0  0  0  0  0  0  0  0  0  0
   11.1264   37.0870   23.2898 C   0  0  0  0  0  0  0  0  0  0  0  0
    9.8253   35.2857   24.2782 N   0  0  0  0  0  0  0  0  0  0  0  0
   10.9284   34.8985   22.3590 O   0  0  0  0  0  0  0  0  0  0  0  0
    5.2025   33.6955   25.5401 O   0  0  0  0  0  0  0  0  0  0  0  0
    5.6732   33.4482   23.4166 O   0  0  0  0  0  0  0  0  0  0  0  0
   10.3907   33.3886   24.9415 H   0  0  0  0  0  0  0  0  0  0  0  0
    9.4203   33.4539   23.3984 H   0  0  0  0  0  0  0  0  0  0  0  0
   10.2678   39.0686   23.2479 H   0  0  0  0  0  0  0  0  0  0  0  0
    9.0767   37.7457   23.4753 H   0  0  0  0  0  0  0  0  0  0  0  0
   10.6139   37.5409   20.9628 H   0  0  0  0  0  0  0  0  0  0  0  0
    8.8105   37.4521   21.2931 H   0  0  0  0  0  0  0  0  0  0  0  0
    8.6810   39.3355   20.1118 H   0  0  0  0  0  0  0  0  0  0  0  0
    9.3219   40.1300   21.5772 H   0  0  0  0  0  0  0  0  0  0  0  0
   11.6773   39.5328   20.6743 H   0  0  0  0  0  0  0  0  0  0  0  0
   10.8588   39.1424   19.1239 H   0  0  0  0  0  0  0  0  0  0  0  0
   10.1598   41.7574   20.4282 H   0  0  0  0  0  0  0  0  0  0  0  0
   11.7901   41.6195   19.6973 H   0  0  0  0  0  0  0  0  0  0  0  0
   10.4038   40.4911   17.6952 H   0  0  0  0  0  0  0  0  0  0  0  0
    9.0657   41.4738   18.4089 H   0  0  0  0  0  0  0  0  0  0  0  0
    9.9875   43.4479   17.7553 H   0  0  0  0  0  0  0  0  0  0  0  0
   11.6620   42.8969   18.0473 H   0  0  0  0  0  0  0  0  0  0  0  0
   11.3242   41.3293   16.0180 H   0  0  0  0  0  0  0  0  0  0  0  0
    9.8477   42.2911   15.6693 H   0  0  0  0  0  0  0  0  0  0  0  0
   11.4584   43.0863   15.6693 H   0  0  0  0  0  0  0  0  0  0  0  0
    7.8903   32.5754   24.9006 H   0  0  0  0  0  0  0  0  0  0  0  0
    8.4805   33.5894   26.2623 H   0  0  0  0  0  0  0  0  0  0  0  0
    7.0793   35.3054   25.7044 H   0  0  0  0  0  0  0  0  0  0  0  0
    7.5234   35.2426   23.9933 H   0  0  0  0  0  0  0  0  0  0  0  0
   11.9337   37.1936   22.5503 H   0  0  0  0  0  0  0  0  0  0  0  0
   11.5108   37.3232   24.2930 H   0  0  0  0  0  0  0  0  0  0  0  0
    9.4266   35.9718   24.9348 H   0  0  0  0  0  0  0  0  0  0  0  0
  1 10  1  0
  1 15  1  0
  2  3  1  0
  2 14  1  0
  3  4  1  0
  4  5  1  0
  5  6  1  0
  6  7  1  0
  7  8  1  0
  8  9  1  0
 10 11  1  0
 11 12  1  0
 12 17  2  0
 12 18  1  0
 13 14  1  0
 13 15  1  0
 13 16  2  0
  1 19  1  0
  1 20  1  0
  2 21  1  0
  2 22  1  0
  3 23  1  0
  3 24  1  0
  4 25  1  0
  4 26  1  0
  5 27  1  0
  5 28  1  0
  6 29  1  0
  6 30  1  0
  7 31  1  0
  7 32  1  0
  8 33  1  0
  8 34  1  0
  9 35  1  0
  9 36  1  0
  9 37  1  0
 10 38  1  0
 10 39  1  0
 11 40  1  0
 11 41  1  0
 14 42  1  0
 14 43  1  0
 15 44  1  0
M  CHG  1  18  -1
M  END
>  <filename_input>  (14) 
7L5F_XNG_docked.sdf

>  <pdb_id>  (14) 
7L5F_XNG

>  <pose_rank>  (14) 
13

>  <num_atoms_heavy>  (14) 
18

>  <num_torsions>  (14) 
12

>  <pose>  (14) 
[10.61420115236821, 35.667150134856975, 23.27221232040547, -1.7715155078652944, -0.8937276421397093, 3.261897993603235, -5.87141671248808, -1.1777458793815503, 3.083491637092644, -3.575977377627518, -8.960240035685295, -2.0427536672381144, 2.118547154045343, -1.7814096367156609, 0.4988585900741352, -2.5135840708669828, 1.2272290956011933, 1.5925912626311753]

>  <energy>  (14) 
-440.3025345412935

>  <inter_energy>  (14) 
-447.5641617522751

>  <intra_energy>  (14) 
0.6187530538206683

>  <rmsd>  (14) 
4.24996

>  <sdf_rank>  (14) 
0

$$$$

     RDKit          3D

 44 43  0  0  0  0  0  0  0  0999 V2000
   12.2647   35.1506   26.1233 C   0  0  0  0  0  0  0  0  0  0  0  0
    9.4330   33.8913   23.1110 C   0  0  0  0  0  0  0  0  0  0  0  0
    8.1646   33.6214   23.9075 C   0  0  0  0  0  0  0  0  0  0  0  0
    7.0412   34.6134   23.6628 C   0  0  0  0  0  0  0  0  0  0  0  0
    6.0244   33.9559   22.7441 C   0  0  0  0  0  0  0  0  0  0  0  0
    4.6977   33.8339   23.4652 C   0  0  0  0  0  0  0  0  0  0  0  0
    4.2922   35.2083   23.9892 C   0  0  0  0  0  0  0  0  0  0  0  0
    3.7139   35.1058   25.3844 C   0  0  0  0  0  0  0  0  0  0  0  0
    3.6296   33.6418   25.7541 C   0  0  0  0  0  0  0  0  0  0  0  0
   11.8219   35.7143   27.4655 C   0  0  0  0  0  0  0  0  0  0  0  0
   10.6234   34.9257   27.9818 C   0  0  0  0  0  0  0  0  0  0  0  0
   11.1965   33.8605   28.8926 C   0  0  0  0  0  0  0  0  0  0  0  0
   11.1021   35.4649   24.0614 C   0  0  0  0  0  0  0  0  0  0  0  0
    9.8227   35.3597   23.2672 C   0  0  0  0  0  0  0  0  0  0  0  0
   11.1492   34.8367   25.2374 N   0  0  0  0  0  0  0  0  0  0  0  0
   12.0565   36.1173   23.6291 O   0  0  0  0  0  0  0  0  0  0  0  0
   10.4604   33.5049   29.8167 O   0  0  0  0  0  0  0  0  0  0  0  0
   12.3340   33.3737   28.6922 O   0  0  0  0  0  0  0  0  0  0  0  0
   12.9075   35.8925   25.6271 H   0  0  0  0  0  0  0  0  0  0  0  0
   12.7989   34.2100   26.3232 H   0  0  0  0  0  0  0  0  0  0  0  0
   10.2461   33.2530   23.4871 H   0  0  0  0  0  0  0  0  0  0  0  0
    9.2563   33.6673   22.0486 H   0  0  0  0  0  0  0  0  0  0  0  0
    7.8000   32.6180   23.6426 H   0  0  0  0  0  0  0  0  0  0  0  0
    8.4373   33.7151   24.9691 H   0  0  0  0  0  0  0  0  0  0  0  0
    6.5641   34.8797   24.6175 H   0  0  0  0  0  0  0  0  0  0  0  0
    7.4358   35.5306   23.2012 H   0  0  0  0  0  0  0  0  0  0  0  0
    5.8956   34.5699   21.8405 H   0  0  0  0  0  0  0  0  0  0  0  0
    6.3806   32.9549   22.4592 H   0  0  0  0  0  0  0  0  0  0  0  0
    3.9314   33.4634   22.7685 H   0  0  0  0  0  0  0  0  0  0  0  0
    4.7927   33.1283   24.3037 H   0  0  0  0  0  0  0  0  0  0  0  0
    5.1779   35.8601   24.0135 H   0  0  0  0  0  0  0  0  0  0  0  0
    3.5252   35.6267   23.3209 H   0  0  0  0  0  0  0  0  0  0  0  0
    4.3651   35.6330   26.0972 H   0  0  0  0  0  0  0  0  0  0  0  0
    2.7145   35.5642   25.4164 H   0  0  0  0  0  0  0  0  0  0  0  0
    3.6237   33.5399   26.8493 H   0  0  0  0  0  0  0  0  0  0  0  0
    2.7052   33.2119   25.3409 H   0  0  0  0  0  0  0  0  0  0  0  0
    4.4985   33.1086   25.3409 H   0  0  0  0  0  0  0  0  0  0  0  0
   12.6492   35.6363   28.1861 H   0  0  0  0  0  0  0  0  0  0  0  0
   11.5386   36.7700   27.3424 H   0  0  0  0  0  0  0  0  0  0  0  0
    9.9433   35.5842   28.5420 H   0  0  0  0  0  0  0  0  0  0  0  0
   10.0410   34.4861   27.1586 H   0  0  0  0  0  0  0  0  0  0  0  0
    9.9717   35.8061   22.2730 H   0  0  0  0  0  0  0  0  0  0  0  0
    9.0205   35.8951   23.7962 H   0  0  0  0  0  0  0  0  0  0  0  0
   10.4255   34.1560   25.5093 H   0  0  0  0  0  0  0  0  0  0  0  0
  1 10  1  0
  1 15  1  0
  2  3  1  0
  2 14  1  0
  3  4  1  0
  4  5  1  0
  5  6  1  0
  6  7  1  0
  7  8  1  0
  8  9  1  0
 10 11  1  0
 11 12  1  0
 12 17  2  0
 12 18  1  0
 13 14  1  0
 13 15  1  0
 13 16  2  0
  1 19  1  0
  1 20  1  0
  2 21  1  0
  2 22  1  0
  3 23  1  0
  3 24  1  0
  4 25  1  0
  4 26  1  0
  5 27  1  0
  5 28  1  0
  6 29  1  0
  6 30  1  0
  7 31  1  0
  7 32  1  0
  8 33  1  0
  8 34  1  0
  9 35  1  0
  9 36  1  0
  9 37  1  0
 10 38  1  0
 10 39  1  0
 11 40  1  0
 11 41  1  0
 14 42  1  0
 14 43  1  0
 15 44  1  0
M  CHG  1  18  -1
M  END
>  <filename_input>  (15) 
7L5F_XNG_docked.sdf

>  <pdb_id>  (15) 
7L5F_XNG

>  <pose_rank>  (15) 
14

>  <num_atoms_heavy>  (15) 
18

>  <num_torsions>  (15) 
12

>  <pose>  (15) 
[11.102089486834437, 35.46493385156709, 24.061361511627222, 0.23927612145864216, 0.47749283294194356, -0.2417023695921173, -1.0273819548507936, 5.215251970724529, -3.875886674942664, -2.563772029364849, 3.9644829574035434, 1.2562815298293568, -7.201055244739625, -1.8229876449199744, -0.8352089404003428, 0.03898814528078947, 1.4572817151221782, -0.9918429915364114]

>  <energy>  (15) 
-495.428080475552

>  <inter_energy>  (15) 
-493.9840082557079

>  <intra_energy>  (15) 
8.173843446207497

>  <rmsd>  (15) 
5.31296

>  <sdf_rank>  (15) 
0

$$$$

     RDKit          3D

 44 43  0  0  0  0  0  0  0  0999 V2000
    7.5342   36.2319   22.1514 C   0  0  0  0  0  0  0  0  0  0  0  0
    9.2663   33.1045   24.9207 C   0  0  0  0  0  0  0  0  0  0  0  0
   10.5416   33.7797   25.4045 C   0  0  0  0  0  0  0  0  0  0  0  0
   10.3260   35.1082   26.1077 C   0  0  0  0  0  0  0  0  0  0  0  0
   10.1207   34.8296   27.5877 C   0  0  0  0  0  0  0  0  0  0  0  0
   11.4606   34.5586   28.2406 C   0  0  0  0  0  0  0  0  0  0  0  0
   11.3737   34.9281   29.7184 C   0  0  0  0  0  0  0  0  0  0  0  0
   11.6078   36.4101   29.9197 C   0  0  0  0  0  0  0  0  0  0  0  0
   11.4780   36.7121   31.3959 C   0  0  0  0  0  0  0  0  0  0  0  0
    8.4305   37.3725   22.6108 C   0  0  0  0  0  0  0  0  0  0  0  0
    8.5417   38.4144   21.5031 C   0  0  0  0  0  0  0  0  0  0  0  0
   10.0096   38.7788   21.4306 C   0  0  0  0  0  0  0  0  0  0  0  0
    9.0281   34.5254   22.8984 C   0  0  0  0  0  0  0  0  0  0  0  0
    9.2391   33.1152   23.3938 C   0  0  0  0  0  0  0  0  0  0  0  0
    7.7766   34.9868   22.8716 N   0  0  0  0  0  0  0  0  0  0  0  0
    9.9862   35.2100   22.5287 O   0  0  0  0  0  0  0  0  0  0  0  0
   10.3315   39.4822   20.4694 O   0  0  0  0  0  0  0  0  0  0  0  0
   10.8206   38.3977   22.3070 O   0  0  0  0  0  0  0  0  0  0  0  0
    6.4858   36.5269   22.3055 H   0  0  0  0  0  0  0  0  0  0  0  0
    7.7586   36.0458   21.0907 H   0  0  0  0  0  0  0  0  0  0  0  0
    9.2406   32.0657   25.2817 H   0  0  0  0  0  0  0  0  0  0  0  0
    8.3915   33.6465   25.3092 H   0  0  0  0  0  0  0  0  0  0  0  0
   11.0458   33.0983   26.1055 H   0  0  0  0  0  0  0  0  0  0  0  0
   11.1397   33.9956   24.5069 H   0  0  0  0  0  0  0  0  0  0  0  0
   11.2072   35.7516   25.9678 H   0  0  0  0  0  0  0  0  0  0  0  0
    9.4477   35.6226   25.6907 H   0  0  0  0  0  0  0  0  0  0  0  0
    9.6508   35.7030   28.0635 H   0  0  0  0  0  0  0  0  0  0  0  0
    9.4692   33.9516   27.7088 H   0  0  0  0  0  0  0  0  0  0  0  0
   11.7111   33.4921   28.1407 H   0  0  0  0  0  0  0  0  0  0  0  0
   12.2419   35.1589   27.7515 H   0  0  0  0  0  0  0  0  0  0  0  0
   10.3744   34.6668   30.0967 H   0  0  0  0  0  0  0  0  0  0  0  0
   12.1493   34.3724   30.2656 H   0  0  0  0  0  0  0  0  0  0  0  0
   12.6162   36.6785   29.5718 H   0  0  0  0  0  0  0  0  0  0  0  0
   10.8717   36.9926   29.3463 H   0  0  0  0  0  0  0  0  0  0  0  0
   11.8461   35.8552   31.9792 H   0  0  0  0  0  0  0  0  0  0  0  0
   12.0721   37.6049   31.6411 H   0  0  0  0  0  0  0  0  0  0  0  0
   10.4216   36.8960   31.6411 H   0  0  0  0  0  0  0  0  0  0  0  0
    7.9988   37.8381   23.5091 H   0  0  0  0  0  0  0  0  0  0  0  0
    9.4310   36.9794   22.8440 H   0  0  0  0  0  0  0  0  0  0  0  0
    8.2031   37.9934   20.5449 H   0  0  0  0  0  0  0  0  0  0  0  0
    7.9143   39.2943   21.7083 H   0  0  0  0  0  0  0  0  0  0  0  0
   10.1953   32.7315   23.0084 H   0  0  0  0  0  0  0  0  0  0  0  0
    8.4156   32.4777   23.0397 H   0  0  0  0  0  0  0  0  0  0  0  0
    7.0109   34.4831   23.3416 H   0  0  0  0  0  0  0  0  0  0  0  0
  1 10  1  0
  1 15  1  0
  2  3  1  0
  2 14  1  0
  3  4  1  0
  4  5  1  0
  5  6  1  0
  6  7  1  0
  7  8  1  0
  8  9  1  0
 10 11  1  0
 11 12  1  0
 12 17  2  0
 12 18  1  0
 13 14  1  0
 13 15  1  0
 13 16  2  0
  1 19  1  0
  1 20  1  0
  2 21  1  0
  2 22  1  0
  3 23  1  0
  3 24  1  0
  4 25  1  0
  4 26  1  0
  5 27  1  0
  5 28  1  0
  6 29  1  0
  6 30  1  0
  7 31  1  0
  7 32  1  0
  8 33  1  0
  8 34  1  0
  9 35  1  0
  9 36  1  0
  9 37  1  0
 10 38  1  0
 10 39  1  0
 11 40  1  0
 11 41  1  0
 14 42  1  0
 14 43  1  0
 15 44  1  0
M  CHG  1  18  -1
M  END
>  <filename_input>  (16) 
7L5F_XNG_docked.sdf

>  <pdb_id>  (16) 
7L5F_XNG

>  <pose_rank>  (16) 
15

>  <num_atoms_heavy>  (16) 
18

>  <num_torsions>  (16) 
12

>  <pose>  (16) 
[9.0281194842349, 34.5253704319029, 22.898405813274287, 3.6535056957578824, 2.5020688545078236, -0.7717636380295223, 2.2149735140953117, 0.9322490294731013, 4.679453596312441, -2.2070861637538988, -2.8342012668942878, -1.9191616188348417, 0.17136222583398236, -2.059431466050198, -1.5255081760232327, 1.779984970527603, 2.4153947104738114, 2.2064262985076306]

>  <energy>  (16) 
-418.776917427747

>  <inter_energy>  (16) 
-450.41194751083054

>  <intra_energy>  (16) 
32.488788397007184

>  <rmsd>  (16) 
7.57752

>  <sdf_rank>  (16) 
0

$$$$

     RDKit          3D

 44 43  0  0  0  0  0  0  0  0999 V2000
   12.0845   35.1937   26.2645 C   0  0  0  0  0  0  0  0  0  0  0  0
    9.4939   33.2124   23.6205 C   0  0  0  0  0  0  0  0  0  0  0  0
    8.4962   32.7209   22.5816 C   0  0  0  0  0  0  0  0  0  0  0  0
    8.5532   33.4547   21.2534 C   0  0  0  0  0  0  0  0  0  0  0  0
    7.1342   33.8364   20.8651 C   0  0  0  0  0  0  0  0  0  0  0  0
    6.1637   33.2722   21.8825 C   0  0  0  0  0  0  0  0  0  0  0  0
    4.7840   33.8753   21.6364 C   0  0  0  0  0  0  0  0  0  0  0  0
    3.7931   32.8077   21.2244 C   0  0  0  0  0  0  0  0  0  0  0  0
    4.3802   31.4585   21.5741 C   0  0  0  0  0  0  0  0  0  0  0  0
   12.2384   34.4025   27.5551 C   0  0  0  0  0  0  0  0  0  0  0  0
   10.9020   34.3523   28.2875 C   0  0  0  0  0  0  0  0  0  0  0  0
   11.2368   34.4839   29.7583 C   0  0  0  0  0  0  0  0  0  0  0  0
   11.3124   34.8526   24.0308 C   0  0  0  0  0  0  0  0  0  0  0  0
   10.1972   34.4607   23.0919 C   0  0  0  0  0  0  0  0  0  0  0  0
   11.1472   34.5847   25.3272 N   0  0  0  0  0  0  0  0  0  0  0  0
   12.3286   35.4058   23.6010 O   0  0  0  0  0  0  0  0  0  0  0  0
   11.0267   33.4767   30.4392 O   0  0  0  0  0  0  0  0  0  0  0  0
   11.7113   35.5451   30.2271 O   0  0  0  0  0  0  0  0  0  0  0  0
   11.7243   36.2028   26.5136 H   0  0  0  0  0  0  0  0  0  0  0  0
   13.0692   35.2165   25.7748 H   0  0  0  0  0  0  0  0  0  0  0  0
    8.9637   33.4562   24.5530 H   0  0  0  0  0  0  0  0  0  0  0  0
   10.2372   32.4263   23.8193 H   0  0  0  0  0  0  0  0  0  0  0  0
    8.6937   31.6552   22.3935 H   0  0  0  0  0  0  0  0  0  0  0  0
    7.4953   32.9074   22.9980 H   0  0  0  0  0  0  0  0  0  0  0  0
    9.1690   34.3606   21.3538 H   0  0  0  0  0  0  0  0  0  0  0  0
    9.0004   32.8117   20.4810 H   0  0  0  0  0  0  0  0  0  0  0  0
    7.0430   34.9323   20.8398 H   0  0  0  0  0  0  0  0  0  0  0  0
    6.9029   33.4264   19.8709 H   0  0  0  0  0  0  0  0  0  0  0  0
    6.1128   32.1784   21.7774 H   0  0  0  0  0  0  0  0  0  0  0  0
    6.5031   33.5204   22.8990 H   0  0  0  0  0  0  0  0  0  0  0  0
    4.4313   34.3566   22.5605 H   0  0  0  0  0  0  0  0  0  0  0  0
    4.8630   34.6133   20.8245 H   0  0  0  0  0  0  0  0  0  0  0  0
    2.8447   32.9520   21.7627 H   0  0  0  0  0  0  0  0  0  0  0  0
    3.5964   32.8682   20.1438 H   0  0  0  0  0  0  0  0  0  0  0  0
    4.4269   31.3513   22.6678 H   0  0  0  0  0  0  0  0  0  0  0  0
    3.7469   30.6631   21.1544 H   0  0  0  0  0  0  0  0  0  0  0  0
    5.3939   31.3799   21.1544 H   0  0  0  0  0  0  0  0  0  0  0  0
   12.5656   33.3789   27.3200 H   0  0  0  0  0  0  0  0  0  0  0  0
   12.9876   34.8909   28.1955 H   0  0  0  0  0  0  0  0  0  0  0  0
   10.2564   35.1825   27.9651 H   0  0  0  0  0  0  0  0  0  0  0  0
   10.3577   33.4200   28.0764 H   0  0  0  0  0  0  0  0  0  0  0  0
   10.6145   34.2512   22.0959 H   0  0  0  0  0  0  0  0  0  0  0  0
    9.4725   35.2854   23.0228 H   0  0  0  0  0  0  0  0  0  0  0  0
   10.3869   33.9713   25.6539 H   0  0  0  0  0  0  0  0  0  0  0  0
  1 10  1  0
  1 15  1  0
  2  3  1  0
  2 14  1  0
  3  4  1  0
  4  5  1  0
  5  6  1  0
  6  7  1  0
  7  8  1  0
  8  9  1  0
 10 11  1  0
 11 12  1  0
 12 17  2  0
 12 18  1  0
 13 14  1  0
 13 15  1  0
 13 16  2  0
  1 19  1  0
  1 20  1  0
  2 21  1  0
  2 22  1  0
  3 23  1  0
  3 24  1  0
  4 25  1  0
  4 26  1  0
  5 27  1  0
  5 28  1  0
  6 29  1  0
  6 30  1  0
  7 31  1  0
  7 32  1  0
  8 33  1  0
  8 34  1  0
  9 35  1  0
  9 36  1  0
  9 37  1  0
 10 38  1  0
 10 39  1  0
 11 40  1  0
 11 41  1  0
 14 42  1  0
 14 43  1  0
 15 44  1  0
M  CHG  1  18  -1
M  END
>  <filename_input>  (17) 
7L5F_XNG_docked.sdf

>  <pdb_id>  (17) 
7L5F_XNG

>  <pose_rank>  (17) 
16

>  <num_atoms_heavy>  (17) 
18

>  <num_torsions>  (17) 
12

>  <pose>  (17) 
[11.312374904994794, 34.85259504655741, 24.03076778497357, -0.029009260880597815, 0.26275554178913435, -0.25713567928186226, -5.819076742676051, 9.666309452261709, -7.993660228849506, -7.141637181137178, -39.650762452055005, 8.855218934132706, 23.474211054683654, -49.896929795390896, -2.9546657494509616, 8.340324681893911, -0.38681120264107505, 5.65114067864918]

>  <energy>  (17) 
-481.3981141531643

>  <inter_energy>  (17) 
-476.8211622208857

>  <intra_energy>  (17) 
0.3160792249744028

>  <rmsd>  (17) 
5.2172

>  <sdf_rank>  (17) 
0

$$$$

     RDKit          3D

 44 43  0  0  0  0  0  0  0  0999 V2000
   10.1033   38.3250   21.0608 C   0  0  0  0  0  0  0  0  0  0  0  0
   11.6580   35.0416   23.9920 C   0  0  0  0  0  0  0  0  0  0  0  0
   10.4251   34.3050   24.4957 C   0  0  0  0  0  0  0  0  0  0  0  0
    9.7673   33.3984   23.4704 C   0  0  0  0  0  0  0  0  0  0  0  0
    8.4896   32.8464   24.0810 C   0  0  0  0  0  0  0  0  0  0  0  0
    7.6122   32.2764   22.9854 C   0  0  0  0  0  0  0  0  0  0  0  0
    8.1097   30.8781   22.6316 C   0  0  0  0  0  0  0  0  0  0  0  0
    8.5250   30.8038   21.1778 C   0  0  0  0  0  0  0  0  0  0  0  0
    7.7098   31.8141   20.4019 C   0  0  0  0  0  0  0  0  0  0  0  0
   10.7075   39.5570   20.4033 C   0  0  0  0  0  0  0  0  0  0  0  0
    9.6261   40.6132   20.2036 C   0  0  0  0  0  0  0  0  0  0  0  0
    9.9163   41.2463   18.8591 C   0  0  0  0  0  0  0  0  0  0  0  0
   10.4887   36.9992   23.0091 C   0  0  0  0  0  0  0  0  0  0  0  0
   11.4253   36.5469   24.1030 C   0  0  0  0  0  0  0  0  0  0  0  0
   11.0205   37.6563   21.9770 N   0  0  0  0  0  0  0  0  0  0  0  0
    9.2785   36.7687   23.0848 O   0  0  0  0  0  0  0  0  0  0  0  0
   11.0532   41.0543   18.4201 O   0  0  0  0  0  0  0  0  0  0  0  0
    9.0418   41.8997   18.2432 O   0  0  0  0  0  0  0  0  0  0  0  0
    9.2088   38.6314   21.6228 H   0  0  0  0  0  0  0  0  0  0  0  0
    9.8623   37.6110   20.2594 H   0  0  0  0  0  0  0  0  0  0  0  0
   12.5296   34.7584   24.6002 H   0  0  0  0  0  0  0  0  0  0  0  0
   11.8446   34.7735   22.9416 H   0  0  0  0  0  0  0  0  0  0  0  0
   10.7216   33.6895   25.3578 H   0  0  0  0  0  0  0  0  0  0  0  0
    9.6837   35.0764   24.7508 H   0  0  0  0  0  0  0  0  0  0  0  0
    9.5294   33.9726   22.5628 H   0  0  0  0  0  0  0  0  0  0  0  0
   10.4455   32.5767   23.1966 H   0  0  0  0  0  0  0  0  0  0  0  0
    8.7400   32.0529   24.8005 H   0  0  0  0  0  0  0  0  0  0  0  0
    7.9517   33.6541   24.5989 H   0  0  0  0  0  0  0  0  0  0  0  0
    6.5716   32.2200   23.3374 H   0  0  0  0  0  0  0  0  0  0  0  0
    7.6569   32.9238   22.0972 H   0  0  0  0  0  0  0  0  0  0  0  0
    8.9741   30.6322   23.2659 H   0  0  0  0  0  0  0  0  0  0  0  0
    7.2926   30.1613   22.8006 H   0  0  0  0  0  0  0  0  0  0  0  0
    9.5956   31.0379   21.0838 H   0  0  0  0  0  0  0  0  0  0  0  0
    8.3507   29.7916   20.7838 H   0  0  0  0  0  0  0  0  0  0  0  0
    7.1781   32.4732   21.1040 H   0  0  0  0  0  0  0  0  0  0  0  0
    8.3782   32.4160   19.7687 H   0  0  0  0  0  0  0  0  0  0  0  0
    6.9802   31.2881   19.7687 H   0  0  0  0  0  0  0  0  0  0  0  0
   11.5014   39.9633   21.0472 H   0  0  0  0  0  0  0  0  0  0  0  0
   11.1311   39.2791   19.4269 H   0  0  0  0  0  0  0  0  0  0  0  0
    8.6299   40.1467   20.2011 H   0  0  0  0  0  0  0  0  0  0  0  0
    9.6312   41.3580   21.0131 H   0  0  0  0  0  0  0  0  0  0  0  0
   10.9814   36.7770   25.0828 H   0  0  0  0  0  0  0  0  0  0  0  0
   12.3862   37.0725   24.0002 H   0  0  0  0  0  0  0  0  0  0  0  0
   12.0398   37.6902   21.8326 H   0  0  0  0  0  0  0  0  0  0  0  0
  1 10  1  0
  1 15  1  0
  2  3  1  0
  2 14  1  0
  3  4  1  0
  4  5  1  0
  5  6  1  0
  6  7  1  0
  7  8  1  0
  8  9  1  0
 10 11  1  0
 11 12  1  0
 12 17  2  0
 12 18  1  0
 13 14  1  0
 13 15  1  0
 13 16  2  0
  1 19  1  0
  1 20  1  0
  2 21  1  0
  2 22  1  0
  3 23  1  0
  3 24  1  0
  4 25  1  0
  4 26  1  0
  5 27  1  0
  5 28  1  0
  6 29  1  0
  6 30  1  0
  7 31  1  0
  7 32  1  0
  8 33  1  0
  8 34  1  0
  9 35  1  0
  9 36  1  0
  9 37  1  0
 10 38  1  0
 10 39  1  0
 11 40  1  0
 11 41  1  0
 14 42  1  0
 14 43  1  0
 15 44  1  0
M  CHG  1  18  -1
M  END
>  <filename_input>  (18) 
7L5F_XNG_docked.sdf

>  <pdb_id>  (18) 
7L5F_XNG

>  <pose_rank>  (18) 
17

>  <num_atoms_heavy>  (18) 
18

>  <num_torsions>  (18) 
12

>  <pose>  (18) 
[10.48865774911408, 36.99917018752798, 23.00905706175538, -1.2016035558733464, 2.6011939127044683, 0.6963040799496024, -0.5001769270811588, 1.934269327518079, -1.7056491973889485, 0.7905361950481216, -3.2316754290108656, -2.007943050277, 0.32350819573893747, -0.379737766451539, -0.02997314236897238, 0.5111130014062274, 1.7865609176945916, -1.4097165105950655]

>  <energy>  (18) 
-423.22739441882095

>  <inter_energy>  (18) 
-437.11955214441724

>  <intra_energy>  (18) 
10.314562427614112

>  <rmsd>  (18) 
8.18277

>  <sdf_rank>  (18) 
0

$$$$

     RDKit          3D

 44 43  0  0  0  0  0  0  0  0999 V2000
   11.5996   35.1942   27.3575 C   0  0  0  0  0  0  0  0  0  0  0  0
   10.8208   35.6108   22.7227 C   0  0  0  0  0  0  0  0  0  0  0  0
    9.3676   35.7663   22.2982 C   0  0  0  0  0  0  0  0  0  0  0  0
    8.5515   36.7053   23.1688 C   0  0  0  0  0  0  0  0  0  0  0  0
    7.1892   36.0712   23.3970 C   0  0  0  0  0  0  0  0  0  0  0  0
    7.2862   34.5752   23.1784 C   0  0  0  0  0  0  0  0  0  0  0  0
    5.8901   34.0249   22.9024 C   0  0  0  0  0  0  0  0  0  0  0  0
    5.8867   33.1565   21.6625 C   0  0  0  0  0  0  0  0  0  0  0  0
    4.6108   33.4303   20.8981 C   0  0  0  0  0  0  0  0  0  0  0  0
   11.3797   34.3728   28.6193 C   0  0  0  0  0  0  0  0  0  0  0  0
   10.6275   35.2082   29.6495 C   0  0  0  0  0  0  0  0  0  0  0  0
   11.6940   35.8892   30.4810 C   0  0  0  0  0  0  0  0  0  0  0  0
   11.6133   34.9524   24.9819 C   0  0  0  0  0  0  0  0  0  0  0  0
   10.9322   34.4649   23.7261 C   0  0  0  0  0  0  0  0  0  0  0  0
   11.1283   34.5262   26.1494 N   0  0  0  0  0  0  0  0  0  0  0  0
   12.5762   35.7217   24.9147 O   0  0  0  0  0  0  0  0  0  0  0  0
   12.0469   35.2754   31.4914 O   0  0  0  0  0  0  0  0  0  0  0  0
   12.1843   36.9906   30.1382 O   0  0  0  0  0  0  0  0  0  0  0  0
   11.0616   36.1479   27.4625 H   0  0  0  0  0  0  0  0  0  0  0  0
   12.6841   35.3424   27.2480 H   0  0  0  0  0  0  0  0  0  0  0  0
   11.4397   35.3889   21.8408 H   0  0  0  0  0  0  0  0  0  0  0  0
   11.1712   36.5440   23.1878 H   0  0  0  0  0  0  0  0  0  0  0  0
    9.3504   36.1518   21.2681 H   0  0  0  0  0  0  0  0  0  0  0  0
    8.9066   34.7722   22.3947 H   0  0  0  0  0  0  0  0  0  0  0  0
    9.0592   36.8559   24.1330 H   0  0  0  0  0  0  0  0  0  0  0  0
    8.4400   37.6825   22.6761 H   0  0  0  0  0  0  0  0  0  0  0  0
    6.8597   36.2707   24.4274 H   0  0  0  0  0  0  0  0  0  0  0  0
    6.4625   36.4989   22.6907 H   0  0  0  0  0  0  0  0  0  0  0  0
    7.9409   34.3693   22.3188 H   0  0  0  0  0  0  0  0  0  0  0  0
    7.7063   34.0940   24.0739 H   0  0  0  0  0  0  0  0  0  0  0  0
    5.5632   33.4240   23.7638 H   0  0  0  0  0  0  0  0  0  0  0  0
    5.2049   34.8702   22.7412 H   0  0  0  0  0  0  0  0  0  0  0  0
    6.7565   33.4001   21.0348 H   0  0  0  0  0  0  0  0  0  0  0  0
    5.9418   32.0941   21.9423 H   0  0  0  0  0  0  0  0  0  0  0  0
    3.7889   33.6066   21.6076 H   0  0  0  0  0  0  0  0  0  0  0  0
    4.7461   34.3198   20.2653 H   0  0  0  0  0  0  0  0  0  0  0  0
    4.3693   32.5635   20.2653 H   0  0  0  0  0  0  0  0  0  0  0  0
   10.7908   33.4765   28.3745 H   0  0  0  0  0  0  0  0  0  0  0  0
   12.3533   34.0723   29.0336 H   0  0  0  0  0  0  0  0  0  0  0  0
    9.9952   35.9563   29.1490 H   0  0  0  0  0  0  0  0  0  0  0  0
    9.9635   34.5877   30.2693 H   0  0  0  0  0  0  0  0  0  0  0  0
    9.9257   34.0977   23.9750 H   0  0  0  0  0  0  0  0  0  0  0  0
   11.5239   33.6498   23.2838 H   0  0  0  0  0  0  0  0  0  0  0  0
   10.4471   33.7551   26.1959 H   0  0  0  0  0  0  0  0  0  0  0  0
  1 10  1  0
  1 15  1  0
  2  3  1  0
  2 14  1  0
  3  4  1  0
  4  5  1  0
  5  6  1  0
  6  7  1  0
  7  8  1  0
  8  9  1  0
 10 11  1  0
 11 12  1  0
 12 17  2  0
 12 18  1  0
 13 14  1  0
 13 15  1  0
 13 16  2  0
  1 19  1  0
  1 20  1  0
  2 21  1  0
  2 22  1  0
  3 23  1  0
  3 24  1  0
  4 25  1  0
  4 26  1  0
  5 27  1  0
  5 28  1  0
  6 29  1  0
  6 30  1  0
  7 31  1  0
  7 32  1  0
  8 33  1  0
  8 34  1  0
  9 35  1  0
  9 36  1  0
  9 37  1  0
 10 38  1  0
 10 39  1  0
 11 40  1  0
 11 41  1  0
 14 42  1  0
 14 43  1  0
 15 44  1  0
M  CHG  1  18  -1
M  END
>  <filename_input>  (19) 
7L5F_XNG_docked.sdf

>  <pdb_id>  (19) 
7L5F_XNG

>  <pose_rank>  (19) 
18

>  <num_atoms_heavy>  (19) 
18

>  <num_torsions>  (19) 
12

>  <pose>  (19) 
[11.613290462552023, 34.95244710187022, 24.981878119573434, -4.071141120499582, 2.8646899511008277, 3.6846961610769493, 0.3537175367417434, -4.022988640422653, 5.450439981591658, -0.5027212522767225, 1.027045844356157, -2.89157549815764, 6.063681208614286, 6.543831945439806, -2.5027252482791797, 2.5997916324140062, -0.13635691950479417, -3.3692553219538404]

>  <energy>  (19) 
-450.03192860775346

>  <inter_energy>  (19) 
-454.8094442206407

>  <intra_energy>  (19) 
2.310271012882008

>  <rmsd>  (19) 
4.58698

>  <sdf_rank>  (19) 
0

$$$$

     RDKit          3D

 44 43  0  0  0  0  0  0  0  0999 V2000
    9.8826   42.5489   18.6107 C   0  0  0  0  0  0  0  0  0  0  0  0
   10.6553   39.7401   21.7093 C   0  0  0  0  0  0  0  0  0  0  0  0
    9.4052   38.9952   22.1548 C   0  0  0  0  0  0  0  0  0  0  0  0
    9.3984   37.5142   21.8195 C   0  0  0  0  0  0  0  0  0  0  0  0
   10.1012   36.7734   22.9453 C   0  0  0  0  0  0  0  0  0  0  0  0
   10.3333   35.3339   22.5342 C   0  0  0  0  0  0  0  0  0  0  0  0
    9.3406   34.4426   23.2747 C   0  0  0  0  0  0  0  0  0  0  0  0
   10.0542   33.5384   24.2568 C   0  0  0  0  0  0  0  0  0  0  0  0
    9.0167   32.9124   25.1618 C   0  0  0  0  0  0  0  0  0  0  0  0
    8.9466   42.1624   17.4751 C   0  0  0  0  0  0  0  0  0  0  0  0
    9.7346   42.0619   16.1736 C   0  0  0  0  0  0  0  0  0  0  0  0
    8.7472   41.5739   15.1345 C   0  0  0  0  0  0  0  0  0  0  0  0
   10.9966   40.5904   19.4014 C   0  0  0  0  0  0  0  0  0  0  0  0
   10.9843   39.3548   20.2685 C   0  0  0  0  0  0  0  0  0  0  0  0
   10.0390   41.4960   19.6081 N   0  0  0  0  0  0  0  0  0  0  0  0
   11.8617   40.7388   18.5337 O   0  0  0  0  0  0  0  0  0  0  0  0
    8.7079   42.2345   14.0932 O   0  0  0  0  0  0  0  0  0  0  0  0
    8.0424   40.5563   15.3313 O   0  0  0  0  0  0  0  0  0  0  0  0
   10.8712   42.7787   18.1865 H   0  0  0  0  0  0  0  0  0  0  0  0
    9.4398   43.4183   19.1188 H   0  0  0  0  0  0  0  0  0  0  0  0
   10.4782   40.8241   21.7687 H   0  0  0  0  0  0  0  0  0  0  0  0
   11.4975   39.4725   22.3643 H   0  0  0  0  0  0  0  0  0  0  0  0
    9.3138   39.1004   23.2459 H   0  0  0  0  0  0  0  0  0  0  0  0
    8.5635   39.4429   21.6061 H   0  0  0  0  0  0  0  0  0  0  0  0
    8.3620   37.1572   21.7279 H   0  0  0  0  0  0  0  0  0  0  0  0
    9.9151   37.3367   20.8648 H   0  0  0  0  0  0  0  0  0  0  0  0
   11.0675   37.2555   23.1545 H   0  0  0  0  0  0  0  0  0  0  0  0
    9.4750   36.8004   23.8493 H   0  0  0  0  0  0  0  0  0  0  0  0
   10.1840   35.2310   21.4493 H   0  0  0  0  0  0  0  0  0  0  0  0
   11.3618   35.0356   22.7857 H   0  0  0  0  0  0  0  0  0  0  0  0
    8.6266   35.0759   23.8216 H   0  0  0  0  0  0  0  0  0  0  0  0
    8.8143   33.8165   22.5392 H   0  0  0  0  0  0  0  0  0  0  0  0
   10.5969   32.7516   23.7123 H   0  0  0  0  0  0  0  0  0  0  0  0
   10.7771   34.1172   24.8506 H   0  0  0  0  0  0  0  0  0  0  0  0
    9.2965   33.0812   26.2121 H   0  0  0  0  0  0  0  0  0  0  0  0
    8.0355   33.3693   24.9657 H   0  0  0  0  0  0  0  0  0  0  0  0
    8.9635   31.8313   24.9657 H   0  0  0  0  0  0  0  0  0  0  0  0
    8.4826   41.1903   17.6980 H   0  0  0  0  0  0  0  0  0  0  0  0
    8.1643   42.9286   17.3700 H   0  0  0  0  0  0  0  0  0  0  0  0
   10.1345   43.0467   15.8903 H   0  0  0  0  0  0  0  0  0  0  0  0
   10.5930   41.3809   16.2699 H   0  0  0  0  0  0  0  0  0  0  0  0
   11.9735   38.8748   20.2352 H   0  0  0  0  0  0  0  0  0  0  0  0
   10.2216   38.6555   19.8953 H   0  0  0  0  0  0  0  0  0  0  0  0
    9.4333   41.4534   20.4401 H   0  0  0  0  0  0  0  0  0  0  0  0
  1 10  1  0
  1 15  1  0
  2  3  1  0
  2 14  1  0
  3  4  1  0
  4  5  1  0
  5  6  1  0
  6  7  1  0
  7  8  1  0
  8  9  1  0
 10 11  1  0
 11 12  1  0
 12 17  2  0
 12 18  1  0
 13 14  1  0
 13 15  1  0
 13 16  2  0
  1 19  1  0
  1 20  1  0
  2 21  1  0
  2 22  1  0
  3 23  1  0
  3 24  1  0
  4 25  1  0
  4 26  1  0
  5 27  1  0
  5 28  1  0
  6 29  1  0
  6 30  1  0
  7 31  1  0
  7 32  1  0
  8 33  1  0
  8 34  1  0
  9 35  1  0
  9 36  1  0
  9 37  1  0
 10 38  1  0
 10 39  1  0
 11 40  1  0
 11 41  1  0
 14 42  1  0
 14 43  1  0
 15 44  1  0
M  CHG  1  18  -1
M  END
>  <filename_input>  (20) 
7L5F_XNG_docked.sdf

>  <pdb_id>  (20) 
7L5F_XNG

>  <pose_rank>  (20) 
19

>  <num_atoms_heavy>  (20) 
18

>  <num_torsions>  (20) 
12

>  <pose>  (20) 
[10.996569903184849, 40.59035455942647, 19.401431241610453, 4.213883699473917, 0.896785537129616, -1.1337457874219958, -7.8732292725134965, -16.36106246992003, -8.73772136173719, -2.92772463924106, -52.389824312462075, 57.97151141358713, 74.43234605076141, 41.877188930526465, -5.854125976810402, -9.020796062192735, -4.382287438046837, 2.0131929455753266]

>  <energy>  (20) 
-424.93439644247866

>  <inter_energy>  (20) 
-440.86401779949057

>  <intra_energy>  (20) 
2.0111218597142746

>  <rmsd>  (20) 
9.95591

>  <sdf_rank>  (20) 
0

$$$$

     RDKit          3D

 44 43  0  0  0  0  0  0  0  0999 V2000
   11.4125   39.3428   21.1201 C   0  0  0  0  0  0  0  0  0  0  0  0
    9.4920   36.2543   24.1593 C   0  0  0  0  0  0  0  0  0  0  0  0
    9.7375   34.8320   24.6420 C   0  0  0  0  0  0  0  0  0  0  0  0
    8.6259   33.8516   24.3123 C   0  0  0  0  0  0  0  0  0  0  0  0
    9.1251   32.4508   24.6266 C   0  0  0  0  0  0  0  0  0  0  0  0
    8.4033   31.4492   23.7485 C   0  0  0  0  0  0  0  0  0  0  0  0
    8.3145   32.0083   22.3316 C   0  0  0  0  0  0  0  0  0  0  0  0
    7.0568   31.5288   21.6391 C   0  0  0  0  0  0  0  0  0  0  0  0
    7.3292   31.4712   20.1526 C   0  0  0  0  0  0  0  0  0  0  0  0
   10.0754   40.0472   20.9436 C   0  0  0  0  0  0  0  0  0  0  0  0
    9.6217   39.9286   19.4927 C   0  0  0  0  0  0  0  0  0  0  0  0
   10.1495   41.1655   18.7969 C   0  0  0  0  0  0  0  0  0  0  0  0
   10.9324   37.5105   22.5742 C   0  0  0  0  0  0  0  0  0  0  0  0
   10.8327   36.9626   23.9772 C   0  0  0  0  0  0  0  0  0  0  0  0
   11.5466   38.6840   22.4147 N   0  0  0  0  0  0  0  0  0  0  0  0
   10.4525   36.8882   21.6225 O   0  0  0  0  0  0  0  0  0  0  0  0
    9.3929   42.1401   18.8079 O   0  0  0  0  0  0  0  0  0  0  0  0
   11.2864   41.1825   18.2696 O   0  0  0  0  0  0  0  0  0  0  0  0
   11.5158   38.5850   20.3295 H   0  0  0  0  0  0  0  0  0  0  0  0
   12.1977   40.1108   21.0604 H   0  0  0  0  0  0  0  0  0  0  0  0
    8.9560   36.2292   23.1990 H   0  0  0  0  0  0  0  0  0  0  0  0
    8.8859   36.7961   24.9003 H   0  0  0  0  0  0  0  0  0  0  0  0
   10.6655   34.4674   24.1774 H   0  0  0  0  0  0  0  0  0  0  0  0
    9.7946   34.8809   25.7395 H   0  0  0  0  0  0  0  0  0  0  0  0
    7.7375   34.0763   24.9208 H   0  0  0  0  0  0  0  0  0  0  0  0
    8.3510   33.9294   23.2500 H   0  0  0  0  0  0  0  0  0  0  0  0
   10.2066   32.3950   24.4339 H   0  0  0  0  0  0  0  0  0  0  0  0
    8.9289   32.2200   25.6840 H   0  0  0  0  0  0  0  0  0  0  0  0
    8.9592   30.5001   23.7369 H   0  0  0  0  0  0  0  0  0  0  0  0
    7.3921   31.2689   24.1422 H   0  0  0  0  0  0  0  0  0  0  0  0
    8.3032   33.1072   22.3782 H   0  0  0  0  0  0  0  0  0  0  0  0
    9.1861   31.6567   21.7600 H   0  0  0  0  0  0  0  0  0  0  0  0
    6.7873   30.5279   22.0074 H   0  0  0  0  0  0  0  0  0  0  0  0
    6.2231   32.2157   21.8465 H   0  0  0  0  0  0  0  0  0  0  0  0
    8.3926   31.2465   19.9831 H   0  0  0  0  0  0  0  0  0  0  0  0
    6.7109   30.6839   19.6967 H   0  0  0  0  0  0  0  0  0  0  0  0
    7.0823   32.4413   19.6967 H   0  0  0  0  0  0  0  0  0  0  0  0
    9.3264   39.5808   21.6005 H   0  0  0  0  0  0  0  0  0  0  0  0
   10.1851   41.1098   21.2060 H   0  0  0  0  0  0  0  0  0  0  0  0
   10.0406   39.0214   19.0327 H   0  0  0  0  0  0  0  0  0  0  0  0
    8.5271   39.8539   19.4140 H   0  0  0  0  0  0  0  0  0  0  0  0
   10.9104   37.7892   24.6989 H   0  0  0  0  0  0  0  0  0  0  0  0
   11.6494   36.2457   24.1472 H   0  0  0  0  0  0  0  0  0  0  0  0
   12.0946   39.1087   23.1765 H   0  0  0  0  0  0  0  0  0  0  0  0
  1 10  1  0
  1 15  1  0
  2  3  1  0
  2 14  1  0
  3  4  1  0
  4  5  1  0
  5  6  1  0
  6  7  1  0
  7  8  1  0
  8  9  1  0
 10 11  1  0
 11 12  1  0
 12 17  2  0
 12 18  1  0
 13 14  1  0
 13 15  1  0
 13 16  2  0
  1 19  1  0
  1 20  1  0
  2 21  1  0
  2 22  1  0
  3 23  1  0
  3 24  1  0
  4 25  1  0
  4 26  1  0
  5 27  1  0
  5 28  1  0
  6 29  1  0
  6 30  1  0
  7 31  1  0
  7 32  1  0
  8 33  1  0
  8 34  1  0
  9 35  1  0
  9 36  1  0
  9 37  1  0
 10 38  1  0
 10 39  1  0
 11 40  1  0
 11 41  1  0
 14 42  1  0
 14 43  1  0
 15 44  1  0
M  CHG  1  18  -1
M  END
>  <filename_input>  (21) 
7L5F_XNG_docked.sdf

>  <pdb_id>  (21) 
7L5F_XNG

>  <pose_rank>  (21) 
20

>  <num_atoms_heavy>  (21) 
18

>  <num_torsions>  (21) 
12

>  <pose>  (21) 
[10.932430126897764, 37.51051336811737, 22.57420752178384, -1.6287842474919438, 1.3882691530784363, 0.35193434297232296, -1.7592563733466804, 1.952498055323973, -0.8486761405829243, -0.4714738685936734, 1.1004167928297726, 1.487370843594066, 1.797146021847221, -0.650001904934815, 0.7261887049288369, -0.1558875338137846, 1.2819267723574603, 2.7322876978645843]

>  <energy>  (21) 
-427.786744799103

>  <inter_energy>  (21) 
-428.44671033803087

>  <intra_energy>  (21) 
4.870594100989094

>  <rmsd>  (21) 
8.19307

>  <sdf_rank>  (21) 
0

$$$$

     RDKit          3D

 44 43  0  0  0  0  0  0  0  0999 V2000
    4.8615   33.7026   22.7622 C   0  0  0  0  0  0  0  0  0  0  0  0
    8.8239   35.7139   23.7671 C   0  0  0  0  0  0  0  0  0  0  0  0
    9.8550   35.7009   22.6478 C   0  0  0  0  0  0  0  0  0  0  0  0
    9.6316   36.7472   21.5702 C   0  0  0  0  0  0  0  0  0  0  0  0
   10.6308   37.8712   21.7911 C   0  0  0  0  0  0  0  0  0  0  0  0
   10.0123   39.1868   21.3649 C   0  0  0  0  0  0  0  0  0  0  0  0
   11.0499   39.9916   20.5879 C   0  0  0  0  0  0  0  0  0  0  0  0
   10.4436   40.5900   19.3366 C   0  0  0  0  0  0  0  0  0  0  0  0
    8.9568   40.3135   19.3538 C   0  0  0  0  0  0  0  0  0  0  0  0
    4.4891   33.8480   21.2941 C   0  0  0  0  0  0  0  0  0  0  0  0
    3.3846   32.8563   20.9453 C   0  0  0  0  0  0  0  0  0  0  0  0
    3.7885   32.2436   19.6208 C   0  0  0  0  0  0  0  0  0  0  0  0
    6.8473   34.2264   23.9805 C   0  0  0  0  0  0  0  0  0  0  0  0
    8.3546   34.2857   24.0359 C   0  0  0  0  0  0  0  0  0  0  0  0
    6.2954   33.5426   22.9766 N   0  0  0  0  0  0  0  0  0  0  0  0
    6.1654   34.8001   24.8345 O   0  0  0  0  0  0  0  0  0  0  0  0
    3.4318   31.0750   19.4498 O   0  0  0  0  0  0  0  0  0  0  0  0
    4.4240   32.9019   18.7642 O   0  0  0  0  0  0  0  0  0  0  0  0
    4.5256   34.6021   23.2991 H   0  0  0  0  0  0  0  0  0  0  0  0
    4.3707   32.7920   23.1361 H   0  0  0  0  0  0  0  0  0  0  0  0
    9.2767   36.1300   24.6792 H   0  0  0  0  0  0  0  0  0  0  0  0
    7.9656   36.3349   23.4711 H   0  0  0  0  0  0  0  0  0  0  0  0
   10.8463   35.8726   23.0924 H   0  0  0  0  0  0  0  0  0  0  0  0
    9.7670   34.7217   22.1544 H   0  0  0  0  0  0  0  0  0  0  0  0
    9.7871   36.2996   20.5775 H   0  0  0  0  0  0  0  0  0  0  0  0
    8.6035   37.1349   21.6219 H   0  0  0  0  0  0  0  0  0  0  0  0
   10.8984   37.9198   22.8569 H   0  0  0  0  0  0  0  0  0  0  0  0
   11.5351   37.6806   21.1946 H   0  0  0  0  0  0  0  0  0  0  0  0
    9.1390   38.9942   20.7245 H   0  0  0  0  0  0  0  0  0  0  0  0
    9.6901   39.7520   22.2520 H   0  0  0  0  0  0  0  0  0  0  0  0
   11.4295   40.8022   21.2272 H   0  0  0  0  0  0  0  0  0  0  0  0
   11.8686   39.3183   20.2941 H   0  0  0  0  0  0  0  0  0  0  0  0
   10.6204   41.6756   19.3195 H   0  0  0  0  0  0  0  0  0  0  0  0
   10.9027   40.1451   18.4414 H   0  0  0  0  0  0  0  0  0  0  0  0
    8.6079   40.2486   20.3950 H   0  0  0  0  0  0  0  0  0  0  0  0
    8.4263   41.1284   18.8394 H   0  0  0  0  0  0  0  0  0  0  0  0
    8.7548   39.3624   18.8394 H   0  0  0  0  0  0  0  0  0  0  0  0
    4.1342   34.8720   21.1061 H   0  0  0  0  0  0  0  0  0  0  0  0
    5.3727   33.6441   20.6714 H   0  0  0  0  0  0  0  0  0  0  0  0
    3.3080   32.0792   21.7201 H   0  0  0  0  0  0  0  0  0  0  0  0
    2.4023   33.3474   20.8832 H   0  0  0  0  0  0  0  0  0  0  0  0
    8.7752   33.6131   23.2738 H   0  0  0  0  0  0  0  0  0  0  0  0
    8.6950   33.9721   25.0338 H   0  0  0  0  0  0  0  0  0  0  0  0
    6.8602   32.9252   22.3760 H   0  0  0  0  0  0  0  0  0  0  0  0
  1 10  1  0
  1 15  1  0
  2  3  1  0
  2 14  1  0
  3  4  1  0
  4  5  1  0
  5  6  1  0
  6  7  1  0
  7  8  1  0
  8  9  1  0
 10 11  1  0
 11 12  1  0
 12 17  2  0
 12 18  1  0
 13 14  1  0
 13 15  1  0
 13 16  2  0
  1 19  1  0
  1 20  1  0
  2 21  1  0
  2 22  1  0
  3 23  1  0
  3 24  1  0
  4 25  1  0
  4 26  1  0
  5 27  1  0
  5 28  1  0
  6 29  1  0
  6 30  1  0
  7 31  1  0
  7 32  1  0
  8 33  1  0
  8 34  1  0
  9 35  1  0
  9 36  1  0
  9 37  1  0
 10 38  1  0
 10 39  1  0
 11 40  1  0
 11 41  1  0
 14 42  1  0
 14 43  1  0
 15 44  1  0
M  CHG  1  18  -1
M  END
>  <filename_input>  (22) 
7L5F_XNG_docked.sdf

>  <pdb_id>  (22) 
7L5F_XNG

>  <pose_rank>  (22) 
21

>  <num_atoms_heavy>  (22) 
18

>  <num_torsions>  (22) 
12

>  <pose>  (22) 
[6.847296544127028, 34.22636771256112, 23.980479330115298, -0.905249421577504, 3.9825404220592002, -0.4901266359492823, 5.548001079857942, 0.43786792771219457, -1.60867078144882, -2.5964899145344984, 6.842381788314415, 3.364615304772198, -5.73742291717878, -1.806049434633088, 0.8236081992849249, 2.987946871159843, -0.05225504085879932, -0.8052710946678021]

>  <energy>  (22) 
-457.15659547439304

>  <inter_energy>  (22) 
-446.08852159583245

>  <intra_energy>  (22) 
0.0

>  <rmsd>  (22) 
6.82903

>  <sdf_rank>  (22) 
0

$$$$

     RDKit          3D

 44 43  0  0  0  0  0  0  0  0999 V2000
   10.5101   35.4466   25.0978 C   0  0  0  0  0  0  0  0  0  0  0  0
    8.3335   32.9220   21.6530 C   0  0  0  0  0  0  0  0  0  0  0  0
    7.8182   31.5863   21.1366 C   0  0  0  0  0  0  0  0  0  0  0  0
    7.6205   31.5238   19.6324 C   0  0  0  0  0  0  0  0  0  0  0  0
    7.4247   30.0676   19.2435 C   0  0  0  0  0  0  0  0  0  0  0  0
    7.7991   29.8795   17.7876 C   0  0  0  0  0  0  0  0  0  0  0  0
    8.3820   28.4815   17.6041 C   0  0  0  0  0  0  0  0  0  0  0  0
    8.7813   28.2472   16.1629 C   0  0  0  0  0  0  0  0  0  0  0  0
   10.0270   27.3896   16.1517 C   0  0  0  0  0  0  0  0  0  0  0  0
   11.6408   35.2582   26.0983 C   0  0  0  0  0  0  0  0  0  0  0  0
   11.2417   35.8596   27.4414 C   0  0  0  0  0  0  0  0  0  0  0  0
   11.5622   34.8005   28.4750 C   0  0  0  0  0  0  0  0  0  0  0  0
    9.7249   33.8864   23.4695 C   0  0  0  0  0  0  0  0  0  0  0  0
    8.7909   32.7592   23.1011 C   0  0  0  0  0  0  0  0  0  0  0  0
    9.8287   34.2014   24.7617 N   0  0  0  0  0  0  0  0  0  0  0  0
   10.3557   34.4888   22.5962 O   0  0  0  0  0  0  0  0  0  0  0  0
   11.5294   35.1814   29.6481 O   0  0  0  0  0  0  0  0  0  0  0  0
   11.8213   33.6204   28.1414 O   0  0  0  0  0  0  0  0  0  0  0  0
    9.7749   36.1428   25.5276 H   0  0  0  0  0  0  0  0  0  0  0  0
   10.9548   35.8372   24.1706 H   0  0  0  0  0  0  0  0  0  0  0  0
    9.1809   33.2530   21.0348 H   0  0  0  0  0  0  0  0  0  0  0  0
    7.5306   33.6721   21.6017 H   0  0  0  0  0  0  0  0  0  0  0  0
    8.5407   30.8070   21.4204 H   0  0  0  0  0  0  0  0  0  0  0  0
    6.8258   31.4397   21.5878 H   0  0  0  0  0  0  0  0  0  0  0  0
    6.7332   32.1084   19.3481 H   0  0  0  0  0  0  0  0  0  0  0  0
    8.4959   31.9427   19.1146 H   0  0  0  0  0  0  0  0  0  0  0  0
    8.0647   29.4308   19.8719 H   0  0  0  0  0  0  0  0  0  0  0  0
    6.3713   29.7869   19.3906 H   0  0  0  0  0  0  0  0  0  0  0  0
    6.9037   29.9918   17.1585 H   0  0  0  0  0  0  0  0  0  0  0  0
    8.5424   30.6350   17.4932 H   0  0  0  0  0  0  0  0  0  0  0  0
    9.2691   28.3742   18.2456 H   0  0  0  0  0  0  0  0  0  0  0  0
    7.6158   27.7424   17.8809 H   0  0  0  0  0  0  0  0  0  0  0  0
    7.9689   27.7310   15.6304 H   0  0  0  0  0  0  0  0  0  0  0  0
    8.9759   29.2067   15.6615 H   0  0  0  0  0  0  0  0  0  0  0  0
   10.3352   27.1773   17.1861 H   0  0  0  0  0  0  0  0  0  0  0  0
    9.8165   26.4440   15.6305 H   0  0  0  0  0  0  0  0  0  0  0  0
   10.8351   27.9235   15.6305 H   0  0  0  0  0  0  0  0  0  0  0  0
   11.8433   34.1843   26.2239 H   0  0  0  0  0  0  0  0  0  0  0  0
   12.5450   35.7627   25.7267 H   0  0  0  0  0  0  0  0  0  0  0  0
   11.8186   36.7751   27.6385 H   0  0  0  0  0  0  0  0  0  0  0  0
   10.1778   36.1384   27.4617 H   0  0  0  0  0  0  0  0  0  0  0  0
    7.9146   32.7785   23.7657 H   0  0  0  0  0  0  0  0  0  0  0  0
    9.3171   31.7995   23.2111 H   0  0  0  0  0  0  0  0  0  0  0  0
    9.4425   33.5887   25.4941 H   0  0  0  0  0  0  0  0  0  0  0  0
  1 10  1  0
  1 15  1  0
  2  3  1  0
  2 14  1  0
  3  4  1  0
  4  5  1  0
  5  6  1  0
  6  7  1  0
  7  8  1  0
  8  9  1  0
 10 11  1  0
 11 12  1  0
 12 17  2  0
 12 18  1  0
 13 14  1  0
 13 15  1  0
 13 16  2  0
  1 19  1  0
  1 20  1  0
  2 21  1  0
  2 22  1  0
  3 23  1  0
  3 24  1  0
  4 25  1  0
  4 26  1  0
  5 27  1  0
  5 28  1  0
  6 29  1  0
  6 30  1  0
  7 31  1  0
  7 32  1  0
  8 33  1  0
  8 34  1  0
  9 35  1  0
  9 36  1  0
  9 37  1  0
 10 38  1  0
 10 39  1  0
 11 40  1  0
 11 41  1  0
 14 42  1  0
 14 43  1  0
 15 44  1  0
M  CHG  1  18  -1
M  END
>  <filename_input>  (23) 
7L5F_XNG_docked.sdf

>  <pdb_id>  (23) 
7L5F_XNG

>  <pose_rank>  (23) 
22

>  <num_atoms_heavy>  (23) 
18

>  <num_torsions>  (23) 
12

>  <pose>  (23) 
[9.724912423255612, 33.88643870833778, 23.469464205819705, 4.488961855544411, -3.246630581782826, -0.8279952104463909, 0.9499172727801879, 2.5670894005830043, 3.0570777940733898, -2.2585646265253114, -4.969656203439809, -4.183993853525881, 1.589506042377517, -6.982613293619047, 0.6651255130420917, 1.6730928221052876, 0.7414895915328236, -4.672484045208542]

>  <energy>  (23) 
-396.10901457131655

>  <inter_energy>  (23) 
-390.6909807438207

>  <intra_energy>  (23) 
0.0

>  <rmsd>  (23) 
6.83649

>  <sdf_rank>  (23) 
0

$$$$

     RDKit          3D

 44 43  0  0  0  0  0  0  0  0999 V2000
    5.8876   32.9835   21.2532 C   0  0  0  0  0  0  0  0  0  0  0  0
    9.3175   34.2173   23.0886 C   0  0  0  0  0  0  0  0  0  0  0  0
    9.6722   35.6737   22.8255 C   0  0  0  0  0  0  0  0  0  0  0  0
   11.0905   36.0581   23.2082 C   0  0  0  0  0  0  0  0  0  0  0  0
   11.2683   37.5413   22.9274 C   0  0  0  0  0  0  0  0  0  0  0  0
    9.9431   38.1355   22.4964 C   0  0  0  0  0  0  0  0  0  0  0  0
   10.1668   39.5826   22.0676 C   0  0  0  0  0  0  0  0  0  0  0  0
    9.7295   39.7955   20.6341 C   0  0  0  0  0  0  0  0  0  0  0  0
    8.5771   38.8587   20.3481 C   0  0  0  0  0  0  0  0  0  0  0  0
    4.8753   32.8330   22.3792 C   0  0  0  0  0  0  0  0  0  0  0  0
    4.4288   34.2115   22.8540 C   0  0  0  0  0  0  0  0  0  0  0  0
    3.9031   34.0093   24.2596 C   0  0  0  0  0  0  0  0  0  0  0  0
    8.2739   33.0253   21.1767 C   0  0  0  0  0  0  0  0  0  0  0  0
    9.5839   33.3985   21.8273 C   0  0  0  0  0  0  0  0  0  0  0  0
    7.1597   33.5427   21.6970 N   0  0  0  0  0  0  0  0  0  0  0  0
    8.2505   32.2636   20.2058 O   0  0  0  0  0  0  0  0  0  0  0  0
    3.1858   33.0178   24.4168 O   0  0  0  0  0  0  0  0  0  0  0  0
    4.2037   34.7957   25.1881 O   0  0  0  0  0  0  0  0  0  0  0  0
    6.0748   31.9916   20.8161 H   0  0  0  0  0  0  0  0  0  0  0  0
    5.4602   33.6833   20.5199 H   0  0  0  0  0  0  0  0  0  0  0  0
    9.9341   33.8321   23.9141 H   0  0  0  0  0  0  0  0  0  0  0  0
    8.2547   34.1398   23.3613 H   0  0  0  0  0  0  0  0  0  0  0  0
    9.5417   35.8698   21.7510 H   0  0  0  0  0  0  0  0  0  0  0  0
    9.0044   36.2764   23.4584 H   0  0  0  0  0  0  0  0  0  0  0  0
   11.2556   35.8584   24.2772 H   0  0  0  0  0  0  0  0  0  0  0  0
   11.8155   35.4699   22.6265 H   0  0  0  0  0  0  0  0  0  0  0  0
   11.6183   38.0478   23.8390 H   0  0  0  0  0  0  0  0  0  0  0  0
   12.0092   37.6766   22.1256 H   0  0  0  0  0  0  0  0  0  0  0  0
    9.5369   37.5588   21.6523 H   0  0  0  0  0  0  0  0  0  0  0  0
    9.2293   38.1005   23.3325 H   0  0  0  0  0  0  0  0  0  0  0  0
    9.5852   40.2466   22.7239 H   0  0  0  0  0  0  0  0  0  0  0  0
   11.2403   39.8099   22.1448 H   0  0  0  0  0  0  0  0  0  0  0  0
    9.4061   40.8375   20.4942 H   0  0  0  0  0  0  0  0  0  0  0  0
   10.5645   39.5916   19.9476 H   0  0  0  0  0  0  0  0  0  0  0  0
    8.1456   38.5080   21.2972 H   0  0  0  0  0  0  0  0  0  0  0  0
    7.8073   39.3904   19.7696 H   0  0  0  0  0  0  0  0  0  0  0  0
    8.9403   37.9965   19.7696 H   0  0  0  0  0  0  0  0  0  0  0  0
    4.0028   32.2712   22.0144 H   0  0  0  0  0  0  0  0  0  0  0  0
    5.3388   32.2909   23.2167 H   0  0  0  0  0  0  0  0  0  0  0  0
    5.2789   34.9095   22.8590 H   0  0  0  0  0  0  0  0  0  0  0  0
    3.6628   34.6410   22.1916 H   0  0  0  0  0  0  0  0  0  0  0  0
   10.1844   33.9946   21.1244 H   0  0  0  0  0  0  0  0  0  0  0  0
   10.1308   32.4828   22.0962 H   0  0  0  0  0  0  0  0  0  0  0  0
    7.1963   34.3077   22.3857 H   0  0  0  0  0  0  0  0  0  0  0  0
  1 10  1  0
  1 15  1  0
  2  3  1  0
  2 14  1  0
  3  4  1  0
  4  5  1  0
  5  6  1  0
  6  7  1  0
  7  8  1  0
  8  9  1  0
 10 11  1  0
 11 12  1  0
 12 17  2  0
 12 18  1  0
 13 14  1  0
 13 15  1  0
 13 16  2  0
  1 19  1  0
  1 20  1  0
  2 21  1  0
  2 22  1  0
  3 23  1  0
  3 24  1  0
  4 25  1  0
  4 26  1  0
  5 27  1  0
  5 28  1  0
  6 29  1  0
  6 30  1  0
  7 31  1  0
  7 32  1  0
  8 33  1  0
  8 34  1  0
  9 35  1  0
  9 36  1  0
  9 37  1  0
 10 38  1  0
 10 39  1  0
 11 40  1  0
 11 41  1  0
 14 42  1  0
 14 43  1  0
 15 44  1  0
M  CHG  1  18  -1
M  END
>  <filename_input>  (24) 
7L5F_XNG_docked.sdf

>  <pdb_id>  (24) 
7L5F_XNG

>  <pose_rank>  (24) 
23

>  <num_atoms_heavy>  (24) 
18

>  <num_torsions>  (24) 
12

>  <pose>  (24) 
[8.273871569581278, 33.02532390704419, 21.176668388233587, -2.045034051670458, 0.08440822659818695, 2.1861456490211038, -0.6842097118452436, -0.6144739164236136, -1.9960104631131856, 0.33756752239768884, 4.9837731959259965, 3.725919012584268, -3.3995815282990733, -0.4408520161585611, -2.793418619868762, 2.352035116880068, -0.2860931726865179, -0.3658088223692248]

>  <energy>  (24) 
-451.46305501293045

>  <inter_energy>  (24) 
-449.53157079684655

>  <intra_energy>  (24) 
1.4193292218516673

>  <rmsd>  (24) 
5.98221

>  <sdf_rank>  (24) 
0

$$$$

     RDKit          3D

 44 43  0  0  0  0  0  0  0  0999 V2000
    7.9031   32.6804   24.8203 C   0  0  0  0  0  0  0  0  0  0  0  0
    8.7597   36.0815   22.2036 C   0  0  0  0  0  0  0  0  0  0  0  0
    9.1594   37.5495   22.1669 C   0  0  0  0  0  0  0  0  0  0  0  0
   10.3562   37.9008   23.0329 C   0  0  0  0  0  0  0  0  0  0  0  0
   11.0381   39.1148   22.4235 C   0  0  0  0  0  0  0  0  0  0  0  0
   10.7658   39.1515   20.9336 C   0  0  0  0  0  0  0  0  0  0  0  0
   10.0618   40.4614   20.5923 C   0  0  0  0  0  0  0  0  0  0  0  0
    9.9583   40.6447   19.0932 C   0  0  0  0  0  0  0  0  0  0  0  0
    9.5005   42.0603   18.8214 C   0  0  0  0  0  0  0  0  0  0  0  0
    6.4206   32.9934   24.6804 C   0  0  0  0  0  0  0  0  0  0  0  0
    5.9164   32.4918   23.3317 C   0  0  0  0  0  0  0  0  0  0  0  0
    5.3876   33.7148   22.6123 C   0  0  0  0  0  0  0  0  0  0  0  0
    9.2405   34.5081   24.0634 C   0  0  0  0  0  0  0  0  0  0  0  0
    9.8471   35.2815   22.9177 C   0  0  0  0  0  0  0  0  0  0  0  0
    8.7214   33.3099   23.7899 N   0  0  0  0  0  0  0  0  0  0  0  0
    9.2263   34.9830   25.2026 O   0  0  0  0  0  0  0  0  0  0  0  0
    5.2102   34.7083   23.3219 O   0  0  0  0  0  0  0  0  0  0  0  0
    5.1705   33.7027   21.3780 O   0  0  0  0  0  0  0  0  0  0  0  0
    8.2444   33.0357   25.8038 H   0  0  0  0  0  0  0  0  0  0  0  0
    8.0198   31.5920   24.7118 H   0  0  0  0  0  0  0  0  0  0  0  0
    7.8081   35.9729   22.7446 H   0  0  0  0  0  0  0  0  0  0  0  0
    8.6395   35.7060   21.1767 H   0  0  0  0  0  0  0  0  0  0  0  0
    9.3994   37.8138   21.1265 H   0  0  0  0  0  0  0  0  0  0  0  0
    8.3063   38.1149   22.5700 H   0  0  0  0  0  0  0  0  0  0  0  0
   10.0219   38.1344   24.0545 H   0  0  0  0  0  0  0  0  0  0  0  0
   11.0558   37.0532   23.0791 H   0  0  0  0  0  0  0  0  0  0  0  0
   10.6447   40.0296   22.8908 H   0  0  0  0  0  0  0  0  0  0  0  0
   12.1226   39.0521   22.5968 H   0  0  0  0  0  0  0  0  0  0  0  0
   11.7160   39.0884   20.3829 H   0  0  0  0  0  0  0  0  0  0  0  0
   10.1286   38.3008   20.6501 H   0  0  0  0  0  0  0  0  0  0  0  0
    9.0503   40.4497   21.0243 H   0  0  0  0  0  0  0  0  0  0  0  0
   10.6480   41.2940   21.0084 H   0  0  0  0  0  0  0  0  0  0  0  0
   10.9408   40.4753   18.6285 H   0  0  0  0  0  0  0  0  0  0  0  0
    9.2411   39.9255   18.6709 H   0  0  0  0  0  0  0  0  0  0  0  0
    9.3321   42.5808   19.7757 H   0  0  0  0  0  0  0  0  0  0  0  0
   10.2727   42.5912   18.2454 H   0  0  0  0  0  0  0  0  0  0  0  0
    8.5636   42.0384   18.2454 H   0  0  0  0  0  0  0  0  0  0  0  0
    5.8636   32.4952   25.4876 H   0  0  0  0  0  0  0  0  0  0  0  0
    6.2694   34.0810   24.7451 H   0  0  0  0  0  0  0  0  0  0  0  0
    6.7383   32.0359   22.7602 H   0  0  0  0  0  0  0  0  0  0  0  0
    5.1395   31.7218   23.4491 H   0  0  0  0  0  0  0  0  0  0  0  0
   10.3107   34.5803   22.2082 H   0  0  0  0  0  0  0  0  0  0  0  0
   10.6102   35.9712   23.3075 H   0  0  0  0  0  0  0  0  0  0  0  0
    8.8920   32.8471   22.8856 H   0  0  0  0  0  0  0  0  0  0  0  0
  1 10  1  0
  1 15  1  0
  2  3  1  0
  2 14  1  0
  3  4  1  0
  4  5  1  0
  5  6  1  0
  6  7  1  0
  7  8  1  0
  8  9  1  0
 10 11  1  0
 11 12  1  0
 12 17  2  0
 12 18  1  0
 13 14  1  0
 13 15  1  0
 13 16  2  0
  1 19  1  0
  1 20  1  0
  2 21  1  0
  2 22  1  0
  3 23  1  0
  3 24  1  0
  4 25  1  0
  4 26  1  0
  5 27  1  0
  5 28  1  0
  6 29  1  0
  6 30  1  0
  7 31  1  0
  7 32  1  0
  8 33  1  0
  8 34  1  0
  9 35  1  0
  9 36  1  0
  9 37  1  0
 10 38  1  0
 10 39  1  0
 11 40  1  0
 11 41  1  0
 14 42  1  0
 14 43  1  0
 15 44  1  0
M  CHG  1  18  -1
M  END
>  <filename_input>  (25) 
7L5F_XNG_docked.sdf

>  <pdb_id>  (25) 
7L5F_XNG

>  <pose_rank>  (25) 
24

>  <num_atoms_heavy>  (25) 
18

>  <num_torsions>  (25) 
12

>  <pose>  (25) 
[9.240493036664231, 34.50811407077169, 24.06342307367679, -3.2931057280922897, 3.2023752153644516, -1.532873631961712, -1.5168445633158796, -7.040499797204724, 4.9415368318289445, 0.8371543529778466, -18.75090348333803, -4.803173673905352, 4.321492508907932, -0.9469994221094771, 2.927167003630543, 1.213729929534558, 0.582294603509216, -3.8686624475680427]

>  <energy>  (25) 
-450.9152599425684

>  <inter_energy>  (25) 
-448.3391301712208

>  <intra_energy>  (25) 
5.325521101315452

>  <rmsd>  (25) 
4.8277

>  <sdf_rank>  (25) 
0

$$$$

     RDKit          3D

 44 43  0  0  0  0  0  0  0  0999 V2000
   11.4150   35.3980   26.7920 C   0  0  0  0  0  0  0  0  0  0  0  0
    9.3290   35.1550   22.9960 C   0  0  0  0  0  0  0  0  0  0  0  0
    9.5390   36.6450   23.2240 C   0  0  0  0  0  0  0  0  0  0  0  0
    9.6820   37.4650   21.9540 C   0  0  0  0  0  0  0  0  0  0  0  0
   10.5170   38.6930   22.2780 C   0  0  0  0  0  0  0  0  0  0  0  0
   10.9820   39.3410   20.9900 C   0  0  0  0  0  0  0  0  0  0  0  0
    9.7750   39.5570   20.0820 C   0  0  0  0  0  0  0  0  0  0  0  0
    9.8370   40.9140   19.4140 C   0  0  0  0  0  0  0  0  0  0  0  0
   11.1870   41.0500   18.7460 C   0  0  0  0  0  0  0  0  0  0  0  0
   10.8670   34.8940   28.1190 C   0  0  0  0  0  0  0  0  0  0  0  0
   11.9440   34.0990   28.8490 C   0  0  0  0  0  0  0  0  0  0  0  0
   12.5870   33.2200   27.7970 C   0  0  0  0  0  0  0  0  0  0  0  0
   11.3470   35.0150   24.4360 C   0  0  0  0  0  0  0  0  0  0  0  0
   10.6440   34.4180   23.2410 C   0  0  0  0  0  0  0  0  0  0  0  0
   10.9330   34.6350   25.6460 N   0  0  0  0  0  0  0  0  0  0  0  0
   12.2630   35.8280   24.2830 O   0  0  0  0  0  0  0  0  0  0  0  0
   11.8380   32.3920   27.2720 O   0  0  0  0  0  0  0  0  0  0  0  0
   13.7930   33.3540   27.4830 O   0  0  0  0  0  0  0  0  0  0  0  0
   11.1133   36.4482   26.6651 H   0  0  0  0  0  0  0  0  0  0  0  0
   12.5086   35.2842   26.8248 H   0  0  0  0  0  0  0  0  0  0  0  0
    8.5629   34.7810   23.6911 H   0  0  0  0  0  0  0  0  0  0  0  0
    8.9968   34.9832   21.9615 H   0  0  0  0  0  0  0  0  0  0  0  0
    8.6759   37.0310   23.7862 H   0  0  0  0  0  0  0  0  0  0  0  0
   10.4892   36.7460   23.7689 H   0  0  0  0  0  0  0  0  0  0  0  0
   10.1830   36.8672   21.1783 H   0  0  0  0  0  0  0  0  0  0  0  0
    8.6920   37.7645   21.5796 H   0  0  0  0  0  0  0  0  0  0  0  0
    9.9092   39.4093   22.8503 H   0  0  0  0  0  0  0  0  0  0  0  0
   11.3913   38.3950   22.8753 H   0  0  0  0  0  0  0  0  0  0  0  0
   11.4542   40.3091   21.2132 H   0  0  0  0  0  0  0  0  0  0  0  0
   11.7141   38.6908   20.4887 H   0  0  0  0  0  0  0  0  0  0  0  0
    9.7619   38.7751   19.3084 H   0  0  0  0  0  0  0  0  0  0  0  0
    8.8620   39.5080   20.6937 H   0  0  0  0  0  0  0  0  0  0  0  0
    9.0390   40.9954   18.6612 H   0  0  0  0  0  0  0  0  0  0  0  0
    9.6995   41.7113   20.1593 H   0  0  0  0  0  0  0  0  0  0  0  0
   11.9701   41.1289   19.5145 H   0  0  0  0  0  0  0  0  0  0  0  0
   11.3764   40.1664   18.1188 H   0  0  0  0  0  0  0  0  0  0  0  0
   11.1964   41.9536   18.1188 H   0  0  0  0  0  0  0  0  0  0  0  0
   10.5617   35.7506   28.7379 H   0  0  0  0  0  0  0  0  0  0  0  0
    9.9981   34.2458   27.9325 H   0  0  0  0  0  0  0  0  0  0  0  0
   12.6892   34.7775   29.2899 H   0  0  0  0  0  0  0  0  0  0  0  0
   11.5221   33.5045   29.6728 H   0  0  0  0  0  0  0  0  0  0  0  0
   10.4371   33.3547   23.4321 H   0  0  0  0  0  0  0  0  0  0  0  0
   11.2870   34.5156   22.3539 H   0  0  0  0  0  0  0  0  0  0  0  0
   10.2974   33.8335   25.7664 H   0  0  0  0  0  0  0  0  0  0  0  0
  1 10  1  0
  1 15  1  0
  2  3  1  0
  2 14  1  0
  3  4  1  0
  4  5  1  0
  5  6  1  0
  6  7  1  0
  7  8  1  0
  8  9  1  0
 10 11  1  0
 11 12  1  0
 12 17  2  0
 12 18  1  0
 13 14  1  0
 13 15  1  0
 13 16  2  0
  1 19  1  0
  1 20  1  0
  2 21  1  0
  2 22  1  0
  3 23  1  0
  3 24  1  0
  4 25  1  0
  4 26  1  0
  5 27  1  0
  5 28  1  0
  6 29  1  0
  6 30  1  0
  7 31  1  0
  7 32  1  0
  8 33  1  0
  8 34  1  0
  9 35  1  0
  9 36  1  0
  9 37  1  0
 10 38  1  0
 10 39  1  0
 11 40  1  0
 11 41  1  0
 14 42  1  0
 14 43  1  0
 15 44  1  0
M  CHG  1  18  -1
M  END
>  <filename_input>  (26) 
7L5F_XNG_docked.sdf

>  <pdb_id>  (26) 
7L5F_XNG

>  <pose_rank>  (26) 
25

>  <num_atoms_heavy>  (26) 
18

>  <num_torsions>  (26) 
12

>  <pose>  (26) 
[11.347, 35.015, 24.436, 1e-06, 1e-06, 1e-06, 0.0, 0.0, 0.0, 0.0, 0.0, 0.0, 0.0, 0.0, 0.0, 0.0, 0.0, 0.0]

>  <energy>  (26) 
-553.4480737817369

>  <inter_energy>  (26) 
-608.6013443604018

>  <intra_energy>  (26) 
47.00980861803739

>  <rmsd>  (26) 
0.0

>  <sdf_rank>  (26) 
0

$$$$
