
     RDKit          3D

 34 36  0  0  0  0  0  0  0  0999 V2000
   19.2782  -12.9330    6.6269 C   0  0  0  0  0  0  0  0  0  0  0  0
   19.1253  -13.8407    7.6618 C   0  0  0  0  0  0  0  0  0  0  0  0
   18.5682  -12.3351    3.0696 C   0  0  0  0  0  0  0  0  0  0  0  0
   19.1791  -13.3451    5.2965 C   0  0  0  0  0  0  0  0  0  0  0  0
   18.8039  -11.4676    2.0133 C   0  0  0  0  0  0  0  0  0  0  0  0
   18.7094  -15.5792    6.0631 C   0  0  0  0  0  0  0  0  0  0  0  0
   18.8503  -15.1726    7.3886 C   0  0  0  0  0  0  0  0  0  0  0  0
   19.4266  -12.3973    4.1809 C   0  0  0  0  0  0  0  0  0  0  0  0
   17.6406  -17.0932    4.5182 C   0  0  0  0  0  0  0  0  0  0  0  0
   18.3189  -16.8674    5.7646 O   0  0  0  0  0  0  0  0  0  0  0  0
   20.5070   -9.6475    1.1685 C   0  0  0  0  0  0  0  0  0  0  0  0
   19.9850   -9.1869   -0.1533 C   0  0  0  0  0  0  0  0  0  0  0  0
   18.7287   -8.3676   -0.0252 C   0  0  0  0  0  0  0  0  0  0  0  0
   21.6160   -9.2263    1.7956 C   0  0  0  0  0  0  0  0  0  0  0  0
   20.7477  -10.6993    3.1586 C   0  0  0  0  0  0  0  0  0  0  0  0
   20.5419  -11.5524    4.2190 C   0  0  0  0  0  0  0  0  0  0  0  0
   18.8768  -14.6801    5.0254 C   0  0  0  0  0  0  0  0  0  0  0  0
   19.9196  -10.6288    2.0508 C   0  0  0  0  0  0  0  0  0  0  0  0
   17.6162   -9.0519   -0.1943 O   0  0  0  0  0  0  0  0  0  0  0  0
   18.7747   -7.2051    0.2746 O   0  0  0  0  0  0  0  0  0  0  0  0
   21.8065   -9.8349    3.0151 O   0  0  0  0  0  0  0  0  0  0  0  0
   19.4798  -11.8761    6.8555 H   0  0  0  0  0  0  0  0  0  0  0  0
   19.2224  -13.5041    8.7046 H   0  0  0  0  0  0  0  0  0  0  0  0
   17.6863  -12.9917    3.0367 H   0  0  0  0  0  0  0  0  0  0  0  0
   18.1179  -11.4406    1.1538 H   0  0  0  0  0  0  0  0  0  0  0  0
   18.7446  -15.8988    8.2081 H   0  0  0  0  0  0  0  0  0  0  0  0
   16.6139  -17.4350    4.7162 H   0  0  0  0  0  0  0  0  0  0  0  0
   17.6105  -16.1566    3.9422 H   0  0  0  0  0  0  0  0  0  0  0  0
   18.1780  -17.8609    3.9422 H   0  0  0  0  0  0  0  0  0  0  0  0
   20.7566   -8.5747   -0.6430 H   0  0  0  0  0  0  0  0  0  0  0  0
   19.7410  -10.0812   -0.7455 H   0  0  0  0  0  0  0  0  0  0  0  0
   22.3011   -8.4735    1.3786 H   0  0  0  0  0  0  0  0  0  0  0  0
   21.2350  -11.5698    5.0730 H   0  0  0  0  0  0  0  0  0  0  0  0
   18.7714  -15.0183    3.9840 H   0  0  0  0  0  0  0  0  0  0  0  0
  1  2  2  0
  1  4  1  0
  2  7  1  0
  3  5  2  0
  3  8  1  0
  4  8  1  0
  4 17  2  0
  5 18  1  0
  6  7  2  0
  6 10  1  0
  6 17  1  0
  8 16  2  0
  9 10  1  0
 11 12  1  0
 11 14  2  0
 11 18  1  0
 12 13  1  0
 13 19  2  0
 13 20  1  0
 14 21  1  0
 15 16  1  0
 15 18  2  0
 15 21  1  0
  1 22  1  0
  2 23  1  0
  3 24  1  0
  5 25  1  0
  7 26  1  0
  9 27  1  0
  9 28  1  0
  9 29  1  0
 12 30  1  0
 12 31  1  0
 14 32  1  0
 16 33  1  0
 17 34  1  0
M  CHG  1  20  -1
M  END
>  <filename_input>  (1) 
7L7C_XQ1_docked.sdf

>  <pdb_id>  (1) 
7L7C_XQ1

>  <pose_rank>  (1) 
0

>  <num_atoms_heavy>  (1) 
21

>  <num_torsions>  (1) 
4

>  <pose>  (1) 
[18.568190247895355, -12.335102674206025, 3.069596569273881, 3.361919772053165, 3.452984302972486, -3.8522068183277036, -12.495847658220187, 5.971872364800097, -6.046443388522232, 0.20999554419212438]

>  <energy>  (1) 
-854.8270591301696

>  <inter_energy>  (1) 
-841.5826200026352

>  <intra_energy>  (1) 
0.6697527757489432

>  <rmsd>  (1) 
0.369413

>  <sdf_rank>  (1) 
0

$$$$

     RDKit          3D

 34 36  0  0  0  0  0  0  0  0999 V2000
   19.2698  -12.8017    6.4438 C   0  0  0  0  0  0  0  0  0  0  0  0
   19.1847  -13.6675    7.5215 C   0  0  0  0  0  0  0  0  0  0  0  0
   20.5146  -11.5749    3.8378 C   0  0  0  0  0  0  0  0  0  0  0  0
   19.1898  -13.2820    5.1351 C   0  0  0  0  0  0  0  0  0  0  0  0
   20.6776  -10.7080    2.7675 C   0  0  0  0  0  0  0  0  0  0  0  0
   18.8756  -15.5036    6.0100 C   0  0  0  0  0  0  0  0  0  0  0  0
   18.9976  -15.0262    7.3136 C   0  0  0  0  0  0  0  0  0  0  0  0
   19.3660  -12.3737    3.9741 C   0  0  0  0  0  0  0  0  0  0  0  0
   17.7829  -17.1416    4.6157 C   0  0  0  0  0  0  0  0  0  0  0  0
   18.5701  -16.8275    5.7760 O   0  0  0  0  0  0  0  0  0  0  0  0
   19.4668   -9.8511    0.5933 C   0  0  0  0  0  0  0  0  0  0  0  0
   20.3924   -8.8506   -0.0182 C   0  0  0  0  0  0  0  0  0  0  0  0
   20.5463   -7.6138    0.8259 C   0  0  0  0  0  0  0  0  0  0  0  0
   18.2649  -10.2327    0.1346 C   0  0  0  0  0  0  0  0  0  0  0  0
   18.5600  -11.4265    1.9426 C   0  0  0  0  0  0  0  0  0  0  0  0
   18.3687  -12.2924    2.9954 C   0  0  0  0  0  0  0  0  0  0  0  0
   18.9757  -14.6455    4.9298 C   0  0  0  0  0  0  0  0  0  0  0  0
   19.6794  -10.6247    1.7944 C   0  0  0  0  0  0  0  0  0  0  0  0
   19.4315   -6.9346    1.0000 O   0  0  0  0  0  0  0  0  0  0  0  0
   21.5983   -7.3391    1.3372 O   0  0  0  0  0  0  0  0  0  0  0  0
   17.6716  -11.1942    0.9202 O   0  0  0  0  0  0  0  0  0  0  0  0
   19.4017  -11.7240    6.6207 H   0  0  0  0  0  0  0  0  0  0  0  0
   19.2659  -13.2762    8.5463 H   0  0  0  0  0  0  0  0  0  0  0  0
   21.3050  -11.6391    4.6001 H   0  0  0  0  0  0  0  0  0  0  0  0
   21.5850  -10.0916    2.6858 H   0  0  0  0  0  0  0  0  0  0  0  0
   18.9461  -15.7182    8.1671 H   0  0  0  0  0  0  0  0  0  0  0  0
   16.8042  -17.5321    4.9313 H   0  0  0  0  0  0  0  0  0  0  0  0
   17.6381  -16.2324    4.0137 H   0  0  0  0  0  0  0  0  0  0  0  0
   18.3038  -17.9008    4.0137 H   0  0  0  0  0  0  0  0  0  0  0  0
   21.3810   -9.3162   -0.1447 H   0  0  0  0  0  0  0  0  0  0  0  0
   19.9622   -8.5443   -0.9831 H   0  0  0  0  0  0  0  0  0  0  0  0
   17.8023   -9.8201   -0.7742 H   0  0  0  0  0  0  0  0  0  0  0  0
   17.4570  -12.9038    3.0656 H   0  0  0  0  0  0  0  0  0  0  0  0
   18.8864  -15.0389    3.9064 H   0  0  0  0  0  0  0  0  0  0  0  0
  1  2  2  0
  1  4  1  0
  2  7  1  0
  3  5  2  0
  3  8  1  0
  4  8  1  0
  4 17  2  0
  5 18  1  0
  6  7  2  0
  6 10  1  0
  6 17  1  0
  8 16  2  0
  9 10  1  0
 11 12  1  0
 11 14  2  0
 11 18  1  0
 12 13  1  0
 13 19  2  0
 13 20  1  0
 14 21  1  0
 15 16  1  0
 15 18  2  0
 15 21  1  0
  1 22  1  0
  2 23  1  0
  3 24  1  0
  5 25  1  0
  7 26  1  0
  9 27  1  0
  9 28  1  0
  9 29  1  0
 12 30  1  0
 12 31  1  0
 14 32  1  0
 16 33  1  0
 17 34  1  0
M  CHG  1  20  -1
M  END
>  <filename_input>  (2) 
7L7C_XQ1_docked.sdf

>  <pdb_id>  (2) 
7L7C_XQ1

>  <pose_rank>  (2) 
1

>  <num_atoms_heavy>  (2) 
21

>  <num_torsions>  (2) 
4

>  <pose>  (2) 
[20.51459581127505, -11.574935075848975, 3.837803452164837, -0.4472776034524267, -2.0097905464676926, 2.3539816048527427, 3.3822239144701327, -0.4187193792642066, -2.1653053638087645, 0.8012495894627669]

>  <energy>  (2) 
-827.3866755155067

>  <inter_energy>  (2) 
-829.7510531648409

>  <intra_energy>  (2) 
0.6283594334836028

>  <rmsd>  (2) 
2.09546

>  <sdf_rank>  (2) 
0

$$$$

     RDKit          3D

 34 36  0  0  0  0  0  0  0  0999 V2000
   18.0626  -15.0530    3.9378 C   0  0  0  0  0  0  0  0  0  0  0  0
   17.6203  -16.0933    4.7381 C   0  0  0  0  0  0  0  0  0  0  0  0
   18.5116  -12.5119    2.4630 C   0  0  0  0  0  0  0  0  0  0  0  0
   18.7894  -13.9929    4.4834 C   0  0  0  0  0  0  0  0  0  0  0  0
   18.8952  -11.4423    1.6677 C   0  0  0  0  0  0  0  0  0  0  0  0
   18.6737  -15.0701    6.6341 C   0  0  0  0  0  0  0  0  0  0  0  0
   17.9129  -16.1053    6.0940 C   0  0  0  0  0  0  0  0  0  0  0  0
   19.1928  -12.8323    3.6501 C   0  0  0  0  0  0  0  0  0  0  0  0
   20.1294  -14.2222    8.3613 C   0  0  0  0  0  0  0  0  0  0  0  0
   19.0813  -15.1151    7.9504 O   0  0  0  0  0  0  0  0  0  0  0  0
   20.6874   -9.5219    1.5028 C   0  0  0  0  0  0  0  0  0  0  0  0
   20.3665   -8.7748    0.2495 C   0  0  0  0  0  0  0  0  0  0  0  0
   19.5147   -7.5598    0.5028 C   0  0  0  0  0  0  0  0  0  0  0  0
   21.6845   -9.2715    2.3653 C   0  0  0  0  0  0  0  0  0  0  0  0
   20.6355  -10.9841    3.2303 C   0  0  0  0  0  0  0  0  0  0  0  0
   20.2807  -12.0412    4.0372 C   0  0  0  0  0  0  0  0  0  0  0  0
   19.1043  -14.0207    5.8425 C   0  0  0  0  0  0  0  0  0  0  0  0
   19.9837  -10.6570    2.0529 C   0  0  0  0  0  0  0  0  0  0  0  0
   20.1644   -6.5435    1.0317 O   0  0  0  0  0  0  0  0  0  0  0  0
   18.3595   -7.5330    0.1737 O   0  0  0  0  0  0  0  0  0  0  0  0
   21.6948  -10.1334    3.4380 O   0  0  0  0  0  0  0  0  0  0  0  0
   17.8388  -15.0620    2.8608 H   0  0  0  0  0  0  0  0  0  0  0  0
   17.0347  -16.9132    4.2968 H   0  0  0  0  0  0  0  0  0  0  0  0
   17.6517  -13.1257    2.1567 H   0  0  0  0  0  0  0  0  0  0  0  0
   18.3468  -11.2146    0.7417 H   0  0  0  0  0  0  0  0  0  0  0  0
   17.5490  -16.9219    6.7350 H   0  0  0  0  0  0  0  0  0  0  0  0
   20.1712  -14.1866    9.4599 H   0  0  0  0  0  0  0  0  0  0  0  0
   21.0922  -14.5818    7.9692 H   0  0  0  0  0  0  0  0  0  0  0  0
   19.9273  -13.2145    7.9692 H   0  0  0  0  0  0  0  0  0  0  0  0
   21.3079   -8.4536   -0.2202 H   0  0  0  0  0  0  0  0  0  0  0  0
   19.7969   -9.4508   -0.4051 H   0  0  0  0  0  0  0  0  0  0  0  0
   22.4168   -8.4621    2.2290 H   0  0  0  0  0  0  0  0  0  0  0  0
   20.8369  -12.2584    4.9610 H   0  0  0  0  0  0  0  0  0  0  0  0
   19.6963  -13.2062    6.2854 H   0  0  0  0  0  0  0  0  0  0  0  0
  1  2  2  0
  1  4  1  0
  2  7  1  0
  3  5  2  0
  3  8  1  0
  4  8  1  0
  4 17  2  0
  5 18  1  0
  6  7  2  0
  6 10  1  0
  6 17  1  0
  8 16  2  0
  9 10  1  0
 11 12  1  0
 11 14  2  0
 11 18  1  0
 12 13  1  0
 13 19  2  0
 13 20  1  0
 14 21  1  0
 15 16  1  0
 15 18  2  0
 15 21  1  0
  1 22  1  0
  2 23  1  0
  3 24  1  0
  5 25  1  0
  7 26  1  0
  9 27  1  0
  9 28  1  0
  9 29  1  0
 12 30  1  0
 12 31  1  0
 14 32  1  0
 16 33  1  0
 17 34  1  0
M  CHG  1  20  -1
M  END
>  <filename_input>  (3) 
7L7C_XQ1_docked.sdf

>  <pdb_id>  (3) 
7L7C_XQ1

>  <pose_rank>  (3) 
2

>  <num_atoms_heavy>  (3) 
21

>  <num_torsions>  (3) 
4

>  <pose>  (3) 
[18.511642863345966, -12.511915776754995, 2.463008142719169, -3.3208259403309346, 4.873895113057472, -1.1490741882210656, 2.809257896133593, -0.12155342974122062, 0.6755476212698522, 3.2011594540043955]

>  <energy>  (3) 
-690.1671252583176

>  <inter_energy>  (3) 
-691.1830034347013

>  <intra_energy>  (3) 
1.252221782443434

>  <rmsd>  (3) 
2.028

>  <sdf_rank>  (3) 
0

$$$$

     RDKit          3D

 34 36  0  0  0  0  0  0  0  0999 V2000
   19.1477  -12.3751    6.0556 C   0  0  0  0  0  0  0  0  0  0  0  0
   19.5079  -13.2009    7.1075 C   0  0  0  0  0  0  0  0  0  0  0  0
   19.0943  -12.1404    2.4929 C   0  0  0  0  0  0  0  0  0  0  0  0
   18.6776  -12.9126    4.8556 C   0  0  0  0  0  0  0  0  0  0  0  0
   18.8287  -11.3150    1.4104 C   0  0  0  0  0  0  0  0  0  0  0  0
   18.8780  -15.1155    5.8078 C   0  0  0  0  0  0  0  0  0  0  0  0
   19.3862  -14.5776    6.9888 C   0  0  0  0  0  0  0  0  0  0  0  0
   18.3711  -12.0403    3.6941 C   0  0  0  0  0  0  0  0  0  0  0  0
   17.6130  -16.8995    4.7890 C   0  0  0  0  0  0  0  0  0  0  0  0
   18.6334  -16.4684    5.7041 O   0  0  0  0  0  0  0  0  0  0  0  0
   17.2752   -9.3309    0.6508 C   0  0  0  0  0  0  0  0  0  0  0  0
   17.6806   -9.0130   -0.7514 C   0  0  0  0  0  0  0  0  0  0  0  0
   16.5121   -8.9910   -1.7002 C   0  0  0  0  0  0  0  0  0  0  0  0
   16.3208   -8.7289    1.3770 C   0  0  0  0  0  0  0  0  0  0  0  0
   17.1084  -10.2835    2.6977 C   0  0  0  0  0  0  0  0  0  0  0  0
   17.3521  -11.0855    3.7895 C   0  0  0  0  0  0  0  0  0  0  0  0
   18.5318  -14.2962    4.7485 C   0  0  0  0  0  0  0  0  0  0  0  0
   17.8148  -10.3598    1.5089 C   0  0  0  0  0  0  0  0  0  0  0  0
   15.9324   -7.8144   -1.8185 O   0  0  0  0  0  0  0  0  0  0  0  0
   16.2067   -9.9674   -2.3302 O   0  0  0  0  0  0  0  0  0  0  0  0
   16.1773   -9.2748    2.6320 O   0  0  0  0  0  0  0  0  0  0  0  0
   19.2329  -11.2840    6.1666 H   0  0  0  0  0  0  0  0  0  0  0  0
   19.8921  -12.7634    8.0407 H   0  0  0  0  0  0  0  0  0  0  0  0
   19.8920  -12.8933    2.4093 H   0  0  0  0  0  0  0  0  0  0  0  0
   19.4114  -11.4120    0.4825 H   0  0  0  0  0  0  0  0  0  0  0  0
   19.6869  -15.2366    7.8166 H   0  0  0  0  0  0  0  0  0  0  0  0
   16.7441  -17.2666    5.3550 H   0  0  0  0  0  0  0  0  0  0  0  0
   17.3072  -16.0536    4.1557 H   0  0  0  0  0  0  0  0  0  0  0  0
   18.0064  -17.7083    4.1557 H   0  0  0  0  0  0  0  0  0  0  0  0
   18.1628   -8.0244   -0.7633 H   0  0  0  0  0  0  0  0  0  0  0  0
   18.3680   -9.8034   -1.0872 H   0  0  0  0  0  0  0  0  0  0  0  0
   15.7164   -7.8872    1.0078 H   0  0  0  0  0  0  0  0  0  0  0  0
   16.7621  -10.9790    4.7117 H   0  0  0  0  0  0  0  0  0  0  0  0
   18.1407  -14.7364    3.8194 H   0  0  0  0  0  0  0  0  0  0  0  0
  1  2  2  0
  1  4  1  0
  2  7  1  0
  3  5  2  0
  3  8  1  0
  4  8  1  0
  4 17  2  0
  5 18  1  0
  6  7  2  0
  6 10  1  0
  6 17  1  0
  8 16  2  0
  9 10  1  0
 11 12  1  0
 11 14  2  0
 11 18  1  0
 12 13  1  0
 13 19  2  0
 13 20  1  0
 14 21  1  0
 15 16  1  0
 15 18  2  0
 15 21  1  0
  1 22  1  0
  2 23  1  0
  3 24  1  0
  5 25  1  0
  7 26  1  0
  9 27  1  0
  9 28  1  0
  9 29  1  0
 12 30  1  0
 12 31  1  0
 14 32  1  0
 16 33  1  0
 17 34  1  0
M  CHG  1  20  -1
M  END
>  <filename_input>  (4) 
7L7C_XQ1_docked.sdf

>  <pdb_id>  (4) 
7L7C_XQ1

>  <pose_rank>  (4) 
3

>  <num_atoms_heavy>  (4) 
21

>  <num_torsions>  (4) 
4

>  <pose>  (4) 
[19.094307860840285, -12.14044022552285, 2.4929437171305655, 0.07055982955360507, 2.331434588494568, -3.667334717662574, 4.446311501528249, -0.32342298471549347, 1.2381660983188818, -2.8273009404282017]

>  <energy>  (4) 
-664.9780500130798

>  <inter_energy>  (4) 
-666.6096929950832

>  <intra_energy>  (4) 
1.930020006728859

>  <rmsd>  (4) 
2.68329

>  <sdf_rank>  (4) 
0

$$$$

     RDKit          3D

 34 36  0  0  0  0  0  0  0  0999 V2000
   19.6072  -10.2136    1.5229 C   0  0  0  0  0  0  0  0  0  0  0  0
   19.4329   -9.2759    0.5185 C   0  0  0  0  0  0  0  0  0  0  0  0
   18.4512  -13.3586    2.8974 C   0  0  0  0  0  0  0  0  0  0  0  0
   18.5523  -11.0378    1.9199 C   0  0  0  0  0  0  0  0  0  0  0  0
   18.5711  -14.2471    3.9558 C   0  0  0  0  0  0  0  0  0  0  0  0
   17.1655  -10.0068    0.2425 C   0  0  0  0  0  0  0  0  0  0  0  0
   18.2084   -9.1575   -0.1225 C   0  0  0  0  0  0  0  0  0  0  0  0
   18.7053  -11.9849    3.0528 C   0  0  0  0  0  0  0  0  0  0  0  0
   15.9925  -10.4497   -1.8188 C   0  0  0  0  0  0  0  0  0  0  0  0
   15.9769   -9.9947   -0.4559 O   0  0  0  0  0  0  0  0  0  0  0  0
   19.1563  -14.3470    6.5199 C   0  0  0  0  0  0  0  0  0  0  0  0
   19.0281  -15.7837    6.9090 C   0  0  0  0  0  0  0  0  0  0  0  0
   17.8339  -16.4489    6.2788 C   0  0  0  0  0  0  0  0  0  0  0  0
   19.4948  -13.3179    7.3117 C   0  0  0  0  0  0  0  0  0  0  0  0
   19.2118  -12.4157    5.3401 C   0  0  0  0  0  0  0  0  0  0  0  0
   19.0972  -11.5101    4.3099 C   0  0  0  0  0  0  0  0  0  0  0  0
   17.3295  -10.9340    1.2557 C   0  0  0  0  0  0  0  0  0  0  0  0
   18.9576  -13.7709    5.2103 C   0  0  0  0  0  0  0  0  0  0  0  0
   18.1087  -17.1360    5.1893 O   0  0  0  0  0  0  0  0  0  0  0  0
   16.7495  -16.3922    6.7931 O   0  0  0  0  0  0  0  0  0  0  0  0
   19.5459  -12.1182    6.6395 O   0  0  0  0  0  0  0  0  0  0  0  0
   20.5872  -10.3100    2.0131 H   0  0  0  0  0  0  0  0  0  0  0  0
   20.2688   -8.6225    0.2280 H   0  0  0  0  0  0  0  0  0  0  0  0
   18.1493  -13.7391    1.9105 H   0  0  0  0  0  0  0  0  0  0  0  0
   18.3636  -15.3172    3.8082 H   0  0  0  0  0  0  0  0  0  0  0  0
   18.0624   -8.4026   -0.9092 H   0  0  0  0  0  0  0  0  0  0  0  0
   16.0303  -11.5489   -1.8380 H   0  0  0  0  0  0  0  0  0  0  0  0
   15.0820  -10.1051   -2.3309 H   0  0  0  0  0  0  0  0  0  0  0  0
   16.8772  -10.0435   -2.3309 H   0  0  0  0  0  0  0  0  0  0  0  0
   19.9366  -16.3170    6.5923 H   0  0  0  0  0  0  0  0  0  0  0  0
   18.8946  -15.8230    8.0001 H   0  0  0  0  0  0  0  0  0  0  0  0
   19.7090  -13.4223    8.3856 H   0  0  0  0  0  0  0  0  0  0  0  0
   19.3078  -10.4424    4.4701 H   0  0  0  0  0  0  0  0  0  0  0  0
   16.4940  -11.5912    1.5386 H   0  0  0  0  0  0  0  0  0  0  0  0
  1  2  2  0
  1  4  1  0
  2  7  1  0
  3  5  2  0
  3  8  1  0
  4  8  1  0
  4 17  2  0
  5 18  1  0
  6  7  2  0
  6 10  1  0
  6 17  1  0
  8 16  2  0
  9 10  1  0
 11 12  1  0
 11 14  2  0
 11 18  1  0
 12 13  1  0
 13 19  2  0
 13 20  1  0
 14 21  1  0
 15 16  1  0
 15 18  2  0
 15 21  1  0
  1 22  1  0
  2 23  1  0
  3 24  1  0
  5 25  1  0
  7 26  1  0
  9 27  1  0
  9 28  1  0
  9 29  1  0
 12 30  1  0
 12 31  1  0
 14 32  1  0
 16 33  1  0
 17 34  1  0
M  CHG  1  20  -1
M  END
>  <filename_input>  (5) 
7L7C_XQ1_docked.sdf

>  <pdb_id>  (5) 
7L7C_XQ1

>  <pose_rank>  (5) 
4

>  <num_atoms_heavy>  (5) 
21

>  <num_torsions>  (5) 
4

>  <pose>  (5) 
[18.451221154121946, -13.358640169396768, 2.8974281262707993, -1.869586746672038, -1.6850729702727678, -1.566941830454119, -6.032138116288411, -1.8249412282381572, -1.7095720693448655, -2.692256781568688]

>  <energy>  (5) 
-650.1165986799182

>  <inter_energy>  (5) 
-664.1265665592856

>  <intra_energy>  (5) 
13.891224635838558

>  <rmsd>  (5) 
7.16636

>  <sdf_rank>  (5) 
0

$$$$

     RDKit          3D

 34 36  0  0  0  0  0  0  0  0999 V2000
   18.4188  -10.8520    0.8284 C   0  0  0  0  0  0  0  0  0  0  0  0
   18.4838   -9.8968   -0.1724 C   0  0  0  0  0  0  0  0  0  0  0  0
   18.7094  -13.1049    2.7240 C   0  0  0  0  0  0  0  0  0  0  0  0
   19.2463  -10.7671    1.9500 C   0  0  0  0  0  0  0  0  0  0  0  0
   18.6844  -14.0981    3.6918 C   0  0  0  0  0  0  0  0  0  0  0  0
   20.1586   -8.7174    1.0748 C   0  0  0  0  0  0  0  0  0  0  0  0
   19.3611   -8.8278   -0.0627 C   0  0  0  0  0  0  0  0  0  0  0  0
   19.2445  -11.8315    2.9849 C   0  0  0  0  0  0  0  0  0  0  0  0
   22.3708   -7.8022    1.3741 C   0  0  0  0  0  0  0  0  0  0  0  0
   20.9513   -7.6060    1.2677 O   0  0  0  0  0  0  0  0  0  0  0  0
   19.3317  -14.5623    6.2003 C   0  0  0  0  0  0  0  0  0  0  0  0
   18.9271  -15.9752    6.4682 C   0  0  0  0  0  0  0  0  0  0  0  0
   17.7201  -16.3920    5.6712 C   0  0  0  0  0  0  0  0  0  0  0  0
   19.9026  -13.7038    7.0592 C   0  0  0  0  0  0  0  0  0  0  0  0
   19.7369  -12.5756    5.1934 C   0  0  0  0  0  0  0  0  0  0  0  0
   19.7715  -11.5694    4.2548 C   0  0  0  0  0  0  0  0  0  0  0  0
   20.1091   -9.6771    2.0697 C   0  0  0  0  0  0  0  0  0  0  0  0
   19.2064  -13.8334    4.9596 C   0  0  0  0  0  0  0  0  0  0  0  0
   16.6392  -16.6005    6.3941 O   0  0  0  0  0  0  0  0  0  0  0  0
   17.7597  -16.4521    4.4719 O   0  0  0  0  0  0  0  0  0  0  0  0
   20.1728  -12.4789    6.4932 O   0  0  0  0  0  0  0  0  0  0  0  0
   17.7078  -11.6865    0.7387 H   0  0  0  0  0  0  0  0  0  0  0  0
   17.8371   -9.9861   -1.0578 H   0  0  0  0  0  0  0  0  0  0  0  0
   18.2997  -13.3193    1.7259 H   0  0  0  0  0  0  0  0  0  0  0  0
   18.2573  -15.0855    3.4626 H   0  0  0  0  0  0  0  0  0  0  0  0
   19.4264   -8.0767   -0.8637 H   0  0  0  0  0  0  0  0  0  0  0  0
   22.6570   -7.8417    2.4354 H   0  0  0  0  0  0  0  0  0  0  0  0
   22.6481   -8.7471    0.8841 H   0  0  0  0  0  0  0  0  0  0  0  0
   22.8939   -6.9678    0.8841 H   0  0  0  0  0  0  0  0  0  0  0  0
   19.7665  -16.6373    6.2091 H   0  0  0  0  0  0  0  0  0  0  0  0
   18.6654  -16.0507    7.5340 H   0  0  0  0  0  0  0  0  0  0  0  0
   20.1306  -13.9530    8.1061 H   0  0  0  0  0  0  0  0  0  0  0  0
   20.2017  -10.5862    4.4961 H   0  0  0  0  0  0  0  0  0  0  0  0
   20.7515   -9.5808    2.9574 H   0  0  0  0  0  0  0  0  0  0  0  0
  1  2  2  0
  1  4  1  0
  2  7  1  0
  3  5  2  0
  3  8  1  0
  4  8  1  0
  4 17  2  0
  5 18  1  0
  6  7  2  0
  6 10  1  0
  6 17  1  0
  8 16  2  0
  9 10  1  0
 11 12  1  0
 11 14  2  0
 11 18  1  0
 12 13  1  0
 13 19  2  0
 13 20  1  0
 14 21  1  0
 15 16  1  0
 15 18  2  0
 15 21  1  0
  1 22  1  0
  2 23  1  0
  3 24  1  0
  5 25  1  0
  7 26  1  0
  9 27  1  0
  9 28  1  0
  9 29  1  0
 12 30  1  0
 12 31  1  0
 14 32  1  0
 16 33  1  0
 17 34  1  0
M  CHG  1  20  -1
M  END
>  <filename_input>  (6) 
7L7C_XQ1_docked.sdf

>  <pdb_id>  (6) 
7L7C_XQ1

>  <pose_rank>  (6) 
5

>  <num_atoms_heavy>  (6) 
21

>  <num_torsions>  (6) 
4

>  <pose>  (6) 
[18.70940411998374, -13.104869442646613, 2.723958801612771, 2.279899999328778, 1.5595387986084224, 1.7966005816325255, 2.726104706863502, 1.2046026461147554, -1.5465353399355293, -0.06251837417463077]

>  <energy>  (6) 
-618.020939157228

>  <inter_energy>  (6) 
-665.967159557632

>  <intra_energy>  (6) 
48.51196930101527

>  <rmsd>  (6) 
7.30975

>  <sdf_rank>  (6) 
0

$$$$

     RDKit          3D

 34 36  0  0  0  0  0  0  0  0999 V2000
   19.2588  -15.2983    4.1578 C   0  0  0  0  0  0  0  0  0  0  0  0
   19.2830  -16.2774    5.1372 C   0  0  0  0  0  0  0  0  0  0  0  0
   20.0571  -12.1959    3.0029 C   0  0  0  0  0  0  0  0  0  0  0  0
   19.0464  -13.9595    4.4930 C   0  0  0  0  0  0  0  0  0  0  0  0
   19.9566  -11.2049    2.0377 C   0  0  0  0  0  0  0  0  0  0  0  0
   18.9457  -14.5957    6.8135 C   0  0  0  0  0  0  0  0  0  0  0  0
   19.1163  -15.9359    6.4714 C   0  0  0  0  0  0  0  0  0  0  0  0
   18.9331  -12.9162    3.4429 C   0  0  0  0  0  0  0  0  0  0  0  0
   18.6405  -12.8292    8.4283 C   0  0  0  0  0  0  0  0  0  0  0  0
   18.8975  -14.2126    8.1370 O   0  0  0  0  0  0  0  0  0  0  0  0
   18.2028   -9.9674    0.5146 C   0  0  0  0  0  0  0  0  0  0  0  0
   18.9842   -8.9657   -0.2713 C   0  0  0  0  0  0  0  0  0  0  0  0
   18.9441   -7.5914    0.3417 C   0  0  0  0  0  0  0  0  0  0  0  0
   16.8805  -10.1897    0.4610 C   0  0  0  0  0  0  0  0  0  0  0  0
   17.6161  -11.6399    1.9230 C   0  0  0  0  0  0  0  0  0  0  0  0
   17.6843  -12.6253    2.8815 C   0  0  0  0  0  0  0  0  0  0  0  0
   18.9048  -13.6159    5.8380 C   0  0  0  0  0  0  0  0  0  0  0  0
   18.7092  -10.9128    1.4821 C   0  0  0  0  0  0  0  0  0  0  0  0
   20.1184   -7.1350    0.7254 O   0  0  0  0  0  0  0  0  0  0  0  0
   17.9192   -6.9667    0.3966 O   0  0  0  0  0  0  0  0  0  0  0  0
   16.4725  -11.2023    1.2989 O   0  0  0  0  0  0  0  0  0  0  0  0
   19.4085  -15.5784    3.1047 H   0  0  0  0  0  0  0  0  0  0  0  0
   19.4350  -17.3299    4.8560 H   0  0  0  0  0  0  0  0  0  0  0  0
   21.0424  -12.4243    3.4353 H   0  0  0  0  0  0  0  0  0  0  0  0
   20.8515  -10.6539    1.7128 H   0  0  0  0  0  0  0  0  0  0  0  0
   19.1187  -16.7133    7.2496 H   0  0  0  0  0  0  0  0  0  0  0  0
   18.6133  -12.6829    9.5182 H   0  0  0  0  0  0  0  0  0  0  0  0
   19.4388  -12.2089    7.9948 H   0  0  0  0  0  0  0  0  0  0  0  0
   17.6727  -12.5369    7.9948 H   0  0  0  0  0  0  0  0  0  0  0  0
   20.0315   -9.2979   -0.3234 H   0  0  0  0  0  0  0  0  0  0  0  0
   18.5301   -8.8983   -1.2709 H   0  0  0  0  0  0  0  0  0  0  0  0
   16.1946   -9.6221   -0.1850 H   0  0  0  0  0  0  0  0  0  0  0  0
   16.7821  -13.1694    3.1978 H   0  0  0  0  0  0  0  0  0  0  0  0
   18.7604  -12.5634    6.1231 H   0  0  0  0  0  0  0  0  0  0  0  0
  1  2  2  0
  1  4  1  0
  2  7  1  0
  3  5  2  0
  3  8  1  0
  4  8  1  0
  4 17  2  0
  5 18  1  0
  6  7  2  0
  6 10  1  0
  6 17  1  0
  8 16  2  0
  9 10  1  0
 11 12  1  0
 11 14  2  0
 11 18  1  0
 12 13  1  0
 13 19  2  0
 13 20  1  0
 14 21  1  0
 15 16  1  0
 15 18  2  0
 15 21  1  0
  1 22  1  0
  2 23  1  0
  3 24  1  0
  5 25  1  0
  7 26  1  0
  9 27  1  0
  9 28  1  0
  9 29  1  0
 12 30  1  0
 12 31  1  0
 14 32  1  0
 16 33  1  0
 17 34  1  0
M  CHG  1  20  -1
M  END
>  <filename_input>  (7) 
7L7C_XQ1_docked.sdf

>  <pdb_id>  (7) 
7L7C_XQ1

>  <pose_rank>  (7) 
6

>  <num_atoms_heavy>  (7) 
21

>  <num_torsions>  (7) 
4

>  <pose>  (7) 
[20.057117092617666, -12.195931136320885, 3.002856173417816, -0.12012640422568208, -1.9070685857284624, 2.063926819747504, 0.8161983123097645, 0.21558548149065349, 3.5959765567515025, -2.345211114442342]

>  <energy>  (7) 
-634.8536195702062

>  <inter_energy>  (7) 
-633.9753807766167

>  <intra_energy>  (7) 
1.3627159658386696

>  <rmsd>  (7) 
2.98897

>  <sdf_rank>  (7) 
0

$$$$

     RDKit          3D

 34 36  0  0  0  0  0  0  0  0999 V2000
   19.4257  -12.0605    5.4902 C   0  0  0  0  0  0  0  0  0  0  0  0
   19.7347  -12.9164    6.5343 C   0  0  0  0  0  0  0  0  0  0  0  0
   17.3149  -11.2999    2.7716 C   0  0  0  0  0  0  0  0  0  0  0  0
   18.8756  -12.5516    4.3044 C   0  0  0  0  0  0  0  0  0  0  0  0
   17.0679  -10.4796    1.6807 C   0  0  0  0  0  0  0  0  0  0  0  0
   18.8937  -14.7635    5.2567 C   0  0  0  0  0  0  0  0  0  0  0  0
   19.4812  -14.2756    6.4225 C   0  0  0  0  0  0  0  0  0  0  0  0
   18.6216  -11.6545    3.1491 C   0  0  0  0  0  0  0  0  0  0  0  0
   17.8462  -16.6777    6.2861 C   0  0  0  0  0  0  0  0  0  0  0  0
   18.5207  -16.0875    5.1629 O   0  0  0  0  0  0  0  0  0  0  0  0
   18.2939   -9.1641   -0.2412 C   0  0  0  0  0  0  0  0  0  0  0  0
   17.2126   -8.5101   -1.0380 C   0  0  0  0  0  0  0  0  0  0  0  0
   16.5456   -9.4600   -1.9965 C   0  0  0  0  0  0  0  0  0  0  0  0
   19.6163   -9.1001   -0.4598 C   0  0  0  0  0  0  0  0  0  0  0  0
   19.4213  -10.3410    1.3301 C   0  0  0  0  0  0  0  0  0  0  0  0
   19.6969  -11.1560    2.4045 C   0  0  0  0  0  0  0  0  0  0  0  0
   18.5980  -13.9155    4.2047 C   0  0  0  0  0  0  0  0  0  0  0  0
   18.1416   -9.9870    0.9362 C   0  0  0  0  0  0  0  0  0  0  0  0
   16.6733  -10.7311   -1.6763 O   0  0  0  0  0  0  0  0  0  0  0  0
   15.9023   -9.0527   -2.9259 O   0  0  0  0  0  0  0  0  0  0  0  0
   20.3485   -9.7988    0.4727 O   0  0  0  0  0  0  0  0  0  0  0  0
   19.6158  -10.9822    5.5961 H   0  0  0  0  0  0  0  0  0  0  0  0
   20.1828  -12.5167    7.4560 H   0  0  0  0  0  0  0  0  0  0  0  0
   16.4659  -11.6830    3.3567 H   0  0  0  0  0  0  0  0  0  0  0  0
   16.0354  -10.2194    1.4046 H   0  0  0  0  0  0  0  0  0  0  0  0
   19.7406  -14.9598    7.2438 H   0  0  0  0  0  0  0  0  0  0  0  0
   18.2841  -16.2945    7.2195 H   0  0  0  0  0  0  0  0  0  0  0  0
   16.7776  -16.4194    6.2492 H   0  0  0  0  0  0  0  0  0  0  0  0
   17.9606  -17.7711    6.2492 H   0  0  0  0  0  0  0  0  0  0  0  0
   16.4534   -8.1169   -0.3458 H   0  0  0  0  0  0  0  0  0  0  0  0
   17.6747   -7.7073   -1.6313 H   0  0  0  0  0  0  0  0  0  0  0  0
   20.0677   -8.5472   -1.2967 H   0  0  0  0  0  0  0  0  0  0  0  0
   20.7339  -11.4087    2.6707 H   0  0  0  0  0  0  0  0  0  0  0  0
   18.1428  -14.3171    3.2874 H   0  0  0  0  0  0  0  0  0  0  0  0
  1  2  2  0
  1  4  1  0
  2  7  1  0
  3  5  2  0
  3  8  1  0
  4  8  1  0
  4 17  2  0
  5 18  1  0
  6  7  2  0
  6 10  1  0
  6 17  1  0
  8 16  2  0
  9 10  1  0
 11 12  1  0
 11 14  2  0
 11 18  1  0
 12 13  1  0
 13 19  2  0
 13 20  1  0
 14 21  1  0
 15 16  1  0
 15 18  2  0
 15 21  1  0
  1 22  1  0
  2 23  1  0
  3 24  1  0
  5 25  1  0
  7 26  1  0
  9 27  1  0
  9 28  1  0
  9 29  1  0
 12 30  1  0
 12 31  1  0
 14 32  1  0
 16 33  1  0
 17 34  1  0
M  CHG  1  20  -1
M  END
>  <filename_input>  (8) 
7L7C_XQ1_docked.sdf

>  <pdb_id>  (8) 
7L7C_XQ1

>  <pose_rank>  (8) 
7

>  <num_atoms_heavy>  (8) 
21

>  <num_torsions>  (8) 
4

>  <pose>  (8) 
[17.314931781795753, -11.29988435262114, 2.771567551414866, 0.7765827302872008, -5.310864755132079, 1.7412694007641392, 19.371289362031547, 4.0582137642258305, -2.384213745381533, -4.010609872073619]

>  <energy>  (8) 
-661.375641554211

>  <inter_energy>  (8) 
-658.9979767866441

>  <intra_energy>  (8) 
9.212407344530472

>  <rmsd>  (8) 
2.38245

>  <sdf_rank>  (8) 
0

$$$$

     RDKit          3D

 34 36  0  0  0  0  0  0  0  0999 V2000
   20.6088  -10.4851    2.0898 C   0  0  0  0  0  0  0  0  0  0  0  0
   20.8462   -9.4489    1.2020 C   0  0  0  0  0  0  0  0  0  0  0  0
   18.9256  -11.7818    4.5864 C   0  0  0  0  0  0  0  0  0  0  0  0
   19.3339  -11.0415    2.2121 C   0  0  0  0  0  0  0  0  0  0  0  0
   18.6825  -12.7607    5.5385 C   0  0  0  0  0  0  0  0  0  0  0  0
   18.5566   -9.5432    0.4943 C   0  0  0  0  0  0  0  0  0  0  0  0
   19.8204   -8.9624    0.4049 C   0  0  0  0  0  0  0  0  0  0  0  0
   19.0510  -12.0928    3.2214 C   0  0  0  0  0  0  0  0  0  0  0  0
   16.5848  -10.1550   -0.7541 C   0  0  0  0  0  0  0  0  0  0  0  0
   17.5499   -9.1632   -0.3676 O   0  0  0  0  0  0  0  0  0  0  0  0
   18.3404  -15.3574    5.7985 C   0  0  0  0  0  0  0  0  0  0  0  0
   18.1301  -15.5941    7.2584 C   0  0  0  0  0  0  0  0  0  0  0  0
   19.1595  -14.9013    8.1107 C   0  0  0  0  0  0  0  0  0  0  0  0
   18.3568  -16.2761    4.8205 C   0  0  0  0  0  0  0  0  0  0  0  0
   18.6725  -14.3758    3.7857 C   0  0  0  0  0  0  0  0  0  0  0  0
   18.9176  -13.4268    2.8193 C   0  0  0  0  0  0  0  0  0  0  0  0
   18.3103  -10.5675    1.3906 C   0  0  0  0  0  0  0  0  0  0  0  0
   18.5544  -14.0918    5.1361 C   0  0  0  0  0  0  0  0  0  0  0  0
   18.9677  -13.6054    8.2457 O   0  0  0  0  0  0  0  0  0  0  0  0
   20.0287  -15.5224    8.6605 O   0  0  0  0  0  0  0  0  0  0  0  0
   18.5529  -15.7283    3.5734 O   0  0  0  0  0  0  0  0  0  0  0  0
   21.4335  -10.8740    2.7052 H   0  0  0  0  0  0  0  0  0  0  0  0
   21.8521   -9.0099    1.1288 H   0  0  0  0  0  0  0  0  0  0  0  0
   19.0228  -10.7344    4.9081 H   0  0  0  0  0  0  0  0  0  0  0  0
   18.5915  -12.4910    6.6010 H   0  0  0  0  0  0  0  0  0  0  0  0
   20.0021   -8.1287   -0.2892 H   0  0  0  0  0  0  0  0  0  0  0  0
   16.1440  -10.6081    0.1462 H   0  0  0  0  0  0  0  0  0  0  0  0
   15.7921   -9.6818   -1.3521 H   0  0  0  0  0  0  0  0  0  0  0  0
   17.0795  -10.9345   -1.3521 H   0  0  0  0  0  0  0  0  0  0  0  0
   17.1334  -15.2203    7.5360 H   0  0  0  0  0  0  0  0  0  0  0  0
   18.2218  -16.6755    7.4376 H   0  0  0  0  0  0  0  0  0  0  0  0
   18.2271  -17.3540    4.9972 H   0  0  0  0  0  0  0  0  0  0  0  0
   19.0062  -13.7092    1.7598 H   0  0  0  0  0  0  0  0  0  0  0  0
   17.3052  -11.0096    1.4560 H   0  0  0  0  0  0  0  0  0  0  0  0
  1  2  2  0
  1  4  1  0
  2  7  1  0
  3  5  2  0
  3  8  1  0
  4  8  1  0
  4 17  2  0
  5 18  1  0
  6  7  2  0
  6 10  1  0
  6 17  1  0
  8 16  2  0
  9 10  1  0
 11 12  1  0
 11 14  2  0
 11 18  1  0
 12 13  1  0
 13 19  2  0
 13 20  1  0
 14 21  1  0
 15 16  1  0
 15 18  2  0
 15 21  1  0
  1 22  1  0
  2 23  1  0
  3 24  1  0
  5 25  1  0
  7 26  1  0
  9 27  1  0
  9 28  1  0
  9 29  1  0
 12 30  1  0
 12 31  1  0
 14 32  1  0
 16 33  1  0
 17 34  1  0
M  CHG  1  20  -1
M  END
>  <filename_input>  (9) 
7L7C_XQ1_docked.sdf

>  <pdb_id>  (9) 
7L7C_XQ1

>  <pose_rank>  (9) 
8

>  <num_atoms_heavy>  (9) 
21

>  <num_torsions>  (9) 
4

>  <pose>  (9) 
[18.925585845461708, -11.781769412159091, 4.586432371112691, 2.6973826169788175, -1.5210262422553, -0.8113023740672215, -8.835753190748685, -0.4156234524551021, 4.444552163748341, 3.227920768964062]

>  <energy>  (9) 
-604.2504690959183

>  <inter_energy>  (9) 
-634.5466820649543

>  <intra_energy>  (9) 
27.57924636365086

>  <rmsd>  (9) 
7.34739

>  <sdf_rank>  (9) 
0

$$$$

     RDKit          3D

 34 36  0  0  0  0  0  0  0  0999 V2000
   18.1624  -15.3872    3.7641 C   0  0  0  0  0  0  0  0  0  0  0  0
   18.1669  -16.4333    4.6718 C   0  0  0  0  0  0  0  0  0  0  0  0
   17.1888  -12.6572    2.5362 C   0  0  0  0  0  0  0  0  0  0  0  0
   18.4648  -14.0868    4.1734 C   0  0  0  0  0  0  0  0  0  0  0  0
   17.1057  -11.6071    1.6339 C   0  0  0  0  0  0  0  0  0  0  0  0
   18.8361  -14.9156    6.4038 C   0  0  0  0  0  0  0  0  0  0  0  0
   18.4932  -16.2048    6.0005 C   0  0  0  0  0  0  0  0  0  0  0  0
   18.3786  -12.9467    3.2264 C   0  0  0  0  0  0  0  0  0  0  0  0
   19.3377  -13.3167    8.1396 C   0  0  0  0  0  0  0  0  0  0  0  0
   19.2800  -14.6794    7.6876 O   0  0  0  0  0  0  0  0  0  0  0  0
   18.5453   -9.6884    0.5508 C   0  0  0  0  0  0  0  0  0  0  0  0
   17.6277   -8.9734   -0.3865 C   0  0  0  0  0  0  0  0  0  0  0  0
   16.6694   -8.0585    0.3281 C   0  0  0  0  0  0  0  0  0  0  0  0
   19.8370   -9.4148    0.7898 C   0  0  0  0  0  0  0  0  0  0  0  0
   19.3889  -11.1070    2.1001 C   0  0  0  0  0  0  0  0  0  0  0  0
   19.5024  -12.1443    2.9978 C   0  0  0  0  0  0  0  0  0  0  0  0
   18.8178  -13.8644    5.5049 C   0  0  0  0  0  0  0  0  0  0  0  0
   18.2293  -10.8106    1.4034 C   0  0  0  0  0  0  0  0  0  0  0  0
   15.5126   -8.6125    0.6271 O   0  0  0  0  0  0  0  0  0  0  0  0
   16.9932   -6.9452    0.6429 O   0  0  0  0  0  0  0  0  0  0  0  0
   20.3970  -10.2496    1.7296 O   0  0  0  0  0  0  0  0  0  0  0  0
   17.9181  -15.5827    2.7096 H   0  0  0  0  0  0  0  0  0  0  0  0
   17.9105  -17.4495    4.3376 H   0  0  0  0  0  0  0  0  0  0  0  0
   16.3001  -13.2799    2.7164 H   0  0  0  0  0  0  0  0  0  0  0  0
   16.1632  -11.4036    1.1045 H   0  0  0  0  0  0  0  0  0  0  0  0
   18.4816  -17.0308    6.7268 H   0  0  0  0  0  0  0  0  0  0  0  0
   19.3386  -13.2950    9.2394 H   0  0  0  0  0  0  0  0  0  0  0  0
   20.2567  -12.8440    7.7628 H   0  0  0  0  0  0  0  0  0  0  0  0
   18.4620  -12.7679    7.7628 H   0  0  0  0  0  0  0  0  0  0  0  0
   18.2324   -8.3751   -1.0839 H   0  0  0  0  0  0  0  0  0  0  0  0
   17.0325   -9.7328   -0.9148 H   0  0  0  0  0  0  0  0  0  0  0  0
   20.3903   -8.6078    0.2872 H   0  0  0  0  0  0  0  0  0  0  0  0
   20.4505  -12.3374    3.5211 H   0  0  0  0  0  0  0  0  0  0  0  0
   19.0821  -12.8508    5.8405 H   0  0  0  0  0  0  0  0  0  0  0  0
  1  2  2  0
  1  4  1  0
  2  7  1  0
  3  5  2  0
  3  8  1  0
  4  8  1  0
  4 17  2  0
  5 18  1  0
  6  7  2  0
  6 10  1  0
  6 17  1  0
  8 16  2  0
  9 10  1  0
 11 12  1  0
 11 14  2  0
 11 18  1  0
 12 13  1  0
 13 19  2  0
 13 20  1  0
 14 21  1  0
 15 16  1  0
 15 18  2  0
 15 21  1  0
  1 22  1  0
  2 23  1  0
  3 24  1  0
  5 25  1  0
  7 26  1  0
  9 27  1  0
  9 28  1  0
  9 29  1  0
 12 30  1  0
 12 31  1  0
 14 32  1  0
 16 33  1  0
 17 34  1  0
M  CHG  1  20  -1
M  END
>  <filename_input>  (10) 
7L7C_XQ1_docked.sdf

>  <pdb_id>  (10) 
7L7C_XQ1

>  <pose_rank>  (10) 
9

>  <num_atoms_heavy>  (10) 
21

>  <num_torsions>  (10) 
4

>  <pose>  (10) 
[17.1887556572382, -12.657225471068163, 2.536199942141645, 0.13780045495185309, 0.3039021308915049, 0.021985631949037375, -2.8745144227635597, 0.3865264291812383, -5.940228494158425, 0.27295512304463726]

>  <energy>  (10) 
-641.8760903636105

>  <inter_energy>  (10) 
-637.338442822906

>  <intra_energy>  (10) 
0.12652393138112422

>  <rmsd>  (10) 
2.51355

>  <sdf_rank>  (10) 
0

$$$$

     RDKit          3D

 34 36  0  0  0  0  0  0  0  0999 V2000
   18.4255  -14.8224    4.3811 C   0  0  0  0  0  0  0  0  0  0  0  0
   18.2941  -15.7852    5.3681 C   0  0  0  0  0  0  0  0  0  0  0  0
   18.0352  -12.3797    2.6546 C   0  0  0  0  0  0  0  0  0  0  0  0
   18.9599  -13.5666    4.6766 C   0  0  0  0  0  0  0  0  0  0  0  0
   18.0994  -11.3999    1.6750 C   0  0  0  0  0  0  0  0  0  0  0  0
   19.2847  -14.2823    6.9529 C   0  0  0  0  0  0  0  0  0  0  0  0
   18.7125  -15.5198    6.6637 C   0  0  0  0  0  0  0  0  0  0  0  0
   19.0248  -12.5004    3.6455 C   0  0  0  0  0  0  0  0  0  0  0  0
   19.9484  -15.1375    9.1091 C   0  0  0  0  0  0  0  0  0  0  0  0
   19.8181  -14.0329    8.1995 O   0  0  0  0  0  0  0  0  0  0  0  0
   19.5997   -9.4080    0.8330 C   0  0  0  0  0  0  0  0  0  0  0  0
   18.8993   -8.8509   -0.3632 C   0  0  0  0  0  0  0  0  0  0  0  0
   18.0594   -7.6463   -0.0324 C   0  0  0  0  0  0  0  0  0  0  0  0
   20.7560   -8.9861    1.3673 C   0  0  0  0  0  0  0  0  0  0  0  0
   20.1304  -10.6350    2.6600 C   0  0  0  0  0  0  0  0  0  0  0  0
   20.0957  -11.5992    3.6417 C   0  0  0  0  0  0  0  0  0  0  0  0
   19.4036  -13.3117    5.9747 C   0  0  0  0  0  0  0  0  0  0  0  0
   19.1709  -10.5045    1.6699 C   0  0  0  0  0  0  0  0  0  0  0  0
   16.7613   -7.8669   -0.0598 O   0  0  0  0  0  0  0  0  0  0  0  0
   18.5671   -6.6065    0.2912 O   0  0  0  0  0  0  0  0  0  0  0  0
   21.1222   -9.6997    2.4855 O   0  0  0  0  0  0  0  0  0  0  0  0
   18.1055  -15.0495    3.3535 H   0  0  0  0  0  0  0  0  0  0  0  0
   17.8561  -16.7642    5.1235 H   0  0  0  0  0  0  0  0  0  0  0  0
   17.1876  -13.0808    2.6560 H   0  0  0  0  0  0  0  0  0  0  0  0
   17.3132  -11.3288    0.9089 H   0  0  0  0  0  0  0  0  0  0  0  0
   18.5943  -16.2767    7.4531 H   0  0  0  0  0  0  0  0  0  0  0  0
   19.9048  -14.7675   10.1440 H   0  0  0  0  0  0  0  0  0  0  0  0
   19.1282  -15.8506    8.9398 H   0  0  0  0  0  0  0  0  0  0  0  0
   20.9121  -15.6402    8.9398 H   0  0  0  0  0  0  0  0  0  0  0  0
   19.6534   -8.5606   -1.1096 H   0  0  0  0  0  0  0  0  0  0  0  0
   18.2264   -9.6309   -0.7490 H   0  0  0  0  0  0  0  0  0  0  0  0
   21.3491   -8.1566    0.9546 H   0  0  0  0  0  0  0  0  0  0  0  0
   20.8879  -11.6597    4.4025 H   0  0  0  0  0  0  0  0  0  0  0  0
   19.8491  -12.3365    6.2207 H   0  0  0  0  0  0  0  0  0  0  0  0
  1  2  2  0
  1  4  1  0
  2  7  1  0
  3  5  2  0
  3  8  1  0
  4  8  1  0
  4 17  2  0
  5 18  1  0
  6  7  2  0
  6 10  1  0
  6 17  1  0
  8 16  2  0
  9 10  1  0
 11 12  1  0
 11 14  2  0
 11 18  1  0
 12 13  1  0
 13 19  2  0
 13 20  1  0
 14 21  1  0
 15 16  1  0
 15 18  2  0
 15 21  1  0
  1 22  1  0
  2 23  1  0
  3 24  1  0
  5 25  1  0
  7 26  1  0
  9 27  1  0
  9 28  1  0
  9 29  1  0
 12 30  1  0
 12 31  1  0
 14 32  1  0
 16 33  1  0
 17 34  1  0
M  CHG  1  20  -1
M  END
>  <filename_input>  (11) 
7L7C_XQ1_docked.sdf

>  <pdb_id>  (11) 
7L7C_XQ1

>  <pose_rank>  (11) 
10

>  <num_atoms_heavy>  (11) 
21

>  <num_torsions>  (11) 
4

>  <pose>  (11) 
[18.03520697055604, -12.379688496189464, 2.6545709245282607, -2.005253831037904, -2.209225341538305, -5.367725013590821, -9.558222379864002, 3.455612158920552, 6.986115373068095, 0.005889344373461584]

>  <energy>  (11) 
-619.9485749378587

>  <inter_energy>  (11) 
-620.9442978000628

>  <intra_energy>  (11) 
1.1111557331415485

>  <rmsd>  (11) 
2.0456

>  <sdf_rank>  (11) 
0

$$$$

     RDKit          3D

 34 36  0  0  0  0  0  0  0  0999 V2000
   19.0826   -9.9158    0.7791 C   0  0  0  0  0  0  0  0  0  0  0  0
   19.2793   -9.0291   -0.2665 C   0  0  0  0  0  0  0  0  0  0  0  0
   20.4559  -10.8013    4.1813 C   0  0  0  0  0  0  0  0  0  0  0  0
   19.9671   -9.9524    1.8591 C   0  0  0  0  0  0  0  0  0  0  0  0
   20.3344  -11.7456    5.1899 C   0  0  0  0  0  0  0  0  0  0  0  0
   21.2117   -8.1535    0.8520 C   0  0  0  0  0  0  0  0  0  0  0  0
   20.3508   -8.1483   -0.2440 C   0  0  0  0  0  0  0  0  0  0  0  0
   19.8129  -10.9572    2.9411 C   0  0  0  0  0  0  0  0  0  0  0  0
   21.8453   -5.8821    1.3622 C   0  0  0  0  0  0  0  0  0  0  0  0
   22.2127   -7.2115    0.9592 O   0  0  0  0  0  0  0  0  0  0  0  0
   19.2131  -14.0642    5.7322 C   0  0  0  0  0  0  0  0  0  0  0  0
   19.6277  -14.3981    7.1280 C   0  0  0  0  0  0  0  0  0  0  0  0
   19.3799  -15.8417    7.4751 C   0  0  0  0  0  0  0  0  0  0  0  0
   18.4345  -14.7946    4.9192 C   0  0  0  0  0  0  0  0  0  0  0  0
   18.9189  -13.0116    3.7496 C   0  0  0  0  0  0  0  0  0  0  0  0
   19.0243  -12.0940    2.7291 C   0  0  0  0  0  0  0  0  0  0  0  0
   21.0289   -9.0478    1.8913 C   0  0  0  0  0  0  0  0  0  0  0  0
   19.5511  -12.8815    4.9750 C   0  0  0  0  0  0  0  0  0  0  0  0
   20.4044  -16.4466    8.0399 O   0  0  0  0  0  0  0  0  0  0  0  0
   18.3034  -16.3455    7.2994 O   0  0  0  0  0  0  0  0  0  0  0  0
   18.2220  -14.1950    3.6989 O   0  0  0  0  0  0  0  0  0  0  0  0
   18.2203  -10.5985    0.7587 H   0  0  0  0  0  0  0  0  0  0  0  0
   18.5832   -9.0233   -1.1182 H   0  0  0  0  0  0  0  0  0  0  0  0
   21.0718   -9.9069    4.3565 H   0  0  0  0  0  0  0  0  0  0  0  0
   20.8506  -11.6011    6.1505 H   0  0  0  0  0  0  0  0  0  0  0  0
   20.5188   -7.4543   -1.0807 H   0  0  0  0  0  0  0  0  0  0  0  0
   21.8290   -5.8232    2.4605 H   0  0  0  0  0  0  0  0  0  0  0  0
   22.5785   -5.1635    0.9673 H   0  0  0  0  0  0  0  0  0  0  0  0
   20.8471   -5.6419    0.9673 H   0  0  0  0  0  0  0  0  0  0  0  0
   20.7023  -14.1891    7.2360 H   0  0  0  0  0  0  0  0  0  0  0  0
   19.0244  -13.7825    7.8114 H   0  0  0  0  0  0  0  0  0  0  0  0
   18.0106  -15.7703    5.1988 H   0  0  0  0  0  0  0  0  0  0  0  0
   18.5030  -12.2498    1.7731 H   0  0  0  0  0  0  0  0  0  0  0  0
   21.7223   -9.0457    2.7452 H   0  0  0  0  0  0  0  0  0  0  0  0
  1  2  2  0
  1  4  1  0
  2  7  1  0
  3  5  2  0
  3  8  1  0
  4  8  1  0
  4 17  2  0
  5 18  1  0
  6  7  2  0
  6 10  1  0
  6 17  1  0
  8 16  2  0
  9 10  1  0
 11 12  1  0
 11 14  2  0
 11 18  1  0
 12 13  1  0
 13 19  2  0
 13 20  1  0
 14 21  1  0
 15 16  1  0
 15 18  2  0
 15 21  1  0
  1 22  1  0
  2 23  1  0
  3 24  1  0
  5 25  1  0
  7 26  1  0
  9 27  1  0
  9 28  1  0
  9 29  1  0
 12 30  1  0
 12 31  1  0
 14 32  1  0
 16 33  1  0
 17 34  1  0
M  CHG  1  20  -1
M  END
>  <filename_input>  (12) 
7L7C_XQ1_docked.sdf

>  <pdb_id>  (12) 
7L7C_XQ1

>  <pose_rank>  (12) 
11

>  <num_atoms_heavy>  (12) 
21

>  <num_torsions>  (12) 
4

>  <pose>  (12) 
[20.45594629347544, -10.801322735891086, 4.181258376736645, 2.0006573651888226, -1.9010767301050369, -1.3955720569463361, -0.4277907935770683, -1.6548852928949302, -3.874907404520459, 4.189568231269788]

>  <energy>  (12) 
-552.5279245351531

>  <inter_energy>  (12) 
-559.9559769582963

>  <intra_energy>  (12) 
17.147721155834365

>  <rmsd>  (12) 
7.84976

>  <sdf_rank>  (12) 
0

$$$$

     RDKit          3D

 34 36  0  0  0  0  0  0  0  0999 V2000
   19.0077  -14.9365    4.6463 C   0  0  0  0  0  0  0  0  0  0  0  0
   18.8370  -15.8739    5.6515 C   0  0  0  0  0  0  0  0  0  0  0  0
   18.1380  -12.2676    3.0443 C   0  0  0  0  0  0  0  0  0  0  0  0
   19.1357  -13.5797    4.9509 C   0  0  0  0  0  0  0  0  0  0  0  0
   18.2262  -11.3316    2.0245 C   0  0  0  0  0  0  0  0  0  0  0  0
   18.9806  -14.1291    7.2905 C   0  0  0  0  0  0  0  0  0  0  0  0
   18.8115  -15.4772    6.9805 C   0  0  0  0  0  0  0  0  0  0  0  0
   19.2325  -12.5598    3.8764 C   0  0  0  0  0  0  0  0  0  0  0  0
   18.6319  -12.3953    8.9317 C   0  0  0  0  0  0  0  0  0  0  0  0
   19.0796  -13.7206    8.6036 O   0  0  0  0  0  0  0  0  0  0  0  0
   19.9164   -9.6723    0.8767 C   0  0  0  0  0  0  0  0  0  0  0  0
   19.1506   -9.0094   -0.2214 C   0  0  0  0  0  0  0  0  0  0  0  0
   18.3186   -7.8548    0.2692 C   0  0  0  0  0  0  0  0  0  0  0  0
   21.2007   -9.4697    1.2088 C   0  0  0  0  0  0  0  0  0  0  0  0
   20.4937  -10.9518    2.6528 C   0  0  0  0  0  0  0  0  0  0  0  0
   20.4372  -11.8780    3.6695 C   0  0  0  0  0  0  0  0  0  0  0  0
   19.1355  -13.1868    6.2898 C   0  0  0  0  0  0  0  0  0  0  0  0
   19.4303  -10.6557    1.8164 C   0  0  0  0  0  0  0  0  0  0  0  0
   17.0402   -8.1335    0.4189 O   0  0  0  0  0  0  0  0  0  0  0  0
   18.8248   -6.8033    0.5549 O   0  0  0  0  0  0  0  0  0  0  0  0
   21.6010  -10.2240    2.2879 O   0  0  0  0  0  0  0  0  0  0  0  0
   19.0429  -15.2642    3.5969 H   0  0  0  0  0  0  0  0  0  0  0  0
   18.7211  -16.9373    5.3949 H   0  0  0  0  0  0  0  0  0  0  0  0
   17.1864  -12.7951    3.2060 H   0  0  0  0  0  0  0  0  0  0  0  0
   17.3554  -11.1235    1.3854 H   0  0  0  0  0  0  0  0  0  0  0  0
   18.6596  -16.2176    7.7798 H   0  0  0  0  0  0  0  0  0  0  0  0
   18.5934  -12.2814   10.0251 H   0  0  0  0  0  0  0  0  0  0  0  0
   19.3306  -11.6575    8.5105 H   0  0  0  0  0  0  0  0  0  0  0  0
   17.6288  -12.2324    8.5105 H   0  0  0  0  0  0  0  0  0  0  0  0
   19.8627   -8.6366   -0.9724 H   0  0  0  0  0  0  0  0  0  0  0  0
   18.4654   -9.7566   -0.6483 H   0  0  0  0  0  0  0  0  0  0  0  0
   21.8639   -8.7737    0.6744 H   0  0  0  0  0  0  0  0  0  0  0  0
   21.3149  -12.0769    4.3020 H   0  0  0  0  0  0  0  0  0  0  0  0
   19.2588  -12.1252    6.5501 H   0  0  0  0  0  0  0  0  0  0  0  0
  1  2  2  0
  1  4  1  0
  2  7  1  0
  3  5  2  0
  3  8  1  0
  4  8  1  0
  4 17  2  0
  5 18  1  0
  6  7  2  0
  6 10  1  0
  6 17  1  0
  8 16  2  0
  9 10  1  0
 11 12  1  0
 11 14  2  0
 11 18  1  0
 12 13  1  0
 13 19  2  0
 13 20  1  0
 14 21  1  0
 15 16  1  0
 15 18  2  0
 15 21  1  0
  1 22  1  0
  2 23  1  0
  3 24  1  0
  5 25  1  0
  7 26  1  0
  9 27  1  0
  9 28  1  0
  9 29  1  0
 12 30  1  0
 12 31  1  0
 14 32  1  0
 16 33  1  0
 17 34  1  0
M  CHG  1  20  -1
M  END
>  <filename_input>  (13) 
7L7C_XQ1_docked.sdf

>  <pdb_id>  (13) 
7L7C_XQ1

>  <pose_rank>  (13) 
12

>  <num_atoms_heavy>  (13) 
21

>  <num_torsions>  (13) 
4

>  <pose>  (13) 
[18.137971302569504, -12.26756250425849, 3.0442739524903812, 0.031551614576466575, 0.20504788433992327, -0.0697257282798011, -2.663164291232426, 0.6538413120750242, -5.840704585544878, 0.12391402621789924]

>  <energy>  (13) 
-645.5985786544456

>  <inter_energy>  (13) 
-646.8768402739119

>  <intra_energy>  (13) 
0.0

>  <rmsd>  (13) 
2.09691

>  <sdf_rank>  (13) 
0

$$$$

     RDKit          3D

 34 36  0  0  0  0  0  0  0  0999 V2000
   17.1483  -10.8681    0.4314 C   0  0  0  0  0  0  0  0  0  0  0  0
   16.8330  -10.1363   -0.7015 C   0  0  0  0  0  0  0  0  0  0  0  0
   19.3612  -10.6772    3.5005 C   0  0  0  0  0  0  0  0  0  0  0  0
   18.0031  -10.3446    1.4035 C   0  0  0  0  0  0  0  0  0  0  0  0
   19.7669  -11.4361    4.5882 C   0  0  0  0  0  0  0  0  0  0  0  0
   18.1685   -8.3183    0.1126 C   0  0  0  0  0  0  0  0  0  0  0  0
   17.3484   -8.8603   -0.8754 C   0  0  0  0  0  0  0  0  0  0  0  0
   18.4145  -11.1547    2.5776 C   0  0  0  0  0  0  0  0  0  0  0  0
   17.7585   -5.9882    0.5856 C   0  0  0  0  0  0  0  0  0  0  0  0
   18.5979   -7.0111    0.0254 O   0  0  0  0  0  0  0  0  0  0  0  0
   19.4005  -13.7781    5.7318 C   0  0  0  0  0  0  0  0  0  0  0  0
   20.2903  -13.7867    6.9317 C   0  0  0  0  0  0  0  0  0  0  0  0
   19.5498  -14.1233    8.1983 C   0  0  0  0  0  0  0  0  0  0  0  0
   18.5857  -14.7606    5.3175 C   0  0  0  0  0  0  0  0  0  0  0  0
   18.2840  -13.1555    3.8635 C   0  0  0  0  0  0  0  0  0  0  0  0
   17.8654  -12.4272    2.7730 C   0  0  0  0  0  0  0  0  0  0  0  0
   18.4993   -9.0510    1.2382 C   0  0  0  0  0  0  0  0  0  0  0  0
   19.2215  -12.7074    4.7790 C   0  0  0  0  0  0  0  0  0  0  0  0
   19.6810  -15.3751    8.5860 O   0  0  0  0  0  0  0  0  0  0  0  0
   18.9562  -13.2784    8.8126 O   0  0  0  0  0  0  0  0  0  0  0  0
   17.8799  -14.4295    4.1835 O   0  0  0  0  0  0  0  0  0  0  0  0
   16.7207  -11.8726    0.5667 H   0  0  0  0  0  0  0  0  0  0  0  0
   16.1712  -10.5687   -1.4664 H   0  0  0  0  0  0  0  0  0  0  0  0
   19.7916   -9.6752    3.3562 H   0  0  0  0  0  0  0  0  0  0  0  0
   20.5117  -11.0401    5.2943 H   0  0  0  0  0  0  0  0  0  0  0  0
   17.1128   -8.2833   -1.7818 H   0  0  0  0  0  0  0  0  0  0  0  0
   17.8008   -6.0398    1.6835 H   0  0  0  0  0  0  0  0  0  0  0  0
   18.1104   -5.0012    0.2510 H   0  0  0  0  0  0  0  0  0  0  0  0
   16.7218   -6.1407    0.2510 H   0  0  0  0  0  0  0  0  0  0  0  0
   21.0827  -14.5339    6.7776 H   0  0  0  0  0  0  0  0  0  0  0  0
   20.7048  -12.7742    7.0468 H   0  0  0  0  0  0  0  0  0  0  0  0
   18.4919  -15.7291    5.8305 H   0  0  0  0  0  0  0  0  0  0  0  0
   17.1197  -12.8342    2.0743 H   0  0  0  0  0  0  0  0  0  0  0  0
   19.1551   -8.6127    2.0050 H   0  0  0  0  0  0  0  0  0  0  0  0
  1  2  2  0
  1  4  1  0
  2  7  1  0
  3  5  2  0
  3  8  1  0
  4  8  1  0
  4 17  2  0
  5 18  1  0
  6  7  2  0
  6 10  1  0
  6 17  1  0
  8 16  2  0
  9 10  1  0
 11 12  1  0
 11 14  2  0
 11 18  1  0
 12 13  1  0
 13 19  2  0
 13 20  1  0
 14 21  1  0
 15 16  1  0
 15 18  2  0
 15 21  1  0
  1 22  1  0
  2 23  1  0
  3 24  1  0
  5 25  1  0
  7 26  1  0
  9 27  1  0
  9 28  1  0
  9 29  1  0
 12 30  1  0
 12 31  1  0
 14 32  1  0
 16 33  1  0
 17 34  1  0
M  CHG  1  20  -1
M  END
>  <filename_input>  (14) 
7L7C_XQ1_docked.sdf

>  <pdb_id>  (14) 
7L7C_XQ1

>  <pose_rank>  (14) 
13

>  <num_atoms_heavy>  (14) 
21

>  <num_torsions>  (14) 
4

>  <pose>  (14) 
[19.36118090791731, -10.677174346724726, 3.500452921654154, 1.7070819178326608, -1.5689195622967935, -1.388529083668174, -0.8134894422089389, -1.4553155627785357, -5.070417394934843, 3.630496503342846]

>  <energy>  (14) 
-500.08879257178125

>  <inter_energy>  (14) 
-495.66871161438195

>  <intra_energy>  (14) 
0.2908159722224771

>  <rmsd>  (14) 
7.67418

>  <sdf_rank>  (14) 
0

$$$$

     RDKit          3D

 34 36  0  0  0  0  0  0  0  0999 V2000
   18.1497   -9.0319    1.2284 C   0  0  0  0  0  0  0  0  0  0  0  0
   18.1840   -7.9799    0.3282 C   0  0  0  0  0  0  0  0  0  0  0  0
   20.3355  -10.9555    3.6017 C   0  0  0  0  0  0  0  0  0  0  0  0
   19.3296   -9.5447    1.7713 C   0  0  0  0  0  0  0  0  0  0  0  0
   20.3346  -12.0682    4.4296 C   0  0  0  0  0  0  0  0  0  0  0  0
   20.5711   -7.8885    0.5404 C   0  0  0  0  0  0  0  0  0  0  0  0
   19.3950   -7.4066   -0.0313 C   0  0  0  0  0  0  0  0  0  0  0  0
   19.3087  -10.7267    2.6694 C   0  0  0  0  0  0  0  0  0  0  0  0
   22.8169   -7.4011    1.2752 C   0  0  0  0  0  0  0  0  0  0  0  0
   21.7750   -7.2629    0.2954 O   0  0  0  0  0  0  0  0  0  0  0  0
   18.9516  -14.2386    4.9807 C   0  0  0  0  0  0  0  0  0  0  0  0
   19.7074  -14.9364    6.0641 C   0  0  0  0  0  0  0  0  0  0  0  0
   19.0059  -14.8686    7.3943 C   0  0  0  0  0  0  0  0  0  0  0  0
   17.8074  -14.6356    4.4029 C   0  0  0  0  0  0  0  0  0  0  0  0
   18.2807  -12.7387    3.4235 C   0  0  0  0  0  0  0  0  0  0  0  0
   18.2568  -11.6464    2.5863 C   0  0  0  0  0  0  0  0  0  0  0  0
   20.5438   -8.9492    1.4277 C   0  0  0  0  0  0  0  0  0  0  0  0
   19.2869  -12.9872    4.3421 C   0  0  0  0  0  0  0  0  0  0  0  0
   18.7213  -16.0434    7.9171 O   0  0  0  0  0  0  0  0  0  0  0  0
   18.8014  -13.8150    7.9343 O   0  0  0  0  0  0  0  0  0  0  0  0
   17.3545  -13.7538    3.4484 O   0  0  0  0  0  0  0  0  0  0  0  0
   17.1825   -9.4681    1.5189 H   0  0  0  0  0  0  0  0  0  0  0  0
   17.2473   -7.5975   -0.1035 H   0  0  0  0  0  0  0  0  0  0  0  0
   21.1616  -10.2329    3.6765 H   0  0  0  0  0  0  0  0  0  0  0  0
   21.1520  -12.2254    5.1488 H   0  0  0  0  0  0  0  0  0  0  0  0
   19.4265   -6.5819   -0.7584 H   0  0  0  0  0  0  0  0  0  0  0  0
   22.3817   -7.3434    2.2838 H   0  0  0  0  0  0  0  0  0  0  0  0
   23.3152   -8.3732    1.1459 H   0  0  0  0  0  0  0  0  0  0  0  0
   23.5514   -6.5925    1.1459 H   0  0  0  0  0  0  0  0  0  0  0  0
   19.8303  -15.9929    5.7839 H   0  0  0  0  0  0  0  0  0  0  0  0
   20.6780  -14.4303    6.1728 H   0  0  0  0  0  0  0  0  0  0  0  0
   17.2860  -15.5681    4.6648 H   0  0  0  0  0  0  0  0  0  0  0  0
   17.4336  -11.5002    1.8715 H   0  0  0  0  0  0  0  0  0  0  0  0
   21.4816   -9.3243    1.8636 H   0  0  0  0  0  0  0  0  0  0  0  0
  1  2  2  0
  1  4  1  0
  2  7  1  0
  3  5  2  0
  3  8  1  0
  4  8  1  0
  4 17  2  0
  5 18  1  0
  6  7  2  0
  6 10  1  0
  6 17  1  0
  8 16  2  0
  9 10  1  0
 11 12  1  0
 11 14  2  0
 11 18  1  0
 12 13  1  0
 13 19  2  0
 13 20  1  0
 14 21  1  0
 15 16  1  0
 15 18  2  0
 15 21  1  0
  1 22  1  0
  2 23  1  0
  3 24  1  0
  5 25  1  0
  7 26  1  0
  9 27  1  0
  9 28  1  0
  9 29  1  0
 12 30  1  0
 12 31  1  0
 14 32  1  0
 16 33  1  0
 17 34  1  0
M  CHG  1  20  -1
M  END
>  <filename_input>  (15) 
7L7C_XQ1_docked.sdf

>  <pdb_id>  (15) 
7L7C_XQ1

>  <pose_rank>  (15) 
14

>  <num_atoms_heavy>  (15) 
21

>  <num_torsions>  (15) 
4

>  <pose>  (15) 
[20.335516946033806, -10.955450211347582, 3.60165791997863, 1.5228194063438565, -1.9046192339860932, -1.9012977130780673, -0.2938708402852081, -0.292560452037095, -5.377161525899344, 4.0056838851662695]

>  <energy>  (15) 
-530.1611786884039

>  <inter_energy>  (15) 
-517.2286455344223

>  <intra_energy>  (15) 
0.0

>  <rmsd>  (15) 
7.65452

>  <sdf_rank>  (15) 
0

$$$$

     RDKit          3D

 34 36  0  0  0  0  0  0  0  0999 V2000
   13.3794  -10.0316    0.1128 C   0  0  0  0  0  0  0  0  0  0  0  0
   12.0870   -9.9795   -0.3828 C   0  0  0  0  0  0  0  0  0  0  0  0
   16.9392  -10.1247   -0.8884 C   0  0  0  0  0  0  0  0  0  0  0  0
   14.4423  -10.4166   -0.7068 C   0  0  0  0  0  0  0  0  0  0  0  0
   18.2276  -10.2726   -0.3966 C   0  0  0  0  0  0  0  0  0  0  0  0
   12.8986  -10.6352   -2.5422 C   0  0  0  0  0  0  0  0  0  0  0  0
   11.8345  -10.2908   -1.7108 C   0  0  0  0  0  0  0  0  0  0  0  0
   15.8163  -10.5583   -0.1625 C   0  0  0  0  0  0  0  0  0  0  0  0
   13.8062  -11.2952   -4.6780 C   0  0  0  0  0  0  0  0  0  0  0  0
   12.6961  -10.8328   -3.8915 O   0  0  0  0  0  0  0  0  0  0  0  0
   19.5609  -11.2137    1.6683 C   0  0  0  0  0  0  0  0  0  0  0  0
   21.0027  -10.9625    1.3681 C   0  0  0  0  0  0  0  0  0  0  0  0
   21.4578   -9.5998    1.8174 C   0  0  0  0  0  0  0  0  0  0  0  0
   19.0488  -11.8011    2.7607 C   0  0  0  0  0  0  0  0  0  0  0  0
   17.3007  -11.2759    1.5566 C   0  0  0  0  0  0  0  0  0  0  0  0
   16.0113  -11.1463    1.0926 C   0  0  0  0  0  0  0  0  0  0  0  0
   14.1889  -10.7041   -2.0484 C   0  0  0  0  0  0  0  0  0  0  0  0
   18.4206  -10.8638    0.8537 C   0  0  0  0  0  0  0  0  0  0  0  0
   21.0041   -8.6069    1.0807 O   0  0  0  0  0  0  0  0  0  0  0  0
   22.1222   -9.4640    2.8093 O   0  0  0  0  0  0  0  0  0  0  0  0
   17.6741  -11.8609    2.7428 O   0  0  0  0  0  0  0  0  0  0  0  0
   13.5704   -9.7667    1.1632 H   0  0  0  0  0  0  0  0  0  0  0  0
   11.2577   -9.6901    0.2794 H   0  0  0  0  0  0  0  0  0  0  0  0
   16.7922   -9.6557   -1.8725 H   0  0  0  0  0  0  0  0  0  0  0  0
   19.0896   -9.9273   -0.9862 H   0  0  0  0  0  0  0  0  0  0  0  0
   10.8070  -10.2662   -2.1027 H   0  0  0  0  0  0  0  0  0  0  0  0
   14.6135  -11.6315   -4.0107 H   0  0  0  0  0  0  0  0  0  0  0  0
   13.4821  -12.1332   -5.3126 H   0  0  0  0  0  0  0  0  0  0  0  0
   14.1729  -10.4750   -5.3126 H   0  0  0  0  0  0  0  0  0  0  0  0
   21.6076  -11.7236    1.8827 H   0  0  0  0  0  0  0  0  0  0  0  0
   21.1299  -11.0135    0.2767 H   0  0  0  0  0  0  0  0  0  0  0  0
   19.6635  -12.1937    3.5841 H   0  0  0  0  0  0  0  0  0  0  0  0
   15.1575  -11.4953    1.6919 H   0  0  0  0  0  0  0  0  0  0  0  0
   15.0171  -10.9863   -2.7151 H   0  0  0  0  0  0  0  0  0  0  0  0
  1  2  2  0
  1  4  1  0
  2  7  1  0
  3  5  2  0
  3  8  1  0
  4  8  1  0
  4 17  2  0
  5 18  1  0
  6  7  2  0
  6 10  1  0
  6 17  1  0
  8 16  2  0
  9 10  1  0
 11 12  1  0
 11 14  2  0
 11 18  1  0
 12 13  1  0
 13 19  2  0
 13 20  1  0
 14 21  1  0
 15 16  1  0
 15 18  2  0
 15 21  1  0
  1 22  1  0
  2 23  1  0
  3 24  1  0
  5 25  1  0
  7 26  1  0
  9 27  1  0
  9 28  1  0
  9 29  1  0
 12 30  1  0
 12 31  1  0
 14 32  1  0
 16 33  1  0
 17 34  1  0
M  CHG  1  20  -1
M  END
>  <filename_input>  (16) 
7L7C_XQ1_docked.sdf

>  <pdb_id>  (16) 
7L7C_XQ1

>  <pose_rank>  (16) 
15

>  <num_atoms_heavy>  (16) 
21

>  <num_torsions>  (16) 
4

>  <pose>  (16) 
[16.93915066835594, -10.124687055133123, -0.8884175116050582, 0.3307841368515158, -1.2839474608770514, -1.1366447882028847, -6.298331068318538, 0.24196001930502326, -5.75343151507029, 0.6210335570157475]

>  <energy>  (16) 
-417.5995246987618

>  <inter_energy>  (16) 
-400.7327420074238

>  <intra_energy>  (16) 
0.838462411425819

>  <rmsd>  (16) 
7.40002

>  <sdf_rank>  (16) 
0

$$$$

     RDKit          3D

 34 36  0  0  0  0  0  0  0  0999 V2000
   19.7228  -12.9972    6.4616 C   0  0  0  0  0  0  0  0  0  0  0  0
   19.5572  -13.9587    7.4447 C   0  0  0  0  0  0  0  0  0  0  0  0
   18.5821  -12.0458    3.0341 C   0  0  0  0  0  0  0  0  0  0  0  0
   19.2489  -13.2132    5.1660 C   0  0  0  0  0  0  0  0  0  0  0  0
   18.8168  -11.1411    2.0093 C   0  0  0  0  0  0  0  0  0  0  0  0
   18.3866  -15.3462    5.8775 C   0  0  0  0  0  0  0  0  0  0  0  0
   18.8974  -15.1449    7.1585 C   0  0  0  0  0  0  0  0  0  0  0  0
   19.4976  -12.2260    4.0854 C   0  0  0  0  0  0  0  0  0  0  0  0
   17.4997  -16.8603    4.2216 C   0  0  0  0  0  0  0  0  0  0  0  0
   17.6240  -16.4597    5.5960 O   0  0  0  0  0  0  0  0  0  0  0  0
   20.5930   -9.3989    1.1510 C   0  0  0  0  0  0  0  0  0  0  0  0
   20.0287   -8.8334   -0.1114 C   0  0  0  0  0  0  0  0  0  0  0  0
   18.9773   -7.7867    0.1433 C   0  0  0  0  0  0  0  0  0  0  0  0
   21.7642   -9.0886    1.7279 C   0  0  0  0  0  0  0  0  0  0  0  0
   20.8744  -10.5699    3.0679 C   0  0  0  0  0  0  0  0  0  0  0  0
   20.6707  -11.4626    4.0956 C   0  0  0  0  0  0  0  0  0  0  0  0
   18.5631  -14.3961    4.8878 C   0  0  0  0  0  0  0  0  0  0  0  0
   19.9899  -10.3836    2.0186 C   0  0  0  0  0  0  0  0  0  0  0  0
   18.2377   -8.0101    1.2100 O   0  0  0  0  0  0  0  0  0  0  0  0
   18.8950   -6.8091   -0.5502 O   0  0  0  0  0  0  0  0  0  0  0  0
   21.9819   -9.7733    2.9015 O   0  0  0  0  0  0  0  0  0  0  0  0
   20.2330  -12.0534    6.7040 H   0  0  0  0  0  0  0  0  0  0  0  0
   19.9505  -13.7809    8.4565 H   0  0  0  0  0  0  0  0  0  0  0  0
   17.6552  -12.6380    3.0238 H   0  0  0  0  0  0  0  0  0  0  0  0
   18.0853  -11.0212    1.1966 H   0  0  0  0  0  0  0  0  0  0  0  0
   18.7789  -15.9170    7.9329 H   0  0  0  0  0  0  0  0  0  0  0  0
   17.1740  -17.9099    4.1737 H   0  0  0  0  0  0  0  0  0  0  0  0
   16.7571  -16.2227    3.7196 H   0  0  0  0  0  0  0  0  0  0  0  0
   18.4727  -16.7550    3.7196 H   0  0  0  0  0  0  0  0  0  0  0  0
   20.8460   -8.3785   -0.6901 H   0  0  0  0  0  0  0  0  0  0  0  0
   19.5521   -9.6577   -0.6622 H   0  0  0  0  0  0  0  0  0  0  0  0
   22.4757   -8.3630    1.3067 H   0  0  0  0  0  0  0  0  0  0  0  0
   21.4097  -11.5730    4.9029 H   0  0  0  0  0  0  0  0  0  0  0  0
   18.1619  -14.5736    3.8791 H   0  0  0  0  0  0  0  0  0  0  0  0
  1  2  2  0
  1  4  1  0
  2  7  1  0
  3  5  2  0
  3  8  1  0
  4  8  1  0
  4 17  2  0
  5 18  1  0
  6  7  2  0
  6 10  1  0
  6 17  1  0
  8 16  2  0
  9 10  1  0
 11 12  1  0
 11 14  2  0
 11 18  1  0
 12 13  1  0
 13 19  2  0
 13 20  1  0
 14 21  1  0
 15 16  1  0
 15 18  2  0
 15 21  1  0
  1 22  1  0
  2 23  1  0
  3 24  1  0
  5 25  1  0
  7 26  1  0
  9 27  1  0
  9 28  1  0
  9 29  1  0
 12 30  1  0
 12 31  1  0
 14 32  1  0
 16 33  1  0
 17 34  1  0
M  CHG  1  20  -1
M  END
>  <filename_input>  (17) 
7L7C_XQ1_docked.sdf

>  <pdb_id>  (17) 
7L7C_XQ1

>  <pose_rank>  (17) 
16

>  <num_atoms_heavy>  (17) 
21

>  <num_torsions>  (17) 
4

>  <pose>  (17) 
[18.58214362229741, -12.045818788386041, 3.034091873025718, 6.048654023757232, 1.526419780543607, -0.654386458047012, -6.46016919181519, 0.5090879780360175, -5.900860967385094, 1.288196756642351]

>  <energy>  (17) 
-747.1356296387728

>  <inter_energy>  (17) 
-758.4099346747927

>  <intra_energy>  (17) 
11.797678685889196

>  <rmsd>  (17) 
0.571439

>  <sdf_rank>  (17) 
0

$$$$

     RDKit          3D

 34 36  0  0  0  0  0  0  0  0999 V2000
   14.3474  -10.9607   -1.6227 C   0  0  0  0  0  0  0  0  0  0  0  0
   13.1154  -11.1127   -2.2371 C   0  0  0  0  0  0  0  0  0  0  0  0
   16.6442   -8.2974   -0.3907 C   0  0  0  0  0  0  0  0  0  0  0  0
   14.6831   -9.7652   -0.9841 C   0  0  0  0  0  0  0  0  0  0  0  0
   17.9129   -8.1038    0.1353 C   0  0  0  0  0  0  0  0  0  0  0  0
   12.5034   -8.9025   -1.5355 C   0  0  0  0  0  0  0  0  0  0  0  0
   12.1877  -10.0818   -2.2078 C   0  0  0  0  0  0  0  0  0  0  0  0
   16.0322   -9.5628   -0.3984 C   0  0  0  0  0  0  0  0  0  0  0  0
   11.2881   -7.4318   -0.0586 C   0  0  0  0  0  0  0  0  0  0  0  0
   11.5598   -7.9084   -1.3866 O   0  0  0  0  0  0  0  0  0  0  0  0
   19.9056   -9.3983    1.2669 C   0  0  0  0  0  0  0  0  0  0  0  0
   20.9605   -8.3725    1.5251 C   0  0  0  0  0  0  0  0  0  0  0  0
   21.2787   -7.5506    0.3047 C   0  0  0  0  0  0  0  0  0  0  0  0
   19.9610  -10.7092    1.5481 C   0  0  0  0  0  0  0  0  0  0  0  0
   17.9799  -10.4262    0.6668 C   0  0  0  0  0  0  0  0  0  0  0  0
   16.7245  -10.6495    0.1485 C   0  0  0  0  0  0  0  0  0  0  0  0
   13.7383   -8.7396   -0.9340 C   0  0  0  0  0  0  0  0  0  0  0  0
   18.6041   -9.1899    0.6762 C   0  0  0  0  0  0  0  0  0  0  0  0
   20.4530   -6.5456    0.0980 O   0  0  0  0  0  0  0  0  0  0  0  0
   22.2518   -7.7810   -0.3614 O   0  0  0  0  0  0  0  0  0  0  0  0
   18.8100  -11.3806    1.2043 O   0  0  0  0  0  0  0  0  0  0  0  0
   15.0691  -11.7907   -1.6380 H   0  0  0  0  0  0  0  0  0  0  0  0
   12.8717  -12.0545   -2.7503 H   0  0  0  0  0  0  0  0  0  0  0  0
   16.1027   -7.4381   -0.8129 H   0  0  0  0  0  0  0  0  0  0  0  0
   18.3706   -7.1035    0.1264 H   0  0  0  0  0  0  0  0  0  0  0  0
   11.2149  -10.1937   -2.7089 H   0  0  0  0  0  0  0  0  0  0  0  0
   11.6934   -8.1429    0.6762 H   0  0  0  0  0  0  0  0  0  0  0  0
   11.7617   -6.4490    0.0823 H   0  0  0  0  0  0  0  0  0  0  0  0
   10.2011   -7.3386    0.0823 H   0  0  0  0  0  0  0  0  0  0  0  0
   20.6103   -7.6995    2.3216 H   0  0  0  0  0  0  0  0  0  0  0  0
   21.8780   -8.9039    1.8178 H   0  0  0  0  0  0  0  0  0  0  0  0
   20.8349  -11.1962    2.0054 H   0  0  0  0  0  0  0  0  0  0  0  0
   16.2776  -11.6545    0.1635 H   0  0  0  0  0  0  0  0  0  0  0  0
   13.9760   -7.7994   -0.4149 H   0  0  0  0  0  0  0  0  0  0  0  0
  1  2  2  0
  1  4  1  0
  2  7  1  0
  3  5  2  0
  3  8  1  0
  4  8  1  0
  4 17  2  0
  5 18  1  0
  6  7  2  0
  6 10  1  0
  6 17  1  0
  8 16  2  0
  9 10  1  0
 11 12  1  0
 11 14  2  0
 11 18  1  0
 12 13  1  0
 13 19  2  0
 13 20  1  0
 14 21  1  0
 15 16  1  0
 15 18  2  0
 15 21  1  0
  1 22  1  0
  2 23  1  0
  3 24  1  0
  5 25  1  0
  7 26  1  0
  9 27  1  0
  9 28  1  0
  9 29  1  0
 12 30  1  0
 12 31  1  0
 14 32  1  0
 16 33  1  0
 17 34  1  0
M  CHG  1  20  -1
M  END
>  <filename_input>  (18) 
7L7C_XQ1_docked.sdf

>  <pdb_id>  (18) 
7L7C_XQ1

>  <pose_rank>  (18) 
17

>  <num_atoms_heavy>  (18) 
21

>  <num_torsions>  (18) 
4

>  <pose>  (18) 
[16.64421111485163, -8.297420267671727, -0.39065187265674656, 1.1948322199421222, -0.6265145637214193, -1.095664634575043, -7.588078839001664, -0.7924803838423563, 4.4002936779314314, -2.9473581939818727]

>  <energy>  (18) 
-291.98428561344326

>  <inter_energy>  (18) 
-308.4860773747589

>  <intra_energy>  (18) 
19.081953284284367

>  <rmsd>  (18) 
7.60603

>  <sdf_rank>  (18) 
0

$$$$

     RDKit          3D

 34 36  0  0  0  0  0  0  0  0999 V2000
   18.0971  -10.1861    1.4542 C   0  0  0  0  0  0  0  0  0  0  0  0
   18.1330   -9.1786    0.5044 C   0  0  0  0  0  0  0  0  0  0  0  0
   20.0396  -11.7083    4.2331 C   0  0  0  0  0  0  0  0  0  0  0  0
   19.2603  -10.5835    2.1166 C   0  0  0  0  0  0  0  0  0  0  0  0
   20.0492  -12.7745    5.1203 C   0  0  0  0  0  0  0  0  0  0  0  0
   20.4816   -8.9004    0.9020 C   0  0  0  0  0  0  0  0  0  0  0  0
   19.3267   -8.5349    0.2129 C   0  0  0  0  0  0  0  0  0  0  0  0
   19.2470  -11.7194    3.0724 C   0  0  0  0  0  0  0  0  0  0  0  0
   21.6133   -6.7700    0.8590 C   0  0  0  0  0  0  0  0  0  0  0  0
   21.6551   -8.1996    0.7211 O   0  0  0  0  0  0  0  0  0  0  0  0
   19.0141  -15.1648    5.4969 C   0  0  0  0  0  0  0  0  0  0  0  0
   19.6016  -15.6636    6.7766 C   0  0  0  0  0  0  0  0  0  0  0  0
   19.4983  -14.6572    7.8912 C   0  0  0  0  0  0  0  0  0  0  0  0
   18.1428  -15.8024    4.6999 C   0  0  0  0  0  0  0  0  0  0  0  0
   18.4697  -13.8769    3.7165 C   0  0  0  0  0  0  0  0  0  0  0  0
   18.4427  -12.8360    2.8163 C   0  0  0  0  0  0  0  0  0  0  0  0
   20.4544   -9.9167    1.8400 C   0  0  0  0  0  0  0  0  0  0  0  0
   19.2498  -13.8896    4.8608 C   0  0  0  0  0  0  0  0  0  0  0  0
   20.0623  -15.0379    9.0188 O   0  0  0  0  0  0  0  0  0  0  0  0
   18.9967  -13.5806    7.7098 O   0  0  0  0  0  0  0  0  0  0  0  0
   17.7767  -15.0582    3.6018 O   0  0  0  0  0  0  0  0  0  0  0  0
   17.1419  -10.6784    1.6893 H   0  0  0  0  0  0  0  0  0  0  0  0
   17.2113   -8.8878   -0.0208 H   0  0  0  0  0  0  0  0  0  0  0  0
   20.6688  -10.8309    4.4435 H   0  0  0  0  0  0  0  0  0  0  0  0
   20.6809  -12.7418    6.0202 H   0  0  0  0  0  0  0  0  0  0  0  0
   19.3613   -7.7458   -0.5526 H   0  0  0  0  0  0  0  0  0  0  0  0
   21.6056   -6.5048    1.9266 H   0  0  0  0  0  0  0  0  0  0  0  0
   22.4989   -6.3292    0.3781 H   0  0  0  0  0  0  0  0  0  0  0  0
   20.7034   -6.3817    0.3781 H   0  0  0  0  0  0  0  0  0  0  0  0
   19.0682  -16.5777    7.0766 H   0  0  0  0  0  0  0  0  0  0  0  0
   20.6699  -15.8572    6.6000 H   0  0  0  0  0  0  0  0  0  0  0  0
   17.7613  -16.8139    4.9031 H   0  0  0  0  0  0  0  0  0  0  0  0
   17.8064  -12.8805    1.9201 H   0  0  0  0  0  0  0  0  0  0  0  0
   21.3763  -10.1999    2.3691 H   0  0  0  0  0  0  0  0  0  0  0  0
  1  2  2  0
  1  4  1  0
  2  7  1  0
  3  5  2  0
  3  8  1  0
  4  8  1  0
  4 17  2  0
  5 18  1  0
  6  7  2  0
  6 10  1  0
  6 17  1  0
  8 16  2  0
  9 10  1  0
 11 12  1  0
 11 14  2  0
 11 18  1  0
 12 13  1  0
 13 19  2  0
 13 20  1  0
 14 21  1  0
 15 16  1  0
 15 18  2  0
 15 21  1  0
  1 22  1  0
  2 23  1  0
  3 24  1  0
  5 25  1  0
  7 26  1  0
  9 27  1  0
  9 28  1  0
  9 29  1  0
 12 30  1  0
 12 31  1  0
 14 32  1  0
 16 33  1  0
 17 34  1  0
M  CHG  1  20  -1
M  END
>  <filename_input>  (19) 
7L7C_XQ1_docked.sdf

>  <pdb_id>  (19) 
7L7C_XQ1

>  <pose_rank>  (19) 
18

>  <num_atoms_heavy>  (19) 
21

>  <num_torsions>  (19) 
4

>  <pose>  (19) 
[20.039565123025586, -11.708305831580175, 4.233149340434853, 1.9219879451321968, -1.7879555235432019, -1.6356538490880006, -0.08823464683288927, -2.0921218191583133, -6.416655166857555, 5.083132625303607]

>  <energy>  (19) 
-561.7118459980604

>  <inter_energy>  (19) 
-605.8525722930448

>  <intra_energy>  (19) 
34.92153857627731

>  <rmsd>  (19) 
7.57993

>  <sdf_rank>  (19) 
0

$$$$

     RDKit          3D

 34 36  0  0  0  0  0  0  0  0999 V2000
   21.4653   -4.3477    0.9725 C   0  0  0  0  0  0  0  0  0  0  0  0
   22.2050   -3.2195    0.6588 C   0  0  0  0  0  0  0  0  0  0  0  0
   19.7614   -6.7757    1.0532 C   0  0  0  0  0  0  0  0  0  0  0  0
   21.9828   -5.6249    0.7474 C   0  0  0  0  0  0  0  0  0  0  0  0
   18.9905   -7.8999    1.3096 C   0  0  0  0  0  0  0  0  0  0  0  0
   24.0186   -4.6179   -0.0532 C   0  0  0  0  0  0  0  0  0  0  0  0
   23.4829   -3.3450    0.1339 C   0  0  0  0  0  0  0  0  0  0  0  0
   21.1646   -6.8378    0.9998 C   0  0  0  0  0  0  0  0  0  0  0  0
   25.5665   -5.3815   -1.7391 C   0  0  0  0  0  0  0  0  0  0  0  0
   25.3269   -4.7732   -0.4596 O   0  0  0  0  0  0  0  0  0  0  0  0
   19.1887  -10.4718    1.8322 C   0  0  0  0  0  0  0  0  0  0  0  0
   17.7865  -10.9620    1.9916 C   0  0  0  0  0  0  0  0  0  0  0  0
   17.1087  -11.2146    0.6714 C   0  0  0  0  0  0  0  0  0  0  0  0
   20.3173  -11.1899    1.9375 C   0  0  0  0  0  0  0  0  0  0  0  0
   21.0018   -9.1707    1.4520 C   0  0  0  0  0  0  0  0  0  0  0  0
   21.7927   -8.0719    1.2038 C   0  0  0  0  0  0  0  0  0  0  0  0
   23.2781   -5.7480    0.2434 C   0  0  0  0  0  0  0  0  0  0  0  0
   19.6191   -9.1294    1.5176 C   0  0  0  0  0  0  0  0  0  0  0  0
   17.9299  -11.2734   -0.3565 O   0  0  0  0  0  0  0  0  0  0  0  0
   15.9248  -11.4092    0.6097 O   0  0  0  0  0  0  0  0  0  0  0  0
   21.4510  -10.4434    1.7113 O   0  0  0  0  0  0  0  0  0  0  0  0
   20.4595   -4.2363    1.4036 H   0  0  0  0  0  0  0  0  0  0  0  0
   21.7775   -2.2200    0.8266 H   0  0  0  0  0  0  0  0  0  0  0  0
   19.2614   -5.8100    0.8871 H   0  0  0  0  0  0  0  0  0  0  0  0
   17.8939   -7.8236    1.3489 H   0  0  0  0  0  0  0  0  0  0  0  0
   24.0662   -2.4509   -0.1315 H   0  0  0  0  0  0  0  0  0  0  0  0
   25.9660   -6.3960   -1.5937 H   0  0  0  0  0  0  0  0  0  0  0  0
   24.6227   -5.4362   -2.3015 H   0  0  0  0  0  0  0  0  0  0  0  0
   26.2941   -4.7780   -2.3015 H   0  0  0  0  0  0  0  0  0  0  0  0
   17.8044  -11.9012    2.5640 H   0  0  0  0  0  0  0  0  0  0  0  0
   17.2171  -10.1794    2.5145 H   0  0  0  0  0  0  0  0  0  0  0  0
   20.3345  -12.2629    2.1793 H   0  0  0  0  0  0  0  0  0  0  0  0
   22.8885   -8.1611    1.1668 H   0  0  0  0  0  0  0  0  0  0  0  0
   23.7115   -6.7460    0.0817 H   0  0  0  0  0  0  0  0  0  0  0  0
  1  2  2  0
  1  4  1  0
  2  7  1  0
  3  5  2  0
  3  8  1  0
  4  8  1  0
  4 17  2  0
  5 18  1  0
  6  7  2  0
  6 10  1  0
  6 17  1  0
  8 16  2  0
  9 10  1  0
 11 12  1  0
 11 14  2  0
 11 18  1  0
 12 13  1  0
 13 19  2  0
 13 20  1  0
 14 21  1  0
 15 16  1  0
 15 18  2  0
 15 21  1  0
  1 22  1  0
  2 23  1  0
  3 24  1  0
  5 25  1  0
  7 26  1  0
  9 27  1  0
  9 28  1  0
  9 29  1  0
 12 30  1  0
 12 31  1  0
 14 32  1  0
 16 33  1  0
 17 34  1  0
M  CHG  1  20  -1
M  END
>  <filename_input>  (20) 
7L7C_XQ1_docked.sdf

>  <pdb_id>  (20) 
7L7C_XQ1

>  <pose_rank>  (20) 
19

>  <num_atoms_heavy>  (20) 
21

>  <num_torsions>  (20) 
4

>  <pose>  (20) 
[19.761369087944356, -6.775678541119297, 1.0531618611433486, -2.415552168749122, 0.5660855429932872, -0.9984141261847732, 2.782071878208767, 7.553974158159893, 0.40774745271462126, -4.127763932842736]

>  <energy>  (20) 
-374.0387300846417

>  <inter_energy>  (20) 
-370.57327208620717

>  <intra_energy>  (20) 
4.995998491012363

>  <rmsd>  (20) 
8.51232

>  <sdf_rank>  (20) 
0

$$$$

     RDKit          3D

 34 36  0  0  0  0  0  0  0  0999 V2000
   13.9777  -11.8978   -2.0596 C   0  0  0  0  0  0  0  0  0  0  0  0
   12.7098  -11.9357   -2.6157 C   0  0  0  0  0  0  0  0  0  0  0  0
   16.6289  -11.9090   -0.7564 C   0  0  0  0  0  0  0  0  0  0  0  0
   14.2247  -11.1655   -0.8966 C   0  0  0  0  0  0  0  0  0  0  0  0
   17.9083  -11.8209   -0.2281 C   0  0  0  0  0  0  0  0  0  0  0  0
   11.8942  -10.5627   -0.8264 C   0  0  0  0  0  0  0  0  0  0  0  0
   11.6603  -11.2604   -2.0100 C   0  0  0  0  0  0  0  0  0  0  0  0
   15.5970  -11.0490   -0.3422 C   0  0  0  0  0  0  0  0  0  0  0  0
   11.0140   -9.7590    1.2712 C   0  0  0  0  0  0  0  0  0  0  0  0
   10.8496   -9.9828   -0.1386 O   0  0  0  0  0  0  0  0  0  0  0  0
   19.3368  -10.4748    1.5254 C   0  0  0  0  0  0  0  0  0  0  0  0
   20.7078  -11.0656    1.4701 C   0  0  0  0  0  0  0  0  0  0  0  0
   21.5896  -10.5863    2.5920 C   0  0  0  0  0  0  0  0  0  0  0  0
   18.9163   -9.4696    2.3086 C   0  0  0  0  0  0  0  0  0  0  0  0
   17.1577  -10.0090    1.1262 C   0  0  0  0  0  0  0  0  0  0  0  0
   15.8781  -10.0754    0.6232 C   0  0  0  0  0  0  0  0  0  0  0  0
   13.1619  -10.5085   -0.2756 C   0  0  0  0  0  0  0  0  0  0  0  0
   18.1858  -10.8520    0.7385 C   0  0  0  0  0  0  0  0  0  0  0  0
   22.3974   -9.5998    2.2623 O   0  0  0  0  0  0  0  0  0  0  0  0
   21.4881  -11.0430    3.6986 O   0  0  0  0  0  0  0  0  0  0  0  0
   17.5951   -9.1450    2.1014 O   0  0  0  0  0  0  0  0  0  0  0  0
   14.7990  -12.4505   -2.5392 H   0  0  0  0  0  0  0  0  0  0  0  0
   12.5343  -12.5036   -3.5412 H   0  0  0  0  0  0  0  0  0  0  0  0
   16.4161  -12.6719   -1.5197 H   0  0  0  0  0  0  0  0  0  0  0  0
   18.6973  -12.5081   -0.5674 H   0  0  0  0  0  0  0  0  0  0  0  0
   10.6560  -11.2753   -2.4584 H   0  0  0  0  0  0  0  0  0  0  0  0
   10.4535  -10.5219    1.8314 H   0  0  0  0  0  0  0  0  0  0  0  0
   12.0810   -9.8236    1.5308 H   0  0  0  0  0  0  0  0  0  0  0  0
   10.6334   -8.7601    1.5308 H   0  0  0  0  0  0  0  0  0  0  0  0
   20.6224  -12.1606    1.5320 H   0  0  0  0  0  0  0  0  0  0  0  0
   21.1699  -10.7480    0.5237 H   0  0  0  0  0  0  0  0  0  0  0  0
   19.5601   -8.9586    3.0395 H   0  0  0  0  0  0  0  0  0  0  0  0
   15.0978   -9.3822    0.9705 H   0  0  0  0  0  0  0  0  0  0  0  0
   13.3324   -9.9461    0.6543 H   0  0  0  0  0  0  0  0  0  0  0  0
  1  2  2  0
  1  4  1  0
  2  7  1  0
  3  5  2  0
  3  8  1  0
  4  8  1  0
  4 17  2  0
  5 18  1  0
  6  7  2  0
  6 10  1  0
  6 17  1  0
  8 16  2  0
  9 10  1  0
 11 12  1  0
 11 14  2  0
 11 18  1  0
 12 13  1  0
 13 19  2  0
 13 20  1  0
 14 21  1  0
 15 16  1  0
 15 18  2  0
 15 21  1  0
  1 22  1  0
  2 23  1  0
  3 24  1  0
  5 25  1  0
  7 26  1  0
  9 27  1  0
  9 28  1  0
  9 29  1  0
 12 30  1  0
 12 31  1  0
 14 32  1  0
 16 33  1  0
 17 34  1  0
M  CHG  1  20  -1
M  END
>  <filename_input>  (21) 
7L7C_XQ1_docked.sdf

>  <pdb_id>  (21) 
7L7C_XQ1

>  <pose_rank>  (21) 
20

>  <num_atoms_heavy>  (21) 
21

>  <num_torsions>  (21) 
4

>  <pose>  (21) 
[16.628881028613712, -11.908967641057808, -0.7564169295323532, 1.758213723128983, 3.7501573166733437, 0.8166398136978673, -4.131810323517368, -0.275354542672916, -3.949829802924592, 0.17720045781213295]

>  <energy>  (21) 
-368.9838769509752

>  <inter_energy>  (21) 
-357.13336533464775

>  <intra_energy>  (21) 
2.756616639320547

>  <rmsd>  (21) 
7.38476

>  <sdf_rank>  (21) 
0

$$$$

     RDKit          3D

 34 36  0  0  0  0  0  0  0  0999 V2000
   23.0125   -4.3677   -0.2128 C   0  0  0  0  0  0  0  0  0  0  0  0
   23.5185   -3.3277   -0.9748 C   0  0  0  0  0  0  0  0  0  0  0  0
   23.5151   -7.8263    0.8122 C   0  0  0  0  0  0  0  0  0  0  0  0
   23.3270   -5.6936   -0.5176 C   0  0  0  0  0  0  0  0  0  0  0  0
   22.9559   -8.8912    1.5030 C   0  0  0  0  0  0  0  0  0  0  0  0
   24.7136   -4.9098   -2.3239 C   0  0  0  0  0  0  0  0  0  0  0  0
   24.3643   -3.5903   -2.0425 C   0  0  0  0  0  0  0  0  0  0  0  0
   22.7211   -6.8176    0.2397 C   0  0  0  0  0  0  0  0  0  0  0  0
   26.6315   -6.1986   -3.0180 C   0  0  0  0  0  0  0  0  0  0  0  0
   25.6442   -5.1936   -3.3008 O   0  0  0  0  0  0  0  0  0  0  0  0
   20.6359   -9.8963    2.2341 C   0  0  0  0  0  0  0  0  0  0  0  0
   20.9552  -11.1463    2.9872 C   0  0  0  0  0  0  0  0  0  0  0  0
   19.7887  -12.0954    3.0532 C   0  0  0  0  0  0  0  0  0  0  0  0
   19.4198   -9.3904    1.9777 C   0  0  0  0  0  0  0  0  0  0  0  0
   20.8046   -7.9584    1.0761 C   0  0  0  0  0  0  0  0  0  0  0  0
   21.3306   -6.8925    0.3819 C   0  0  0  0  0  0  0  0  0  0  0  0
   24.1985   -5.9532   -1.5760 C   0  0  0  0  0  0  0  0  0  0  0  0
   21.5683   -8.9668    1.6398 C   0  0  0  0  0  0  0  0  0  0  0  0
   19.5170  -12.6998    1.9150 O   0  0  0  0  0  0  0  0  0  0  0  0
   19.2214  -12.3092    4.0905 O   0  0  0  0  0  0  0  0  0  0  0  0
   19.4680   -8.2072    1.2766 O   0  0  0  0  0  0  0  0  0  0  0  0
   22.3559   -4.1468    0.6416 H   0  0  0  0  0  0  0  0  0  0  0  0
   23.2485   -2.2892   -0.7324 H   0  0  0  0  0  0  0  0  0  0  0  0
   24.6089   -7.7697    0.7097 H   0  0  0  0  0  0  0  0  0  0  0  0
   23.5998   -9.6692    1.9391 H   0  0  0  0  0  0  0  0  0  0  0  0
   24.7544   -2.7674   -2.6594 H   0  0  0  0  0  0  0  0  0  0  0  0
   26.7404   -6.3094   -1.9291 H   0  0  0  0  0  0  0  0  0  0  0  0
   26.3143   -7.1572   -3.4543 H   0  0  0  0  0  0  0  0  0  0  0  0
   27.5956   -5.8984   -3.4543 H   0  0  0  0  0  0  0  0  0  0  0  0
   21.7945  -11.6535    2.4887 H   0  0  0  0  0  0  0  0  0  0  0  0
   21.2100  -10.8588    4.0179 H   0  0  0  0  0  0  0  0  0  0  0  0
   18.4825   -9.8711    2.2948 H   0  0  0  0  0  0  0  0  0  0  0  0
   20.6762   -6.1207   -0.0494 H   0  0  0  0  0  0  0  0  0  0  0  0
   24.4765   -6.9900   -1.8162 H   0  0  0  0  0  0  0  0  0  0  0  0
  1  2  2  0
  1  4  1  0
  2  7  1  0
  3  5  2  0
  3  8  1  0
  4  8  1  0
  4 17  2  0
  5 18  1  0
  6  7  2  0
  6 10  1  0
  6 17  1  0
  8 16  2  0
  9 10  1  0
 11 12  1  0
 11 14  2  0
 11 18  1  0
 12 13  1  0
 13 19  2  0
 13 20  1  0
 14 21  1  0
 15 16  1  0
 15 18  2  0
 15 21  1  0
  1 22  1  0
  2 23  1  0
  3 24  1  0
  5 25  1  0
  7 26  1  0
  9 27  1  0
  9 28  1  0
  9 29  1  0
 12 30  1  0
 12 31  1  0
 14 32  1  0
 16 33  1  0
 17 34  1  0
M  CHG  1  20  -1
M  END
>  <filename_input>  (22) 
7L7C_XQ1_docked.sdf

>  <pdb_id>  (22) 
7L7C_XQ1

>  <pose_rank>  (22) 
21

>  <num_atoms_heavy>  (22) 
21

>  <num_torsions>  (22) 
4

>  <pose>  (22) 
[23.515148370850138, -7.8263463745197255, 0.812195930687694, 0.6456566078401385, -2.3465269810431213, -2.422292771406202, 0.18700524472191166, -0.5977149019751256, -3.7776402976963963, 3.1531785192470783]

>  <energy>  (22) 
-334.4732398430369

>  <inter_energy>  (22) 
-332.33694569310785

>  <intra_energy>  (22) 
2.497777922869861

>  <rmsd>  (22) 
9.4293

>  <sdf_rank>  (22) 
0

$$$$

     RDKit          3D

 34 36  0  0  0  0  0  0  0  0999 V2000
   25.4953   -2.4635   -0.1781 C   0  0  0  0  0  0  0  0  0  0  0  0
   26.3408   -1.4777   -0.6595 C   0  0  0  0  0  0  0  0  0  0  0  0
   24.8749   -6.1722   -0.3894 C   0  0  0  0  0  0  0  0  0  0  0  0
   25.5530   -3.7630   -0.6859 C   0  0  0  0  0  0  0  0  0  0  0  0
   23.9750   -7.1503    0.0072 C   0  0  0  0  0  0  0  0  0  0  0  0
   27.3624   -3.0811   -2.1214 C   0  0  0  0  0  0  0  0  0  0  0  0
   27.2737   -1.7755   -1.6420 C   0  0  0  0  0  0  0  0  0  0  0  0
   24.5936   -4.8034   -0.2375 C   0  0  0  0  0  0  0  0  0  0  0  0
   28.9182   -4.7523   -2.9008 C   0  0  0  0  0  0  0  0  0  0  0  0
   28.3569   -3.4340   -3.0087 O   0  0  0  0  0  0  0  0  0  0  0  0
   21.5865   -7.4595    1.0685 C   0  0  0  0  0  0  0  0  0  0  0  0
   21.3661   -8.9350    1.1473 C   0  0  0  0  0  0  0  0  0  0  0  0
   19.9616   -9.3304    0.7774 C   0  0  0  0  0  0  0  0  0  0  0  0
   20.7422   -6.4902    1.4536 C   0  0  0  0  0  0  0  0  0  0  0  0
   22.5035   -5.4184    0.7253 C   0  0  0  0  0  0  0  0  0  0  0  0
   23.3747   -4.4258    0.3376 C   0  0  0  0  0  0  0  0  0  0  0  0
   26.5098   -4.0655   -1.6555 C   0  0  0  0  0  0  0  0  0  0  0  0
   22.7574   -6.7717    0.5764 C   0  0  0  0  0  0  0  0  0  0  0  0
   19.5081   -8.7568   -0.3181 O   0  0  0  0  0  0  0  0  0  0  0  0
   19.3616  -10.1543    1.4135 O   0  0  0  0  0  0  0  0  0  0  0  0
   21.2555   -5.2269    1.2680 O   0  0  0  0  0  0  0  0  0  0  0  0
   24.7705   -2.2200    0.6127 H   0  0  0  0  0  0  0  0  0  0  0  0
   26.2722   -0.4547   -0.2612 H   0  0  0  0  0  0  0  0  0  0  0  0
   25.8339   -6.4756   -0.8346 H   0  0  0  0  0  0  0  0  0  0  0  0
   24.2184   -8.2149   -0.1255 H   0  0  0  0  0  0  0  0  0  0  0  0
   27.9353   -0.9908   -2.0378 H   0  0  0  0  0  0  0  0  0  0  0  0
   29.0310   -5.0170   -1.8391 H   0  0  0  0  0  0  0  0  0  0  0  0
   28.2504   -5.4765   -3.3903 H   0  0  0  0  0  0  0  0  0  0  0  0
   29.9031   -4.7726   -3.3903 H   0  0  0  0  0  0  0  0  0  0  0  0
   22.0652   -9.4330    0.4594 H   0  0  0  0  0  0  0  0  0  0  0  0
   21.5354   -9.2422    2.1899 H   0  0  0  0  0  0  0  0  0  0  0  0
   19.7443   -6.6850    1.8735 H   0  0  0  0  0  0  0  0  0  0  0  0
   23.1199   -3.3646    0.4759 H   0  0  0  0  0  0  0  0  0  0  0  0
   26.5861   -5.0894   -2.0503 H   0  0  0  0  0  0  0  0  0  0  0  0
  1  2  2  0
  1  4  1  0
  2  7  1  0
  3  5  2  0
  3  8  1  0
  4  8  1  0
  4 17  2  0
  5 18  1  0
  6  7  2  0
  6 10  1  0
  6 17  1  0
  8 16  2  0
  9 10  1  0
 11 12  1  0
 11 14  2  0
 11 18  1  0
 12 13  1  0
 13 19  2  0
 13 20  1  0
 14 21  1  0
 15 16  1  0
 15 18  2  0
 15 21  1  0
  1 22  1  0
  2 23  1  0
  3 24  1  0
  5 25  1  0
  7 26  1  0
  9 27  1  0
  9 28  1  0
  9 29  1  0
 12 30  1  0
 12 31  1  0
 14 32  1  0
 16 33  1  0
 17 34  1  0
M  CHG  1  20  -1
M  END
>  <filename_input>  (23) 
7L7C_XQ1_docked.sdf

>  <pdb_id>  (23) 
7L7C_XQ1

>  <pose_rank>  (23) 
22

>  <num_atoms_heavy>  (23) 
21

>  <num_torsions>  (23) 
4

>  <pose>  (23) 
[24.874868354796828, -6.172208790048677, -0.389435764014254, -0.38035359431861093, -2.0185909151780326, -3.010303462222839, -0.3617817642164795, -0.46486758523171084, -3.4278339433734866, 2.697175734995718]

>  <energy>  (23) 
-220.19707186083468

>  <inter_energy>  (23) 
-228.78787745886368

>  <intra_energy>  (23) 
6.6164064099781275

>  <rmsd>  (23) 
11.0476

>  <sdf_rank>  (23) 
0

$$$$

     RDKit          3D

 34 36  0  0  0  0  0  0  0  0999 V2000
   28.9886  -19.5295    9.1095 C   0  0  0  0  0  0  0  0  0  0  0  0
   29.0848  -19.3193   10.4751 C   0  0  0  0  0  0  0  0  0  0  0  0
   27.7768  -19.7351    6.3037 C   0  0  0  0  0  0  0  0  0  0  0  0
   28.7720  -18.4609    8.2371 C   0  0  0  0  0  0  0  0  0  0  0  0
   27.6109  -19.9664    4.9462 C   0  0  0  0  0  0  0  0  0  0  0  0
   28.8129  -16.9628   10.1222 C   0  0  0  0  0  0  0  0  0  0  0  0
   28.9873  -18.0364   10.9936 C   0  0  0  0  0  0  0  0  0  0  0  0
   28.5818  -18.6869    6.7822 C   0  0  0  0  0  0  0  0  0  0  0  0
   28.9999  -15.4703   12.0087 C   0  0  0  0  0  0  0  0  0  0  0  0
   28.8323  -15.6680   10.5953 O   0  0  0  0  0  0  0  0  0  0  0  0
   28.3577  -19.0717    2.5863 C   0  0  0  0  0  0  0  0  0  0  0  0
   27.6832  -19.9536    1.5868 C   0  0  0  0  0  0  0  0  0  0  0  0
   27.6783  -19.3609    0.2031 C   0  0  0  0  0  0  0  0  0  0  0  0
   29.1782  -18.0397    2.3365 C   0  0  0  0  0  0  0  0  0  0  0  0
   29.0363  -18.1049    4.5176 C   0  0  0  0  0  0  0  0  0  0  0  0
   29.2229  -17.8538    5.8580 C   0  0  0  0  0  0  0  0  0  0  0  0
   28.7002  -17.1688    8.7591 C   0  0  0  0  0  0  0  0  0  0  0  0
   28.2550  -19.1372    4.0256 C   0  0  0  0  0  0  0  0  0  0  0  0
   26.8062  -18.3886    0.0334 O   0  0  0  0  0  0  0  0  0  0  0  0
   28.4651  -19.7233   -0.6294 O   0  0  0  0  0  0  0  0  0  0  0  0
   29.6172  -17.4144    3.4811 O   0  0  0  0  0  0  0  0  0  0  0  0
   29.0838  -20.5491    8.7079 H   0  0  0  0  0  0  0  0  0  0  0  0
   29.2391  -20.1732   11.1513 H   0  0  0  0  0  0  0  0  0  0  0  0
   27.2649  -20.3893    7.0249 H   0  0  0  0  0  0  0  0  0  0  0  0
   26.9775  -20.7956    4.5979 H   0  0  0  0  0  0  0  0  0  0  0  0
   29.0469  -17.8684   12.0791 H   0  0  0  0  0  0  0  0  0  0  0  0
   28.3830  -16.1980   12.5563 H   0  0  0  0  0  0  0  0  0  0  0  0
   30.0575  -15.6116   12.2758 H   0  0  0  0  0  0  0  0  0  0  0  0
   28.6874  -14.4501   12.2758 H   0  0  0  0  0  0  0  0  0  0  0  0
   28.2109  -20.9183    1.5551 H   0  0  0  0  0  0  0  0  0  0  0  0
   26.6362  -20.0745    1.9015 H   0  0  0  0  0  0  0  0  0  0  0  0
   29.4694  -17.7265    1.3231 H   0  0  0  0  0  0  0  0  0  0  0  0
   29.8586  -17.0212    6.1937 H   0  0  0  0  0  0  0  0  0  0  0  0
   28.5537  -16.3121    8.0849 H   0  0  0  0  0  0  0  0  0  0  0  0
  1  2  2  0
  1  4  1  0
  2  7  1  0
  3  5  2  0
  3  8  1  0
  4  8  1  0
  4 17  2  0
  5 18  1  0
  6  7  2  0
  6 10  1  0
  6 17  1  0
  8 16  2  0
  9 10  1  0
 11 12  1  0
 11 14  2  0
 11 18  1  0
 12 13  1  0
 13 19  2  0
 13 20  1  0
 14 21  1  0
 15 16  1  0
 15 18  2  0
 15 21  1  0
  1 22  1  0
  2 23  1  0
  3 24  1  0
  5 25  1  0
  7 26  1  0
  9 27  1  0
  9 28  1  0
  9 29  1  0
 12 30  1  0
 12 31  1  0
 14 32  1  0
 16 33  1  0
 17 34  1  0
M  CHG  1  20  -1
M  END
>  <filename_input>  (24) 
7L7C_XQ1_docked.sdf

>  <pdb_id>  (24) 
7L7C_XQ1

>  <pose_rank>  (24) 
23

>  <num_atoms_heavy>  (24) 
21

>  <num_torsions>  (24) 
4

>  <pose>  (24) 
[27.77681110526951, -19.73514658898144, 6.303702678642559, 4.481001250303636, -0.7844845196656411, -2.60189737451598, -3.1151338335290775, 3.2645888369100144, -4.421748987590281, 0.5683349413309899]

>  <energy>  (24) 
-173.96029201023006

>  <inter_energy>  (24) 
-159.51303675779027

>  <intra_energy>  (24) 
2.6788540919630215

>  <rmsd>  (24) 
12.3326

>  <sdf_rank>  (24) 
0

$$$$

     RDKit          3D

 34 36  0  0  0  0  0  0  0  0999 V2000
   18.5724   -4.6927   11.8608 C   0  0  0  0  0  0  0  0  0  0  0  0
   18.1795   -4.8940   13.1736 C   0  0  0  0  0  0  0  0  0  0  0  0
   17.0960   -4.4198    8.4051 C   0  0  0  0  0  0  0  0  0  0  0  0
   17.6294   -4.4177   10.8683 C   0  0  0  0  0  0  0  0  0  0  0  0
   17.4673   -4.3194    7.0724 C   0  0  0  0  0  0  0  0  0  0  0  0
   15.9011   -4.4889   12.5439 C   0  0  0  0  0  0  0  0  0  0  0  0
   16.8403   -4.8043   13.5241 C   0  0  0  0  0  0  0  0  0  0  0  0
   18.0318   -4.2860    9.4454 C   0  0  0  0  0  0  0  0  0  0  0  0
   13.7380   -3.6200   11.9218 C   0  0  0  0  0  0  0  0  0  0  0  0
   14.5819   -4.2752   12.8827 O   0  0  0  0  0  0  0  0  0  0  0  0
   19.5661   -3.9413    5.5300 C   0  0  0  0  0  0  0  0  0  0  0  0
   19.0525   -3.9901    4.1280 C   0  0  0  0  0  0  0  0  0  0  0  0
   18.5082   -2.6651    3.6652 C   0  0  0  0  0  0  0  0  0  0  0  0
   20.8342   -3.7494    5.9245 C   0  0  0  0  0  0  0  0  0  0  0  0
   19.7080   -3.9378    7.7893 C   0  0  0  0  0  0  0  0  0  0  0  0
   19.3701   -4.0366    9.1200 C   0  0  0  0  0  0  0  0  0  0  0  0
   16.2863   -4.3026   11.2285 C   0  0  0  0  0  0  0  0  0  0  0  0
   18.8037   -4.0753    6.7495 C   0  0  0  0  0  0  0  0  0  0  0  0
   19.3080   -1.6430    3.8890 O   0  0  0  0  0  0  0  0  0  0  0  0
   17.4593   -2.5949    3.0834 O   0  0  0  0  0  0  0  0  0  0  0  0
   20.9738   -3.7357    7.2935 O   0  0  0  0  0  0  0  0  0  0  0  0
   19.6388   -4.7500   11.5971 H   0  0  0  0  0  0  0  0  0  0  0  0
   18.9324   -5.1260   13.9413 H   0  0  0  0  0  0  0  0  0  0  0  0
   16.0415   -4.6093    8.6544 H   0  0  0  0  0  0  0  0  0  0  0  0
   16.7156   -4.4310    6.2771 H   0  0  0  0  0  0  0  0  0  0  0  0
   16.5237   -4.9799   14.5628 H   0  0  0  0  0  0  0  0  0  0  0  0
   12.9749   -3.0275   12.4478 H   0  0  0  0  0  0  0  0  0  0  0  0
   14.3474   -2.9560   11.2911 H   0  0  0  0  0  0  0  0  0  0  0  0
   13.2457   -4.3748   11.2911 H   0  0  0  0  0  0  0  0  0  0  0  0
   19.8760   -4.2851    3.4610 H   0  0  0  0  0  0  0  0  0  0  0  0
   18.2278   -4.7175    4.1000 H   0  0  0  0  0  0  0  0  0  0  0  0
   21.6742   -3.6170    5.2267 H   0  0  0  0  0  0  0  0  0  0  0  0
   20.1310   -3.9228    9.9062 H   0  0  0  0  0  0  0  0  0  0  0  0
   15.5319   -4.0631   10.4646 H   0  0  0  0  0  0  0  0  0  0  0  0
  1  2  2  0
  1  4  1  0
  2  7  1  0
  3  5  2  0
  3  8  1  0
  4  8  1  0
  4 17  2  0
  5 18  1  0
  6  7  2  0
  6 10  1  0
  6 17  1  0
  8 16  2  0
  9 10  1  0
 11 12  1  0
 11 14  2  0
 11 18  1  0
 12 13  1  0
 13 19  2  0
 13 20  1  0
 14 21  1  0
 15 16  1  0
 15 18  2  0
 15 21  1  0
  1 22  1  0
  2 23  1  0
  3 24  1  0
  5 25  1  0
  7 26  1  0
  9 27  1  0
  9 28  1  0
  9 29  1  0
 12 30  1  0
 12 31  1  0
 14 32  1  0
 16 33  1  0
 17 34  1  0
M  CHG  1  20  -1
M  END
>  <filename_input>  (25) 
7L7C_XQ1_docked.sdf

>  <pdb_id>  (25) 
7L7C_XQ1

>  <pose_rank>  (25) 
24

>  <num_atoms_heavy>  (25) 
21

>  <num_torsions>  (25) 
4

>  <pose>  (25) 
[17.09603401134505, -4.419834706826834, 8.405061362881183, 4.921564511893404, -0.21258351657362834, 2.695634612020005, -1.064065594775225, -0.1280868312516393, 0.47848784771260605, 2.7448046629986615]

>  <energy>  (25) 
-169.11870348338817

>  <inter_energy>  (25) 
-169.78986827200117

>  <intra_energy>  (25) 
2.64670515990051

>  <rmsd>  (25) 
9.76311

>  <sdf_rank>  (25) 
0

$$$$

     RDKit          3D

 34 36  0  0  0  0  0  0  0  0999 V2000
   19.5160  -12.8650    6.6850 C   0  0  0  0  0  0  0  0  0  0  0  0
   19.3590  -13.8280    7.6680 C   0  0  0  0  0  0  0  0  0  0  0  0
   18.5560  -11.9650    3.2320 C   0  0  0  0  0  0  0  0  0  0  0  0
   19.2270  -13.1550    5.3500 C   0  0  0  0  0  0  0  0  0  0  0  0
   18.7890  -11.0500    2.2160 C   0  0  0  0  0  0  0  0  0  0  0  0
   18.5620  -15.3720    6.0150 C   0  0  0  0  0  0  0  0  0  0  0  0
   18.8910  -15.0920    7.3400 C   0  0  0  0  0  0  0  0  0  0  0  0
   19.4740  -12.1570    4.2790 C   0  0  0  0  0  0  0  0  0  0  0  0
   17.4920  -16.7360    4.3370 C   0  0  0  0  0  0  0  0  0  0  0  0
   17.9830  -16.5770    5.6780 O   0  0  0  0  0  0  0  0  0  0  0  0
   20.5650   -9.3010    1.3710 C   0  0  0  0  0  0  0  0  0  0  0  0
   19.9980   -8.7220    0.1160 C   0  0  0  0  0  0  0  0  0  0  0  0
   18.6420   -8.1030    0.3260 C   0  0  0  0  0  0  0  0  0  0  0  0
   21.7380   -8.9980    1.9480 C   0  0  0  0  0  0  0  0  0  0  0  0
   20.8500  -10.4920    3.2750 C   0  0  0  0  0  0  0  0  0  0  0  0
   20.6480  -11.3950    4.2940 C   0  0  0  0  0  0  0  0  0  0  0  0
   18.7320  -14.4190    5.0270 C   0  0  0  0  0  0  0  0  0  0  0  0
   19.9630  -10.2940    2.2300 C   0  0  0  0  0  0  0  0  0  0  0  0
   17.6470   -8.7870   -0.2000 O   0  0  0  0  0  0  0  0  0  0  0  0
   18.5110   -7.1050    0.9820 O   0  0  0  0  0  0  0  0  0  0  0  0
   21.9580   -9.6950    3.1140 O   0  0  0  0  0  0  0  0  0  0  0  0
   19.8722  -11.8610    6.9589 H   0  0  0  0  0  0  0  0  0  0  0  0
   19.6064  -13.5896    8.7130 H   0  0  0  0  0  0  0  0  0  0  0  0
   17.6284  -12.5560    3.2181 H   0  0  0  0  0  0  0  0  0  0  0  0
   18.0555  -10.9210    1.4064 H   0  0  0  0  0  0  0  0  0  0  0  0
   18.7809  -15.8637    8.1161 H   0  0  0  0  0  0  0  0  0  0  0  0
   16.4459  -17.0748    4.3673 H   0  0  0  0  0  0  0  0  0  0  0  0
   17.5504  -15.7730    3.8085 H   0  0  0  0  0  0  0  0  0  0  0  0
   18.1038  -17.4819    3.8085 H   0  0  0  0  0  0  0  0  0  0  0  0
   20.6849   -7.9479   -0.2567 H   0  0  0  0  0  0  0  0  0  0  0  0
   19.8815   -9.5428   -0.6070 H   0  0  0  0  0  0  0  0  0  0  0  0
   22.4492   -8.2689    1.5325 H   0  0  0  0  0  0  0  0  0  0  0  0
   21.3890  -11.5145    5.0982 H   0  0  0  0  0  0  0  0  0  0  0  0
   18.4764  -14.6581    3.9842 H   0  0  0  0  0  0  0  0  0  0  0  0
  1  2  2  0
  1  4  1  0
  2  7  1  0
  3  5  2  0
  3  8  1  0
  4  8  1  0
  4 17  2  0
  5 18  1  0
  6  7  2  0
  6 10  1  0
  6 17  1  0
  8 16  2  0
  9 10  1  0
 11 12  1  0
 11 14  2  0
 11 18  1  0
 12 13  1  0
 13 19  2  0
 13 20  1  0
 14 21  1  0
 15 16  1  0
 15 18  2  0
 15 21  1  0
  1 22  1  0
  2 23  1  0
  3 24  1  0
  5 25  1  0
  7 26  1  0
  9 27  1  0
  9 28  1  0
  9 29  1  0
 12 30  1  0
 12 31  1  0
 14 32  1  0
 16 33  1  0
 17 34  1  0
M  CHG  1  20  -1
M  END
>  <filename_input>  (26) 
7L7C_XQ1_docked.sdf

>  <pdb_id>  (26) 
7L7C_XQ1

>  <pose_rank>  (26) 
25

>  <num_atoms_heavy>  (26) 
21

>  <num_torsions>  (26) 
4

>  <pose>  (26) 
[18.556, -11.965, 3.232, 1e-06, 1e-06, 1e-06, 0.0, 0.0, 0.0, 0.0]

>  <energy>  (26) 
-772.1279323190978

>  <inter_energy>  (26) 
-784.4865927191945

>  <intra_energy>  (26) 
2.916685671277218

>  <rmsd>  (26) 
0.0

>  <sdf_rank>  (26) 
0

$$$$
