
     RDKit          3D

 72 76  0  0  0  0  0  0  0  0999 V2000
  -67.8254  -35.2230   99.3520 C   0  0  0  0  0  0  0  0  0  0  0  0
  -67.8207  -36.2918   98.4793 C   0  0  0  0  0  0  0  0  0  0  0  0
  -65.6306  -36.5529   97.4787 C   0  0  0  0  0  0  0  0  0  0  0  0
  -64.3877  -36.9551   97.9353 C   0  0  0  0  0  0  0  0  0  0  0  0
  -63.2738  -36.5279   97.2284 C   0  0  0  0  0  0  0  0  0  0  0  0
  -61.8863  -36.9211   97.6720 C   0  0  0  0  0  0  0  0  0  0  0  0
  -59.8025  -37.8698   96.9199 C   0  0  0  0  0  0  0  0  0  0  0  0
  -59.1245  -38.8980   96.0260 C   0  0  0  0  0  0  0  0  0  0  0  0
  -59.5573  -40.3128   96.3602 C   0  0  2  0  0  0  0  0  0  0  0  0
  -58.9247  -41.3223   95.3944 C   0  0  0  0  0  0  0  0  0  0  0  0
  -57.8452  -42.1793   95.9676 C   0  0  0  0  0  0  0  0  0  0  0  0
  -61.0754  -40.3793   96.3339 C   0  0  0  0  0  0  0  0  0  0  0  0
  -61.7182  -39.2999   97.2047 C   0  0  0  0  0  0  0  0  0  0  0  0
  -63.4598  -35.7305   96.1166 C   0  0  0  0  0  0  0  0  0  0  0  0
  -64.7467  -35.3724   95.7367 C   0  0  0  0  0  0  0  0  0  0  0  0
  -65.0030  -34.5547   94.5285 C   0  0  0  0  0  0  0  0  0  0  0  0
  -66.1811  -33.8213   94.3928 C   0  0  0  0  0  0  0  0  0  0  0  0
  -66.3967  -33.0911   93.2414 C   0  0  0  0  0  0  0  0  0  0  0  0
  -65.4840  -33.0636   92.2105 C   0  0  0  0  0  0  0  0  0  0  0  0
  -74.8654  -33.1070  101.1214 C   0  0  0  0  0  0  0  0  0  0  0  0
  -73.6557  -34.4677   99.5596 C   0  0  0  0  0  0  0  0  0  0  0  0
  -72.4706  -34.5228   98.6188 C   0  0  0  0  0  0  0  0  0  0  0  0
  -71.2322  -33.1421  100.2366 C   0  0  0  0  0  0  0  0  0  0  0  0
  -72.4675  -33.1475  101.1099 C   0  0  0  0  0  0  0  0  0  0  0  0
  -70.0654  -34.9741   99.0504 C   0  0  0  0  0  0  0  0  0  0  0  0
  -64.3306  -33.8001   92.3603 C   0  0  0  0  0  0  0  0  0  0  0  0
  -64.0815  -34.5464   93.4860 C   0  0  0  0  0  0  0  0  0  0  0  0
  -69.0357  -36.6624   97.9386 C   0  0  0  0  0  0  0  0  0  0  0  0
  -73.6640  -33.2172  100.2936 N   0  0  2  0  0  0  0  0  0  0  0  0
  -71.2120  -34.3098   99.3513 N   0  0  0  0  0  0  0  0  0  0  0  0
  -68.9437  -34.5510   99.6572 N   0  0  0  0  0  0  0  0  0  0  0  0
  -61.2629  -37.9487   96.8251 N   0  0  1  0  0  0  0  0  0  0  0  0
  -65.8325  -35.7945   96.4090 N   0  0  0  0  0  0  0  0  0  0  0  0
  -70.1705  -36.0043   98.1978 N   0  0  0  0  0  0  0  0  0  0  0  0
  -66.6688  -37.0355   98.2196 O   0  0  0  0  0  0  0  0  0  0  0  0
  -56.7434  -41.7566   96.2522 O   0  0  0  0  0  0  0  0  0  0  0  0
  -58.2117  -43.4255   96.1206 O   0  0  0  0  0  0  0  0  0  0  0  0
  -67.8690  -32.1759   93.0788 Cl  0  0  0  0  0  0  0  0  0  0  0  0
  -63.1644  -33.8073   91.0735 Cl  0  0  0  0  0  0  0  0  0  0  0  0
  -66.8769  -34.9114   99.8138 H   0  0  0  0  0  0  0  0  0  0  0  0
  -64.2869  -37.5911   98.8272 H   0  0  0  0  0  0  0  0  0  0  0  0
  -61.2494  -36.0244   97.6553 H   0  0  0  0  0  0  0  0  0  0  0  0
  -61.9813  -37.3504   98.6803 H   0  0  0  0  0  0  0  0  0  0  0  0
  -59.5026  -38.0508   97.9626 H   0  0  0  0  0  0  0  0  0  0  0  0
  -59.4909  -36.8683   96.5883 H   0  0  0  0  0  0  0  0  0  0  0  0
  -59.3844  -38.6849   94.9786 H   0  0  0  0  0  0  0  0  0  0  0  0
  -58.0389  -38.8269   96.1882 H   0  0  0  0  0  0  0  0  0  0  0  0
  -59.2074  -40.5810   97.3680 H   0  0  0  0  0  0  0  0  0  0  0  0
  -59.7227  -41.9846   95.0276 H   0  0  0  0  0  0  0  0  0  0  0  0
  -58.4445  -40.7228   94.6069 H   0  0  0  0  0  0  0  0  0  0  0  0
  -61.4174  -40.2473   95.2968 H   0  0  0  0  0  0  0  0  0  0  0  0
  -61.3764  -41.3585   96.7346 H   0  0  0  0  0  0  0  0  0  0  0  0
  -62.8108  -39.3531   97.0897 H   0  0  0  0  0  0  0  0  0  0  0  0
  -61.4220  -39.4805   98.2486 H   0  0  0  0  0  0  0  0  0  0  0  0
  -62.5939  -35.3811   95.5352 H   0  0  0  0  0  0  0  0  0  0  0  0
  -66.9322  -33.8245   95.1964 H   0  0  0  0  0  0  0  0  0  0  0  0
  -65.6699  -32.4744   91.3003 H   0  0  0  0  0  0  0  0  0  0  0  0
  -74.5822  -33.1330  102.1840 H   0  0  0  0  0  0  0  0  0  0  0  0
  -75.3767  -32.1582  100.9013 H   0  0  0  0  0  0  0  0  0  0  0  0
  -75.5407  -33.9470  100.9013 H   0  0  0  0  0  0  0  0  0  0  0  0
  -74.5847  -34.5514   98.9767 H   0  0  0  0  0  0  0  0  0  0  0  0
  -73.5806  -35.2996  100.2753 H   0  0  0  0  0  0  0  0  0  0  0  0
  -72.4421  -35.5088   98.1319 H   0  0  0  0  0  0  0  0  0  0  0  0
  -72.5799  -33.7277   97.8667 H   0  0  0  0  0  0  0  0  0  0  0  0
  -71.2270  -32.2271   99.6260 H   0  0  0  0  0  0  0  0  0  0  0  0
  -70.3439  -33.1770  100.8845 H   0  0  0  0  0  0  0  0  0  0  0  0
  -72.4342  -34.0197  101.7793 H   0  0  0  0  0  0  0  0  0  0  0  0
  -72.4915  -32.2191  101.6993 H   0  0  0  0  0  0  0  0  0  0  0  0
  -63.1560  -35.1359   93.5633 H   0  0  0  0  0  0  0  0  0  0  0  0
  -69.0717  -37.5337   97.2681 H   0  0  0  0  0  0  0  0  0  0  0  0
  -73.6743  -32.4294   99.6301 H   0  0  0  0  0  0  0  0  0  0  0  0
  -61.5490  -37.7720   95.8516 H   0  0  0  0  0  0  0  0  0  0  0  0
  1  2  2  0
  1 31  1  0
  2 28  1  0
  2 35  1  0
  3  4  2  0
  3 33  1  0
  3 35  1  0
  4  5  1  0
  5  6  1  0
  5 14  2  0
 32  6  1  0
  7  8  1  0
  7 32  1  0
  8  9  1  0
  9 10  1  0
  9 12  1  0
 10 11  1  0
 11 36  1  0
 11 37  2  0
 12 13  1  0
 13 32  1  0
 14 15  1  0
 15 16  1  0
 15 33  2  0
 16 17  2  0
 16 27  1  0
 17 18  1  0
 18 19  2  0
 18 38  1  0
 19 26  1  0
 29 20  1  0
 21 22  1  0
 21 29  1  0
 22 30  1  0
 23 24  1  0
 23 30  1  0
 24 29  1  0
 25 30  1  0
 25 31  2  0
 25 34  1  0
 26 27  2  0
 26 39  1  0
 28 34  2  0
  1 40  1  0
  4 41  1  0
  6 42  1  0
  6 43  1  0
  7 44  1  0
  7 45  1  0
  8 46  1  0
  8 47  1  0
  9 48  1  1
 10 49  1  0
 10 50  1  0
 12 51  1  0
 12 52  1  0
 13 53  1  0
 13 54  1  0
 14 55  1  0
 17 56  1  0
 19 57  1  0
 20 58  1  0
 20 59  1  0
 20 60  1  0
 21 61  1  0
 21 62  1  0
 22 63  1  0
 22 64  1  0
 23 65  1  0
 23 66  1  0
 24 67  1  0
 24 68  1  0
 27 69  1  0
 28 70  1  0
 29 71  1  6
 32 72  1  6
M  CHG  3  29   1  32   1  36  -1
M  END
>  <filename_input>  (1) 
7LCU_XTA_docked.sdf

>  <pdb_id>  (1) 
7LCU_XTA

>  <pose_rank>  (1) 
0

>  <num_atoms_heavy>  (1) 
39

>  <num_torsions>  (1) 
7

>  <pose>  (1) 
[-65.63063892449003, -36.55288154592978, 97.4786571419346, -0.8494788949341455, 5.881552739229981, -1.7302800229564297, -0.05541797878295745, 0.02282622970525812, -6.546324021234312, -1.0834781138720115, -0.29217286833708755, 5.996479909207394, -0.44893825611720917]

>  <energy>  (1) 
-990.3680748551037

>  <inter_energy>  (1) 
-985.8544675474285

>  <intra_energy>  (1) 
1.2571779080678829

>  <rmsd>  (1) 
0.930924

>  <sdf_rank>  (1) 
0

$$$$

     RDKit          3D

 72 76  0  0  0  0  0  0  0  0999 V2000
  -68.6079  -37.3755   99.1516 C   0  0  0  0  0  0  0  0  0  0  0  0
  -67.4906  -36.7666   98.6178 C   0  0  0  0  0  0  0  0  0  0  0  0
  -65.3027  -36.9517   97.5959 C   0  0  0  0  0  0  0  0  0  0  0  0
  -64.0445  -37.3365   98.0248 C   0  0  0  0  0  0  0  0  0  0  0  0
  -62.9511  -36.8705   97.3103 C   0  0  0  0  0  0  0  0  0  0  0  0
  -61.5488  -37.2429   97.7241 C   0  0  0  0  0  0  0  0  0  0  0  0
  -59.4960  -38.3486   97.1147 C   0  0  0  0  0  0  0  0  0  0  0  0
  -58.8314  -39.3986   96.2362 C   0  0  0  0  0  0  0  0  0  0  0  0
  -59.4159  -40.7797   96.4627 C   0  0  2  0  0  0  0  0  0  0  0  0
  -58.7881  -41.8040   95.5095 C   0  0  0  0  0  0  0  0  0  0  0  0
  -58.8990  -43.2326   95.9283 C   0  0  0  0  0  0  0  0  0  0  0  0
  -60.9250  -40.7053   96.2992 C   0  0  0  0  0  0  0  0  0  0  0  0
  -61.5481  -39.6067   97.1604 C   0  0  0  0  0  0  0  0  0  0  0  0
  -63.1716  -36.0542   96.2187 C   0  0  0  0  0  0  0  0  0  0  0  0
  -64.4715  -35.7160   95.8662 C   0  0  0  0  0  0  0  0  0  0  0  0
  -64.7641  -34.8790   94.6798 C   0  0  0  0  0  0  0  0  0  0  0  0
  -63.9159  -34.8782   93.5730 C   0  0  0  0  0  0  0  0  0  0  0  0
  -64.2073  -34.0658   92.4957 C   0  0  0  0  0  0  0  0  0  0  0  0
  -65.3131  -33.2454   92.4756 C   0  0  0  0  0  0  0  0  0  0  0  0
  -74.7055  -32.9329   98.6489 C   0  0  0  0  0  0  0  0  0  0  0  0
  -72.3171  -32.8662   98.4354 C   0  0  0  0  0  0  0  0  0  0  0  0
  -71.0023  -33.2688   99.0692 C   0  0  0  0  0  0  0  0  0  0  0  0
  -72.0953  -35.3453   99.8115 C   0  0  0  0  0  0  0  0  0  0  0  0
  -73.3622  -34.8570   99.1445 C   0  0  0  0  0  0  0  0  0  0  0  0
  -69.7543  -35.4168   99.0117 C   0  0  0  0  0  0  0  0  0  0  0  0
  -66.1340  -33.2548   93.5807 C   0  0  0  0  0  0  0  0  0  0  0  0
  -65.8755  -34.0418   94.6762 C   0  0  0  0  0  0  0  0  0  0  0  0
  -67.6094  -35.4351   98.2729 C   0  0  0  0  0  0  0  0  0  0  0  0
  -73.4313  -33.4092   99.1880 N   0  0  2  0  0  0  0  0  0  0  0  0
  -70.9125  -34.7318   99.2010 N   0  0  0  0  0  0  0  0  0  0  0  0
  -69.7573  -36.7167   99.3519 N   0  0  0  0  0  0  0  0  0  0  0  0
  -60.9426  -38.2892   96.8875 N   0  0  1  0  0  0  0  0  0  0  0  0
  -65.5375  -36.1755   96.5459 N   0  0  0  0  0  0  0  0  0  0  0  0
  -68.7298  -34.7347   98.4783 N   0  0  0  0  0  0  0  0  0  0  0  0
  -66.3186  -37.4721   98.3422 O   0  0  0  0  0  0  0  0  0  0  0  0
  -59.7056  -44.0034   95.4498 O   0  0  0  0  0  0  0  0  0  0  0  0
  -58.0446  -43.5566   96.8640 O   0  0  0  0  0  0  0  0  0  0  0  0
  -63.1451  -34.0708   91.1160 Cl  0  0  0  0  0  0  0  0  0  0  0  0
  -67.5275  -32.2186   93.6019 Cl  0  0  0  0  0  0  0  0  0  0  0  0
  -68.5531  -38.4403   99.4223 H   0  0  0  0  0  0  0  0  0  0  0  0
  -63.9162  -37.9887   98.9013 H   0  0  0  0  0  0  0  0  0  0  0  0
  -60.9190  -36.3430   97.6651 H   0  0  0  0  0  0  0  0  0  0  0  0
  -61.6119  -37.6454   98.7459 H   0  0  0  0  0  0  0  0  0  0  0  0
  -59.3107  -38.5976   98.1700 H   0  0  0  0  0  0  0  0  0  0  0  0
  -59.0682  -37.3677   96.8603 H   0  0  0  0  0  0  0  0  0  0  0  0
  -58.9737  -39.1211   95.1813 H   0  0  0  0  0  0  0  0  0  0  0  0
  -57.7633  -39.4340   96.4969 H   0  0  0  0  0  0  0  0  0  0  0  0
  -59.1856  -41.1186   97.4835 H   0  0  0  0  0  0  0  0  0  0  0  0
  -59.2792  -41.6999   94.5307 H   0  0  0  0  0  0  0  0  0  0  0  0
  -57.7115  -41.5790   95.4952 H   0  0  0  0  0  0  0  0  0  0  0  0
  -61.1569  -40.5014   95.2434 H   0  0  0  0  0  0  0  0  0  0  0  0
  -61.3468  -41.6678   96.6244 H   0  0  0  0  0  0  0  0  0  0  0  0
  -62.6259  -39.5547   96.9468 H   0  0  0  0  0  0  0  0  0  0  0  0
  -61.3667  -39.8550   98.2165 H   0  0  0  0  0  0  0  0  0  0  0  0
  -62.3225  -35.6740   95.6317 H   0  0  0  0  0  0  0  0  0  0  0  0
  -63.0224  -35.5196   93.5585 H   0  0  0  0  0  0  0  0  0  0  0  0
  -65.5325  -32.6057   91.6081 H   0  0  0  0  0  0  0  0  0  0  0  0
  -75.3827  -32.6798   99.4780 H   0  0  0  0  0  0  0  0  0  0  0  0
  -74.5314  -32.0391   98.0318 H   0  0  0  0  0  0  0  0  0  0  0  0
  -75.1603  -33.7217   98.0318 H   0  0  0  0  0  0  0  0  0  0  0  0
  -72.3908  -31.7688   98.4207 H   0  0  0  0  0  0  0  0  0  0  0  0
  -72.3538  -33.2627   97.4100 H   0  0  0  0  0  0  0  0  0  0  0  0
  -70.1741  -32.9119   98.4394 H   0  0  0  0  0  0  0  0  0  0  0  0
  -70.9418  -32.8199  100.0716 H   0  0  0  0  0  0  0  0  0  0  0  0
  -72.1264  -35.0829  100.8793 H   0  0  0  0  0  0  0  0  0  0  0  0
  -72.0299  -36.4360   99.6853 H   0  0  0  0  0  0  0  0  0  0  0  0
  -73.3706  -35.1888   98.0958 H   0  0  0  0  0  0  0  0  0  0  0  0
  -74.2294  -35.2716   99.6794 H   0  0  0  0  0  0  0  0  0  0  0  0
  -66.5451  -34.0105   95.5483 H   0  0  0  0  0  0  0  0  0  0  0  0
  -66.7482  -34.9304   97.8107 H   0  0  0  0  0  0  0  0  0  0  0  0
  -73.3729  -33.0910  100.1659 H   0  0  0  0  0  0  0  0  0  0  0  0
  -61.1210  -38.0485   95.9021 H   0  0  0  0  0  0  0  0  0  0  0  0
  1  2  2  0
  1 31  1  0
  2 28  1  0
  2 35  1  0
  3  4  2  0
  3 33  1  0
  3 35  1  0
  4  5  1  0
  5  6  1  0
  5 14  2  0
 32  6  1  0
  7  8  1  0
  7 32  1  0
  8  9  1  0
  9 10  1  0
  9 12  1  0
 10 11  1  0
 11 36  1  0
 11 37  2  0
 12 13  1  0
 13 32  1  0
 14 15  1  0
 15 16  1  0
 15 33  2  0
 16 17  2  0
 16 27  1  0
 17 18  1  0
 18 19  2  0
 18 38  1  0
 19 26  1  0
 29 20  1  0
 21 22  1  0
 21 29  1  0
 22 30  1  0
 23 24  1  0
 23 30  1  0
 24 29  1  0
 25 30  1  0
 25 31  2  0
 25 34  1  0
 26 27  2  0
 26 39  1  0
 28 34  2  0
  1 40  1  0
  4 41  1  0
  6 42  1  0
  6 43  1  0
  7 44  1  0
  7 45  1  0
  8 46  1  0
  8 47  1  0
  9 48  1  1
 10 49  1  0
 10 50  1  0
 12 51  1  0
 12 52  1  0
 13 53  1  0
 13 54  1  0
 14 55  1  0
 17 56  1  0
 19 57  1  0
 20 58  1  0
 20 59  1  0
 20 60  1  0
 21 61  1  0
 21 62  1  0
 22 63  1  0
 22 64  1  0
 23 65  1  0
 23 66  1  0
 24 67  1  0
 24 68  1  0
 27 69  1  0
 28 70  1  0
 29 71  1  1
 32 72  1  6
M  CHG  3  29   1  32   1  36  -1
M  END
>  <filename_input>  (2) 
7LCU_XTA_docked.sdf

>  <pdb_id>  (2) 
7LCU_XTA

>  <pose_rank>  (2) 
1

>  <num_atoms_heavy>  (2) 
39

>  <num_torsions>  (2) 
7

>  <pose>  (2) 
[-65.30268960590557, -36.951687191845046, 97.59589244326492, -2.3136622721868783, 4.853839685554941, -3.0646290662662428, 3.1970220144563872, -6.312357522577922, 6.189284077321212, 6.096020423443247, 2.7392187876404215, 12.297496519587627, -2.5458190187423857]

>  <energy>  (2) 
-895.1753961065045

>  <inter_energy>  (2) 
-924.0537317969868

>  <intra_energy>  (2) 
27.468012699476382

>  <rmsd>  (2) 
0.712632

>  <sdf_rank>  (2) 
0

$$$$

     RDKit          3D

 72 76  0  0  0  0  0  0  0  0999 V2000
  -63.3140  -36.7360   97.0989 C   0  0  0  0  0  0  0  0  0  0  0  0
  -64.1496  -37.6090   97.7650 C   0  0  0  0  0  0  0  0  0  0  0  0
  -66.1235  -36.2304   97.5029 C   0  0  0  0  0  0  0  0  0  0  0  0
  -66.8630  -35.6740   98.5318 C   0  0  0  0  0  0  0  0  0  0  0  0
  -67.4858  -34.4585   98.2918 C   0  0  0  0  0  0  0  0  0  0  0  0
  -68.3146  -33.7960   99.3645 C   0  0  0  0  0  0  0  0  0  0  0  0
  -70.2825  -35.1569   99.0759 C   0  0  0  0  0  0  0  0  0  0  0  0
  -71.7680  -35.1881   98.7470 C   0  0  0  0  0  0  0  0  0  0  0  0
  -72.5816  -34.3570   99.7206 C   0  0  2  0  0  0  0  0  0  0  0  0
  -74.0622  -34.3375   99.3209 C   0  0  0  0  0  0  0  0  0  0  0  0
  -75.0370  -34.5326  100.4345 C   0  0  0  0  0  0  0  0  0  0  0  0
  -71.9930  -32.9571   99.7799 C   0  0  0  0  0  0  0  0  0  0  0  0
  -70.4910  -32.9711  100.0632 C   0  0  0  0  0  0  0  0  0  0  0  0
  -67.3382  -33.8716   97.0507 C   0  0  0  0  0  0  0  0  0  0  0  0
  -66.5805  -34.5082   96.0765 C   0  0  0  0  0  0  0  0  0  0  0  0
  -66.3560  -33.9011   94.7442 C   0  0  0  0  0  0  0  0  0  0  0  0
  -65.3906  -34.4089   93.8757 C   0  0  0  0  0  0  0  0  0  0  0  0
  -65.1919  -33.8013   92.6522 C   0  0  0  0  0  0  0  0  0  0  0  0
  -65.9163  -32.6991   92.2562 C   0  0  0  0  0  0  0  0  0  0  0  0
  -56.4366  -39.7052   96.0715 C   0  0  0  0  0  0  0  0  0  0  0  0
  -58.4632  -40.0576   97.3055 C   0  0  0  0  0  0  0  0  0  0  0  0
  -59.5239  -39.4017   98.1642 C   0  0  0  0  0  0  0  0  0  0  0  0
  -59.2919  -37.3916   96.7631 C   0  0  0  0  0  0  0  0  0  0  0  0
  -58.2440  -38.1326   95.9623 C   0  0  0  0  0  0  0  0  0  0  0  0
  -61.5362  -38.0815   97.5457 C   0  0  0  0  0  0  0  0  0  0  0  0
  -66.8594  -32.2082   93.1307 C   0  0  0  0  0  0  0  0  0  0  0  0
  -67.0824  -32.7782   94.3603 C   0  0  0  0  0  0  0  0  0  0  0  0
  -63.5734  -38.7497   98.2873 C   0  0  0  0  0  0  0  0  0  0  0  0
  -57.5279  -39.0674   96.8085 N   0  0  2  0  0  0  0  0  0  0  0  0
  -60.2056  -38.3284   97.4231 N   0  0  0  0  0  0  0  0  0  0  0  0
  -61.9987  -36.9579   96.9721 N   0  0  0  0  0  0  0  0  0  0  0  0
  -69.7569  -33.7888   99.0787 N   0  0  1  0  0  0  0  0  0  0  0  0
  -65.9619  -35.6802   96.3065 N   0  0  0  0  0  0  0  0  0  0  0  0
  -62.2620  -38.9975   98.2041 N   0  0  0  0  0  0  0  0  0  0  0  0
  -65.5296  -37.4129   97.8326 O   0  0  0  0  0  0  0  0  0  0  0  0
  -75.4235  -33.6267  101.1442 O   0  0  0  0  0  0  0  0  0  0  0  0
  -75.4189  -35.7767  100.5647 O   0  0  0  0  0  0  0  0  0  0  0  0
  -63.9860  -34.4413   91.5715 Cl  0  0  0  0  0  0  0  0  0  0  0  0
  -67.7793  -30.8071   92.6760 Cl  0  0  0  0  0  0  0  0  0  0  0  0
  -63.7431  -35.8251   96.6561 H   0  0  0  0  0  0  0  0  0  0  0  0
  -66.9536  -36.1780   99.5054 H   0  0  0  0  0  0  0  0  0  0  0  0
  -68.1510  -34.3328  100.3106 H   0  0  0  0  0  0  0  0  0  0  0  0
  -67.9924  -32.7455   99.4162 H   0  0  0  0  0  0  0  0  0  0  0  0
  -70.1282  -35.6001  100.0708 H   0  0  0  0  0  0  0  0  0  0  0  0
  -69.7478  -35.7282   98.3028 H   0  0  0  0  0  0  0  0  0  0  0  0
  -71.9155  -34.7916   97.7316 H   0  0  0  0  0  0  0  0  0  0  0  0
  -72.1110  -36.2307   98.8201 H   0  0  0  0  0  0  0  0  0  0  0  0
  -72.5332  -34.8054  100.7239 H   0  0  0  0  0  0  0  0  0  0  0  0
  -74.2732  -33.3641   98.8540 H   0  0  0  0  0  0  0  0  0  0  0  0
  -74.2017  -35.1958   98.6472 H   0  0  0  0  0  0  0  0  0  0  0  0
  -72.1663  -32.4592   98.8144 H   0  0  0  0  0  0  0  0  0  0  0  0
  -72.4859  -32.4193  100.6032 H   0  0  0  0  0  0  0  0  0  0  0  0
  -70.1112  -31.9395  100.0236 H   0  0  0  0  0  0  0  0  0  0  0  0
  -70.3343  -33.4113  101.0590 H   0  0  0  0  0  0  0  0  0  0  0  0
  -67.8180  -32.9055   96.8349 H   0  0  0  0  0  0  0  0  0  0  0  0
  -64.7924  -35.2862   94.1629 H   0  0  0  0  0  0  0  0  0  0  0  0
  -65.7475  -32.2280   91.2766 H   0  0  0  0  0  0  0  0  0  0  0  0
  -55.7121  -40.1287   96.7827 H   0  0  0  0  0  0  0  0  0  0  0  0
  -56.8419  -40.5087   95.4388 H   0  0  0  0  0  0  0  0  0  0  0  0
  -55.9354  -38.9579   95.4388 H   0  0  0  0  0  0  0  0  0  0  0  0
  -57.9186  -40.8001   97.9072 H   0  0  0  0  0  0  0  0  0  0  0  0
  -58.9511  -40.5470   96.4497 H   0  0  0  0  0  0  0  0  0  0  0  0
  -60.2635  -40.1585   98.4647 H   0  0  0  0  0  0  0  0  0  0  0  0
  -59.0403  -38.9660   99.0509 H   0  0  0  0  0  0  0  0  0  0  0  0
  -58.7933  -36.7766   97.5267 H   0  0  0  0  0  0  0  0  0  0  0  0
  -59.8737  -36.7572   96.0783 H   0  0  0  0  0  0  0  0  0  0  0  0
  -58.7343  -38.6844   95.1468 H   0  0  0  0  0  0  0  0  0  0  0  0
  -57.5294  -37.4048   95.5504 H   0  0  0  0  0  0  0  0  0  0  0  0
  -67.8330  -32.3481   95.0396 H   0  0  0  0  0  0  0  0  0  0  0  0
  -64.2187  -39.4838   98.7919 H   0  0  0  0  0  0  0  0  0  0  0  0
  -57.1088  -38.5619   97.6021 H   0  0  0  0  0  0  0  0  0  0  0  0
  -69.8921  -33.3723   98.1464 H   0  0  0  0  0  0  0  0  0  0  0  0
  1  2  2  0
  1 31  1  0
  2 28  1  0
  2 35  1  0
  3  4  2  0
  3 33  1  0
  3 35  1  0
  4  5  1  0
  5  6  1  0
  5 14  2  0
 32  6  1  0
  7  8  1  0
  7 32  1  0
  8  9  1  0
  9 10  1  0
  9 12  1  0
 10 11  1  0
 11 36  1  0
 11 37  2  0
 12 13  1  0
 13 32  1  0
 14 15  1  0
 15 16  1  0
 15 33  2  0
 16 17  2  0
 16 27  1  0
 17 18  1  0
 18 19  2  0
 18 38  1  0
 19 26  1  0
 29 20  1  0
 21 22  1  0
 21 29  1  0
 22 30  1  0
 23 24  1  0
 23 30  1  0
 24 29  1  0
 25 30  1  0
 25 31  2  0
 25 34  1  0
 26 27  2  0
 26 39  1  0
 28 34  2  0
  1 40  1  0
  4 41  1  0
  6 42  1  0
  6 43  1  0
  7 44  1  0
  7 45  1  0
  8 46  1  0
  8 47  1  0
  9 48  1  1
 10 49  1  0
 10 50  1  0
 12 51  1  0
 12 52  1  0
 13 53  1  0
 13 54  1  0
 14 55  1  0
 17 56  1  0
 19 57  1  0
 20 58  1  0
 20 59  1  0
 20 60  1  0
 21 61  1  0
 21 62  1  0
 22 63  1  0
 22 64  1  0
 23 65  1  0
 23 66  1  0
 24 67  1  0
 24 68  1  0
 27 69  1  0
 28 70  1  0
 29 71  1  1
 32 72  1  6
M  CHG  3  29   1  32   1  36  -1
M  END
>  <filename_input>  (3) 
7LCU_XTA_docked.sdf

>  <pdb_id>  (3) 
7LCU_XTA

>  <pose_rank>  (3) 
2

>  <num_atoms_heavy>  (3) 
39

>  <num_torsions>  (3) 
7

>  <pose>  (3) 
[-66.12354815544325, -36.23042503184902, 97.502850699979, -0.012900401705039893, 2.2320873403746275, -3.28067359241774, -0.6696885511621173, -3.7483992056251405, 4.450456480391567, 5.685290734566998, 2.4291663253268845, -4.910264820713382, 0.5662452559397163]

>  <energy>  (3) 
-840.4714400094314

>  <inter_energy>  (3) 
-862.3305592342933

>  <intra_energy>  (3) 
19.16767822313515

>  <rmsd>  (3) 
10.5801

>  <sdf_rank>  (3) 
0

$$$$

     RDKit          3D

 72 76  0  0  0  0  0  0  0  0999 V2000
  -67.7845  -35.1259   98.3310 C   0  0  0  0  0  0  0  0  0  0  0  0
  -67.6174  -36.4925   98.2400 C   0  0  0  0  0  0  0  0  0  0  0  0
  -65.3590  -36.5338   97.3660 C   0  0  0  0  0  0  0  0  0  0  0  0
  -64.0896  -36.8412   97.8236 C   0  0  0  0  0  0  0  0  0  0  0  0
  -63.0105  -36.3427   97.1094 C   0  0  0  0  0  0  0  0  0  0  0  0
  -61.5976  -36.6309   97.5534 C   0  0  0  0  0  0  0  0  0  0  0  0
  -59.5193  -37.7710   97.1186 C   0  0  0  0  0  0  0  0  0  0  0  0
  -58.8087  -38.8572   96.3242 C   0  0  0  0  0  0  0  0  0  0  0  0
  -59.4180  -40.2253   96.5640 C   0  0  2  0  0  0  0  0  0  0  0  0
  -58.7391  -41.2885   95.6918 C   0  0  0  0  0  0  0  0  0  0  0  0
  -58.0457  -42.3858   96.4290 C   0  0  0  0  0  0  0  0  0  0  0  0
  -60.9129  -40.1481   96.3013 C   0  0  0  0  0  0  0  0  0  0  0  0
  -61.5805  -39.0142   97.0792 C   0  0  0  0  0  0  0  0  0  0  0  0
  -63.2552  -35.5725   95.9898 C   0  0  0  0  0  0  0  0  0  0  0  0
  -64.5651  -35.3114   95.6096 C   0  0  0  0  0  0  0  0  0  0  0  0
  -64.8815  -34.5270   94.3937 C   0  0  0  0  0  0  0  0  0  0  0  0
  -64.1207  -34.6611   93.2329 C   0  0  0  0  0  0  0  0  0  0  0  0
  -64.4295  -33.8947   92.1271 C   0  0  0  0  0  0  0  0  0  0  0  0
  -65.4688  -32.9912   92.1299 C   0  0  0  0  0  0  0  0  0  0  0  0
  -74.7728  -33.3214  100.5844 C   0  0  0  0  0  0  0  0  0  0  0  0
  -73.4889  -35.1756   99.7671 C   0  0  0  0  0  0  0  0  0  0  0  0
  -72.4959  -35.6324   98.7193 C   0  0  0  0  0  0  0  0  0  0  0  0
  -71.4564  -33.4059   98.8586 C   0  0  0  0  0  0  0  0  0  0  0  0
  -72.4904  -33.0442   99.9018 C   0  0  0  0  0  0  0  0  0  0  0  0
  -70.0236  -35.4083   98.6079 C   0  0  0  0  0  0  0  0  0  0  0  0
  -66.2034  -32.8680   93.2877 C   0  0  0  0  0  0  0  0  0  0  0  0
  -65.9238  -33.6055   94.4121 C   0  0  0  0  0  0  0  0  0  0  0  0
  -68.7495  -37.2709   98.3757 C   0  0  0  0  0  0  0  0  0  0  0  0
  -73.7315  -33.7508   99.6504 N   0  0  2  0  0  0  0  0  0  0  0  0
  -71.2490  -34.8559   98.8079 N   0  0  0  0  0  0  0  0  0  0  0  0
  -68.9844  -34.5610   98.5219 N   0  0  0  0  0  0  0  0  0  0  0  0
  -60.9479  -37.7115   96.7970 N   0  0  1  0  0  0  0  0  0  0  0  0
  -65.6167  -35.8031   96.2891 N   0  0  0  0  0  0  0  0  0  0  0  0
  -69.9683  -36.7470   98.5430 N   0  0  0  0  0  0  0  0  0  0  0  0
  -66.3586  -37.0817   98.1146 O   0  0  0  0  0  0  0  0  0  0  0  0
  -58.3940  -43.5472   96.3711 O   0  0  0  0  0  0  0  0  0  0  0  0
  -57.0360  -41.9605   97.1434 O   0  0  0  0  0  0  0  0  0  0  0  0
  -63.4767  -34.0681   90.6801 Cl  0  0  0  0  0  0  0  0  0  0  0  0
  -67.5094  -31.7245   93.3373 Cl  0  0  0  0  0  0  0  0  0  0  0  0
  -66.9008  -34.4767   98.2438 H   0  0  0  0  0  0  0  0  0  0  0  0
  -63.9419  -37.4589   98.7217 H   0  0  0  0  0  0  0  0  0  0  0  0
  -61.0015  -35.7146   97.4309 H   0  0  0  0  0  0  0  0  0  0  0  0
  -61.6514  -36.9603   98.6016 H   0  0  0  0  0  0  0  0  0  0  0  0
  -59.4040  -37.9811   98.1922 H   0  0  0  0  0  0  0  0  0  0  0  0
  -59.0680  -36.8029   96.8559 H   0  0  0  0  0  0  0  0  0  0  0  0
  -58.8809  -38.6188   95.2528 H   0  0  0  0  0  0  0  0  0  0  0  0
  -57.7598  -38.8891   96.6541 H   0  0  0  0  0  0  0  0  0  0  0  0
  -59.2562  -40.5269   97.6094 H   0  0  0  0  0  0  0  0  0  0  0  0
  -59.5103  -41.7449   95.0539 H   0  0  0  0  0  0  0  0  0  0  0  0
  -57.9528  -40.7598   95.1331 H   0  0  0  0  0  0  0  0  0  0  0  0
  -61.0751  -39.9828   95.2260 H   0  0  0  0  0  0  0  0  0  0  0  0
  -61.3626  -41.0952   96.6343 H   0  0  0  0  0  0  0  0  0  0  0  0
  -62.6420  -38.9639   96.7951 H   0  0  0  0  0  0  0  0  0  0  0  0
  -61.4691  -39.2236   98.1533 H   0  0  0  0  0  0  0  0  0  0  0  0
  -62.4176  -35.1681   95.4026 H   0  0  0  0  0  0  0  0  0  0  0  0
  -63.2815  -35.3715   93.1986 H   0  0  0  0  0  0  0  0  0  0  0  0
  -65.7036  -32.3898   91.2393 H   0  0  0  0  0  0  0  0  0  0  0  0
  -74.4218  -33.4662  101.6168 H   0  0  0  0  0  0  0  0  0  0  0  0
  -74.9974  -32.2573  100.4192 H   0  0  0  0  0  0  0  0  0  0  0  0
  -75.6821  -33.9180  100.4192 H   0  0  0  0  0  0  0  0  0  0  0  0
  -74.4365  -35.7167   99.6281 H   0  0  0  0  0  0  0  0  0  0  0  0
  -73.0751  -35.3853  100.7645 H   0  0  0  0  0  0  0  0  0  0  0  0
  -72.2697  -36.6973   98.8767 H   0  0  0  0  0  0  0  0  0  0  0  0
  -72.9376  -35.4781   97.7238 H   0  0  0  0  0  0  0  0  0  0  0  0
  -71.8008  -33.0568   97.8740 H   0  0  0  0  0  0  0  0  0  0  0  0
  -70.5043  -32.9240   99.1259 H   0  0  0  0  0  0  0  0  0  0  0  0
  -72.1122  -33.3191  100.8975 H   0  0  0  0  0  0  0  0  0  0  0  0
  -72.6806  -31.9618   99.8551 H   0  0  0  0  0  0  0  0  0  0  0  0
  -66.5223  -33.4680   95.3248 H   0  0  0  0  0  0  0  0  0  0  0  0
  -68.6448  -38.3655   98.3449 H   0  0  0  0  0  0  0  0  0  0  0  0
  -74.0635  -33.5356   98.6994 H   0  0  0  0  0  0  0  0  0  0  0  0
  -61.0609  -37.5070   95.7938 H   0  0  0  0  0  0  0  0  0  0  0  0
  1  2  2  0
  1 31  1  0
  2 28  1  0
  2 35  1  0
  3  4  2  0
  3 33  1  0
  3 35  1  0
  4  5  1  0
  5  6  1  0
  5 14  2  0
 32  6  1  0
  7  8  1  0
  7 32  1  0
  8  9  1  0
  9 10  1  0
  9 12  1  0
 10 11  1  0
 11 36  1  0
 11 37  2  0
 12 13  1  0
 13 32  1  0
 14 15  1  0
 15 16  1  0
 15 33  2  0
 16 17  2  0
 16 27  1  0
 17 18  1  0
 18 19  2  0
 18 38  1  0
 19 26  1  0
 29 20  1  0
 21 22  1  0
 21 29  1  0
 22 30  1  0
 23 24  1  0
 23 30  1  0
 24 29  1  0
 25 30  1  0
 25 31  2  0
 25 34  1  0
 26 27  2  0
 26 39  1  0
 28 34  2  0
  1 40  1  0
  4 41  1  0
  6 42  1  0
  6 43  1  0
  7 44  1  0
  7 45  1  0
  8 46  1  0
  8 47  1  0
  9 48  1  1
 10 49  1  0
 10 50  1  0
 12 51  1  0
 12 52  1  0
 13 53  1  0
 13 54  1  0
 14 55  1  0
 17 56  1  0
 19 57  1  0
 20 58  1  0
 20 59  1  0
 20 60  1  0
 21 61  1  0
 21 62  1  0
 22 63  1  0
 22 64  1  0
 23 65  1  0
 23 66  1  0
 24 67  1  0
 24 68  1  0
 27 69  1  0
 28 70  1  0
 29 71  1  6
 32 72  1  6
M  CHG  3  29   1  32   1  36  -1
M  END
>  <filename_input>  (4) 
7LCU_XTA_docked.sdf

>  <pdb_id>  (4) 
7LCU_XTA

>  <pose_rank>  (4) 
3

>  <num_atoms_heavy>  (4) 
39

>  <num_torsions>  (4) 
7

>  <pose>  (4) 
[-65.35902366341246, -36.53379363484537, 97.36599518323426, 0.005647436067138089, -0.08631764255050421, 0.09829718789965876, 3.3549959848502477, -0.07382806287079782, 6.271854424662908, -0.9012972907451771, 2.972836019549009, 18.698640987912878, 0.15129398275741954]

>  <energy>  (4) 
-923.9036146105976

>  <inter_energy>  (4) 
-930.0364215371645

>  <intra_energy>  (4) 
17.273738906432524

>  <rmsd>  (4) 
0.820655

>  <sdf_rank>  (4) 
0

$$$$

     RDKit          3D

 72 76  0  0  0  0  0  0  0  0999 V2000
  -63.8035  -38.8176   98.2851 C   0  0  0  0  0  0  0  0  0  0  0  0
  -63.7309  -37.4728   98.5856 C   0  0  0  0  0  0  0  0  0  0  0  0
  -65.6865  -36.0553   98.4072 C   0  0  0  0  0  0  0  0  0  0  0  0
  -66.9083  -35.8645   99.0286 C   0  0  0  0  0  0  0  0  0  0  0  0
  -67.8644  -35.1215   98.3527 C   0  0  0  0  0  0  0  0  0  0  0  0
  -69.2217  -34.8787   98.9653 C   0  0  0  0  0  0  0  0  0  0  0  0
  -69.0055  -32.9245  100.3589 C   0  0  0  0  0  0  0  0  0  0  0  0
  -68.9087  -32.3800  101.7766 C   0  0  0  0  0  0  0  0  0  0  0  0
  -70.1262  -32.7402  102.6064 C   0  0  2  0  0  0  0  0  0  0  0  0
  -69.9688  -32.2520  104.0517 C   0  0  0  0  0  0  0  0  0  0  0  0
  -70.0507  -30.7746  104.2495 C   0  0  0  0  0  0  0  0  0  0  0  0
  -70.3385  -34.2435  102.5369 C   0  0  0  0  0  0  0  0  0  0  0  0
  -70.3805  -34.7572  101.0978 C   0  0  0  0  0  0  0  0  0  0  0  0
  -67.5518  -34.6157   97.1064 C   0  0  0  0  0  0  0  0  0  0  0  0
  -66.2998  -34.8641   96.5594 C   0  0  0  0  0  0  0  0  0  0  0  0
  -65.8998  -34.3091   95.2457 C   0  0  0  0  0  0  0  0  0  0  0  0
  -66.7417  -33.4491   94.5416 C   0  0  0  0  0  0  0  0  0  0  0  0
  -66.3461  -32.9717   93.3082 C   0  0  0  0  0  0  0  0  0  0  0  0
  -65.1408  -33.3205   92.7407 C   0  0  0  0  0  0  0  0  0  0  0  0
  -56.9723  -41.7177   96.8377 C   0  0  0  0  0  0  0  0  0  0  0  0
  -58.0980  -39.6151   97.0945 C   0  0  0  0  0  0  0  0  0  0  0  0
  -59.3177  -38.8046   96.7094 C   0  0  0  0  0  0  0  0  0  0  0  0
  -60.6192  -40.8924   96.7769 C   0  0  0  0  0  0  0  0  0  0  0  0
  -59.3464  -41.6138   97.1617 C   0  0  0  0  0  0  0  0  0  0  0  0
  -61.6273  -38.7978   97.6263 C   0  0  0  0  0  0  0  0  0  0  0  0
  -64.3271  -34.1765   93.4480 C   0  0  0  0  0  0  0  0  0  0  0  0
  -64.6868  -34.6803   94.6740 C   0  0  0  0  0  0  0  0  0  0  0  0
  -62.5120  -36.8542   98.3921 C   0  0  0  0  0  0  0  0  0  0  0  0
  -58.1957  -40.9621   96.5668 N   0  0  2  0  0  0  0  0  0  0  0  0
  -60.5511  -39.4764   97.1489 N   0  0  0  0  0  0  0  0  0  0  0  0
  -62.7561  -39.5036   97.8078 N   0  0  0  0  0  0  0  0  0  0  0  0
  -69.1669  -34.3811  100.3478 N   0  0  1  0  0  0  0  0  0  0  0  0
  -65.3625  -35.5718   97.2150 N   0  0  0  0  0  0  0  0  0  0  0  0
  -61.4491  -37.4958   97.8953 N   0  0  0  0  0  0  0  0  0  0  0  0
  -64.8007  -36.7778   99.1510 O   0  0  0  0  0  0  0  0  0  0  0  0
  -69.1261  -30.1093  104.6692 O   0  0  0  0  0  0  0  0  0  0  0  0
  -71.2198  -30.2823  103.9312 O   0  0  0  0  0  0  0  0  0  0  0  0
  -67.4012  -31.8967   92.4348 Cl  0  0  0  0  0  0  0  0  0  0  0  0
  -62.8079  -34.6560   92.7566 Cl  0  0  0  0  0  0  0  0  0  0  0  0
  -64.7555  -39.3456   98.4431 H   0  0  0  0  0  0  0  0  0  0  0  0
  -67.1136  -36.2870  100.0232 H   0  0  0  0  0  0  0  0  0  0  0  0
  -69.7524  -34.1371   98.3503 H   0  0  0  0  0  0  0  0  0  0  0  0
  -69.7392  -35.8490   98.9937 H   0  0  0  0  0  0  0  0  0  0  0  0
  -69.8715  -32.4660   99.8592 H   0  0  0  0  0  0  0  0  0  0  0  0
  -68.0713  -32.6788   99.8326 H   0  0  0  0  0  0  0  0  0  0  0  0
  -68.0134  -32.8001  102.2583 H   0  0  0  0  0  0  0  0  0  0  0  0
  -68.8500  -31.2832  101.7168 H   0  0  0  0  0  0  0  0  0  0  0  0
  -71.0159  -32.2368  102.2002 H   0  0  0  0  0  0  0  0  0  0  0  0
  -70.7627  -32.7179  104.6540 H   0  0  0  0  0  0  0  0  0  0  0  0
  -68.9512  -32.5387  104.3554 H   0  0  0  0  0  0  0  0  0  0  0  0
  -69.5135  -34.7422  103.0667 H   0  0  0  0  0  0  0  0  0  0  0  0
  -71.3092  -34.4683  103.0030 H   0  0  0  0  0  0  0  0  0  0  0  0
  -70.4642  -35.8539  101.1133 H   0  0  0  0  0  0  0  0  0  0  0  0
  -71.2476  -34.3023  100.5968 H   0  0  0  0  0  0  0  0  0  0  0  0
  -68.2902  -34.0194   96.5503 H   0  0  0  0  0  0  0  0  0  0  0  0
  -67.7128  -33.1534   94.9653 H   0  0  0  0  0  0  0  0  0  0  0  0
  -64.8392  -32.9293   91.7579 H   0  0  0  0  0  0  0  0  0  0  0  0
  -56.8291  -41.8061   97.9247 H   0  0  0  0  0  0  0  0  0  0  0  0
  -57.0560  -42.7216   96.3960 H   0  0  0  0  0  0  0  0  0  0  0  0
  -56.1121  -41.1933   96.3960 H   0  0  0  0  0  0  0  0  0  0  0  0
  -57.1983  -39.1310   96.6868 H   0  0  0  0  0  0  0  0  0  0  0  0
  -58.0371  -39.6665   98.1916 H   0  0  0  0  0  0  0  0  0  0  0  0
  -59.2575  -37.8143   97.1845 H   0  0  0  0  0  0  0  0  0  0  0  0
  -59.3423  -38.7029   95.6144 H   0  0  0  0  0  0  0  0  0  0  0  0
  -60.7638  -40.9725   95.6894 H   0  0  0  0  0  0  0  0  0  0  0  0
  -61.4611  -41.3560   97.3119 H   0  0  0  0  0  0  0  0  0  0  0  0
  -59.2418  -41.6052   98.2567 H   0  0  0  0  0  0  0  0  0  0  0  0
  -59.3987  -42.6496   96.7949 H   0  0  0  0  0  0  0  0  0  0  0  0
  -64.0178  -35.3754   95.2025 H   0  0  0  0  0  0  0  0  0  0  0  0
  -62.4111  -35.7914   98.6570 H   0  0  0  0  0  0  0  0  0  0  0  0
  -58.3129  -40.9228   95.5442 H   0  0  0  0  0  0  0  0  0  0  0  0
  -68.3540  -34.8153  100.8079 H   0  0  0  0  0  0  0  0  0  0  0  0
  1  2  2  0
  1 31  1  0
  2 28  1  0
  2 35  1  0
  3  4  2  0
  3 33  1  0
  3 35  1  0
  4  5  1  0
  5  6  1  0
  5 14  2  0
 32  6  1  0
  7  8  1  0
  7 32  1  0
  8  9  1  0
  9 10  1  0
  9 12  1  0
 10 11  1  0
 11 36  1  0
 11 37  2  0
 12 13  1  0
 13 32  1  0
 14 15  1  0
 15 16  1  0
 15 33  2  0
 16 17  2  0
 16 27  1  0
 17 18  1  0
 18 19  2  0
 18 38  1  0
 19 26  1  0
 29 20  1  0
 21 22  1  0
 21 29  1  0
 22 30  1  0
 23 24  1  0
 23 30  1  0
 24 29  1  0
 25 30  1  0
 25 31  2  0
 25 34  1  0
 26 27  2  0
 26 39  1  0
 28 34  2  0
  1 40  1  0
  4 41  1  0
  6 42  1  0
  6 43  1  0
  7 44  1  0
  7 45  1  0
  8 46  1  0
  8 47  1  0
  9 48  1  6
 10 49  1  0
 10 50  1  0
 12 51  1  0
 12 52  1  0
 13 53  1  0
 13 54  1  0
 14 55  1  0
 17 56  1  0
 19 57  1  0
 20 58  1  0
 20 59  1  0
 20 60  1  0
 21 61  1  0
 21 62  1  0
 22 63  1  0
 22 64  1  0
 23 65  1  0
 23 66  1  0
 24 67  1  0
 24 68  1  0
 27 69  1  0
 28 70  1  0
 29 71  1  6
 32 72  1  1
M  CHG  3  29   1  32   1  36  -1
M  END
>  <filename_input>  (5) 
7LCU_XTA_docked.sdf

>  <pdb_id>  (5) 
7LCU_XTA

>  <pose_rank>  (5) 
4

>  <num_atoms_heavy>  (5) 
39

>  <num_torsions>  (5) 
7

>  <pose>  (5) 
[-65.68651233685287, -36.05527567536117, 98.40721466591526, 0.10625415389376497, 1.6970794859947136, -2.9072016328888317, 2.761564082145162, 5.331435854600307, -1.4960330437395453, 4.555833027936347, -1.084857396167926, -12.61023544298472, -0.8633921373221332]

>  <energy>  (5) 
-789.5316946351999

>  <inter_energy>  (5) 
-789.1432019032371

>  <intra_energy>  (5) 
3.88815092081083

>  <rmsd>  (5) 
10.5789

>  <sdf_rank>  (5) 
0

$$$$

     RDKit          3D

 72 76  0  0  0  0  0  0  0  0999 V2000
  -68.5817  -34.1801   99.1472 C   0  0  0  0  0  0  0  0  0  0  0  0
  -68.0861  -35.3746   98.6660 C   0  0  0  0  0  0  0  0  0  0  0  0
  -65.9174  -35.6376   97.6205 C   0  0  0  0  0  0  0  0  0  0  0  0
  -64.8558  -36.5240   97.6709 C   0  0  0  0  0  0  0  0  0  0  0  0
  -63.9905  -36.5531   96.5877 C   0  0  0  0  0  0  0  0  0  0  0  0
  -62.8069  -37.4889   96.5761 C   0  0  0  0  0  0  0  0  0  0  0  0
  -63.2435  -39.4148   97.9575 C   0  0  0  0  0  0  0  0  0  0  0  0
  -63.0228  -40.0879   99.3043 C   0  0  0  0  0  0  0  0  0  0  0  0
  -61.5506  -40.3149   99.5900 C   0  0  2  0  0  0  0  0  0  0  0  0
  -61.3496  -40.9185  100.9855 C   0  0  0  0  0  0  0  0  0  0  0  0
  -60.8008  -42.3064  101.0188 C   0  0  0  0  0  0  0  0  0  0  0  0
  -60.8125  -38.9959   99.4323 C   0  0  0  0  0  0  0  0  0  0  0  0
  -61.0992  -38.3282   98.0875 C   0  0  0  0  0  0  0  0  0  0  0  0
  -64.2296  -35.7044   95.5251 C   0  0  0  0  0  0  0  0  0  0  0  0
  -65.3187  -34.8437   95.5661 C   0  0  0  0  0  0  0  0  0  0  0  0
  -65.6436  -33.9443   94.4349 C   0  0  0  0  0  0  0  0  0  0  0  0
  -64.8319  -33.8907   93.3024 C   0  0  0  0  0  0  0  0  0  0  0  0
  -65.1522  -33.0216   92.2789 C   0  0  0  0  0  0  0  0  0  0  0  0
  -66.2521  -32.1950   92.3378 C   0  0  0  0  0  0  0  0  0  0  0  0
  -76.1129  -34.3520   99.7961 C   0  0  0  0  0  0  0  0  0  0  0  0
  -74.2896  -35.5640   98.8160 C   0  0  0  0  0  0  0  0  0  0  0  0
  -73.0180  -35.4500   98.0020 C   0  0  0  0  0  0  0  0  0  0  0  0
  -72.5784  -33.3168   99.1481 C   0  0  0  0  0  0  0  0  0  0  0  0
  -73.8660  -33.5220   99.9153 C   0  0  0  0  0  0  0  0  0  0  0  0
  -70.7001  -34.8565   98.6726 C   0  0  0  0  0  0  0  0  0  0  0  0
  -67.0366  -32.2574   93.4673 C   0  0  0  0  0  0  0  0  0  0  0  0
  -66.7483  -33.1019   94.5113 C   0  0  0  0  0  0  0  0  0  0  0  0
  -69.0086  -36.2973   98.2147 C   0  0  0  0  0  0  0  0  0  0  0  0
  -74.8261  -34.2488   99.1074 N   0  0  2  0  0  0  0  0  0  0  0  0
  -72.0339  -34.5972   98.6875 N   0  0  0  0  0  0  0  0  0  0  0  0
  -69.8924  -33.9024   99.1651 N   0  0  0  0  0  0  0  0  0  0  0  0
  -62.5454  -38.1289   97.8737 N   0  0  1  0  0  0  0  0  0  0  0  0
  -66.1703  -34.8198   96.6069 N   0  0  0  0  0  0  0  0  0  0  0  0
  -70.3227  -36.0509   98.1927 N   0  0  0  0  0  0  0  0  0  0  0  0
  -66.7279  -35.6910   98.7160 O   0  0  0  0  0  0  0  0  0  0  0  0
  -59.6140  -42.5522  100.9513 O   0  0  0  0  0  0  0  0  0  0  0  0
  -61.7316  -43.2196  101.1198 O   0  0  0  0  0  0  0  0  0  0  0  0
  -64.1356  -32.9606   90.8666 Cl  0  0  0  0  0  0  0  0  0  0  0  0
  -68.4211  -31.2159   93.5881 Cl  0  0  0  0  0  0  0  0  0  0  0  0
  -67.8753  -33.4287   99.5300 H   0  0  0  0  0  0  0  0  0  0  0  0
  -64.7038  -37.1819   98.5392 H   0  0  0  0  0  0  0  0  0  0  0  0
  -62.9949  -38.2769   95.8320 H   0  0  0  0  0  0  0  0  0  0  0  0
  -61.9214  -36.8834   96.3325 H   0  0  0  0  0  0  0  0  0  0  0  0
  -62.8688  -40.0763   97.1625 H   0  0  0  0  0  0  0  0  0  0  0  0
  -64.3212  -39.2283   97.8396 H   0  0  0  0  0  0  0  0  0  0  0  0
  -63.4438  -39.4487  100.0944 H   0  0  0  0  0  0  0  0  0  0  0  0
  -63.5201  -41.0688   99.2801 H   0  0  0  0  0  0  0  0  0  0  0  0
  -61.1395  -41.0400   98.8723 H   0  0  0  0  0  0  0  0  0  0  0  0
  -60.6560  -40.2677  101.5383 H   0  0  0  0  0  0  0  0  0  0  0  0
  -62.3531  -40.9827  101.4313 H   0  0  0  0  0  0  0  0  0  0  0  0
  -61.1259  -38.3164  100.2386 H   0  0  0  0  0  0  0  0  0  0  0  0
  -59.7338  -39.2059   99.4807 H   0  0  0  0  0  0  0  0  0  0  0  0
  -60.5970  -37.3499   98.0611 H   0  0  0  0  0  0  0  0  0  0  0  0
  -60.7226  -38.9866   97.2908 H   0  0  0  0  0  0  0  0  0  0  0  0
  -63.5613  -35.7099   94.6513 H   0  0  0  0  0  0  0  0  0  0  0  0
  -63.9440  -34.5354   93.2253 H   0  0  0  0  0  0  0  0  0  0  0  0
  -66.4949  -31.5098   91.5123 H   0  0  0  0  0  0  0  0  0  0  0  0
  -75.9488  -34.3388  100.8837 H   0  0  0  0  0  0  0  0  0  0  0  0
  -76.7505  -33.5021   99.5112 H   0  0  0  0  0  0  0  0  0  0  0  0
  -76.6069  -35.2926   99.5112 H   0  0  0  0  0  0  0  0  0  0  0  0
  -75.0335  -36.1403   98.2464 H   0  0  0  0  0  0  0  0  0  0  0  0
  -74.0605  -36.0727   99.7641 H   0  0  0  0  0  0  0  0  0  0  0  0
  -72.5893  -36.4531   97.8602 H   0  0  0  0  0  0  0  0  0  0  0  0
  -73.2611  -34.9967   97.0297 H   0  0  0  0  0  0  0  0  0  0  0  0
  -72.7769  -32.6755   98.2766 H   0  0  0  0  0  0  0  0  0  0  0  0
  -71.8438  -32.8423   99.8153 H   0  0  0  0  0  0  0  0  0  0  0  0
  -73.6551  -34.0947  100.8304 H   0  0  0  0  0  0  0  0  0  0  0  0
  -74.2880  -32.5393  100.1729 H   0  0  0  0  0  0  0  0  0  0  0  0
  -67.3890  -33.1123   95.4054 H   0  0  0  0  0  0  0  0  0  0  0  0
  -68.6483  -37.2739   97.8591 H   0  0  0  0  0  0  0  0  0  0  0  0
  -74.9887  -33.7412   98.2261 H   0  0  0  0  0  0  0  0  0  0  0  0
  -62.8988  -37.5031   98.6115 H   0  0  0  0  0  0  0  0  0  0  0  0
  1  2  2  0
  1 31  1  0
  2 28  1  0
  2 35  1  0
  3  4  2  0
  3 33  1  0
  3 35  1  0
  4  5  1  0
  5  6  1  0
  5 14  2  0
 32  6  1  0
  7  8  1  0
  7 32  1  0
  8  9  1  0
  9 10  1  0
  9 12  1  0
 10 11  1  0
 11 36  1  0
 11 37  2  0
 12 13  1  0
 13 32  1  0
 14 15  1  0
 15 16  1  0
 15 33  2  0
 16 17  2  0
 16 27  1  0
 17 18  1  0
 18 19  2  0
 18 38  1  0
 19 26  1  0
 29 20  1  0
 21 22  1  0
 21 29  1  0
 22 30  1  0
 23 24  1  0
 23 30  1  0
 24 29  1  0
 25 30  1  0
 25 31  2  0
 25 34  1  0
 26 27  2  0
 26 39  1  0
 28 34  2  0
  1 40  1  0
  4 41  1  0
  6 42  1  0
  6 43  1  0
  7 44  1  0
  7 45  1  0
  8 46  1  0
  8 47  1  0
  9 48  1  6
 10 49  1  0
 10 50  1  0
 12 51  1  0
 12 52  1  0
 13 53  1  0
 13 54  1  0
 14 55  1  0
 17 56  1  0
 19 57  1  0
 20 58  1  0
 20 59  1  0
 20 60  1  0
 21 61  1  0
 21 62  1  0
 22 63  1  0
 22 64  1  0
 23 65  1  0
 23 66  1  0
 24 67  1  0
 24 68  1  0
 27 69  1  0
 28 70  1  0
 29 71  1  6
 32 72  1  1
M  CHG  3  29   1  32   1  36  -1
M  END
>  <filename_input>  (6) 
7LCU_XTA_docked.sdf

>  <pdb_id>  (6) 
7LCU_XTA

>  <pose_rank>  (6) 
5

>  <num_atoms_heavy>  (6) 
39

>  <num_torsions>  (6) 
7

>  <pose>  (6) 
[-65.91741611921319, -35.63760006685401, 97.62047768156118, 0.4450509756944279, -3.315615964300918, 4.7443833302281355, 2.6509777557548238, 4.270552826314951, -1.3722391801863498, -0.9734160991222902, 2.419602622027302, 0.8539540187309231, -1.000940723259288]

>  <energy>  (6) 
-813.9941290052828

>  <inter_energy>  (6) 
-812.8476621841327

>  <intra_energy>  (6) 
7.85209867321368

>  <rmsd>  (6) 
2.58937

>  <sdf_rank>  (6) 
0

$$$$

     RDKit          3D

 72 76  0  0  0  0  0  0  0  0999 V2000
  -68.8706  -36.1916   99.3657 C   0  0  0  0  0  0  0  0  0  0  0  0
  -67.5004  -36.3502   99.4024 C   0  0  0  0  0  0  0  0  0  0  0  0
  -65.7828  -36.7187   97.7352 C   0  0  0  0  0  0  0  0  0  0  0  0
  -64.5474  -37.1844   98.1499 C   0  0  0  0  0  0  0  0  0  0  0  0
  -63.4351  -36.7957   97.4187 C   0  0  0  0  0  0  0  0  0  0  0  0
  -62.0552  -37.2587   97.8164 C   0  0  0  0  0  0  0  0  0  0  0  0
  -60.8120  -39.1319   96.9485 C   0  0  0  0  0  0  0  0  0  0  0  0
  -60.6519  -40.6449   96.9171 C   0  0  0  0  0  0  0  0  0  0  0  0
  -60.3968  -41.2167   98.2986 C   0  0  2  0  0  0  0  0  0  0  0  0
  -60.3207  -42.7478   98.2529 C   0  0  0  0  0  0  0  0  0  0  0  0
  -59.0285  -43.3186   97.7705 C   0  0  0  0  0  0  0  0  0  0  0  0
  -61.4888  -40.7322   99.2380 C   0  0  0  0  0  0  0  0  0  0  0  0
  -61.6513  -39.2126   99.2035 C   0  0  0  0  0  0  0  0  0  0  0  0
  -63.6152  -35.9717   96.3255 C   0  0  0  0  0  0  0  0  0  0  0  0
  -64.8944  -35.5493   95.9880 C   0  0  0  0  0  0  0  0  0  0  0  0
  -65.1464  -34.7003   94.8007 C   0  0  0  0  0  0  0  0  0  0  0  0
  -66.3310  -33.9761   94.6726 C   0  0  0  0  0  0  0  0  0  0  0  0
  -66.5420  -33.2156   93.5400 C   0  0  0  0  0  0  0  0  0  0  0  0
  -65.6183  -33.1486   92.5209 C   0  0  0  0  0  0  0  0  0  0  0  0
  -71.1129  -30.3669  103.6336 C   0  0  0  0  0  0  0  0  0  0  0  0
  -69.2021  -31.7551  103.2144 C   0  0  0  0  0  0  0  0  0  0  0  0
  -68.7157  -33.1783  103.0401 C   0  0  0  0  0  0  0  0  0  0  0  0
  -70.8463  -33.6766  101.9133 C   0  0  0  0  0  0  0  0  0  0  0  0
  -71.2414  -32.2328  102.1323 C   0  0  0  0  0  0  0  0  0  0  0  0
  -68.7514  -34.6834  101.0631 C   0  0  0  0  0  0  0  0  0  0  0  0
  -64.4585  -33.8765   92.6628 C   0  0  0  0  0  0  0  0  0  0  0  0
  -64.2135  -34.6520   93.7696 C   0  0  0  0  0  0  0  0  0  0  0  0
  -66.8073  -35.5857  100.3196 C   0  0  0  0  0  0  0  0  0  0  0  0
  -70.6451  -31.7245  103.3525 N   0  0  2  0  0  0  0  0  0  0  0  0
  -69.3882  -33.8242  101.9015 N   0  0  0  0  0  0  0  0  0  0  0  0
  -69.5182  -35.3546  100.1874 N   0  0  0  0  0  0  0  0  0  0  0  0
  -61.9040  -38.7211   97.8355 N   0  0  1  0  0  0  0  0  0  0  0  0
  -65.9794  -35.9336   96.6839 N   0  0  0  0  0  0  0  0  0  0  0  0
  -67.4166  -34.7568  101.1738 N   0  0  0  0  0  0  0  0  0  0  0  0
  -66.8211  -37.1668   98.4974 O   0  0  0  0  0  0  0  0  0  0  0  0
  -57.9690  -42.7336   97.8637 O   0  0  0  0  0  0  0  0  0  0  0  0
  -59.1640  -44.5040   97.2346 O   0  0  0  0  0  0  0  0  0  0  0  0
  -68.0227  -32.3123   93.3868 Cl  0  0  0  0  0  0  0  0  0  0  0  0
  -63.2779  -33.8340   91.3898 Cl  0  0  0  0  0  0  0  0  0  0  0  0
  -69.4523  -36.7734   98.6355 H   0  0  0  0  0  0  0  0  0  0  0  0
  -64.4512  -37.8396   99.0283 H   0  0  0  0  0  0  0  0  0  0  0  0
  -61.3303  -36.8441   97.1005 H   0  0  0  0  0  0  0  0  0  0  0  0
  -61.8815  -36.9046   98.8433 H   0  0  0  0  0  0  0  0  0  0  0  0
  -59.8741  -38.6814   97.3054 H   0  0  0  0  0  0  0  0  0  0  0  0
  -61.0505  -38.7909   95.9302 H   0  0  0  0  0  0  0  0  0  0  0  0
  -61.5720  -41.0914   96.5120 H   0  0  0  0  0  0  0  0  0  0  0  0
  -59.7836  -40.8822   96.2849 H   0  0  0  0  0  0  0  0  0  0  0  0
  -59.4242  -40.8652   98.6733 H   0  0  0  0  0  0  0  0  0  0  0  0
  -60.4976  -43.1253   99.2708 H   0  0  0  0  0  0  0  0  0  0  0  0
  -61.0791  -43.0635   97.5213 H   0  0  0  0  0  0  0  0  0  0  0  0
  -62.4413  -41.1966   98.9428 H   0  0  0  0  0  0  0  0  0  0  0  0
  -61.2033  -41.0171  100.2614 H   0  0  0  0  0  0  0  0  0  0  0  0
  -62.4984  -38.9301   99.8458 H   0  0  0  0  0  0  0  0  0  0  0  0
  -60.7154  -38.7598   99.5628 H   0  0  0  0  0  0  0  0  0  0  0  0
  -62.7506  -35.6516   95.7254 H   0  0  0  0  0  0  0  0  0  0  0  0
  -67.0910  -34.0106   95.4671 H   0  0  0  0  0  0  0  0  0  0  0  0
  -65.8006  -32.5356   91.6259 H   0  0  0  0  0  0  0  0  0  0  0  0
  -71.1653  -30.2151  104.7218 H   0  0  0  0  0  0  0  0  0  0  0  0
  -70.4135  -29.6399  103.1951 H   0  0  0  0  0  0  0  0  0  0  0  0
  -72.1118  -30.2251  103.1951 H   0  0  0  0  0  0  0  0  0  0  0  0
  -68.7430  -31.3236  104.1161 H   0  0  0  0  0  0  0  0  0  0  0  0
  -68.9173  -31.1708  102.3270 H   0  0  0  0  0  0  0  0  0  0  0  0
  -67.6306  -33.1692  102.8602 H   0  0  0  0  0  0  0  0  0  0  0  0
  -68.9473  -33.7447  103.9542 H   0  0  0  0  0  0  0  0  0  0  0  0
  -71.2639  -34.2911  102.7244 H   0  0  0  0  0  0  0  0  0  0  0  0
  -71.2405  -34.0049  100.9403 H   0  0  0  0  0  0  0  0  0  0  0  0
  -70.8945  -31.6291  101.2807 H   0  0  0  0  0  0  0  0  0  0  0  0
  -72.3363  -32.1718  102.2181 H   0  0  0  0  0  0  0  0  0  0  0  0
  -63.2823  -35.2333   93.8406 H   0  0  0  0  0  0  0  0  0  0  0  0
  -65.7103  -35.6615  100.3487 H   0  0  0  0  0  0  0  0  0  0  0  0
  -70.9269  -32.3174  104.1462 H   0  0  0  0  0  0  0  0  0  0  0  0
  -62.7860  -39.1343   97.5005 H   0  0  0  0  0  0  0  0  0  0  0  0
  1  2  2  0
  1 31  1  0
  2 28  1  0
  2 35  1  0
  3  4  2  0
  3 33  1  0
  3 35  1  0
  4  5  1  0
  5  6  1  0
  5 14  2  0
 32  6  1  0
  7  8  1  0
  7 32  1  0
  8  9  1  0
  9 10  1  0
  9 12  1  0
 10 11  1  0
 11 36  1  0
 11 37  2  0
 12 13  1  0
 13 32  1  0
 14 15  1  0
 15 16  1  0
 15 33  2  0
 16 17  2  0
 16 27  1  0
 17 18  1  0
 18 19  2  0
 18 38  1  0
 19 26  1  0
 29 20  1  0
 21 22  1  0
 21 29  1  0
 22 30  1  0
 23 24  1  0
 23 30  1  0
 24 29  1  0
 25 30  1  0
 25 31  2  0
 25 34  1  0
 26 27  2  0
 26 39  1  0
 28 34  2  0
  1 40  1  0
  4 41  1  0
  6 42  1  0
  6 43  1  0
  7 44  1  0
  7 45  1  0
  8 46  1  0
  8 47  1  0
  9 48  1  1
 10 49  1  0
 10 50  1  0
 12 51  1  0
 12 52  1  0
 13 53  1  0
 13 54  1  0
 14 55  1  0
 17 56  1  0
 19 57  1  0
 20 58  1  0
 20 59  1  0
 20 60  1  0
 21 61  1  0
 21 62  1  0
 22 63  1  0
 22 64  1  0
 23 65  1  0
 23 66  1  0
 24 67  1  0
 24 68  1  0
 27 69  1  0
 28 70  1  0
 29 71  1  1
 32 72  1  6
M  CHG  3  29   1  32   1  36  -1
M  END
>  <filename_input>  (7) 
7LCU_XTA_docked.sdf

>  <pdb_id>  (7) 
7LCU_XTA

>  <pose_rank>  (7) 
6

>  <num_atoms_heavy>  (7) 
39

>  <num_torsions>  (7) 
7

>  <pose>  (7) 
[-65.78283326292677, -36.71870751885706, 97.7351503329775, -2.450869909801077, 5.430249219162208, 1.7612973614501677, -0.1252108750803927, 5.486982863377116, 5.452437987551444, -7.870261941642974, 1.410532219285929, -0.9275037218513593, -3.276840713834507]

>  <energy>  (7) 
-751.825593043346

>  <inter_energy>  (7) 
-753.9899984494444

>  <intra_energy>  (7) 
2.91700611421222

>  <rmsd>  (7) 
2.35636

>  <sdf_rank>  (7) 
0

$$$$

     RDKit          3D

 72 76  0  0  0  0  0  0  0  0999 V2000
  -66.6864  -39.2470   98.1793 C   0  0  0  0  0  0  0  0  0  0  0  0
  -66.6703  -38.1069   98.9564 C   0  0  0  0  0  0  0  0  0  0  0  0
  -65.6128  -36.3914   97.6131 C   0  0  0  0  0  0  0  0  0  0  0  0
  -64.3706  -36.8530   98.0118 C   0  0  0  0  0  0  0  0  0  0  0  0
  -63.2713  -36.4759   97.2553 C   0  0  0  0  0  0  0  0  0  0  0  0
  -61.8850  -36.9353   97.6343 C   0  0  0  0  0  0  0  0  0  0  0  0
  -59.8975  -38.1348   96.9868 C   0  0  0  0  0  0  0  0  0  0  0  0
  -59.2803  -39.1511   96.0371 C   0  0  0  0  0  0  0  0  0  0  0  0
  -59.9707  -40.4990   96.1227 C   0  0  2  0  0  0  0  0  0  0  0  0
  -59.3857  -41.4806   95.0998 C   0  0  0  0  0  0  0  0  0  0  0  0
  -59.6105  -42.9279   95.3881 C   0  0  0  0  0  0  0  0  0  0  0  0
  -61.4638  -40.2975   95.9238 C   0  0  0  0  0  0  0  0  0  0  0  0
  -62.0355  -39.2344   96.8617 C   0  0  0  0  0  0  0  0  0  0  0  0
  -63.4703  -35.6668   96.1542 C   0  0  0  0  0  0  0  0  0  0  0  0
  -64.7549  -35.2474   95.8342 C   0  0  0  0  0  0  0  0  0  0  0  0
  -65.0274  -34.4144   94.6401 C   0  0  0  0  0  0  0  0  0  0  0  0
  -66.1674  -33.6149   94.5656 C   0  0  0  0  0  0  0  0  0  0  0  0
  -66.4013  -32.8716   93.4262 C   0  0  0  0  0  0  0  0  0  0  0  0
  -65.5440  -32.8942   92.3488 C   0  0  0  0  0  0  0  0  0  0  0  0
  -68.4931  -45.3603  102.2454 C   0  0  0  0  0  0  0  0  0  0  0  0
  -67.8328  -43.0685  102.5021 C   0  0  0  0  0  0  0  0  0  0  0  0
  -66.8600  -41.9990  102.0525 C   0  0  0  0  0  0  0  0  0  0  0  0
  -66.9435  -42.9914   99.8018 C   0  0  0  0  0  0  0  0  0  0  0  0
  -67.9142  -44.0165  100.3451 C   0  0  0  0  0  0  0  0  0  0  0  0
  -66.8630  -40.5301  100.0482 C   0  0  0  0  0  0  0  0  0  0  0  0
  -64.4281  -33.6954   92.4386 C   0  0  0  0  0  0  0  0  0  0  0  0
  -64.1630  -34.4566   93.5506 C   0  0  0  0  0  0  0  0  0  0  0  0
  -66.7862  -38.2793  100.3212 C   0  0  0  0  0  0  0  0  0  0  0  0
  -67.6350  -44.2874  101.7420 N   0  0  2  0  0  0  0  0  0  0  0  0
  -66.9738  -41.7652  100.6040 N   0  0  0  0  0  0  0  0  0  0  0  0
  -66.7887  -40.4740   98.7078 N   0  0  0  0  0  0  0  0  0  0  0  0
  -61.3272  -37.9473   96.7250 N   0  0  1  0  0  0  0  0  0  0  0  0
  -65.8275  -35.6205   96.5549 N   0  0  0  0  0  0  0  0  0  0  0  0
  -66.8661  -39.4864  100.8908 N   0  0  0  0  0  0  0  0  0  0  0  0
  -66.6376  -36.8275   98.4002 O   0  0  0  0  0  0  0  0  0  0  0  0
  -60.1485  -43.6844   94.6059 O   0  0  0  0  0  0  0  0  0  0  0  0
  -59.1749  -43.2857   96.5683 O   0  0  0  0  0  0  0  0  0  0  0  0
  -67.8257  -31.8739   93.3402 Cl  0  0  0  0  0  0  0  0  0  0  0  0
  -63.3334  -33.7666   91.0923 Cl  0  0  0  0  0  0  0  0  0  0  0  0
  -66.6126  -39.1449   97.0865 H   0  0  0  0  0  0  0  0  0  0  0  0
  -64.2592  -37.4962   98.8973 H   0  0  0  0  0  0  0  0  0  0  0  0
  -61.2171  -36.0613   97.6324 H   0  0  0  0  0  0  0  0  0  0  0  0
  -61.9620  -37.4032   98.6268 H   0  0  0  0  0  0  0  0  0  0  0  0
  -59.7676  -38.4879   98.0205 H   0  0  0  0  0  0  0  0  0  0  0  0
  -59.3913  -37.1703   96.8334 H   0  0  0  0  0  0  0  0  0  0  0  0
  -59.3653  -38.7730   95.0077 H   0  0  0  0  0  0  0  0  0  0  0  0
  -58.2273  -39.2892   96.3238 H   0  0  0  0  0  0  0  0  0  0  0  0
  -59.8012  -40.9418   97.1152 H   0  0  0  0  0  0  0  0  0  0  0  0
  -59.8360  -41.2572   94.1214 H   0  0  0  0  0  0  0  0  0  0  0  0
  -58.2960  -41.3344   95.1338 H   0  0  0  0  0  0  0  0  0  0  0  0
  -61.6434  -39.9856   94.8843 H   0  0  0  0  0  0  0  0  0  0  0  0
  -61.9651  -41.2502   96.1495 H   0  0  0  0  0  0  0  0  0  0  0  0
  -63.0986  -39.0832   96.6232 H   0  0  0  0  0  0  0  0  0  0  0  0
  -61.9094  -39.5866   97.8961 H   0  0  0  0  0  0  0  0  0  0  0  0
  -62.6163  -35.3563   95.5343 H   0  0  0  0  0  0  0  0  0  0  0  0
  -66.8742  -33.5769   95.4076 H   0  0  0  0  0  0  0  0  0  0  0  0
  -65.7436  -32.2938   91.4489 H   0  0  0  0  0  0  0  0  0  0  0  0
  -68.4853  -45.3506  103.3453 H   0  0  0  0  0  0  0  0  0  0  0  0
  -69.5210  -45.2075  101.8846 H   0  0  0  0  0  0  0  0  0  0  0  0
  -68.1182  -46.3295  101.8846 H   0  0  0  0  0  0  0  0  0  0  0  0
  -67.6724  -43.2779  103.5700 H   0  0  0  0  0  0  0  0  0  0  0  0
  -68.8589  -42.7085  102.3360 H   0  0  0  0  0  0  0  0  0  0  0  0
  -67.0801  -41.0633  102.5873 H   0  0  0  0  0  0  0  0  0  0  0  0
  -65.8371  -42.3360  102.2761 H   0  0  0  0  0  0  0  0  0  0  0  0
  -65.9269  -43.4110   99.8239 H   0  0  0  0  0  0  0  0  0  0  0  0
  -67.2348  -42.7437   98.7704 H   0  0  0  0  0  0  0  0  0  0  0  0
  -68.9399  -43.6309  100.2488 H   0  0  0  0  0  0  0  0  0  0  0  0
  -67.8055  -44.9493   99.7723 H   0  0  0  0  0  0  0  0  0  0  0  0
  -63.2697  -35.0979   93.5798 H   0  0  0  0  0  0  0  0  0  0  0  0
  -66.8139  -37.3883  100.9657 H   0  0  0  0  0  0  0  0  0  0  0  0
  -66.6591  -44.6009  101.8434 H   0  0  0  0  0  0  0  0  0  0  0  0
  -61.4533  -37.6090   95.7604 H   0  0  0  0  0  0  0  0  0  0  0  0
  1  2  2  0
  1 31  1  0
  2 28  1  0
  2 35  1  0
  3  4  2  0
  3 33  1  0
  3 35  1  0
  4  5  1  0
  5  6  1  0
  5 14  2  0
 32  6  1  0
  7  8  1  0
  7 32  1  0
  8  9  1  0
  9 10  1  0
  9 12  1  0
 10 11  1  0
 11 36  1  0
 11 37  2  0
 12 13  1  0
 13 32  1  0
 14 15  1  0
 15 16  1  0
 15 33  2  0
 16 17  2  0
 16 27  1  0
 17 18  1  0
 18 19  2  0
 18 38  1  0
 19 26  1  0
 29 20  1  0
 21 22  1  0
 21 29  1  0
 22 30  1  0
 23 24  1  0
 23 30  1  0
 24 29  1  0
 25 30  1  0
 25 31  2  0
 25 34  1  0
 26 27  2  0
 26 39  1  0
 28 34  2  0
  1 40  1  0
  4 41  1  0
  6 42  1  0
  6 43  1  0
  7 44  1  0
  7 45  1  0
  8 46  1  0
  8 47  1  0
  9 48  1  1
 10 49  1  0
 10 50  1  0
 12 51  1  0
 12 52  1  0
 13 53  1  0
 13 54  1  0
 14 55  1  0
 17 56  1  0
 19 57  1  0
 20 58  1  0
 20 59  1  0
 20 60  1  0
 21 61  1  0
 21 62  1  0
 22 63  1  0
 22 64  1  0
 23 65  1  0
 23 66  1  0
 24 67  1  0
 24 68  1  0
 27 69  1  0
 28 70  1  0
 29 71  1  6
 32 72  1  6
M  CHG  3  29   1  32   1  36  -1
M  END
>  <filename_input>  (8) 
7LCU_XTA_docked.sdf

>  <pdb_id>  (8) 
7LCU_XTA

>  <pose_rank>  (8) 
7

>  <num_atoms_heavy>  (8) 
39

>  <num_torsions>  (8) 
7

>  <pose>  (8) 
[-65.6127926796205, -36.391376367586865, 97.61313539516156, -1.7096453026160672, 5.398138525841855, 2.604613390561836, 12.523233027034163, 6.348585630361145, -0.042002308631345096, -0.19031656295898075, 3.1199348423226194, 2.8530064140370834, 6.024344578361106]

>  <energy>  (8) 
-812.3825563172269

>  <inter_energy>  (8) 
-819.2523161044526

>  <intra_energy>  (8) 
9.53841472247397

>  <rmsd>  (8) 
4.99846

>  <sdf_rank>  (8) 
0

$$$$

     RDKit          3D

 72 76  0  0  0  0  0  0  0  0999 V2000
  -69.1180  -35.4346  101.3566 C   0  0  0  0  0  0  0  0  0  0  0  0
  -69.0827  -34.9517  100.0645 C   0  0  0  0  0  0  0  0  0  0  0  0
  -67.1640  -34.9286   98.5868 C   0  0  0  0  0  0  0  0  0  0  0  0
  -66.7052  -36.1820   98.9527 C   0  0  0  0  0  0  0  0  0  0  0  0
  -65.9148  -36.8682   98.0430 C   0  0  0  0  0  0  0  0  0  0  0  0
  -65.3729  -38.2363   98.3763 C   0  0  0  0  0  0  0  0  0  0  0  0
  -64.4859  -39.2244  100.3875 C   0  0  0  0  0  0  0  0  0  0  0  0
  -63.3776  -39.2049  101.4301 C   0  0  0  0  0  0  0  0  0  0  0  0
  -62.0121  -39.4324  100.8102 C   0  0  2  0  0  0  0  0  0  0  0  0
  -60.9056  -39.3269  101.8669 C   0  0  0  0  0  0  0  0  0  0  0  0
  -61.0682  -38.2323  102.8689 C   0  0  0  0  0  0  0  0  0  0  0  0
  -61.8143  -38.4335   99.6820 C   0  0  0  0  0  0  0  0  0  0  0  0
  -62.9718  -38.4496   98.6837 C   0  0  0  0  0  0  0  0  0  0  0  0
  -65.6285  -36.2717   96.8311 C   0  0  0  0  0  0  0  0  0  0  0  0
  -66.1292  -35.0064   96.5539 C   0  0  0  0  0  0  0  0  0  0  0  0
  -65.8869  -34.3406   95.2531 C   0  0  0  0  0  0  0  0  0  0  0  0
  -66.8252  -33.4656   94.7070 C   0  0  0  0  0  0  0  0  0  0  0  0
  -66.5763  -32.8834   93.4804 C   0  0  0  0  0  0  0  0  0  0  0  0
  -65.4264  -33.1408   92.7679 C   0  0  0  0  0  0  0  0  0  0  0  0
  -75.1011  -39.9168  102.4894 C   0  0  0  0  0  0  0  0  0  0  0  0
  -74.2218  -38.3275  100.9225 C   0  0  0  0  0  0  0  0  0  0  0  0
  -73.5802  -36.9652  100.7637 C   0  0  0  0  0  0  0  0  0  0  0  0
  -72.3794  -37.3809  102.8714 C   0  0  0  0  0  0  0  0  0  0  0  0
  -73.0687  -38.7258  102.9399 C   0  0  0  0  0  0  0  0  0  0  0  0
  -71.2172  -36.2368  101.0099 C   0  0  0  0  0  0  0  0  0  0  0  0
  -64.5159  -34.0132   93.3203 C   0  0  0  0  0  0  0  0  0  0  0  0
  -64.7290  -34.6198   94.5339 C   0  0  0  0  0  0  0  0  0  0  0  0
  -70.1922  -35.1895   99.2780 C   0  0  0  0  0  0  0  0  0  0  0  0
  -74.3807  -38.6537  102.3264 N   0  0  2  0  0  0  0  0  0  0  0  0
  -72.3008  -36.9029  101.4882 N   0  0  0  0  0  0  0  0  0  0  0  0
  -70.1787  -36.0885  101.8494 N   0  0  0  0  0  0  0  0  0  0  0  0
  -64.2687  -38.2154   99.3471 N   0  0  1  0  0  0  0  0  0  0  0  0
  -66.9080  -34.3406   97.4254 N   0  0  0  0  0  0  0  0  0  0  0  0
  -71.2803  -35.8163   99.7377 N   0  0  0  0  0  0  0  0  0  0  0  0
  -67.9499  -34.3360   99.5307 O   0  0  0  0  0  0  0  0  0  0  0  0
  -60.8815  -37.0615  102.6084 O   0  0  0  0  0  0  0  0  0  0  0  0
  -61.4231  -38.6708  104.0489 O   0  0  0  0  0  0  0  0  0  0  0  0
  -67.7511  -31.7902   92.8047 Cl  0  0  0  0  0  0  0  0  0  0  0  0
  -63.0626  -34.3792   92.4428 Cl  0  0  0  0  0  0  0  0  0  0  0  0
  -68.2440  -35.2770  102.0056 H   0  0  0  0  0  0  0  0  0  0  0  0
  -66.9584  -36.6183   99.9302 H   0  0  0  0  0  0  0  0  0  0  0  0
  -66.1910  -38.8413   98.7942 H   0  0  0  0  0  0  0  0  0  0  0  0
  -64.9719  -38.6588   97.4432 H   0  0  0  0  0  0  0  0  0  0  0  0
  -64.5169  -40.2190   99.9187 H   0  0  0  0  0  0  0  0  0  0  0  0
  -65.4362  -38.9972  100.8927 H   0  0  0  0  0  0  0  0  0  0  0  0
  -63.3807  -38.2270  101.9338 H   0  0  0  0  0  0  0  0  0  0  0  0
  -63.5674  -40.0200  102.1440 H   0  0  0  0  0  0  0  0  0  0  0  0
  -61.9557  -40.4504  100.3972 H   0  0  0  0  0  0  0  0  0  0  0  0
  -60.8675  -40.2813  102.4125 H   0  0  0  0  0  0  0  0  0  0  0  0
  -59.9846  -39.0917  101.3134 H   0  0  0  0  0  0  0  0  0  0  0  0
  -61.7327  -37.4247  100.1129 H   0  0  0  0  0  0  0  0  0  0  0  0
  -60.8988  -38.7142   99.1406 H   0  0  0  0  0  0  0  0  0  0  0  0
  -62.8072  -37.6612   97.9345 H   0  0  0  0  0  0  0  0  0  0  0  0
  -63.0030  -39.4425   98.2113 H   0  0  0  0  0  0  0  0  0  0  0  0
  -65.0074  -36.7956   96.0896 H   0  0  0  0  0  0  0  0  0  0  0  0
  -67.7557  -33.2411   95.2491 H   0  0  0  0  0  0  0  0  0  0  0  0
  -65.2420  -32.6666   91.7926 H   0  0  0  0  0  0  0  0  0  0  0  0
  -75.2244  -40.1330  103.5609 H   0  0  0  0  0  0  0  0  0  0  0  0
  -76.0904  -39.8386  102.0149 H   0  0  0  0  0  0  0  0  0  0  0  0
  -74.5300  -40.7285  102.0149 H   0  0  0  0  0  0  0  0  0  0  0  0
  -75.2095  -38.3210  100.4384 H   0  0  0  0  0  0  0  0  0  0  0  0
  -73.5741  -39.0825  100.4531 H   0  0  0  0  0  0  0  0  0  0  0  0
  -73.3996  -36.7739   99.6956 H   0  0  0  0  0  0  0  0  0  0  0  0
  -74.2583  -36.2053  101.1793 H   0  0  0  0  0  0  0  0  0  0  0  0
  -72.9468  -36.6545  103.4717 H   0  0  0  0  0  0  0  0  0  0  0  0
  -71.3576  -37.4896  103.2641 H   0  0  0  0  0  0  0  0  0  0  0  0
  -72.4605  -39.4722  102.4081 H   0  0  0  0  0  0  0  0  0  0  0  0
  -73.1839  -39.0141  103.9952 H   0  0  0  0  0  0  0  0  0  0  0  0
  -63.9863  -35.3245   94.9363 H   0  0  0  0  0  0  0  0  0  0  0  0
  -70.1807  -34.8499   98.2319 H   0  0  0  0  0  0  0  0  0  0  0  0
  -74.9370  -37.9205  102.7887 H   0  0  0  0  0  0  0  0  0  0  0  0
  -64.2469  -37.2813   99.7806 H   0  0  0  0  0  0  0  0  0  0  0  0
  1  2  2  0
  1 31  1  0
  2 28  1  0
  2 35  1  0
  3  4  2  0
  3 33  1  0
  3 35  1  0
  4  5  1  0
  5  6  1  0
  5 14  2  0
 32  6  1  0
  7  8  1  0
  7 32  1  0
  8  9  1  0
  9 10  1  0
  9 12  1  0
 10 11  1  0
 11 36  1  0
 11 37  2  0
 12 13  1  0
 13 32  1  0
 14 15  1  0
 15 16  1  0
 15 33  2  0
 16 17  2  0
 16 27  1  0
 17 18  1  0
 18 19  2  0
 18 38  1  0
 19 26  1  0
 29 20  1  0
 21 22  1  0
 21 29  1  0
 22 30  1  0
 23 24  1  0
 23 30  1  0
 24 29  1  0
 25 30  1  0
 25 31  2  0
 25 34  1  0
 26 27  2  0
 26 39  1  0
 28 34  2  0
  1 40  1  0
  4 41  1  0
  6 42  1  0
  6 43  1  0
  7 44  1  0
  7 45  1  0
  8 46  1  0
  8 47  1  0
  9 48  1  6
 10 49  1  0
 10 50  1  0
 12 51  1  0
 12 52  1  0
 13 53  1  0
 13 54  1  0
 14 55  1  0
 17 56  1  0
 19 57  1  0
 20 58  1  0
 20 59  1  0
 20 60  1  0
 21 61  1  0
 21 62  1  0
 22 63  1  0
 22 64  1  0
 23 65  1  0
 23 66  1  0
 24 67  1  0
 24 68  1  0
 27 69  1  0
 28 70  1  0
 29 71  1  1
 32 72  1  1
M  CHG  3  29   1  32   1  36  -1
M  END
>  <filename_input>  (9) 
7LCU_XTA_docked.sdf

>  <pdb_id>  (9) 
7LCU_XTA

>  <pose_rank>  (9) 
8

>  <num_atoms_heavy>  (9) 
39

>  <num_torsions>  (9) 
7

>  <pose>  (9) 
[-67.16401904422844, -34.92864386697777, 98.58675710321381, -0.14433465924777863, 0.12371820121288757, -0.9392982681456749, -0.9952414069621843, -3.1150130508356955, -0.6526940814346138, 2.606136424659415, -0.33654205741784354, 15.11282995551509, -3.5815589164194743]

>  <energy>  (9) 
-673.3371951350981

>  <inter_energy>  (9) 
-690.5093851315991

>  <intra_energy>  (9) 
8.214098398698974

>  <rmsd>  (9) 
4.55722

>  <sdf_rank>  (9) 
0

$$$$

     RDKit          3D

 72 76  0  0  0  0  0  0  0  0999 V2000
  -62.4330  -39.0388   97.4659 C   0  0  0  0  0  0  0  0  0  0  0  0
  -61.8943  -37.7898   97.6982 C   0  0  0  0  0  0  0  0  0  0  0  0
  -63.8261  -36.3291   97.7058 C   0  0  0  0  0  0  0  0  0  0  0  0
  -64.9233  -36.5941   98.5065 C   0  0  0  0  0  0  0  0  0  0  0  0
  -66.1670  -36.1856   98.0490 C   0  0  0  0  0  0  0  0  0  0  0  0
  -67.4087  -36.4471   98.8652 C   0  0  0  0  0  0  0  0  0  0  0  0
  -68.1254  -37.7606  100.7543 C   0  0  0  0  0  0  0  0  0  0  0  0
  -68.1638  -39.1367  101.4032 C   0  0  0  0  0  0  0  0  0  0  0  0
  -68.8661  -40.1568  100.5276 C   0  0  2  0  0  0  0  0  0  0  0  0
  -68.8199  -41.5510  101.1650 C   0  0  0  0  0  0  0  0  0  0  0  0
  -67.8056  -41.7372  102.2442 C   0  0  0  0  0  0  0  0  0  0  0  0
  -68.2250  -40.1431   99.1497 C   0  0  0  0  0  0  0  0  0  0  0  0
  -68.1610  -38.7368   98.5540 C   0  0  0  0  0  0  0  0  0  0  0  0
  -66.2463  -35.5422   96.8298 C   0  0  0  0  0  0  0  0  0  0  0  0
  -65.0899  -35.3249   96.0922 C   0  0  0  0  0  0  0  0  0  0  0  0
  -65.1150  -34.6024   94.7994 C   0  0  0  0  0  0  0  0  0  0  0  0
  -64.0455  -34.6845   93.9085 C   0  0  0  0  0  0  0  0  0  0  0  0
  -64.0932  -33.9768   92.7243 C   0  0  0  0  0  0  0  0  0  0  0  0
  -65.1668  -33.1820   92.3894 C   0  0  0  0  0  0  0  0  0  0  0  0
  -57.0583  -44.1724   96.0769 C   0  0  0  0  0  0  0  0  0  0  0  0
  -57.3856  -41.8019   96.2432 C   0  0  0  0  0  0  0  0  0  0  0  0
  -58.2635  -40.6381   95.8340 C   0  0  0  0  0  0  0  0  0  0  0  0
  -60.2002  -42.1451   96.0221 C   0  0  0  0  0  0  0  0  0  0  0  0
  -59.2419  -43.2438   96.4259 C   0  0  0  0  0  0  0  0  0  0  0  0
  -60.4025  -39.7975   96.7791 C   0  0  0  0  0  0  0  0  0  0  0  0
  -66.2094  -33.1081   93.2854 C   0  0  0  0  0  0  0  0  0  0  0  0
  -66.1975  -33.7896   94.4778 C   0  0  0  0  0  0  0  0  0  0  0  0
  -60.5433  -37.6376   97.4584 C   0  0  0  0  0  0  0  0  0  0  0  0
  -57.9552  -43.0539   95.7845 N   0  0  2  0  0  0  0  0  0  0  0  0
  -59.6392  -40.8248   96.3222 N   0  0  0  0  0  0  0  0  0  0  0  0
  -61.6993  -40.0630   97.0099 N   0  0  0  0  0  0  0  0  0  0  0  0
  -67.4605  -37.7957   99.4488 N   0  0  1  0  0  0  0  0  0  0  0  0
  -63.8786  -35.7056   96.5359 N   0  0  0  0  0  0  0  0  0  0  0  0
  -59.7803  -38.6264   96.9806 N   0  0  0  0  0  0  0  0  0  0  0  0
  -62.6434  -36.7456   98.2420 O   0  0  0  0  0  0  0  0  0  0  0  0
  -66.6473  -42.0256  102.0233 O   0  0  0  0  0  0  0  0  0  0  0  0
  -68.2998  -41.5646  103.4428 O   0  0  0  0  0  0  0  0  0  0  0  0
  -62.7552  -34.0850   91.6153 Cl  0  0  0  0  0  0  0  0  0  0  0  0
  -67.5724  -32.1002   92.9083 Cl  0  0  0  0  0  0  0  0  0  0  0  0
  -63.5033  -39.1994   97.6622 H   0  0  0  0  0  0  0  0  0  0  0  0
  -64.8128  -37.1104   99.4716 H   0  0  0  0  0  0  0  0  0  0  0  0
  -67.4471  -35.7131   99.6835 H   0  0  0  0  0  0  0  0  0  0  0  0
  -68.2663  -36.3600   98.1818 H   0  0  0  0  0  0  0  0  0  0  0  0
  -69.1562  -37.4009  100.6200 H   0  0  0  0  0  0  0  0  0  0  0  0
  -67.5556  -37.0872  101.4115 H   0  0  0  0  0  0  0  0  0  0  0  0
  -67.1322  -39.4733  101.5837 H   0  0  0  0  0  0  0  0  0  0  0  0
  -68.7249  -39.0531  102.3456 H   0  0  0  0  0  0  0  0  0  0  0  0
  -69.9291  -39.8925  100.4274 H   0  0  0  0  0  0  0  0  0  0  0  0
  -69.8113  -41.7593  101.5937 H   0  0  0  0  0  0  0  0  0  0  0  0
  -68.5285  -42.2395  100.3582 H   0  0  0  0  0  0  0  0  0  0  0  0
  -67.2023  -40.5396   99.2314 H   0  0  0  0  0  0  0  0  0  0  0  0
  -68.8441  -40.7627   98.4842 H   0  0  0  0  0  0  0  0  0  0  0  0
  -67.6261  -38.7806   97.5937 H   0  0  0  0  0  0  0  0  0  0  0  0
  -69.1909  -38.3760   98.4158 H   0  0  0  0  0  0  0  0  0  0  0  0
  -67.2197  -35.2038   96.4451 H   0  0  0  0  0  0  0  0  0  0  0  0
  -63.1712  -35.3079   94.1473 H   0  0  0  0  0  0  0  0  0  0  0  0
  -65.1904  -32.6263   91.4404 H   0  0  0  0  0  0  0  0  0  0  0  0
  -56.9632  -44.2910   97.1664 H   0  0  0  0  0  0  0  0  0  0  0  0
  -57.4694  -45.0954   95.6421 H   0  0  0  0  0  0  0  0  0  0  0  0
  -56.0681  -43.9717   95.6421 H   0  0  0  0  0  0  0  0  0  0  0  0
  -56.3867  -41.6750   95.8005 H   0  0  0  0  0  0  0  0  0  0  0  0
  -57.3141  -41.8247   97.3407 H   0  0  0  0  0  0  0  0  0  0  0  0
  -57.8531  -39.7100   96.2584 H   0  0  0  0  0  0  0  0  0  0  0  0
  -58.2837  -40.5805   94.7357 H   0  0  0  0  0  0  0  0  0  0  0  0
  -60.3952  -42.2165   94.9419 H   0  0  0  0  0  0  0  0  0  0  0  0
  -61.1342  -42.2674   96.5902 H   0  0  0  0  0  0  0  0  0  0  0  0
  -59.1088  -43.2253   97.5176 H   0  0  0  0  0  0  0  0  0  0  0  0
  -59.6574  -44.2126   96.1118 H   0  0  0  0  0  0  0  0  0  0  0  0
  -67.0416  -33.6931   95.1766 H   0  0  0  0  0  0  0  0  0  0  0  0
  -60.0758  -36.6644   97.6689 H   0  0  0  0  0  0  0  0  0  0  0  0
  -58.0816  -43.0200   94.7629 H   0  0  0  0  0  0  0  0  0  0  0  0
  -66.4921  -38.1246   99.5708 H   0  0  0  0  0  0  0  0  0  0  0  0
  1  2  2  0
  1 31  1  0
  2 28  1  0
  2 35  1  0
  3  4  2  0
  3 33  1  0
  3 35  1  0
  4  5  1  0
  5  6  1  0
  5 14  2  0
 32  6  1  0
  7  8  1  0
  7 32  1  0
  8  9  1  0
  9 10  1  0
  9 12  1  0
 10 11  1  0
 11 36  1  0
 11 37  2  0
 12 13  1  0
 13 32  1  0
 14 15  1  0
 15 16  1  0
 15 33  2  0
 16 17  2  0
 16 27  1  0
 17 18  1  0
 18 19  2  0
 18 38  1  0
 19 26  1  0
 29 20  1  0
 21 22  1  0
 21 29  1  0
 22 30  1  0
 23 24  1  0
 23 30  1  0
 24 29  1  0
 25 30  1  0
 25 31  2  0
 25 34  1  0
 26 27  2  0
 26 39  1  0
 28 34  2  0
  1 40  1  0
  4 41  1  0
  6 42  1  0
  6 43  1  0
  7 44  1  0
  7 45  1  0
  8 46  1  0
  8 47  1  0
  9 48  1  6
 10 49  1  0
 10 50  1  0
 12 51  1  0
 12 52  1  0
 13 53  1  0
 13 54  1  0
 14 55  1  0
 17 56  1  0
 19 57  1  0
 20 58  1  0
 20 59  1  0
 20 60  1  0
 21 61  1  0
 21 62  1  0
 22 63  1  0
 22 64  1  0
 23 65  1  0
 23 66  1  0
 24 67  1  0
 24 68  1  0
 27 69  1  0
 28 70  1  0
 29 71  1  6
 32 72  1  1
M  CHG  3  29   1  32   1  36  -1
M  END
>  <filename_input>  (10) 
7LCU_XTA_docked.sdf

>  <pdb_id>  (10) 
7LCU_XTA

>  <pose_rank>  (10) 
9

>  <num_atoms_heavy>  (10) 
39

>  <num_torsions>  (10) 
7

>  <pose>  (10) 
[-63.82612824296876, -36.329124071081424, 97.70578862027561, -0.3925680982222052, 1.64382506174655, -2.6615718161439372, -0.1523252753194841, -2.5772847464354802, -0.4306974896281834, -3.267699786863577, -0.5249856146767784, -0.8302041761794012, -0.13208838997117175]

>  <energy>  (10) 
-754.1969001267194

>  <inter_energy>  (10) 
-756.6189438734822

>  <intra_energy>  (10) 
8.531186658542712

>  <rmsd>  (10) 
9.41225

>  <sdf_rank>  (10) 
0

$$$$

     RDKit          3D

 72 76  0  0  0  0  0  0  0  0999 V2000
  -65.7709  -38.4814  100.1893 C   0  0  0  0  0  0  0  0  0  0  0  0
  -66.1605  -38.3466   98.8725 C   0  0  0  0  0  0  0  0  0  0  0  0
  -65.3226  -36.5531   97.4772 C   0  0  0  0  0  0  0  0  0  0  0  0
  -64.0385  -36.8728   97.8822 C   0  0  0  0  0  0  0  0  0  0  0  0
  -62.9846  -36.3762   97.1300 C   0  0  0  0  0  0  0  0  0  0  0  0
  -61.5575  -36.6776   97.5160 C   0  0  0  0  0  0  0  0  0  0  0  0
  -59.6289  -38.0479   97.0572 C   0  0  0  0  0  0  0  0  0  0  0  0
  -59.1150  -39.3968   96.5752 C   0  0  0  0  0  0  0  0  0  0  0  0
  -59.6224  -40.5374   97.4367 C   0  0  2  0  0  0  0  0  0  0  0  0
  -59.1587  -41.8906   96.8836 C   0  0  0  0  0  0  0  0  0  0  0  0
  -59.3198  -42.0790   95.4115 C   0  0  0  0  0  0  0  0  0  0  0  0
  -61.1372  -40.4500   97.5219 C   0  0  0  0  0  0  0  0  0  0  0  0
  -61.6143  -39.0658   97.9615 C   0  0  0  0  0  0  0  0  0  0  0  0
  -63.2675  -35.5956   96.0268 C   0  0  0  0  0  0  0  0  0  0  0  0
  -64.5894  -35.3225   95.7002 C   0  0  0  0  0  0  0  0  0  0  0  0
  -64.9476  -34.5265   94.5036 C   0  0  0  0  0  0  0  0  0  0  0  0
  -64.1344  -34.5247   93.3709 C   0  0  0  0  0  0  0  0  0  0  0  0
  -64.4871  -33.7505   92.2839 C   0  0  0  0  0  0  0  0  0  0  0  0
  -65.6212  -32.9694   92.2788 C   0  0  0  0  0  0  0  0  0  0  0  0
  -63.8525  -45.6140  101.8069 C   0  0  0  0  0  0  0  0  0  0  0  0
  -64.9491  -44.3060  100.1215 C   0  0  0  0  0  0  0  0  0  0  0  0
  -65.9725  -43.2204   99.8628 C   0  0  0  0  0  0  0  0  0  0  0  0
  -65.2186  -42.1354  101.9393 C   0  0  0  0  0  0  0  0  0  0  0  0
  -64.2259  -43.2642  102.1088 C   0  0  0  0  0  0  0  0  0  0  0  0
  -65.7871  -40.7448   99.9725 C   0  0  0  0  0  0  0  0  0  0  0  0
  -66.4070  -32.9789   93.4091 C   0  0  0  0  0  0  0  0  0  0  0  0
  -66.0873  -33.7285   94.5147 C   0  0  0  0  0  0  0  0  0  0  0  0
  -66.3206  -39.5096   98.1460 C   0  0  0  0  0  0  0  0  0  0  0  0
  -64.7545  -44.4917  101.5463 N   0  0  2  0  0  0  0  0  0  0  0  0
  -65.5846  -41.9674  100.5301 N   0  0  0  0  0  0  0  0  0  0  0  0
  -65.5719  -39.6774  100.7597 N   0  0  0  0  0  0  0  0  0  0  0  0
  -61.0936  -38.0031   97.0804 N   0  0  1  0  0  0  0  0  0  0  0  0
  -65.6170  -35.8122   96.4168 N   0  0  0  0  0  0  0  0  0  0  0  0
  -66.1557  -40.7230   98.6830 N   0  0  0  0  0  0  0  0  0  0  0  0
  -66.2960  -37.0999   98.2603 O   0  0  0  0  0  0  0  0  0  0  0  0
  -60.3995  -42.0768   94.8567 O   0  0  0  0  0  0  0  0  0  0  0  0
  -58.1807  -42.2527   94.7928 O   0  0  0  0  0  0  0  0  0  0  0  0
  -63.4683  -33.7540   90.8718 Cl  0  0  0  0  0  0  0  0  0  0  0  0
  -67.8348  -31.9911   93.4491 Cl  0  0  0  0  0  0  0  0  0  0  0  0
  -65.6182  -37.5744  100.7926 H   0  0  0  0  0  0  0  0  0  0  0  0
  -63.8602  -37.4985   98.7692 H   0  0  0  0  0  0  0  0  0  0  0  0
  -60.9069  -35.9157   97.0621 H   0  0  0  0  0  0  0  0  0  0  0  0
  -61.5133  -36.6673   98.6151 H   0  0  0  0  0  0  0  0  0  0  0  0
  -59.2504  -37.8647   98.0737 H   0  0  0  0  0  0  0  0  0  0  0  0
  -59.2730  -37.2759   96.3591 H   0  0  0  0  0  0  0  0  0  0  0  0
  -59.4517  -39.5562   95.5402 H   0  0  0  0  0  0  0  0  0  0  0  0
  -58.0169  -39.3850   96.6383 H   0  0  0  0  0  0  0  0  0  0  0  0
  -59.2042  -40.4528   98.4506 H   0  0  0  0  0  0  0  0  0  0  0  0
  -58.0916  -42.0061   97.1241 H   0  0  0  0  0  0  0  0  0  0  0  0
  -59.8068  -42.6444   97.3545 H   0  0  0  0  0  0  0  0  0  0  0  0
  -61.5607  -40.6721   96.5313 H   0  0  0  0  0  0  0  0  0  0  0  0
  -61.4746  -41.1772   98.2751 H   0  0  0  0  0  0  0  0  0  0  0  0
  -62.7138  -39.0431   97.9358 H   0  0  0  0  0  0  0  0  0  0  0  0
  -61.2395  -38.8815   98.9791 H   0  0  0  0  0  0  0  0  0  0  0  0
  -62.4507  -35.1924   95.4101 H   0  0  0  0  0  0  0  0  0  0  0  0
  -63.2196  -35.1350   93.3438 H   0  0  0  0  0  0  0  0  0  0  0  0
  -65.8896  -32.3599   91.4033 H   0  0  0  0  0  0  0  0  0  0  0  0
  -63.7421  -45.7512  102.8927 H   0  0  0  0  0  0  0  0  0  0  0  0
  -64.2686  -46.5299  101.3619 H   0  0  0  0  0  0  0  0  0  0  0  0
  -62.8685  -45.4045  101.3619 H   0  0  0  0  0  0  0  0  0  0  0  0
  -65.3019  -45.2489   99.6784 H   0  0  0  0  0  0  0  0  0  0  0  0
  -63.9924  -44.0082   99.6677 H   0  0  0  0  0  0  0  0  0  0  0  0
  -66.0457  -43.0444   98.7795 H   0  0  0  0  0  0  0  0  0  0  0  0
  -66.9431  -43.5478  100.2638 H   0  0  0  0  0  0  0  0  0  0  0  0
  -66.1239  -42.3616  102.5219 H   0  0  0  0  0  0  0  0  0  0  0  0
  -64.7551  -41.2035  102.2954 H   0  0  0  0  0  0  0  0  0  0  0  0
  -63.2894  -43.0035  101.5940 H   0  0  0  0  0  0  0  0  0  0  0  0
  -64.0380  -43.4157  103.1820 H   0  0  0  0  0  0  0  0  0  0  0  0
  -66.7306  -33.6980   95.4065 H   0  0  0  0  0  0  0  0  0  0  0  0
  -66.5947  -39.4350   97.0833 H   0  0  0  0  0  0  0  0  0  0  0  0
  -65.6571  -44.7131  101.9903 H   0  0  0  0  0  0  0  0  0  0  0  0
  -61.4524  -38.1664   96.1288 H   0  0  0  0  0  0  0  0  0  0  0  0
  1  2  2  0
  1 31  1  0
  2 28  1  0
  2 35  1  0
  3  4  2  0
  3 33  1  0
  3 35  1  0
  4  5  1  0
  5  6  1  0
  5 14  2  0
 32  6  1  0
  7  8  1  0
  7 32  1  0
  8  9  1  0
  9 10  1  0
  9 12  1  0
 10 11  1  0
 11 36  1  0
 11 37  2  0
 12 13  1  0
 13 32  1  0
 14 15  1  0
 15 16  1  0
 15 33  2  0
 16 17  2  0
 16 27  1  0
 17 18  1  0
 18 19  2  0
 18 38  1  0
 19 26  1  0
 29 20  1  0
 21 22  1  0
 21 29  1  0
 22 30  1  0
 23 24  1  0
 23 30  1  0
 24 29  1  0
 25 30  1  0
 25 31  2  0
 25 34  1  0
 26 27  2  0
 26 39  1  0
 28 34  2  0
  1 40  1  0
  4 41  1  0
  6 42  1  0
  6 43  1  0
  7 44  1  0
  7 45  1  0
  8 46  1  0
  8 47  1  0
  9 48  1  1
 10 49  1  0
 10 50  1  0
 12 51  1  0
 12 52  1  0
 13 53  1  0
 13 54  1  0
 14 55  1  0
 17 56  1  0
 19 57  1  0
 20 58  1  0
 20 59  1  0
 20 60  1  0
 21 61  1  0
 21 62  1  0
 22 63  1  0
 22 64  1  0
 23 65  1  0
 23 66  1  0
 24 67  1  0
 24 68  1  0
 27 69  1  0
 28 70  1  0
 29 71  1  1
 32 72  1  6
M  CHG  3  29   1  32   1  36  -1
M  END
>  <filename_input>  (11) 
7LCU_XTA_docked.sdf

>  <pdb_id>  (11) 
7LCU_XTA

>  <pose_rank>  (11) 
10

>  <num_atoms_heavy>  (11) 
39

>  <num_torsions>  (11) 
7

>  <pose>  (11) 
[-65.32262144914039, -36.553072268883355, 97.47718870170768, -0.8913715888223835, 2.834732495987529, -5.4183010252214485, -3.0749910366182776, -0.4141348285172704, -0.1825415127923313, 2.513831535535862, -0.14361726747404105, -3.373211067331464, -3.7624024294846836]

>  <energy>  (11) 
-783.3903086121969

>  <inter_energy>  (11) 
-802.7779422935196

>  <intra_energy>  (11) 
24.35801859039533

>  <rmsd>  (11) 
5.73956

>  <sdf_rank>  (11) 
0

$$$$

     RDKit          3D

 72 76  0  0  0  0  0  0  0  0999 V2000
  -65.3984  -39.2288  100.1309 C   0  0  0  0  0  0  0  0  0  0  0  0
  -65.0344  -38.5016   99.0161 C   0  0  0  0  0  0  0  0  0  0  0  0
  -66.2459  -36.7564   97.8533 C   0  0  0  0  0  0  0  0  0  0  0  0
  -66.6715  -36.0851   98.9862 C   0  0  0  0  0  0  0  0  0  0  0  0
  -66.9585  -34.7340   98.8633 C   0  0  0  0  0  0  0  0  0  0  0  0
  -67.4345  -33.9393  100.0542 C   0  0  0  0  0  0  0  0  0  0  0  0
  -69.3215  -32.8981  101.1327 C   0  0  0  0  0  0  0  0  0  0  0  0
  -70.8201  -32.9444  101.3932 C   0  0  0  0  0  0  0  0  0  0  0  0
  -71.6213  -32.8822  100.1068 C   0  0  2  0  0  0  0  0  0  0  0  0
  -73.1230  -33.0128  100.3892 C   0  0  0  0  0  0  0  0  0  0  0  0
  -73.7519  -34.3004   99.9708 C   0  0  0  0  0  0  0  0  0  0  0  0
  -71.1253  -33.9698   99.1683 C   0  0  0  0  0  0  0  0  0  0  0  0
  -69.6102  -33.9196   98.9719 C   0  0  0  0  0  0  0  0  0  0  0  0
  -66.8069  -34.1336   97.6291 C   0  0  0  0  0  0  0  0  0  0  0  0
  -66.3794  -34.8903   96.5459 C   0  0  0  0  0  0  0  0  0  0  0  0
  -66.1601  -34.2858   95.2116 C   0  0  0  0  0  0  0  0  0  0  0  0
  -65.2021  -34.7988   94.3380 C   0  0  0  0  0  0  0  0  0  0  0  0
  -65.0079  -34.1935   93.1127 C   0  0  0  0  0  0  0  0  0  0  0  0
  -65.7298  -33.0886   92.7197 C   0  0  0  0  0  0  0  0  0  0  0  0
  -59.8084  -39.5139  105.2142 C   0  0  0  0  0  0  0  0  0  0  0  0
  -60.2323  -38.9243  102.9280 C   0  0  0  0  0  0  0  0  0  0  0  0
  -60.8901  -39.3588  101.6353 C   0  0  0  0  0  0  0  0  0  0  0  0
  -62.6941  -40.3473  102.9866 C   0  0  0  0  0  0  0  0  0  0  0  0
  -61.9624  -39.8690  104.2212 C   0  0  0  0  0  0  0  0  0  0  0  0
  -63.2480  -39.1923  100.8690 C   0  0  0  0  0  0  0  0  0  0  0  0
  -66.6657  -32.5926   93.5991 C   0  0  0  0  0  0  0  0  0  0  0  0
  -66.8838  -33.1602   94.8306 C   0  0  0  0  0  0  0  0  0  0  0  0
  -63.7093  -38.1262   98.9203 C   0  0  0  0  0  0  0  0  0  0  0  0
  -60.5307  -39.8643  103.9910 N   0  0  2  0  0  0  0  0  0  0  0  0
  -62.3396  -39.5339  101.8201 N   0  0  0  0  0  0  0  0  0  0  0  0
  -64.5173  -39.5809  101.0769 N   0  0  0  0  0  0  0  0  0  0  0  0
  -68.8898  -33.9915  100.2575 N   0  0  1  0  0  0  0  0  0  0  0  0
  -66.0857  -36.1979   96.6606 N   0  0  0  0  0  0  0  0  0  0  0  0
  -62.7934  -38.4771   99.8291 N   0  0  0  0  0  0  0  0  0  0  0  0
  -65.9663  -38.0736   98.0698 O   0  0  0  0  0  0  0  0  0  0  0  0
  -74.2541  -34.4693   98.8786 O   0  0  0  0  0  0  0  0  0  0  0  0
  -73.7092  -35.2151  100.9047 O   0  0  0  0  0  0  0  0  0  0  0  0
  -63.8112  -34.8400   92.0257 Cl  0  0  0  0  0  0  0  0  0  0  0  0
  -67.5820  -31.1880   93.1481 Cl  0  0  0  0  0  0  0  0  0  0  0  0
  -66.4499  -39.5303  100.2471 H   0  0  0  0  0  0  0  0  0  0  0  0
  -66.7784  -36.6048   99.9498 H   0  0  0  0  0  0  0  0  0  0  0  0
  -66.9438  -34.3363  100.9550 H   0  0  0  0  0  0  0  0  0  0  0  0
  -67.1747  -32.8876   99.8630 H   0  0  0  0  0  0  0  0  0  0  0  0
  -69.0722  -31.9392  100.6547 H   0  0  0  0  0  0  0  0  0  0  0  0
  -68.8023  -33.0047  102.0965 H   0  0  0  0  0  0  0  0  0  0  0  0
  -71.0610  -33.8812  101.9170 H   0  0  0  0  0  0  0  0  0  0  0  0
  -71.0868  -32.0686  102.0030 H   0  0  0  0  0  0  0  0  0  0  0  0
  -71.4765  -31.9041   99.6249 H   0  0  0  0  0  0  0  0  0  0  0  0
  -73.2740  -32.8997  101.4729 H   0  0  0  0  0  0  0  0  0  0  0  0
  -73.6100  -32.2321   99.7864 H   0  0  0  0  0  0  0  0  0  0  0  0
  -71.3952  -34.9499   99.5886 H   0  0  0  0  0  0  0  0  0  0  0  0
  -71.5974  -33.8095   98.1878 H   0  0  0  0  0  0  0  0  0  0  0  0
  -69.3039  -34.7691   98.3438 H   0  0  0  0  0  0  0  0  0  0  0  0
  -69.3586  -32.9627   98.4913 H   0  0  0  0  0  0  0  0  0  0  0  0
  -67.0235  -33.0624   97.5046 H   0  0  0  0  0  0  0  0  0  0  0  0
  -64.6061  -35.6784   94.6228 H   0  0  0  0  0  0  0  0  0  0  0  0
  -65.5647  -32.6194   91.7386 H   0  0  0  0  0  0  0  0  0  0  0  0
  -60.4075  -39.8045  106.0898 H   0  0  0  0  0  0  0  0  0  0  0  0
  -58.8453  -40.0449  105.2363 H   0  0  0  0  0  0  0  0  0  0  0  0
  -59.6294  -38.4288  105.2363 H   0  0  0  0  0  0  0  0  0  0  0  0
  -59.1431  -38.8771  102.7818 H   0  0  0  0  0  0  0  0  0  0  0  0
  -60.6206  -37.9343  103.2093 H   0  0  0  0  0  0  0  0  0  0  0  0
  -60.7145  -38.5926  100.8659 H   0  0  0  0  0  0  0  0  0  0  0  0
  -60.4555  -40.3202  101.3241 H   0  0  0  0  0  0  0  0  0  0  0  0
  -62.4230  -41.3952  102.7907 H   0  0  0  0  0  0  0  0  0  0  0  0
  -63.7762  -40.2565  103.1623 H   0  0  0  0  0  0  0  0  0  0  0  0
  -62.2933  -38.8489  104.4661 H   0  0  0  0  0  0  0  0  0  0  0  0
  -62.1873  -40.5500  105.0552 H   0  0  0  0  0  0  0  0  0  0  0  0
  -67.6286  -32.7260   95.5139 H   0  0  0  0  0  0  0  0  0  0  0  0
  -63.3945  -37.5142   98.0622 H   0  0  0  0  0  0  0  0  0  0  0  0
  -60.2239  -40.8071  103.7120 H   0  0  0  0  0  0  0  0  0  0  0  0
  -69.1142  -34.8918  100.7047 H   0  0  0  0  0  0  0  0  0  0  0  0
  1  2  2  0
  1 31  1  0
  2 28  1  0
  2 35  1  0
  3  4  2  0
  3 33  1  0
  3 35  1  0
  4  5  1  0
  5  6  1  0
  5 14  2  0
 32  6  1  0
  7  8  1  0
  7 32  1  0
  8  9  1  0
  9 10  1  0
  9 12  1  0
 10 11  1  0
 11 36  1  0
 11 37  2  0
 12 13  1  0
 13 32  1  0
 14 15  1  0
 15 16  1  0
 15 33  2  0
 16 17  2  0
 16 27  1  0
 17 18  1  0
 18 19  2  0
 18 38  1  0
 19 26  1  0
 29 20  1  0
 21 22  1  0
 21 29  1  0
 22 30  1  0
 23 24  1  0
 23 30  1  0
 24 29  1  0
 25 30  1  0
 25 31  2  0
 25 34  1  0
 26 27  2  0
 26 39  1  0
 28 34  2  0
  1 40  1  0
  4 41  1  0
  6 42  1  0
  6 43  1  0
  7 44  1  0
  7 45  1  0
  8 46  1  0
  8 47  1  0
  9 48  1  6
 10 49  1  0
 10 50  1  0
 12 51  1  0
 12 52  1  0
 13 53  1  0
 13 54  1  0
 14 55  1  0
 17 56  1  0
 19 57  1  0
 20 58  1  0
 20 59  1  0
 20 60  1  0
 21 61  1  0
 21 62  1  0
 22 63  1  0
 22 64  1  0
 23 65  1  0
 23 66  1  0
 24 67  1  0
 24 68  1  0
 27 69  1  0
 28 70  1  0
 29 71  1  6
 32 72  1  1
M  CHG  3  29   1  32   1  36  -1
M  END
>  <filename_input>  (12) 
7LCU_XTA_docked.sdf

>  <pdb_id>  (12) 
7LCU_XTA

>  <pose_rank>  (12) 
11

>  <num_atoms_heavy>  (12) 
39

>  <num_torsions>  (12) 
7

>  <pose>  (12) 
[-66.24592139681009, -36.75642237933807, 97.85331730975068, 0.05266716258021245, 2.527596894026582, -3.441575213500616, -0.9736541198953365, 2.94886398328016, 0.4737499299927077, 1.4195795264557352, -0.6341965747593068, 2.498355829799755, 2.8107376695940056]

>  <energy>  (12) 
-716.3055498007355

>  <inter_energy>  (12) 
-738.3728781656492

>  <intra_energy>  (12) 
24.4846500539493

>  <rmsd>  (12) 
9.74208

>  <sdf_rank>  (12) 
0

$$$$

     RDKit          3D

 72 76  0  0  0  0  0  0  0  0999 V2000
  -65.5842  -38.9331  100.4162 C   0  0  0  0  0  0  0  0  0  0  0  0
  -66.0967  -38.5582   99.1911 C   0  0  0  0  0  0  0  0  0  0  0  0
  -65.9579  -36.4770   97.9603 C   0  0  0  0  0  0  0  0  0  0  0  0
  -66.6933  -35.8514   98.9519 C   0  0  0  0  0  0  0  0  0  0  0  0
  -67.2523  -34.6173   98.6562 C   0  0  0  0  0  0  0  0  0  0  0  0
  -68.0727  -33.8801   99.6857 C   0  0  0  0  0  0  0  0  0  0  0  0
  -70.2299  -33.5233  100.6992 C   0  0  0  0  0  0  0  0  0  0  0  0
  -71.6333  -34.0675  100.9237 C   0  0  0  0  0  0  0  0  0  0  0  0
  -72.3713  -34.2882   99.6171 C   0  0  2  0  0  0  0  0  0  0  0  0
  -73.7500  -34.9126   99.8648 C   0  0  0  0  0  0  0  0  0  0  0  0
  -74.5636  -34.2803  100.9448 C   0  0  0  0  0  0  0  0  0  0  0  0
  -71.5126  -35.1541   98.7102 C   0  0  0  0  0  0  0  0  0  0  0  0
  -70.0969  -34.6002   98.5502 C   0  0  0  0  0  0  0  0  0  0  0  0
  -67.0492  -34.0813   97.4000 C   0  0  0  0  0  0  0  0  0  0  0  0
  -66.3006  -34.7859   96.4663 C   0  0  0  0  0  0  0  0  0  0  0  0
  -66.0178  -34.2365   95.1201 C   0  0  0  0  0  0  0  0  0  0  0  0
  -64.9159  -34.6694   94.3834 C   0  0  0  0  0  0  0  0  0  0  0  0
  -64.6695  -34.1162   93.1430 C   0  0  0  0  0  0  0  0  0  0  0  0
  -65.4774  -33.1404   92.6032 C   0  0  0  0  0  0  0  0  0  0  0  0
  -69.2559  -44.8998  103.2601 C   0  0  0  0  0  0  0  0  0  0  0  0
  -69.4310  -43.2403  101.5368 C   0  0  0  0  0  0  0  0  0  0  0  0
  -69.3186  -41.7643  101.2186 C   0  0  0  0  0  0  0  0  0  0  0  0
  -67.4624  -41.6466  102.8304 C   0  0  0  0  0  0  0  0  0  0  0  0
  -67.6509  -43.1270  103.0783 C   0  0  0  0  0  0  0  0  0  0  0  0
  -67.3367  -40.3481  100.7272 C   0  0  0  0  0  0  0  0  0  0  0  0
  -66.5559  -32.7210   93.3491 C   0  0  0  0  0  0  0  0  0  0  0  0
  -66.8313  -33.2397   94.5907 C   0  0  0  0  0  0  0  0  0  0  0  0
  -67.2650  -39.1733   98.7879 C   0  0  0  0  0  0  0  0  0  0  0  0
  -69.0435  -43.4949  102.9107 N   0  0  2  0  0  0  0  0  0  0  0  0
  -67.9624  -41.2701  101.5052 N   0  0  0  0  0  0  0  0  0  0  0  0
  -66.1886  -39.8355  101.2009 N   0  0  0  0  0  0  0  0  0  0  0  0
  -69.4316  -34.4158   99.8541 N   0  0  1  0  0  0  0  0  0  0  0  0
  -65.7436  -35.9768   96.7504 N   0  0  0  0  0  0  0  0  0  0  0  0
  -67.9126  -40.0605   99.5505 N   0  0  0  0  0  0  0  0  0  0  0  0
  -65.4281  -37.6737   98.3438 O   0  0  0  0  0  0  0  0  0  0  0  0
  -74.8411  -33.0986  100.9608 O   0  0  0  0  0  0  0  0  0  0  0  0
  -74.9344  -35.1304  101.8670 O   0  0  0  0  0  0  0  0  0  0  0  0
  -63.2929  -34.6624   92.2273 Cl  0  0  0  0  0  0  0  0  0  0  0  0
  -67.5868  -31.4774   92.7115 Cl  0  0  0  0  0  0  0  0  0  0  0  0
  -64.6456  -38.4747  100.7610 H   0  0  0  0  0  0  0  0  0  0  0  0
  -66.8294  -36.3166   99.9394 H   0  0  0  0  0  0  0  0  0  0  0  0
  -67.5528  -33.9422  100.6531 H   0  0  0  0  0  0  0  0  0  0  0  0
  -68.1777  -32.8443   99.3308 H   0  0  0  0  0  0  0  0  0  0  0  0
  -70.3025  -32.5403  100.2109 H   0  0  0  0  0  0  0  0  0  0  0  0
  -69.7331  -33.4417  101.6772 H   0  0  0  0  0  0  0  0  0  0  0  0
  -71.5614  -35.0265  101.4576 H   0  0  0  0  0  0  0  0  0  0  0  0
  -72.1956  -33.3269  101.5113 H   0  0  0  0  0  0  0  0  0  0  0  0
  -72.5487  -33.3221   99.1219 H   0  0  0  0  0  0  0  0  0  0  0  0
  -74.3233  -34.8479   98.9282 H   0  0  0  0  0  0  0  0  0  0  0  0
  -73.5564  -35.9424  100.1997 H   0  0  0  0  0  0  0  0  0  0  0  0
  -71.4506  -36.1645   99.1407 H   0  0  0  0  0  0  0  0  0  0  0  0
  -71.9825  -35.1695   97.7157 H   0  0  0  0  0  0  0  0  0  0  0  0
  -69.5056  -35.3029   97.9447 H   0  0  0  0  0  0  0  0  0  0  0  0
  -70.1666  -33.6183   98.0592 H   0  0  0  0  0  0  0  0  0  0  0  0
  -67.4777  -33.1021   97.1404 H   0  0  0  0  0  0  0  0  0  0  0  0
  -64.2487  -35.4452   94.7873 H   0  0  0  0  0  0  0  0  0  0  0  0
  -65.2687  -32.7115   91.6121 H   0  0  0  0  0  0  0  0  0  0  0  0
  -69.2721  -45.0070  104.3547 H   0  0  0  0  0  0  0  0  0  0  0  0
  -70.2157  -45.2400  102.8441 H   0  0  0  0  0  0  0  0  0  0  0  0
  -68.4396  -45.5086  102.8441 H   0  0  0  0  0  0  0  0  0  0  0  0
  -70.4716  -43.5644  101.3882 H   0  0  0  0  0  0  0  0  0  0  0  0
  -68.7602  -43.8002  100.8685 H   0  0  0  0  0  0  0  0  0  0  0  0
  -69.5422  -41.6069  100.1531 H   0  0  0  0  0  0  0  0  0  0  0  0
  -70.0348  -41.2127  101.8453 H   0  0  0  0  0  0  0  0  0  0  0  0
  -68.0119  -41.0804  103.5968 H   0  0  0  0  0  0  0  0  0  0  0  0
  -66.3879  -41.4163  102.8789 H   0  0  0  0  0  0  0  0  0  0  0  0
  -67.0374  -43.6951  102.3635 H   0  0  0  0  0  0  0  0  0  0  0  0
  -67.3426  -43.3581  104.1087 H   0  0  0  0  0  0  0  0  0  0  0  0
  -67.6928  -32.8679   95.1650 H   0  0  0  0  0  0  0  0  0  0  0  0
  -67.6796  -38.9236   97.8001 H   0  0  0  0  0  0  0  0  0  0  0  0
  -69.6275  -42.9290  103.5428 H   0  0  0  0  0  0  0  0  0  0  0  0
  -69.3543  -35.3355  100.3113 H   0  0  0  0  0  0  0  0  0  0  0  0
  1  2  2  0
  1 31  1  0
  2 28  1  0
  2 35  1  0
  3  4  2  0
  3 33  1  0
  3 35  1  0
  4  5  1  0
  5  6  1  0
  5 14  2  0
 32  6  1  0
  7  8  1  0
  7 32  1  0
  8  9  1  0
  9 10  1  0
  9 12  1  0
 10 11  1  0
 11 36  1  0
 11 37  2  0
 12 13  1  0
 13 32  1  0
 14 15  1  0
 15 16  1  0
 15 33  2  0
 16 17  2  0
 16 27  1  0
 17 18  1  0
 18 19  2  0
 18 38  1  0
 19 26  1  0
 29 20  1  0
 21 22  1  0
 21 29  1  0
 22 30  1  0
 23 24  1  0
 23 30  1  0
 24 29  1  0
 25 30  1  0
 25 31  2  0
 25 34  1  0
 26 27  2  0
 26 39  1  0
 28 34  2  0
  1 40  1  0
  4 41  1  0
  6 42  1  0
  6 43  1  0
  7 44  1  0
  7 45  1  0
  8 46  1  0
  8 47  1  0
  9 48  1  6
 10 49  1  0
 10 50  1  0
 12 51  1  0
 12 52  1  0
 13 53  1  0
 13 54  1  0
 14 55  1  0
 17 56  1  0
 19 57  1  0
 20 58  1  0
 20 59  1  0
 20 60  1  0
 21 61  1  0
 21 62  1  0
 22 63  1  0
 22 64  1  0
 23 65  1  0
 23 66  1  0
 24 67  1  0
 24 68  1  0
 27 69  1  0
 28 70  1  0
 29 71  1  1
 32 72  1  1
M  CHG  3  29   1  32   1  36  -1
M  END
>  <filename_input>  (13) 
7LCU_XTA_docked.sdf

>  <pdb_id>  (13) 
7LCU_XTA

>  <pose_rank>  (13) 
12

>  <num_atoms_heavy>  (13) 
39

>  <num_torsions>  (13) 
7

>  <pose>  (13) 
[-65.95794045020682, -36.47696963789046, 97.96033812377708, 0.10879200315272188, 2.2221604528213783, -3.3162981258218998, -0.8584650168950646, -3.1622634372574177, 0.32425076650449824, 4.134784308592249, 1.9256704324808005, -2.153060060754652, -1.2623939036094756]

>  <energy>  (13) 
-738.1303212465785

>  <inter_energy>  (13) 
-754.2055229747631

>  <intra_energy>  (13) 
16.86922740659382

>  <rmsd>  (13) 
9.16338

>  <sdf_rank>  (13) 
0

$$$$

     RDKit          3D

 72 76  0  0  0  0  0  0  0  0999 V2000
  -67.0439  -39.1176   98.6505 C   0  0  0  0  0  0  0  0  0  0  0  0
  -67.2078  -37.7679   98.8858 C   0  0  0  0  0  0  0  0  0  0  0  0
  -66.0520  -36.3820   97.2706 C   0  0  0  0  0  0  0  0  0  0  0  0
  -64.9014  -36.8072   97.9113 C   0  0  0  0  0  0  0  0  0  0  0  0
  -63.6842  -36.4193   97.3717 C   0  0  0  0  0  0  0  0  0  0  0  0
  -62.3885  -36.8392   98.0208 C   0  0  0  0  0  0  0  0  0  0  0  0
  -60.2224  -37.5714   97.2595 C   0  0  0  0  0  0  0  0  0  0  0  0
  -59.4391  -38.6016   96.4587 C   0  0  0  0  0  0  0  0  0  0  0  0
  -59.6386  -40.0066   96.9940 C   0  0  2  0  0  0  0  0  0  0  0  0
  -58.9062  -41.0345   96.1227 C   0  0  0  0  0  0  0  0  0  0  0  0
  -59.6120  -41.4454   94.8731 C   0  0  0  0  0  0  0  0  0  0  0  0
  -61.1290  -40.2926   97.0746 C   0  0  0  0  0  0  0  0  0  0  0  0
  -61.8863  -39.2102   97.8439 C   0  0  0  0  0  0  0  0  0  0  0  0
  -63.6826  -35.6362   96.2344 C   0  0  0  0  0  0  0  0  0  0  0  0
  -64.8891  -35.2528   95.6637 C   0  0  0  0  0  0  0  0  0  0  0  0
  -64.9421  -34.4493   94.4205 C   0  0  0  0  0  0  0  0  0  0  0  0
  -63.9558  -34.5713   93.4425 C   0  0  0  0  0  0  0  0  0  0  0  0
  -64.0245  -33.7875   92.3083 C   0  0  0  0  0  0  0  0  0  0  0  0
  -65.0389  -32.8781   92.1075 C   0  0  0  0  0  0  0  0  0  0  0  0
  -68.8841  -43.2429  104.7139 C   0  0  0  0  0  0  0  0  0  0  0  0
  -68.4310  -40.9814  104.0549 C   0  0  0  0  0  0  0  0  0  0  0  0
  -67.4914  -40.0770  103.2856 C   0  0  0  0  0  0  0  0  0  0  0  0
  -67.2231  -41.8938  101.6472 C   0  0  0  0  0  0  0  0  0  0  0  0
  -68.1754  -42.7199  102.4832 C   0  0  0  0  0  0  0  0  0  0  0  0
  -67.3550  -39.5508  100.8609 C   0  0  0  0  0  0  0  0  0  0  0  0
  -65.9990  -32.7671   93.0879 C   0  0  0  0  0  0  0  0  0  0  0  0
  -65.9627  -33.5221   94.2346 C   0  0  0  0  0  0  0  0  0  0  0  0
  -67.4783  -37.3886  100.1854 C   0  0  0  0  0  0  0  0  0  0  0  0
  -68.0516  -42.3706  103.8851 N   0  0  2  0  0  0  0  0  0  0  0  0
  -67.4424  -40.4613  101.8659 N   0  0  0  0  0  0  0  0  0  0  0  0
  -67.1201  -40.0307   99.6281 N   0  0  0  0  0  0  0  0  0  0  0  0
  -61.6571  -37.8704   97.2701 N   0  0  1  0  0  0  0  0  0  0  0  0
  -66.0733  -35.6368   96.1732 N   0  0  0  0  0  0  0  0  0  0  0  0
  -67.5389  -38.2645  101.1940 N   0  0  0  0  0  0  0  0  0  0  0  0
  -67.2008  -36.8265   97.8558 O   0  0  0  0  0  0  0  0  0  0  0  0
  -59.8466  -40.6793   93.9612 O   0  0  0  0  0  0  0  0  0  0  0  0
  -59.9531  -42.7081   94.8727 O   0  0  0  0  0  0  0  0  0  0  0  0
  -62.7907  -33.9458   91.0899 Cl  0  0  0  0  0  0  0  0  0  0  0  0
  -67.2833  -31.6167   92.8808 Cl  0  0  0  0  0  0  0  0  0  0  0  0
  -66.8434  -39.4562   97.6233 H   0  0  0  0  0  0  0  0  0  0  0  0
  -64.9505  -37.4305   98.8163 H   0  0  0  0  0  0  0  0  0  0  0  0
  -61.7431  -35.9532   98.1123 H   0  0  0  0  0  0  0  0  0  0  0  0
  -62.6453  -37.2749   98.9977 H   0  0  0  0  0  0  0  0  0  0  0  0
  -59.8513  -37.5674   98.2950 H   0  0  0  0  0  0  0  0  0  0  0  0
  -60.0803  -36.5887   96.7862 H   0  0  0  0  0  0  0  0  0  0  0  0
  -59.7756  -38.5689   95.4120 H   0  0  0  0  0  0  0  0  0  0  0  0
  -58.3702  -38.3549   96.5401 H   0  0  0  0  0  0  0  0  0  0  0  0
  -59.2067  -40.0857   98.0026 H   0  0  0  0  0  0  0  0  0  0  0  0
  -57.9354  -40.6039   95.8363 H   0  0  0  0  0  0  0  0  0  0  0  0
  -58.8279  -41.9447   96.7354 H   0  0  0  0  0  0  0  0  0  0  0  0
  -61.5340  -40.3499   96.0535 H   0  0  0  0  0  0  0  0  0  0  0  0
  -61.2609  -41.2428   97.6129 H   0  0  0  0  0  0  0  0  0  0  0  0
  -62.9627  -39.4341   97.8074 H   0  0  0  0  0  0  0  0  0  0  0  0
  -61.5190  -39.2063   98.8807 H   0  0  0  0  0  0  0  0  0  0  0  0
  -62.7312  -35.3180   95.7832 H   0  0  0  0  0  0  0  0  0  0  0  0
  -63.1300  -35.2861   93.5736 H   0  0  0  0  0  0  0  0  0  0  0  0
  -65.0806  -32.2627   91.1967 H   0  0  0  0  0  0  0  0  0  0  0  0
  -68.6871  -43.0365  105.7763 H   0  0  0  0  0  0  0  0  0  0  0  0
  -69.9452  -43.0540  104.4943 H   0  0  0  0  0  0  0  0  0  0  0  0
  -68.6457  -44.2941  104.4943 H   0  0  0  0  0  0  0  0  0  0  0  0
  -68.3887  -40.7226  105.1232 H   0  0  0  0  0  0  0  0  0  0  0  0
  -69.4524  -40.8422  103.6710 H   0  0  0  0  0  0  0  0  0  0  0  0
  -67.8441  -39.0382  103.3661 H   0  0  0  0  0  0  0  0  0  0  0  0
  -66.4819  -40.1724  103.7120 H   0  0  0  0  0  0  0  0  0  0  0  0
  -66.1889  -42.1462  101.9243 H   0  0  0  0  0  0  0  0  0  0  0  0
  -67.4023  -42.1185  100.5854 H   0  0  0  0  0  0  0  0  0  0  0  0
  -69.2070  -42.5294  102.1520 H   0  0  0  0  0  0  0  0  0  0  0  0
  -67.9284  -43.7845  102.3578 H   0  0  0  0  0  0  0  0  0  0  0  0
  -66.7384  -33.3941   95.0040 H   0  0  0  0  0  0  0  0  0  0  0  0
  -67.6509  -36.3236  100.3998 H   0  0  0  0  0  0  0  0  0  0  0  0
  -67.0753  -42.4995  104.1870 H   0  0  0  0  0  0  0  0  0  0  0  0
  -62.0107  -37.8674   96.3027 H   0  0  0  0  0  0  0  0  0  0  0  0
  1  2  2  0
  1 31  1  0
  2 28  1  0
  2 35  1  0
  3  4  2  0
  3 33  1  0
  3 35  1  0
  4  5  1  0
  5  6  1  0
  5 14  2  0
 32  6  1  0
  7  8  1  0
  7 32  1  0
  8  9  1  0
  9 10  1  0
  9 12  1  0
 10 11  1  0
 11 36  1  0
 11 37  2  0
 12 13  1  0
 13 32  1  0
 14 15  1  0
 15 16  1  0
 15 33  2  0
 16 17  2  0
 16 27  1  0
 17 18  1  0
 18 19  2  0
 18 38  1  0
 19 26  1  0
 29 20  1  0
 21 22  1  0
 21 29  1  0
 22 30  1  0
 23 24  1  0
 23 30  1  0
 24 29  1  0
 25 30  1  0
 25 31  2  0
 25 34  1  0
 26 27  2  0
 26 39  1  0
 28 34  2  0
  1 40  1  0
  4 41  1  0
  6 42  1  0
  6 43  1  0
  7 44  1  0
  7 45  1  0
  8 46  1  0
  8 47  1  0
  9 48  1  1
 10 49  1  0
 10 50  1  0
 12 51  1  0
 12 52  1  0
 13 53  1  0
 13 54  1  0
 14 55  1  0
 17 56  1  0
 19 57  1  0
 20 58  1  0
 20 59  1  0
 20 60  1  0
 21 61  1  0
 21 62  1  0
 22 63  1  0
 22 64  1  0
 23 65  1  0
 23 66  1  0
 24 67  1  0
 24 68  1  0
 27 69  1  0
 28 70  1  0
 29 71  1  1
 32 72  1  6
M  CHG  3  29   1  32   1  36  -1
M  END
>  <filename_input>  (14) 
7LCU_XTA_docked.sdf

>  <pdb_id>  (14) 
7LCU_XTA

>  <pose_rank>  (14) 
13

>  <num_atoms_heavy>  (14) 
39

>  <num_torsions>  (14) 
7

>  <pose>  (14) 
[-66.05200769810321, -36.382033383849695, 97.2705548354227, 0.12770082951809492, 6.0440472430474514, -0.04978245508015129, 3.2445683126242018, 6.332911703307125, -0.5642889215361745, 1.9052007363827261, 2.079238449649673, 9.631790117648837, 5.727543548554939]

>  <energy>  (14) 
-777.0301242533635

>  <inter_energy>  (14) 
-792.7520976630592

>  <intra_energy>  (14) 
17.482025687732474

>  <rmsd>  (14) 
4.50163

>  <sdf_rank>  (14) 
0

$$$$

     RDKit          3D

 72 76  0  0  0  0  0  0  0  0999 V2000
  -68.4437  -36.5550   99.8267 C   0  0  0  0  0  0  0  0  0  0  0  0
  -68.5769  -37.3417   98.7009 C   0  0  0  0  0  0  0  0  0  0  0  0
  -66.3312  -38.1895   98.3788 C   0  0  0  0  0  0  0  0  0  0  0  0
  -65.9403  -36.9933   97.8030 C   0  0  0  0  0  0  0  0  0  0  0  0
  -64.5824  -36.7157   97.7561 C   0  0  0  0  0  0  0  0  0  0  0  0
  -64.0822  -35.4342   97.1365 C   0  0  0  0  0  0  0  0  0  0  0  0
  -65.5655  -34.0929   95.7916 C   0  0  0  0  0  0  0  0  0  0  0  0
  -66.1449  -33.8398   94.4074 C   0  0  0  0  0  0  0  0  0  0  0  0
  -65.0651  -33.5250   93.3898 C   0  0  2  0  0  0  0  0  0  0  0  0
  -65.6649  -33.3549   91.9886 C   0  0  0  0  0  0  0  0  0  0  0  0
  -64.6971  -33.4352   90.8548 C   0  0  0  0  0  0  0  0  0  0  0  0
  -64.0203  -34.6279   93.4279 C   0  0  0  0  0  0  0  0  0  0  0  0
  -63.4998  -34.8849   94.8421 C   0  0  0  0  0  0  0  0  0  0  0  0
  -63.6987  -37.6380   98.2806 C   0  0  0  0  0  0  0  0  0  0  0  0
  -64.1841  -38.8156   98.8339 C   0  0  0  0  0  0  0  0  0  0  0  0
  -63.2821  -39.8175   99.4476 C   0  0  0  0  0  0  0  0  0  0  0  0
  -63.7897  -40.9606  100.0640 C   0  0  0  0  0  0  0  0  0  0  0  0
  -62.9199  -41.8596  100.6477 C   0  0  0  0  0  0  0  0  0  0  0  0
  -61.5566  -41.6648  100.6470 C   0  0  0  0  0  0  0  0  0  0  0  0
  -74.6975  -32.5186  101.1563 C   0  0  0  0  0  0  0  0  0  0  0  0
  -73.6538  -33.8490   99.4549 C   0  0  0  0  0  0  0  0  0  0  0  0
  -72.3672  -34.1162   98.7026 C   0  0  0  0  0  0  0  0  0  0  0  0
  -71.1507  -33.6458  100.7898 C   0  0  0  0  0  0  0  0  0  0  0  0
  -72.4876  -33.4015  101.4543 C   0  0  0  0  0  0  0  0  0  0  0  0
  -70.3744  -35.4709   99.3095 C   0  0  0  0  0  0  0  0  0  0  0  0
  -61.0755  -40.5267  100.0401 C   0  0  0  0  0  0  0  0  0  0  0  0
  -61.9073  -39.6033   99.4553 C   0  0  0  0  0  0  0  0  0  0  0  0
  -69.6971  -37.1327   97.9216 C   0  0  0  0  0  0  0  0  0  0  0  0
  -73.4374  -32.8659  100.4985 N   0  0  2  0  0  0  0  0  0  0  0  0
  -71.2973  -34.5253   99.6266 N   0  0  0  0  0  0  0  0  0  0  0  0
  -69.3390  -35.6134  100.1539 N   0  0  0  0  0  0  0  0  0  0  0  0
  -64.5962  -35.1921   95.7803 N   0  0  1  0  0  0  0  0  0  0  0  0
  -65.5004  -39.0854   98.8957 N   0  0  0  0  0  0  0  0  0  0  0  0
  -70.6018  -36.1879   98.1988 N   0  0  0  0  0  0  0  0  0  0  0  0
  -67.6827  -38.3704   98.4017 O   0  0  0  0  0  0  0  0  0  0  0  0
  -63.4931  -33.4315   91.0090 O   0  0  0  0  0  0  0  0  0  0  0  0
  -65.2842  -33.5016   89.6880 O   0  0  0  0  0  0  0  0  0  0  0  0
  -63.5600  -43.2859  101.4142 Cl  0  0  0  0  0  0  0  0  0  0  0  0
  -59.3635  -40.2352  100.0363 Cl  0  0  0  0  0  0  0  0  0  0  0  0
  -67.5711  -36.7064  100.4791 H   0  0  0  0  0  0  0  0  0  0  0  0
  -66.6802  -36.2879   97.3970 H   0  0  0  0  0  0  0  0  0  0  0  0
  -64.3888  -34.5954   97.7787 H   0  0  0  0  0  0  0  0  0  0  0  0
  -62.9889  -35.5228   97.0542 H   0  0  0  0  0  0  0  0  0  0  0  0
  -65.0635  -33.1785   96.1406 H   0  0  0  0  0  0  0  0  0  0  0  0
  -66.3910  -34.3703   96.4636 H   0  0  0  0  0  0  0  0  0  0  0  0
  -66.6903  -34.7375   94.0808 H   0  0  0  0  0  0  0  0  0  0  0  0
  -66.8150  -32.9699   94.4727 H   0  0  0  0  0  0  0  0  0  0  0  0
  -64.5824  -32.5695   93.6426 H   0  0  0  0  0  0  0  0  0  0  0  0
  -66.4186  -34.1433   91.8458 H   0  0  0  0  0  0  0  0  0  0  0  0
  -66.0750  -32.3346   91.9603 H   0  0  0  0  0  0  0  0  0  0  0  0
  -64.4700  -35.5549   93.0425 H   0  0  0  0  0  0  0  0  0  0  0  0
  -63.1693  -34.3070   92.8092 H   0  0  0  0  0  0  0  0  0  0  0  0
  -62.8038  -35.7363   94.8164 H   0  0  0  0  0  0  0  0  0  0  0  0
  -62.9947  -33.9727   95.1923 H   0  0  0  0  0  0  0  0  0  0  0  0
  -62.6166  -37.4411   98.2602 H   0  0  0  0  0  0  0  0  0  0  0  0
  -64.8741  -41.1444  100.0849 H   0  0  0  0  0  0  0  0  0  0  0  0
  -60.8768  -42.3923  101.1144 H   0  0  0  0  0  0  0  0  0  0  0  0
  -74.5637  -32.5554  102.2475 H   0  0  0  0  0  0  0  0  0  0  0  0
  -74.9993  -31.5037  100.8579 H   0  0  0  0  0  0  0  0  0  0  0  0
  -75.4766  -33.2354  100.8579 H   0  0  0  0  0  0  0  0  0  0  0  0
  -74.4116  -33.4710   98.7529 H   0  0  0  0  0  0  0  0  0  0  0  0
  -73.9976  -34.7869   99.9156 H   0  0  0  0  0  0  0  0  0  0  0  0
  -72.5376  -34.9189   97.9701 H   0  0  0  0  0  0  0  0  0  0  0  0
  -72.0583  -33.1918   98.1925 H   0  0  0  0  0  0  0  0  0  0  0  0
  -70.7300  -32.6834  100.4628 H   0  0  0  0  0  0  0  0  0  0  0  0
  -70.4814  -34.1313  101.5152 H   0  0  0  0  0  0  0  0  0  0  0  0
  -72.8724  -34.3513  101.8542 H   0  0  0  0  0  0  0  0  0  0  0  0
  -72.3533  -32.6748  102.2691 H   0  0  0  0  0  0  0  0  0  0  0  0
  -61.4877  -38.6970   98.9943 H   0  0  0  0  0  0  0  0  0  0  0  0
  -69.8516  -37.7687   97.0374 H   0  0  0  0  0  0  0  0  0  0  0  0
  -73.0587  -32.0024  100.0838 H   0  0  0  0  0  0  0  0  0  0  0  0
  -65.0640  -36.0527   95.4615 H   0  0  0  0  0  0  0  0  0  0  0  0
  1  2  2  0
  1 31  1  0
  2 28  1  0
  2 35  1  0
  3  4  2  0
  3 33  1  0
  3 35  1  0
  4  5  1  0
  5  6  1  0
  5 14  2  0
 32  6  1  0
  7  8  1  0
  7 32  1  0
  8  9  1  0
  9 10  1  0
  9 12  1  0
 10 11  1  0
 11 36  1  0
 11 37  2  0
 12 13  1  0
 13 32  1  0
 14 15  1  0
 15 16  1  0
 15 33  2  0
 16 17  2  0
 16 27  1  0
 17 18  1  0
 18 19  2  0
 18 38  1  0
 19 26  1  0
 29 20  1  0
 21 22  1  0
 21 29  1  0
 22 30  1  0
 23 24  1  0
 23 30  1  0
 24 29  1  0
 25 30  1  0
 25 31  2  0
 25 34  1  0
 26 27  2  0
 26 39  1  0
 28 34  2  0
  1 40  1  0
  4 41  1  0
  6 42  1  0
  6 43  1  0
  7 44  1  0
  7 45  1  0
  8 46  1  0
  8 47  1  0
  9 48  1  1
 10 49  1  0
 10 50  1  0
 12 51  1  0
 12 52  1  0
 13 53  1  0
 13 54  1  0
 14 55  1  0
 17 56  1  0
 19 57  1  0
 20 58  1  0
 20 59  1  0
 20 60  1  0
 21 61  1  0
 21 62  1  0
 22 63  1  0
 22 64  1  0
 23 65  1  0
 23 66  1  0
 24 67  1  0
 24 68  1  0
 27 69  1  0
 28 70  1  0
 29 71  1  6
 32 72  1  6
M  CHG  3  29   1  32   1  36  -1
M  END
>  <filename_input>  (15) 
7LCU_XTA_docked.sdf

>  <pdb_id>  (15) 
7LCU_XTA

>  <pose_rank>  (15) 
14

>  <num_atoms_heavy>  (15) 
39

>  <num_torsions>  (15) 
7

>  <pose>  (15) 
[-66.33120410635635, -38.1894772739093, 98.37884225635875, 3.1651228854426843, 1.0861191595223652, -1.0907373626216517, -0.5072486523762216, -2.734201910591879, -1.0814981577252902, 0.4710320455322567, 0.7663699875886543, -3.4979454375561394, -0.08023587492492355]

>  <energy>  (15) 
-668.4857130007126

>  <inter_energy>  (15) 
-712.5813322834512

>  <intra_energy>  (15) 
32.73527031466905

>  <rmsd>  (15) 
7.05746

>  <sdf_rank>  (15) 
0

$$$$

     RDKit          3D

 72 76  0  0  0  0  0  0  0  0999 V2000
  -64.6658  -37.9351   99.9227 C   0  0  0  0  0  0  0  0  0  0  0  0
  -65.7123  -38.8191   99.7568 C   0  0  0  0  0  0  0  0  0  0  0  0
  -67.7093  -37.4488   99.7728 C   0  0  0  0  0  0  0  0  0  0  0  0
  -66.9352  -36.5064   99.1186 C   0  0  0  0  0  0  0  0  0  0  0  0
  -67.5741  -35.3769   98.6295 C   0  0  0  0  0  0  0  0  0  0  0  0
  -66.7930  -34.3038   97.9120 C   0  0  0  0  0  0  0  0  0  0  0  0
  -66.5499  -33.5631   95.6317 C   0  0  0  0  0  0  0  0  0  0  0  0
  -66.1546  -33.9365   94.2103 C   0  0  0  0  0  0  0  0  0  0  0  0
  -64.7154  -34.4080   94.1276 C   0  0  2  0  0  0  0  0  0  0  0  0
  -64.3659  -34.8554   92.7029 C   0  0  0  0  0  0  0  0  0  0  0  0
  -63.7699  -33.8079   91.8222 C   0  0  0  0  0  0  0  0  0  0  0  0
  -64.5071  -35.5237   95.1383 C   0  0  0  0  0  0  0  0  0  0  0  0
  -64.9618  -35.1264   96.5426 C   0  0  0  0  0  0  0  0  0  0  0  0
  -68.9361  -35.2514   98.8188 C   0  0  0  0  0  0  0  0  0  0  0  0
  -69.6297  -36.2474   99.4936 C   0  0  0  0  0  0  0  0  0  0  0  0
  -71.0969  -36.1814   99.6857 C   0  0  0  0  0  0  0  0  0  0  0  0
  -71.9698  -36.2933   98.6041 C   0  0  0  0  0  0  0  0  0  0  0  0
  -73.3304  -36.2014   98.8182 C   0  0  0  0  0  0  0  0  0  0  0  0
  -73.8618  -35.9973  100.0721 C   0  0  0  0  0  0  0  0  0  0  0  0
  -58.6884  -39.8792   95.7203 C   0  0  0  0  0  0  0  0  0  0  0  0
  -60.7823  -40.7424   96.5107 C   0  0  0  0  0  0  0  0  0  0  0  0
  -61.6808  -40.9074   97.7182 C   0  0  0  0  0  0  0  0  0  0  0  0
  -60.9159  -38.6960   98.4811 C   0  0  0  0  0  0  0  0  0  0  0  0
  -60.0526  -38.6230   97.2411 C   0  0  0  0  0  0  0  0  0  0  0  0
  -63.2870  -39.3381   98.7824 C   0  0  0  0  0  0  0  0  0  0  0  0
  -72.9834  -35.8819  101.1258 C   0  0  0  0  0  0  0  0  0  0  0  0
  -71.6229  -35.9591  100.9545 C   0  0  0  0  0  0  0  0  0  0  0  0
  -65.4507  -39.9696   99.0401 C   0  0  0  0  0  0  0  0  0  0  0  0
  -59.6166  -39.9493   96.8492 N   0  0  2  0  0  0  0  0  0  0  0  0
  -62.0533  -39.5970   98.2748 N   0  0  0  0  0  0  0  0  0  0  0  0
  -63.4408  -38.1741   99.4356 N   0  0  0  0  0  0  0  0  0  0  0  0
  -66.3698  -34.6855   96.5566 N   0  0  1  0  0  0  0  0  0  0  0  0
  -69.0193  -37.3522   99.9584 N   0  0  0  0  0  0  0  0  0  0  0  0
  -64.2372  -40.2579   98.5579 N   0  0  0  0  0  0  0  0  0  0  0  0
  -67.0042  -38.5348  100.2011 O   0  0  0  0  0  0  0  0  0  0  0  0
  -64.4344  -32.9830   91.2292 O   0  0  0  0  0  0  0  0  0  0  0  0
  -62.4658  -33.8812   91.7545 O   0  0  0  0  0  0  0  0  0  0  0  0
  -74.4152  -36.3437   97.4637 Cl  0  0  0  0  0  0  0  0  0  0  0  0
  -73.6141  -35.6035  102.7198 Cl  0  0  0  0  0  0  0  0  0  0  0  0
  -64.8438  -37.0005  100.4748 H   0  0  0  0  0  0  0  0  0  0  0  0
  -65.8519  -36.6482   98.9912 H   0  0  0  0  0  0  0  0  0  0  0  0
  -67.4239  -33.4057   97.8386 H   0  0  0  0  0  0  0  0  0  0  0  0
  -65.8778  -34.1279   98.4964 H   0  0  0  0  0  0  0  0  0  0  0  0
  -65.9253  -32.7217   95.9661 H   0  0  0  0  0  0  0  0  0  0  0  0
  -67.6148  -33.2872   95.6303 H   0  0  0  0  0  0  0  0  0  0  0  0
  -66.8138  -34.7438   93.8586 H   0  0  0  0  0  0  0  0  0  0  0  0
  -66.2555  -33.0392   93.5821 H   0  0  0  0  0  0  0  0  0  0  0  0
  -64.0368  -33.5771   94.3710 H   0  0  0  0  0  0  0  0  0  0  0  0
  -63.6466  -35.6844   92.7761 H   0  0  0  0  0  0  0  0  0  0  0  0
  -65.3213  -35.1331   92.2336 H   0  0  0  0  0  0  0  0  0  0  0  0
  -65.0818  -36.4046   94.8163 H   0  0  0  0  0  0  0  0  0  0  0  0
  -63.4297  -35.7413   95.1823 H   0  0  0  0  0  0  0  0  0  0  0  0
  -64.8532  -35.9933   97.2109 H   0  0  0  0  0  0  0  0  0  0  0  0
  -64.3365  -34.2869   96.8805 H   0  0  0  0  0  0  0  0  0  0  0  0
  -69.4685  -34.3676   98.4373 H   0  0  0  0  0  0  0  0  0  0  0  0
  -71.5775  -36.4534   97.5890 H   0  0  0  0  0  0  0  0  0  0  0  0
  -74.9488  -35.9289  100.2262 H   0  0  0  0  0  0  0  0  0  0  0  0
  -57.6579  -39.8014   96.0971 H   0  0  0  0  0  0  0  0  0  0  0  0
  -58.7872  -40.7874   95.1075 H   0  0  0  0  0  0  0  0  0  0  0  0
  -58.9224  -38.9962   95.1075 H   0  0  0  0  0  0  0  0  0  0  0  0
  -60.4569  -41.7342   96.1635 H   0  0  0  0  0  0  0  0  0  0  0  0
  -61.3441  -40.2281   95.7170 H   0  0  0  0  0  0  0  0  0  0  0  0
  -62.5928  -41.4445   97.4186 H   0  0  0  0  0  0  0  0  0  0  0  0
  -61.1373  -41.4757   98.4874 H   0  0  0  0  0  0  0  0  0  0  0  0
  -60.3098  -39.0677   99.3205 H   0  0  0  0  0  0  0  0  0  0  0  0
  -61.3007  -37.6892   98.7011 H   0  0  0  0  0  0  0  0  0  0  0  0
  -60.6334  -38.1755   96.4210 H   0  0  0  0  0  0  0  0  0  0  0  0
  -59.1679  -38.0065   97.4583 H   0  0  0  0  0  0  0  0  0  0  0  0
  -70.9509  -35.8456  101.8180 H   0  0  0  0  0  0  0  0  0  0  0  0
  -66.2730  -40.6772   98.8584 H   0  0  0  0  0  0  0  0  0  0  0  0
  -59.1154  -40.3923   97.6325 H   0  0  0  0  0  0  0  0  0  0  0  0
  -66.9591  -35.4733   96.2518 H   0  0  0  0  0  0  0  0  0  0  0  0
  1  2  2  0
  1 31  1  0
  2 28  1  0
  2 35  1  0
  3  4  2  0
  3 33  1  0
  3 35  1  0
  4  5  1  0
  5  6  1  0
  5 14  2  0
 32  6  1  0
  7  8  1  0
  7 32  1  0
  8  9  1  0
  9 10  1  0
  9 12  1  0
 10 11  1  0
 11 36  1  0
 11 37  2  0
 12 13  1  0
 13 32  1  0
 14 15  1  0
 15 16  1  0
 15 33  2  0
 16 17  2  0
 16 27  1  0
 17 18  1  0
 18 19  2  0
 18 38  1  0
 19 26  1  0
 29 20  1  0
 21 22  1  0
 21 29  1  0
 22 30  1  0
 23 24  1  0
 23 30  1  0
 24 29  1  0
 25 30  1  0
 25 31  2  0
 25 34  1  0
 26 27  2  0
 26 39  1  0
 28 34  2  0
  1 40  1  0
  4 41  1  0
  6 42  1  0
  6 43  1  0
  7 44  1  0
  7 45  1  0
  8 46  1  0
  8 47  1  0
  9 48  1  1
 10 49  1  0
 10 50  1  0
 12 51  1  0
 12 52  1  0
 13 53  1  0
 13 54  1  0
 14 55  1  0
 17 56  1  0
 19 57  1  0
 20 58  1  0
 20 59  1  0
 20 60  1  0
 21 61  1  0
 21 62  1  0
 22 63  1  0
 22 64  1  0
 23 65  1  0
 23 66  1  0
 24 67  1  0
 24 68  1  0
 27 69  1  0
 28 70  1  0
 29 71  1  1
 32 72  1  6
M  CHG  3  29   1  32   1  36  -1
M  END
>  <filename_input>  (16) 
7LCU_XTA_docked.sdf

>  <pdb_id>  (16) 
7LCU_XTA

>  <pose_rank>  (16) 
15

>  <num_atoms_heavy>  (16) 
39

>  <num_torsions>  (16) 
7

>  <pose>  (16) 
[-67.70926291815758, -37.44882850110977, 99.77276202969904, -1.9183243208423535, -3.018666759628575, -3.182081862766618, -2.4076843706375723, -0.5399791363478603, -0.5635738093677742, 4.932106422469728, -0.47392115348385094, -3.035615278430691, -4.444367195642154]

>  <energy>  (16) 
-681.8849782170514

>  <inter_energy>  (16) 
-712.7093466737515

>  <intra_energy>  (16) 
32.32546598419716

>  <rmsd>  (16) 
9.43185

>  <sdf_rank>  (16) 
0

$$$$

     RDKit          3D

 72 76  0  0  0  0  0  0  0  0999 V2000
  -65.9761  -38.6284   98.9848 C   0  0  0  0  0  0  0  0  0  0  0  0
  -66.8826  -37.5895   98.9313 C   0  0  0  0  0  0  0  0  0  0  0  0
  -65.5065  -35.9841   97.7504 C   0  0  0  0  0  0  0  0  0  0  0  0
  -64.2581  -36.4371   98.1395 C   0  0  0  0  0  0  0  0  0  0  0  0
  -63.1923  -36.1982   97.2850 C   0  0  0  0  0  0  0  0  0  0  0  0
  -61.8011  -36.6567   97.6467 C   0  0  0  0  0  0  0  0  0  0  0  0
  -59.8642  -37.8113   96.7965 C   0  0  0  0  0  0  0  0  0  0  0  0
  -59.3423  -38.9626   95.9491 C   0  0  0  0  0  0  0  0  0  0  0  0
  -59.8203  -40.3071   96.4636 C   0  0  2  0  0  0  0  0  0  0  0  0
  -59.3498  -41.4435   95.5475 C   0  0  0  0  0  0  0  0  0  0  0  0
  -58.0255  -42.0433   95.8862 C   0  0  0  0  0  0  0  0  0  0  0  0
  -61.3343  -40.2724   96.5904 C   0  0  0  0  0  0  0  0  0  0  0  0
  -61.8206  -39.0747   97.4064 C   0  0  0  0  0  0  0  0  0  0  0  0
  -63.4288  -35.5266   96.1019 C   0  0  0  0  0  0  0  0  0  0  0  0
  -64.7164  -35.1040   95.7984 C   0  0  0  0  0  0  0  0  0  0  0  0
  -65.0307  -34.4178   94.5239 C   0  0  0  0  0  0  0  0  0  0  0  0
  -64.1737  -34.5082   93.4278 C   0  0  0  0  0  0  0  0  0  0  0  0
  -64.4867  -33.8341   92.2645 C   0  0  0  0  0  0  0  0  0  0  0  0
  -65.6232  -33.0653   92.1474 C   0  0  0  0  0  0  0  0  0  0  0  0
  -69.4438  -45.3473   99.0278 C   0  0  0  0  0  0  0  0  0  0  0  0
  -69.8919  -43.0069   99.3030 C   0  0  0  0  0  0  0  0  0  0  0  0
  -69.4425  -41.7276   99.9769 C   0  0  0  0  0  0  0  0  0  0  0  0
  -67.1211  -42.4910   99.6841 C   0  0  0  0  0  0  0  0  0  0  0  0
  -67.6677  -43.7357   99.0204 C   0  0  0  0  0  0  0  0  0  0  0  0
  -67.6685  -40.0985   99.3656 C   0  0  0  0  0  0  0  0  0  0  0  0
  -66.4527  -32.9826   93.2430 C   0  0  0  0  0  0  0  0  0  0  0  0
  -66.1735  -33.6308   94.4213 C   0  0  0  0  0  0  0  0  0  0  0  0
  -68.2154  -37.9146   99.0857 C   0  0  0  0  0  0  0  0  0  0  0  0
  -68.9595  -44.0821   99.5807 N   0  0  2  0  0  0  0  0  0  0  0  0
  -68.0703  -41.3797   99.5746 N   0  0  0  0  0  0  0  0  0  0  0  0
  -66.3509  -39.8974   99.1959 N   0  0  0  0  0  0  0  0  0  0  0  0
  -61.3287  -37.7994   96.8511 N   0  0  1  0  0  0  0  0  0  0  0  0
  -65.7574  -35.3446   96.6155 N   0  0  0  0  0  0  0  0  0  0  0  0
  -68.6297  -39.1638   99.3221 N   0  0  0  0  0  0  0  0  0  0  0  0
  -66.4980  -36.2804   98.6388 O   0  0  0  0  0  0  0  0  0  0  0  0
  -56.9710  -41.4719   95.6987 O   0  0  0  0  0  0  0  0  0  0  0  0
  -58.1255  -43.2440   96.3951 O   0  0  0  0  0  0  0  0  0  0  0  0
  -63.4133  -33.9524   90.8987 Cl  0  0  0  0  0  0  0  0  0  0  0  0
  -67.8853  -32.0063   93.1413 Cl  0  0  0  0  0  0  0  0  0  0  0  0
  -64.9072  -38.4069   98.8493 H   0  0  0  0  0  0  0  0  0  0  0  0
  -64.1162  -36.9679   99.0924 H   0  0  0  0  0  0  0  0  0  0  0  0
  -61.1079  -35.8165   97.4932 H   0  0  0  0  0  0  0  0  0  0  0  0
  -61.8347  -36.9876   98.6953 H   0  0  0  0  0  0  0  0  0  0  0  0
  -59.4701  -37.9134   97.8183 H   0  0  0  0  0  0  0  0  0  0  0  0
  -59.5303  -36.8689   96.3377 H   0  0  0  0  0  0  0  0  0  0  0  0
  -59.6953  -38.8317   94.9155 H   0  0  0  0  0  0  0  0  0  0  0  0
  -58.2435  -38.9505   95.9981 H   0  0  0  0  0  0  0  0  0  0  0  0
  -59.3852  -40.5025   97.4548 H   0  0  0  0  0  0  0  0  0  0  0  0
  -60.1034  -42.2439   95.5880 H   0  0  0  0  0  0  0  0  0  0  0  0
  -59.2288  -40.9940   94.5509 H   0  0  0  0  0  0  0  0  0  0  0  0
  -61.7725  -40.2156   95.5830 H   0  0  0  0  0  0  0  0  0  0  0  0
  -61.6493  -41.1869   97.1143 H   0  0  0  0  0  0  0  0  0  0  0  0
  -62.9205  -39.0642   97.4030 H   0  0  0  0  0  0  0  0  0  0  0  0
  -61.4301  -39.1762   98.4297 H   0  0  0  0  0  0  0  0  0  0  0  0
  -62.6022  -35.3276   95.4039 H   0  0  0  0  0  0  0  0  0  0  0  0
  -63.2559  -35.1114   93.4894 H   0  0  0  0  0  0  0  0  0  0  0  0
  -65.8596  -32.5363   91.2124 H   0  0  0  0  0  0  0  0  0  0  0  0
  -69.7052  -46.0304   99.8495 H   0  0  0  0  0  0  0  0  0  0  0  0
  -70.3339  -45.1603   98.4092 H   0  0  0  0  0  0  0  0  0  0  0  0
  -68.6563  -45.8024   98.4092 H   0  0  0  0  0  0  0  0  0  0  0  0
  -70.8872  -43.2844   99.6803 H   0  0  0  0  0  0  0  0  0  0  0  0
  -69.9306  -42.8416   98.2162 H   0  0  0  0  0  0  0  0  0  0  0  0
  -70.1208  -40.9108   99.6892 H   0  0  0  0  0  0  0  0  0  0  0  0
  -69.4636  -41.8767  101.0666 H   0  0  0  0  0  0  0  0  0  0  0  0
  -66.9349  -42.7021  100.7475 H   0  0  0  0  0  0  0  0  0  0  0  0
  -66.1863  -42.2055   99.1794 H   0  0  0  0  0  0  0  0  0  0  0  0
  -67.7781  -43.5523   97.9415 H   0  0  0  0  0  0  0  0  0  0  0  0
  -66.9693  -44.5678   99.1932 H   0  0  0  0  0  0  0  0  0  0  0  0
  -66.8514  -33.5279   95.2814 H   0  0  0  0  0  0  0  0  0  0  0  0
  -68.9664  -37.1143   99.0113 H   0  0  0  0  0  0  0  0  0  0  0  0
  -68.8710  -44.2055  100.5995 H   0  0  0  0  0  0  0  0  0  0  0  0
  -61.7023  -37.6959   95.8969 H   0  0  0  0  0  0  0  0  0  0  0  0
  1  2  2  0
  1 31  1  0
  2 28  1  0
  2 35  1  0
  3  4  2  0
  3 33  1  0
  3 35  1  0
  4  5  1  0
  5  6  1  0
  5 14  2  0
 32  6  1  0
  7  8  1  0
  7 32  1  0
  8  9  1  0
  9 10  1  0
  9 12  1  0
 10 11  1  0
 11 36  1  0
 11 37  2  0
 12 13  1  0
 13 32  1  0
 14 15  1  0
 15 16  1  0
 15 33  2  0
 16 17  2  0
 16 27  1  0
 17 18  1  0
 18 19  2  0
 18 38  1  0
 19 26  1  0
 29 20  1  0
 21 22  1  0
 21 29  1  0
 22 30  1  0
 23 24  1  0
 23 30  1  0
 24 29  1  0
 25 30  1  0
 25 31  2  0
 25 34  1  0
 26 27  2  0
 26 39  1  0
 28 34  2  0
  1 40  1  0
  4 41  1  0
  6 42  1  0
  6 43  1  0
  7 44  1  0
  7 45  1  0
  8 46  1  0
  8 47  1  0
  9 48  1  1
 10 49  1  0
 10 50  1  0
 12 51  1  0
 12 52  1  0
 13 53  1  0
 13 54  1  0
 14 55  1  0
 17 56  1  0
 19 57  1  0
 20 58  1  0
 20 59  1  0
 20 60  1  0
 21 61  1  0
 21 62  1  0
 22 63  1  0
 22 64  1  0
 23 65  1  0
 23 66  1  0
 24 67  1  0
 24 68  1  0
 27 69  1  0
 28 70  1  0
 29 71  1  1
 32 72  1  6
M  CHG  3  29   1  32   1  36  -1
M  END
>  <filename_input>  (17) 
7LCU_XTA_docked.sdf

>  <pdb_id>  (17) 
7LCU_XTA

>  <pose_rank>  (17) 
16

>  <num_atoms_heavy>  (17) 
39

>  <num_torsions>  (17) 
7

>  <pose>  (17) 
[-65.50651518379136, -35.98405530584282, 97.75044268344304, 5.59165763445077, -0.44354848777389716, 2.540246905344241, -3.2559940293934098, -6.223776942587286, -0.28080630921193156, -1.3978862444404279, -0.30936819565762874, 2.3738704196711744, 1.437442536756711]

>  <energy>  (17) 
-757.7213554462302

>  <inter_energy>  (17) 
-778.5401269689809

>  <intra_energy>  (17) 
24.881094656082016

>  <rmsd>  (17) 
4.69605

>  <sdf_rank>  (17) 
0

$$$$

     RDKit          3D

 72 76  0  0  0  0  0  0  0  0999 V2000
  -66.6081  -34.6899   96.7727 C   0  0  0  0  0  0  0  0  0  0  0  0
  -65.8588  -35.6984   97.3432 C   0  0  0  0  0  0  0  0  0  0  0  0
  -66.0374  -37.6856   98.7161 C   0  0  0  0  0  0  0  0  0  0  0  0
  -64.7044  -38.0024   98.9107 C   0  0  0  0  0  0  0  0  0  0  0  0
  -64.3878  -39.3307   99.1523 C   0  0  0  0  0  0  0  0  0  0  0  0
  -62.9547  -39.7512   99.3664 C   0  0  0  0  0  0  0  0  0  0  0  0
  -60.8279  -38.9024   98.6153 C   0  0  0  0  0  0  0  0  0  0  0  0
  -59.9226  -38.6176   97.4257 C   0  0  0  0  0  0  0  0  0  0  0  0
  -59.6102  -39.8751   96.6374 C   0  0  2  0  0  0  0  0  0  0  0  0
  -58.7653  -39.5505   95.3993 C   0  0  0  0  0  0  0  0  0  0  0  0
  -58.9796  -40.4369   94.2174 C   0  0  0  0  0  0  0  0  0  0  0  0
  -60.9165  -40.5583   96.2678 C   0  0  0  0  0  0  0  0  0  0  0  0
  -61.8178  -40.7816   97.4820 C   0  0  0  0  0  0  0  0  0  0  0  0
  -65.4085  -40.2601   99.1854 C   0  0  0  0  0  0  0  0  0  0  0  0
  -66.7178  -39.8491   98.9726 C   0  0  0  0  0  0  0  0  0  0  0  0
  -67.8528  -40.7984   99.0398 C   0  0  0  0  0  0  0  0  0  0  0  0
  -69.1715  -40.3470   98.9996 C   0  0  0  0  0  0  0  0  0  0  0  0
  -70.2037  -41.2591   99.0904 C   0  0  0  0  0  0  0  0  0  0  0  0
  -69.9764  -42.6107   99.2245 C   0  0  0  0  0  0  0  0  0  0  0  0
  -64.2575  -33.1007   89.7642 C   0  0  0  0  0  0  0  0  0  0  0  0
  -63.5897  -34.2864   91.7397 C   0  0  0  0  0  0  0  0  0  0  0  0
  -63.4554  -34.2127   93.2460 C   0  0  0  0  0  0  0  0  0  0  0  0
  -65.5175  -32.8696   93.2775 C   0  0  0  0  0  0  0  0  0  0  0  0
  -65.5666  -33.0022   91.7714 C   0  0  0  0  0  0  0  0  0  0  0  0
  -65.1292  -34.5515   95.0511 C   0  0  0  0  0  0  0  0  0  0  0  0
  -68.6678  -43.0357   99.2696 C   0  0  0  0  0  0  0  0  0  0  0  0
  -67.6123  -42.1604   99.1910 C   0  0  0  0  0  0  0  0  0  0  0  0
  -64.7307  -36.1029   96.6577 C   0  0  0  0  0  0  0  0  0  0  0  0
  -64.2253  -33.0881   91.2270 N   0  0  2  0  0  0  0  0  0  0  0  0
  -64.7639  -33.9751   93.8760 N   0  0  0  0  0  0  0  0  0  0  0  0
  -66.2622  -34.1044   95.6182 N   0  0  0  0  0  0  0  0  0  0  0  0
  -62.0896  -39.5216   98.1999 N   0  0  1  0  0  0  0  0  0  0  0  0
  -67.0341  -38.5605   98.7517 N   0  0  0  0  0  0  0  0  0  0  0  0
  -64.3370  -35.5292   95.5158 N   0  0  0  0  0  0  0  0  0  0  0  0
  -66.2595  -36.3564   98.5066 O   0  0  0  0  0  0  0  0  0  0  0  0
  -58.6320  -41.5996   94.1886 O   0  0  0  0  0  0  0  0  0  0  0  0
  -59.5706  -39.8261   93.2233 O   0  0  0  0  0  0  0  0  0  0  0  0
  -71.8482  -40.6893   99.0380 Cl  0  0  0  0  0  0  0  0  0  0  0  0
  -68.3402  -44.7307   99.4586 Cl  0  0  0  0  0  0  0  0  0  0  0  0
  -67.5223  -34.3544   97.2843 H   0  0  0  0  0  0  0  0  0  0  0  0
  -63.9238  -37.2282   98.8751 H   0  0  0  0  0  0  0  0  0  0  0  0
  -62.5495  -39.1826  100.2164 H   0  0  0  0  0  0  0  0  0  0  0  0
  -62.9626  -40.8355   99.5517 H   0  0  0  0  0  0  0  0  0  0  0  0
  -60.3070  -39.5827   99.3050 H   0  0  0  0  0  0  0  0  0  0  0  0
  -61.0605  -37.9458   99.1062 H   0  0  0  0  0  0  0  0  0  0  0  0
  -60.4237  -37.8975   96.7621 H   0  0  0  0  0  0  0  0  0  0  0  0
  -58.9748  -38.2117   97.8088 H   0  0  0  0  0  0  0  0  0  0  0  0
  -59.0121  -40.5622   97.2540 H   0  0  0  0  0  0  0  0  0  0  0  0
  -58.9958  -38.5191   95.0941 H   0  0  0  0  0  0  0  0  0  0  0  0
  -57.7190  -39.7034   95.7023 H   0  0  0  0  0  0  0  0  0  0  0  0
  -61.4514  -39.9293   95.5410 H   0  0  0  0  0  0  0  0  0  0  0  0
  -60.6729  -41.5435   95.8436 H   0  0  0  0  0  0  0  0  0  0  0  0
  -62.7719  -41.2118   97.1433 H   0  0  0  0  0  0  0  0  0  0  0  0
  -61.3001  -41.4642   98.1720 H   0  0  0  0  0  0  0  0  0  0  0  0
  -65.1858  -41.3198   99.3791 H   0  0  0  0  0  0  0  0  0  0  0  0
  -69.3875  -39.2734   98.8965 H   0  0  0  0  0  0  0  0  0  0  0  0
  -70.8103  -43.3248   99.2930 H   0  0  0  0  0  0  0  0  0  0  0  0
  -65.2319  -33.4797   89.4222 H   0  0  0  0  0  0  0  0  0  0  0  0
  -64.1081  -32.0788   89.3854 H   0  0  0  0  0  0  0  0  0  0  0  0
  -63.4568  -33.7529   89.3854 H   0  0  0  0  0  0  0  0  0  0  0  0
  -62.5901  -34.3859   91.2916 H   0  0  0  0  0  0  0  0  0  0  0  0
  -64.2101  -35.1568   91.4801 H   0  0  0  0  0  0  0  0  0  0  0  0
  -63.0429  -35.1622   93.6182 H   0  0  0  0  0  0  0  0  0  0  0  0
  -62.7848  -33.3785   93.5000 H   0  0  0  0  0  0  0  0  0  0  0  0
  -65.0308  -31.9186   93.5396 H   0  0  0  0  0  0  0  0  0  0  0  0
  -66.5463  -32.8949   93.6661 H   0  0  0  0  0  0  0  0  0  0  0  0
  -66.1244  -33.9123   91.5057 H   0  0  0  0  0  0  0  0  0  0  0  0
  -66.0657  -32.1165   91.3515 H   0  0  0  0  0  0  0  0  0  0  0  0
  -66.5796  -42.5352   99.2474 H   0  0  0  0  0  0  0  0  0  0  0  0
  -64.1321  -36.9300   97.0671 H   0  0  0  0  0  0  0  0  0  0  0  0
  -63.6830  -32.2613   91.5156 H   0  0  0  0  0  0  0  0  0  0  0  0
  -62.5849  -38.8844   97.5599 H   0  0  0  0  0  0  0  0  0  0  0  0
  1  2  2  0
  1 31  1  0
  2 28  1  0
  2 35  1  0
  3  4  2  0
  3 33  1  0
  3 35  1  0
  4  5  1  0
  5  6  1  0
  5 14  2  0
 32  6  1  0
  7  8  1  0
  7 32  1  0
  8  9  1  0
  9 10  1  0
  9 12  1  0
 10 11  1  0
 11 36  1  0
 11 37  2  0
 12 13  1  0
 13 32  1  0
 14 15  1  0
 15 16  1  0
 15 33  2  0
 16 17  2  0
 16 27  1  0
 17 18  1  0
 18 19  2  0
 18 38  1  0
 19 26  1  0
 29 20  1  0
 21 22  1  0
 21 29  1  0
 22 30  1  0
 23 24  1  0
 23 30  1  0
 24 29  1  0
 25 30  1  0
 25 31  2  0
 25 34  1  0
 26 27  2  0
 26 39  1  0
 28 34  2  0
  1 40  1  0
  4 41  1  0
  6 42  1  0
  6 43  1  0
  7 44  1  0
  7 45  1  0
  8 46  1  0
  8 47  1  0
  9 48  1  1
 10 49  1  0
 10 50  1  0
 12 51  1  0
 12 52  1  0
 13 53  1  0
 13 54  1  0
 14 55  1  0
 17 56  1  0
 19 57  1  0
 20 58  1  0
 20 59  1  0
 20 60  1  0
 21 61  1  0
 21 62  1  0
 22 63  1  0
 22 64  1  0
 23 65  1  0
 23 66  1  0
 24 67  1  0
 24 68  1  0
 27 69  1  0
 28 70  1  0
 29 71  1  6
 32 72  1  6
M  CHG  3  29   1  32   1  36  -1
M  END
>  <filename_input>  (18) 
7LCU_XTA_docked.sdf

>  <pdb_id>  (18) 
7LCU_XTA

>  <pose_rank>  (18) 
17

>  <num_atoms_heavy>  (18) 
39

>  <num_torsions>  (18) 
7

>  <pose>  (18) 
[-66.03742617742093, -37.685581371135356, 98.7160657658183, 3.744643894013722, -1.182795848901712, 0.7056976628229361, -6.877647237525064, 3.361292041587667, -0.6328554213590091, 0.7208917371709056, -0.25933570524844585, -1.5731924116902813, -2.9565379075881775]

>  <energy>  (18) 
-697.3391974952322

>  <inter_energy>  (18) 
-710.0456266910884

>  <intra_energy>  (18) 
26.401963980701748

>  <rmsd>  (18) 
7.53971

>  <sdf_rank>  (18) 
0

$$$$

     RDKit          3D

 72 76  0  0  0  0  0  0  0  0999 V2000
  -65.3322  -38.2732   98.7708 C   0  0  0  0  0  0  0  0  0  0  0  0
  -66.4950  -37.5309   98.7982 C   0  0  0  0  0  0  0  0  0  0  0  0
  -65.7066  -35.9125   97.1780 C   0  0  0  0  0  0  0  0  0  0  0  0
  -64.4354  -36.3322   97.5290 C   0  0  0  0  0  0  0  0  0  0  0  0
  -63.3735  -35.8779   96.7616 C   0  0  0  0  0  0  0  0  0  0  0  0
  -61.9590  -36.2880   97.0896 C   0  0  0  0  0  0  0  0  0  0  0  0
  -60.4174  -38.0694   96.5816 C   0  0  0  0  0  0  0  0  0  0  0  0
  -60.1825  -39.5724   96.5401 C   0  0  0  0  0  0  0  0  0  0  0  0
  -60.3455  -40.2095   97.9069 C   0  0  2  0  0  0  0  0  0  0  0  0
  -60.1850  -41.7325   97.8248 C   0  0  0  0  0  0  0  0  0  0  0  0
  -61.2642  -42.5342   98.4736 C   0  0  0  0  0  0  0  0  0  0  0  0
  -61.6989  -39.8129   98.4734 C   0  0  0  0  0  0  0  0  0  0  0  0
  -61.9157  -38.2999   98.4519 C   0  0  0  0  0  0  0  0  0  0  0  0
  -63.6360  -35.0381   95.6974 C   0  0  0  0  0  0  0  0  0  0  0  0
  -64.9456  -34.6655   95.4244 C   0  0  0  0  0  0  0  0  0  0  0  0
  -65.2851  -33.8017   94.2700 C   0  0  0  0  0  0  0  0  0  0  0  0
  -64.6211  -33.9360   93.0512 C   0  0  0  0  0  0  0  0  0  0  0  0
  -64.9467  -33.0961   92.0052 C   0  0  0  0  0  0  0  0  0  0  0  0
  -65.9093  -32.1186   92.1239 C   0  0  0  0  0  0  0  0  0  0  0  0
  -66.1337  -44.8355  102.4402 C   0  0  0  0  0  0  0  0  0  0  0  0
  -67.2160  -42.7167  102.1341 C   0  0  0  0  0  0  0  0  0  0  0  0
  -67.0201  -41.2157  102.1022 C   0  0  0  0  0  0  0  0  0  0  0  0
  -64.8189  -41.6119  101.0750 C   0  0  0  0  0  0  0  0  0  0  0  0
  -65.1085  -43.0949  101.1475 C   0  0  0  0  0  0  0  0  0  0  0  0
  -66.2055  -39.7154  100.2966 C   0  0  0  0  0  0  0  0  0  0  0  0
  -66.5482  -31.9969   93.3373 C   0  0  0  0  0  0  0  0  0  0  0  0
  -66.2482  -32.8067   94.4053 C   0  0  0  0  0  0  0  0  0  0  0  0
  -67.5091  -37.9879   99.6160 C   0  0  0  0  0  0  0  0  0  0  0  0
  -65.9430  -43.3920  102.2956 N   0  0  2  0  0  0  0  0  0  0  0  0
  -66.0623  -40.8363  101.0513 N   0  0  0  0  0  0  0  0  0  0  0  0
  -65.1687  -39.3777   99.5115 N   0  0  0  0  0  0  0  0  0  0  0  0
  -61.7507  -37.7435   97.0953 N   0  0  1  0  0  0  0  0  0  0  0  0
  -65.9820  -35.1133   96.1556 N   0  0  0  0  0  0  0  0  0  0  0  0
  -67.3784  -39.0711  100.3891 N   0  0  0  0  0  0  0  0  0  0  0  0
  -66.6907  -36.4235   97.9719 O   0  0  0  0  0  0  0  0  0  0  0  0
  -61.2643  -42.8131   99.6551 O   0  0  0  0  0  0  0  0  0  0  0  0
  -62.1966  -42.9058   97.6350 O   0  0  0  0  0  0  0  0  0  0  0  0
  -64.1152  -33.2701   90.4853 Cl  0  0  0  0  0  0  0  0  0  0  0  0
  -67.7540  -30.7625   93.5327 Cl  0  0  0  0  0  0  0  0  0  0  0  0
  -64.5099  -37.9465   98.1174 H   0  0  0  0  0  0  0  0  0  0  0  0
  -64.2731  -37.0022   98.3862 H   0  0  0  0  0  0  0  0  0  0  0  0
  -61.2864  -35.8441   96.3408 H   0  0  0  0  0  0  0  0  0  0  0  0
  -61.7489  -35.9297   98.1082 H   0  0  0  0  0  0  0  0  0  0  0  0
  -59.6614  -37.6082   97.2340 H   0  0  0  0  0  0  0  0  0  0  0  0
  -60.3412  -37.6819   95.5549 H   0  0  0  0  0  0  0  0  0  0  0  0
  -60.9067  -40.0264   95.8478 H   0  0  0  0  0  0  0  0  0  0  0  0
  -59.1495  -39.7463   96.2046 H   0  0  0  0  0  0  0  0  0  0  0  0
  -59.5574  -39.8468   98.5832 H   0  0  0  0  0  0  0  0  0  0  0  0
  -60.1499  -42.0115   96.7613 H   0  0  0  0  0  0  0  0  0  0  0  0
  -59.2639  -41.9667   98.3787 H   0  0  0  0  0  0  0  0  0  0  0  0
  -62.4873  -40.2918   97.8743 H   0  0  0  0  0  0  0  0  0  0  0  0
  -61.7348  -40.1432   99.5220 H   0  0  0  0  0  0  0  0  0  0  0  0
  -62.9339  -38.0807   98.8055 H   0  0  0  0  0  0  0  0  0  0  0  0
  -61.1625  -37.8365   99.1061 H   0  0  0  0  0  0  0  0  0  0  0  0
  -62.8127  -34.6664   95.0697 H   0  0  0  0  0  0  0  0  0  0  0  0
  -63.8446  -34.7047   92.9243 H   0  0  0  0  0  0  0  0  0  0  0  0
  -66.1588  -31.4589   91.2798 H   0  0  0  0  0  0  0  0  0  0  0  0
  -66.1681  -45.0955  103.5085 H   0  0  0  0  0  0  0  0  0  0  0  0
  -67.0786  -45.1304  101.9605 H   0  0  0  0  0  0  0  0  0  0  0  0
  -65.2978  -45.3657  101.9605 H   0  0  0  0  0  0  0  0  0  0  0  0
  -67.8737  -42.9781  102.9762 H   0  0  0  0  0  0  0  0  0  0  0  0
  -67.6702  -43.0364  101.1846 H   0  0  0  0  0  0  0  0  0  0  0  0
  -67.9865  -40.7300  101.9018 H   0  0  0  0  0  0  0  0  0  0  0  0
  -66.6231  -40.8909  103.0753 H   0  0  0  0  0  0  0  0  0  0  0  0
  -64.2274  -41.3171  101.9544 H   0  0  0  0  0  0  0  0  0  0  0  0
  -64.2600  -41.4079  100.1498 H   0  0  0  0  0  0  0  0  0  0  0  0
  -65.6292  -43.4076  100.2304 H   0  0  0  0  0  0  0  0  0  0  0  0
  -64.1580  -43.6394  101.2471 H   0  0  0  0  0  0  0  0  0  0  0  0
  -66.7680  -32.6691   95.3649 H   0  0  0  0  0  0  0  0  0  0  0  0
  -68.4624  -37.4393   99.6322 H   0  0  0  0  0  0  0  0  0  0  0  0
  -65.4818  -43.0552  103.1527 H   0  0  0  0  0  0  0  0  0  0  0  0
  -62.4624  -38.1669   96.4828 H   0  0  0  0  0  0  0  0  0  0  0  0
  1  2  2  0
  1 31  1  0
  2 28  1  0
  2 35  1  0
  3  4  2  0
  3 33  1  0
  3 35  1  0
  4  5  1  0
  5  6  1  0
  5 14  2  0
 32  6  1  0
  7  8  1  0
  7 32  1  0
  8  9  1  0
  9 10  1  0
  9 12  1  0
 10 11  1  0
 11 36  1  0
 11 37  2  0
 12 13  1  0
 13 32  1  0
 14 15  1  0
 15 16  1  0
 15 33  2  0
 16 17  2  0
 16 27  1  0
 17 18  1  0
 18 19  2  0
 18 38  1  0
 19 26  1  0
 29 20  1  0
 21 22  1  0
 21 29  1  0
 22 30  1  0
 23 24  1  0
 23 30  1  0
 24 29  1  0
 25 30  1  0
 25 31  2  0
 25 34  1  0
 26 27  2  0
 26 39  1  0
 28 34  2  0
  1 40  1  0
  4 41  1  0
  6 42  1  0
  6 43  1  0
  7 44  1  0
  7 45  1  0
  8 46  1  0
  8 47  1  0
  9 48  1  1
 10 49  1  0
 10 50  1  0
 12 51  1  0
 12 52  1  0
 13 53  1  0
 13 54  1  0
 14 55  1  0
 17 56  1  0
 19 57  1  0
 20 58  1  0
 20 59  1  0
 20 60  1  0
 21 61  1  0
 21 62  1  0
 22 63  1  0
 22 64  1  0
 23 65  1  0
 23 66  1  0
 24 67  1  0
 24 68  1  0
 27 69  1  0
 28 70  1  0
 29 71  1  1
 32 72  1  6
M  CHG  3  29   1  32   1  36  -1
M  END
>  <filename_input>  (19) 
7LCU_XTA_docked.sdf

>  <pdb_id>  (19) 
7LCU_XTA

>  <pose_rank>  (19) 
18

>  <num_atoms_heavy>  (19) 
39

>  <num_torsions>  (19) 
7

>  <pose>  (19) 
[-65.70655109843679, -35.9125246474681, 97.17802195376618, 5.54469168513862, -1.9401608602422116, 2.3932005806148293, -2.9241687721983247, -7.101565501516227, -0.4592812395371658, 1.0493010093649953, -0.5342839838626129, 3.1991655471278913, 0.6948788488122741]

>  <energy>  (19) 
-682.6320554699548

>  <inter_energy>  (19) 
-750.7778385580918

>  <intra_energy>  (19) 
71.87910930690285

>  <rmsd>  (19) 
5.25275

>  <sdf_rank>  (19) 
0

$$$$

     RDKit          3D

 72 76  0  0  0  0  0  0  0  0999 V2000
  -65.8099  -38.4811  100.2048 C   0  0  0  0  0  0  0  0  0  0  0  0
  -66.1879  -38.3434   98.8849 C   0  0  0  0  0  0  0  0  0  0  0  0
  -65.3564  -36.6248   97.3946 C   0  0  0  0  0  0  0  0  0  0  0  0
  -64.0798  -37.0998   97.6390 C   0  0  0  0  0  0  0  0  0  0  0  0
  -63.0664  -36.6880   96.7867 C   0  0  0  0  0  0  0  0  0  0  0  0
  -61.6486  -37.1595   96.9963 C   0  0  0  0  0  0  0  0  0  0  0  0
  -62.0794  -36.4703   99.2651 C   0  0  0  0  0  0  0  0  0  0  0  0
  -61.7120  -36.6320  100.7330 C   0  0  0  0  0  0  0  0  0  0  0  0
  -61.9072  -38.0577  101.2124 C   0  0  2  0  0  0  0  0  0  0  0  0
  -61.4536  -38.2134  102.6692 C   0  0  0  0  0  0  0  0  0  0  0  0
  -61.9556  -39.4272  103.3784 C   0  0  0  0  0  0  0  0  0  0  0  0
  -61.1541  -38.9943  100.2822 C   0  0  0  0  0  0  0  0  0  0  0  0
  -61.5143  -38.7667   98.8141 C   0  0  0  0  0  0  0  0  0  0  0  0
  -63.3796  -35.8332   95.7486 C   0  0  0  0  0  0  0  0  0  0  0  0
  -64.6902  -35.4038   95.5850 C   0  0  0  0  0  0  0  0  0  0  0  0
  -65.0864  -34.5214   94.4633 C   0  0  0  0  0  0  0  0  0  0  0  0
  -66.2753  -33.7940   94.5055 C   0  0  0  0  0  0  0  0  0  0  0  0
  -66.6242  -33.0017   93.4304 C   0  0  0  0  0  0  0  0  0  0  0  0
  -65.8357  -32.9057   92.3055 C   0  0  0  0  0  0  0  0  0  0  0  0
  -64.0552  -45.6462  101.8635 C   0  0  0  0  0  0  0  0  0  0  0  0
  -65.1126  -44.3221  100.1657 C   0  0  0  0  0  0  0  0  0  0  0  0
  -66.1107  -43.2159   99.8959 C   0  0  0  0  0  0  0  0  0  0  0  0
  -65.3475  -42.1388  101.9730 C   0  0  0  0  0  0  0  0  0  0  0  0
  -64.3802  -43.2878  102.1536 C   0  0  0  0  0  0  0  0  0  0  0  0
  -65.8731  -40.7445   99.9969 C   0  0  0  0  0  0  0  0  0  0  0  0
  -64.6697  -33.6372   92.2799 C   0  0  0  0  0  0  0  0  0  0  0  0
  -64.2903  -34.4438   93.3248 C   0  0  0  0  0  0  0  0  0  0  0  0
  -66.3680  -39.5057   98.1620 C   0  0  0  0  0  0  0  0  0  0  0  0
  -64.9313  -44.5061  101.5925 N   0  0  2  0  0  0  0  0  0  0  0  0
  -65.7005  -41.9688  100.5607 N   0  0  0  0  0  0  0  0  0  0  0  0
  -65.6403  -39.6786  100.7812 N   0  0  0  0  0  0  0  0  0  0  0  0
  -61.2956  -37.3650   98.4088 N   0  0  1  0  0  0  0  0  0  0  0  0
  -65.6809  -35.8101   96.3991 N   0  0  0  0  0  0  0  0  0  0  0  0
  -66.2327  -40.7202   98.7049 N   0  0  0  0  0  0  0  0  0  0  0  0
  -66.2927  -37.0966   98.2668 O   0  0  0  0  0  0  0  0  0  0  0  0
  -63.0080  -39.9672  103.1055 O   0  0  0  0  0  0  0  0  0  0  0  0
  -61.1478  -39.8359  104.3224 O   0  0  0  0  0  0  0  0  0  0  0  0
  -68.1093  -32.0945   93.4900 Cl  0  0  0  0  0  0  0  0  0  0  0  0
  -63.6584  -33.5584   90.8703 Cl  0  0  0  0  0  0  0  0  0  0  0  0
  -65.6418  -37.5750  100.8054 H   0  0  0  0  0  0  0  0  0  0  0  0
  -63.8762  -37.7798   98.4794 H   0  0  0  0  0  0  0  0  0  0  0  0
  -61.5176  -38.1130   96.4637 H   0  0  0  0  0  0  0  0  0  0  0  0
  -60.9872  -36.3690   96.6119 H   0  0  0  0  0  0  0  0  0  0  0  0
  -63.1475  -36.6999   99.1375 H   0  0  0  0  0  0  0  0  0  0  0  0
  -61.8611  -35.4337   98.9690 H   0  0  0  0  0  0  0  0  0  0  0  0
  -60.6566  -36.3530  100.8681 H   0  0  0  0  0  0  0  0  0  0  0  0
  -62.3736  -35.9809  101.3232 H   0  0  0  0  0  0  0  0  0  0  0  0
  -62.9761  -38.3160  101.1873 H   0  0  0  0  0  0  0  0  0  0  0  0
  -60.3541  -38.2471  102.6788 H   0  0  0  0  0  0  0  0  0  0  0  0
  -61.8789  -37.3542  103.2085 H   0  0  0  0  0  0  0  0  0  0  0  0
  -60.0744  -38.8285  100.4113 H   0  0  0  0  0  0  0  0  0  0  0  0
  -61.4360  -40.0253  100.5420 H   0  0  0  0  0  0  0  0  0  0  0  0
  -60.8890  -39.4203   98.1883 H   0  0  0  0  0  0  0  0  0  0  0  0
  -62.5816  -38.9985   98.6833 H   0  0  0  0  0  0  0  0  0  0  0  0
  -62.5958  -35.4943   95.0552 H   0  0  0  0  0  0  0  0  0  0  0  0
  -66.9295  -33.8511   95.3880 H   0  0  0  0  0  0  0  0  0  0  0  0
  -66.1269  -32.2676   91.4581 H   0  0  0  0  0  0  0  0  0  0  0  0
  -63.9527  -45.7796  102.9506 H   0  0  0  0  0  0  0  0  0  0  0  0
  -64.4893  -46.5554  101.4219 H   0  0  0  0  0  0  0  0  0  0  0  0
  -63.0649  -45.4609  101.4219 H   0  0  0  0  0  0  0  0  0  0  0  0
  -65.4825  -45.2591   99.7240 H   0  0  0  0  0  0  0  0  0  0  0  0
  -64.1467  -44.0467   99.7171 H   0  0  0  0  0  0  0  0  0  0  0  0
  -66.1730  -43.0429   98.8113 H   0  0  0  0  0  0  0  0  0  0  0  0
  -67.0907  -43.5208  100.2917 H   0  0  0  0  0  0  0  0  0  0  0  0
  -66.2611  -42.3431  102.5504 H   0  0  0  0  0  0  0  0  0  0  0  0
  -64.8665  -41.2155  102.3284 H   0  0  0  0  0  0  0  0  0  0  0  0
  -63.4350  -43.0493  101.6440 H   0  0  0  0  0  0  0  0  0  0  0  0
  -64.2027  -43.4388  103.2286 H   0  0  0  0  0  0  0  0  0  0  0  0
  -63.3597  -35.0268   93.2618 H   0  0  0  0  0  0  0  0  0  0  0  0
  -66.6335  -39.4297   97.0972 H   0  0  0  0  0  0  0  0  0  0  0  0
  -65.8413  -44.7063  102.0314 H   0  0  0  0  0  0  0  0  0  0  0  0
  -60.2947  -37.1482   98.5191 H   0  0  0  0  0  0  0  0  0  0  0  0
  1  2  2  0
  1 31  1  0
  2 28  1  0
  2 35  1  0
  3  4  2  0
  3 33  1  0
  3 35  1  0
  4  5  1  0
  5  6  1  0
  5 14  2  0
 32  6  1  0
  7  8  1  0
  7 32  1  0
  8  9  1  0
  9 10  1  0
  9 12  1  0
 10 11  1  0
 11 36  1  0
 11 37  2  0
 12 13  1  0
 13 32  1  0
 14 15  1  0
 15 16  1  0
 15 33  2  0
 16 17  2  0
 16 27  1  0
 17 18  1  0
 18 19  2  0
 18 38  1  0
 19 26  1  0
 29 20  1  0
 21 22  1  0
 21 29  1  0
 22 30  1  0
 23 24  1  0
 23 30  1  0
 24 29  1  0
 25 30  1  0
 25 31  2  0
 25 34  1  0
 26 27  2  0
 26 39  1  0
 28 34  2  0
  1 40  1  0
  4 41  1  0
  6 42  1  0
  6 43  1  0
  7 44  1  0
  7 45  1  0
  8 46  1  0
  8 47  1  0
  9 48  1  1
 10 49  1  0
 10 50  1  0
 12 51  1  0
 12 52  1  0
 13 53  1  0
 13 54  1  0
 14 55  1  0
 17 56  1  0
 19 57  1  0
 20 58  1  0
 20 59  1  0
 20 60  1  0
 21 61  1  0
 21 62  1  0
 22 63  1  0
 22 64  1  0
 23 65  1  0
 23 66  1  0
 24 67  1  0
 24 68  1  0
 27 69  1  0
 28 70  1  0
 29 71  1  1
 32 72  1  6
M  CHG  3  29   1  32   1  36  -1
M  END
>  <filename_input>  (20) 
7LCU_XTA_docked.sdf

>  <pdb_id>  (20) 
7LCU_XTA

>  <pose_rank>  (20) 
19

>  <num_atoms_heavy>  (20) 
39

>  <num_torsions>  (20) 
7

>  <pose>  (20) 
[-65.35644500471088, -36.6247709269965, 97.39464918930526, -3.9448887649811177, -4.5031548288540195, 1.5974399730309816, -6.406034956233311, 22.734445107699916, -3.480629969450407, -0.12973612643702118, 0.4554573778397736, -3.300397644232356, -3.658524205961124]

>  <energy>  (20) 
-650.506393768851

>  <inter_energy>  (20) 
-703.989764486436

>  <intra_energy>  (20) 
60.05850644997866

>  <rmsd>  (20) 
6.60777

>  <sdf_rank>  (20) 
0

$$$$

     RDKit          3D

 72 76  0  0  0  0  0  0  0  0999 V2000
  -65.3120  -36.0480   97.2861 C   0  0  0  0  0  0  0  0  0  0  0  0
  -66.3518  -35.3793   97.8992 C   0  0  0  0  0  0  0  0  0  0  0  0
  -67.7465  -34.9766   99.8379 C   0  0  0  0  0  0  0  0  0  0  0  0
  -68.9818  -35.3829   99.3644 C   0  0  0  0  0  0  0  0  0  0  0  0
  -70.1090  -34.8143   99.9381 C   0  0  0  0  0  0  0  0  0  0  0  0
  -71.4887  -35.2035   99.4676 C   0  0  0  0  0  0  0  0  0  0  0  0
  -72.3539  -35.2663  101.7160 C   0  0  0  0  0  0  0  0  0  0  0  0
  -73.4736  -34.8483  102.6581 C   0  0  0  0  0  0  0  0  0  0  0  0
  -73.6235  -33.3406  102.7266 C   0  0  2  0  0  0  0  0  0  0  0  0
  -74.8088  -32.9472  103.6168 C   0  0  0  0  0  0  0  0  0  0  0  0
  -76.1512  -33.4001  103.1466 C   0  0  0  0  0  0  0  0  0  0  0  0
  -73.7721  -32.7988  101.3145 C   0  0  0  0  0  0  0  0  0  0  0  0
  -72.6560  -33.2812  100.3880 C   0  0  0  0  0  0  0  0  0  0  0  0
  -69.9429  -33.8809  100.9420 C   0  0  0  0  0  0  0  0  0  0  0  0
  -68.6618  -33.5307  101.3481 C   0  0  0  0  0  0  0  0  0  0  0  0
  -68.4299  -32.5671  102.4488 C   0  0  0  0  0  0  0  0  0  0  0  0
  -67.4434  -31.5865  102.3505 C   0  0  0  0  0  0  0  0  0  0  0  0
  -67.2387  -30.7220  103.4070 C   0  0  0  0  0  0  0  0  0  0  0  0
  -67.9774  -30.7959  104.5669 C   0  0  0  0  0  0  0  0  0  0  0  0
  -63.4395  -32.8398   90.7004 C   0  0  0  0  0  0  0  0  0  0  0  0
  -65.1684  -32.8308   92.3633 C   0  0  0  0  0  0  0  0  0  0  0  0
  -66.0663  -33.6929   93.2254 C   0  0  0  0  0  0  0  0  0  0  0  0
  -64.1998  -35.2845   93.4262 C   0  0  0  0  0  0  0  0  0  0  0  0
  -63.3803  -34.3547   92.5588 C   0  0  0  0  0  0  0  0  0  0  0  0
  -65.6396  -34.8380   95.3891 C   0  0  0  0  0  0  0  0  0  0  0  0
  -68.9414  -31.7754  104.6475 C   0  0  0  0  0  0  0  0  0  0  0  0
  -69.1710  -32.6604  103.6226 C   0  0  0  0  0  0  0  0  0  0  0  0
  -66.9861  -34.3998   97.1615 C   0  0  0  0  0  0  0  0  0  0  0  0
  -64.2349  -33.6543   91.6197 N   0  0  2  0  0  0  0  0  0  0  0  0
  -65.2682  -34.5534   94.1132 N   0  0  0  0  0  0  0  0  0  0  0  0
  -64.9342  -35.7868   96.0275 N   0  0  0  0  0  0  0  0  0  0  0  0
  -72.5674  -34.7536  100.3597 N   0  0  1  0  0  0  0  0  0  0  0  0
  -67.5642  -34.0882  100.8061 N   0  0  0  0  0  0  0  0  0  0  0  0
  -66.6565  -34.1246   95.8951 N   0  0  0  0  0  0  0  0  0  0  0  0
  -66.6957  -35.6014   99.2332 O   0  0  0  0  0  0  0  0  0  0  0  0
  -76.3334  -34.4581  102.5798 O   0  0  0  0  0  0  0  0  0  0  0  0
  -77.0989  -32.5361  103.4033 O   0  0  0  0  0  0  0  0  0  0  0  0
  -66.0065  -29.4986  103.2774 Cl  0  0  0  0  0  0  0  0  0  0  0  0
  -69.8800  -31.9138  106.1020 Cl  0  0  0  0  0  0  0  0  0  0  0  0
  -64.7739  -36.8234   97.8511 H   0  0  0  0  0  0  0  0  0  0  0  0
  -69.0665  -36.1302   98.5617 H   0  0  0  0  0  0  0  0  0  0  0  0
  -71.6537  -34.7623   98.4736 H   0  0  0  0  0  0  0  0  0  0  0  0
  -71.5238  -36.3028   99.4506 H   0  0  0  0  0  0  0  0  0  0  0  0
  -71.4004  -34.8742  102.0994 H   0  0  0  0  0  0  0  0  0  0  0  0
  -72.3376  -36.3652  101.6688 H   0  0  0  0  0  0  0  0  0  0  0  0
  -74.4189  -35.2836  102.3017 H   0  0  0  0  0  0  0  0  0  0  0  0
  -73.2240  -35.2117  103.6658 H   0  0  0  0  0  0  0  0  0  0  0  0
  -72.7266  -32.8977  103.1843 H   0  0  0  0  0  0  0  0  0  0  0  0
  -74.6382  -33.3761  104.6153 H   0  0  0  0  0  0  0  0  0  0  0  0
  -74.8419  -31.8478  103.6026 H   0  0  0  0  0  0  0  0  0  0  0  0
  -74.7383  -33.1319  100.9076 H   0  0  0  0  0  0  0  0  0  0  0  0
  -73.7153  -31.7016  101.3671 H   0  0  0  0  0  0  0  0  0  0  0  0
  -72.8558  -32.9166   99.3695 H   0  0  0  0  0  0  0  0  0  0  0  0
  -71.7015  -32.8877  100.7677 H   0  0  0  0  0  0  0  0  0  0  0  0
  -70.8200  -33.4174  101.4172 H   0  0  0  0  0  0  0  0  0  0  0  0
  -66.8335  -31.5026  101.4389 H   0  0  0  0  0  0  0  0  0  0  0  0
  -67.8035  -30.0975  105.3988 H   0  0  0  0  0  0  0  0  0  0  0  0
  -62.7850  -32.1695   91.2769 H   0  0  0  0  0  0  0  0  0  0  0  0
  -62.8252  -33.4963   90.0666 H   0  0  0  0  0  0  0  0  0  0  0  0
  -64.1104  -32.2413   90.0666 H   0  0  0  0  0  0  0  0  0  0  0  0
  -65.7868  -32.2571   91.6573 H   0  0  0  0  0  0  0  0  0  0  0  0
  -64.6011  -32.1478   93.0126 H   0  0  0  0  0  0  0  0  0  0  0  0
  -66.7112  -33.0440   93.8361 H   0  0  0  0  0  0  0  0  0  0  0  0
  -66.6768  -34.3318   92.5703 H   0  0  0  0  0  0  0  0  0  0  0  0
  -64.6470  -36.0658   92.7941 H   0  0  0  0  0  0  0  0  0  0  0  0
  -63.5388  -35.7332   94.1823 H   0  0  0  0  0  0  0  0  0  0  0  0
  -62.8668  -33.6214   93.1980 H   0  0  0  0  0  0  0  0  0  0  0  0
  -62.6439  -34.9479   91.9968 H   0  0  0  0  0  0  0  0  0  0  0  0
  -69.9388  -33.4409  103.7295 H   0  0  0  0  0  0  0  0  0  0  0  0
  -67.7947  -33.8230   97.6342 H   0  0  0  0  0  0  0  0  0  0  0  0
  -64.7561  -34.3380   91.0525 H   0  0  0  0  0  0  0  0  0  0  0  0
  -73.4557  -35.1247   99.9935 H   0  0  0  0  0  0  0  0  0  0  0  0
  1  2  2  0
  1 31  1  0
  2 28  1  0
  2 35  1  0
  3  4  2  0
  3 33  1  0
  3 35  1  0
  4  5  1  0
  5  6  1  0
  5 14  2  0
 32  6  1  0
  7  8  1  0
  7 32  1  0
  8  9  1  0
  9 10  1  0
  9 12  1  0
 10 11  1  0
 11 36  1  0
 11 37  2  0
 12 13  1  0
 13 32  1  0
 14 15  1  0
 15 16  1  0
 15 33  2  0
 16 17  2  0
 16 27  1  0
 17 18  1  0
 18 19  2  0
 18 38  1  0
 19 26  1  0
 29 20  1  0
 21 22  1  0
 21 29  1  0
 22 30  1  0
 23 24  1  0
 23 30  1  0
 24 29  1  0
 25 30  1  0
 25 31  2  0
 25 34  1  0
 26 27  2  0
 26 39  1  0
 28 34  2  0
  1 40  1  0
  4 41  1  0
  6 42  1  0
  6 43  1  0
  7 44  1  0
  7 45  1  0
  8 46  1  0
  8 47  1  0
  9 48  1  1
 10 49  1  0
 10 50  1  0
 12 51  1  0
 12 52  1  0
 13 53  1  0
 13 54  1  0
 14 55  1  0
 17 56  1  0
 19 57  1  0
 20 58  1  0
 20 59  1  0
 20 60  1  0
 21 61  1  0
 21 62  1  0
 22 63  1  0
 22 64  1  0
 23 65  1  0
 23 66  1  0
 24 67  1  0
 24 68  1  0
 27 69  1  0
 28 70  1  0
 29 71  1  6
 32 72  1  6
M  CHG  3  29   1  32   1  36  -1
M  END
>  <filename_input>  (21) 
7LCU_XTA_docked.sdf

>  <pdb_id>  (21) 
7LCU_XTA

>  <pose_rank>  (21) 
20

>  <num_atoms_heavy>  (21) 
39

>  <num_torsions>  (21) 
7

>  <pose>  (21) 
[-67.74645187954523, -34.97661561522892, 99.83786000022543, -0.11262024022057032, -3.2786610395315745, 0.24789755845356243, 0.29455990053926334, 1.0922023837686288, 2.316012348317701, 2.2175887202194016, 1.5706951920904522, 4.697642421081258, 3.990263633129999]

>  <energy>  (21) 
-541.6833334784226

>  <inter_energy>  (21) 
-633.7405383946985

>  <intra_energy>  (21) 
84.37527853424474

>  <rmsd>  (21) 
11.8166

>  <sdf_rank>  (21) 
0

$$$$

     RDKit          3D

 72 76  0  0  0  0  0  0  0  0999 V2000
  -66.1080  -34.9277   96.6699 C   0  0  0  0  0  0  0  0  0  0  0  0
  -65.2295  -35.8974   97.1080 C   0  0  0  0  0  0  0  0  0  0  0  0
  -66.7205  -36.9739   98.6841 C   0  0  0  0  0  0  0  0  0  0  0  0
  -66.9368  -38.3366   98.7918 C   0  0  0  0  0  0  0  0  0  0  0  0
  -68.1806  -38.7568   99.2384 C   0  0  0  0  0  0  0  0  0  0  0  0
  -68.4906  -40.2272   99.3737 C   0  0  0  0  0  0  0  0  0  0  0  0
  -66.4203  -41.4404   99.5971 C   0  0  0  0  0  0  0  0  0  0  0  0
  -65.4945  -42.2124  100.5261 C   0  0  0  0  0  0  0  0  0  0  0  0
  -65.0344  -41.3671  101.6984 C   0  0  2  0  0  0  0  0  0  0  0  0
  -64.1704  -42.1900  102.6620 C   0  0  0  0  0  0  0  0  0  0  0  0
  -63.0125  -41.4704  103.2702 C   0  0  0  0  0  0  0  0  0  0  0  0
  -66.2554  -40.7842  102.3905 C   0  0  0  0  0  0  0  0  0  0  0  0
  -67.1839  -40.0600  101.4157 C   0  0  0  0  0  0  0  0  0  0  0  0
  -69.1302  -37.8038   99.5491 C   0  0  0  0  0  0  0  0  0  0  0  0
  -68.8239  -36.4571   99.4038 C   0  0  0  0  0  0  0  0  0  0  0  0
  -69.7916  -35.3950   99.7635 C   0  0  0  0  0  0  0  0  0  0  0  0
  -69.5717  -34.5629  100.8605 C   0  0  0  0  0  0  0  0  0  0  0  0
  -70.5083  -33.6007  101.1806 C   0  0  0  0  0  0  0  0  0  0  0  0
  -71.6646  -33.4338  100.4516 C   0  0  0  0  0  0  0  0  0  0  0  0
  -64.5557  -32.7586   89.5950 C   0  0  0  0  0  0  0  0  0  0  0  0
  -63.6132  -33.9887   91.4259 C   0  0  0  0  0  0  0  0  0  0  0  0
  -63.3459  -33.9866   92.9163 C   0  0  0  0  0  0  0  0  0  0  0  0
  -65.4984  -32.8307   93.2130 C   0  0  0  0  0  0  0  0  0  0  0  0
  -65.6763  -32.8841   91.7117 C   0  0  0  0  0  0  0  0  0  0  0  0
  -64.8117  -34.5676   94.8369 C   0  0  0  0  0  0  0  0  0  0  0  0
  -71.8670  -34.2699   99.3769 C   0  0  0  0  0  0  0  0  0  0  0  0
  -70.9643  -35.2452   99.0299 C   0  0  0  0  0  0  0  0  0  0  0  0
  -64.1410  -36.1645   96.3020 C   0  0  0  0  0  0  0  0  0  0  0  0
  -64.3888  -32.8236   91.0471 N   0  0  2  0  0  0  0  0  0  0  0  0
  -64.6052  -33.8980   93.6726 N   0  0  0  0  0  0  0  0  0  0  0  0
  -65.9196  -34.2520   95.5284 N   0  0  0  0  0  0  0  0  0  0  0  0
  -67.6008  -40.9368  100.3047 N   0  0  1  0  0  0  0  0  0  0  0  0
  -67.6152  -36.0416   98.9847 N   0  0  0  0  0  0  0  0  0  0  0  0
  -63.9030  -35.4971   95.1680 N   0  0  0  0  0  0  0  0  0  0  0  0
  -65.4657  -36.6506   98.2588 O   0  0  0  0  0  0  0  0  0  0  0  0
  -62.6390  -41.6584  104.4098 O   0  0  0  0  0  0  0  0  0  0  0  0
  -62.4551  -40.6177  102.4499 O   0  0  0  0  0  0  0  0  0  0  0  0
  -70.2269  -32.5635  102.5506 Cl  0  0  0  0  0  0  0  0  0  0  0  0
  -73.3230  -34.1042   98.4450 Cl  0  0  0  0  0  0  0  0  0  0  0  0
  -66.9950  -34.7013   97.2799 H   0  0  0  0  0  0  0  0  0  0  0  0
  -66.1502  -39.0605   98.5325 H   0  0  0  0  0  0  0  0  0  0  0  0
  -69.5246  -40.3322   99.7339 H   0  0  0  0  0  0  0  0  0  0  0  0
  -68.3432  -40.6790   98.3816 H   0  0  0  0  0  0  0  0  0  0  0  0
  -65.8693  -40.5887   99.1717 H   0  0  0  0  0  0  0  0  0  0  0  0
  -66.7606  -42.1245   98.8057 H   0  0  0  0  0  0  0  0  0  0  0  0
  -66.0305  -43.0924  100.9111 H   0  0  0  0  0  0  0  0  0  0  0  0
  -64.6053  -42.5093   99.9507 H   0  0  0  0  0  0  0  0  0  0  0  0
  -64.4030  -40.5419  101.3374 H   0  0  0  0  0  0  0  0  0  0  0  0
  -64.8170  -42.5411  103.4796 H   0  0  0  0  0  0  0  0  0  0  0  0
  -63.7355  -42.9995  102.0573 H   0  0  0  0  0  0  0  0  0  0  0  0
  -66.8140  -41.6013  102.8703 H   0  0  0  0  0  0  0  0  0  0  0  0
  -65.9044  -40.0493  103.1300 H   0  0  0  0  0  0  0  0  0  0  0  0
  -68.0790  -39.7237  101.9594 H   0  0  0  0  0  0  0  0  0  0  0  0
  -66.6360  -39.2059  100.9910 H   0  0  0  0  0  0  0  0  0  0  0  0
  -70.1235  -38.1095   99.9095 H   0  0  0  0  0  0  0  0  0  0  0  0
  -68.6596  -34.6722  101.4657 H   0  0  0  0  0  0  0  0  0  0  0  0
  -72.3999  -32.6604  100.7184 H   0  0  0  0  0  0  0  0  0  0  0  0
  -65.5566  -32.3684   89.3580 H   0  0  0  0  0  0  0  0  0  0  0  0
  -63.7919  -32.0924   89.1676 H   0  0  0  0  0  0  0  0  0  0  0  0
  -64.4443  -33.7660   89.1676 H   0  0  0  0  0  0  0  0  0  0  0  0
  -62.6548  -33.9766   90.8863 H   0  0  0  0  0  0  0  0  0  0  0  0
  -64.1823  -34.8940   91.1680 H   0  0  0  0  0  0  0  0  0  0  0  0
  -62.8249  -34.9158   93.1907 H   0  0  0  0  0  0  0  0  0  0  0  0
  -62.7246  -33.1127   93.1620 H   0  0  0  0  0  0  0  0  0  0  0  0
  -65.0683  -31.8570   93.4902 H   0  0  0  0  0  0  0  0  0  0  0  0
  -66.4811  -32.9662   93.6882 H   0  0  0  0  0  0  0  0  0  0  0  0
  -66.1807  -33.8231   91.4398 H   0  0  0  0  0  0  0  0  0  0  0  0
  -66.2825  -32.0232   91.3936 H   0  0  0  0  0  0  0  0  0  0  0  0
  -71.1679  -35.9059   98.1744 H   0  0  0  0  0  0  0  0  0  0  0  0
  -63.4417  -36.9579   96.6046 H   0  0  0  0  0  0  0  0  0  0  0  0
  -63.8911  -31.9701   91.3381 H   0  0  0  0  0  0  0  0  0  0  0  0
  -68.1244  -41.7317  100.6982 H   0  0  0  0  0  0  0  0  0  0  0  0
  1  2  2  0
  1 31  1  0
  2 28  1  0
  2 35  1  0
  3  4  2  0
  3 33  1  0
  3 35  1  0
  4  5  1  0
  5  6  1  0
  5 14  2  0
 32  6  1  0
  7  8  1  0
  7 32  1  0
  8  9  1  0
  9 10  1  0
  9 12  1  0
 10 11  1  0
 11 36  1  0
 11 37  2  0
 12 13  1  0
 13 32  1  0
 14 15  1  0
 15 16  1  0
 15 33  2  0
 16 17  2  0
 16 27  1  0
 17 18  1  0
 18 19  2  0
 18 38  1  0
 19 26  1  0
 29 20  1  0
 21 22  1  0
 21 29  1  0
 22 30  1  0
 23 24  1  0
 23 30  1  0
 24 29  1  0
 25 30  1  0
 25 31  2  0
 25 34  1  0
 26 27  2  0
 26 39  1  0
 28 34  2  0
  1 40  1  0
  4 41  1  0
  6 42  1  0
  6 43  1  0
  7 44  1  0
  7 45  1  0
  8 46  1  0
  8 47  1  0
  9 48  1  6
 10 49  1  0
 10 50  1  0
 12 51  1  0
 12 52  1  0
 13 53  1  0
 13 54  1  0
 14 55  1  0
 17 56  1  0
 19 57  1  0
 20 58  1  0
 20 59  1  0
 20 60  1  0
 21 61  1  0
 21 62  1  0
 22 63  1  0
 22 64  1  0
 23 65  1  0
 23 66  1  0
 24 67  1  0
 24 68  1  0
 27 69  1  0
 28 70  1  0
 29 71  1  1
 32 72  1  1
M  CHG  3  29   1  32   1  36  -1
M  END
>  <filename_input>  (22) 
7LCU_XTA_docked.sdf

>  <pdb_id>  (22) 
7LCU_XTA

>  <pose_rank>  (22) 
21

>  <num_atoms_heavy>  (22) 
39

>  <num_torsions>  (22) 
7

>  <pose>  (22) 
[-66.72045186350458, -36.973920641534555, 98.68409022442762, -1.338312101726832, 2.370154936364981, -0.9247508735053224, 4.631628671842236, -0.7807245736511875, 1.7504842974361408, -0.48691605032753266, -2.817961754260941, -0.6636223860627866, 7.640650485767576]

>  <energy>  (22) 
-632.004173975056

>  <inter_energy>  (22) 
-675.3523967168272

>  <intra_energy>  (22) 
39.899850886108624

>  <rmsd>  (22) 
8.34703

>  <sdf_rank>  (22) 
0

$$$$

     RDKit          3D

 72 76  0  0  0  0  0  0  0  0999 V2000
  -66.0925  -38.1691   99.2527 C   0  0  0  0  0  0  0  0  0  0  0  0
  -67.0103  -37.1844   98.9497 C   0  0  0  0  0  0  0  0  0  0  0  0
  -65.6051  -35.7129   97.6361 C   0  0  0  0  0  0  0  0  0  0  0  0
  -64.3867  -36.2032   98.0724 C   0  0  0  0  0  0  0  0  0  0  0  0
  -63.2964  -36.0608   97.2274 C   0  0  0  0  0  0  0  0  0  0  0  0
  -61.9353  -36.5648   97.6396 C   0  0  0  0  0  0  0  0  0  0  0  0
  -60.1898  -38.1164   97.0449 C   0  0  0  0  0  0  0  0  0  0  0  0
  -59.8480  -39.5029   96.5187 C   0  0  0  0  0  0  0  0  0  0  0  0
  -60.4137  -40.5993   97.4010 C   0  0  2  0  0  0  0  0  0  0  0  0
  -60.1267  -41.9838   96.8071 C   0  0  0  0  0  0  0  0  0  0  0  0
  -58.7696  -42.5400   97.0850 C   0  0  0  0  0  0  0  0  0  0  0  0
  -61.9032  -40.3600   97.5848 C   0  0  0  0  0  0  0  0  0  0  0  0
  -62.2075  -38.9415   98.0665 C   0  0  0  0  0  0  0  0  0  0  0  0
  -63.4802  -35.4427   96.0064 C   0  0  0  0  0  0  0  0  0  0  0  0
  -64.7405  -34.9764   95.6563 C   0  0  0  0  0  0  0  0  0  0  0  0
  -64.9998  -34.3448   94.3418 C   0  0  0  0  0  0  0  0  0  0  0  0
  -64.0400  -34.3682   93.3306 C   0  0  0  0  0  0  0  0  0  0  0  0
  -64.3072  -33.7468   92.1273 C   0  0  0  0  0  0  0  0  0  0  0  0
  -65.4966  -33.0952   91.8883 C   0  0  0  0  0  0  0  0  0  0  0  0
  -69.3838  -44.9493   99.8582 C   0  0  0  0  0  0  0  0  0  0  0  0
  -69.9155  -42.6129   99.7450 C   0  0  0  0  0  0  0  0  0  0  0  0
  -69.5785  -41.2358  100.2766 C   0  0  0  0  0  0  0  0  0  0  0  0
  -67.2216  -41.9398  100.3602 C   0  0  0  0  0  0  0  0  0  0  0  0
  -67.6571  -43.2851   99.8228 C   0  0  0  0  0  0  0  0  0  0  0  0
  -67.7833  -39.6381   99.6446 C   0  0  0  0  0  0  0  0  0  0  0  0
  -66.4283  -33.0768   92.9016 C   0  0  0  0  0  0  0  0  0  0  0  0
  -66.1985  -33.6755   94.1162 C   0  0  0  0  0  0  0  0  0  0  0  0
  -68.3442  -37.5375   98.9968 C   0  0  0  0  0  0  0  0  0  0  0  0
  -68.9976  -43.6015  100.2767 N   0  0  2  0  0  0  0  0  0  0  0  0
  -68.1770  -40.8928   99.9870 N   0  0  0  0  0  0  0  0  0  0  0  0
  -66.4599  -39.4104   99.5984 N   0  0  0  0  0  0  0  0  0  0  0  0
  -61.6378  -37.9236   97.1631 N   0  0  1  0  0  0  0  0  0  0  0  0
  -65.8056  -35.1235   96.4645 N   0  0  0  0  0  0  0  0  0  0  0  0
  -68.7542  -38.7573   99.3600 N   0  0  0  0  0  0  0  0  0  0  0  0
  -66.6245  -35.9143   98.5193 O   0  0  0  0  0  0  0  0  0  0  0  0
  -57.7633  -42.1386   96.5373 O   0  0  0  0  0  0  0  0  0  0  0  0
  -58.7854  -43.5033   97.9696 O   0  0  0  0  0  0  0  0  0  0  0  0
  -63.1052  -33.7811   90.8680 Cl  0  0  0  0  0  0  0  0  0  0  0  0
  -67.9325  -32.2475   92.6459 Cl  0  0  0  0  0  0  0  0  0  0  0  0
  -65.0205  -37.9263   99.2090 H   0  0  0  0  0  0  0  0  0  0  0  0
  -64.2867  -36.6886   99.0544 H   0  0  0  0  0  0  0  0  0  0  0  0
  -61.1747  -35.8809   97.2349 H   0  0  0  0  0  0  0  0  0  0  0  0
  -61.9258  -36.6009   98.7390 H   0  0  0  0  0  0  0  0  0  0  0  0
  -59.7309  -37.9882   98.0363 H   0  0  0  0  0  0  0  0  0  0  0  0
  -59.8019  -37.3738   96.3322 H   0  0  0  0  0  0  0  0  0  0  0  0
  -60.2642  -39.6113   95.5063 H   0  0  0  0  0  0  0  0  0  0  0  0
  -58.7527  -39.6035   96.5108 H   0  0  0  0  0  0  0  0  0  0  0  0
  -59.9256  -40.5732   98.3865 H   0  0  0  0  0  0  0  0  0  0  0  0
  -60.8693  -42.6862   97.2137 H   0  0  0  0  0  0  0  0  0  0  0  0
  -60.1811  -41.8585   95.7157 H   0  0  0  0  0  0  0  0  0  0  0  0
  -62.4091  -40.5227   96.6217 H   0  0  0  0  0  0  0  0  0  0  0  0
  -62.2647  -41.0608   98.3517 H   0  0  0  0  0  0  0  0  0  0  0  0
  -63.2983  -38.8070   98.1122 H   0  0  0  0  0  0  0  0  0  0  0  0
  -61.7521  -38.8118   99.0594 H   0  0  0  0  0  0  0  0  0  0  0  0
  -62.6333  -35.3205   95.3152 H   0  0  0  0  0  0  0  0  0  0  0  0
  -63.0781  -34.8774   93.4905 H   0  0  0  0  0  0  0  0  0  0  0  0
  -65.6950  -32.6071   90.9227 H   0  0  0  0  0  0  0  0  0  0  0  0
  -69.5623  -45.5722  100.7470 H   0  0  0  0  0  0  0  0  0  0  0  0
  -70.3031  -44.8971   99.2564 H   0  0  0  0  0  0  0  0  0  0  0  0
  -68.5763  -45.3919   99.2564 H   0  0  0  0  0  0  0  0  0  0  0  0
  -70.9416  -42.8747  100.0428 H   0  0  0  0  0  0  0  0  0  0  0  0
  -69.8299  -42.6016   98.6484 H   0  0  0  0  0  0  0  0  0  0  0  0
  -70.2370  -40.4943   99.8007 H   0  0  0  0  0  0  0  0  0  0  0  0
  -69.7242  -41.2331  101.3669 H   0  0  0  0  0  0  0  0  0  0  0  0
  -67.1570  -41.9939  101.4569 H   0  0  0  0  0  0  0  0  0  0  0  0
  -66.2408  -41.6901   99.9292 H   0  0  0  0  0  0  0  0  0  0  0  0
  -67.6440  -43.2576   98.7232 H   0  0  0  0  0  0  0  0  0  0  0  0
  -66.9648  -44.0569  100.1901 H   0  0  0  0  0  0  0  0  0  0  0  0
  -66.9601  -33.6259   94.9084 H   0  0  0  0  0  0  0  0  0  0  0  0
  -69.0996  -36.7856   98.7247 H   0  0  0  0  0  0  0  0  0  0  0  0
  -69.0267  -43.5788  101.3060 H   0  0  0  0  0  0  0  0  0  0  0  0
  -62.0710  -38.0350   96.2353 H   0  0  0  0  0  0  0  0  0  0  0  0
  1  2  2  0
  1 31  1  0
  2 28  1  0
  2 35  1  0
  3  4  2  0
  3 33  1  0
  3 35  1  0
  4  5  1  0
  5  6  1  0
  5 14  2  0
 32  6  1  0
  7  8  1  0
  7 32  1  0
  8  9  1  0
  9 10  1  0
  9 12  1  0
 10 11  1  0
 11 36  1  0
 11 37  2  0
 12 13  1  0
 13 32  1  0
 14 15  1  0
 15 16  1  0
 15 33  2  0
 16 17  2  0
 16 27  1  0
 17 18  1  0
 18 19  2  0
 18 38  1  0
 19 26  1  0
 29 20  1  0
 21 22  1  0
 21 29  1  0
 22 30  1  0
 23 24  1  0
 23 30  1  0
 24 29  1  0
 25 30  1  0
 25 31  2  0
 25 34  1  0
 26 27  2  0
 26 39  1  0
 28 34  2  0
  1 40  1  0
  4 41  1  0
  6 42  1  0
  6 43  1  0
  7 44  1  0
  7 45  1  0
  8 46  1  0
  8 47  1  0
  9 48  1  1
 10 49  1  0
 10 50  1  0
 12 51  1  0
 12 52  1  0
 13 53  1  0
 13 54  1  0
 14 55  1  0
 17 56  1  0
 19 57  1  0
 20 58  1  0
 20 59  1  0
 20 60  1  0
 21 61  1  0
 21 62  1  0
 22 63  1  0
 22 64  1  0
 23 65  1  0
 23 66  1  0
 24 67  1  0
 24 68  1  0
 27 69  1  0
 28 70  1  0
 29 71  1  1
 32 72  1  6
M  CHG  3  29   1  32   1  36  -1
M  END
>  <filename_input>  (23) 
7LCU_XTA_docked.sdf

>  <pdb_id>  (23) 
7LCU_XTA

>  <pose_rank>  (23) 
22

>  <num_atoms_heavy>  (23) 
39

>  <num_torsions>  (23) 
7

>  <pose>  (23) 
[-65.60506249990313, -35.712866766993756, 97.63607658307696, 5.199382044240638, 0.24158400905472685, 3.1589931950083283, -3.422226129773476, -6.463206550725281, -0.2853941621344229, -1.5350571435691558, -0.33910741333915045, 2.460726742928573, 1.5261322511334925]

>  <energy>  (23) 
-708.5043078812379

>  <inter_energy>  (23) 
-737.8233527343059

>  <intra_energy>  (23) 
31.05387001066359

>  <rmsd>  (23) 
4.51418

>  <sdf_rank>  (23) 
0

$$$$

     RDKit          3D

 72 76  0  0  0  0  0  0  0  0999 V2000
  -71.0792  -35.8852  100.3163 C   0  0  0  0  0  0  0  0  0  0  0  0
  -70.6504  -35.5944   99.0374 C   0  0  0  0  0  0  0  0  0  0  0  0
  -68.7485  -37.0461   98.6616 C   0  0  0  0  0  0  0  0  0  0  0  0
  -67.6629  -36.2218   98.4227 C   0  0  0  0  0  0  0  0  0  0  0  0
  -66.4125  -36.6755   98.8149 C   0  0  0  0  0  0  0  0  0  0  0  0
  -65.1825  -35.8339   98.5798 C   0  0  0  0  0  0  0  0  0  0  0  0
  -63.6500  -35.8530   96.7200 C   0  0  0  0  0  0  0  0  0  0  0  0
  -63.3994  -35.4411   95.2766 C   0  0  0  0  0  0  0  0  0  0  0  0
  -64.4296  -36.0303   94.3321 C   0  0  2  0  0  0  0  0  0  0  0  0
  -64.2048  -35.5357   92.8979 C   0  0  0  0  0  0  0  0  0  0  0  0
  -63.3897  -34.2926   92.7609 C   0  0  0  0  0  0  0  0  0  0  0  0
  -65.8178  -35.6785   94.8409 C   0  0  0  0  0  0  0  0  0  0  0  0
  -66.0125  -36.0633   96.3075 C   0  0  0  0  0  0  0  0  0  0  0  0
  -66.3155  -37.9143   99.4171 C   0  0  0  0  0  0  0  0  0  0  0  0
  -67.4614  -38.6747   99.6104 C   0  0  0  0  0  0  0  0  0  0  0  0
  -67.4176  -39.9904  100.2893 C   0  0  0  0  0  0  0  0  0  0  0  0
  -66.2636  -40.4265  100.9394 C   0  0  0  0  0  0  0  0  0  0  0  0
  -66.2516  -41.6696  101.5393 C   0  0  0  0  0  0  0  0  0  0  0  0
  -67.3467  -42.5044  101.5154 C   0  0  0  0  0  0  0  0  0  0  0  0
  -76.1293  -30.8238  102.7757 C   0  0  0  0  0  0  0  0  0  0  0  0
  -74.5219  -31.1687  101.0288 C   0  0  0  0  0  0  0  0  0  0  0  0
  -73.1063  -31.6028  100.7122 C   0  0  0  0  0  0  0  0  0  0  0  0
  -73.3005  -33.2567  102.5244 C   0  0  0  0  0  0  0  0  0  0  0  0
  -74.7078  -32.7554  102.7625 C   0  0  0  0  0  0  0  0  0  0  0  0
  -72.1172  -33.8658  100.4378 C   0  0  0  0  0  0  0  0  0  0  0  0
  -68.4737  -42.0590  100.8623 C   0  0  0  0  0  0  0  0  0  0  0  0
  -68.5242  -40.8327  100.2457 C   0  0  0  0  0  0  0  0  0  0  0  0
  -71.0396  -34.3799   98.5088 C   0  0  0  0  0  0  0  0  0  0  0  0
  -74.8038  -31.3448  102.4402 N   0  0  2  0  0  0  0  0  0  0  0  0
  -72.8757  -32.9895  101.1474 N   0  0  0  0  0  0  0  0  0  0  0  0
  -71.8223  -35.0328  101.0349 N   0  0  0  0  0  0  0  0  0  0  0  0
  -64.9852  -35.4535   97.1733 N   0  0  1  0  0  0  0  0  0  0  0  0
  -68.6792  -38.2354   99.2456 N   0  0  0  0  0  0  0  0  0  0  0  0
  -71.7602  -33.4908   99.2004 N   0  0  0  0  0  0  0  0  0  0  0  0
  -69.9391  -36.5127   98.2641 O   0  0  0  0  0  0  0  0  0  0  0  0
  -62.2528  -34.2883   92.3356 O   0  0  0  0  0  0  0  0  0  0  0  0
  -64.0271  -33.2200   93.1533 O   0  0  0  0  0  0  0  0  0  0  0  0
  -64.8082  -42.2076  102.3509 Cl  0  0  0  0  0  0  0  0  0  0  0  0
  -69.8685  -43.0913  100.7928 Cl  0  0  0  0  0  0  0  0  0  0  0  0
  -70.8008  -36.8516  100.7619 H   0  0  0  0  0  0  0  0  0  0  0  0
  -67.7873  -35.2417   97.9390 H   0  0  0  0  0  0  0  0  0  0  0  0
  -65.2708  -34.9154   99.1787 H   0  0  0  0  0  0  0  0  0  0  0  0
  -64.3153  -36.4443   98.8720 H   0  0  0  0  0  0  0  0  0  0  0  0
  -63.5587  -36.9463   96.7998 H   0  0  0  0  0  0  0  0  0  0  0  0
  -62.9068  -35.3482   97.3548 H   0  0  0  0  0  0  0  0  0  0  0  0
  -63.4404  -34.3441   95.2078 H   0  0  0  0  0  0  0  0  0  0  0  0
  -62.4102  -35.8209   94.9811 H   0  0  0  0  0  0  0  0  0  0  0  0
  -64.3277  -37.1252   94.3060 H   0  0  0  0  0  0  0  0  0  0  0  0
  -63.6964  -36.3361   92.3404 H   0  0  0  0  0  0  0  0  0  0  0  0
  -65.2023  -35.2840   92.5082 H   0  0  0  0  0  0  0  0  0  0  0  0
  -65.9685  -34.5939   94.7367 H   0  0  0  0  0  0  0  0  0  0  0  0
  -66.5484  -36.2447   94.2445 H   0  0  0  0  0  0  0  0  0  0  0  0
  -67.0048  -35.7214   96.6368 H   0  0  0  0  0  0  0  0  0  0  0  0
  -65.9245  -37.1567   96.3894 H   0  0  0  0  0  0  0  0  0  0  0  0
  -65.3365  -38.2966   99.7417 H   0  0  0  0  0  0  0  0  0  0  0  0
  -65.3705  -39.7853  100.9739 H   0  0  0  0  0  0  0  0  0  0  0  0
  -67.3217  -43.4913  102.0006 H   0  0  0  0  0  0  0  0  0  0  0  0
  -76.2401  -30.7802  103.8692 H   0  0  0  0  0  0  0  0  0  0  0  0
  -76.2435  -29.8138  102.3550 H   0  0  0  0  0  0  0  0  0  0  0  0
  -76.9007  -31.4856  102.3550 H   0  0  0  0  0  0  0  0  0  0  0  0
  -74.6426  -30.1076  100.7653 H   0  0  0  0  0  0  0  0  0  0  0  0
  -75.2218  -31.7862  100.4466 H   0  0  0  0  0  0  0  0  0  0  0  0
  -72.9419  -31.5333   99.6268 H   0  0  0  0  0  0  0  0  0  0  0  0
  -72.4071  -30.9440  101.2481 H   0  0  0  0  0  0  0  0  0  0  0  0
  -72.6149  -32.7478  103.2179 H   0  0  0  0  0  0  0  0  0  0  0  0
  -73.2815  -34.3435  102.6933 H   0  0  0  0  0  0  0  0  0  0  0  0
  -75.4060  -33.3205  102.1276 H   0  0  0  0  0  0  0  0  0  0  0  0
  -74.9620  -32.8969  103.8234 H   0  0  0  0  0  0  0  0  0  0  0  0
  -69.4369  -40.5174   99.7189 H   0  0  0  0  0  0  0  0  0  0  0  0
  -70.7452  -34.1338   97.4779 H   0  0  0  0  0  0  0  0  0  0  0  0
  -74.1160  -30.8171  102.9964 H   0  0  0  0  0  0  0  0  0  0  0  0
  -65.0725  -34.4293   97.1078 H   0  0  0  0  0  0  0  0  0  0  0  0
  1  2  2  0
  1 31  1  0
  2 28  1  0
  2 35  1  0
  3  4  2  0
  3 33  1  0
  3 35  1  0
  4  5  1  0
  5  6  1  0
  5 14  2  0
 32  6  1  0
  7  8  1  0
  7 32  1  0
  8  9  1  0
  9 10  1  0
  9 12  1  0
 10 11  1  0
 11 36  1  0
 11 37  2  0
 12 13  1  0
 13 32  1  0
 14 15  1  0
 15 16  1  0
 15 33  2  0
 16 17  2  0
 16 27  1  0
 17 18  1  0
 18 19  2  0
 18 38  1  0
 19 26  1  0
 29 20  1  0
 21 22  1  0
 21 29  1  0
 22 30  1  0
 23 24  1  0
 23 30  1  0
 24 29  1  0
 25 30  1  0
 25 31  2  0
 25 34  1  0
 26 27  2  0
 26 39  1  0
 28 34  2  0
  1 40  1  0
  4 41  1  0
  6 42  1  0
  6 43  1  0
  7 44  1  0
  7 45  1  0
  8 46  1  0
  8 47  1  0
  9 48  1  6
 10 49  1  0
 10 50  1  0
 12 51  1  0
 12 52  1  0
 13 53  1  0
 13 54  1  0
 14 55  1  0
 17 56  1  0
 19 57  1  0
 20 58  1  0
 20 59  1  0
 20 60  1  0
 21 61  1  0
 21 62  1  0
 22 63  1  0
 22 64  1  0
 23 65  1  0
 23 66  1  0
 24 67  1  0
 24 68  1  0
 27 69  1  0
 28 70  1  0
 29 71  1  1
 32 72  1  1
M  CHG  3  29   1  32   1  36  -1
M  END
>  <filename_input>  (24) 
7LCU_XTA_docked.sdf

>  <pdb_id>  (24) 
7LCU_XTA

>  <pose_rank>  (24) 
23

>  <num_atoms_heavy>  (24) 
39

>  <num_torsions>  (24) 
7

>  <pose>  (24) 
[-68.74853583811259, -37.04613388373578, 98.66156857739767, 3.600910160916463, 0.3746682472719725, -0.316858399334732, 2.867562451791202, -2.803117678448558, 1.1140667787101233, 2.9746394894499346, 2.833873131329277, -4.210570996763408, -0.21141353509122512]

>  <energy>  (24) 
-525.4334531864872

>  <inter_energy>  (24) 
-571.5481620886642

>  <intra_energy>  (24) 
47.60900300309832

>  <rmsd>  (24) 
7.25237

>  <sdf_rank>  (24) 
0

$$$$

     RDKit          3D

 72 76  0  0  0  0  0  0  0  0999 V2000
  -64.0091  -37.6937   98.0455 C   0  0  0  0  0  0  0  0  0  0  0  0
  -64.7365  -38.5088   98.8884 C   0  0  0  0  0  0  0  0  0  0  0  0
  -66.5582  -36.9870   99.3694 C   0  0  0  0  0  0  0  0  0  0  0  0
  -66.7488  -36.3064   98.1796 C   0  0  0  0  0  0  0  0  0  0  0  0
  -67.2626  -35.0202   98.2497 C   0  0  0  0  0  0  0  0  0  0  0  0
  -67.4901  -34.2153   96.9940 C   0  0  0  0  0  0  0  0  0  0  0  0
  -65.6867  -35.3278   95.8460 C   0  0  0  0  0  0  0  0  0  0  0  0
  -64.4087  -35.1703   95.0350 C   0  0  0  0  0  0  0  0  0  0  0  0
  -64.6435  -34.3967   93.7517 C   0  0  2  0  0  0  0  0  0  0  0  0
  -63.3281  -34.1806   92.9932 C   0  0  0  0  0  0  0  0  0  0  0  0
  -63.4625  -33.7025   91.5854 C   0  0  0  0  0  0  0  0  0  0  0  0
  -65.3238  -33.0808   94.0910 C   0  0  0  0  0  0  0  0  0  0  0  0
  -66.5747  -33.2787   94.9471 C   0  0  0  0  0  0  0  0  0  0  0  0
  -67.5543  -34.4896   99.4907 C   0  0  0  0  0  0  0  0  0  0  0  0
  -67.3239  -35.2465  100.6319 C   0  0  0  0  0  0  0  0  0  0  0  0
  -67.6591  -34.7405  101.9830 C   0  0  0  0  0  0  0  0  0  0  0  0
  -67.4405  -33.4068  102.3263 C   0  0  0  0  0  0  0  0  0  0  0  0
  -67.7413  -32.9770  103.6031 C   0  0  0  0  0  0  0  0  0  0  0  0
  -68.2504  -33.8262  104.5603 C   0  0  0  0  0  0  0  0  0  0  0  0
  -57.5661  -40.9931   95.8608 C   0  0  0  0  0  0  0  0  0  0  0  0
  -59.3355  -41.2187   97.4648 C   0  0  0  0  0  0  0  0  0  0  0  0
  -60.1896  -40.4914   98.4816 C   0  0  0  0  0  0  0  0  0  0  0  0
  -60.1503  -38.5360   96.9875 C   0  0  0  0  0  0  0  0  0  0  0  0
  -59.3009  -39.3460   96.0330 C   0  0  0  0  0  0  0  0  0  0  0  0
  -62.2311  -39.1025   98.2017 C   0  0  0  0  0  0  0  0  0  0  0  0
  -68.4520  -35.1406  104.2042 C   0  0  0  0  0  0  0  0  0  0  0  0
  -68.1581  -35.6103  102.9475 C   0  0  0  0  0  0  0  0  0  0  0  0
  -64.1157  -39.6578   99.3360 C   0  0  0  0  0  0  0  0  0  0  0  0
  -58.4739  -40.2860   96.7647 N   0  0  2  0  0  0  0  0  0  0  0  0
  -60.9578  -39.4116   97.8415 N   0  0  0  0  0  0  0  0  0  0  0  0
  -62.7507  -37.9772   97.6831 N   0  0  0  0  0  0  0  0  0  0  0  0
  -66.2785  -34.0298   96.1819 N   0  0  1  0  0  0  0  0  0  0  0  0
  -66.8390  -36.4997  100.5710 N   0  0  0  0  0  0  0  0  0  0  0  0
  -62.8538  -39.9656   99.0182 N   0  0  0  0  0  0  0  0  0  0  0  0
  -66.0705  -38.2500   99.2057 O   0  0  0  0  0  0  0  0  0  0  0  0
  -64.1836  -32.7805   91.2639 O   0  0  0  0  0  0  0  0  0  0  0  0
  -62.7303  -34.3854   90.7438 O   0  0  0  0  0  0  0  0  0  0  0  0
  -67.4678  -31.3100  104.0251 Cl  0  0  0  0  0  0  0  0  0  0  0  0
  -69.0735  -36.2472  105.3897 Cl  0  0  0  0  0  0  0  0  0  0  0  0
  -64.4793  -36.7783   97.6570 H   0  0  0  0  0  0  0  0  0  0  0  0
  -66.5016  -36.7690   97.2127 H   0  0  0  0  0  0  0  0  0  0  0  0
  -68.2426  -34.7334   96.3813 H   0  0  0  0  0  0  0  0  0  0  0  0
  -67.8213  -33.2150   97.3095 H   0  0  0  0  0  0  0  0  0  0  0  0
  -66.4124  -35.9093   95.2585 H   0  0  0  0  0  0  0  0  0  0  0  0
  -65.4360  -35.8438   96.7846 H   0  0  0  0  0  0  0  0  0  0  0  0
  -63.6659  -34.6331   95.6430 H   0  0  0  0  0  0  0  0  0  0  0  0
  -64.0502  -36.1749   94.7661 H   0  0  0  0  0  0  0  0  0  0  0  0
  -65.2997  -34.9740   93.0837 H   0  0  0  0  0  0  0  0  0  0  0  0
  -62.7369  -33.4368   93.5475 H   0  0  0  0  0  0  0  0  0  0  0  0
  -62.8534  -35.1708   92.9291 H   0  0  0  0  0  0  0  0  0  0  0  0
  -64.6138  -32.4475   94.6430 H   0  0  0  0  0  0  0  0  0  0  0  0
  -65.6332  -32.6086   93.1469 H   0  0  0  0  0  0  0  0  0  0  0  0
  -66.9805  -32.2929   95.2183 H   0  0  0  0  0  0  0  0  0  0  0  0
  -67.3033  -33.8574   94.3604 H   0  0  0  0  0  0  0  0  0  0  0  0
  -67.9668  -33.4733   99.5748 H   0  0  0  0  0  0  0  0  0  0  0  0
  -67.0319  -32.7032  101.5861 H   0  0  0  0  0  0  0  0  0  0  0  0
  -68.4873  -33.4672  105.5728 H   0  0  0  0  0  0  0  0  0  0  0  0
  -56.8332  -41.5639   96.4499 H   0  0  0  0  0  0  0  0  0  0  0  0
  -58.1432  -41.6820   95.2266 H   0  0  0  0  0  0  0  0  0  0  0  0
  -57.0394  -40.2649   95.2266 H   0  0  0  0  0  0  0  0  0  0  0  0
  -58.7155  -41.9663   97.9813 H   0  0  0  0  0  0  0  0  0  0  0  0
  -59.9941  -41.7114   96.7343 H   0  0  0  0  0  0  0  0  0  0  0  0
  -60.8873  -41.2055   98.9435 H   0  0  0  0  0  0  0  0  0  0  0  0
  -59.5313  -40.0513   99.2451 H   0  0  0  0  0  0  0  0  0  0  0  0
  -59.4937  -37.9212   97.6207 H   0  0  0  0  0  0  0  0  0  0  0  0
  -60.8264  -37.8971   96.4004 H   0  0  0  0  0  0  0  0  0  0  0  0
  -59.9567  -39.8996   95.3450 H   0  0  0  0  0  0  0  0  0  0  0  0
  -58.6498  -38.6631   95.4677 H   0  0  0  0  0  0  0  0  0  0  0  0
  -68.3169  -36.6712  102.7041 H   0  0  0  0  0  0  0  0  0  0  0  0
  -64.6815  -40.3474   99.9797 H   0  0  0  0  0  0  0  0  0  0  0  0
  -57.8939  -39.7761   97.4463 H   0  0  0  0  0  0  0  0  0  0  0  0
  -65.6052  -33.4848   96.7391 H   0  0  0  0  0  0  0  0  0  0  0  0
  1  2  2  0
  1 31  1  0
  2 28  1  0
  2 35  1  0
  3  4  2  0
  3 33  1  0
  3 35  1  0
  4  5  1  0
  5  6  1  0
  5 14  2  0
 32  6  1  0
  7  8  1  0
  7 32  1  0
  8  9  1  0
  9 10  1  0
  9 12  1  0
 10 11  1  0
 11 36  1  0
 11 37  2  0
 12 13  1  0
 13 32  1  0
 14 15  1  0
 15 16  1  0
 15 33  2  0
 16 17  2  0
 16 27  1  0
 17 18  1  0
 18 19  2  0
 18 38  1  0
 19 26  1  0
 29 20  1  0
 21 22  1  0
 21 29  1  0
 22 30  1  0
 23 24  1  0
 23 30  1  0
 24 29  1  0
 25 30  1  0
 25 31  2  0
 25 34  1  0
 26 27  2  0
 26 39  1  0
 28 34  2  0
  1 40  1  0
  4 41  1  0
  6 42  1  0
  6 43  1  0
  7 44  1  0
  7 45  1  0
  8 46  1  0
  8 47  1  0
  9 48  1  6
 10 49  1  0
 10 50  1  0
 12 51  1  0
 12 52  1  0
 13 53  1  0
 13 54  1  0
 14 55  1  0
 17 56  1  0
 19 57  1  0
 20 58  1  0
 20 59  1  0
 20 60  1  0
 21 61  1  0
 21 62  1  0
 22 63  1  0
 22 64  1  0
 23 65  1  0
 23 66  1  0
 24 67  1  0
 24 68  1  0
 27 69  1  0
 28 70  1  0
 29 71  1  1
 32 72  1  1
M  CHG  3  29   1  32   1  36  -1
M  END
>  <filename_input>  (25) 
7LCU_XTA_docked.sdf

>  <pdb_id>  (25) 
7LCU_XTA

>  <pose_rank>  (25) 
24

>  <num_atoms_heavy>  (25) 
39

>  <num_torsions>  (25) 
7

>  <pose>  (25) 
[-66.55815908683158, -36.98697780830079, 99.36937311588878, 1.183714701412806, 1.8581400447093614, 0.2188959978045516, -4.272190791175414, -2.830198457204137, 4.278759776189762, -0.05061211284213135, -4.497529705240619, -1.4659678979490176, 0.1800481749530602]

>  <energy>  (25) 
-557.9058128398623

>  <inter_energy>  (25) 
-619.9727013160131

>  <intra_energy>  (25) 
58.66564888016061

>  <rmsd>  (25) 
9.8734

>  <sdf_rank>  (25) 
0

$$$$

     RDKit          3D

 72 76  0  0  0  0  0  0  0  0999 V2000
  -67.3690  -34.8900   98.7620 C   0  0  0  0  0  0  0  0  0  0  0  0
  -67.2290  -36.2580   98.6480 C   0  0  0  0  0  0  0  0  0  0  0  0
  -65.0000  -36.4270   97.7160 C   0  0  0  0  0  0  0  0  0  0  0  0
  -63.7320  -36.8570   98.0660 C   0  0  0  0  0  0  0  0  0  0  0  0
  -62.6750  -36.4680   97.2570 C   0  0  0  0  0  0  0  0  0  0  0  0
  -61.2640  -36.8930   97.5810 C   0  0  0  0  0  0  0  0  0  0  0  0
  -59.3220  -38.1690   96.9420 C   0  0  0  0  0  0  0  0  0  0  0  0
  -58.7560  -39.2520   96.0350 C   0  0  0  0  0  0  0  0  0  0  0  0
  -59.4680  -40.5780   96.2230 C   0  0  2  0  0  0  0  0  0  0  0  0
  -58.9360  -41.6300   95.2420 C   0  0  0  0  0  0  0  0  0  0  0  0
  -59.3910  -43.0310   95.4840 C   0  0  0  0  0  0  0  0  0  0  0  0
  -60.9630  -40.3580   96.0610 C   0  0  0  0  0  0  0  0  0  0  0  0
  -61.4830  -39.2300   96.9520 C   0  0  0  0  0  0  0  0  0  0  0  0
  -62.9390  -35.6790   96.1550 C   0  0  0  0  0  0  0  0  0  0  0  0
  -64.2450  -35.2910   95.8860 C   0  0  0  0  0  0  0  0  0  0  0  0
  -64.5870  -34.4810   94.6940 C   0  0  0  0  0  0  0  0  0  0  0  0
  -65.7190  -33.6670   94.6780 C   0  0  0  0  0  0  0  0  0  0  0  0
  -66.0200  -32.9460   93.5400 C   0  0  0  0  0  0  0  0  0  0  0  0
  -65.2380  -33.0050   92.4080 C   0  0  0  0  0  0  0  0  0  0  0  0
  -74.3890  -32.9730  100.8150 C   0  0  0  0  0  0  0  0  0  0  0  0
  -73.1190  -34.8390  100.0030 C   0  0  0  0  0  0  0  0  0  0  0  0
  -72.1010  -35.2970   98.9800 C   0  0  0  0  0  0  0  0  0  0  0  0
  -71.0180  -33.0980   99.2010 C   0  0  0  0  0  0  0  0  0  0  0  0
  -72.0790  -32.7340  100.2160 C   0  0  0  0  0  0  0  0  0  0  0  0
  -69.6220  -35.1270   98.9570 C   0  0  0  0  0  0  0  0  0  0  0  0
  -64.1290  -33.8200   92.4410 C   0  0  0  0  0  0  0  0  0  0  0  0
  -63.7990  -34.5600   93.5500 C   0  0  0  0  0  0  0  0  0  0  0  0
  -68.3820  -37.0130   98.7290 C   0  0  0  0  0  0  0  0  0  0  0  0
  -73.3260  -33.4070   99.9080 N   0  0  2  0  0  0  0  0  0  0  0  0
  -70.8410  -34.5510   99.1270 N   0  0  0  0  0  0  0  0  0  0  0  0
  -68.5620  -34.3020   98.9240 N   0  0  0  0  0  0  0  0  0  0  0  0
  -60.7560  -37.9680   96.7160 N   0  0  1  0  0  0  0  0  0  0  0  0
  -65.2770  -35.6760   96.6580 N   0  0  0  0  0  0  0  0  0  0  0  0
  -69.5940  -36.4650   98.8660 N   0  0  0  0  0  0  0  0  0  0  0  0
  -65.9800  -36.8730   98.5530 O   0  0  0  0  0  0  0  0  0  0  0  0
  -59.2500  -43.6000   96.5470 O   0  0  0  0  0  0  0  0  0  0  0  0
  -59.9460  -43.5750   94.4320 O   0  0  0  0  0  0  0  0  0  0  0  0
  -67.4340  -31.9300   93.5270 Cl  0  0  0  0  0  0  0  0  0  0  0  0
  -63.1290  -33.9370   91.0260 Cl  0  0  0  0  0  0  0  0  0  0  0  0
  -66.4687  -34.2595   98.7183 H   0  0  0  0  0  0  0  0  0  0  0  0
  -63.5684  -37.4849   98.9542 H   0  0  0  0  0  0  0  0  0  0  0  0
  -60.6047  -36.0192   97.4722 H   0  0  0  0  0  0  0  0  0  0  0  0
  -61.2750  -37.2859   98.6084 H   0  0  0  0  0  0  0  0  0  0  0  0
  -59.1640  -38.4632   97.9901 H   0  0  0  0  0  0  0  0  0  0  0  0
  -58.8034  -37.2258   96.7150 H   0  0  0  0  0  0  0  0  0  0  0  0
  -58.8685  -38.9335   94.9881 H   0  0  0  0  0  0  0  0  0  0  0  0
  -57.6967  -39.3945   96.2951 H   0  0  0  0  0  0  0  0  0  0  0  0
  -59.2735  -40.9650   97.2341 H   0  0  0  0  0  0  0  0  0  0  0  0
  -59.2564  -41.3409   94.2302 H   0  0  0  0  0  0  0  0  0  0  0  0
  -57.8446  -41.6419   95.3787 H   0  0  0  0  0  0  0  0  0  0  0  0
  -61.1716  -40.1043   95.0112 H   0  0  0  0  0  0  0  0  0  0  0  0
  -61.4740  -41.2853   96.3592 H   0  0  0  0  0  0  0  0  0  0  0  0
  -62.5506  -39.0714   96.7395 H   0  0  0  0  0  0  0  0  0  0  0  0
  -61.3288  -39.5232   98.0009 H   0  0  0  0  0  0  0  0  0  0  0  0
  -62.1197  -35.3597   95.4941 H   0  0  0  0  0  0  0  0  0  0  0  0
  -66.3666  -33.6000   95.5646 H   0  0  0  0  0  0  0  0  0  0  0  0
  -65.4904  -32.4220   91.5100 H   0  0  0  0  0  0  0  0  0  0  0  0
  -74.0602  -33.1073  101.8561 H   0  0  0  0  0  0  0  0  0  0  0  0
  -74.6135  -31.9112  100.6354 H   0  0  0  0  0  0  0  0  0  0  0  0
  -75.2925  -33.5743  100.6354 H   0  0  0  0  0  0  0  0  0  0  0  0
  -74.0729  -35.3555   99.8207 H   0  0  0  0  0  0  0  0  0  0  0  0
  -72.7444  -35.0782  101.0092 H   0  0  0  0  0  0  0  0  0  0  0  0
  -71.9038  -36.3698   99.1226 H   0  0  0  0  0  0  0  0  0  0  0  0
  -72.5048  -35.1126   97.9735 H   0  0  0  0  0  0  0  0  0  0  0  0
  -71.3207  -32.7214   98.2128 H   0  0  0  0  0  0  0  0  0  0  0  0
  -70.0653  -32.6434   99.5103 H   0  0  0  0  0  0  0  0  0  0  0  0
  -71.7413  -33.0375  101.2179 H   0  0  0  0  0  0  0  0  0  0  0  0
  -72.2436  -31.6468  100.1856 H   0  0  0  0  0  0  0  0  0  0  0  0
  -62.9142  -35.2133   93.5338 H   0  0  0  0  0  0  0  0  0  0  0  0
  -68.3004  -38.1088   98.6788 H   0  0  0  0  0  0  0  0  0  0  0  0
  -73.6204  -33.1652   98.9511 H   0  0  0  0  0  0  0  0  0  0  0  0
  -60.9081  -37.6846   95.7375 H   0  0  0  0  0  0  0  0  0  0  0  0
  1  2  2  0
  1 31  1  0
  2 28  1  0
  2 35  1  0
  3  4  2  0
  3 33  1  0
  3 35  1  0
  4  5  1  0
  5  6  1  0
  5 14  2  0
 32  6  1  0
  7  8  1  0
  7 32  1  0
  8  9  1  0
  9 10  1  0
  9 12  1  0
 10 11  1  0
 11 36  1  0
 11 37  2  0
 12 13  1  0
 13 32  1  0
 14 15  1  0
 15 16  1  0
 15 33  2  0
 16 17  2  0
 16 27  1  0
 17 18  1  0
 18 19  2  0
 18 38  1  0
 19 26  1  0
 29 20  1  0
 21 22  1  0
 21 29  1  0
 22 30  1  0
 23 24  1  0
 23 30  1  0
 24 29  1  0
 25 30  1  0
 25 31  2  0
 25 34  1  0
 26 27  2  0
 26 39  1  0
 28 34  2  0
  1 40  1  0
  4 41  1  0
  6 42  1  0
  6 43  1  0
  7 44  1  0
  7 45  1  0
  8 46  1  0
  8 47  1  0
  9 48  1  1
 10 49  1  0
 10 50  1  0
 12 51  1  0
 12 52  1  0
 13 53  1  0
 13 54  1  0
 14 55  1  0
 17 56  1  0
 19 57  1  0
 20 58  1  0
 20 59  1  0
 20 60  1  0
 21 61  1  0
 21 62  1  0
 22 63  1  0
 22 64  1  0
 23 65  1  0
 23 66  1  0
 24 67  1  0
 24 68  1  0
 27 69  1  0
 28 70  1  0
 29 71  1  6
 32 72  1  6
M  CHG  3  29   1  32   1  36  -1
M  END
>  <filename_input>  (26) 
7LCU_XTA_docked.sdf

>  <pdb_id>  (26) 
7LCU_XTA

>  <pose_rank>  (26) 
25

>  <num_atoms_heavy>  (26) 
39

>  <num_torsions>  (26) 
7

>  <pose>  (26) 
[-65.0, -36.427, 97.716, 1e-06, 1e-06, 1e-06, 0.0, 0.0, 0.0, 0.0, 0.0, 0.0, 0.0]

>  <energy>  (26) 
-934.2310745781555

>  <inter_energy>  (26) 
-950.7476923685019

>  <intra_energy>  (26) 
15.522006163758538

>  <rmsd>  (26) 
0.0

>  <sdf_rank>  (26) 
0

$$$$
